
     RDKit          3D

 73 75  0  0  1  0  0  0  0  0999 V2000
   31.9366   10.4647   27.7673 C   0  0  1  0  0  0  0  0  0  0  0  0
   31.6777    8.9502   27.5342 C   0  0  2  0  0  0  0  0  0  0  0  0
   29.2719    5.6317   30.4222 C   0  0  0  0  0  0  0  0  0  0  0  0
   33.2489   10.6238   26.9430 C   0  0  2  0  0  0  0  0  0  0  0  0
   29.2946    6.7658   29.6920 C   0  0  0  0  0  0  0  0  0  0  0  0
   30.3978    4.7274   30.6266 C   0  0  0  0  0  0  0  0  0  0  0  0
   30.4473    8.4597   28.2690 C   0  0  0  0  0  0  0  0  0  0  0  0
   30.4215    7.2954   28.9479 C   0  0  0  0  0  0  0  0  0  0  0  0
   34.8684   12.1955   28.2372 C   0  0  0  0  0  0  0  0  0  0  0  0
   36.2057   12.0877   28.3343 C   0  0  0  0  0  0  0  0  0  0  0  0
   33.0507    8.3113   27.7759 C   0  0  0  0  0  0  0  0  0  0  0  0
   34.0674    9.3595   27.2937 C   0  0  0  0  0  0  0  0  0  0  0  0
   27.9826    5.1519   31.0637 C   0  0  0  0  0  0  0  0  0  0  0  0
   34.0205   11.9708   26.9958 C   0  0  1  0  0  0  0  0  0  0  0  0
   30.1770    3.2904   30.2141 C   0  0  0  0  0  0  0  0  0  0  0  0
   31.5260    5.1178   31.2411 C   0  0  0  0  0  0  0  0  0  0  0  0
   37.0916   12.3421   29.5457 C   0  0  1  0  0  0  0  0  0  0  0  0
   30.7532   11.2897   27.2062 C   0  0  0  0  0  0  0  0  0  0  0  0
   32.1196   10.8037   29.2644 C   0  0  0  0  0  0  0  0  0  0  0  0
   27.8319    3.6172   31.0856 C   0  0  2  0  0  0  0  0  0  0  0  0
   28.7000    2.9352   30.0294 C   0  0  0  0  0  0  0  0  0  0  0  0
   36.3758   12.7529   30.8669 C   0  0  0  0  0  0  0  0  0  0  0  0
   29.2650    9.4116   28.1668 C   0  0  0  0  0  0  0  0  0  0  0  0
   26.4666    3.2527   30.8789 O   0  0  0  0  0  0  0  0  0  0  0  0
   29.4453   10.4889   27.0886 C   0  0  0  0  0  0  0  0  0  0  0  0
   34.8197   12.1504   25.6912 C   0  0  0  0  0  0  0  0  0  0  0  0
   38.0218   11.1326   29.7259 C   0  0  0  0  0  0  0  0  0  0  0  0
   35.6586   11.5954   31.5717 C   0  0  0  0  0  0  0  0  0  0  0  0
   37.3540   13.4086   31.8515 C   0  0  0  0  0  0  0  0  0  0  0  0
   31.4613    8.7925   26.4645 H   0  0  0  0  0  0  0  0  0  0  0  0
   32.9471   10.4952   25.8904 H   0  0  0  0  0  0  0  0  0  0  0  0
   28.3742    7.3431   29.6340 H   0  0  0  0  0  0  0  0  0  0  0  0
   31.3139    6.6743   28.9458 H   0  0  0  0  0  0  0  0  0  0  0  0
   34.3084   12.5097   29.1119 H   0  0  0  0  0  0  0  0  0  0  0  0
   36.7648   11.7973   27.4456 H   0  0  0  0  0  0  0  0  0  0  0  0
   33.2207    8.0952   28.8373 H   0  0  0  0  0  0  0  0  0  0  0  0
   33.1606    7.3696   27.2275 H   0  0  0  0  0  0  0  0  0  0  0  0
   34.6136    9.0001   26.4146 H   0  0  0  0  0  0  0  0  0  0  0  0
   34.8029    9.5305   28.0852 H   0  0  0  0  0  0  0  0  0  0  0  0
   27.9405    5.5208   32.0973 H   0  0  0  0  0  0  0  0  0  0  0  0
   27.1176    5.5979   30.5546 H   0  0  0  0  0  0  0  0  0  0  0  0
   33.2757   12.7786   26.9917 H   0  0  0  0  0  0  0  0  0  0  0  0
   30.6021    2.6251   30.9770 H   0  0  0  0  0  0  0  0  0  0  0  0
   30.7117    3.0892   29.2778 H   0  0  0  0  0  0  0  0  0  0  0  0
   32.3407    4.4238   31.4211 H   0  0  0  0  0  0  0  0  0  0  0  0
   31.6640    6.1396   31.5831 H   0  0  0  0  0  0  0  0  0  0  0  0
   37.7287   13.1890   29.2534 H   0  0  0  0  0  0  0  0  0  0  0  0
   30.5731   12.1709   27.8350 H   0  0  0  0  0  0  0  0  0  0  0  0
   30.9929   11.6904   26.2132 H   0  0  0  0  0  0  0  0  0  0  0  0
   32.2409   11.8815   29.4104 H   0  0  0  0  0  0  0  0  0  0  0  0
   31.2506   10.5148   29.8630 H   0  0  0  0  0  0  0  0  0  0  0  0
   32.9883   10.3050   29.7032 H   0  0  0  0  0  0  0  0  0  0  0  0
   28.1118    3.2430   32.0780 H   0  0  0  0  0  0  0  0  0  0  0  0
   28.3648    3.2344   29.0268 H   0  0  0  0  0  0  0  0  0  0  0  0
   28.5647    1.8476   30.0677 H   0  0  0  0  0  0  0  0  0  0  0  0
   35.6278   13.5203   30.6288 H   0  0  0  0  0  0  0  0  0  0  0  0
   29.1124    9.9019   29.1358 H   0  0  0  0  0  0  0  0  0  0  0  0
   28.3507    8.8545   27.9307 H   0  0  0  0  0  0  0  0  0  0  0  0
   26.2189    3.5281   29.9791 H   0  0  0  0  0  0  0  0  0  0  0  0
   29.4170   10.0071   26.1020 H   0  0  0  0  0  0  0  0  0  0  0  0
   28.5940   11.1797   27.1100 H   0  0  0  0  0  0  0  0  0  0  0  0
   34.1446   12.1719   24.8282 H   0  0  0  0  0  0  0  0  0  0  0  0
   35.5316   11.3333   25.5323 H   0  0  0  0  0  0  0  0  0  0  0  0
   35.3722   13.0967   25.6909 H   0  0  0  0  0  0  0  0  0  0  0  0
   38.7339   11.2900   30.5411 H   0  0  0  0  0  0  0  0  0  0  0  0
   37.4598   10.2154   29.9330 H   0  0  0  0  0  0  0  0  0  0  0  0
   38.6103   10.9554   28.8181 H   0  0  0  0  0  0  0  0  0  0  0  0
   36.3691   10.8714   31.9840 H   0  0  0  0  0  0  0  0  0  0  0  0
   34.9868   11.0589   30.8975 H   0  0  0  0  0  0  0  0  0  0  0  0
   35.0576   11.9735   32.4060 H   0  0  0  0  0  0  0  0  0  0  0  0
   36.8169   13.7957   32.7245 H   0  0  0  0  0  0  0  0  0  0  0  0
   38.1072   12.7021   32.2138 H   0  0  0  0  0  0  0  0  0  0  0  0
   37.8729   14.2511   31.3829 H   0  0  0  0  0  0  0  0  0  0  0  0
  2  1  1  0
  3  5  2  0
  4  1  1  0
  5  8  1  0
  6  3  1  0
  7  2  1  0
  8  7  2  0
  9 14  1  0
 10  9  2  0
  2 11  1  0
  4 12  1  0
 13  3  1  0
 14  4  1  0
 15  6  1  0
 16  6  2  0
 17 10  1  0
 18  1  1  0
  1 19  1  1
 20 13  1  0
 21 20  1  0
 22 17  1  0
 23  7  1  0
 20 24  1  0
 25 18  1  0
 14 26  1  0
 17 27  1  0
 28 22  1  0
 29 22  1  0
 23 25  1  0
 12 11  1  0
 15 21  1  0
  2 30  1  6
  4 31  1  6
  5 32  1  0
  8 33  1  0
  9 34  1  0
 10 35  1  0
 11 36  1  0
 11 37  1  0
 12 38  1  0
 12 39  1  0
 13 40  1  0
 13 41  1  0
 14 42  1  1
 15 43  1  0
 15 44  1  0
 16 45  1  0
 16 46  1  0
 17 47  1  1
 18 48  1  0
 18 49  1  0
 19 50  1  0
 19 51  1  0
 19 52  1  0
 20 53  1  1
 21 54  1  0
 21 55  1  0
 22 56  1  0
 23 57  1  0
 23 58  1  0
 24 59  1  0
 25 60  1  0
 25 61  1  0
 26 62  1  0
 26 63  1  0
 26 64  1  0
 27 65  1  0
 27 66  1  0
 27 67  1  0
 28 68  1  0
 28 69  1  0
 28 70  1  0
 29 71  1  0
 29 72  1  0
 29 73  1  0
M  END
> <Uni-Dock RESULT> 
ENERGY=   -4.300  LOWER_BOUND=    0.000  UPPER_BOUND=    0.000
INTER + INTRA:          -4.300
INTER:                  -4.300
INTRA:                   0.000
UNBOUND:                 0.000

$$$$

     RDKit          3D

 73 75  0  0  1  0  0  0  0  0999 V2000
   29.2135    2.3676   31.7344 C   0  0  1  0  0  0  0  0  0  0  0  0
   30.2768    2.5170   30.6110 C   0  0  2  0  0  0  0  0  0  0  0  0
   35.2805    2.3697   30.8986 C   0  0  0  0  0  0  0  0  0  0  0  0
   28.0622    3.2052   31.1020 C   0  0  2  0  0  0  0  0  0  0  0  0
   34.0699    1.7965   31.0592 C   0  0  0  0  0  0  0  0  0  0  0  0
   35.5255    3.7153   30.3922 C   0  0  0  0  0  0  0  0  0  0  0  0
   31.5775    1.8221   30.9574 C   0  0  0  0  0  0  0  0  0  0  0  0
   32.7831    2.3842   30.7385 C   0  0  0  0  0  0  0  0  0  0  0  0
   26.9222    4.6113   32.9705 C   0  0  0  0  0  0  0  0  0  0  0  0
   26.4494    5.8668   32.8728 C   0  0  0  0  0  0  0  0  0  0  0  0
   30.2428    4.0147   30.2833 C   0  0  0  0  0  0  0  0  0  0  0  0
   28.7803    4.4365   30.5024 C   0  0  0  0  0  0  0  0  0  0  0  0
   36.5494    1.5873   31.1848 C   0  0  0  0  0  0  0  0  0  0  0  0
   26.7888    3.5012   31.9408 C   0  0  1  0  0  0  0  0  0  0  0  0
   36.4194    3.8138   29.1777 C   0  0  0  0  0  0  0  0  0  0  0  0
   35.0748    4.8104   31.0250 C   0  0  0  0  0  0  0  0  0  0  0  0
   26.5282    6.9915   33.8955 C   0  0  1  0  0  0  0  0  0  0  0  0
   28.8568    0.8730   31.9211 C   0  0  0  0  0  0  0  0  0  0  0  0
   29.7040    2.9390   33.0845 C   0  0  0  0  0  0  0  0  0  0  0  0
   37.7169    1.9262   30.2357 C   0  0  2  0  0  0  0  0  0  0  0  0
   37.2357    2.5445   28.9240 C   0  0  0  0  0  0  0  0  0  0  0  0
   27.2768    6.6814   35.2259 C   0  0  0  0  0  0  0  0  0  0  0  0
   31.3796    0.4468   31.5768 C   0  0  0  0  0  0  0  0  0  0  0  0
   38.4775    0.7516   29.9506 O   0  0  0  0  0  0  0  0  0  0  0  0
   29.9492   -0.0879   31.4221 C   0  0  0  0  0  0  0  0  0  0  0  0
   25.5932    3.7120   30.9927 C   0  0  0  0  0  0  0  0  0  0  0  0
   27.0646    8.2473   33.1913 C   0  0  0  0  0  0  0  0  0  0  0  0
   28.8029    6.6352   35.0847 C   0  0  0  0  0  0  0  0  0  0  0  0
   26.9066    7.6891   36.3231 C   0  0  0  0  0  0  0  0  0  0  0  0
   29.9050    2.0069   29.7069 H   0  0  0  0  0  0  0  0  0  0  0  0
   27.7175    2.6162   30.2361 H   0  0  0  0  0  0  0  0  0  0  0  0
   34.0435    0.7828   31.4535 H   0  0  0  0  0  0  0  0  0  0  0  0
   32.8204    3.3657   30.2723 H   0  0  0  0  0  0  0  0  0  0  0  0
   27.4267    4.3166   33.8848 H   0  0  0  0  0  0  0  0  0  0  0  0
   25.9207    6.1486   31.9629 H   0  0  0  0  0  0  0  0  0  0  0  0
   30.8960    4.5939   30.9465 H   0  0  0  0  0  0  0  0  0  0  0  0
   30.5629    4.2107   29.2543 H   0  0  0  0  0  0  0  0  0  0  0  0
   28.3116    4.7311   29.5569 H   0  0  0  0  0  0  0  0  0  0  0  0
   28.7579    5.3093   31.1614 H   0  0  0  0  0  0  0  0  0  0  0  0
   36.8683    1.7910   32.2157 H   0  0  0  0  0  0  0  0  0  0  0  0
   36.3461    0.5087   31.1453 H   0  0  0  0  0  0  0  0  0  0  0  0
   26.5494    2.5922   32.5098 H   0  0  0  0  0  0  0  0  0  0  0  0
   37.1139    4.6543   29.3062 H   0  0  0  0  0  0  0  0  0  0  0  0
   35.8128    4.0307   28.2900 H   0  0  0  0  0  0  0  0  0  0  0  0
   35.2976    5.8071   30.6580 H   0  0  0  0  0  0  0  0  0  0  0  0
   34.4742    4.7401   31.9274 H   0  0  0  0  0  0  0  0  0  0  0  0
   25.4824    7.2016   34.1614 H   0  0  0  0  0  0  0  0  0  0  0  0
   28.6548    0.6603   32.9786 H   0  0  0  0  0  0  0  0  0  0  0  0
   27.9255    0.6255   31.3961 H   0  0  0  0  0  0  0  0  0  0  0  0
   28.9648    2.7698   33.8736 H   0  0  0  0  0  0  0  0  0  0  0  0
   30.6251    2.4580   33.4269 H   0  0  0  0  0  0  0  0  0  0  0  0
   29.9047    4.0128   33.0362 H   0  0  0  0  0  0  0  0  0  0  0  0
   38.3951    2.6276   30.7368 H   0  0  0  0  0  0  0  0  0  0  0  0
   36.6300    1.8132   28.3715 H   0  0  0  0  0  0  0  0  0  0  0  0
   38.0883    2.7670   28.2710 H   0  0  0  0  0  0  0  0  0  0  0  0
   26.9404    5.7020   35.5899 H   0  0  0  0  0  0  0  0  0  0  0  0
   31.6270    0.4933   32.6441 H   0  0  0  0  0  0  0  0  0  0  0  0
   32.0578   -0.2782   31.1116 H   0  0  0  0  0  0  0  0  0  0  0  0
   37.9052    0.1403   29.4550 H   0  0  0  0  0  0  0  0  0  0  0  0
   29.7676   -0.3039   30.3606 H   0  0  0  0  0  0  0  0  0  0  0  0
   29.8545   -1.0473   31.9443 H   0  0  0  0  0  0  0  0  0  0  0  0
   25.4131    2.8101   30.3966 H   0  0  0  0  0  0  0  0  0  0  0  0
   25.7655    4.5388   30.2953 H   0  0  0  0  0  0  0  0  0  0  0  0
   24.6736    3.9165   31.5525 H   0  0  0  0  0  0  0  0  0  0  0  0
   27.0752    9.1115   33.8618 H   0  0  0  0  0  0  0  0  0  0  0  0
   28.0801    8.0963   32.8094 H   0  0  0  0  0  0  0  0  0  0  0  0
   26.4321    8.5145   32.3367 H   0  0  0  0  0  0  0  0  0  0  0  0
   29.2202    7.6276   34.8848 H   0  0  0  0  0  0  0  0  0  0  0  0
   29.1194    5.9700   34.2778 H   0  0  0  0  0  0  0  0  0  0  0  0
   29.2587    6.2708   36.0119 H   0  0  0  0  0  0  0  0  0  0  0  0
   27.3482    7.3920   37.2808 H   0  0  0  0  0  0  0  0  0  0  0  0
   27.2650    8.6972   36.0927 H   0  0  0  0  0  0  0  0  0  0  0  0
   25.8214    7.7351   36.4601 H   0  0  0  0  0  0  0  0  0  0  0  0
  2  1  1  0
  3  5  2  0
  4  1  1  0
  5  8  1  0
  6  3  1  0
  7  2  1  0
  8  7  2  0
  9 14  1  0
 10  9  2  0
  2 11  1  0
  4 12  1  0
 13  3  1  0
 14  4  1  0
 15  6  1  0
 16  6  2  0
 17 10  1  0
 18  1  1  0
  1 19  1  1
 20 13  1  0
 21 20  1  0
 22 17  1  0
 23  7  1  0
 20 24  1  0
 25 18  1  0
 14 26  1  0
 17 27  1  0
 28 22  1  0
 29 22  1  0
 23 25  1  0
 12 11  1  0
 15 21  1  0
  2 30  1  6
  4 31  1  6
  5 32  1  0
  8 33  1  0
  9 34  1  0
 10 35  1  0
 11 36  1  0
 11 37  1  0
 12 38  1  0
 12 39  1  0
 13 40  1  0
 13 41  1  0
 14 42  1  1
 15 43  1  0
 15 44  1  0
 16 45  1  0
 16 46  1  0
 17 47  1  1
 18 48  1  0
 18 49  1  0
 19 50  1  0
 19 51  1  0
 19 52  1  0
 20 53  1  1
 21 54  1  0
 21 55  1  0
 22 56  1  0
 23 57  1  0
 23 58  1  0
 24 59  1  0
 25 60  1  0
 25 61  1  0
 26 62  1  0
 26 63  1  0
 26 64  1  0
 27 65  1  0
 27 66  1  0
 27 67  1  0
 28 68  1  0
 28 69  1  0
 28 70  1  0
 29 71  1  0
 29 72  1  0
 29 73  1  0
M  END
> <Uni-Dock RESULT> 
ENERGY=   -3.990  LOWER_BOUND=    6.350  UPPER_BOUND=    9.773
INTER + INTRA:          -3.990
INTER:                  -3.990
INTRA:                   0.000
UNBOUND:                 0.000

$$$$

     RDKit          3D

 73 75  0  0  1  0  0  0  0  0999 V2000
   22.3897    6.1669   32.0445 C   0  0  1  0  0  0  0  0  0  0  0  0
   23.3325    5.7305   30.8888 C   0  0  2  0  0  0  0  0  0  0  0  0
   27.8007    3.4638   31.0845 C   0  0  0  0  0  0  0  0  0  0  0  0
   21.6647    7.3530   31.3415 C   0  0  2  0  0  0  0  0  0  0  0  0
   26.4760    3.4892   31.3383 C   0  0  0  0  0  0  0  0  0  0  0  0
   28.5602    4.5142   30.4160 C   0  0  0  0  0  0  0  0  0  0  0  0
   24.2328    4.5795   31.2876 C   0  0  0  0  0  0  0  0  0  0  0  0
   25.5441    4.5406   30.9775 C   0  0  0  0  0  0  0  0  0  0  0  0
   21.3696    9.2902   33.0528 C   0  0  0  0  0  0  0  0  0  0  0  0
   21.4725   10.6103   32.8161 C   0  0  0  0  0  0  0  0  0  0  0  0
   23.9181    7.0554   30.3854 C   0  0  0  0  0  0  0  0  0  0  0  0
   22.7953    8.0873   30.5839 C   0  0  0  0  0  0  0  0  0  0  0  0
   28.6308    2.2422   31.4348 C   0  0  0  0  0  0  0  0  0  0  0  0
   20.7025    8.2514   32.1661 C   0  0  1  0  0  0  0  0  0  0  0  0
   29.3221    4.0965   29.1795 C   0  0  0  0  0  0  0  0  0  0  0  0
   28.6664    5.7529   30.9231 C   0  0  0  0  0  0  0  0  0  0  0  0
   22.0962   11.6850   33.6953 C   0  0  1  0  0  0  0  0  0  0  0  0
   21.4431    4.9998   32.4159 C   0  0  0  0  0  0  0  0  0  0  0  0
   23.1714    6.5999   33.3059 C   0  0  0  0  0  0  0  0  0  0  0  0
   29.7607    1.9478   30.4272 C   0  0  2  0  0  0  0  0  0  0  0  0
   29.4981    2.5810   29.0618 C   0  0  0  0  0  0  0  0  0  0  0  0
   22.7330   11.2144   35.0368 C   0  0  0  0  0  0  0  0  0  0  0  0
   23.5111    3.4933   32.0709 C   0  0  0  0  0  0  0  0  0  0  0  0
   29.9247    0.5381   30.2681 O   0  0  0  0  0  0  0  0  0  0  0  0
   21.9824    3.6171   32.0118 C   0  0  0  0  0  0  0  0  0  0  0  0
   19.6476    8.8638   31.2254 C   0  0  0  0  0  0  0  0  0  0  0  0
   23.0661   12.5095   32.8350 C   0  0  0  0  0  0  0  0  0  0  0  0
   24.0789   10.4994   34.8695 C   0  0  0  0  0  0  0  0  0  0  0  0
   22.9072   12.3857   36.0136 C   0  0  0  0  0  0  0  0  0  0  0  0
   22.7155    5.3450   30.0602 H   0  0  0  0  0  0  0  0  0  0  0  0
   21.0411    6.8888   30.5596 H   0  0  0  0  0  0  0  0  0  0  0  0
   26.0473    2.6308   31.8513 H   0  0  0  0  0  0  0  0  0  0  0  0
   25.9639    5.3584   30.3967 H   0  0  0  0  0  0  0  0  0  0  0  0
   21.7634    8.8979   33.9847 H   0  0  0  0  0  0  0  0  0  0  0  0
   21.0519   11.0018   31.8906 H   0  0  0  0  0  0  0  0  0  0  0  0
   24.8012    7.3576   30.9606 H   0  0  0  0  0  0  0  0  0  0  0  0
   24.2175    6.9914   29.3338 H   0  0  0  0  0  0  0  0  0  0  0  0
   22.4316    8.4609   29.6203 H   0  0  0  0  0  0  0  0  0  0  0  0
   23.1944    8.9442   31.1344 H   0  0  0  0  0  0  0  0  0  0  0  0
   29.0783    2.3884   32.4270 H   0  0  0  0  0  0  0  0  0  0  0  0
   27.9842    1.3594   31.5287 H   0  0  0  0  0  0  0  0  0  0  0  0
   20.1389    7.5961   32.8445 H   0  0  0  0  0  0  0  0  0  0  0  0
   30.3162    4.5623   29.1919 H   0  0  0  0  0  0  0  0  0  0  0  0
   28.8050    4.4657   28.2855 H   0  0  0  0  0  0  0  0  0  0  0  0
   29.2668    6.5138   30.4350 H   0  0  0  0  0  0  0  0  0  0  0  0
   28.1588    6.0384   31.8401 H   0  0  0  0  0  0  0  0  0  0  0  0
   21.2620   12.3516   33.9566 H   0  0  0  0  0  0  0  0  0  0  0  0
   21.2452    5.0005   33.4953 H   0  0  0  0  0  0  0  0  0  0  0  0
   20.4608    5.1288   31.9443 H   0  0  0  0  0  0  0  0  0  0  0  0
   22.4887    6.8455   34.1252 H   0  0  0  0  0  0  0  0  0  0  0  0
   23.8207    5.8043   33.6835 H   0  0  0  0  0  0  0  0  0  0  0  0
   23.8074    7.4709   33.1255 H   0  0  0  0  0  0  0  0  0  0  0  0
   30.7071    2.3327   30.8264 H   0  0  0  0  0  0  0  0  0  0  0  0
   28.6007    2.1328   28.6136 H   0  0  0  0  0  0  0  0  0  0  0  0
   30.3155    2.3475   28.3688 H   0  0  0  0  0  0  0  0  0  0  0  0
   22.0373   10.5178   35.5223 H   0  0  0  0  0  0  0  0  0  0  0  0
   23.8296    3.5331   33.1195 H   0  0  0  0  0  0  0  0  0  0  0  0
   23.7799    2.5044   31.6811 H   0  0  0  0  0  0  0  0  0  0  0  0
   29.1127    0.1888   29.8614 H   0  0  0  0  0  0  0  0  0  0  0  0
   21.6512    3.3975   30.9878 H   0  0  0  0  0  0  0  0  0  0  0  0
   21.5243    2.8495   32.6467 H   0  0  0  0  0  0  0  0  0  0  0  0
   19.0579    8.0746   30.7453 H   0  0  0  0  0  0  0  0  0  0  0  0
   20.1065    9.4618   30.4308 H   0  0  0  0  0  0  0  0  0  0  0  0
   18.9455    9.4997   31.7764 H   0  0  0  0  0  0  0  0  0  0  0  0
   23.4922   13.3455   33.3971 H   0  0  0  0  0  0  0  0  0  0  0  0
   23.8901   11.8976   32.4521 H   0  0  0  0  0  0  0  0  0  0  0  0
   22.5496   12.9382   31.9683 H   0  0  0  0  0  0  0  0  0  0  0  0
   24.8647   11.1889   34.5437 H   0  0  0  0  0  0  0  0  0  0  0  0
   24.0231    9.6869   34.1412 H   0  0  0  0  0  0  0  0  0  0  0  0
   24.3999   10.0671   35.8236 H   0  0  0  0  0  0  0  0  0  0  0  0
   23.2462   12.0228   36.9902 H   0  0  0  0  0  0  0  0  0  0  0  0
   23.6443   13.1117   35.6569 H   0  0  0  0  0  0  0  0  0  0  0  0
   21.9582   12.9096   36.1674 H   0  0  0  0  0  0  0  0  0  0  0  0
  2  1  1  0
  3  5  2  0
  4  1  1  0
  5  8  1  0
  6  3  1  0
  7  2  1  0
  8  7  2  0
  9 14  1  0
 10  9  2  0
  2 11  1  0
  4 12  1  0
 13  3  1  0
 14  4  1  0
 15  6  1  0
 16  6  2  0
 17 10  1  0
 18  1  1  0
  1 19  1  1
 20 13  1  0
 21 20  1  0
 22 17  1  0
 23  7  1  0
 20 24  1  0
 25 18  1  0
 14 26  1  0
 17 27  1  0
 28 22  1  0
 29 22  1  0
 23 25  1  0
 12 11  1  0
 15 21  1  0
  2 30  1  6
  4 31  1  6
  5 32  1  0
  8 33  1  0
  9 34  1  0
 10 35  1  0
 11 36  1  0
 11 37  1  0
 12 38  1  0
 12 39  1  0
 13 40  1  0
 13 41  1  0
 14 42  1  1
 15 43  1  0
 15 44  1  0
 16 45  1  0
 16 46  1  0
 17 47  1  1
 18 48  1  0
 18 49  1  0
 19 50  1  0
 19 51  1  0
 19 52  1  0
 20 53  1  1
 21 54  1  0
 21 55  1  0
 22 56  1  0
 23 57  1  0
 23 58  1  0
 24 59  1  0
 25 60  1  0
 25 61  1  0
 26 62  1  0
 26 63  1  0
 26 64  1  0
 27 65  1  0
 27 66  1  0
 27 67  1  0
 28 68  1  0
 28 69  1  0
 28 70  1  0
 29 71  1  0
 29 72  1  0
 29 73  1  0
M  END
> <Uni-Dock RESULT> 
ENERGY=   -3.981  LOWER_BOUND=    6.892  UPPER_BOUND=   10.621
INTER + INTRA:          -3.981
INTER:                  -3.981
INTRA:                   0.000
UNBOUND:                 0.000

$$$$

     RDKit          3D

 73 75  0  0  1  0  0  0  0  0999 V2000
   30.0690   11.4123   19.9302 C   0  0  1  0  0  0  0  0  0  0  0  0
   29.0513   10.2959   20.2949 C   0  0  2  0  0  0  0  0  0  0  0  0
   24.9124    8.8225   17.8786 C   0  0  0  0  0  0  0  0  0  0  0  0
   30.5724   11.7689   21.3607 C   0  0  2  0  0  0  0  0  0  0  0  0
   26.2468    9.0139   17.9289 C   0  0  0  0  0  0  0  0  0  0  0  0
   23.9694    9.1103   18.9532 C   0  0  0  0  0  0  0  0  0  0  0  0
   28.3354    9.7528   19.0755 C   0  0  0  0  0  0  0  0  0  0  0  0
   27.0091    9.5122   19.0578 C   0  0  0  0  0  0  0  0  0  0  0  0
   30.8508   14.3497   21.5343 C   0  0  0  0  0  0  0  0  0  0  0  0
   30.5768   15.1300   22.5950 C   0  0  0  0  0  0  0  0  0  0  0  0
   28.2691   10.8950   21.4701 C   0  0  0  0  0  0  0  0  0  0  0  0
   29.2874   11.7692   22.2210 C   0  0  0  0  0  0  0  0  0  0  0  0
   24.2678    8.1947   16.6560 C   0  0  0  0  0  0  0  0  0  0  0  0
   31.5198   12.9849   21.5515 C   0  0  1  0  0  0  0  0  0  0  0  0
   23.1189    7.9503   19.4169 C   0  0  0  0  0  0  0  0  0  0  0  0
   23.7879   10.3515   19.4319 C   0  0  0  0  0  0  0  0  0  0  0  0
   29.9458   16.5152   22.6149 C   0  0  1  0  0  0  0  0  0  0  0  0
   31.1747   10.8331   19.0149 C   0  0  0  0  0  0  0  0  0  0  0  0
   29.3970   12.6052   19.2124 C   0  0  0  0  0  0  0  0  0  0  0  0
   23.0673    7.2839   16.9839 C   0  0  2  0  0  0  0  0  0  0  0  0
   23.0977    6.7833   18.4272 C   0  0  0  0  0  0  0  0  0  0  0  0
   29.5254   17.1165   21.2407 C   0  0  0  0  0  0  0  0  0  0  0  0
   29.2584    9.5196   17.8890 C   0  0  0  0  0  0  0  0  0  0  0  0
   23.0415    6.1638   16.0983 O   0  0  0  0  0  0  0  0  0  0  0  0
   30.7470    9.5625   18.2609 C   0  0  0  0  0  0  0  0  0  0  0  0
   32.3842   12.7638   22.8072 C   0  0  0  0  0  0  0  0  0  0  0  0
   28.7975   16.5078   23.6358 C   0  0  0  0  0  0  0  0  0  0  0  0
   28.2558   16.4916   20.6505 C   0  0  0  0  0  0  0  0  0  0  0  0
   29.3389   18.6375   21.3302 C   0  0  0  0  0  0  0  0  0  0  0  0
   29.6060    9.4397   20.7134 H   0  0  0  0  0  0  0  0  0  0  0  0
   31.1476   10.8889   21.6929 H   0  0  0  0  0  0  0  0  0  0  0  0
   26.8240    8.7561   17.0434 H   0  0  0  0  0  0  0  0  0  0  0  0
   26.4373    9.6937   19.9647 H   0  0  0  0  0  0  0  0  0  0  0  0
   30.6139   14.7205   20.5424 H   0  0  0  0  0  0  0  0  0  0  0  0
   30.8410   14.7632   23.5862 H   0  0  0  0  0  0  0  0  0  0  0  0
   27.4314   11.5154   21.1306 H   0  0  0  0  0  0  0  0  0  0  0  0
   27.8579   10.1160   22.1210 H   0  0  0  0  0  0  0  0  0  0  0  0
   29.4929   11.3630   23.2175 H   0  0  0  0  0  0  0  0  0  0  0  0
   28.8636   12.7682   22.3589 H   0  0  0  0  0  0  0  0  0  0  0  0
   23.9259    8.9932   15.9841 H   0  0  0  0  0  0  0  0  0  0  0  0
   25.0139    7.6261   16.0846 H   0  0  0  0  0  0  0  0  0  0  0  0
   32.2272   12.9876   20.7108 H   0  0  0  0  0  0  0  0  0  0  0  0
   22.0879    8.2953   19.5701 H   0  0  0  0  0  0  0  0  0  0  0  0
   23.4845    7.5891   20.3859 H   0  0  0  0  0  0  0  0  0  0  0  0
   23.0547   10.5574   20.2051 H   0  0  0  0  0  0  0  0  0  0  0  0
   24.3646   11.1945   19.0621 H   0  0  0  0  0  0  0  0  0  0  0  0
   30.7266   17.1724   23.0234 H   0  0  0  0  0  0  0  0  0  0  0  0
   31.4960   11.5865   18.2845 H   0  0  0  0  0  0  0  0  0  0  0  0
   32.0751   10.5934   19.5943 H   0  0  0  0  0  0  0  0  0  0  0  0
   30.1395   13.3509   18.9122 H   0  0  0  0  0  0  0  0  0  0  0  0
   28.8875   12.3009   18.2932 H   0  0  0  0  0  0  0  0  0  0  0  0
   28.6526   13.1048   19.8384 H   0  0  0  0  0  0  0  0  0  0  0  0
   22.1374    7.8409   16.8157 H   0  0  0  0  0  0  0  0  0  0  0  0
   23.9804    6.1470   18.5786 H   0  0  0  0  0  0  0  0  0  0  0  0
   22.2356    6.1348   18.6250 H   0  0  0  0  0  0  0  0  0  0  0  0
   30.3453   16.9545   20.5289 H   0  0  0  0  0  0  0  0  0  0  0  0
   29.0621   10.2810   17.1245 H   0  0  0  0  0  0  0  0  0  0  0  0
   29.0561    8.5402   17.4396 H   0  0  0  0  0  0  0  0  0  0  0  0
   23.8339    5.6275   16.2749 H   0  0  0  0  0  0  0  0  0  0  0  0
   30.9784    8.6895   18.8860 H   0  0  0  0  0  0  0  0  0  0  0  0
   31.3574    9.4547   17.3565 H   0  0  0  0  0  0  0  0  0  0  0  0
   32.9968   11.8618   22.6968 H   0  0  0  0  0  0  0  0  0  0  0  0
   31.7728   12.6387   23.7073 H   0  0  0  0  0  0  0  0  0  0  0  0
   33.0717   13.6017   22.9688 H   0  0  0  0  0  0  0  0  0  0  0  0
   28.3508   17.5001   23.7467 H   0  0  0  0  0  0  0  0  0  0  0  0
   28.0067   15.8048   23.3524 H   0  0  0  0  0  0  0  0  0  0  0  0
   29.1593   16.2084   24.6263 H   0  0  0  0  0  0  0  0  0  0  0  0
   27.3665   16.7602   21.2302 H   0  0  0  0  0  0  0  0  0  0  0  0
   28.3151   15.4012   20.6139 H   0  0  0  0  0  0  0  0  0  0  0  0
   28.0977   16.8489   19.6270 H   0  0  0  0  0  0  0  0  0  0  0  0
   29.1581   19.0604   20.3357 H   0  0  0  0  0  0  0  0  0  0  0  0
   28.4900   18.9105   21.9646 H   0  0  0  0  0  0  0  0  0  0  0  0
   30.2361   19.1172   21.7346 H   0  0  0  0  0  0  0  0  0  0  0  0
  2  1  1  0
  3  5  2  0
  4  1  1  0
  5  8  1  0
  6  3  1  0
  7  2  1  0
  8  7  2  0
  9 14  1  0
 10  9  2  0
  2 11  1  0
  4 12  1  0
 13  3  1  0
 14  4  1  0
 15  6  1  0
 16  6  2  0
 17 10  1  0
 18  1  1  0
  1 19  1  1
 20 13  1  0
 21 20  1  0
 22 17  1  0
 23  7  1  0
 20 24  1  0
 25 18  1  0
 14 26  1  0
 17 27  1  0
 28 22  1  0
 29 22  1  0
 23 25  1  0
 12 11  1  0
 15 21  1  0
  2 30  1  6
  4 31  1  6
  5 32  1  0
  8 33  1  0
  9 34  1  0
 10 35  1  0
 11 36  1  0
 11 37  1  0
 12 38  1  0
 12 39  1  0
 13 40  1  0
 13 41  1  0
 14 42  1  1
 15 43  1  0
 15 44  1  0
 16 45  1  0
 16 46  1  0
 17 47  1  1
 18 48  1  0
 18 49  1  0
 19 50  1  0
 19 51  1  0
 19 52  1  0
 20 53  1  1
 21 54  1  0
 21 55  1  0
 22 56  1  0
 23 57  1  0
 23 58  1  0
 24 59  1  0
 25 60  1  0
 25 61  1  0
 26 62  1  0
 26 63  1  0
 26 64  1  0
 27 65  1  0
 27 66  1  0
 27 67  1  0
 28 68  1  0
 28 69  1  0
 28 70  1  0
 29 71  1  0
 29 72  1  0
 29 73  1  0
M  END
> <Uni-Dock RESULT> 
ENERGY=   -3.892  LOWER_BOUND=    8.764  UPPER_BOUND=   11.317
INTER + INTRA:          -3.892
INTER:                  -3.892
INTRA:                   0.000
UNBOUND:                 0.000

$$$$

     RDKit          3D

 73 75  0  0  1  0  0  0  0  0999 V2000
   30.5504   11.7843   26.3559 C   0  0  1  0  0  0  0  0  0  0  0  0
   29.7253   10.5269   26.7472 C   0  0  2  0  0  0  0  0  0  0  0  0
   25.6090   10.1542   29.5859 C   0  0  0  0  0  0  0  0  0  0  0  0
   31.9423   11.1159   26.1498 C   0  0  2  0  0  0  0  0  0  0  0  0
   26.2584   10.6260   28.5017 C   0  0  0  0  0  0  0  0  0  0  0  0
   26.1769    9.2793   30.6053 C   0  0  0  0  0  0  0  0  0  0  0  0
   28.2827   10.8639   27.0634 C   0  0  0  0  0  0  0  0  0  0  0  0
   27.6281   10.3401   28.1190 C   0  0  0  0  0  0  0  0  0  0  0  0
   33.7782   12.6807   27.1240 C   0  0  0  0  0  0  0  0  0  0  0  0
   34.8927   12.3181   27.7840 C   0  0  0  0  0  0  0  0  0  0  0  0
   30.6164    9.8201   27.7758 C   0  0  0  0  0  0  0  0  0  0  0  0
   32.0564   10.1175   27.3252 C   0  0  0  0  0  0  0  0  0  0  0  0
   24.1379   10.4615   29.7994 C   0  0  0  0  0  0  0  0  0  0  0  0
   33.1851   12.0120   25.8945 C   0  0  1  0  0  0  0  0  0  0  0  0
   25.4546    7.9717   30.8336 C   0  0  0  0  0  0  0  0  0  0  0  0
   27.2142    9.6533   31.3714 C   0  0  0  0  0  0  0  0  0  0  0  0
   35.5380   12.9837   28.9914 C   0  0  1  0  0  0  0  0  0  0  0  0
   29.9700   12.4092   25.0641 C   0  0  0  0  0  0  0  0  0  0  0  0
   30.5537   12.8530   27.4728 C   0  0  0  0  0  0  0  0  0  0  0  0
   23.3482    9.3057   30.4466 C   0  0  2  0  0  0  0  0  0  0  0  0
   24.0376    7.9556   30.2559 C   0  0  0  0  0  0  0  0  0  0  0  0
   34.8144   14.2329   29.5765 C   0  0  0  0  0  0  0  0  0  0  0  0
   27.6647   11.8481   26.0817 C   0  0  0  0  0  0  0  0  0  0  0  0
   22.0303    9.2420   29.9001 O   0  0  0  0  0  0  0  0  0  0  0  0
   28.4993   12.0390   24.8078 C   0  0  0  0  0  0  0  0  0  0  0  0
   34.2298   11.2152   25.0905 C   0  0  0  0  0  0  0  0  0  0  0  0
   35.8084   11.9040   30.0506 C   0  0  0  0  0  0  0  0  0  0  0  0
   33.5473   13.9012   30.3736 C   0  0  0  0  0  0  0  0  0  0  0  0
   35.7575   15.0623   30.4591 C   0  0  0  0  0  0  0  0  0  0  0  0
   29.6832    9.8510   25.8769 H   0  0  0  0  0  0  0  0  0  0  0  0
   31.8338   10.4937   25.2460 H   0  0  0  0  0  0  0  0  0  0  0  0
   25.7034   11.2757   27.8282 H   0  0  0  0  0  0  0  0  0  0  0  0
   28.1519    9.6289   28.7529 H   0  0  0  0  0  0  0  0  0  0  0  0
   33.2410   13.5623   27.4580 H   0  0  0  0  0  0  0  0  0  0  0  0
   35.4420   11.4475   27.4277 H   0  0  0  0  0  0  0  0  0  0  0  0
   30.4603   10.2092   28.7888 H   0  0  0  0  0  0  0  0  0  0  0  0
   30.4238    8.7423   27.8048 H   0  0  0  0  0  0  0  0  0  0  0  0
   32.5630    9.2013   27.0025 H   0  0  0  0  0  0  0  0  0  0  0  0
   32.6183   10.5171   28.1744 H   0  0  0  0  0  0  0  0  0  0  0  0
   24.0489   11.3472   30.4425 H   0  0  0  0  0  0  0  0  0  0  0  0
   23.6670   10.7388   28.8466 H   0  0  0  0  0  0  0  0  0  0  0  0
   32.8720   12.8297   25.2307 H   0  0  0  0  0  0  0  0  0  0  0  0
   25.3929    7.7753   31.9121 H   0  0  0  0  0  0  0  0  0  0  0  0
   26.0298    7.1502   30.3895 H   0  0  0  0  0  0  0  0  0  0  0  0
   27.6018    9.0073   32.1525 H   0  0  0  0  0  0  0  0  0  0  0  0
   27.7013   10.6155   31.2404 H   0  0  0  0  0  0  0  0  0  0  0  0
   36.5191   13.3249   28.6315 H   0  0  0  0  0  0  0  0  0  0  0  0
   30.0587   13.5025   25.0984 H   0  0  0  0  0  0  0  0  0  0  0  0
   30.5522   12.1019   24.1862 H   0  0  0  0  0  0  0  0  0  0  0  0
   31.0893   13.7523   27.1533 H   0  0  0  0  0  0  0  0  0  0  0  0
   29.5433   13.1815   27.7340 H   0  0  0  0  0  0  0  0  0  0  0  0
   31.0197   12.4937   28.3944 H   0  0  0  0  0  0  0  0  0  0  0  0
   23.2358    9.5041   31.5195 H   0  0  0  0  0  0  0  0  0  0  0  0
   24.0713    7.7062   29.1865 H   0  0  0  0  0  0  0  0  0  0  0  0
   23.4481    7.1564   30.7214 H   0  0  0  0  0  0  0  0  0  0  0  0
   34.5285   14.8871   28.7426 H   0  0  0  0  0  0  0  0  0  0  0  0
   27.5429   12.8202   26.5746 H   0  0  0  0  0  0  0  0  0  0  0  0
   26.6688   11.5043   25.7784 H   0  0  0  0  0  0  0  0  0  0  0  0
   22.1104    9.0103   28.9584 H   0  0  0  0  0  0  0  0  0  0  0  0
   28.4687   11.1086   24.2249 H   0  0  0  0  0  0  0  0  0  0  0  0
   28.0374   12.8056   24.1745 H   0  0  0  0  0  0  0  0  0  0  0  0
   33.8175   10.9113   24.1217 H   0  0  0  0  0  0  0  0  0  0  0  0
   34.5428   10.3061   25.6151 H   0  0  0  0  0  0  0  0  0  0  0  0
   35.1197   11.8210   24.8855 H   0  0  0  0  0  0  0  0  0  0  0  0
   36.3391   12.3122   30.9155 H   0  0  0  0  0  0  0  0  0  0  0  0
   34.8809   11.4406   30.4039 H   0  0  0  0  0  0  0  0  0  0  0  0
   36.4356   11.1042   29.6399 H   0  0  0  0  0  0  0  0  0  0  0  0
   33.7832   13.3891   31.3122 H   0  0  0  0  0  0  0  0  0  0  0  0
   32.8625   13.2650   29.8078 H   0  0  0  0  0  0  0  0  0  0  0  0
   33.0092   14.8204   30.6303 H   0  0  0  0  0  0  0  0  0  0  0  0
   35.2718   15.9946   30.7680 H   0  0  0  0  0  0  0  0  0  0  0  0
   36.0487   14.5250   31.3669 H   0  0  0  0  0  0  0  0  0  0  0  0
   36.6680   15.3297   29.9131 H   0  0  0  0  0  0  0  0  0  0  0  0
  2  1  1  0
  3  5  2  0
  4  1  1  0
  5  8  1  0
  6  3  1  0
  7  2  1  0
  8  7  2  0
  9 14  1  0
 10  9  2  0
  2 11  1  0
  4 12  1  0
 13  3  1  0
 14  4  1  0
 15  6  1  0
 16  6  2  0
 17 10  1  0
 18  1  1  0
  1 19  1  1
 20 13  1  0
 21 20  1  0
 22 17  1  0
 23  7  1  0
 20 24  1  0
 25 18  1  0
 14 26  1  0
 17 27  1  0
 28 22  1  0
 29 22  1  0
 23 25  1  0
 12 11  1  0
 15 21  1  0
  2 30  1  6
  4 31  1  6
  5 32  1  0
  8 33  1  0
  9 34  1  0
 10 35  1  0
 11 36  1  0
 11 37  1  0
 12 38  1  0
 12 39  1  0
 13 40  1  0
 13 41  1  0
 14 42  1  1
 15 43  1  0
 15 44  1  0
 16 45  1  0
 16 46  1  0
 17 47  1  1
 18 48  1  0
 18 49  1  0
 19 50  1  0
 19 51  1  0
 19 52  1  0
 20 53  1  1
 21 54  1  0
 21 55  1  0
 22 56  1  0
 23 57  1  0
 23 58  1  0
 24 59  1  0
 25 60  1  0
 25 61  1  0
 26 62  1  0
 26 63  1  0
 26 64  1  0
 27 65  1  0
 27 66  1  0
 27 67  1  0
 28 68  1  0
 28 69  1  0
 28 70  1  0
 29 71  1  0
 29 72  1  0
 29 73  1  0
M  END
> <Uni-Dock RESULT> 
ENERGY=   -3.802  LOWER_BOUND=    3.394  UPPER_BOUND=    4.236
INTER + INTRA:          -3.802
INTER:                  -3.802
INTRA:                   0.000
UNBOUND:                 0.000

$$$$

     RDKit          3D

 73 75  0  0  1  0  0  0  0  0999 V2000
   28.9380    4.9249   31.4905 C   0  0  1  0  0  0  0  0  0  0  0  0
   27.6901    5.5286   32.1930 C   0  0  2  0  0  0  0  0  0  0  0  0
   23.0568    6.2564   30.4200 C   0  0  0  0  0  0  0  0  0  0  0  0
   30.0550    5.6565   32.2928 C   0  0  2  0  0  0  0  0  0  0  0  0
   24.0875    5.4456   30.7364 C   0  0  0  0  0  0  0  0  0  0  0  0
   23.0282    7.7044   30.5916 C   0  0  0  0  0  0  0  0  0  0  0  0
   26.3944    5.0278   31.5888 C   0  0  0  0  0  0  0  0  0  0  0  0
   25.3505    5.8406   31.3304 C   0  0  0  0  0  0  0  0  0  0  0  0
   31.9516    6.3489   30.6521 C   0  0  0  0  0  0  0  0  0  0  0  0
   32.6771    7.4812   30.6754 C   0  0  0  0  0  0  0  0  0  0  0  0
   28.0059    7.0279   32.2567 C   0  0  0  0  0  0  0  0  0  0  0  0
   29.5323    7.1058   32.4267 C   0  0  0  0  0  0  0  0  0  0  0  0
   21.7535    5.6802   29.8967 C   0  0  0  0  0  0  0  0  0  0  0  0
   31.5348    5.5050   31.8457 C   0  0  1  0  0  0  0  0  0  0  0  0
   21.9023    8.2491   31.4399 C   0  0  0  0  0  0  0  0  0  0  0  0
   23.8833    8.5174   29.9508 C   0  0  0  0  0  0  0  0  0  0  0  0
   33.1465    8.3304   29.5024 C   0  0  1  0  0  0  0  0  0  0  0  0
   28.9511    3.3884   31.6778 C   0  0  0  0  0  0  0  0  0  0  0  0
   28.9716    5.2466   29.9788 C   0  0  0  0  0  0  0  0  0  0  0  0
   20.5005    6.4434   30.3719 C   0  0  2  0  0  0  0  0  0  0  0  0
   20.7614    7.2498   31.6432 C   0  0  0  0  0  0  0  0  0  0  0  0
   32.7167    7.8639   28.0797 C   0  0  0  0  0  0  0  0  0  0  0  0
   26.4011    3.5338   31.3019 C   0  0  0  0  0  0  0  0  0  0  0  0
   19.4267    5.5314   30.6057 O   0  0  0  0  0  0  0  0  0  0  0  0
   27.5646    2.7923   31.9745 C   0  0  0  0  0  0  0  0  0  0  0  0
   32.4568    5.7040   33.0636 C   0  0  0  0  0  0  0  0  0  0  0  0
   32.7723    9.7935   29.7856 C   0  0  0  0  0  0  0  0  0  0  0  0
   31.2438    8.1380   27.7537 C   0  0  0  0  0  0  0  0  0  0  0  0
   33.5959    8.5001   26.9940 C   0  0  0  0  0  0  0  0  0  0  0  0
   27.6766    5.1834   33.2401 H   0  0  0  0  0  0  0  0  0  0  0  0
   30.0067    5.2322   33.3093 H   0  0  0  0  0  0  0  0  0  0  0  0
   23.9648    4.3813   30.5467 H   0  0  0  0  0  0  0  0  0  0  0  0
   25.4365    6.8930   31.5896 H   0  0  0  0  0  0  0  0  0  0  0  0
   31.6454    5.9485   29.6912 H   0  0  0  0  0  0  0  0  0  0  0  0
   33.0037    7.8638   31.6417 H   0  0  0  0  0  0  0  0  0  0  0  0
   27.7112    7.5478   31.3376 H   0  0  0  0  0  0  0  0  0  0  0  0
   27.4880    7.5150   33.0899 H   0  0  0  0  0  0  0  0  0  0  0  0
   29.7969    7.5200   33.4058 H   0  0  0  0  0  0  0  0  0  0  0  0
   29.9396    7.7805   31.6681 H   0  0  0  0  0  0  0  0  0  0  0  0
   21.7739    5.6935   28.7987 H   0  0  0  0  0  0  0  0  0  0  0  0
   21.6672    4.6222   30.1786 H   0  0  0  0  0  0  0  0  0  0  0  0
   31.6821    4.4601   31.5398 H   0  0  0  0  0  0  0  0  0  0  0  0
   21.4944    9.1510   30.9649 H   0  0  0  0  0  0  0  0  0  0  0  0
   22.2915    8.5499   32.4202 H   0  0  0  0  0  0  0  0  0  0  0  0
   23.8256    9.5958   30.0578 H   0  0  0  0  0  0  0  0  0  0  0  0
   24.6613    8.1273   29.3006 H   0  0  0  0  0  0  0  0  0  0  0  0
   34.2438    8.2733   29.5372 H   0  0  0  0  0  0  0  0  0  0  0  0
   29.3620    2.9008   30.7846 H   0  0  0  0  0  0  0  0  0  0  0  0
   29.6232    3.1007   32.4961 H   0  0  0  0  0  0  0  0  0  0  0  0
   29.8251    4.7627   29.4939 H   0  0  0  0  0  0  0  0  0  0  0  0
   28.0821    4.8799   29.4581 H   0  0  0  0  0  0  0  0  0  0  0  0
   29.0364    6.3200   29.7808 H   0  0  0  0  0  0  0  0  0  0  0  0
   20.1704    7.1225   29.5763 H   0  0  0  0  0  0  0  0  0  0  0  0
   21.0030    6.5676   32.4698 H   0  0  0  0  0  0  0  0  0  0  0  0
   19.8505    7.7739   31.9569 H   0  0  0  0  0  0  0  0  0  0  0  0
   32.8840    6.7814   28.0073 H   0  0  0  0  0  0  0  0  0  0  0  0
   26.4589    3.3753   30.2184 H   0  0  0  0  0  0  0  0  0  0  0  0
   25.4683    3.0774   31.6535 H   0  0  0  0  0  0  0  0  0  0  0  0
   19.6816    4.9568   31.3485 H   0  0  0  0  0  0  0  0  0  0  0  0
   27.4052    2.8001   33.0612 H   0  0  0  0  0  0  0  0  0  0  0  0
   27.5522    1.7372   31.6766 H   0  0  0  0  0  0  0  0  0  0  0  0
   32.2477    4.9490   33.8300 H   0  0  0  0  0  0  0  0  0  0  0  0
   32.3185    6.6880   33.5244 H   0  0  0  0  0  0  0  0  0  0  0  0
   33.5112    5.5965   32.7854 H   0  0  0  0  0  0  0  0  0  0  0  0
   33.1496   10.4635   29.0078 H   0  0  0  0  0  0  0  0  0  0  0  0
   31.6877    9.9284   29.8588 H   0  0  0  0  0  0  0  0  0  0  0  0
   33.2066   10.1297   30.7344 H   0  0  0  0  0  0  0  0  0  0  0  0
   31.0469    9.2097   27.6454 H   0  0  0  0  0  0  0  0  0  0  0  0
   30.5747    7.7509   28.5257 H   0  0  0  0  0  0  0  0  0  0  0  0
   30.9693    7.6591   26.8073 H   0  0  0  0  0  0  0  0  0  0  0  0
   33.3592    8.0755   26.0121 H   0  0  0  0  0  0  0  0  0  0  0  0
   33.4499    9.5827   26.9296 H   0  0  0  0  0  0  0  0  0  0  0  0
   34.6560    8.3090   27.1893 H   0  0  0  0  0  0  0  0  0  0  0  0
  2  1  1  0
  3  5  2  0
  4  1  1  0
  5  8  1  0
  6  3  1  0
  7  2  1  0
  8  7  2  0
  9 14  1  0
 10  9  2  0
  2 11  1  0
  4 12  1  0
 13  3  1  0
 14  4  1  0
 15  6  1  0
 16  6  2  0
 17 10  1  0
 18  1  1  0
  1 19  1  1
 20 13  1  0
 21 20  1  0
 22 17  1  0
 23  7  1  0
 20 24  1  0
 25 18  1  0
 14 26  1  0
 17 27  1  0
 28 22  1  0
 29 22  1  0
 23 25  1  0
 12 11  1  0
 15 21  1  0
  2 30  1  6
  4 31  1  6
  5 32  1  0
  8 33  1  0
  9 34  1  0
 10 35  1  0
 11 36  1  0
 11 37  1  0
 12 38  1  0
 12 39  1  0
 13 40  1  0
 13 41  1  0
 14 42  1  1
 15 43  1  0
 15 44  1  0
 16 45  1  0
 16 46  1  0
 17 47  1  1
 18 48  1  0
 18 49  1  0
 19 50  1  0
 19 51  1  0
 19 52  1  0
 20 53  1  1
 21 54  1  0
 21 55  1  0
 22 56  1  0
 23 57  1  0
 23 58  1  0
 24 59  1  0
 25 60  1  0
 25 61  1  0
 26 62  1  0
 26 63  1  0
 26 64  1  0
 27 65  1  0
 27 66  1  0
 27 67  1  0
 28 68  1  0
 28 69  1  0
 28 70  1  0
 29 71  1  0
 29 72  1  0
 29 73  1  0
M  END
> <Uni-Dock RESULT> 
ENERGY=   -3.743  LOWER_BOUND=    3.777  UPPER_BOUND=    7.472
INTER + INTRA:          -3.743
INTER:                  -3.743
INTRA:                   0.000
UNBOUND:                 0.000

$$$$

     RDKit          3D

 73 75  0  0  1  0  0  0  0  0999 V2000
   22.6058    7.6623   30.9495 C   0  0  1  0  0  0  0  0  0  0  0  0
   23.8714    6.9154   30.4443 C   0  0  2  0  0  0  0  0  0  0  0  0
   26.1630    2.8690   32.3195 C   0  0  0  0  0  0  0  0  0  0  0  0
   22.9210    9.0866   30.4029 C   0  0  2  0  0  0  0  0  0  0  0  0
   25.0811    3.4747   31.7880 C   0  0  0  0  0  0  0  0  0  0  0  0
   27.4523    3.5003   32.5767 C   0  0  0  0  0  0  0  0  0  0  0  0
   23.8852    5.4609   30.8673 C   0  0  0  0  0  0  0  0  0  0  0  0
   24.9897    4.8525   31.3438 C   0  0  0  0  0  0  0  0  0  0  0  0
   22.2210   10.8453   32.1875 C   0  0  0  0  0  0  0  0  0  0  0  0
   22.8578   11.9881   32.5001 C   0  0  0  0  0  0  0  0  0  0  0  0
   25.0188    7.8601   30.8221 C   0  0  0  0  0  0  0  0  0  0  0  0
   24.4284    9.2742   30.6930 C   0  0  0  0  0  0  0  0  0  0  0  0
   26.1368    1.3861   32.6431 C   0  0  0  0  0  0  0  0  0  0  0  0
   21.9990   10.2729   30.7970 C   0  0  1  0  0  0  0  0  0  0  0  0
   28.6491    2.8564   31.9157 C   0  0  0  0  0  0  0  0  0  0  0  0
   27.5882    4.5260   33.4324 C   0  0  0  0  0  0  0  0  0  0  0  0
   23.0654   12.6126   33.8727 C   0  0  1  0  0  0  0  0  0  0  0  0
   21.3400    7.0286   30.3232 C   0  0  0  0  0  0  0  0  0  0  0  0
   22.4777    7.6218   32.4895 C   0  0  0  0  0  0  0  0  0  0  0  0
   27.4826    0.6726   32.4017 C   0  0  2  0  0  0  0  0  0  0  0  0
   28.3740    1.4343   31.4222 C   0  0  0  0  0  0  0  0  0  0  0  0
   22.5019   11.8282   35.0949 C   0  0  0  0  0  0  0  0  0  0  0  0
   22.5374    4.7739   30.7069 C   0  0  0  0  0  0  0  0  0  0  0  0
   27.2587   -0.6475   31.9049 O   0  0  0  0  0  0  0  0  0  0  0  0
   21.5445    5.5776   29.8559 C   0  0  0  0  0  0  0  0  0  0  0  0
   22.0568   11.3490   29.6963 C   0  0  0  0  0  0  0  0  0  0  0  0
   24.5545   12.9590   34.0250 C   0  0  0  0  0  0  0  0  0  0  0  0
   23.3275   10.5938   35.4762 C   0  0  0  0  0  0  0  0  0  0  0  0
   22.3626   12.7359   36.3250 C   0  0  0  0  0  0  0  0  0  0  0  0
   23.8515    6.8987   29.3420 H   0  0  0  0  0  0  0  0  0  0  0  0
   22.8419    9.0001   29.3066 H   0  0  0  0  0  0  0  0  0  0  0  0
   24.1832    2.8740   31.6588 H   0  0  0  0  0  0  0  0  0  0  0  0
   25.9122    5.4250   31.4028 H   0  0  0  0  0  0  0  0  0  0  0  0
   21.7751   10.2642   32.9881 H   0  0  0  0  0  0  0  0  0  0  0  0
   23.2805   12.5804   31.6893 H   0  0  0  0  0  0  0  0  0  0  0  0
   25.3616    7.6972   31.8506 H   0  0  0  0  0  0  0  0  0  0  0  0
   25.8839    7.7291   30.1632 H   0  0  0  0  0  0  0  0  0  0  0  0
   24.9098    9.8269   29.8787 H   0  0  0  0  0  0  0  0  0  0  0  0
   24.6219    9.8251   31.6180 H   0  0  0  0  0  0  0  0  0  0  0  0
   25.8582    1.2568   33.6975 H   0  0  0  0  0  0  0  0  0  0  0  0
   25.3481    0.8864   32.0648 H   0  0  0  0  0  0  0  0  0  0  0  0
   20.9640    9.9044   30.7865 H   0  0  0  0  0  0  0  0  0  0  0  0
   29.4824    2.8218   32.6298 H   0  0  0  0  0  0  0  0  0  0  0  0
   28.9772    3.4705   31.0682 H   0  0  0  0  0  0  0  0  0  0  0  0
   28.5598    4.9609   33.6436 H   0  0  0  0  0  0  0  0  0  0  0  0
   26.7332    4.9560   33.9464 H   0  0  0  0  0  0  0  0  0  0  0  0
   22.5223   13.5674   33.8306 H   0  0  0  0  0  0  0  0  0  0  0  0
   20.5083    7.0560   31.0386 H   0  0  0  0  0  0  0  0  0  0  0  0
   20.9960    7.6143   29.4613 H   0  0  0  0  0  0  0  0  0  0  0  0
   21.5506    8.1010   32.8186 H   0  0  0  0  0  0  0  0  0  0  0  0
   22.4406    6.5984   32.8746 H   0  0  0  0  0  0  0  0  0  0  0  0
   23.3110    8.1208   32.9919 H   0  0  0  0  0  0  0  0  0  0  0  0
   28.0086    0.5650   33.3582 H   0  0  0  0  0  0  0  0  0  0  0  0
   27.8939    1.4663   30.4345 H   0  0  0  0  0  0  0  0  0  0  0  0
   29.3181    0.8978   31.2682 H   0  0  0  0  0  0  0  0  0  0  0  0
   21.4854   11.4936   34.8502 H   0  0  0  0  0  0  0  0  0  0  0  0
   22.0990    4.6047   31.6978 H   0  0  0  0  0  0  0  0  0  0  0  0
   22.6666    3.7946   30.2311 H   0  0  0  0  0  0  0  0  0  0  0  0
   26.8426   -0.5684   31.0289 H   0  0  0  0  0  0  0  0  0  0  0  0
   21.9020    5.5910   28.8175 H   0  0  0  0  0  0  0  0  0  0  0  0
   20.5761    5.0639   29.8336 H   0  0  0  0  0  0  0  0  0  0  0  0
   21.7059   10.9403   28.7419 H   0  0  0  0  0  0  0  0  0  0  0  0
   23.0754   11.7205   29.5411 H   0  0  0  0  0  0  0  0  0  0  0  0
   21.4105   12.2001   29.9387 H   0  0  0  0  0  0  0  0  0  0  0  0
   24.7529   13.4785   34.9669 H   0  0  0  0  0  0  0  0  0  0  0  0
   25.1856   12.0644   33.9866 H   0  0  0  0  0  0  0  0  0  0  0  0
   24.8840   13.6242   33.2184 H   0  0  0  0  0  0  0  0  0  0  0  0
   24.3022   10.8720   35.8904 H   0  0  0  0  0  0  0  0  0  0  0  0
   23.5023    9.9377   34.6201 H   0  0  0  0  0  0  0  0  0  0  0  0
   22.8040   10.0085   36.2401 H   0  0  0  0  0  0  0  0  0  0  0  0
   21.8588   12.2030   37.1391 H   0  0  0  0  0  0  0  0  0  0  0  0
   23.3345   13.0703   36.7007 H   0  0  0  0  0  0  0  0  0  0  0  0
   21.7636   13.6217   36.0901 H   0  0  0  0  0  0  0  0  0  0  0  0
  2  1  1  0
  3  5  2  0
  4  1  1  0
  5  8  1  0
  6  3  1  0
  7  2  1  0
  8  7  2  0
  9 14  1  0
 10  9  2  0
  2 11  1  0
  4 12  1  0
 13  3  1  0
 14  4  1  0
 15  6  1  0
 16  6  2  0
 17 10  1  0
 18  1  1  0
  1 19  1  1
 20 13  1  0
 21 20  1  0
 22 17  1  0
 23  7  1  0
 20 24  1  0
 25 18  1  0
 14 26  1  0
 17 27  1  0
 28 22  1  0
 29 22  1  0
 23 25  1  0
 12 11  1  0
 15 21  1  0
  2 30  1  6
  4 31  1  6
  5 32  1  0
  8 33  1  0
  9 34  1  0
 10 35  1  0
 11 36  1  0
 11 37  1  0
 12 38  1  0
 12 39  1  0
 13 40  1  0
 13 41  1  0
 14 42  1  1
 15 43  1  0
 15 44  1  0
 16 45  1  0
 16 46  1  0
 17 47  1  1
 18 48  1  0
 18 49  1  0
 19 50  1  0
 19 51  1  0
 19 52  1  0
 20 53  1  1
 21 54  1  0
 21 55  1  0
 22 56  1  0
 23 57  1  0
 23 58  1  0
 24 59  1  0
 25 60  1  0
 25 61  1  0
 26 62  1  0
 26 63  1  0
 26 64  1  0
 27 65  1  0
 27 66  1  0
 27 67  1  0
 28 68  1  0
 28 69  1  0
 28 70  1  0
 29 71  1  0
 29 72  1  0
 29 73  1  0
M  END
> <Uni-Dock RESULT> 
ENERGY=   -3.708  LOWER_BOUND=    8.302  UPPER_BOUND=    9.964
INTER + INTRA:          -3.708
INTER:                  -3.708
INTRA:                   0.000
UNBOUND:                 0.000

$$$$

     RDKit          3D

 73 75  0  0  1  0  0  0  0  0999 V2000
   24.8392    4.0186   32.3437 C   0  0  1  0  0  0  0  0  0  0  0  0
   24.9010    5.5442   32.6332 C   0  0  2  0  0  0  0  0  0  0  0  0
   25.2224    9.3984   29.4422 C   0  0  0  0  0  0  0  0  0  0  0  0
   25.4681    3.4873   33.6661 C   0  0  2  0  0  0  0  0  0  0  0  0
   24.5812    8.3144   29.9257 C   0  0  0  0  0  0  0  0  0  0  0  0
   26.4886    9.9291   29.9343 C   0  0  0  0  0  0  0  0  0  0  0  0
   24.3806    6.3688   31.4740 C   0  0  0  0  0  0  0  0  0  0  0  0
   25.0013    7.4830   31.0376 C   0  0  0  0  0  0  0  0  0  0  0  0
   27.0468    1.4970   33.1054 C   0  0  0  0  0  0  0  0  0  0  0  0
   28.2273    1.2054   33.6802 C   0  0  0  0  0  0  0  0  0  0  0  0
   26.3211    5.7482   33.1747 C   0  0  0  0  0  0  0  0  0  0  0  0
   26.6472    4.4514   33.9342 C   0  0  0  0  0  0  0  0  0  0  0  0
   24.6039   10.2310   28.3338 C   0  0  0  0  0  0  0  0  0  0  0  0
   25.7826    1.9724   33.8028 C   0  0  1  0  0  0  0  0  0  0  0  0
   26.4718   11.3710   30.3866 C   0  0  0  0  0  0  0  0  0  0  0  0
   27.6269    9.2184   29.8908 C   0  0  0  0  0  0  0  0  0  0  0  0
   29.5002    0.6906   33.0229 C   0  0  1  0  0  0  0  0  0  0  0  0
   23.3672    3.5837   32.1436 C   0  0  0  0  0  0  0  0  0  0  0  0
   25.6530    3.6276   31.0888 C   0  0  0  0  0  0  0  0  0  0  0  0
   24.8880   11.7417   28.4578 C   0  0  2  0  0  0  0  0  0  0  0  0
   25.2519   12.1470   29.8852 C   0  0  0  0  0  0  0  0  0  0  0  0
   29.4652    0.4972   31.4776 C   0  0  0  0  0  0  0  0  0  0  0  0
   23.1067    5.8083   30.8597 C   0  0  0  0  0  0  0  0  0  0  0  0
   23.7517   12.4939   28.0306 O   0  0  0  0  0  0  0  0  0  0  0  0
   22.4359    4.7351   31.7281 C   0  0  0  0  0  0  0  0  0  0  0  0
   25.7418    1.5770   35.2911 C   0  0  0  0  0  0  0  0  0  0  0  0
   30.6718    1.5710   33.4845 C   0  0  0  0  0  0  0  0  0  0  0  0
   29.5263    1.8083   30.6850 C   0  0  0  0  0  0  0  0  0  0  0  0
   30.5965   -0.4261   31.0045 C   0  0  0  0  0  0  0  0  0  0  0  0
   24.2269    5.7680   33.4766 H   0  0  0  0  0  0  0  0  0  0  0  0
   24.7245    3.7084   34.4497 H   0  0  0  0  0  0  0  0  0  0  0  0
   23.6427    8.0343   29.4518 H   0  0  0  0  0  0  0  0  0  0  0  0
   25.8979    7.8137   31.5562 H   0  0  0  0  0  0  0  0  0  0  0  0
   26.9416    1.3540   32.0349 H   0  0  0  0  0  0  0  0  0  0  0  0
   28.3186    1.3261   34.7591 H   0  0  0  0  0  0  0  0  0  0  0  0
   27.0495    5.8953   32.3686 H   0  0  0  0  0  0  0  0  0  0  0  0
   26.3808    6.6206   33.8343 H   0  0  0  0  0  0  0  0  0  0  0  0
   26.7504    4.6417   35.0081 H   0  0  0  0  0  0  0  0  0  0  0  0
   27.6069    4.0644   33.5795 H   0  0  0  0  0  0  0  0  0  0  0  0
   24.9917    9.8817   27.3675 H   0  0  0  0  0  0  0  0  0  0  0  0
   23.5190   10.0640   28.2954 H   0  0  0  0  0  0  0  0  0  0  0  0
   24.9564    1.4199   33.3345 H   0  0  0  0  0  0  0  0  0  0  0  0
   27.3776   11.8749   30.0245 H   0  0  0  0  0  0  0  0  0  0  0  0
   26.4960   11.4141   31.4822 H   0  0  0  0  0  0  0  0  0  0  0  0
   28.5695    9.6401   30.2247 H   0  0  0  0  0  0  0  0  0  0  0  0
   27.6476    8.1983   29.5180 H   0  0  0  0  0  0  0  0  0  0  0  0
   29.6602   -0.3037   33.4636 H   0  0  0  0  0  0  0  0  0  0  0  0
   23.3054    2.7891   31.3892 H   0  0  0  0  0  0  0  0  0  0  0  0
   22.9634    3.1390   33.0619 H   0  0  0  0  0  0  0  0  0  0  0  0
   25.5471    2.5606   30.8696 H   0  0  0  0  0  0  0  0  0  0  0  0
   25.3106    4.1542   30.1931 H   0  0  0  0  0  0  0  0  0  0  0  0
   26.7193    3.8444   31.1973 H   0  0  0  0  0  0  0  0  0  0  0  0
   25.7135   12.0081   27.7864 H   0  0  0  0  0  0  0  0  0  0  0  0
   24.3950   11.9687   30.5493 H   0  0  0  0  0  0  0  0  0  0  0  0
   25.4411   13.2260   29.9396 H   0  0  0  0  0  0  0  0  0  0  0  0
   28.5295   -0.0137   31.2158 H   0  0  0  0  0  0  0  0  0  0  0  0
   23.3395    5.3760   29.8791 H   0  0  0  0  0  0  0  0  0  0  0  0
   22.3778    6.6120   30.7020 H   0  0  0  0  0  0  0  0  0  0  0  0
   23.0247   12.3117   28.6512 H   0  0  0  0  0  0  0  0  0  0  0  0
   22.0427    5.2127   32.6358 H   0  0  0  0  0  0  0  0  0  0  0  0
   21.5649    4.3256   31.2029 H   0  0  0  0  0  0  0  0  0  0  0  0
   24.7462    1.7629   35.7098 H   0  0  0  0  0  0  0  0  0  0  0  0
   26.4615    2.1495   35.8859 H   0  0  0  0  0  0  0  0  0  0  0  0
   25.9527    0.5100   35.4245 H   0  0  0  0  0  0  0  0  0  0  0  0
   31.6275    1.2036   33.0999 H   0  0  0  0  0  0  0  0  0  0  0  0
   30.5492    2.6111   33.1636 H   0  0  0  0  0  0  0  0  0  0  0  0
   30.7484    1.5750   34.5781 H   0  0  0  0  0  0  0  0  0  0  0  0
   30.5071    2.2874   30.7719 H   0  0  0  0  0  0  0  0  0  0  0  0
   28.7726    2.5249   31.0202 H   0  0  0  0  0  0  0  0  0  0  0  0
   29.3504    1.6167   29.6208 H   0  0  0  0  0  0  0  0  0  0  0  0
   30.4904   -0.6456   29.9363 H   0  0  0  0  0  0  0  0  0  0  0  0
   31.5830    0.0240   31.1528 H   0  0  0  0  0  0  0  0  0  0  0  0
   30.5717   -1.3799   31.5415 H   0  0  0  0  0  0  0  0  0  0  0  0
  2  1  1  0
  3  5  2  0
  4  1  1  0
  5  8  1  0
  6  3  1  0
  7  2  1  0
  8  7  2  0
  9 14  1  0
 10  9  2  0
  2 11  1  0
  4 12  1  0
 13  3  1  0
 14  4  1  0
 15  6  1  0
 16  6  2  0
 17 10  1  0
 18  1  1  0
  1 19  1  1
 20 13  1  0
 21 20  1  0
 22 17  1  0
 23  7  1  0
 20 24  1  0
 25 18  1  0
 14 26  1  0
 17 27  1  0
 28 22  1  0
 29 22  1  0
 23 25  1  0
 12 11  1  0
 15 21  1  0
  2 30  1  6
  4 31  1  6
  5 32  1  0
  8 33  1  0
  9 34  1  0
 10 35  1  0
 11 36  1  0
 11 37  1  0
 12 38  1  0
 12 39  1  0
 13 40  1  0
 13 41  1  0
 14 42  1  1
 15 43  1  0
 15 44  1  0
 16 45  1  0
 16 46  1  0
 17 47  1  1
 18 48  1  0
 18 49  1  0
 19 50  1  0
 19 51  1  0
 19 52  1  0
 20 53  1  1
 21 54  1  0
 21 55  1  0
 22 56  1  0
 23 57  1  0
 23 58  1  0
 24 59  1  0
 25 60  1  0
 25 61  1  0
 26 62  1  0
 26 63  1  0
 26 64  1  0
 27 65  1  0
 27 66  1  0
 27 67  1  0
 28 68  1  0
 28 69  1  0
 28 70  1  0
 29 71  1  0
 29 72  1  0
 29 73  1  0
M  END
> <Uni-Dock RESULT> 
ENERGY=   -3.623  LOWER_BOUND=    6.428  UPPER_BOUND=   10.861
INTER + INTRA:          -3.623
INTER:                  -3.623
INTRA:                   0.000
UNBOUND:                 0.000

$$$$

     RDKit          3D

 73 75  0  0  1  0  0  0  0  0999 V2000
   25.0195   10.7411   29.1440 C   0  0  1  0  0  0  0  0  0  0  0  0
   26.4368   10.7817   29.7802 C   0  0  2  0  0  0  0  0  0  0  0  0
   30.6204    8.3673   28.4353 C   0  0  0  0  0  0  0  0  0  0  0  0
   24.1694   11.0777   30.4052 C   0  0  2  0  0  0  0  0  0  0  0  0
   29.6175    9.2306   28.1727 C   0  0  0  0  0  0  0  0  0  0  0  0
   30.8089    7.6341   29.6818 C   0  0  0  0  0  0  0  0  0  0  0  0
   27.5232   10.4417   28.7809 C   0  0  0  0  0  0  0  0  0  0  0  0
   28.5517    9.6216   29.0755 C   0  0  0  0  0  0  0  0  0  0  0  0
   22.0285    9.5998   30.3943 C   0  0  0  0  0  0  0  0  0  0  0  0
   21.4244    9.0314   31.4532 C   0  0  0  0  0  0  0  0  0  0  0  0
   26.2713    9.9750   31.0739 C   0  0  0  0  0  0  0  0  0  0  0  0
   24.8303   10.2525   31.5338 C   0  0  0  0  0  0  0  0  0  0  0  0
   31.7253    8.1356   27.4205 C   0  0  0  0  0  0  0  0  0  0  0  0
   22.6205   10.9979   30.3209 C   0  0  1  0  0  0  0  0  0  0  0  0
   32.1340    7.8405   30.3783 C   0  0  0  0  0  0  0  0  0  0  0  0
   29.9077    6.7467   30.1326 C   0  0  0  0  0  0  0  0  0  0  0  0
   20.7861    7.6530   31.5531 C   0  0  1  0  0  0  0  0  0  0  0  0
   24.9164   11.8095   28.0287 C   0  0  0  0  0  0  0  0  0  0  0  0
   24.6866    9.3557   28.5442 C   0  0  0  0  0  0  0  0  0  0  0  0
   33.1120    7.9002   28.0532 C   0  0  2  0  0  0  0  0  0  0  0  0
   33.2025    8.4574   29.4729 C   0  0  0  0  0  0  0  0  0  0  0  0
   20.8560    6.7518   30.2845 C   0  0  0  0  0  0  0  0  0  0  0  0
   27.3272   11.1084   27.4276 C   0  0  0  0  0  0  0  0  0  0  0  0
   34.1292    8.4973   27.2480 O   0  0  0  0  0  0  0  0  0  0  0  0
   26.2782   12.2287   27.4497 C   0  0  0  0  0  0  0  0  0  0  0  0
   22.0049   11.9579   31.3564 C   0  0  0  0  0  0  0  0  0  0  0  0
   21.3361    6.9563   32.8072 C   0  0  0  0  0  0  0  0  0  0  0  0
   22.2410    6.1469   30.0266 C   0  0  0  0  0  0  0  0  0  0  0  0
   19.8199    5.6208   30.3451 C   0  0  0  0  0  0  0  0  0  0  0  0
   26.6474   11.8156   30.1001 H   0  0  0  0  0  0  0  0  0  0  0  0
   24.4006   12.1304   30.6377 H   0  0  0  0  0  0  0  0  0  0  0  0
   29.6051    9.7013   27.1919 H   0  0  0  0  0  0  0  0  0  0  0  0
   28.6139    9.2084   30.0793 H   0  0  0  0  0  0  0  0  0  0  0  0
   22.0838    9.0401   29.4664 H   0  0  0  0  0  0  0  0  0  0  0  0
   21.3488    9.6085   32.3741 H   0  0  0  0  0  0  0  0  0  0  0  0
   26.4030    8.8997   30.9057 H   0  0  0  0  0  0  0  0  0  0  0  0
   26.9970   10.2794   31.8357 H   0  0  0  0  0  0  0  0  0  0  0  0
   24.8205   10.8132   32.4750 H   0  0  0  0  0  0  0  0  0  0  0  0
   24.3273    9.2990   31.7190 H   0  0  0  0  0  0  0  0  0  0  0  0
   31.4687    7.2606   26.8084 H   0  0  0  0  0  0  0  0  0  0  0  0
   31.7802    8.9806   26.7210 H   0  0  0  0  0  0  0  0  0  0  0  0
   22.3219   11.3985   29.3423 H   0  0  0  0  0  0  0  0  0  0  0  0
   32.5047    6.8746   30.7457 H   0  0  0  0  0  0  0  0  0  0  0  0
   31.9937    8.4854   31.2543 H   0  0  0  0  0  0  0  0  0  0  0  0
   30.0789    6.1796   31.0418 H   0  0  0  0  0  0  0  0  0  0  0  0
   28.9769    6.5615   29.6038 H   0  0  0  0  0  0  0  0  0  0  0  0
   19.7217    7.8509   31.7436 H   0  0  0  0  0  0  0  0  0  0  0  0
   24.2817   11.4446   27.2112 H   0  0  0  0  0  0  0  0  0  0  0  0
   24.4157   12.7130   28.3989 H   0  0  0  0  0  0  0  0  0  0  0  0
   23.7102    9.3668   28.0499 H   0  0  0  0  0  0  0  0  0  0  0  0
   25.4076    9.0521   27.7793 H   0  0  0  0  0  0  0  0  0  0  0  0
   24.6721    8.5652   29.2996 H   0  0  0  0  0  0  0  0  0  0  0  0
   33.3185    6.8232   28.0753 H   0  0  0  0  0  0  0  0  0  0  0  0
   33.0885    9.5498   29.4487 H   0  0  0  0  0  0  0  0  0  0  0  0
   34.2010    8.2794   29.8903 H   0  0  0  0  0  0  0  0  0  0  0  0
   20.5854    7.3624   29.4132 H   0  0  0  0  0  0  0  0  0  0  0  0
   27.0226   10.3522   26.6941 H   0  0  0  0  0  0  0  0  0  0  0  0
   28.2716   11.5439   27.0806 H   0  0  0  0  0  0  0  0  0  0  0  0
   33.9933    9.4607   27.2643 H   0  0  0  0  0  0  0  0  0  0  0  0
   26.6695   13.0649   28.0447 H   0  0  0  0  0  0  0  0  0  0  0  0
   26.1358   12.6221   26.4362 H   0  0  0  0  0  0  0  0  0  0  0  0
   22.3099   12.9902   31.1507 H   0  0  0  0  0  0  0  0  0  0  0  0
   22.3230   11.7174   32.3765 H   0  0  0  0  0  0  0  0  0  0  0  0
   20.9100   11.9327   31.3197 H   0  0  0  0  0  0  0  0  0  0  0  0
   20.8577    5.9865   32.9717 H   0  0  0  0  0  0  0  0  0  0  0  0
   22.4182    6.7990   32.7428 H   0  0  0  0  0  0  0  0  0  0  0  0
   21.1480    7.5605   33.7023 H   0  0  0  0  0  0  0  0  0  0  0  0
   22.5004    5.3961   30.7802 H   0  0  0  0  0  0  0  0  0  0  0  0
   23.0261    6.9068   30.0268 H   0  0  0  0  0  0  0  0  0  0  0  0
   22.2620    5.6497   29.0506 H   0  0  0  0  0  0  0  0  0  0  0  0
   19.8010    5.0676   29.3996 H   0  0  0  0  0  0  0  0  0  0  0  0
   20.0402    4.9045   31.1426 H   0  0  0  0  0  0  0  0  0  0  0  0
   18.8149    6.0212   30.5133 H   0  0  0  0  0  0  0  0  0  0  0  0
  2  1  1  0
  3  5  2  0
  4  1  1  0
  5  8  1  0
  6  3  1  0
  7  2  1  0
  8  7  2  0
  9 14  1  0
 10  9  2  0
  2 11  1  0
  4 12  1  0
 13  3  1  0
 14  4  1  0
 15  6  1  0
 16  6  2  0
 17 10  1  0
 18  1  1  0
  1 19  1  1
 20 13  1  0
 21 20  1  0
 22 17  1  0
 23  7  1  0
 20 24  1  0
 25 18  1  0
 14 26  1  0
 17 27  1  0
 28 22  1  0
 29 22  1  0
 23 25  1  0
 12 11  1  0
 15 21  1  0
  2 30  1  6
  4 31  1  6
  5 32  1  0
  8 33  1  0
  9 34  1  0
 10 35  1  0
 11 36  1  0
 11 37  1  0
 12 38  1  0
 12 39  1  0
 13 40  1  0
 13 41  1  0
 14 42  1  1
 15 43  1  0
 15 44  1  0
 16 45  1  0
 16 46  1  0
 17 47  1  1
 18 48  1  0
 18 49  1  0
 19 50  1  0
 19 51  1  0
 19 52  1  0
 20 53  1  1
 21 54  1  0
 21 55  1  0
 22 56  1  0
 23 57  1  0
 23 58  1  0
 24 59  1  0
 25 60  1  0
 25 61  1  0
 26 62  1  0
 26 63  1  0
 26 64  1  0
 27 65  1  0
 27 66  1  0
 27 67  1  0
 28 68  1  0
 28 69  1  0
 28 70  1  0
 29 71  1  0
 29 72  1  0
 29 73  1  0
M  END
> <Uni-Dock RESULT> 
ENERGY=   -3.594  LOWER_BOUND=    5.234  UPPER_BOUND=   10.158
INTER + INTRA:          -3.594
INTER:                  -3.594
INTRA:                   0.000
UNBOUND:                 0.000

$$$$
