
     RDKit          3D

 73 75  0  0  1  0  0  0  0  0999 V2000
   30.1712   11.5883   20.2457 C   0  0  1  0  0  0  0  0  0  0  0  0
   29.2611   10.3916   20.6472 C   0  0  2  0  0  0  0  0  0  0  0  0
   25.0916    9.1479   18.1444 C   0  0  0  0  0  0  0  0  0  0  0  0
   30.7423   11.9731   21.6468 C   0  0  2  0  0  0  0  0  0  0  0  0
   26.4329    9.1145   18.2875 C   0  0  0  0  0  0  0  0  0  0  0  0
   24.1559    9.8210   19.0382 C   0  0  0  0  0  0  0  0  0  0  0  0
   28.5439    9.7847   19.4563 C   0  0  0  0  0  0  0  0  0  0  0  0
   27.2018    9.7008   19.3685 C   0  0  0  0  0  0  0  0  0  0  0  0
   31.8433   13.5349   23.2920 C   0  0  0  0  0  0  0  0  0  0  0  0
   33.0683   13.3756   23.8219 C   0  0  0  0  0  0  0  0  0  0  0  0
   28.4974   10.9190   21.8594 C   0  0  0  0  0  0  0  0  0  0  0  0
   29.5165   11.7994   22.5920 C   0  0  0  0  0  0  0  0  0  0  0  0
   24.4172    8.3937   17.0126 C   0  0  0  0  0  0  0  0  0  0  0  0
   31.4402   13.3493   21.8350 C   0  0  1  0  0  0  0  0  0  0  0  0
   23.0691    8.9563   19.6339 C   0  0  0  0  0  0  0  0  0  0  0  0
   24.1893   11.1480   19.2380 C   0  0  0  0  0  0  0  0  0  0  0  0
   33.3827   13.5852   25.2892 C   0  0  1  0  0  0  0  0  0  0  0  0
   31.2139   11.0551   19.2381 C   0  0  0  0  0  0  0  0  0  0  0  0
   29.3747   12.7594   19.6197 C   0  0  0  0  0  0  0  0  0  0  0  0
   23.0411    7.8077   17.3869 C   0  0  2  0  0  0  0  0  0  0  0  0
   22.8800    7.6289   18.8956 C   0  0  0  0  0  0  0  0  0  0  0  0
   33.7181   12.2403   25.9922 C   0  0  0  0  0  0  0  0  0  0  0  0
   29.5368    9.2942   18.4167 C   0  0  0  0  0  0  0  0  0  0  0  0
   22.8488    6.5488   16.7404 O   0  0  0  0  0  0  0  0  0  0  0  0
   30.5573   10.3716   18.0280 C   0  0  0  0  0  0  0  0  0  0  0  0
   32.6157   13.5681   20.8763 C   0  0  0  0  0  0  0  0  0  0  0  0
   34.4764   14.6501   25.4210 C   0  0  0  0  0  0  0  0  0  0  0  0
   35.0198   11.5868   25.5150 C   0  0  0  0  0  0  0  0  0  0  0  0
   33.7576   12.3991   27.5165 C   0  0  0  0  0  0  0  0  0  0  0  0
   29.9034    9.5833   21.0367 H   0  0  0  0  0  0  0  0  0  0  0  0
   31.4716   11.1975   21.9296 H   0  0  0  0  0  0  0  0  0  0  0  0
   26.9988    8.5688   17.5370 H   0  0  0  0  0  0  0  0  0  0  0  0
   26.6055   10.0886   20.1910 H   0  0  0  0  0  0  0  0  0  0  0  0
   31.0296   13.8270   23.9558 H   0  0  0  0  0  0  0  0  0  0  0  0
   33.8992   13.0770   23.1870 H   0  0  0  0  0  0  0  0  0  0  0  0
   27.6311   11.5260   21.5736 H   0  0  0  0  0  0  0  0  0  0  0  0
   28.1338   10.1078   22.4990 H   0  0  0  0  0  0  0  0  0  0  0  0
   29.0503   12.7591   22.8428 H   0  0  0  0  0  0  0  0  0  0  0  0
   29.8270   11.3295   23.5323 H   0  0  0  0  0  0  0  0  0  0  0  0
   24.2851    9.0739   16.1608 H   0  0  0  0  0  0  0  0  0  0  0  0
   25.0717    7.5897   16.6506 H   0  0  0  0  0  0  0  0  0  0  0  0
   30.7157   14.1474   21.6246 H   0  0  0  0  0  0  0  0  0  0  0  0
   22.1183    9.5048   19.6136 H   0  0  0  0  0  0  0  0  0  0  0  0
   23.2985    8.7487   20.6862 H   0  0  0  0  0  0  0  0  0  0  0  0
   23.4626   11.6422   19.8745 H   0  0  0  0  0  0  0  0  0  0  0  0
   24.9416   11.7758   18.7690 H   0  0  0  0  0  0  0  0  0  0  0  0
   32.4861   13.9917   25.7782 H   0  0  0  0  0  0  0  0  0  0  0  0
   31.8585   11.8567   18.8677 H   0  0  0  0  0  0  0  0  0  0  0  0
   31.8729   10.3305   19.7337 H   0  0  0  0  0  0  0  0  0  0  0  0
   28.7678   12.4414   18.7665 H   0  0  0  0  0  0  0  0  0  0  0  0
   28.6925   13.2283   20.3359 H   0  0  0  0  0  0  0  0  0  0  0  0
   30.0469   13.5433   19.2569 H   0  0  0  0  0  0  0  0  0  0  0  0
   22.2539    8.4758   17.0174 H   0  0  0  0  0  0  0  0  0  0  0  0
   21.8958    7.2040   19.1270 H   0  0  0  0  0  0  0  0  0  0  0  0
   23.6076    6.8908   19.2596 H   0  0  0  0  0  0  0  0  0  0  0  0
   32.9025   11.5380   25.7693 H   0  0  0  0  0  0  0  0  0  0  0  0
   30.0709    8.4306   18.8340 H   0  0  0  0  0  0  0  0  0  0  0  0
   29.0540    8.9421   17.5016 H   0  0  0  0  0  0  0  0  0  0  0  0
   23.5056    5.9271   17.0996 H   0  0  0  0  0  0  0  0  0  0  0  0
   31.3386    9.9181   17.4061 H   0  0  0  0  0  0  0  0  0  0  0  0
   30.0678   11.1258   17.3999 H   0  0  0  0  0  0  0  0  0  0  0  0
   33.1932   14.4586   21.1509 H   0  0  0  0  0  0  0  0  0  0  0  0
   33.2963   12.7100   20.8658 H   0  0  0  0  0  0  0  0  0  0  0  0
   32.2650   13.7397   19.8558 H   0  0  0  0  0  0  0  0  0  0  0  0
   35.4085   14.3454   24.9335 H   0  0  0  0  0  0  0  0  0  0  0  0
   34.6960   14.8691   26.4702 H   0  0  0  0  0  0  0  0  0  0  0  0
   34.1570   15.5898   24.9550 H   0  0  0  0  0  0  0  0  0  0  0  0
   35.8938   12.2003   25.7557 H   0  0  0  0  0  0  0  0  0  0  0  0
   35.0108   11.4095   24.4357 H   0  0  0  0  0  0  0  0  0  0  0  0
   35.1584   10.6145   26.0011 H   0  0  0  0  0  0  0  0  0  0  0  0
   34.6012   13.0165   27.8405 H   0  0  0  0  0  0  0  0  0  0  0  0
   32.8347   12.8579   27.8860 H   0  0  0  0  0  0  0  0  0  0  0  0
   33.8579   11.4218   28.0013 H   0  0  0  0  0  0  0  0  0  0  0  0
  2  1  1  0
  3  5  2  0
  4  1  1  0
  5  8  1  0
  6  3  1  0
  7  2  1  0
  8  7  2  0
  9 14  1  0
 10  9  2  0
  2 11  1  0
  4 12  1  0
 13  3  1  0
 14  4  1  0
 15  6  1  0
 16  6  2  0
 17 10  1  0
 18  1  1  0
  1 19  1  6
 20 13  1  0
 21 20  1  0
 22 17  1  0
 23  7  1  0
 20 24  1  0
 25 18  1  0
 14 26  1  0
 17 27  1  0
 28 22  1  0
 29 22  1  0
 23 25  1  0
 12 11  1  0
 15 21  1  0
  2 30  1  1
  4 31  1  1
  5 32  1  0
  8 33  1  0
  9 34  1  0
 10 35  1  0
 11 36  1  0
 11 37  1  0
 12 38  1  0
 12 39  1  0
 13 40  1  0
 13 41  1  0
 14 42  1  6
 15 43  1  0
 15 44  1  0
 16 45  1  0
 16 46  1  0
 17 47  1  6
 18 48  1  0
 18 49  1  0
 19 50  1  0
 19 51  1  0
 19 52  1  0
 20 53  1  6
 21 54  1  0
 21 55  1  0
 22 56  1  0
 23 57  1  0
 23 58  1  0
 24 59  1  0
 25 60  1  0
 25 61  1  0
 26 62  1  0
 26 63  1  0
 26 64  1  0
 27 65  1  0
 27 66  1  0
 27 67  1  0
 28 68  1  0
 28 69  1  0
 28 70  1  0
 29 71  1  0
 29 72  1  0
 29 73  1  0
M  END
> <Uni-Dock RESULT> 
ENERGY=   -4.541  LOWER_BOUND=    0.000  UPPER_BOUND=    0.000
INTER + INTRA:          -4.541
INTER:                  -4.541
INTRA:                   0.000
UNBOUND:                 0.000

$$$$

     RDKit          3D

 73 75  0  0  1  0  0  0  0  0999 V2000
   24.4870   11.4874   29.1235 C   0  0  1  0  0  0  0  0  0  0  0  0
   24.4081   10.0011   28.6693 C   0  0  2  0  0  0  0  0  0  0  0  0
   24.7313    6.1330   31.8520 C   0  0  0  0  0  0  0  0  0  0  0  0
   25.1018   12.1281   27.8395 C   0  0  2  0  0  0  0  0  0  0  0  0
   24.0168    7.1094   31.2544 C   0  0  0  0  0  0  0  0  0  0  0  0
   26.1453    5.8538   31.6289 C   0  0  0  0  0  0  0  0  0  0  0  0
   23.8319    9.0975   29.7430 C   0  0  0  0  0  0  0  0  0  0  0  0
   24.4962    8.0412   30.2517 C   0  0  0  0  0  0  0  0  0  0  0  0
   26.3140   13.9388   26.5705 C   0  0  0  0  0  0  0  0  0  0  0  0
   25.7713   14.7332   25.6317 C   0  0  0  0  0  0  0  0  0  0  0  0
   25.7836    9.7442   28.0587 C   0  0  0  0  0  0  0  0  0  0  0  0
   26.1453   11.0686   27.3763 C   0  0  0  0  0  0  0  0  0  0  0  0
   24.0622    5.1620   32.8080 C   0  0  0  0  0  0  0  0  0  0  0  0
   25.7082   13.5575   27.9149 C   0  0  1  0  0  0  0  0  0  0  0  0
   26.4816    4.4499   31.1819 C   0  0  0  0  0  0  0  0  0  0  0  0
   27.1025    6.7534   31.9055 C   0  0  0  0  0  0  0  0  0  0  0  0
   26.4484   15.0638   24.3172 C   0  0  1  0  0  0  0  0  0  0  0  0
   23.0491   11.9430   29.4578 C   0  0  0  0  0  0  0  0  0  0  0  0
   25.4091   11.6876   30.3514 C   0  0  0  0  0  0  0  0  0  0  0  0
   24.6391    3.7334   32.7506 C   0  0  2  0  0  0  0  0  0  0  0  0
   25.3495    3.4497   31.4282 C   0  0  0  0  0  0  0  0  0  0  0  0
   25.7109   14.4014   23.1202 C   0  0  0  0  0  0  0  0  0  0  0  0
   22.4350    9.5451   30.1371 C   0  0  0  0  0  0  0  0  0  0  0  0
   23.5990    2.7734   32.9419 O   0  0  0  0  0  0  0  0  0  0  0  0
   22.3784   11.0344   30.5006 C   0  0  0  0  0  0  0  0  0  0  0  0
   24.7166   14.6098   28.4229 C   0  0  0  0  0  0  0  0  0  0  0  0
   26.5963   16.5842   24.1972 C   0  0  0  0  0  0  0  0  0  0  0  0
   24.3054   14.9549   22.8611 C   0  0  0  0  0  0  0  0  0  0  0  0
   26.5384   14.4911   21.8328 C   0  0  0  0  0  0  0  0  0  0  0  0
   23.6983    9.9334   27.8272 H   0  0  0  0  0  0  0  0  0  0  0  0
   24.3121   12.1503   27.0718 H   0  0  0  0  0  0  0  0  0  0  0  0
   22.9673    7.1925   31.5241 H   0  0  0  0  0  0  0  0  0  0  0  0
   25.4937    7.8284   29.8746 H   0  0  0  0  0  0  0  0  0  0  0  0
   27.2942   13.5047   26.3732 H   0  0  0  0  0  0  0  0  0  0  0  0
   24.7913   15.1750   25.7956 H   0  0  0  0  0  0  0  0  0  0  0  0
   26.5381    9.5079   28.8172 H   0  0  0  0  0  0  0  0  0  0  0  0
   25.7657    8.9152   27.3434 H   0  0  0  0  0  0  0  0  0  0  0  0
   27.1681   11.3494   27.6522 H   0  0  0  0  0  0  0  0  0  0  0  0
   26.1172   10.9611   26.2858 H   0  0  0  0  0  0  0  0  0  0  0  0
   24.1713    5.5398   33.8332 H   0  0  0  0  0  0  0  0  0  0  0  0
   22.9810    5.1285   32.6185 H   0  0  0  0  0  0  0  0  0  0  0  0
   26.5455   13.5517   28.6256 H   0  0  0  0  0  0  0  0  0  0  0  0
   27.3751    4.1037   31.7176 H   0  0  0  0  0  0  0  0  0  0  0  0
   26.7280    4.4525   30.1131 H   0  0  0  0  0  0  0  0  0  0  0  0
   28.1536    6.5192   31.7727 H   0  0  0  0  0  0  0  0  0  0  0  0
   26.8614    7.7462   32.2747 H   0  0  0  0  0  0  0  0  0  0  0  0
   27.4660   14.6488   24.3407 H   0  0  0  0  0  0  0  0  0  0  0  0
   23.0324   12.9677   29.8384 H   0  0  0  0  0  0  0  0  0  0  0  0
   22.4370   11.9401   28.5466 H   0  0  0  0  0  0  0  0  0  0  0  0
   25.1265   11.0482   31.1932 H   0  0  0  0  0  0  0  0  0  0  0  0
   26.4572   11.4675   30.1247 H   0  0  0  0  0  0  0  0  0  0  0  0
   25.3687   12.7210   30.7096 H   0  0  0  0  0  0  0  0  0  0  0  0
   25.3482    3.5992   33.5763 H   0  0  0  0  0  0  0  0  0  0  0  0
   25.7405    2.4251   31.4167 H   0  0  0  0  0  0  0  0  0  0  0  0
   24.6252    3.4930   30.6033 H   0  0  0  0  0  0  0  0  0  0  0  0
   25.6005   13.3322   23.3503 H   0  0  0  0  0  0  0  0  0  0  0  0
   21.7637    9.3590   29.2887 H   0  0  0  0  0  0  0  0  0  0  0  0
   22.0291    8.9777   30.9784 H   0  0  0  0  0  0  0  0  0  0  0  0
   22.9897    2.8413   32.1862 H   0  0  0  0  0  0  0  0  0  0  0  0
   21.3303   11.3359   30.6162 H   0  0  0  0  0  0  0  0  0  0  0  0
   22.8490   11.1875   31.4794 H   0  0  0  0  0  0  0  0  0  0  0  0
   25.1121   15.6243   28.2953 H   0  0  0  0  0  0  0  0  0  0  0  0
   23.7566   14.5495   27.8991 H   0  0  0  0  0  0  0  0  0  0  0  0
   24.5309   14.4917   29.4932 H   0  0  0  0  0  0  0  0  0  0  0  0
   25.6266   17.0932   24.1957 H   0  0  0  0  0  0  0  0  0  0  0  0
   27.1291   16.8625   23.2832 H   0  0  0  0  0  0  0  0  0  0  0  0
   27.1722   16.9827   25.0408 H   0  0  0  0  0  0  0  0  0  0  0  0
   24.3325   16.0083   22.5645 H   0  0  0  0  0  0  0  0  0  0  0  0
   23.6657   14.8626   23.7435 H   0  0  0  0  0  0  0  0  0  0  0  0
   23.8204   14.3989   22.0508 H   0  0  0  0  0  0  0  0  0  0  0  0
   26.6260   15.5218   21.4754 H   0  0  0  0  0  0  0  0  0  0  0  0
   27.5473   14.0947   21.9878 H   0  0  0  0  0  0  0  0  0  0  0  0
   26.0713   13.9032   21.0350 H   0  0  0  0  0  0  0  0  0  0  0  0
  2  1  1  0
  3  5  2  0
  4  1  1  0
  5  8  1  0
  6  3  1  0
  7  2  1  0
  8  7  2  0
  9 14  1  0
 10  9  2  0
  2 11  1  0
  4 12  1  0
 13  3  1  0
 14  4  1  0
 15  6  1  0
 16  6  2  0
 17 10  1  0
 18  1  1  0
  1 19  1  6
 20 13  1  0
 21 20  1  0
 22 17  1  0
 23  7  1  0
 20 24  1  0
 25 18  1  0
 14 26  1  0
 17 27  1  0
 28 22  1  0
 29 22  1  0
 23 25  1  0
 12 11  1  0
 15 21  1  0
  2 30  1  1
  4 31  1  1
  5 32  1  0
  8 33  1  0
  9 34  1  0
 10 35  1  0
 11 36  1  0
 11 37  1  0
 12 38  1  0
 12 39  1  0
 13 40  1  0
 13 41  1  0
 14 42  1  6
 15 43  1  0
 15 44  1  0
 16 45  1  0
 16 46  1  0
 17 47  1  6
 18 48  1  0
 18 49  1  0
 19 50  1  0
 19 51  1  0
 19 52  1  0
 20 53  1  6
 21 54  1  0
 21 55  1  0
 22 56  1  0
 23 57  1  0
 23 58  1  0
 24 59  1  0
 25 60  1  0
 25 61  1  0
 26 62  1  0
 26 63  1  0
 26 64  1  0
 27 65  1  0
 27 66  1  0
 27 67  1  0
 28 68  1  0
 28 69  1  0
 28 70  1  0
 29 71  1  0
 29 72  1  0
 29 73  1  0
M  END
> <Uni-Dock RESULT> 
ENERGY=   -4.153  LOWER_BOUND=    9.319  UPPER_BOUND=   11.613
INTER + INTRA:          -4.153
INTER:                  -4.153
INTRA:                   0.000
UNBOUND:                 0.000

$$$$

     RDKit          3D

 73 75  0  0  1  0  0  0  0  0999 V2000
   27.9123    1.6097   32.3111 C   0  0  1  0  0  0  0  0  0  0  0  0
   28.8440    2.0210   31.1345 C   0  0  2  0  0  0  0  0  0  0  0  0
   33.8537    1.8772   31.4154 C   0  0  0  0  0  0  0  0  0  0  0  0
   26.6845    2.5271   32.0143 C   0  0  2  0  0  0  0  0  0  0  0  0
   32.6676    1.2651   31.2169 C   0  0  0  0  0  0  0  0  0  0  0  0
   34.0426    3.2920   31.7153 C   0  0  0  0  0  0  0  0  0  0  0  0
   30.1642    1.2739   31.1532 C   0  0  0  0  0  0  0  0  0  0  0  0
   31.3598    1.8919   31.2225 C   0  0  0  0  0  0  0  0  0  0  0  0
   24.5584    3.7343   32.6314 C   0  0  0  0  0  0  0  0  0  0  0  0
   23.3316    3.4460   32.1638 C   0  0  0  0  0  0  0  0  0  0  0  0
   28.7859    3.5464   31.1536 C   0  0  0  0  0  0  0  0  0  0  0  0
   27.3398    3.8626   31.5527 C   0  0  0  0  0  0  0  0  0  0  0  0
   35.1536    1.1061   31.2728 C   0  0  0  0  0  0  0  0  0  0  0  0
   25.6123    2.7483   33.1180 C   0  0  1  0  0  0  0  0  0  0  0  0
   34.9392    4.0566   30.7691 C   0  0  0  0  0  0  0  0  0  0  0  0
   33.5397    3.8598   32.8228 C   0  0  0  0  0  0  0  0  0  0  0  0
   22.3409    4.4951   31.7015 C   0  0  1  0  0  0  0  0  0  0  0  0
   27.6442    0.0941   32.1772 C   0  0  0  0  0  0  0  0  0  0  0  0
   28.5286    1.9221   33.6969 C   0  0  0  0  0  0  0  0  0  0  0  0
   36.3137    1.9413   30.6952 C   0  0  2  0  0  0  0  0  0  0  0  0
   35.8175    3.1500   29.9035 C   0  0  0  0  0  0  0  0  0  0  0  0
   22.1288    4.4319   30.1631 C   0  0  0  0  0  0  0  0  0  0  0  0
   29.9402   -0.2264   31.0754 C   0  0  0  0  0  0  0  0  0  0  0  0
   37.1333    1.1305   29.8523 O   0  0  0  0  0  0  0  0  0  0  0  0
   28.9441   -0.7249   32.1302 C   0  0  0  0  0  0  0  0  0  0  0  0
   24.9924    1.4436   33.6300 C   0  0  0  0  0  0  0  0  0  0  0  0
   21.0507    4.3610   32.5171 C   0  0  0  0  0  0  0  0  0  0  0  0
   21.4368    3.1549   29.6738 C   0  0  0  0  0  0  0  0  0  0  0  0
   21.3587    5.6553   29.6527 C   0  0  0  0  0  0  0  0  0  0  0  0
   28.3600    1.7228   30.1888 H   0  0  0  0  0  0  0  0  0  0  0  0
   26.1659    2.1098   31.1366 H   0  0  0  0  0  0  0  0  0  0  0  0
   32.6887    0.2003   31.0003 H   0  0  0  0  0  0  0  0  0  0  0  0
   31.3774    2.9782   31.2686 H   0  0  0  0  0  0  0  0  0  0  0  0
   24.8590    4.7811   32.6764 H   0  0  0  0  0  0  0  0  0  0  0  0
   23.0053    2.4108   32.0992 H   0  0  0  0  0  0  0  0  0  0  0  0
   29.4700    3.9798   31.8916 H   0  0  0  0  0  0  0  0  0  0  0  0
   29.0374    3.9780   30.1791 H   0  0  0  0  0  0  0  0  0  0  0  0
   27.3413    4.6172   32.3475 H   0  0  0  0  0  0  0  0  0  0  0  0
   26.7878    4.2814   30.7033 H   0  0  0  0  0  0  0  0  0  0  0  0
   35.4541    0.7297   32.2595 H   0  0  0  0  0  0  0  0  0  0  0  0
   34.9986    0.2146   30.6505 H   0  0  0  0  0  0  0  0  0  0  0  0
   26.0875    3.2270   33.9847 H   0  0  0  0  0  0  0  0  0  0  0  0
   35.5912    4.7238   31.3480 H   0  0  0  0  0  0  0  0  0  0  0  0
   34.3290    4.6911   30.1149 H   0  0  0  0  0  0  0  0  0  0  0  0
   33.7208    4.9043   33.0547 H   0  0  0  0  0  0  0  0  0  0  0  0
   32.9363    3.2957   33.5284 H   0  0  0  0  0  0  0  0  0  0  0  0
   22.7574    5.4862   31.9308 H   0  0  0  0  0  0  0  0  0  0  0  0
   27.0366   -0.2793   33.0057 H   0  0  0  0  0  0  0  0  0  0  0  0
   27.0738   -0.1028   31.2603 H   0  0  0  0  0  0  0  0  0  0  0  0
   29.5189    1.4742   33.8230 H   0  0  0  0  0  0  0  0  0  0  0  0
   28.6434    2.9972   33.8684 H   0  0  0  0  0  0  0  0  0  0  0  0
   27.8993    1.5342   34.5041 H   0  0  0  0  0  0  0  0  0  0  0  0
   36.9515    2.2868   31.5177 H   0  0  0  0  0  0  0  0  0  0  0  0
   36.6654    3.7171   29.5006 H   0  0  0  0  0  0  0  0  0  0  0  0
   35.2527    2.8093   29.0250 H   0  0  0  0  0  0  0  0  0  0  0  0
   23.1207    4.4641   29.6907 H   0  0  0  0  0  0  0  0  0  0  0  0
   29.5508   -0.4631   30.0767 H   0  0  0  0  0  0  0  0  0  0  0  0
   30.8640   -0.7997   31.1873 H   0  0  0  0  0  0  0  0  0  0  0  0
   36.5967    0.8612   29.0865 H   0  0  0  0  0  0  0  0  0  0  0  0
   28.6986   -1.7737   31.9245 H   0  0  0  0  0  0  0  0  0  0  0  0
   29.4232   -0.7121   33.1168 H   0  0  0  0  0  0  0  0  0  0  0  0
   24.1233    1.6393   34.2690 H   0  0  0  0  0  0  0  0  0  0  0  0
   24.6719    0.7958   32.8070 H   0  0  0  0  0  0  0  0  0  0  0  0
   25.7010    0.8869   34.2481 H   0  0  0  0  0  0  0  0  0  0  0  0
   20.5741    3.3852   32.3761 H   0  0  0  0  0  0  0  0  0  0  0  0
   20.3267    5.1363   32.2492 H   0  0  0  0  0  0  0  0  0  0  0  0
   21.2591    4.4701   33.5880 H   0  0  0  0  0  0  0  0  0  0  0  0
   20.4132    3.0768   30.0540 H   0  0  0  0  0  0  0  0  0  0  0  0
   21.9849    2.2576   29.9753 H   0  0  0  0  0  0  0  0  0  0  0  0
   21.3812    3.1471   28.5794 H   0  0  0  0  0  0  0  0  0  0  0  0
   20.3219    5.6600   30.0032 H   0  0  0  0  0  0  0  0  0  0  0  0
   21.8365    6.5838   29.9823 H   0  0  0  0  0  0  0  0  0  0  0  0
   21.3373    5.6654   28.5574 H   0  0  0  0  0  0  0  0  0  0  0  0
  2  1  1  0
  3  5  2  0
  4  1  1  0
  5  8  1  0
  6  3  1  0
  7  2  1  0
  8  7  2  0
  9 14  1  0
 10  9  2  0
  2 11  1  0
  4 12  1  0
 13  3  1  0
 14  4  1  0
 15  6  1  0
 16  6  2  0
 17 10  1  0
 18  1  1  0
  1 19  1  6
 20 13  1  0
 21 20  1  0
 22 17  1  0
 23  7  1  0
 20 24  1  0
 25 18  1  0
 14 26  1  0
 17 27  1  0
 28 22  1  0
 29 22  1  0
 23 25  1  0
 12 11  1  0
 15 21  1  0
  2 30  1  1
  4 31  1  1
  5 32  1  0
  8 33  1  0
  9 34  1  0
 10 35  1  0
 11 36  1  0
 11 37  1  0
 12 38  1  0
 12 39  1  0
 13 40  1  0
 13 41  1  0
 14 42  1  6
 15 43  1  0
 15 44  1  0
 16 45  1  0
 16 46  1  0
 17 47  1  6
 18 48  1  0
 18 49  1  0
 19 50  1  0
 19 51  1  0
 19 52  1  0
 20 53  1  6
 21 54  1  0
 21 55  1  0
 22 56  1  0
 23 57  1  0
 23 58  1  0
 24 59  1  0
 25 60  1  0
 25 61  1  0
 26 62  1  0
 26 63  1  0
 26 64  1  0
 27 65  1  0
 27 66  1  0
 27 67  1  0
 28 68  1  0
 28 69  1  0
 28 70  1  0
 29 71  1  0
 29 72  1  0
 29 73  1  0
M  END
> <Uni-Dock RESULT> 
ENERGY=   -4.082  LOWER_BOUND=   12.755  UPPER_BOUND=   16.536
INTER + INTRA:          -4.082
INTER:                  -4.082
INTRA:                   0.000
UNBOUND:                 0.000

$$$$

     RDKit          3D

 73 75  0  0  1  0  0  0  0  0999 V2000
   28.9082    4.8164   31.1367 C   0  0  1  0  0  0  0  0  0  0  0  0
   30.1709    4.6384   30.2447 C   0  0  2  0  0  0  0  0  0  0  0  0
   34.0523    1.7242   31.5246 C   0  0  0  0  0  0  0  0  0  0  0  0
   28.4900    6.2628   30.7242 C   0  0  2  0  0  0  0  0  0  0  0  0
   32.8168    1.8779   31.0043 C   0  0  0  0  0  0  0  0  0  0  0  0
   34.8946    2.7928   32.0497 C   0  0  0  0  0  0  0  0  0  0  0  0
   30.8241    3.2819   30.4303 C   0  0  0  0  0  0  0  0  0  0  0  0
   32.1024    3.1278   30.8281 C   0  0  0  0  0  0  0  0  0  0  0  0
   27.2802    8.4506   31.0531 C   0  0  0  0  0  0  0  0  0  0  0  0
   26.2535    8.8960   30.3085 C   0  0  0  0  0  0  0  0  0  0  0  0
   30.9438    5.9368   30.4623 C   0  0  0  0  0  0  0  0  0  0  0  0
   29.8530    7.0058   30.5962 C   0  0  0  0  0  0  0  0  0  0  0  0
   34.7161    0.3591   31.5463 C   0  0  0  0  0  0  0  0  0  0  0  0
   27.4743    7.0441   31.6043 C   0  0  1  0  0  0  0  0  0  0  0  0
   36.2630    2.9276   31.4226 C   0  0  0  0  0  0  0  0  0  0  0  0
   34.5230    3.5442   33.0982 C   0  0  0  0  0  0  0  0  0  0  0  0
   26.1381   10.3195   29.8025 C   0  0  1  0  0  0  0  0  0  0  0  0
   27.9066    3.7082   30.7423 C   0  0  0  0  0  0  0  0  0  0  0  0
   29.2297    4.7313   32.6491 C   0  0  0  0  0  0  0  0  0  0  0  0
   36.2434    0.4053   31.3403 C   0  0  2  0  0  0  0  0  0  0  0  0
   36.6935    1.6855   30.6386 C   0  0  0  0  0  0  0  0  0  0  0  0
   26.3140   10.3861   28.2597 C   0  0  0  0  0  0  0  0  0  0  0  0
   29.8524    2.1618   30.1014 C   0  0  0  0  0  0  0  0  0  0  0  0
   36.6728   -0.7246   30.5795 O   0  0  0  0  0  0  0  0  0  0  0  0
   28.5210    2.3034   30.8501 C   0  0  0  0  0  0  0  0  0  0  0  0
   26.1440    6.3069   31.7927 C   0  0  0  0  0  0  0  0  0  0  0  0
   24.8263   10.9277   30.3095 C   0  0  0  0  0  0  0  0  0  0  0  0
   25.1884    9.7125   27.4670 C   0  0  0  0  0  0  0  0  0  0  0  0
   26.4822   11.8312   27.7765 C   0  0  0  0  0  0  0  0  0  0  0  0
   29.8545    4.6613   29.1879 H   0  0  0  0  0  0  0  0  0  0  0  0
   28.0647    6.2062   29.7097 H   0  0  0  0  0  0  0  0  0  0  0  0
   32.3118    0.9826   30.6514 H   0  0  0  0  0  0  0  0  0  0  0  0
   32.6922    4.0194   31.0268 H   0  0  0  0  0  0  0  0  0  0  0  0
   28.0765    9.1516   31.3032 H   0  0  0  0  0  0  0  0  0  0  0  0
   25.4475    8.2189   30.0357 H   0  0  0  0  0  0  0  0  0  0  0  0
   31.5456    5.9145   31.3778 H   0  0  0  0  0  0  0  0  0  0  0  0
   31.6205    6.1551   29.6295 H   0  0  0  0  0  0  0  0  0  0  0  0
   30.0654    7.6309   31.4710 H   0  0  0  0  0  0  0  0  0  0  0  0
   29.8457    7.6617   29.7180 H   0  0  0  0  0  0  0  0  0  0  0  0
   34.5102   -0.1214   32.5119 H   0  0  0  0  0  0  0  0  0  0  0  0
   34.2637   -0.2940   30.7883 H   0  0  0  0  0  0  0  0  0  0  0  0
   27.9007    7.1760   32.6078 H   0  0  0  0  0  0  0  0  0  0  0  0
   37.0046    3.1172   32.2096 H   0  0  0  0  0  0  0  0  0  0  0  0
   36.2770    3.7948   30.7514 H   0  0  0  0  0  0  0  0  0  0  0  0
   35.1758    4.3098   33.5045 H   0  0  0  0  0  0  0  0  0  0  0  0
   33.5583    3.4123   33.5800 H   0  0  0  0  0  0  0  0  0  0  0  0
   26.9520   10.9095   30.2472 H   0  0  0  0  0  0  0  0  0  0  0  0
   27.0112    3.7369   31.3687 H   0  0  0  0  0  0  0  0  0  0  0  0
   27.5684    3.8634   29.7096 H   0  0  0  0  0  0  0  0  0  0  0  0
   29.7529    3.8070   32.9124 H   0  0  0  0  0  0  0  0  0  0  0  0
   29.8606    5.5594   32.9875 H   0  0  0  0  0  0  0  0  0  0  0  0
   28.3143    4.7601   33.2484 H   0  0  0  0  0  0  0  0  0  0  0  0
   36.7395    0.3358   32.3158 H   0  0  0  0  0  0  0  0  0  0  0  0
   37.7815    1.6833   30.5007 H   0  0  0  0  0  0  0  0  0  0  0  0
   36.2726    1.7182   29.6244 H   0  0  0  0  0  0  0  0  0  0  0  0
   27.2460    9.8596   28.0099 H   0  0  0  0  0  0  0  0  0  0  0  0
   29.6585    2.1830   29.0210 H   0  0  0  0  0  0  0  0  0  0  0  0
   30.2577    1.1705   30.3199 H   0  0  0  0  0  0  0  0  0  0  0  0
   36.2852   -0.6484   29.6902 H   0  0  0  0  0  0  0  0  0  0  0  0
   27.8076    1.5699   30.4552 H   0  0  0  0  0  0  0  0  0  0  0  0
   28.6690    2.0462   31.9060 H   0  0  0  0  0  0  0  0  0  0  0  0
   25.3928    6.9540   32.2606 H   0  0  0  0  0  0  0  0  0  0  0  0
   25.7398    5.9486   30.8399 H   0  0  0  0  0  0  0  0  0  0  0  0
   26.2600    5.4494   32.4599 H   0  0  0  0  0  0  0  0  0  0  0  0
   23.9505   10.3838   29.9401 H   0  0  0  0  0  0  0  0  0  0  0  0
   24.7293   11.9751   30.0088 H   0  0  0  0  0  0  0  0  0  0  0  0
   24.7879   10.9015   31.4050 H   0  0  0  0  0  0  0  0  0  0  0  0
   24.2291   10.2186   27.6146 H   0  0  0  0  0  0  0  0  0  0  0  0
   25.0696    8.6619   27.7474 H   0  0  0  0  0  0  0  0  0  0  0  0
   25.4103    9.7375   26.3941 H   0  0  0  0  0  0  0  0  0  0  0  0
   25.5643   12.4133   27.9041 H   0  0  0  0  0  0  0  0  0  0  0  0
   27.2867   12.3351   28.3223 H   0  0  0  0  0  0  0  0  0  0  0  0
   26.7415   11.8520   26.7123 H   0  0  0  0  0  0  0  0  0  0  0  0
  2  1  1  0
  3  5  2  0
  4  1  1  0
  5  8  1  0
  6  3  1  0
  7  2  1  0
  8  7  2  0
  9 14  1  0
 10  9  2  0
  2 11  1  0
  4 12  1  0
 13  3  1  0
 14  4  1  0
 15  6  1  0
 16  6  2  0
 17 10  1  0
 18  1  1  0
  1 19  1  6
 20 13  1  0
 21 20  1  0
 22 17  1  0
 23  7  1  0
 20 24  1  0
 25 18  1  0
 14 26  1  0
 17 27  1  0
 28 22  1  0
 29 22  1  0
 23 25  1  0
 12 11  1  0
 15 21  1  0
  2 30  1  1
  4 31  1  1
  5 32  1  0
  8 33  1  0
  9 34  1  0
 10 35  1  0
 11 36  1  0
 11 37  1  0
 12 38  1  0
 12 39  1  0
 13 40  1  0
 13 41  1  0
 14 42  1  6
 15 43  1  0
 15 44  1  0
 16 45  1  0
 16 46  1  0
 17 47  1  6
 18 48  1  0
 18 49  1  0
 19 50  1  0
 19 51  1  0
 19 52  1  0
 20 53  1  6
 21 54  1  0
 21 55  1  0
 22 56  1  0
 23 57  1  0
 23 58  1  0
 24 59  1  0
 25 60  1  0
 25 61  1  0
 26 62  1  0
 26 63  1  0
 26 64  1  0
 27 65  1  0
 27 66  1  0
 27 67  1  0
 28 68  1  0
 28 69  1  0
 28 70  1  0
 29 71  1  0
 29 72  1  0
 29 73  1  0
M  END
> <Uni-Dock RESULT> 
ENERGY=   -3.975  LOWER_BOUND=   10.417  UPPER_BOUND=   14.447
INTER + INTRA:          -3.975
INTER:                  -3.975
INTRA:                   0.000
UNBOUND:                 0.000

$$$$

     RDKit          3D

 73 75  0  0  1  0  0  0  0  0999 V2000
   27.3811   12.5391   21.6367 C   0  0  1  0  0  0  0  0  0  0  0  0
   28.1975   11.6766   22.6423 C   0  0  2  0  0  0  0  0  0  0  0  0
   32.2538   13.3769   25.0613 C   0  0  0  0  0  0  0  0  0  0  0  0
   26.8443   11.4162   20.6943 C   0  0  2  0  0  0  0  0  0  0  0  0
   30.9142   13.2697   24.9401 C   0  0  0  0  0  0  0  0  0  0  0  0
   33.2404   12.7913   24.1607 C   0  0  0  0  0  0  0  0  0  0  0  0
   28.8634   12.5153   23.7167 C   0  0  0  0  0  0  0  0  0  0  0  0
   30.1950   12.5257   23.9239 C   0  0  0  0  0  0  0  0  0  0  0  0
   25.8700   10.5433   18.5386 C   0  0  0  0  0  0  0  0  0  0  0  0
   24.6375   10.0278   18.3897 C   0  0  0  0  0  0  0  0  0  0  0  0
   29.0021   10.7459   21.7384 C   0  0  0  0  0  0  0  0  0  0  0  0
   28.0552   10.4443   20.5710 C   0  0  0  0  0  0  0  0  0  0  0  0
   32.8659   14.1048   26.2446 C   0  0  0  0  0  0  0  0  0  0  0  0
   26.2544   11.8001   19.3082 C   0  0  1  0  0  0  0  0  0  0  0  0
   34.2589   11.8749   24.7983 C   0  0  0  0  0  0  0  0  0  0  0  0
   33.3092   13.1267   22.8627 C   0  0  0  0  0  0  0  0  0  0  0  0
   24.3434    8.7684   17.6003 C   0  0  1  0  0  0  0  0  0  0  0  0
   26.2982   13.2871   22.4459 C   0  0  0  0  0  0  0  0  0  0  0  0
   28.2637   13.5502   20.8645 C   0  0  0  0  0  0  0  0  0  0  0  0
   34.1937   13.4930   26.7339 C   0  0  2  0  0  0  0  0  0  0  0  0
   34.3440   12.0305   26.3185 C   0  0  0  0  0  0  0  0  0  0  0  0
   23.9073    7.6056   18.5347 C   0  0  0  0  0  0  0  0  0  0  0  0
   27.8335   13.3080   24.5028 C   0  0  0  0  0  0  0  0  0  0  0  0
   34.2875   13.5907   28.1557 O   0  0  0  0  0  0  0  0  0  0  0  0
   26.8978   14.1151   23.5938 C   0  0  0  0  0  0  0  0  0  0  0  0
   25.0970   12.8006   19.3990 C   0  0  0  0  0  0  0  0  0  0  0  0
   23.3349    9.0937   16.4936 C   0  0  0  0  0  0  0  0  0  0  0  0
   22.5583    7.8258   19.2280 C   0  0  0  0  0  0  0  0  0  0  0  0
   23.8835    6.2662   17.7893 C   0  0  0  0  0  0  0  0  0  0  0  0
   27.4960   11.0205   23.1854 H   0  0  0  0  0  0  0  0  0  0  0  0
   26.0583   10.8734   21.2428 H   0  0  0  0  0  0  0  0  0  0  0  0
   30.3065   13.7630   25.6941 H   0  0  0  0  0  0  0  0  0  0  0  0
   30.8210   11.9037   23.2886 H   0  0  0  0  0  0  0  0  0  0  0  0
   26.7052   10.0238   18.0687 H   0  0  0  0  0  0  0  0  0  0  0  0
   23.7848   10.5186   18.8528 H   0  0  0  0  0  0  0  0  0  0  0  0
   29.9118   11.2217   21.3553 H   0  0  0  0  0  0  0  0  0  0  0  0
   29.3039    9.8304   22.2580 H   0  0  0  0  0  0  0  0  0  0  0  0
   28.5942   10.5753   19.6257 H   0  0  0  0  0  0  0  0  0  0  0  0
   27.7116    9.4042   20.6116 H   0  0  0  0  0  0  0  0  0  0  0  0
   33.0479   15.1506   25.9637 H   0  0  0  0  0  0  0  0  0  0  0  0
   32.1508   14.1422   27.0772 H   0  0  0  0  0  0  0  0  0  0  0  0
   27.0375   12.2852   18.7103 H   0  0  0  0  0  0  0  0  0  0  0  0
   35.2490   12.0812   24.3710 H   0  0  0  0  0  0  0  0  0  0  0  0
   34.0167   10.8320   24.5602 H   0  0  0  0  0  0  0  0  0  0  0  0
   34.0732   12.7138   22.2120 H   0  0  0  0  0  0  0  0  0  0  0  0
   32.6063   13.8246   22.4167 H   0  0  0  0  0  0  0  0  0  0  0  0
   25.2697    8.4521   17.0999 H   0  0  0  0  0  0  0  0  0  0  0  0
   25.7162   13.9590   21.8096 H   0  0  0  0  0  0  0  0  0  0  0  0
   25.5868   12.5665   22.8695 H   0  0  0  0  0  0  0  0  0  0  0  0
   28.8425   14.1941   21.5337 H   0  0  0  0  0  0  0  0  0  0  0  0
   28.9814   13.0552   20.2026 H   0  0  0  0  0  0  0  0  0  0  0  0
   27.6528   14.2090   20.2395 H   0  0  0  0  0  0  0  0  0  0  0  0
   35.0291   14.0719   26.3220 H   0  0  0  0  0  0  0  0  0  0  0  0
   35.2932   11.6239   26.6881 H   0  0  0  0  0  0  0  0  0  0  0  0
   33.5627   11.4275   26.8011 H   0  0  0  0  0  0  0  0  0  0  0  0
   24.6662    7.5135   19.3245 H   0  0  0  0  0  0  0  0  0  0  0  0
   27.2357   12.6017   25.0934 H   0  0  0  0  0  0  0  0  0  0  0  0
   28.2859   13.9990   25.2187 H   0  0  0  0  0  0  0  0  0  0  0  0
   33.5857   13.0358   28.5384 H   0  0  0  0  0  0  0  0  0  0  0  0
   26.0827   14.5320   24.1975 H   0  0  0  0  0  0  0  0  0  0  0  0
   27.4424   14.9739   23.1829 H   0  0  0  0  0  0  0  0  0  0  0  0
   24.5901   12.9121   18.4332 H   0  0  0  0  0  0  0  0  0  0  0  0
   24.3526   12.4942   20.1417 H   0  0  0  0  0  0  0  0  0  0  0  0
   25.4576   13.7968   19.6662 H   0  0  0  0  0  0  0  0  0  0  0  0
   22.3811    9.4494   16.8974 H   0  0  0  0  0  0  0  0  0  0  0  0
   23.1351    8.2200   15.8661 H   0  0  0  0  0  0  0  0  0  0  0  0
   23.7244    9.8806   15.8369 H   0  0  0  0  0  0  0  0  0  0  0  0
   21.7345    7.8686   18.5085 H   0  0  0  0  0  0  0  0  0  0  0  0
   22.5513    8.7494   19.8140 H   0  0  0  0  0  0  0  0  0  0  0  0
   22.3466    7.0027   19.9198 H   0  0  0  0  0  0  0  0  0  0  0  0
   23.0905    6.2329   17.0358 H   0  0  0  0  0  0  0  0  0  0  0  0
   24.8398    6.0796   17.2896 H   0  0  0  0  0  0  0  0  0  0  0  0
   23.7097    5.4411   18.4888 H   0  0  0  0  0  0  0  0  0  0  0  0
  2  1  1  0
  3  5  2  0
  4  1  1  0
  5  8  1  0
  6  3  1  0
  7  2  1  0
  8  7  2  0
  9 14  1  0
 10  9  2  0
  2 11  1  0
  4 12  1  0
 13  3  1  0
 14  4  1  0
 15  6  1  0
 16  6  2  0
 17 10  1  0
 18  1  1  0
  1 19  1  6
 20 13  1  0
 21 20  1  0
 22 17  1  0
 23  7  1  0
 20 24  1  0
 25 18  1  0
 14 26  1  0
 17 27  1  0
 28 22  1  0
 29 22  1  0
 23 25  1  0
 12 11  1  0
 15 21  1  0
  2 30  1  1
  4 31  1  1
  5 32  1  0
  8 33  1  0
  9 34  1  0
 10 35  1  0
 11 36  1  0
 11 37  1  0
 12 38  1  0
 12 39  1  0
 13 40  1  0
 13 41  1  0
 14 42  1  6
 15 43  1  0
 15 44  1  0
 16 45  1  0
 16 46  1  0
 17 47  1  6
 18 48  1  0
 18 49  1  0
 19 50  1  0
 19 51  1  0
 19 52  1  0
 20 53  1  6
 21 54  1  0
 21 55  1  0
 22 56  1  0
 23 57  1  0
 23 58  1  0
 24 59  1  0
 25 60  1  0
 25 61  1  0
 26 62  1  0
 26 63  1  0
 26 64  1  0
 27 65  1  0
 27 66  1  0
 27 67  1  0
 28 68  1  0
 28 69  1  0
 28 70  1  0
 29 71  1  0
 29 72  1  0
 29 73  1  0
M  END
> <Uni-Dock RESULT> 
ENERGY=   -3.953  LOWER_BOUND=    3.688  UPPER_BOUND=   10.296
INTER + INTRA:          -3.953
INTER:                  -3.953
INTRA:                   0.000
UNBOUND:                 0.000

$$$$

     RDKit          3D

 73 75  0  0  1  0  0  0  0  0999 V2000
   26.4428   10.3387   29.5914 C   0  0  1  0  0  0  0  0  0  0  0  0
   26.9626    9.8509   28.2082 C   0  0  2  0  0  0  0  0  0  0  0  0
   30.5270   12.2470   25.6101 C   0  0  0  0  0  0  0  0  0  0  0  0
   24.9799    9.7965   29.5348 C   0  0  2  0  0  0  0  0  0  0  0  0
   30.1549   11.3907   26.5843 C   0  0  0  0  0  0  0  0  0  0  0  0
   29.6249   12.9722   24.7227 C   0  0  0  0  0  0  0  0  0  0  0  0
   28.4076   10.2418   27.9622 C   0  0  0  0  0  0  0  0  0  0  0  0
   28.7997   10.9932   26.9144 C   0  0  0  0  0  0  0  0  0  0  0  0
   22.5633    9.7226   30.2506 C   0  0  0  0  0  0  0  0  0  0  0  0
   21.9711    8.7060   30.9008 C   0  0  0  0  0  0  0  0  0  0  0  0
   25.8477   10.2573   27.2478 C   0  0  0  0  0  0  0  0  0  0  0  0
   24.5615   10.0519   28.0564 C   0  0  0  0  0  0  0  0  0  0  0  0
   31.9964   12.4843   25.3110 C   0  0  0  0  0  0  0  0  0  0  0  0
   23.9274   10.3325   30.5454 C   0  0  1  0  0  0  0  0  0  0  0  0
   29.8410   12.7626   23.2417 C   0  0  0  0  0  0  0  0  0  0  0  0
   28.7260   13.8553   25.1855 C   0  0  0  0  0  0  0  0  0  0  0  0
   20.6036    8.1617   30.5411 C   0  0  1  0  0  0  0  0  0  0  0  0
   27.3382    9.6937   30.6727 C   0  0  0  0  0  0  0  0  0  0  0  0
   26.4683   11.8810   29.7280 C   0  0  0  0  0  0  0  0  0  0  0  0
   32.2977   12.7252   23.8183 C   0  0  2  0  0  0  0  0  0  0  0  0
   31.2078   12.1588   22.9099 C   0  0  0  0  0  0  0  0  0  0  0  0
   20.7058    6.7337   29.9361 C   0  0  0  0  0  0  0  0  0  0  0  0
   29.3156    9.6684   29.0363 C   0  0  0  0  0  0  0  0  0  0  0  0
   33.5531   12.1414   23.4681 O   0  0  0  0  0  0  0  0  0  0  0  0
   28.8284    9.9999   30.4527 C   0  0  0  0  0  0  0  0  0  0  0  0
   24.3422   10.1442   32.0086 C   0  0  0  0  0  0  0  0  0  0  0  0
   19.6868    8.2587   31.7650 C   0  0  0  0  0  0  0  0  0  0  0  0
   21.1850    5.6636   30.9232 C   0  0  0  0  0  0  0  0  0  0  0  0
   19.3764    6.2923   29.3131 C   0  0  0  0  0  0  0  0  0  0  0  0
   26.9606    8.7475   28.2067 H   0  0  0  0  0  0  0  0  0  0  0  0
   25.0283    8.7037   29.6651 H   0  0  0  0  0  0  0  0  0  0  0  0
   30.9467   10.9243   27.1644 H   0  0  0  0  0  0  0  0  0  0  0  0
   28.0426   11.3364   26.2134 H   0  0  0  0  0  0  0  0  0  0  0  0
   22.0318   10.1780   29.4149 H   0  0  0  0  0  0  0  0  0  0  0  0
   22.4791    8.2257   31.7337 H   0  0  0  0  0  0  0  0  0  0  0  0
   25.9224   11.3073   26.9437 H   0  0  0  0  0  0  0  0  0  0  0  0
   25.8507    9.6503   26.3363 H   0  0  0  0  0  0  0  0  0  0  0  0
   23.9258   10.9390   27.9554 H   0  0  0  0  0  0  0  0  0  0  0  0
   23.9952    9.1965   27.6700 H   0  0  0  0  0  0  0  0  0  0  0  0
   32.3387   13.3587   25.8801 H   0  0  0  0  0  0  0  0  0  0  0  0
   32.5978   11.6405   25.6747 H   0  0  0  0  0  0  0  0  0  0  0  0
   23.8070   11.4136   30.3937 H   0  0  0  0  0  0  0  0  0  0  0  0
   29.7504   13.7259   22.7229 H   0  0  0  0  0  0  0  0  0  0  0  0
   29.0564   12.1076   22.8437 H   0  0  0  0  0  0  0  0  0  0  0  0
   28.0877   14.4178   24.5120 H   0  0  0  0  0  0  0  0  0  0  0  0
   28.6062   14.0417   26.2490 H   0  0  0  0  0  0  0  0  0  0  0  0
   20.1676    8.8106   29.7682 H   0  0  0  0  0  0  0  0  0  0  0  0
   27.0650   10.0356   31.6745 H   0  0  0  0  0  0  0  0  0  0  0  0
   27.2008    8.6047   30.6678 H   0  0  0  0  0  0  0  0  0  0  0  0
   27.4583   12.3008   29.5253 H   0  0  0  0  0  0  0  0  0  0  0  0
   25.7703   12.3710   29.0418 H   0  0  0  0  0  0  0  0  0  0  0  0
   26.1930   12.1911   30.7409 H   0  0  0  0  0  0  0  0  0  0  0  0
   32.3905   13.8034   23.6404 H   0  0  0  0  0  0  0  0  0  0  0  0
   31.4558   12.3396   21.8570 H   0  0  0  0  0  0  0  0  0  0  0  0
   31.1702   11.0660   23.0156 H   0  0  0  0  0  0  0  0  0  0  0  0
   21.4397    6.7723   29.1188 H   0  0  0  0  0  0  0  0  0  0  0  0
   29.3436    8.5777   28.9146 H   0  0  0  0  0  0  0  0  0  0  0  0
   30.3490   10.0127   28.9467 H   0  0  0  0  0  0  0  0  0  0  0  0
   33.4699   11.1768   23.5670 H   0  0  0  0  0  0  0  0  0  0  0  0
   29.4213    9.4303   31.1785 H   0  0  0  0  0  0  0  0  0  0  0  0
   29.0221   11.0583   30.6649 H   0  0  0  0  0  0  0  0  0  0  0  0
   23.5117   10.3642   32.6896 H   0  0  0  0  0  0  0  0  0  0  0  0
   24.6836    9.1223   32.2057 H   0  0  0  0  0  0  0  0  0  0  0  0
   25.1457   10.8324   32.2819 H   0  0  0  0  0  0  0  0  0  0  0  0
   20.0582    7.6632   32.6057 H   0  0  0  0  0  0  0  0  0  0  0  0
   18.6720    7.9232   31.5313 H   0  0  0  0  0  0  0  0  0  0  0  0
   19.6124    9.2971   32.1089 H   0  0  0  0  0  0  0  0  0  0  0  0
   20.4736    5.5195   31.7426 H   0  0  0  0  0  0  0  0  0  0  0  0
   22.1581    5.9175   31.3533 H   0  0  0  0  0  0  0  0  0  0  0  0
   21.2982    4.6995   30.4145 H   0  0  0  0  0  0  0  0  0  0  0  0
   18.6017    6.1396   30.0708 H   0  0  0  0  0  0  0  0  0  0  0  0
   19.0138    7.0369   28.5967 H   0  0  0  0  0  0  0  0  0  0  0  0
   19.5012    5.3474   28.7728 H   0  0  0  0  0  0  0  0  0  0  0  0
  2  1  1  0
  3  5  2  0
  4  1  1  0
  5  8  1  0
  6  3  1  0
  7  2  1  0
  8  7  2  0
  9 14  1  0
 10  9  2  0
  2 11  1  0
  4 12  1  0
 13  3  1  0
 14  4  1  0
 15  6  1  0
 16  6  2  0
 17 10  1  0
 18  1  1  0
  1 19  1  6
 20 13  1  0
 21 20  1  0
 22 17  1  0
 23  7  1  0
 20 24  1  0
 25 18  1  0
 14 26  1  0
 17 27  1  0
 28 22  1  0
 29 22  1  0
 23 25  1  0
 12 11  1  0
 15 21  1  0
  2 30  1  1
  4 31  1  1
  5 32  1  0
  8 33  1  0
  9 34  1  0
 10 35  1  0
 11 36  1  0
 11 37  1  0
 12 38  1  0
 12 39  1  0
 13 40  1  0
 13 41  1  0
 14 42  1  6
 15 43  1  0
 15 44  1  0
 16 45  1  0
 16 46  1  0
 17 47  1  6
 18 48  1  0
 18 49  1  0
 19 50  1  0
 19 51  1  0
 19 52  1  0
 20 53  1  6
 21 54  1  0
 21 55  1  0
 22 56  1  0
 23 57  1  0
 23 58  1  0
 24 59  1  0
 25 60  1  0
 25 61  1  0
 26 62  1  0
 26 63  1  0
 26 64  1  0
 27 65  1  0
 27 66  1  0
 27 67  1  0
 28 68  1  0
 28 69  1  0
 28 70  1  0
 29 71  1  0
 29 72  1  0
 29 73  1  0
M  END
> <Uni-Dock RESULT> 
ENERGY=   -3.926  LOWER_BOUND=    7.977  UPPER_BOUND=   11.647
INTER + INTRA:          -3.926
INTER:                  -3.926
INTRA:                   0.000
UNBOUND:                 0.000

$$$$

     RDKit          3D

 73 75  0  0  1  0  0  0  0  0999 V2000
   28.3634    2.3255   31.5372 C   0  0  1  0  0  0  0  0  0  0  0  0
   28.6406    3.4897   30.5426 C   0  0  2  0  0  0  0  0  0  0  0  0
   32.4990    6.6631   31.0316 C   0  0  0  0  0  0  0  0  0  0  0  0
   26.8106    2.2270   31.4089 C   0  0  2  0  0  0  0  0  0  0  0  0
   31.9930    5.4776   30.6323 C   0  0  0  0  0  0  0  0  0  0  0  0
   31.7488    7.7372   31.6726 C   0  0  0  0  0  0  0  0  0  0  0  0
   30.1157    3.8305   30.4470 C   0  0  0  0  0  0  0  0  0  0  0  0
   30.6089    5.0539   30.7230 C   0  0  0  0  0  0  0  0  0  0  0  0
   24.5128    1.5439   32.1911 C   0  0  0  0  0  0  0  0  0  0  0  0
   23.7305    0.6200   31.6068 C   0  0  0  0  0  0  0  0  0  0  0  0
   27.5989    4.5380   30.9256 C   0  0  0  0  0  0  0  0  0  0  0  0
   26.3648    3.7166   31.3160 C   0  0  0  0  0  0  0  0  0  0  0  0
   33.9547    7.0074   30.7729 C   0  0  0  0  0  0  0  0  0  0  0  0
   26.0048    1.4371   32.4781 C   0  0  1  0  0  0  0  0  0  0  0  0
   31.7967    9.0819   30.9847 C   0  0  0  0  0  0  0  0  0  0  0  0
   31.1397    7.5734   32.8576 C   0  0  0  0  0  0  0  0  0  0  0  0
   22.2473    0.8087   31.3617 C   0  0  1  0  0  0  0  0  0  0  0  0
   29.1414    1.0914   31.0289 C   0  0  0  0  0  0  0  0  0  0  0  0
   28.7897    2.6652   32.9866 C   0  0  0  0  0  0  0  0  0  0  0  0
   34.1984    8.4998   30.4725 C   0  0  2  0  0  0  0  0  0  0  0  0
   32.9375    9.2020   29.9713 C   0  0  0  0  0  0  0  0  0  0  0  0
   21.9393    0.9488   29.8448 C   0  0  0  0  0  0  0  0  0  0  0  0
   30.9236    2.6248   29.9990 C   0  0  0  0  0  0  0  0  0  0  0  0
   35.2356    8.6445   29.5013 O   0  0  0  0  0  0  0  0  0  0  0  0
   30.6405    1.3811   30.8513 C   0  0  0  0  0  0  0  0  0  0  0  0
   26.4631   -0.0175   32.6290 C   0  0  0  0  0  0  0  0  0  0  0  0
   21.4764   -0.3193   32.0552 C   0  0  0  0  0  0  0  0  0  0  0  0
   22.2011   -0.3215   29.0282 C   0  0  0  0  0  0  0  0  0  0  0  0
   20.4999    1.4194   29.6061 C   0  0  0  0  0  0  0  0  0  0  0  0
   28.3583    3.1549   29.5298 H   0  0  0  0  0  0  0  0  0  0  0  0
   26.5891    1.7695   30.4316 H   0  0  0  0  0  0  0  0  0  0  0  0
   32.6802    4.7760   30.1669 H   0  0  0  0  0  0  0  0  0  0  0  0
   29.9151    5.8328   31.0303 H   0  0  0  0  0  0  0  0  0  0  0  0
   24.0554    2.4832   32.5019 H   0  0  0  0  0  0  0  0  0  0  0  0
   24.1588   -0.3240   31.2785 H   0  0  0  0  0  0  0  0  0  0  0  0
   27.9158    5.1469   31.7797 H   0  0  0  0  0  0  0  0  0  0  0  0
   27.3817    5.2210   30.0976 H   0  0  0  0  0  0  0  0  0  0  0  0
   25.9698    4.0886   32.2683 H   0  0  0  0  0  0  0  0  0  0  0  0
   25.5734    3.8288   30.5660 H   0  0  0  0  0  0  0  0  0  0  0  0
   34.5482    6.7288   31.6537 H   0  0  0  0  0  0  0  0  0  0  0  0
   34.3467    6.3986   29.9472 H   0  0  0  0  0  0  0  0  0  0  0  0
   26.1523    1.9120   33.4573 H   0  0  0  0  0  0  0  0  0  0  0  0
   31.9165    9.8703   31.7391 H   0  0  0  0  0  0  0  0  0  0  0  0
   30.8448    9.2682   30.4727 H   0  0  0  0  0  0  0  0  0  0  0  0
   30.6182    8.3918   33.3430 H   0  0  0  0  0  0  0  0  0  0  0  0
   31.1485    6.6184   33.3753 H   0  0  0  0  0  0  0  0  0  0  0  0
   21.9357    1.7463   31.8436 H   0  0  0  0  0  0  0  0  0  0  0  0
   29.0373    0.2438   31.7115 H   0  0  0  0  0  0  0  0  0  0  0  0
   28.7319    0.7653   30.0641 H   0  0  0  0  0  0  0  0  0  0  0  0
   29.8364    2.9775   33.0506 H   0  0  0  0  0  0  0  0  0  0  0  0
   28.1912    3.4742   33.4175 H   0  0  0  0  0  0  0  0  0  0  0  0
   28.6762    1.7974   33.6439 H   0  0  0  0  0  0  0  0  0  0  0  0
   34.5489    8.9971   31.3849 H   0  0  0  0  0  0  0  0  0  0  0  0
   33.1465   10.2576   29.7600 H   0  0  0  0  0  0  0  0  0  0  0  0
   32.6313    8.7687   29.0094 H   0  0  0  0  0  0  0  0  0  0  0  0
   22.5977    1.7326   29.4445 H   0  0  0  0  0  0  0  0  0  0  0  0
   30.6647    2.4082   28.9544 H   0  0  0  0  0  0  0  0  0  0  0  0
   32.0013    2.8061   30.0157 H   0  0  0  0  0  0  0  0  0  0  0  0
   34.9174    8.2571   28.6672 H   0  0  0  0  0  0  0  0  0  0  0  0
   31.1202    0.5111   30.3869 H   0  0  0  0  0  0  0  0  0  0  0  0
   31.1116    1.4999   31.8347 H   0  0  0  0  0  0  0  0  0  0  0  0
   25.7672   -0.5918   33.2519 H   0  0  0  0  0  0  0  0  0  0  0  0
   26.5469   -0.5196   31.6592 H   0  0  0  0  0  0  0  0  0  0  0  0
   27.4326   -0.0751   33.1296 H   0  0  0  0  0  0  0  0  0  0  0  0
   21.7442   -1.3047   31.6595 H   0  0  0  0  0  0  0  0  0  0  0  0
   20.3955   -0.1901   31.9460 H   0  0  0  0  0  0  0  0  0  0  0  0
   21.6933   -0.3298   33.1299 H   0  0  0  0  0  0  0  0  0  0  0  0
   21.5377   -1.1396   29.3265 H   0  0  0  0  0  0  0  0  0  0  0  0
   23.2353   -0.6623   29.1318 H   0  0  0  0  0  0  0  0  0  0  0  0
   22.0285   -0.1318   27.9628 H   0  0  0  0  0  0  0  0  0  0  0  0
   19.7687    0.6580   29.8949 H   0  0  0  0  0  0  0  0  0  0  0  0
   20.2874    2.3317   30.1732 H   0  0  0  0  0  0  0  0  0  0  0  0
   20.3410    1.6448   28.5458 H   0  0  0  0  0  0  0  0  0  0  0  0
  2  1  1  0
  3  5  2  0
  4  1  1  0
  5  8  1  0
  6  3  1  0
  7  2  1  0
  8  7  2  0
  9 14  1  0
 10  9  2  0
  2 11  1  0
  4 12  1  0
 13  3  1  0
 14  4  1  0
 15  6  1  0
 16  6  2  0
 17 10  1  0
 18  1  1  0
  1 19  1  6
 20 13  1  0
 21 20  1  0
 22 17  1  0
 23  7  1  0
 20 24  1  0
 25 18  1  0
 14 26  1  0
 17 27  1  0
 28 22  1  0
 29 22  1  0
 23 25  1  0
 12 11  1  0
 15 21  1  0
  2 30  1  1
  4 31  1  1
  5 32  1  0
  8 33  1  0
  9 34  1  0
 10 35  1  0
 11 36  1  0
 11 37  1  0
 12 38  1  0
 12 39  1  0
 13 40  1  0
 13 41  1  0
 14 42  1  6
 15 43  1  0
 15 44  1  0
 16 45  1  0
 16 46  1  0
 17 47  1  6
 18 48  1  0
 18 49  1  0
 19 50  1  0
 19 51  1  0
 19 52  1  0
 20 53  1  6
 21 54  1  0
 21 55  1  0
 22 56  1  0
 23 57  1  0
 23 58  1  0
 24 59  1  0
 25 60  1  0
 25 61  1  0
 26 62  1  0
 26 63  1  0
 26 64  1  0
 27 65  1  0
 27 66  1  0
 27 67  1  0
 28 68  1  0
 28 69  1  0
 28 70  1  0
 29 71  1  0
 29 72  1  0
 29 73  1  0
M  END
> <Uni-Dock RESULT> 
ENERGY=   -3.878  LOWER_BOUND=   11.516  UPPER_BOUND=   15.789
INTER + INTRA:          -3.878
INTER:                  -3.878
INTRA:                   0.000
UNBOUND:                 0.000

$$$$

     RDKit          3D

 73 75  0  0  1  0  0  0  0  0999 V2000
   32.4153   11.5221   26.9596 C   0  0  1  0  0  0  0  0  0  0  0  0
   33.5601   10.4691   27.0074 C   0  0  2  0  0  0  0  0  0  0  0  0
   37.0441   10.3582   30.6193 C   0  0  0  0  0  0  0  0  0  0  0  0
   32.1899   11.6034   25.4169 C   0  0  2  0  0  0  0  0  0  0  0  0
   35.8083   10.0609   30.1660 C   0  0  0  0  0  0  0  0  0  0  0  0
   38.0786   11.0644   29.8721 C   0  0  0  0  0  0  0  0  0  0  0  0
   34.0124   10.1698   28.4241 C   0  0  0  0  0  0  0  0  0  0  0  0
   35.2804   10.3455   28.8455 C   0  0  0  0  0  0  0  0  0  0  0  0
   31.3570   12.7011   23.3051 C   0  0  0  0  0  0  0  0  0  0  0  0
   30.3532   12.2504   22.5330 C   0  0  0  0  0  0  0  0  0  0  0  0
   34.5363   10.9590   25.9408 C   0  0  0  0  0  0  0  0  0  0  0  0
   33.6351   11.5311   24.8405 C   0  0  0  0  0  0  0  0  0  0  0  0
   37.4923    9.8997   31.9953 C   0  0  0  0  0  0  0  0  0  0  0  0
   31.3791   12.7905   24.8254 C   0  0  1  0  0  0  0  0  0  0  0  0
   39.3964   10.3409   29.7183 C   0  0  0  0  0  0  0  0  0  0  0  0
   37.9114   12.3236   29.4381 C   0  0  0  0  0  0  0  0  0  0  0  0
   30.4150   12.1992   21.0200 C   0  0  1  0  0  0  0  0  0  0  0  0
   31.2284   10.9479   27.7648 C   0  0  0  0  0  0  0  0  0  0  0  0
   32.8412   12.8927   27.5409 C   0  0  0  0  0  0  0  0  0  0  0  0
   38.9872    9.5304   32.0730 C   0  0  2  0  0  0  0  0  0  0  0  0
   39.5685    9.1824   30.7037 C   0  0  0  0  0  0  0  0  0  0  0  0
   30.4740   10.7333   20.5069 C   0  0  0  0  0  0  0  0  0  0  0  0
   32.8585    9.6507   29.2643 C   0  0  0  0  0  0  0  0  0  0  0  0
   39.1771    8.4268   32.9595 O   0  0  0  0  0  0  0  0  0  0  0  0
   31.6288   10.5656   29.1988 C   0  0  0  0  0  0  0  0  0  0  0  0
   29.9717   12.9177   25.4187 C   0  0  0  0  0  0  0  0  0  0  0  0
   29.2562   13.0183   20.4423 C   0  0  0  0  0  0  0  0  0  0  0  0
   29.1988    9.9231   20.7650 C   0  0  0  0  0  0  0  0  0  0  0  0
   30.8202   10.6752   19.0146 C   0  0  0  0  0  0  0  0  0  0  0  0
   33.1666    9.5119   26.6246 H   0  0  0  0  0  0  0  0  0  0  0  0
   31.6804   10.6766   25.1091 H   0  0  0  0  0  0  0  0  0  0  0  0
   35.1464    9.5272   30.8429 H   0  0  0  0  0  0  0  0  0  0  0  0
   36.0129   10.7214   28.1353 H   0  0  0  0  0  0  0  0  0  0  0  0
   32.2682   13.0450   22.8155 H   0  0  0  0  0  0  0  0  0  0  0  0
   29.4344   11.8932   22.9920 H   0  0  0  0  0  0  0  0  0  0  0  0
   35.1996   11.7471   26.3143 H   0  0  0  0  0  0  0  0  0  0  0  0
   35.1689   10.1494   25.5618 H   0  0  0  0  0  0  0  0  0  0  0  0
   34.0099   12.5172   24.5431 H   0  0  0  0  0  0  0  0  0  0  0  0
   33.6566   10.8900   23.9518 H   0  0  0  0  0  0  0  0  0  0  0  0
   37.2944   10.7011   32.7194 H   0  0  0  0  0  0  0  0  0  0  0  0
   36.8862    9.0458   32.3259 H   0  0  0  0  0  0  0  0  0  0  0  0
   31.9001   13.7287   25.0590 H   0  0  0  0  0  0  0  0  0  0  0  0
   40.2194   11.0517   29.8691 H   0  0  0  0  0  0  0  0  0  0  0  0
   39.4879    9.9549   28.6957 H   0  0  0  0  0  0  0  0  0  0  0  0
   38.7035   12.8521   28.9179 H   0  0  0  0  0  0  0  0  0  0  0  0
   36.9799   12.8606   29.5934 H   0  0  0  0  0  0  0  0  0  0  0  0
   31.3424   12.6932   20.6969 H   0  0  0  0  0  0  0  0  0  0  0  0
   30.4012   11.6604   27.8211 H   0  0  0  0  0  0  0  0  0  0  0  0
   30.8355   10.0549   27.2619 H   0  0  0  0  0  0  0  0  0  0  0  0
   33.2373   12.8091   28.5575 H   0  0  0  0  0  0  0  0  0  0  0  0
   33.6158   13.3776   26.9384 H   0  0  0  0  0  0  0  0  0  0  0  0
   31.9922   13.5819   27.5864 H   0  0  0  0  0  0  0  0  0  0  0  0
   39.5441   10.3748   32.4966 H   0  0  0  0  0  0  0  0  0  0  0  0
   40.6288    8.9175   30.7949 H   0  0  0  0  0  0  0  0  0  0  0  0
   39.0770    8.2814   30.3122 H   0  0  0  0  0  0  0  0  0  0  0  0
   31.2919   10.2287   21.0402 H   0  0  0  0  0  0  0  0  0  0  0  0
   32.5834    8.6557   28.8907 H   0  0  0  0  0  0  0  0  0  0  0  0
   33.1247    9.5195   30.3162 H   0  0  0  0  0  0  0  0  0  0  0  0
   38.7351    7.6528   32.5689 H   0  0  0  0  0  0  0  0  0  0  0  0
   30.7828   10.0648   29.6847 H   0  0  0  0  0  0  0  0  0  0  0  0
   31.8208   11.4743   29.7822 H   0  0  0  0  0  0  0  0  0  0  0  0
   29.3679   13.6423   24.8599 H   0  0  0  0  0  0  0  0  0  0  0  0
   29.4422   11.9590   25.4173 H   0  0  0  0  0  0  0  0  0  0  0  0
   30.0096   13.2866   26.4466 H   0  0  0  0  0  0  0  0  0  0  0  0
   28.2810   12.6168   20.7374 H   0  0  0  0  0  0  0  0  0  0  0  0
   29.2955   13.0500   19.3494 H   0  0  0  0  0  0  0  0  0  0  0  0
   29.3028   14.0547   20.7972 H   0  0  0  0  0  0  0  0  0  0  0  0
   28.3426   10.3282   20.2163 H   0  0  0  0  0  0  0  0  0  0  0  0
   28.9448    9.8976   21.8286 H   0  0  0  0  0  0  0  0  0  0  0  0
   29.3346    8.8853   20.4402 H   0  0  0  0  0  0  0  0  0  0  0  0
   30.0147   11.0784   18.3930 H   0  0  0  0  0  0  0  0  0  0  0  0
   31.7333   11.2411   18.8025 H   0  0  0  0  0  0  0  0  0  0  0  0
   30.9929    9.6398   18.7010 H   0  0  0  0  0  0  0  0  0  0  0  0
  2  1  1  0
  3  5  2  0
  4  1  1  0
  5  8  1  0
  6  3  1  0
  7  2  1  0
  8  7  2  0
  9 14  1  0
 10  9  2  0
  2 11  1  0
  4 12  1  0
 13  3  1  0
 14  4  1  0
 15  6  1  0
 16  6  2  0
 17 10  1  0
 18  1  1  0
  1 19  1  6
 20 13  1  0
 21 20  1  0
 22 17  1  0
 23  7  1  0
 20 24  1  0
 25 18  1  0
 14 26  1  0
 17 27  1  0
 28 22  1  0
 29 22  1  0
 23 25  1  0
 12 11  1  0
 15 21  1  0
  2 30  1  1
  4 31  1  1
  5 32  1  0
  8 33  1  0
  9 34  1  0
 10 35  1  0
 11 36  1  0
 11 37  1  0
 12 38  1  0
 12 39  1  0
 13 40  1  0
 13 41  1  0
 14 42  1  6
 15 43  1  0
 15 44  1  0
 16 45  1  0
 16 46  1  0
 17 47  1  6
 18 48  1  0
 18 49  1  0
 19 50  1  0
 19 51  1  0
 19 52  1  0
 20 53  1  6
 21 54  1  0
 21 55  1  0
 22 56  1  0
 23 57  1  0
 23 58  1  0
 24 59  1  0
 25 60  1  0
 25 61  1  0
 26 62  1  0
 26 63  1  0
 26 64  1  0
 27 65  1  0
 27 66  1  0
 27 67  1  0
 28 68  1  0
 28 69  1  0
 28 70  1  0
 29 71  1  0
 29 72  1  0
 29 73  1  0
M  END
> <Uni-Dock RESULT> 
ENERGY=   -3.869  LOWER_BOUND=    5.523  UPPER_BOUND=   12.482
INTER + INTRA:          -3.869
INTER:                  -3.869
INTRA:                   0.000
UNBOUND:                 0.000

$$$$

     RDKit          3D

 73 75  0  0  1  0  0  0  0  0999 V2000
   33.7942   13.6589   25.8679 C   0  0  1  0  0  0  0  0  0  0  0  0
   34.1352   13.0386   24.4821 C   0  0  2  0  0  0  0  0  0  0  0  0
   30.9274   13.0044   20.6214 C   0  0  0  0  0  0  0  0  0  0  0  0
   34.6803   12.7621   26.7887 C   0  0  2  0  0  0  0  0  0  0  0  0
   31.8516   13.6315   21.3786 C   0  0  0  0  0  0  0  0  0  0  0  0
   30.4448   11.6424   20.8201 C   0  0  0  0  0  0  0  0  0  0  0  0
   33.3994   13.7221   23.3452 C   0  0  0  0  0  0  0  0  0  0  0  0
   32.5718   13.0698   22.5052 C   0  0  0  0  0  0  0  0  0  0  0  0
   35.3497   11.7525   29.0002 C   0  0  0  0  0  0  0  0  0  0  0  0
   36.4826   12.0217   29.6718 C   0  0  0  0  0  0  0  0  0  0  0  0
   34.0138   11.5366   24.7272 C   0  0  0  0  0  0  0  0  0  0  0  0
   34.5322   11.3459   26.1573 C   0  0  0  0  0  0  0  0  0  0  0  0
   30.3344   13.6888   19.4030 C   0  0  0  0  0  0  0  0  0  0  0  0
   34.4230   12.7528   28.3217 C   0  0  1  0  0  0  0  0  0  0  0  0
   30.5908   10.7084   19.6411 C   0  0  0  0  0  0  0  0  0  0  0  0
   29.8118   11.2665   21.9426 C   0  0  0  0  0  0  0  0  0  0  0  0
   37.3464   10.9601   30.3218 C   0  0  1  0  0  0  0  0  0  0  0  0
   34.2013   15.1484   25.8177 C   0  0  0  0  0  0  0  0  0  0  0  0
   32.2937   13.5278   26.2271 C   0  0  0  0  0  0  0  0  0  0  0  0
   30.0227   12.7280   18.2382 C   0  0  2  0  0  0  0  0  0  0  0  0
   30.8380   11.4385   18.3187 C   0  0  0  0  0  0  0  0  0  0  0  0
   38.7035   10.8048   29.5804 C   0  0  0  0  0  0  0  0  0  0  0  0
   33.7340   15.2029   23.2944 C   0  0  0  0  0  0  0  0  0  0  0  0
   30.2781   13.3693   16.9879 O   0  0  0  0  0  0  0  0  0  0  0  0
   33.5366   15.8942   24.6496 C   0  0  0  0  0  0  0  0  0  0  0  0
   34.5070   14.1444   28.9581 C   0  0  0  0  0  0  0  0  0  0  0  0
   37.4816   11.2688   31.8165 C   0  0  0  0  0  0  0  0  0  0  0  0
   39.6250   12.0247   29.6898 C   0  0  0  0  0  0  0  0  0  0  0  0
   39.4574    9.5542   30.0470 C   0  0  0  0  0  0  0  0  0  0  0  0
   35.2050   13.2149   24.2774 H   0  0  0  0  0  0  0  0  0  0  0  0
   35.7277   13.0675   26.6369 H   0  0  0  0  0  0  0  0  0  0  0  0
   32.1099   14.6508   21.1038 H   0  0  0  0  0  0  0  0  0  0  0  0
   32.4241   12.0025   22.6516 H   0  0  0  0  0  0  0  0  0  0  0  0
   35.0373   10.7117   28.9147 H   0  0  0  0  0  0  0  0  0  0  0  0
   36.8250   13.0494   29.7678 H   0  0  0  0  0  0  0  0  0  0  0  0
   32.9770   11.1875   24.6664 H   0  0  0  0  0  0  0  0  0  0  0  0
   34.5990   10.9555   24.0067 H   0  0  0  0  0  0  0  0  0  0  0  0
   33.8289   10.7173   26.7155 H   0  0  0  0  0  0  0  0  0  0  0  0
   35.4997   10.8308   26.1516 H   0  0  0  0  0  0  0  0  0  0  0  0
   29.4041   14.1932   19.6957 H   0  0  0  0  0  0  0  0  0  0  0  0
   31.0048   14.4847   19.0521 H   0  0  0  0  0  0  0  0  0  0  0  0
   33.4046   12.3869   28.5093 H   0  0  0  0  0  0  0  0  0  0  0  0
   29.6783   10.1062   19.5413 H   0  0  0  0  0  0  0  0  0  0  0  0
   31.4179   10.0115   19.8230 H   0  0  0  0  0  0  0  0  0  0  0  0
   29.4223   10.2608   22.0621 H   0  0  0  0  0  0  0  0  0  0  0  0
   29.6635   11.9541   22.7704 H   0  0  0  0  0  0  0  0  0  0  0  0
   36.8230    9.9964   30.2448 H   0  0  0  0  0  0  0  0  0  0  0  0
   33.9400   15.6660   26.7445 H   0  0  0  0  0  0  0  0  0  0  0  0
   35.2906   15.2326   25.7114 H   0  0  0  0  0  0  0  0  0  0  0  0
   31.6421   13.9459   25.4537 H   0  0  0  0  0  0  0  0  0  0  0  0
   31.9892   12.4858   26.3679 H   0  0  0  0  0  0  0  0  0  0  0  0
   32.0637   14.0574   27.1569 H   0  0  0  0  0  0  0  0  0  0  0  0
   28.9545   12.4801   18.2534 H   0  0  0  0  0  0  0  0  0  0  0  0
   30.5989   10.7819   17.4734 H   0  0  0  0  0  0  0  0  0  0  0  0
   31.9066   11.6702   18.2128 H   0  0  0  0  0  0  0  0  0  0  0  0
   38.4829   10.6603   28.5133 H   0  0  0  0  0  0  0  0  0  0  0  0
   34.7838   15.3064   22.9904 H   0  0  0  0  0  0  0  0  0  0  0  0
   33.1453   15.7458   22.5506 H   0  0  0  0  0  0  0  0  0  0  0  0
   31.2336   13.5458   16.9345 H   0  0  0  0  0  0  0  0  0  0  0  0
   33.9443   16.9110   24.5963 H   0  0  0  0  0  0  0  0  0  0  0  0
   32.4636   16.0063   24.8472 H   0  0  0  0  0  0  0  0  0  0  0  0
   34.5004   14.0829   30.0527 H   0  0  0  0  0  0  0  0  0  0  0  0
   35.4137   14.6771   28.6518 H   0  0  0  0  0  0  0  0  0  0  0  0
   33.6426   14.7548   28.6858 H   0  0  0  0  0  0  0  0  0  0  0  0
   37.9692   12.2330   31.9951 H   0  0  0  0  0  0  0  0  0  0  0  0
   38.0564   10.4948   32.3336 H   0  0  0  0  0  0  0  0  0  0  0  0
   36.4945   11.3099   32.2920 H   0  0  0  0  0  0  0  0  0  0  0  0
   39.9421   12.2023   30.7224 H   0  0  0  0  0  0  0  0  0  0  0  0
   39.1400   12.9319   29.3182 H   0  0  0  0  0  0  0  0  0  0  0  0
   40.5300   11.8734   29.0907 H   0  0  0  0  0  0  0  0  0  0  0  0
   39.7984    9.6463   31.0829 H   0  0  0  0  0  0  0  0  0  0  0  0
   38.8234    8.6646   29.9723 H   0  0  0  0  0  0  0  0  0  0  0  0
   40.3410    9.3837   29.4221 H   0  0  0  0  0  0  0  0  0  0  0  0
  2  1  1  0
  3  5  2  0
  4  1  1  0
  5  8  1  0
  6  3  1  0
  7  2  1  0
  8  7  2  0
  9 14  1  0
 10  9  2  0
  2 11  1  0
  4 12  1  0
 13  3  1  0
 14  4  1  0
 15  6  1  0
 16  6  2  0
 17 10  1  0
 18  1  1  0
  1 19  1  6
 20 13  1  0
 21 20  1  0
 22 17  1  0
 23  7  1  0
 20 24  1  0
 25 18  1  0
 14 26  1  0
 17 27  1  0
 28 22  1  0
 29 22  1  0
 23 25  1  0
 12 11  1  0
 15 21  1  0
  2 30  1  1
  4 31  1  1
  5 32  1  0
  8 33  1  0
  9 34  1  0
 10 35  1  0
 11 36  1  0
 11 37  1  0
 12 38  1  0
 12 39  1  0
 13 40  1  0
 13 41  1  0
 14 42  1  6
 15 43  1  0
 15 44  1  0
 16 45  1  0
 16 46  1  0
 17 47  1  6
 18 48  1  0
 18 49  1  0
 19 50  1  0
 19 51  1  0
 19 52  1  0
 20 53  1  6
 21 54  1  0
 21 55  1  0
 22 56  1  0
 23 57  1  0
 23 58  1  0
 24 59  1  0
 25 60  1  0
 25 61  1  0
 26 62  1  0
 26 63  1  0
 26 64  1  0
 27 65  1  0
 27 66  1  0
 27 67  1  0
 28 68  1  0
 28 69  1  0
 28 70  1  0
 29 71  1  0
 29 72  1  0
 29 73  1  0
M  END
> <Uni-Dock RESULT> 
ENERGY=   -3.764  LOWER_BOUND=    4.255  UPPER_BOUND=    7.502
INTER + INTRA:          -3.764
INTER:                  -3.764
INTRA:                   0.000
UNBOUND:                 0.000

$$$$
