
     RDKit          3D

 73 75  0  0  1  0  0  0  0  0999 V2000
   31.4030    9.3543   29.7868 C   0  0  1  0  0  0  0  0  0  0  0  0
   30.7076    8.3469   28.8292 C   0  0  2  0  0  0  0  0  0  0  0  0
   28.6369    3.9760   30.1458 C   0  0  0  0  0  0  0  0  0  0  0  0
   32.3820   10.0204   28.7762 C   0  0  2  0  0  0  0  0  0  0  0  0
   28.6840    5.3222   30.2177 C   0  0  0  0  0  0  0  0  0  0  0  0
   29.5133    3.1213   29.3462 C   0  0  0  0  0  0  0  0  0  0  0  0
   29.6394    7.5355   29.5357 C   0  0  0  0  0  0  0  0  0  0  0  0
   29.6455    6.1884   29.5640 C   0  0  0  0  0  0  0  0  0  0  0  0
   34.5236   10.4846   30.1879 C   0  0  0  0  0  0  0  0  0  0  0  0
   35.7543   10.0674   29.8435 C   0  0  0  0  0  0  0  0  0  0  0  0
   31.8881    7.6959   28.0999 C   0  0  0  0  0  0  0  0  0  0  0  0
   32.9160    8.8313   27.9407 C   0  0  0  0  0  0  0  0  0  0  0  0
   27.6400    3.1854   30.9682 C   0  0  0  0  0  0  0  0  0  0  0  0
   33.4471   11.0321   29.2743 C   0  0  1  0  0  0  0  0  0  0  0  0
   30.2189    2.0372   30.1256 C   0  0  0  0  0  0  0  0  0  0  0  0
   29.6233    3.2395   28.0138 C   0  0  0  0  0  0  0  0  0  0  0  0
   36.7890    9.5894   30.8437 C   0  0  1  0  0  0  0  0  0  0  0  0
   30.3327   10.3141   30.3432 C   0  0  0  0  0  0  0  0  0  0  0  0
   32.1174    8.6406   30.9589 C   0  0  0  0  0  0  0  0  0  0  0  0
   28.3284    2.0924   31.7993 C   0  0  2  0  0  0  0  0  0  0  0  0
   29.2236    1.2036   30.9312 C   0  0  0  0  0  0  0  0  0  0  0  0
   37.2305    8.1251   30.5616 C   0  0  0  0  0  0  0  0  0  0  0  0
   28.5864    8.4419   30.1555 C   0  0  0  0  0  0  0  0  0  0  0  0
   27.3503    1.2836   32.4521 O   0  0  0  0  0  0  0  0  0  0  0  0
   29.1897    9.5515   31.0323 C   0  0  0  0  0  0  0  0  0  0  0  0
   34.0392   11.7990   28.0777 C   0  0  0  0  0  0  0  0  0  0  0  0
   37.9648   10.5736   30.8130 C   0  0  0  0  0  0  0  0  0  0  0  0
   38.3215    7.6541   31.5314 C   0  0  0  0  0  0  0  0  0  0  0  0
   36.0485    7.1493   30.6438 C   0  0  0  0  0  0  0  0  0  0  0  0
   30.1632    8.9154   28.0558 H   0  0  0  0  0  0  0  0  0  0  0  0
   31.7459   10.6001   28.0866 H   0  0  0  0  0  0  0  0  0  0  0  0
   27.9534    5.8115   30.8554 H   0  0  0  0  0  0  0  0  0  0  0  0
   30.4583    5.6689   29.0625 H   0  0  0  0  0  0  0  0  0  0  0  0
   34.2672   10.4827   31.2461 H   0  0  0  0  0  0  0  0  0  0  0  0
   36.0596   10.0649   28.7995 H   0  0  0  0  0  0  0  0  0  0  0  0
   32.3337    6.8801   28.6799 H   0  0  0  0  0  0  0  0  0  0  0  0
   31.5903    7.2856   27.1293 H   0  0  0  0  0  0  0  0  0  0  0  0
   33.8980    8.4856   28.2735 H   0  0  0  0  0  0  0  0  0  0  0  0
   33.0131    9.1194   26.8880 H   0  0  0  0  0  0  0  0  0  0  0  0
   26.8968    2.7313   30.2981 H   0  0  0  0  0  0  0  0  0  0  0  0
   27.0631    3.8321   31.6419 H   0  0  0  0  0  0  0  0  0  0  0  0
   32.9154   11.7887   29.8681 H   0  0  0  0  0  0  0  0  0  0  0  0
   30.9481    2.5003   30.8027 H   0  0  0  0  0  0  0  0  0  0  0  0
   30.7857    1.3750   29.4600 H   0  0  0  0  0  0  0  0  0  0  0  0
   30.2581    2.5760   27.4351 H   0  0  0  0  0  0  0  0  0  0  0  0
   29.0782    4.0019   27.4641 H   0  0  0  0  0  0  0  0  0  0  0  0
   36.3586    9.6275   31.8541 H   0  0  0  0  0  0  0  0  0  0  0  0
   29.9076   10.9154   29.5290 H   0  0  0  0  0  0  0  0  0  0  0  0
   30.7795   11.0227   31.0504 H   0  0  0  0  0  0  0  0  0  0  0  0
   32.4352    9.3596   31.7201 H   0  0  0  0  0  0  0  0  0  0  0  0
   31.4666    7.9247   31.4707 H   0  0  0  0  0  0  0  0  0  0  0  0
   32.9982    8.0806   30.6339 H   0  0  0  0  0  0  0  0  0  0  0  0
   28.9351    2.5598   32.5845 H   0  0  0  0  0  0  0  0  0  0  0  0
   29.7575    0.4846   31.5644 H   0  0  0  0  0  0  0  0  0  0  0  0
   28.6036    0.6008   30.2539 H   0  0  0  0  0  0  0  0  0  0  0  0
   37.6418    8.0647   29.5452 H   0  0  0  0  0  0  0  0  0  0  0  0
   28.0204    8.9086   29.3384 H   0  0  0  0  0  0  0  0  0  0  0  0
   27.8549    7.8942   30.7549 H   0  0  0  0  0  0  0  0  0  0  0  0
   26.8110    0.8549   31.7652 H   0  0  0  0  0  0  0  0  0  0  0  0
   29.5494    9.1165   31.9726 H   0  0  0  0  0  0  0  0  0  0  0  0
   28.4001   10.2612   31.3068 H   0  0  0  0  0  0  0  0  0  0  0  0
   34.7616   12.5527   28.4113 H   0  0  0  0  0  0  0  0  0  0  0  0
   34.5437   11.1334   27.3692 H   0  0  0  0  0  0  0  0  0  0  0  0
   33.2495   12.3258   27.5296 H   0  0  0  0  0  0  0  0  0  0  0  0
   37.6176   11.6093   30.9067 H   0  0  0  0  0  0  0  0  0  0  0  0
   38.6527   10.3944   31.6447 H   0  0  0  0  0  0  0  0  0  0  0  0
   38.5303   10.4914   29.8780 H   0  0  0  0  0  0  0  0  0  0  0  0
   39.2496    8.2175   31.3941 H   0  0  0  0  0  0  0  0  0  0  0  0
   38.0012    7.7662   32.5725 H   0  0  0  0  0  0  0  0  0  0  0  0
   38.5640    6.5985   31.3639 H   0  0  0  0  0  0  0  0  0  0  0  0
   35.3063    7.3542   29.8679 H   0  0  0  0  0  0  0  0  0  0  0  0
   35.5521    7.2091   31.6183 H   0  0  0  0  0  0  0  0  0  0  0  0
   36.3843    6.1168   30.4992 H   0  0  0  0  0  0  0  0  0  0  0  0
  2  1  1  0
  3  5  2  0
  4  1  1  0
  5  8  1  0
  6  3  1  0
  7  2  1  0
  8  7  2  0
  9 14  1  0
 10  9  2  0
  2 11  1  0
  4 12  1  0
 13  3  1  0
 14  4  1  0
 15  6  1  0
 16  6  2  0
 17 10  1  0
 18  1  1  0
  1 19  1  1
 20 13  1  0
 21 20  1  0
 22 17  1  0
 23  7  1  0
 20 24  1  0
 25 18  1  0
 14 26  1  0
 17 27  1  0
 28 22  1  0
 29 22  1  0
 23 25  1  0
 12 11  1  0
 15 21  1  0
  2 30  1  1
  4 31  1  1
  5 32  1  0
  8 33  1  0
  9 34  1  0
 10 35  1  0
 11 36  1  0
 11 37  1  0
 12 38  1  0
 12 39  1  0
 13 40  1  0
 13 41  1  0
 14 42  1  1
 15 43  1  0
 15 44  1  0
 16 45  1  0
 16 46  1  0
 17 47  1  1
 18 48  1  0
 18 49  1  0
 19 50  1  0
 19 51  1  0
 19 52  1  0
 20 53  1  1
 21 54  1  0
 21 55  1  0
 22 56  1  0
 23 57  1  0
 23 58  1  0
 24 59  1  0
 25 60  1  0
 25 61  1  0
 26 62  1  0
 26 63  1  0
 26 64  1  0
 27 65  1  0
 27 66  1  0
 27 67  1  0
 28 68  1  0
 28 69  1  0
 28 70  1  0
 29 71  1  0
 29 72  1  0
 29 73  1  0
M  END
> <Uni-Dock RESULT> 
ENERGY=   -4.049  LOWER_BOUND=    0.000  UPPER_BOUND=    0.000
INTER + INTRA:          -4.049
INTER:                  -4.049
INTRA:                   0.000
UNBOUND:                 0.000

$$$$

     RDKit          3D

 73 75  0  0  1  0  0  0  0  0999 V2000
   31.4028    9.3542   29.7870 C   0  0  1  0  0  0  0  0  0  0  0  0
   30.7074    8.3468   28.8294 C   0  0  2  0  0  0  0  0  0  0  0  0
   28.6369    3.9759   30.1459 C   0  0  0  0  0  0  0  0  0  0  0  0
   32.3817   10.0205   28.7764 C   0  0  2  0  0  0  0  0  0  0  0  0
   28.6840    5.3220   30.2179 C   0  0  0  0  0  0  0  0  0  0  0  0
   29.5133    3.1212   29.3463 C   0  0  0  0  0  0  0  0  0  0  0  0
   29.6392    7.5354   29.5359 C   0  0  0  0  0  0  0  0  0  0  0  0
   29.6454    6.1883   29.5642 C   0  0  0  0  0  0  0  0  0  0  0  0
   34.5234   10.4846   30.1881 C   0  0  0  0  0  0  0  0  0  0  0  0
   35.7540   10.0676   29.8435 C   0  0  0  0  0  0  0  0  0  0  0  0
   31.8879    7.6960   28.1000 C   0  0  0  0  0  0  0  0  0  0  0  0
   32.9157    8.8314   27.9408 C   0  0  0  0  0  0  0  0  0  0  0  0
   27.6401    3.1852   30.9683 C   0  0  0  0  0  0  0  0  0  0  0  0
   33.4468   11.0322   29.2745 C   0  0  1  0  0  0  0  0  0  0  0  0
   30.2190    2.0371   30.1256 C   0  0  0  0  0  0  0  0  0  0  0  0
   29.6233    3.2395   28.0139 C   0  0  0  0  0  0  0  0  0  0  0  0
   36.7888    9.5896   30.8437 C   0  0  1  0  0  0  0  0  0  0  0  0
   30.3324   10.3140   30.3435 C   0  0  0  0  0  0  0  0  0  0  0  0
   32.1173    8.6406   30.9591 C   0  0  0  0  0  0  0  0  0  0  0  0
   28.3286    2.0922   31.7994 C   0  0  2  0  0  0  0  0  0  0  0  0
   29.2238    1.2034   30.9312 C   0  0  0  0  0  0  0  0  0  0  0  0
   37.2304    8.1253   30.5615 C   0  0  0  0  0  0  0  0  0  0  0  0
   28.5863    8.4417   30.1558 C   0  0  0  0  0  0  0  0  0  0  0  0
   27.3505    1.2833   32.4522 O   0  0  0  0  0  0  0  0  0  0  0  0
   29.1895    9.5513   31.0326 C   0  0  0  0  0  0  0  0  0  0  0  0
   34.0388   11.7991   28.0779 C   0  0  0  0  0  0  0  0  0  0  0  0
   37.9646   10.5738   30.8129 C   0  0  0  0  0  0  0  0  0  0  0  0
   38.3215    7.6543   31.5312 C   0  0  0  0  0  0  0  0  0  0  0  0
   36.0484    7.1494   30.6437 C   0  0  0  0  0  0  0  0  0  0  0  0
   30.1629    8.9154   28.0561 H   0  0  0  0  0  0  0  0  0  0  0  0
   31.7456   10.6001   28.0868 H   0  0  0  0  0  0  0  0  0  0  0  0
   27.9534    5.8113   30.8556 H   0  0  0  0  0  0  0  0  0  0  0  0
   30.4582    5.6689   29.0626 H   0  0  0  0  0  0  0  0  0  0  0  0
   34.2670   10.4828   31.2462 H   0  0  0  0  0  0  0  0  0  0  0  0
   36.0593   10.0651   28.7995 H   0  0  0  0  0  0  0  0  0  0  0  0
   32.3336    6.8801   28.6799 H   0  0  0  0  0  0  0  0  0  0  0  0
   31.5901    7.2856   27.1294 H   0  0  0  0  0  0  0  0  0  0  0  0
   33.8978    8.4857   28.2735 H   0  0  0  0  0  0  0  0  0  0  0  0
   33.0128    9.1195   26.8881 H   0  0  0  0  0  0  0  0  0  0  0  0
   26.8969    2.7310   30.2983 H   0  0  0  0  0  0  0  0  0  0  0  0
   27.0632    3.8318   31.6421 H   0  0  0  0  0  0  0  0  0  0  0  0
   32.9151   11.7887   29.8684 H   0  0  0  0  0  0  0  0  0  0  0  0
   30.9482    2.5002   30.8027 H   0  0  0  0  0  0  0  0  0  0  0  0
   30.7858    1.3750   29.4600 H   0  0  0  0  0  0  0  0  0  0  0  0
   30.2580    2.5759   27.4352 H   0  0  0  0  0  0  0  0  0  0  0  0
   29.0781    4.0018   27.4642 H   0  0  0  0  0  0  0  0  0  0  0  0
   36.3584    9.6275   31.8541 H   0  0  0  0  0  0  0  0  0  0  0  0
   29.9073   10.9153   29.5294 H   0  0  0  0  0  0  0  0  0  0  0  0
   30.7792   11.0226   31.0507 H   0  0  0  0  0  0  0  0  0  0  0  0
   32.4350    9.3595   31.7203 H   0  0  0  0  0  0  0  0  0  0  0  0
   31.4665    7.9246   31.4709 H   0  0  0  0  0  0  0  0  0  0  0  0
   32.9981    8.0806   30.6340 H   0  0  0  0  0  0  0  0  0  0  0  0
   28.9353    2.5595   32.5846 H   0  0  0  0  0  0  0  0  0  0  0  0
   29.7577    0.4844   31.5644 H   0  0  0  0  0  0  0  0  0  0  0  0
   28.6037    0.6006   30.2539 H   0  0  0  0  0  0  0  0  0  0  0  0
   37.6417    8.0649   29.5451 H   0  0  0  0  0  0  0  0  0  0  0  0
   28.0202    8.9085   29.3388 H   0  0  0  0  0  0  0  0  0  0  0  0
   27.8548    7.8940   30.7553 H   0  0  0  0  0  0  0  0  0  0  0  0
   26.8112    0.8545   31.7653 H   0  0  0  0  0  0  0  0  0  0  0  0
   29.5493    9.1163   31.9729 H   0  0  0  0  0  0  0  0  0  0  0  0
   28.4000   10.2610   31.3072 H   0  0  0  0  0  0  0  0  0  0  0  0
   34.7612   12.5529   28.4114 H   0  0  0  0  0  0  0  0  0  0  0  0
   34.5433   11.1336   27.3694 H   0  0  0  0  0  0  0  0  0  0  0  0
   33.2490   12.3259   27.5299 H   0  0  0  0  0  0  0  0  0  0  0  0
   37.6174   11.6094   30.9067 H   0  0  0  0  0  0  0  0  0  0  0  0
   38.6526   10.3946   31.6447 H   0  0  0  0  0  0  0  0  0  0  0  0
   38.5301   10.4917   29.8780 H   0  0  0  0  0  0  0  0  0  0  0  0
   39.2495    8.2178   31.3940 H   0  0  0  0  0  0  0  0  0  0  0  0
   38.0012    7.7663   32.5724 H   0  0  0  0  0  0  0  0  0  0  0  0
   38.5640    6.5987   31.3636 H   0  0  0  0  0  0  0  0  0  0  0  0
   35.3062    7.3543   29.8679 H   0  0  0  0  0  0  0  0  0  0  0  0
   35.5520    7.2091   31.6182 H   0  0  0  0  0  0  0  0  0  0  0  0
   36.3842    6.1169   30.4990 H   0  0  0  0  0  0  0  0  0  0  0  0
  2  1  1  0
  3  5  2  0
  4  1  1  0
  5  8  1  0
  6  3  1  0
  7  2  1  0
  8  7  2  0
  9 14  1  0
 10  9  2  0
  2 11  1  0
  4 12  1  0
 13  3  1  0
 14  4  1  0
 15  6  1  0
 16  6  2  0
 17 10  1  0
 18  1  1  0
  1 19  1  1
 20 13  1  0
 21 20  1  0
 22 17  1  0
 23  7  1  0
 20 24  1  0
 25 18  1  0
 14 26  1  0
 17 27  1  0
 28 22  1  0
 29 22  1  0
 23 25  1  0
 12 11  1  0
 15 21  1  0
  2 30  1  1
  4 31  1  1
  5 32  1  0
  8 33  1  0
  9 34  1  0
 10 35  1  0
 11 36  1  0
 11 37  1  0
 12 38  1  0
 12 39  1  0
 13 40  1  0
 13 41  1  0
 14 42  1  1
 15 43  1  0
 15 44  1  0
 16 45  1  0
 16 46  1  0
 17 47  1  1
 18 48  1  0
 18 49  1  0
 19 50  1  0
 19 51  1  0
 19 52  1  0
 20 53  1  1
 21 54  1  0
 21 55  1  0
 22 56  1  0
 23 57  1  0
 23 58  1  0
 24 59  1  0
 25 60  1  0
 25 61  1  0
 26 62  1  0
 26 63  1  0
 26 64  1  0
 27 65  1  0
 27 66  1  0
 27 67  1  0
 28 68  1  0
 28 69  1  0
 28 70  1  0
 29 71  1  0
 29 72  1  0
 29 73  1  0
M  END
> <Uni-Dock RESULT> 
ENERGY=   -4.048  LOWER_BOUND=    0.000  UPPER_BOUND=    0.000
INTER + INTRA:          -4.048
INTER:                  -4.048
INTRA:                   0.000
UNBOUND:                 0.000

$$$$

     RDKit          3D

 73 75  0  0  1  0  0  0  0  0999 V2000
   23.0972    5.1648   31.8631 C   0  0  1  0  0  0  0  0  0  0  0  0
   23.5257    6.6162   32.2171 C   0  0  2  0  0  0  0  0  0  0  0  0
   25.5952    9.9287   29.0754 C   0  0  0  0  0  0  0  0  0  0  0  0
   23.2450    4.5135   33.2693 C   0  0  2  0  0  0  0  0  0  0  0  0
   24.5620    9.1410   29.4380 C   0  0  0  0  0  0  0  0  0  0  0  0
   26.8600   10.0812   29.7929 C   0  0  0  0  0  0  0  0  0  0  0  0
   23.4577    7.5382   31.0155 C   0  0  0  0  0  0  0  0  0  0  0  0
   24.5176    8.2455   30.5774 C   0  0  0  0  0  0  0  0  0  0  0  0
   24.1021    2.1050   32.7601 C   0  0  0  0  0  0  0  0  0  0  0  0
   25.2103    1.5724   33.3037 C   0  0  0  0  0  0  0  0  0  0  0  0
   24.8128    6.4072   33.0226 C   0  0  0  0  0  0  0  0  0  0  0  0
   24.5643    5.1114   33.8165 C   0  0  0  0  0  0  0  0  0  0  0  0
   25.5469   10.7388   27.7961 C   0  0  0  0  0  0  0  0  0  0  0  0
   23.0718    2.9817   33.4409 C   0  0  1  0  0  0  0  0  0  0  0  0
   28.0926    9.8206   28.9602 C   0  0  0  0  0  0  0  0  0  0  0  0
   26.9254   10.4952   31.0680 C   0  0  0  0  0  0  0  0  0  0  0  0
   26.1543    0.6528   32.5536 C   0  0  1  0  0  0  0  0  0  0  0  0
   21.6470    5.1997   31.3413 C   0  0  0  0  0  0  0  0  0  0  0  0
   24.0176    4.5342   30.7912 C   0  0  0  0  0  0  0  0  0  0  0  0
   26.7724   10.4739   26.9088 C   0  0  2  0  0  0  0  0  0  0  0  0
   28.0803   10.6596   27.6834 C   0  0  0  0  0  0  0  0  0  0  0  0
   27.5952    1.2343   32.4879 C   0  0  0  0  0  0  0  0  0  0  0  0
   22.0559    7.5626   30.4250 C   0  0  0  0  0  0  0  0  0  0  0  0
   26.7615   11.3510   25.7829 O   0  0  0  0  0  0  0  0  0  0  0  0
   21.4960    6.1576   30.1486 C   0  0  0  0  0  0  0  0  0  0  0  0
   22.9151    2.6375   34.9334 C   0  0  0  0  0  0  0  0  0  0  0  0
   26.1068   -0.7239   33.2279 C   0  0  0  0  0  0  0  0  0  0  0  0
   28.5705    0.2824   31.7841 C   0  0  0  0  0  0  0  0  0  0  0  0
   27.6288    2.5895   31.7678 C   0  0  0  0  0  0  0  0  0  0  0  0
   22.7968    7.0333   32.9329 H   0  0  0  0  0  0  0  0  0  0  0  0
   22.4453    4.9567   33.8860 H   0  0  0  0  0  0  0  0  0  0  0  0
   23.6849    9.1459   28.7973 H   0  0  0  0  0  0  0  0  0  0  0  0
   25.4597    8.1397   31.1096 H   0  0  0  0  0  0  0  0  0  0  0  0
   23.8738    1.8505   31.7263 H   0  0  0  0  0  0  0  0  0  0  0  0
   25.4710    1.7876   34.3375 H   0  0  0  0  0  0  0  0  0  0  0  0
   25.6883    6.2762   32.3769 H   0  0  0  0  0  0  0  0  0  0  0  0
   25.0179    7.2522   33.6882 H   0  0  0  0  0  0  0  0  0  0  0  0
   25.4174    4.4388   33.6960 H   0  0  0  0  0  0  0  0  0  0  0  0
   24.4693    5.3265   34.8867 H   0  0  0  0  0  0  0  0  0  0  0  0
   25.4920   11.8075   28.0459 H   0  0  0  0  0  0  0  0  0  0  0  0
   24.6383   10.5316   27.2162 H   0  0  0  0  0  0  0  0  0  0  0  0
   22.1102    2.7158   32.9802 H   0  0  0  0  0  0  0  0  0  0  0  0
   28.1315    8.7543   28.7028 H   0  0  0  0  0  0  0  0  0  0  0  0
   29.0067   10.0401   29.5251 H   0  0  0  0  0  0  0  0  0  0  0  0
   27.8765   10.6294   31.5736 H   0  0  0  0  0  0  0  0  0  0  0  0
   26.0287   10.7151   31.6407 H   0  0  0  0  0  0  0  0  0  0  0  0
   25.7909    0.5242   31.5245 H   0  0  0  0  0  0  0  0  0  0  0  0
   20.9686    5.5289   32.1391 H   0  0  0  0  0  0  0  0  0  0  0  0
   21.3173    4.1957   31.0496 H   0  0  0  0  0  0  0  0  0  0  0  0
   23.5967    3.5965   30.4160 H   0  0  0  0  0  0  0  0  0  0  0  0
   24.1447    5.1809   29.9174 H   0  0  0  0  0  0  0  0  0  0  0  0
   25.0214    4.3264   31.1710 H   0  0  0  0  0  0  0  0  0  0  0  0
   26.7253    9.4497   26.5189 H   0  0  0  0  0  0  0  0  0  0  0  0
   28.9304   10.3898   27.0451 H   0  0  0  0  0  0  0  0  0  0  0  0
   28.2183   11.7211   27.9300 H   0  0  0  0  0  0  0  0  0  0  0  0
   27.9648    1.3914   33.5100 H   0  0  0  0  0  0  0  0  0  0  0  0
   21.3967    8.0684   31.1428 H   0  0  0  0  0  0  0  0  0  0  0  0
   21.9953    8.1412   29.4998 H   0  0  0  0  0  0  0  0  0  0  0  0
   26.8132   12.2639   26.1154 H   0  0  0  0  0  0  0  0  0  0  0  0
   21.9950    5.7341   29.2686 H   0  0  0  0  0  0  0  0  0  0  0  0
   20.4342    6.2393   29.8873 H   0  0  0  0  0  0  0  0  0  0  0  0
   22.7449    1.5640   35.0743 H   0  0  0  0  0  0  0  0  0  0  0  0
   23.7964    2.9224   35.5178 H   0  0  0  0  0  0  0  0  0  0  0  0
   22.0528    3.1622   35.3606 H   0  0  0  0  0  0  0  0  0  0  0  0
   25.0734   -1.0654   33.3599 H   0  0  0  0  0  0  0  0  0  0  0  0
   26.6142   -1.4796   32.6208 H   0  0  0  0  0  0  0  0  0  0  0  0
   26.5828   -0.7021   34.2146 H   0  0  0  0  0  0  0  0  0  0  0  0
   28.7082   -0.6422   32.3530 H   0  0  0  0  0  0  0  0  0  0  0  0
   28.2146    0.0206   30.7821 H   0  0  0  0  0  0  0  0  0  0  0  0
   29.5601    0.7422   31.6821 H   0  0  0  0  0  0  0  0  0  0  0  0
   27.0640    3.3478   32.3163 H   0  0  0  0  0  0  0  0  0  0  0  0
   27.2102    2.5126   30.7586 H   0  0  0  0  0  0  0  0  0  0  0  0
   28.6562    2.9589   31.6795 H   0  0  0  0  0  0  0  0  0  0  0  0
  2  1  1  0
  3  5  2  0
  4  1  1  0
  5  8  1  0
  6  3  1  0
  7  2  1  0
  8  7  2  0
  9 14  1  0
 10  9  2  0
  2 11  1  0
  4 12  1  0
 13  3  1  0
 14  4  1  0
 15  6  1  0
 16  6  2  0
 17 10  1  0
 18  1  1  0
  1 19  1  1
 20 13  1  0
 21 20  1  0
 22 17  1  0
 23  7  1  0
 20 24  1  0
 25 18  1  0
 14 26  1  0
 17 27  1  0
 28 22  1  0
 29 22  1  0
 23 25  1  0
 12 11  1  0
 15 21  1  0
  2 30  1  1
  4 31  1  1
  5 32  1  0
  8 33  1  0
  9 34  1  0
 10 35  1  0
 11 36  1  0
 11 37  1  0
 12 38  1  0
 12 39  1  0
 13 40  1  0
 13 41  1  0
 14 42  1  1
 15 43  1  0
 15 44  1  0
 16 45  1  0
 16 46  1  0
 17 47  1  1
 18 48  1  0
 18 49  1  0
 19 50  1  0
 19 51  1  0
 19 52  1  0
 20 53  1  1
 21 54  1  0
 21 55  1  0
 22 56  1  0
 23 57  1  0
 23 58  1  0
 24 59  1  0
 25 60  1  0
 25 61  1  0
 26 62  1  0
 26 63  1  0
 26 64  1  0
 27 65  1  0
 27 66  1  0
 27 67  1  0
 28 68  1  0
 28 69  1  0
 28 70  1  0
 29 71  1  0
 29 72  1  0
 29 73  1  0
M  END
> <Uni-Dock RESULT> 
ENERGY=   -3.842  LOWER_BOUND=    5.808  UPPER_BOUND=   10.543
INTER + INTRA:          -3.842
INTER:                  -3.842
INTRA:                   0.000
UNBOUND:                 0.000

$$$$

     RDKit          3D

 73 75  0  0  1  0  0  0  0  0999 V2000
   23.1257    5.1783   31.8608 C   0  0  1  0  0  0  0  0  0  0  0  0
   23.5562    6.6297   32.2124 C   0  0  2  0  0  0  0  0  0  0  0  0
   25.6198    9.9378   29.0622 C   0  0  0  0  0  0  0  0  0  0  0  0
   23.2767    4.5282   33.2672 C   0  0  2  0  0  0  0  0  0  0  0  0
   24.5869    9.1512   29.4282 C   0  0  0  0  0  0  0  0  0  0  0  0
   26.8867   10.0899   29.7761 C   0  0  0  0  0  0  0  0  0  0  0  0
   23.4857    7.5506   31.0101 C   0  0  0  0  0  0  0  0  0  0  0  0
   24.5450    8.2568   30.5686 C   0  0  0  0  0  0  0  0  0  0  0  0
   24.1306    2.1186   32.7579 C   0  0  0  0  0  0  0  0  0  0  0  0
   25.2399    1.5856   33.2990 C   0  0  0  0  0  0  0  0  0  0  0  0
   24.8453    6.4204   33.0146 C   0  0  0  0  0  0  0  0  0  0  0  0
   24.5980    5.1255   33.8103 C   0  0  0  0  0  0  0  0  0  0  0  0
   25.5687   10.7468   27.7822 C   0  0  0  0  0  0  0  0  0  0  0  0
   23.1029    2.9966   33.4407 C   0  0  1  0  0  0  0  0  0  0  0  0
   28.1168    9.8276   28.9404 C   0  0  0  0  0  0  0  0  0  0  0  0
   26.9558   10.5051   31.0506 C   0  0  0  0  0  0  0  0  0  0  0  0
   26.1811    0.6646   32.5473 C   0  0  1  0  0  0  0  0  0  0  0  0
   21.6741    5.2139   31.3429 C   0  0  0  0  0  0  0  0  0  0  0  0
   24.0427    4.5461   30.7871 C   0  0  0  0  0  0  0  0  0  0  0  0
   26.7916   10.4801   26.8919 C   0  0  2  0  0  0  0  0  0  0  0  0
   28.1017   10.6655   27.6628 C   0  0  0  0  0  0  0  0  0  0  0  0
   27.6223    1.2450   32.4772 C   0  0  0  0  0  0  0  0  0  0  0  0
   22.0823    7.5755   30.4234 C   0  0  0  0  0  0  0  0  0  0  0  0
   26.7783   11.3562   25.7652 O   0  0  0  0  0  0  0  0  0  0  0  0
   21.5206    6.1707   30.1498 C   0  0  0  0  0  0  0  0  0  0  0  0
   22.9499    2.6539   34.9339 C   0  0  0  0  0  0  0  0  0  0  0  0
   26.1344   -0.7115   33.2229 C   0  0  0  0  0  0  0  0  0  0  0  0
   28.5950    0.2917   31.7716 C   0  0  0  0  0  0  0  0  0  0  0  0
   27.6550    2.5994   31.7557 C   0  0  0  0  0  0  0  0  0  0  0  0
   22.8295    7.0480   32.9298 H   0  0  0  0  0  0  0  0  0  0  0  0
   22.4790    4.9725   33.8857 H   0  0  0  0  0  0  0  0  0  0  0  0
   23.7081    9.1561   28.7899 H   0  0  0  0  0  0  0  0  0  0  0  0
   25.4884    8.1507   31.0983 H   0  0  0  0  0  0  0  0  0  0  0  0
   23.8994    1.8633   31.7250 H   0  0  0  0  0  0  0  0  0  0  0  0
   25.5035    1.8015   34.3319 H   0  0  0  0  0  0  0  0  0  0  0  0
   25.7190    6.2882   32.3667 H   0  0  0  0  0  0  0  0  0  0  0  0
   25.0528    7.2658   33.6789 H   0  0  0  0  0  0  0  0  0  0  0  0
   25.4502    4.4522   33.6882 H   0  0  0  0  0  0  0  0  0  0  0  0
   24.5060    5.3417   34.8806 H   0  0  0  0  0  0  0  0  0  0  0  0
   25.5152   11.8157   28.0312 H   0  0  0  0  0  0  0  0  0  0  0  0
   24.6583   10.5397   27.2050 H   0  0  0  0  0  0  0  0  0  0  0  0
   22.1398    2.7310   32.9829 H   0  0  0  0  0  0  0  0  0  0  0  0
   28.1542    8.7611   28.6838 H   0  0  0  0  0  0  0  0  0  0  0  0
   29.0325   10.0470   29.5026 H   0  0  0  0  0  0  0  0  0  0  0  0
   27.9083   10.6390   31.5535 H   0  0  0  0  0  0  0  0  0  0  0  0
   26.0608   10.7261   31.6256 H   0  0  0  0  0  0  0  0  0  0  0  0
   25.8149    0.5353   31.5192 H   0  0  0  0  0  0  0  0  0  0  0  0
   20.9981    5.5443   32.1423 H   0  0  0  0  0  0  0  0  0  0  0  0
   21.3428    4.2099   31.0530 H   0  0  0  0  0  0  0  0  0  0  0  0
   23.6200    3.6083   30.4138 H   0  0  0  0  0  0  0  0  0  0  0  0
   24.1679    5.1918   29.9123 H   0  0  0  0  0  0  0  0  0  0  0  0
   25.0474    4.3378   31.1643 H   0  0  0  0  0  0  0  0  0  0  0  0
   26.7426    9.4556   26.5030 H   0  0  0  0  0  0  0  0  0  0  0  0
   28.9499   10.3945   27.0225 H   0  0  0  0  0  0  0  0  0  0  0  0
   28.2411   11.7271   27.9081 H   0  0  0  0  0  0  0  0  0  0  0  0
   27.9948    1.4027   33.4981 H   0  0  0  0  0  0  0  0  0  0  0  0
   21.4254    8.0825   31.1425 H   0  0  0  0  0  0  0  0  0  0  0  0
   22.0197    8.1534   29.4978 H   0  0  0  0  0  0  0  0  0  0  0  0
   26.8316   12.2693   26.0968 H   0  0  0  0  0  0  0  0  0  0  0  0
   22.0169    5.7460   29.2688 H   0  0  0  0  0  0  0  0  0  0  0  0
   20.4581    6.2530   29.8912 H   0  0  0  0  0  0  0  0  0  0  0  0
   22.7793    1.5806   35.0763 H   0  0  0  0  0  0  0  0  0  0  0  0
   23.8330    2.9387   35.5157 H   0  0  0  0  0  0  0  0  0  0  0  0
   22.0891    3.1797   35.3629 H   0  0  0  0  0  0  0  0  0  0  0  0
   25.1011   -1.0520   33.3580 H   0  0  0  0  0  0  0  0  0  0  0  0
   26.6397   -1.4681   32.6152 H   0  0  0  0  0  0  0  0  0  0  0  0
   26.6131   -0.6892   34.2083 H   0  0  0  0  0  0  0  0  0  0  0  0
   28.7336   -0.6326   32.3410 H   0  0  0  0  0  0  0  0  0  0  0  0
   28.2362    0.0292   30.7708 H   0  0  0  0  0  0  0  0  0  0  0  0
   29.5847    0.7506   31.6666 H   0  0  0  0  0  0  0  0  0  0  0  0
   27.0923    3.3586   32.3050 H   0  0  0  0  0  0  0  0  0  0  0  0
   27.2337    2.5220   30.7477 H   0  0  0  0  0  0  0  0  0  0  0  0
   28.6824    2.9680   31.6644 H   0  0  0  0  0  0  0  0  0  0  0  0
  2  1  1  0
  3  5  2  0
  4  1  1  0
  5  8  1  0
  6  3  1  0
  7  2  1  0
  8  7  2  0
  9 14  1  0
 10  9  2  0
  2 11  1  0
  4 12  1  0
 13  3  1  0
 14  4  1  0
 15  6  1  0
 16  6  2  0
 17 10  1  0
 18  1  1  0
  1 19  1  1
 20 13  1  0
 21 20  1  0
 22 17  1  0
 23  7  1  0
 20 24  1  0
 25 18  1  0
 14 26  1  0
 17 27  1  0
 28 22  1  0
 29 22  1  0
 23 25  1  0
 12 11  1  0
 15 21  1  0
  2 30  1  1
  4 31  1  1
  5 32  1  0
  8 33  1  0
  9 34  1  0
 10 35  1  0
 11 36  1  0
 11 37  1  0
 12 38  1  0
 12 39  1  0
 13 40  1  0
 13 41  1  0
 14 42  1  1
 15 43  1  0
 15 44  1  0
 16 45  1  0
 16 46  1  0
 17 47  1  1
 18 48  1  0
 18 49  1  0
 19 50  1  0
 19 51  1  0
 19 52  1  0
 20 53  1  1
 21 54  1  0
 21 55  1  0
 22 56  1  0
 23 57  1  0
 23 58  1  0
 24 59  1  0
 25 60  1  0
 25 61  1  0
 26 62  1  0
 26 63  1  0
 26 64  1  0
 27 65  1  0
 27 66  1  0
 27 67  1  0
 28 68  1  0
 28 69  1  0
 28 70  1  0
 29 71  1  0
 29 72  1  0
 29 73  1  0
M  END
> <Uni-Dock RESULT> 
ENERGY=   -3.835  LOWER_BOUND=    5.795  UPPER_BOUND=   10.523
INTER + INTRA:          -3.835
INTER:                  -3.835
INTRA:                   0.000
UNBOUND:                 0.000

$$$$

     RDKit          3D

 73 75  0  0  1  0  0  0  0  0999 V2000
   21.9681    8.0766   30.8283 C   0  0  1  0  0  0  0  0  0  0  0  0
   23.0610    7.2344   30.1129 C   0  0  2  0  0  0  0  0  0  0  0  0
   25.0383    2.9415   31.7825 C   0  0  0  0  0  0  0  0  0  0  0  0
   22.3262    9.4807   30.2592 C   0  0  2  0  0  0  0  0  0  0  0  0
   23.9784    3.6589   31.3564 C   0  0  0  0  0  0  0  0  0  0  0  0
   26.4151    3.4194   31.9010 C   0  0  0  0  0  0  0  0  0  0  0  0
   22.9567    5.7606   30.4535 C   0  0  0  0  0  0  0  0  0  0  0  0
   23.9778    5.0603   30.9848 C   0  0  0  0  0  0  0  0  0  0  0  0
   21.8474   11.1038   32.2419 C   0  0  0  0  0  0  0  0  0  0  0  0
   22.7439   11.9801   32.7274 C   0  0  0  0  0  0  0  0  0  0  0  0
   24.3366    8.0478   30.3586 C   0  0  0  0  0  0  0  0  0  0  0  0
   23.8734    9.5154   30.3080 C   0  0  0  0  0  0  0  0  0  0  0  0
   24.8755    1.5068   32.2413 C   0  0  0  0  0  0  0  0  0  0  0  0
   21.6022   10.7451   30.7911 C   0  0  1  0  0  0  0  0  0  0  0  0
   27.0321    3.2322   33.2666 C   0  0  0  0  0  0  0  0  0  0  0  0
   27.1034    3.9139   30.8602 C   0  0  0  0  0  0  0  0  0  0  0  0
   22.8742   12.3184   34.1998 C   0  0  1  0  0  0  0  0  0  0  0  0
   20.5862    7.5576   30.3841 C   0  0  0  0  0  0  0  0  0  0  0  0
   22.0837    7.9873   32.3685 C   0  0  0  0  0  0  0  0  0  0  0  0
   25.4651    1.2877   33.6426 C   0  0  2  0  0  0  0  0  0  0  0  0
   26.9122    1.7810   33.7290 C   0  0  0  0  0  0  0  0  0  0  0  0
   24.2946   11.9925   34.7430 C   0  0  0  0  0  0  0  0  0  0  0  0
   21.5858    5.2118   30.0878 C   0  0  0  0  0  0  0  0  0  0  0  0
   25.4168   -0.0973   33.9838 O   0  0  0  0  0  0  0  0  0  0  0  0
   20.4309    6.0528   30.6561 C   0  0  0  0  0  0  0  0  0  0  0  0
   21.8664   11.9338   29.8489 C   0  0  0  0  0  0  0  0  0  0  0  0
   22.5014   13.7952   34.3794 C   0  0  0  0  0  0  0  0  0  0  0  0
   24.4542   12.3882   36.2163 C   0  0  0  0  0  0  0  0  0  0  0  0
   24.6302   10.5017   34.5978 C   0  0  0  0  0  0  0  0  0  0  0  0
   22.8869    7.2843   29.0244 H   0  0  0  0  0  0  0  0  0  0  0  0
   22.0683    9.4400   29.1877 H   0  0  0  0  0  0  0  0  0  0  0  0
   23.0184    3.1523   31.3187 H   0  0  0  0  0  0  0  0  0  0  0  0
   24.9105    5.5833   31.1812 H   0  0  0  0  0  0  0  0  0  0  0  0
   21.1773   10.6210   32.9513 H   0  0  0  0  0  0  0  0  0  0  0  0
   23.4246   12.4968   32.0545 H   0  0  0  0  0  0  0  0  0  0  0  0
   24.7780    7.8390   31.3394 H   0  0  0  0  0  0  0  0  0  0  0  0
   25.1018    7.8425   29.6027 H   0  0  0  0  0  0  0  0  0  0  0  0
   24.2589   10.0513   31.1790 H   0  0  0  0  0  0  0  0  0  0  0  0
   24.2709   10.0152   29.4175 H   0  0  0  0  0  0  0  0  0  0  0  0
   25.3676    0.8382   31.5214 H   0  0  0  0  0  0  0  0  0  0  0  0
   23.8222    1.1978   32.2478 H   0  0  0  0  0  0  0  0  0  0  0  0
   20.5233   10.5504   30.7156 H   0  0  0  0  0  0  0  0  0  0  0  0
   26.5248    3.8923   33.9818 H   0  0  0  0  0  0  0  0  0  0  0  0
   28.0896    3.5229   33.2673 H   0  0  0  0  0  0  0  0  0  0  0  0
   28.1346    4.2368   30.9631 H   0  0  0  0  0  0  0  0  0  0  0  0
   26.6552    4.0060   29.8748 H   0  0  0  0  0  0  0  0  0  0  0  0
   22.1460   11.7267   34.7718 H   0  0  0  0  0  0  0  0  0  0  0  0
   20.4470    7.7324   29.3093 H   0  0  0  0  0  0  0  0  0  0  0  0
   19.7855    8.1069   30.8931 H   0  0  0  0  0  0  0  0  0  0  0  0
   21.2047    8.4228   32.8532 H   0  0  0  0  0  0  0  0  0  0  0  0
   22.1449    6.9537   32.7233 H   0  0  0  0  0  0  0  0  0  0  0  0
   22.9701    8.4992   32.7523 H   0  0  0  0  0  0  0  0  0  0  0  0
   24.8559    1.8223   34.3818 H   0  0  0  0  0  0  0  0  0  0  0  0
   27.2769    1.6806   34.7585 H   0  0  0  0  0  0  0  0  0  0  0  0
   27.5609    1.1375   33.1194 H   0  0  0  0  0  0  0  0  0  0  0  0
   25.0374   12.5586   34.1653 H   0  0  0  0  0  0  0  0  0  0  0  0
   21.5076    5.2027   28.9925 H   0  0  0  0  0  0  0  0  0  0  0  0
   21.4436    4.1770   30.4092 H   0  0  0  0  0  0  0  0  0  0  0  0
   25.9624   -0.5822   33.3405 H   0  0  0  0  0  0  0  0  0  0  0  0
   20.3514    5.8783   31.7360 H   0  0  0  0  0  0  0  0  0  0  0  0
   19.4861    5.7058   30.2208 H   0  0  0  0  0  0  0  0  0  0  0  0
   21.3258   12.8275   30.1809 H   0  0  0  0  0  0  0  0  0  0  0  0
   22.9310   12.1830   29.7867 H   0  0  0  0  0  0  0  0  0  0  0  0
   21.5220   11.7039   28.8339 H   0  0  0  0  0  0  0  0  0  0  0  0
   21.5451   14.0246   33.8948 H   0  0  0  0  0  0  0  0  0  0  0  0
   22.3884   14.0490   35.4377 H   0  0  0  0  0  0  0  0  0  0  0  0
   23.2634   14.4548   33.9493 H   0  0  0  0  0  0  0  0  0  0  0  0
   24.3870   13.4724   36.3491 H   0  0  0  0  0  0  0  0  0  0  0  0
   23.6861   11.9167   36.8383 H   0  0  0  0  0  0  0  0  0  0  0  0
   25.4345   12.0822   36.5991 H   0  0  0  0  0  0  0  0  0  0  0  0
   24.6754   10.2026   33.5474 H   0  0  0  0  0  0  0  0  0  0  0  0
   23.8849    9.8766   35.1011 H   0  0  0  0  0  0  0  0  0  0  0  0
   25.6090   10.2778   35.0354 H   0  0  0  0  0  0  0  0  0  0  0  0
  2  1  1  0
  3  5  2  0
  4  1  1  0
  5  8  1  0
  6  3  1  0
  7  2  1  0
  8  7  2  0
  9 14  1  0
 10  9  2  0
  2 11  1  0
  4 12  1  0
 13  3  1  0
 14  4  1  0
 15  6  1  0
 16  6  2  0
 17 10  1  0
 18  1  1  0
  1 19  1  1
 20 13  1  0
 21 20  1  0
 22 17  1  0
 23  7  1  0
 20 24  1  0
 25 18  1  0
 14 26  1  0
 17 27  1  0
 28 22  1  0
 29 22  1  0
 23 25  1  0
 12 11  1  0
 15 21  1  0
  2 30  1  1
  4 31  1  1
  5 32  1  0
  8 33  1  0
  9 34  1  0
 10 35  1  0
 11 36  1  0
 11 37  1  0
 12 38  1  0
 12 39  1  0
 13 40  1  0
 13 41  1  0
 14 42  1  1
 15 43  1  0
 15 44  1  0
 16 45  1  0
 16 46  1  0
 17 47  1  1
 18 48  1  0
 18 49  1  0
 19 50  1  0
 19 51  1  0
 19 52  1  0
 20 53  1  1
 21 54  1  0
 21 55  1  0
 22 56  1  0
 23 57  1  0
 23 58  1  0
 24 59  1  0
 25 60  1  0
 25 61  1  0
 26 62  1  0
 26 63  1  0
 26 64  1  0
 27 65  1  0
 27 66  1  0
 27 67  1  0
 28 68  1  0
 28 69  1  0
 28 70  1  0
 29 71  1  0
 29 72  1  0
 29 73  1  0
M  END
> <Uni-Dock RESULT> 
ENERGY=   -3.766  LOWER_BOUND=    7.344  UPPER_BOUND=    9.640
INTER + INTRA:          -3.766
INTER:                  -3.766
INTRA:                   0.000
UNBOUND:                 0.000

$$$$

     RDKit          3D

 73 75  0  0  1  0  0  0  0  0999 V2000
   29.4235   12.2773   27.1992 C   0  0  1  0  0  0  0  0  0  0  0  0
   29.6925   13.0114   25.8560 C   0  0  2  0  0  0  0  0  0  0  0  0
   28.7126   11.2291   21.2746 C   0  0  0  0  0  0  0  0  0  0  0  0
   30.5255   12.9468   28.0716 C   0  0  2  0  0  0  0  0  0  0  0  0
   28.2952   11.6274   22.4939 C   0  0  0  0  0  0  0  0  0  0  0  0
   30.0926   11.2253   20.7914 C   0  0  0  0  0  0  0  0  0  0  0  0
   28.7257   12.5818   24.7699 C   0  0  0  0  0  0  0  0  0  0  0  0
   29.1326   12.0772   23.5886 C   0  0  0  0  0  0  0  0  0  0  0  0
   31.3274   11.0332   29.6496 C   0  0  0  0  0  0  0  0  0  0  0  0
   32.6112   10.6559   29.7791 C   0  0  0  0  0  0  0  0  0  0  0  0
   31.2125   12.8935   25.6989 C   0  0  0  0  0  0  0  0  0  0  0  0
   31.7575   12.9980   27.1352 C   0  0  0  0  0  0  0  0  0  0  0  0
   27.7346   10.6802   20.2561 C   0  0  0  0  0  0  0  0  0  0  0  0
   30.7905   12.4428   29.5145 C   0  0  1  0  0  0  0  0  0  0  0  0
   30.5735    9.8930   20.2675 C   0  0  0  0  0  0  0  0  0  0  0  0
   30.8478   12.3339   20.7441 C   0  0  0  0  0  0  0  0  0  0  0  0
   33.0476    9.2163   29.9700 C   0  0  1  0  0  0  0  0  0  0  0  0
   27.9864   12.6031   27.6520 C   0  0  0  0  0  0  0  0  0  0  0  0
   29.5889   10.7450   27.0652 C   0  0  0  0  0  0  0  0  0  0  0  0
   28.1772    9.3088   19.7245 C   0  0  2  0  0  0  0  0  0  0  0  0
   29.6189    9.3422   19.2093 C   0  0  0  0  0  0  0  0  0  0  0  0
   33.9989    8.7463   28.8329 C   0  0  0  0  0  0  0  0  0  0  0  0
   27.2854   12.8283   25.1928 C   0  0  0  0  0  0  0  0  0  0  0  0
   27.3093    8.8871   18.6728 O   0  0  0  0  0  0  0  0  0  0  0  0
   26.9548   12.2367   26.5729 C   0  0  0  0  0  0  0  0  0  0  0  0
   31.6540   13.4659   30.2749 C   0  0  0  0  0  0  0  0  0  0  0  0
   33.6884    9.0976   31.3583 C   0  0  0  0  0  0  0  0  0  0  0  0
   34.4939    7.3110   29.0505 C   0  0  0  0  0  0  0  0  0  0  0  0
   33.3235    8.8276   27.4570 C   0  0  0  0  0  0  0  0  0  0  0  0
   29.4953   14.0878   25.9980 H   0  0  0  0  0  0  0  0  0  0  0  0
   30.2083   13.9958   28.1951 H   0  0  0  0  0  0  0  0  0  0  0  0
   27.2291   11.5754   22.6954 H   0  0  0  0  0  0  0  0  0  0  0  0
   30.2009   11.9702   23.4177 H   0  0  0  0  0  0  0  0  0  0  0  0
   30.5655   10.2565   29.6929 H   0  0  0  0  0  0  0  0  0  0  0  0
   33.4054   11.3987   29.7559 H   0  0  0  0  0  0  0  0  0  0  0  0
   31.5104   11.9322   25.2655 H   0  0  0  0  0  0  0  0  0  0  0  0
   31.6176   13.6834   25.0578 H   0  0  0  0  0  0  0  0  0  0  0  0
   32.4645   12.1849   27.3187 H   0  0  0  0  0  0  0  0  0  0  0  0
   32.3020   13.9387   27.2741 H   0  0  0  0  0  0  0  0  0  0  0  0
   27.6424   11.3906   19.4229 H   0  0  0  0  0  0  0  0  0  0  0  0
   26.7222   10.5895   20.6705 H   0  0  0  0  0  0  0  0  0  0  0  0
   29.8221   12.4388   30.0339 H   0  0  0  0  0  0  0  0  0  0  0  0
   30.6481    9.1858   21.1035 H   0  0  0  0  0  0  0  0  0  0  0  0
   31.5784    9.9757   19.8362 H   0  0  0  0  0  0  0  0  0  0  0  0
   31.8608   12.3149   20.3549 H   0  0  0  0  0  0  0  0  0  0  0  0
   30.4719   13.2926   21.0904 H   0  0  0  0  0  0  0  0  0  0  0  0
   32.1613    8.5666   29.9636 H   0  0  0  0  0  0  0  0  0  0  0  0
   27.8951   13.6751   27.8700 H   0  0  0  0  0  0  0  0  0  0  0  0
   27.7460   12.0765   28.5830 H   0  0  0  0  0  0  0  0  0  0  0  0
   29.2148   10.2311   27.9559 H   0  0  0  0  0  0  0  0  0  0  0  0
   29.0256   10.3366   26.2203 H   0  0  0  0  0  0  0  0  0  0  0  0
   30.6302   10.4476   26.9154 H   0  0  0  0  0  0  0  0  0  0  0  0
   28.0966    8.5642   20.5258 H   0  0  0  0  0  0  0  0  0  0  0  0
   29.9283    8.3338   18.9087 H   0  0  0  0  0  0  0  0  0  0  0  0
   29.6738    9.9542   18.2988 H   0  0  0  0  0  0  0  0  0  0  0  0
   34.8803    9.4010   28.8101 H   0  0  0  0  0  0  0  0  0  0  0  0
   27.1258   13.9141   25.2287 H   0  0  0  0  0  0  0  0  0  0  0  0
   26.5597   12.4403   24.4734 H   0  0  0  0  0  0  0  0  0  0  0  0
   27.3793    9.5350   17.9504 H   0  0  0  0  0  0  0  0  0  0  0  0
   26.8762   11.1459   26.4914 H   0  0  0  0  0  0  0  0  0  0  0  0
   25.9660   12.5911   26.8878 H   0  0  0  0  0  0  0  0  0  0  0  0
   31.8151   13.1515   31.3125 H   0  0  0  0  0  0  0  0  0  0  0  0
   32.6334   13.6093   29.8063 H   0  0  0  0  0  0  0  0  0  0  0  0
   31.1568   14.4423   30.3045 H   0  0  0  0  0  0  0  0  0  0  0  0
   33.0439    9.5329   32.1310 H   0  0  0  0  0  0  0  0  0  0  0  0
   33.8474    8.0504   31.6326 H   0  0  0  0  0  0  0  0  0  0  0  0
   34.6552    9.6117   31.3974 H   0  0  0  0  0  0  0  0  0  0  0  0
   35.1254    7.2359   29.9411 H   0  0  0  0  0  0  0  0  0  0  0  0
   33.6553    6.6158   29.1633 H   0  0  0  0  0  0  0  0  0  0  0  0
   35.1008    6.9741   28.2024 H   0  0  0  0  0  0  0  0  0  0  0  0
   33.0840    9.8600   27.1895 H   0  0  0  0  0  0  0  0  0  0  0  0
   32.3973    8.2434   27.4349 H   0  0  0  0  0  0  0  0  0  0  0  0
   33.9849    8.4407   26.6743 H   0  0  0  0  0  0  0  0  0  0  0  0
  2  1  1  0
  3  5  2  0
  4  1  1  0
  5  8  1  0
  6  3  1  0
  7  2  1  0
  8  7  2  0
  9 14  1  0
 10  9  2  0
  2 11  1  0
  4 12  1  0
 13  3  1  0
 14  4  1  0
 15  6  1  0
 16  6  2  0
 17 10  1  0
 18  1  1  0
  1 19  1  1
 20 13  1  0
 21 20  1  0
 22 17  1  0
 23  7  1  0
 20 24  1  0
 25 18  1  0
 14 26  1  0
 17 27  1  0
 28 22  1  0
 29 22  1  0
 23 25  1  0
 12 11  1  0
 15 21  1  0
  2 30  1  1
  4 31  1  1
  5 32  1  0
  8 33  1  0
  9 34  1  0
 10 35  1  0
 11 36  1  0
 11 37  1  0
 12 38  1  0
 12 39  1  0
 13 40  1  0
 13 41  1  0
 14 42  1  1
 15 43  1  0
 15 44  1  0
 16 45  1  0
 16 46  1  0
 17 47  1  1
 18 48  1  0
 18 49  1  0
 19 50  1  0
 19 51  1  0
 19 52  1  0
 20 53  1  1
 21 54  1  0
 21 55  1  0
 22 56  1  0
 23 57  1  0
 23 58  1  0
 24 59  1  0
 25 60  1  0
 25 61  1  0
 26 62  1  0
 26 63  1  0
 26 64  1  0
 27 65  1  0
 27 66  1  0
 27 67  1  0
 28 68  1  0
 28 69  1  0
 28 70  1  0
 29 71  1  0
 29 72  1  0
 29 73  1  0
M  END
> <Uni-Dock RESULT> 
ENERGY=   -3.562  LOWER_BOUND=    6.187  UPPER_BOUND=    8.258
INTER + INTRA:          -3.562
INTER:                  -3.562
INTRA:                   0.000
UNBOUND:                 0.000

$$$$

     RDKit          3D

 73 75  0  0  1  0  0  0  0  0999 V2000
   25.6379   11.5772   28.9523 C   0  0  1  0  0  0  0  0  0  0  0  0
   24.4202   10.6441   28.7032 C   0  0  2  0  0  0  0  0  0  0  0  0
   22.5034    7.3622   31.9712 C   0  0  0  0  0  0  0  0  0  0  0  0
   26.1304   11.7380   27.4843 C   0  0  2  0  0  0  0  0  0  0  0  0
   22.8021    8.6291   31.6175 C   0  0  0  0  0  0  0  0  0  0  0  0
   22.7513    6.1607   31.1757 C   0  0  0  0  0  0  0  0  0  0  0  0
   23.6846   10.3144   29.9873 C   0  0  0  0  0  0  0  0  0  0  0  0
   23.4786    9.0505   30.4064 C   0  0  0  0  0  0  0  0  0  0  0  0
   28.7263   11.8389   27.6991 C   0  0  0  0  0  0  0  0  0  0  0  0
   29.5667   11.0353   27.0245 C   0  0  0  0  0  0  0  0  0  0  0  0
   24.9991    9.5621   27.7849 C   0  0  0  0  0  0  0  0  0  0  0  0
   26.0081   10.3114   26.8952 C   0  0  0  0  0  0  0  0  0  0  0  0
   21.8871    7.0537   33.3204 C   0  0  0  0  0  0  0  0  0  0  0  0
   27.4567   12.4844   27.1845 C   0  0  1  0  0  0  0  0  0  0  0  0
   23.5465    5.0892   31.8830 C   0  0  0  0  0  0  0  0  0  0  0  0
   22.2472    5.9896   29.9436 C   0  0  0  0  0  0  0  0  0  0  0  0
   30.8518   10.4833   27.6105 C   0  0  1  0  0  0  0  0  0  0  0  0
   25.1259   12.8862   29.5852 C   0  0  0  0  0  0  0  0  0  0  0  0
   26.6851   10.9259   29.8865 C   0  0  0  0  0  0  0  0  0  0  0  0
   22.6900    5.9885   34.0821 C   0  0  2  0  0  0  0  0  0  0  0  0
   22.9166    4.7367   33.2297 C   0  0  0  0  0  0  0  0  0  0  0  0
   30.8605    8.9282   27.6189 C   0  0  0  0  0  0  0  0  0  0  0  0
   23.2082   11.5802   30.6837 C   0  0  0  0  0  0  0  0  0  0  0  0
   22.0082    5.6257   35.2823 O   0  0  0  0  0  0  0  0  0  0  0  0
   24.3253   12.6200   30.8701 C   0  0  0  0  0  0  0  0  0  0  0  0
   27.5430   12.8137   25.6829 C   0  0  0  0  0  0  0  0  0  0  0  0
   32.0239   11.0729   26.8164 C   0  0  0  0  0  0  0  0  0  0  0  0
   32.1816    8.3611   28.1536 C   0  0  0  0  0  0  0  0  0  0  0  0
   29.7083    8.3579   28.4575 C   0  0  0  0  0  0  0  0  0  0  0  0
   23.6820   11.1863   28.0877 H   0  0  0  0  0  0  0  0  0  0  0  0
   25.3533   12.3322   26.9751 H   0  0  0  0  0  0  0  0  0  0  0  0
   22.5448    9.4153   32.3215 H   0  0  0  0  0  0  0  0  0  0  0  0
   23.8656    8.2385   29.7956 H   0  0  0  0  0  0  0  0  0  0  0  0
   28.9949   12.1089   28.7191 H   0  0  0  0  0  0  0  0  0  0  0  0
   29.3464   10.7502   25.9982 H   0  0  0  0  0  0  0  0  0  0  0  0
   25.5203    8.7786   28.3462 H   0  0  0  0  0  0  0  0  0  0  0  0
   24.2206    9.0766   27.1872 H   0  0  0  0  0  0  0  0  0  0  0  0
   26.9591    9.7727   26.8863 H   0  0  0  0  0  0  0  0  0  0  0  0
   25.6512   10.3565   25.8602 H   0  0  0  0  0  0  0  0  0  0  0  0
   20.8537    6.7090   33.1764 H   0  0  0  0  0  0  0  0  0  0  0  0
   21.8065    7.9515   33.9468 H   0  0  0  0  0  0  0  0  0  0  0  0
   27.3965   13.4578   27.6910 H   0  0  0  0  0  0  0  0  0  0  0  0
   24.5725    5.4477   32.0362 H   0  0  0  0  0  0  0  0  0  0  0  0
   23.6196    4.1812   31.2723 H   0  0  0  0  0  0  0  0  0  0  0  0
   22.4195    5.0776   29.3810 H   0  0  0  0  0  0  0  0  0  0  0  0
   21.6447    6.7565   29.4647 H   0  0  0  0  0  0  0  0  0  0  0  0
   30.9536   10.8307   28.6480 H   0  0  0  0  0  0  0  0  0  0  0  0
   24.4780   13.4179   28.8763 H   0  0  0  0  0  0  0  0  0  0  0  0
   25.9612   13.5608   29.8067 H   0  0  0  0  0  0  0  0  0  0  0  0
   27.4351   11.6566   30.2040 H   0  0  0  0  0  0  0  0  0  0  0  0
   26.2379   10.5319   30.8045 H   0  0  0  0  0  0  0  0  0  0  0  0
   27.2066   10.0900   29.4128 H   0  0  0  0  0  0  0  0  0  0  0  0
   23.6605    6.4058   34.3772 H   0  0  0  0  0  0  0  0  0  0  0  0
   23.5555    4.0295   33.7726 H   0  0  0  0  0  0  0  0  0  0  0  0
   21.9622    4.2161   33.0732 H   0  0  0  0  0  0  0  0  0  0  0  0
   30.7356    8.5639   26.5904 H   0  0  0  0  0  0  0  0  0  0  0  0
   22.4139   12.0244   30.0692 H   0  0  0  0  0  0  0  0  0  0  0  0
   22.7596   11.3837   31.6607 H   0  0  0  0  0  0  0  0  0  0  0  0
   21.1484    5.2443   35.0334 H   0  0  0  0  0  0  0  0  0  0  0  0
   25.0027   12.2870   31.6657 H   0  0  0  0  0  0  0  0  0  0  0  0
   23.8847   13.5616   31.2190 H   0  0  0  0  0  0  0  0  0  0  0  0
   28.4519   13.3827   25.4560 H   0  0  0  0  0  0  0  0  0  0  0  0
   27.5414   11.9120   25.0615 H   0  0  0  0  0  0  0  0  0  0  0  0
   26.6893   13.4281   25.3742 H   0  0  0  0  0  0  0  0  0  0  0  0
   31.9382   12.1627   26.7331 H   0  0  0  0  0  0  0  0  0  0  0  0
   32.9789   10.8678   27.3094 H   0  0  0  0  0  0  0  0  0  0  0  0
   32.0673   10.6602   25.8023 H   0  0  0  0  0  0  0  0  0  0  0  0
   33.0187    8.6044   27.4920 H   0  0  0  0  0  0  0  0  0  0  0  0
   32.4058    8.7531   29.1512 H   0  0  0  0  0  0  0  0  0  0  0  0
   32.1386    7.2680   28.2214 H   0  0  0  0  0  0  0  0  0  0  0  0
   28.7364    8.6130   28.0273 H   0  0  0  0  0  0  0  0  0  0  0  0
   29.7397    8.7375   29.4844 H   0  0  0  0  0  0  0  0  0  0  0  0
   29.7610    7.2646   28.5004 H   0  0  0  0  0  0  0  0  0  0  0  0
  2  1  1  0
  3  5  2  0
  4  1  1  0
  5  8  1  0
  6  3  1  0
  7  2  1  0
  8  7  2  0
  9 14  1  0
 10  9  2  0
  2 11  1  0
  4 12  1  0
 13  3  1  0
 14  4  1  0
 15  6  1  0
 16  6  2  0
 17 10  1  0
 18  1  1  0
  1 19  1  1
 20 13  1  0
 21 20  1  0
 22 17  1  0
 23  7  1  0
 20 24  1  0
 25 18  1  0
 14 26  1  0
 17 27  1  0
 28 22  1  0
 29 22  1  0
 23 25  1  0
 12 11  1  0
 15 21  1  0
  2 30  1  1
  4 31  1  1
  5 32  1  0
  8 33  1  0
  9 34  1  0
 10 35  1  0
 11 36  1  0
 11 37  1  0
 12 38  1  0
 12 39  1  0
 13 40  1  0
 13 41  1  0
 14 42  1  1
 15 43  1  0
 15 44  1  0
 16 45  1  0
 16 46  1  0
 17 47  1  1
 18 48  1  0
 18 49  1  0
 19 50  1  0
 19 51  1  0
 19 52  1  0
 20 53  1  1
 21 54  1  0
 21 55  1  0
 22 56  1  0
 23 57  1  0
 23 58  1  0
 24 59  1  0
 25 60  1  0
 25 61  1  0
 26 62  1  0
 26 63  1  0
 26 64  1  0
 27 65  1  0
 27 66  1  0
 27 67  1  0
 28 68  1  0
 28 69  1  0
 28 70  1  0
 29 71  1  0
 29 72  1  0
 29 73  1  0
M  END
> <Uni-Dock RESULT> 
ENERGY=   -3.515  LOWER_BOUND=    4.980  UPPER_BOUND=    6.913
INTER + INTRA:          -3.515
INTER:                  -3.515
INTRA:                   0.000
UNBOUND:                 0.000

$$$$

     RDKit          3D

 73 75  0  0  1  0  0  0  0  0999 V2000
   30.0818   10.9964   27.2249 C   0  0  1  0  0  0  0  0  0  0  0  0
   28.9066    9.9796   27.2466 C   0  0  2  0  0  0  0  0  0  0  0  0
   24.2388   10.9015   28.8238 C   0  0  0  0  0  0  0  0  0  0  0  0
   31.2720   10.0013   27.3540 C   0  0  2  0  0  0  0  0  0  0  0  0
   25.2594   11.1374   27.9739 C   0  0  0  0  0  0  0  0  0  0  0  0
   24.2315    9.9327   29.9190 C   0  0  0  0  0  0  0  0  0  0  0  0
   27.5607   10.6631   27.1047 C   0  0  0  0  0  0  0  0  0  0  0  0
   26.5716   10.5217   28.0087 C   0  0  0  0  0  0  0  0  0  0  0  0
   33.0065   11.2818   28.8192 C   0  0  0  0  0  0  0  0  0  0  0  0
   33.5434   10.7892   29.9489 C   0  0  0  0  0  0  0  0  0  0  0  0
   29.2521    9.0812   28.4393 C   0  0  0  0  0  0  0  0  0  0  0  0
   30.7885    8.9828   28.4152 C   0  0  0  0  0  0  0  0  0  0  0  0
   22.9520   11.6963   28.7372 C   0  0  0  0  0  0  0  0  0  0  0  0
   32.7175   10.5343   27.5342 C   0  0  1  0  0  0  0  0  0  0  0  0
   23.8799   10.5103   31.2693 C   0  0  0  0  0  0  0  0  0  0  0  0
   24.4436    8.6211   29.7287 C   0  0  0  0  0  0  0  0  0  0  0  0
   33.8521   11.6344   31.1694 C   0  0  1  0  0  0  0  0  0  0  0  0
   30.0448   11.7536   25.8827 C   0  0  0  0  0  0  0  0  0  0  0  0
   29.9940   12.0081   28.3922 C   0  0  0  0  0  0  0  0  0  0  0  0
   22.5803   12.3254   30.0883 C   0  0  2  0  0  0  0  0  0  0  0  0
   22.5631   11.2830   31.2100 C   0  0  0  0  0  0  0  0  0  0  0  0
   33.0824   11.1362   32.4257 C   0  0  0  0  0  0  0  0  0  0  0  0
   27.4937   11.4749   25.8199 C   0  0  0  0  0  0  0  0  0  0  0  0
   21.2992   12.9488   30.0031 O   0  0  0  0  0  0  0  0  0  0  0  0
   28.6850   12.4320   25.6512 C   0  0  0  0  0  0  0  0  0  0  0  0
   33.7277    9.3992   27.2858 C   0  0  0  0  0  0  0  0  0  0  0  0
   35.3722   11.6321   31.3728 C   0  0  0  0  0  0  0  0  0  0  0  0
   33.4354   11.9476   33.6785 C   0  0  0  0  0  0  0  0  0  0  0  0
   31.5623   11.1909   32.2196 C   0  0  0  0  0  0  0  0  0  0  0  0
   28.9871    9.3303   26.3579 H   0  0  0  0  0  0  0  0  0  0  0  0
   31.2956    9.4436   26.4029 H   0  0  0  0  0  0  0  0  0  0  0  0
   25.1022   11.8886   27.2052 H   0  0  0  0  0  0  0  0  0  0  0  0
   26.7569    9.8948   28.8774 H   0  0  0  0  0  0  0  0  0  0  0  0
   32.7917   12.3487   28.7851 H   0  0  0  0  0  0  0  0  0  0  0  0
   33.7874    9.7318   30.0236 H   0  0  0  0  0  0  0  0  0  0  0  0
   28.9301    9.5163   29.3920 H   0  0  0  0  0  0  0  0  0  0  0  0
   28.7856    8.0942   28.3537 H   0  0  0  0  0  0  0  0  0  0  0  0
   31.1844    9.1889   29.4129 H   0  0  0  0  0  0  0  0  0  0  0  0
   31.1063    7.9701   28.1430 H   0  0  0  0  0  0  0  0  0  0  0  0
   22.1411   11.0371   28.3976 H   0  0  0  0  0  0  0  0  0  0  0  0
   23.0131   12.4903   27.9817 H   0  0  0  0  0  0  0  0  0  0  0  0
   32.8931   11.2594   26.7273 H   0  0  0  0  0  0  0  0  0  0  0  0
   24.6877   11.1788   31.5937 H   0  0  0  0  0  0  0  0  0  0  0  0
   23.8002    9.7232   32.0288 H   0  0  0  0  0  0  0  0  0  0  0  0
   24.4054    7.9143   30.5515 H   0  0  0  0  0  0  0  0  0  0  0  0
   24.6578    8.2173   28.7431 H   0  0  0  0  0  0  0  0  0  0  0  0
   33.5510   12.6731   30.9745 H   0  0  0  0  0  0  0  0  0  0  0  0
   30.2316   11.0584   25.0539 H   0  0  0  0  0  0  0  0  0  0  0  0
   30.8416   12.5055   25.8413 H   0  0  0  0  0  0  0  0  0  0  0  0
   30.7092   12.8251   28.2571 H   0  0  0  0  0  0  0  0  0  0  0  0
   29.0078   12.4771   28.4648 H   0  0  0  0  0  0  0  0  0  0  0  0
   30.1887   11.5451   29.3632 H   0  0  0  0  0  0  0  0  0  0  0  0
   23.3043   13.1112   30.3358 H   0  0  0  0  0  0  0  0  0  0  0  0
   22.3700   11.7758   32.1707 H   0  0  0  0  0  0  0  0  0  0  0  0
   21.7262   10.5880   31.0584 H   0  0  0  0  0  0  0  0  0  0  0  0
   33.3543   10.0902   32.6207 H   0  0  0  0  0  0  0  0  0  0  0  0
   27.4863   10.7714   24.9768 H   0  0  0  0  0  0  0  0  0  0  0  0
   26.5735   12.0583   25.7342 H   0  0  0  0  0  0  0  0  0  0  0  0
   20.6453   12.2595   29.7936 H   0  0  0  0  0  0  0  0  0  0  0  0
   28.5718   13.2781   26.3397 H   0  0  0  0  0  0  0  0  0  0  0  0
   28.6641   12.8565   24.6403 H   0  0  0  0  0  0  0  0  0  0  0  0
   34.7580    9.7650   27.3626 H   0  0  0  0  0  0  0  0  0  0  0  0
   33.6051    8.5744   27.9958 H   0  0  0  0  0  0  0  0  0  0  0  0
   33.6032    8.9873   26.2777 H   0  0  0  0  0  0  0  0  0  0  0  0
   35.8970   11.8827   30.4435 H   0  0  0  0  0  0  0  0  0  0  0  0
   35.6731   12.3763   32.1163 H   0  0  0  0  0  0  0  0  0  0  0  0
   35.7291   10.6515   31.7071 H   0  0  0  0  0  0  0  0  0  0  0  0
   34.4824   11.8073   33.9646 H   0  0  0  0  0  0  0  0  0  0  0  0
   33.2621   13.0171   33.5195 H   0  0  0  0  0  0  0  0  0  0  0  0
   32.8280   11.6300   34.5338 H   0  0  0  0  0  0  0  0  0  0  0  0
   31.2415   10.5096   31.4274 H   0  0  0  0  0  0  0  0  0  0  0  0
   31.2340   12.2022   31.9567 H   0  0  0  0  0  0  0  0  0  0  0  0
   31.0341   10.8913   33.1312 H   0  0  0  0  0  0  0  0  0  0  0  0
  2  1  1  0
  3  5  2  0
  4  1  1  0
  5  8  1  0
  6  3  1  0
  7  2  1  0
  8  7  2  0
  9 14  1  0
 10  9  2  0
  2 11  1  0
  4 12  1  0
 13  3  1  0
 14  4  1  0
 15  6  1  0
 16  6  2  0
 17 10  1  0
 18  1  1  0
  1 19  1  1
 20 13  1  0
 21 20  1  0
 22 17  1  0
 23  7  1  0
 20 24  1  0
 25 18  1  0
 14 26  1  0
 17 27  1  0
 28 22  1  0
 29 22  1  0
 23 25  1  0
 12 11  1  0
 15 21  1  0
  2 30  1  1
  4 31  1  1
  5 32  1  0
  8 33  1  0
  9 34  1  0
 10 35  1  0
 11 36  1  0
 11 37  1  0
 12 38  1  0
 12 39  1  0
 13 40  1  0
 13 41  1  0
 14 42  1  1
 15 43  1  0
 15 44  1  0
 16 45  1  0
 16 46  1  0
 17 47  1  1
 18 48  1  0
 18 49  1  0
 19 50  1  0
 19 51  1  0
 19 52  1  0
 20 53  1  1
 21 54  1  0
 21 55  1  0
 22 56  1  0
 23 57  1  0
 23 58  1  0
 24 59  1  0
 25 60  1  0
 25 61  1  0
 26 62  1  0
 26 63  1  0
 26 64  1  0
 27 65  1  0
 27 66  1  0
 27 67  1  0
 28 68  1  0
 28 69  1  0
 28 70  1  0
 29 71  1  0
 29 72  1  0
 29 73  1  0
M  END
> <Uni-Dock RESULT> 
ENERGY=   -3.503  LOWER_BOUND=    4.732  UPPER_BOUND=    6.661
INTER + INTRA:          -3.503
INTER:                  -3.503
INTRA:                   0.000
UNBOUND:                 0.000

$$$$

     RDKit          3D

 73 75  0  0  1  0  0  0  0  0999 V2000
   30.4246    5.6751   30.4886 C   0  0  1  0  0  0  0  0  0  0  0  0
   29.4071    5.8574   31.6491 C   0  0  2  0  0  0  0  0  0  0  0  0
   24.4267    5.4101   31.3008 C   0  0  0  0  0  0  0  0  0  0  0  0
   31.5640    6.5980   31.0116 C   0  0  2  0  0  0  0  0  0  0  0  0
   25.6627    4.8772   31.2123 C   0  0  0  0  0  0  0  0  0  0  0  0
   24.1025    6.7853   31.6771 C   0  0  0  0  0  0  0  0  0  0  0  0
   28.1528    5.0316   31.4404 C   0  0  0  0  0  0  0  0  0  0  0  0
   26.9188    5.5721   31.4159 C   0  0  0  0  0  0  0  0  0  0  0  0
   32.5429    7.6759   28.8495 C   0  0  0  0  0  0  0  0  0  0  0  0
   32.6735    9.0010   28.6647 C   0  0  0  0  0  0  0  0  0  0  0  0
   29.3697    7.3781   31.8369 C   0  0  0  0  0  0  0  0  0  0  0  0
   30.8137    7.8360   31.5610 C   0  0  0  0  0  0  0  0  0  0  0  0
   23.1984    4.5924   30.9573 C   0  0  0  0  0  0  0  0  0  0  0  0
   32.7988    6.8933   30.1205 C   0  0  1  0  0  0  0  0  0  0  0  0
   23.2416    7.5252   30.6811 C   0  0  0  0  0  0  0  0  0  0  0  0
   24.4739    7.3235   32.8492 C   0  0  0  0  0  0  0  0  0  0  0  0
   32.4512    9.6884   27.3314 C   0  0  1  0  0  0  0  0  0  0  0  0
   30.8140    4.1854   30.4130 C   0  0  0  0  0  0  0  0  0  0  0  0
   29.8400    6.1265   29.1292 C   0  0  0  0  0  0  0  0  0  0  0  0
   22.3143    5.3024   29.9211 C   0  0  2  0  0  0  0  0  0  0  0  0
   21.9774    6.7325   30.3525 C   0  0  0  0  0  0  0  0  0  0  0  0
   31.3227   10.7553   27.4136 C   0  0  0  0  0  0  0  0  0  0  0  0
   28.4891    3.5546   31.3001 C   0  0  0  0  0  0  0  0  0  0  0  0
   21.1047    4.5707   29.7249 O   0  0  0  0  0  0  0  0  0  0  0  0
   29.5796    3.2838   30.2506 C   0  0  0  0  0  0  0  0  0  0  0  0
   33.9185    7.5211   30.9707 C   0  0  0  0  0  0  0  0  0  0  0  0
   33.7902   10.2835   26.8784 C   0  0  0  0  0  0  0  0  0  0  0  0
   31.1327   11.4982   26.0852 C   0  0  0  0  0  0  0  0  0  0  0  0
   29.9805   10.1326   27.8221 C   0  0  0  0  0  0  0  0  0  0  0  0
   29.8551    5.4589   32.5754 H   0  0  0  0  0  0  0  0  0  0  0  0
   31.9744    6.0873   31.8988 H   0  0  0  0  0  0  0  0  0  0  0  0
   25.7337    3.8320   30.9256 H   0  0  0  0  0  0  0  0  0  0  0  0
   26.8278    6.6477   31.5448 H   0  0  0  0  0  0  0  0  0  0  0  0
   32.2697    7.0699   27.9872 H   0  0  0  0  0  0  0  0  0  0  0  0
   32.9584    9.6443   29.4942 H   0  0  0  0  0  0  0  0  0  0  0  0
   28.6914    7.8660   31.1280 H   0  0  0  0  0  0  0  0  0  0  0  0
   29.0469    7.6555   32.8458 H   0  0  0  0  0  0  0  0  0  0  0  0
   30.8046    8.6732   30.8585 H   0  0  0  0  0  0  0  0  0  0  0  0
   31.2889    8.1908   32.4824 H   0  0  0  0  0  0  0  0  0  0  0  0
   22.6209    4.4040   31.8730 H   0  0  0  0  0  0  0  0  0  0  0  0
   23.4640    3.5985   30.5748 H   0  0  0  0  0  0  0  0  0  0  0  0
   33.1949    5.9222   29.7922 H   0  0  0  0  0  0  0  0  0  0  0  0
   23.8209    7.6957   29.7646 H   0  0  0  0  0  0  0  0  0  0  0  0
   22.9567    8.5140   31.0604 H   0  0  0  0  0  0  0  0  0  0  0  0
   24.1983    8.3374   33.1215 H   0  0  0  0  0  0  0  0  0  0  0  0
   25.0615    6.7629   33.5710 H   0  0  0  0  0  0  0  0  0  0  0  0
   32.1582    8.9386   26.5834 H   0  0  0  0  0  0  0  0  0  0  0  0
   31.3429    3.8885   31.3280 H   0  0  0  0  0  0  0  0  0  0  0  0
   31.5085    4.0093   29.5833 H   0  0  0  0  0  0  0  0  0  0  0  0
   30.4873    5.8184   28.3026 H   0  0  0  0  0  0  0  0  0  0  0  0
   28.8597    5.6830   28.9284 H   0  0  0  0  0  0  0  0  0  0  0  0
   29.7075    7.2100   29.0694 H   0  0  0  0  0  0  0  0  0  0  0  0
   22.8343    5.3287   28.9556 H   0  0  0  0  0  0  0  0  0  0  0  0
   21.4113    7.2352   29.5588 H   0  0  0  0  0  0  0  0  0  0  0  0
   21.3106    6.7099   31.2251 H   0  0  0  0  0  0  0  0  0  0  0  0
   31.5892   11.5005   28.1749 H   0  0  0  0  0  0  0  0  0  0  0  0
   28.8435    3.1955   32.2754 H   0  0  0  0  0  0  0  0  0  0  0  0
   27.6182    2.9429   31.0516 H   0  0  0  0  0  0  0  0  0  0  0  0
   20.6285    4.5486   30.5730 H   0  0  0  0  0  0  0  0  0  0  0  0
   29.1575    3.4119   29.2465 H   0  0  0  0  0  0  0  0  0  0  0  0
   29.8911    2.2346   30.3190 H   0  0  0  0  0  0  0  0  0  0  0  0
   34.8185    7.6956   30.3699 H   0  0  0  0  0  0  0  0  0  0  0  0
   33.6148    8.4751   31.4144 H   0  0  0  0  0  0  0  0  0  0  0  0
   34.2002    6.8509   31.7911 H   0  0  0  0  0  0  0  0  0  0  0  0
   34.5932    9.5389   26.9311 H   0  0  0  0  0  0  0  0  0  0  0  0
   33.7412   10.6225   25.8392 H   0  0  0  0  0  0  0  0  0  0  0  0
   34.0801   11.1361   27.5027 H   0  0  0  0  0  0  0  0  0  0  0  0
   32.0134   12.0963   25.8314 H   0  0  0  0  0  0  0  0  0  0  0  0
   30.9429   10.7990   25.2641 H   0  0  0  0  0  0  0  0  0  0  0  0
   30.2852   12.1908   26.1425 H   0  0  0  0  0  0  0  0  0  0  0  0
   30.0235    9.7171   28.8322 H   0  0  0  0  0  0  0  0  0  0  0  0
   29.6890    9.3322   27.1337 H   0  0  0  0  0  0  0  0  0  0  0  0
   29.1847   10.8852   27.8205 H   0  0  0  0  0  0  0  0  0  0  0  0
  2  1  1  0
  3  5  2  0
  4  1  1  0
  5  8  1  0
  6  3  1  0
  7  2  1  0
  8  7  2  0
  9 14  1  0
 10  9  2  0
  2 11  1  0
  4 12  1  0
 13  3  1  0
 14  4  1  0
 15  6  1  0
 16  6  2  0
 17 10  1  0
 18  1  1  0
  1 19  1  1
 20 13  1  0
 21 20  1  0
 22 17  1  0
 23  7  1  0
 20 24  1  0
 25 18  1  0
 14 26  1  0
 17 27  1  0
 28 22  1  0
 29 22  1  0
 23 25  1  0
 12 11  1  0
 15 21  1  0
  2 30  1  1
  4 31  1  1
  5 32  1  0
  8 33  1  0
  9 34  1  0
 10 35  1  0
 11 36  1  0
 11 37  1  0
 12 38  1  0
 12 39  1  0
 13 40  1  0
 13 41  1  0
 14 42  1  1
 15 43  1  0
 15 44  1  0
 16 45  1  0
 16 46  1  0
 17 47  1  1
 18 48  1  0
 18 49  1  0
 19 50  1  0
 19 51  1  0
 19 52  1  0
 20 53  1  1
 21 54  1  0
 21 55  1  0
 22 56  1  0
 23 57  1  0
 23 58  1  0
 24 59  1  0
 25 60  1  0
 25 61  1  0
 26 62  1  0
 26 63  1  0
 26 64  1  0
 27 65  1  0
 27 66  1  0
 27 67  1  0
 28 68  1  0
 28 69  1  0
 28 70  1  0
 29 71  1  0
 29 72  1  0
 29 73  1  0
M  END
> <Uni-Dock RESULT> 
ENERGY=   -3.496  LOWER_BOUND=    3.342  UPPER_BOUND=    5.879
INTER + INTRA:          -3.496
INTER:                  -3.496
INTRA:                   0.000
UNBOUND:                 0.000

$$$$
