
     RDKit          3D

 73 75  0  0  1  0  0  0  0  0999 V2000
   25.0444   12.1467   28.6013 C   0  0  1  0  0  0  0  0  0  0  0  0
   24.2712   10.8502   28.2306 C   0  0  2  0  0  0  0  0  0  0  0  0
   22.2223    7.3885   31.2299 C   0  0  0  0  0  0  0  0  0  0  0  0
   25.9747   12.2757   27.3520 C   0  0  2  0  0  0  0  0  0  0  0  0
   22.3134    8.6558   30.7758 C   0  0  0  0  0  0  0  0  0  0  0  0
   23.0131    6.2564   30.7607 C   0  0  0  0  0  0  0  0  0  0  0  0
   23.3097   10.4215   29.3217 C   0  0  0  0  0  0  0  0  0  0  0  0
   23.1892    9.1411   29.7262 C   0  0  0  0  0  0  0  0  0  0  0  0
   28.1058   13.2189   26.2075 C   0  0  0  0  0  0  0  0  0  0  0  0
   27.7211   13.0725   24.9298 C   0  0  0  0  0  0  0  0  0  0  0  0
   25.3700    9.9010   27.7516 C   0  0  0  0  0  0  0  0  0  0  0  0
   26.3940   10.8081   27.0621 C   0  0  0  0  0  0  0  0  0  0  0  0
   21.1772    7.0239   32.2685 C   0  0  0  0  0  0  0  0  0  0  0  0
   27.2018   13.2272   27.4331 C   0  0  1  0  0  0  0  0  0  0  0  0
   22.2251    5.0737   30.2429 C   0  0  0  0  0  0  0  0  0  0  0  0
   24.3494    6.2184   30.8841 C   0  0  0  0  0  0  0  0  0  0  0  0
   28.5507   13.0504   23.6592 C   0  0  1  0  0  0  0  0  0  0  0  0
   24.0345   13.3098   28.7686 C   0  0  0  0  0  0  0  0  0  0  0  0
   25.8663   11.9912   29.9068 C   0  0  0  0  0  0  0  0  0  0  0  0
   20.7805    5.5356   32.2612 C   0  0  2  0  0  0  0  0  0  0  0  0
   20.8206    4.9673   30.8456 C   0  0  0  0  0  0  0  0  0  0  0  0
   30.0658   13.4112   23.6845 C   0  0  0  0  0  0  0  0  0  0  0  0
   22.5115   11.5738   29.9088 C   0  0  0  0  0  0  0  0  0  0  0  0
   19.4619    5.3739   32.7824 O   0  0  0  0  0  0  0  0  0  0  0  0
   22.5973   12.8521   29.0674 C   0  0  0  0  0  0  0  0  0  0  0  0
   26.8233   14.6825   27.7206 C   0  0  0  0  0  0  0  0  0  0  0  0
   28.3240   11.6948   22.9702 C   0  0  0  0  0  0  0  0  0  0  0  0
   30.9684   12.4022   24.4005 C   0  0  0  0  0  0  0  0  0  0  0  0
   30.3269   14.8354   24.1861 C   0  0  0  0  0  0  0  0  0  0  0  0
   23.6475   11.0575   27.3455 H   0  0  0  0  0  0  0  0  0  0  0  0
   25.3423   12.6032   26.5138 H   0  0  0  0  0  0  0  0  0  0  0  0
   21.6516    9.3946   31.2228 H   0  0  0  0  0  0  0  0  0  0  0  0
   23.7873    8.3810   29.2299 H   0  0  0  0  0  0  0  0  0  0  0  0
   29.1548   13.3609   26.4452 H   0  0  0  0  0  0  0  0  0  0  0  0
   26.6541   12.9632   24.7346 H   0  0  0  0  0  0  0  0  0  0  0  0
   24.9812    9.1437   27.0625 H   0  0  0  0  0  0  0  0  0  0  0  0
   25.8480    9.3712   28.5837 H   0  0  0  0  0  0  0  0  0  0  0  0
   27.3967   10.5844   27.4442 H   0  0  0  0  0  0  0  0  0  0  0  0
   26.4063   10.6179   25.9832 H   0  0  0  0  0  0  0  0  0  0  0  0
   21.5514    7.2789   33.2682 H   0  0  0  0  0  0  0  0  0  0  0  0
   20.2764    7.6350   32.1208 H   0  0  0  0  0  0  0  0  0  0  0  0
   27.8343   12.8808   28.2616 H   0  0  0  0  0  0  0  0  0  0  0  0
   22.7687    4.1465   30.4671 H   0  0  0  0  0  0  0  0  0  0  0  0
   22.1427    5.1353   29.1511 H   0  0  0  0  0  0  0  0  0  0  0  0
   24.9225    5.3530   30.5667 H   0  0  0  0  0  0  0  0  0  0  0  0
   24.9063    7.0513   31.3043 H   0  0  0  0  0  0  0  0  0  0  0  0
   28.0841   13.8038   23.0063 H   0  0  0  0  0  0  0  0  0  0  0  0
   24.3576   13.9776   29.5767 H   0  0  0  0  0  0  0  0  0  0  0  0
   24.0030   13.9314   27.8656 H   0  0  0  0  0  0  0  0  0  0  0  0
   26.6107   11.1919   29.8398 H   0  0  0  0  0  0  0  0  0  0  0  0
   26.4061   12.9129   30.1475 H   0  0  0  0  0  0  0  0  0  0  0  0
   25.2307   11.7704   30.7692 H   0  0  0  0  0  0  0  0  0  0  0  0
   21.4603    4.9621   32.9040 H   0  0  0  0  0  0  0  0  0  0  0  0
   20.4834    3.9234   30.8383 H   0  0  0  0  0  0  0  0  0  0  0  0
   20.1012    5.5074   30.2150 H   0  0  0  0  0  0  0  0  0  0  0  0
   30.3932   13.4087   22.6341 H   0  0  0  0  0  0  0  0  0  0  0  0
   21.4534   11.2988   29.9898 H   0  0  0  0  0  0  0  0  0  0  0  0
   22.8774   11.7884   30.9198 H   0  0  0  0  0  0  0  0  0  0  0  0
   19.4689    5.7029   33.6976 H   0  0  0  0  0  0  0  0  0  0  0  0
   22.0755   12.6855   28.1155 H   0  0  0  0  0  0  0  0  0  0  0  0
   22.0550   13.6625   29.5689 H   0  0  0  0  0  0  0  0  0  0  0  0
   26.3762   14.7940   28.7109 H   0  0  0  0  0  0  0  0  0  0  0  0
   27.7059   15.3327   27.7007 H   0  0  0  0  0  0  0  0  0  0  0  0
   26.1131   15.0631   26.9781 H   0  0  0  0  0  0  0  0  0  0  0  0
   28.6498   10.8593   23.5993 H   0  0  0  0  0  0  0  0  0  0  0  0
   28.8659   11.6412   22.0198 H   0  0  0  0  0  0  0  0  0  0  0  0
   27.2613   11.5424   22.7477 H   0  0  0  0  0  0  0  0  0  0  0  0
   30.8893   11.4077   23.9503 H   0  0  0  0  0  0  0  0  0  0  0  0
   32.0178   12.7061   24.3151 H   0  0  0  0  0  0  0  0  0  0  0  0
   30.7423   12.3098   25.4639 H   0  0  0  0  0  0  0  0  0  0  0  0
   29.6908   15.5555   23.6611 H   0  0  0  0  0  0  0  0  0  0  0  0
   31.3684   15.1194   23.9974 H   0  0  0  0  0  0  0  0  0  0  0  0
   30.1516   14.9444   25.2587 H   0  0  0  0  0  0  0  0  0  0  0  0
  2  1  1  0
  3  5  2  0
  4  1  1  0
  5  8  1  0
  6  3  1  0
  7  2  1  0
  8  7  2  0
  9 14  1  0
 10  9  2  0
  2 11  1  0
  4 12  1  0
 13  3  1  0
 14  4  1  0
 15  6  1  0
 16  6  2  0
 17 10  1  0
 18  1  1  0
  1 19  1  6
 20 13  1  0
 21 20  1  0
 22 17  1  0
 23  7  1  0
 20 24  1  0
 25 18  1  0
 14 26  1  0
 17 27  1  0
 28 22  1  0
 29 22  1  0
 23 25  1  0
 12 11  1  0
 15 21  1  0
  2 30  1  1
  4 31  1  1
  5 32  1  0
  8 33  1  0
  9 34  1  0
 10 35  1  0
 11 36  1  0
 11 37  1  0
 12 38  1  0
 12 39  1  0
 13 40  1  0
 13 41  1  0
 14 42  1  6
 15 43  1  0
 15 44  1  0
 16 45  1  0
 16 46  1  0
 17 47  1  6
 18 48  1  0
 18 49  1  0
 19 50  1  0
 19 51  1  0
 19 52  1  0
 20 53  1  1
 21 54  1  0
 21 55  1  0
 22 56  1  0
 23 57  1  0
 23 58  1  0
 24 59  1  0
 25 60  1  0
 25 61  1  0
 26 62  1  0
 26 63  1  0
 26 64  1  0
 27 65  1  0
 27 66  1  0
 27 67  1  0
 28 68  1  0
 28 69  1  0
 28 70  1  0
 29 71  1  0
 29 72  1  0
 29 73  1  0
M  END
> <Uni-Dock RESULT> 
ENERGY=   -3.963  LOWER_BOUND=    0.000  UPPER_BOUND=    0.000
INTER + INTRA:          -3.963
INTER:                  -3.963
INTRA:                   0.000
UNBOUND:                 0.000

$$$$

     RDKit          3D

 73 75  0  0  1  0  0  0  0  0999 V2000
   25.0271   12.1328   28.6266 C   0  0  1  0  0  0  0  0  0  0  0  0
   24.2503   10.8409   28.2474 C   0  0  2  0  0  0  0  0  0  0  0  0
   22.1892    7.3670   31.2242 C   0  0  0  0  0  0  0  0  0  0  0  0
   25.9586   12.2668   27.3787 C   0  0  2  0  0  0  0  0  0  0  0  0
   22.2844    8.6368   30.7779 C   0  0  0  0  0  0  0  0  0  0  0  0
   22.9770    6.2355   30.7485 C   0  0  0  0  0  0  0  0  0  0  0  0
   23.2869   10.4084   29.3353 C   0  0  0  0  0  0  0  0  0  0  0  0
   23.1623    9.1260   29.7319 C   0  0  0  0  0  0  0  0  0  0  0  0
   28.0931   13.2107   26.2413 C   0  0  0  0  0  0  0  0  0  0  0  0
   27.7088   13.0733   24.9624 C   0  0  0  0  0  0  0  0  0  0  0  0
   25.3465    9.8915   27.7633 C   0  0  0  0  0  0  0  0  0  0  0  0
   26.3737   10.7998   27.0800 C   0  0  0  0  0  0  0  0  0  0  0  0
   21.1424    6.9991   32.2598 C   0  0  0  0  0  0  0  0  0  0  0  0
   27.1884   13.2141   27.4663 C   0  0  1  0  0  0  0  0  0  0  0  0
   22.1858    5.0583   30.2230 C   0  0  0  0  0  0  0  0  0  0  0  0
   24.3131    6.1927   30.8725 C   0  0  0  0  0  0  0  0  0  0  0  0
   28.5391   13.0565   23.6923 C   0  0  1  0  0  0  0  0  0  0  0  0
   24.0206   13.2979   28.8004 C   0  0  0  0  0  0  0  0  0  0  0  0
   25.8477   11.9669   29.9316 C   0  0  0  0  0  0  0  0  0  0  0  0
   20.7413    5.5121   32.2432 C   0  0  2  0  0  0  0  0  0  0  0  0
   20.7806    4.9523   30.8241 C   0  0  0  0  0  0  0  0  0  0  0  0
   30.0553   13.4126   23.7207 C   0  0  0  0  0  0  0  0  0  0  0  0
   22.4916   11.5594   29.9290 C   0  0  0  0  0  0  0  0  0  0  0  0
   19.4219    5.3511   32.7626 O   0  0  0  0  0  0  0  0  0  0  0  0
   22.5817   12.8427   29.0955 C   0  0  0  0  0  0  0  0  0  0  0  0
   26.8140   14.6687   27.7625 C   0  0  0  0  0  0  0  0  0  0  0  0
   28.3088   11.7058   22.9947 C   0  0  0  0  0  0  0  0  0  0  0  0
   30.9544   12.3966   24.4310 C   0  0  0  0  0  0  0  0  0  0  0  0
   30.3203   14.8329   24.2312 C   0  0  0  0  0  0  0  0  0  0  0  0
   23.6277   11.0556   27.3633 H   0  0  0  0  0  0  0  0  0  0  0  0
   25.3276   12.6013   26.5421 H   0  0  0  0  0  0  0  0  0  0  0  0
   21.6245    9.3748   31.2291 H   0  0  0  0  0  0  0  0  0  0  0  0
   23.7584    8.3671   29.2313 H   0  0  0  0  0  0  0  0  0  0  0  0
   29.1424   13.3481   26.4804 H   0  0  0  0  0  0  0  0  0  0  0  0
   26.6416   12.9683   24.7659 H   0  0  0  0  0  0  0  0  0  0  0  0
   24.9560    9.1396   27.0693 H   0  0  0  0  0  0  0  0  0  0  0  0
   25.8225    9.3552   28.5924 H   0  0  0  0  0  0  0  0  0  0  0  0
   27.3755   10.5707   27.4613 H   0  0  0  0  0  0  0  0  0  0  0  0
   26.3860   10.6162   26.0000 H   0  0  0  0  0  0  0  0  0  0  0  0
   21.5167    7.2469   33.2614 H   0  0  0  0  0  0  0  0  0  0  0  0
   20.2435    7.6138   32.1154 H   0  0  0  0  0  0  0  0  0  0  0  0
   27.8193   12.8607   28.2931 H   0  0  0  0  0  0  0  0  0  0  0  0
   22.7265    4.1281   30.4418 H   0  0  0  0  0  0  0  0  0  0  0  0
   22.1042    5.1269   29.1315 H   0  0  0  0  0  0  0  0  0  0  0  0
   24.8838    5.3276   30.5501 H   0  0  0  0  0  0  0  0  0  0  0  0
   24.8722    7.0214   31.2981 H   0  0  0  0  0  0  0  0  0  0  0  0
   28.0751   13.8153   23.0437 H   0  0  0  0  0  0  0  0  0  0  0  0
   24.3451   13.9598   29.6128 H   0  0  0  0  0  0  0  0  0  0  0  0
   23.9915   13.9252   27.9013 H   0  0  0  0  0  0  0  0  0  0  0  0
   26.5897   11.1659   29.8601 H   0  0  0  0  0  0  0  0  0  0  0  0
   26.3900   12.8855   30.1783 H   0  0  0  0  0  0  0  0  0  0  0  0
   25.2109   11.7427   30.7922 H   0  0  0  0  0  0  0  0  0  0  0  0
   21.4190    4.9326   32.8828 H   0  0  0  0  0  0  0  0  0  0  0  0
   20.4403    3.9096   30.8102 H   0  0  0  0  0  0  0  0  0  0  0  0
   20.0632    5.4985   30.1964 H   0  0  0  0  0  0  0  0  0  0  0  0
   30.3833   13.4156   22.6705 H   0  0  0  0  0  0  0  0  0  0  0  0
   21.4327   11.2871   30.0077 H   0  0  0  0  0  0  0  0  0  0  0  0
   22.8575   11.7668   30.9415 H   0  0  0  0  0  0  0  0  0  0  0  0
   19.4294    5.6745   33.6798 H   0  0  0  0  0  0  0  0  0  0  0  0
   22.0601   12.6834   28.1423 H   0  0  0  0  0  0  0  0  0  0  0  0
   22.0416   13.6515   29.6017 H   0  0  0  0  0  0  0  0  0  0  0  0
   26.3667   14.7755   28.7533 H   0  0  0  0  0  0  0  0  0  0  0  0
   27.6986   15.3164   27.7472 H   0  0  0  0  0  0  0  0  0  0  0  0
   26.1054   15.0560   27.0220 H   0  0  0  0  0  0  0  0  0  0  0  0
   28.6317   10.8656   23.6190 H   0  0  0  0  0  0  0  0  0  0  0  0
   28.8511   11.6564   22.0444 H   0  0  0  0  0  0  0  0  0  0  0  0
   27.2459   11.5579   22.7707 H   0  0  0  0  0  0  0  0  0  0  0  0
   30.8727   11.4051   23.9746 H   0  0  0  0  0  0  0  0  0  0  0  0
   32.0047   12.6979   24.3481 H   0  0  0  0  0  0  0  0  0  0  0  0
   30.7274   12.2983   25.4936 H   0  0  0  0  0  0  0  0  0  0  0  0
   29.6866   15.5582   23.7102 H   0  0  0  0  0  0  0  0  0  0  0  0
   31.3627   15.1150   24.0448 H   0  0  0  0  0  0  0  0  0  0  0  0
   30.1446   14.9359   25.3043 H   0  0  0  0  0  0  0  0  0  0  0  0
  2  1  1  0
  3  5  2  0
  4  1  1  0
  5  8  1  0
  6  3  1  0
  7  2  1  0
  8  7  2  0
  9 14  1  0
 10  9  2  0
  2 11  1  0
  4 12  1  0
 13  3  1  0
 14  4  1  0
 15  6  1  0
 16  6  2  0
 17 10  1  0
 18  1  1  0
  1 19  1  6
 20 13  1  0
 21 20  1  0
 22 17  1  0
 23  7  1  0
 20 24  1  0
 25 18  1  0
 14 26  1  0
 17 27  1  0
 28 22  1  0
 29 22  1  0
 23 25  1  0
 12 11  1  0
 15 21  1  0
  2 30  1  1
  4 31  1  1
  5 32  1  0
  8 33  1  0
  9 34  1  0
 10 35  1  0
 11 36  1  0
 11 37  1  0
 12 38  1  0
 12 39  1  0
 13 40  1  0
 13 41  1  0
 14 42  1  6
 15 43  1  0
 15 44  1  0
 16 45  1  0
 16 46  1  0
 17 47  1  6
 18 48  1  0
 18 49  1  0
 19 50  1  0
 19 51  1  0
 19 52  1  0
 20 53  1  1
 21 54  1  0
 21 55  1  0
 22 56  1  0
 23 57  1  0
 23 58  1  0
 24 59  1  0
 25 60  1  0
 25 61  1  0
 26 62  1  0
 26 63  1  0
 26 64  1  0
 27 65  1  0
 27 66  1  0
 27 67  1  0
 28 68  1  0
 28 69  1  0
 28 70  1  0
 29 71  1  0
 29 72  1  0
 29 73  1  0
M  END
> <Uni-Dock RESULT> 
ENERGY=   -3.962  LOWER_BOUND=    0.038  UPPER_BOUND=    0.038
INTER + INTRA:          -3.962
INTER:                  -3.962
INTRA:                   0.000
UNBOUND:                 0.000

$$$$

     RDKit          3D

 73 75  0  0  1  0  0  0  0  0999 V2000
   27.8871   11.6739   28.7378 C   0  0  1  0  0  0  0  0  0  0  0  0
   27.2212   10.3116   28.3956 C   0  0  2  0  0  0  0  0  0  0  0  0
   23.1155    8.1871   30.3468 C   0  0  0  0  0  0  0  0  0  0  0  0
   29.3739   11.3468   28.3840 C   0  0  2  0  0  0  0  0  0  0  0  0
   23.7265    9.1899   29.6820 C   0  0  0  0  0  0  0  0  0  0  0  0
   23.7638    6.9853   30.8591 C   0  0  0  0  0  0  0  0  0  0  0  0
   25.7381   10.3007   28.7105 C   0  0  0  0  0  0  0  0  0  0  0  0
   25.1305    9.2664   29.3256 C   0  0  0  0  0  0  0  0  0  0  0  0
   31.9124   11.8475   28.6000 C   0  0  0  0  0  0  0  0  0  0  0  0
   32.3299   11.2164   27.4911 C   0  0  0  0  0  0  0  0  0  0  0  0
   28.1550    9.2843   29.0359 C   0  0  0  0  0  0  0  0  0  0  0  0
   29.5546    9.8917   28.8977 C   0  0  0  0  0  0  0  0  0  0  0  0
   21.6118    8.2132   30.5518 C   0  0  0  0  0  0  0  0  0  0  0  0
   30.4896   12.2933   28.9102 C   0  0  1  0  0  0  0  0  0  0  0  0
   23.1971    5.6721   30.3668 C   0  0  0  0  0  0  0  0  0  0  0  0
   24.7264    7.0359   31.7936 C   0  0  0  0  0  0  0  0  0  0  0  0
   33.7180   10.7385   27.1066 C   0  0  1  0  0  0  0  0  0  0  0  0
   27.2516   12.7836   27.8629 C   0  0  0  0  0  0  0  0  0  0  0  0
   27.7294   12.0490   30.2339 C   0  0  0  0  0  0  0  0  0  0  0  0
   20.9853    6.8224   30.7649 C   0  0  2  0  0  0  0  0  0  0  0  0
   21.7242    5.7612   29.9547 C   0  0  0  0  0  0  0  0  0  0  0  0
   34.9638   11.1260   27.9577 C   0  0  0  0  0  0  0  0  0  0  0  0
   25.0192   11.5658   28.2716 C   0  0  0  0  0  0  0  0  0  0  0  0
   19.6153    6.8319   30.3654 O   0  0  0  0  0  0  0  0  0  0  0  0
   25.8555   12.4316   27.3228 C   0  0  0  0  0  0  0  0  0  0  0  0
   30.3395   13.7373   28.4241 C   0  0  0  0  0  0  0  0  0  0  0  0
   33.6527    9.2169   26.8963 C   0  0  0  0  0  0  0  0  0  0  0  0
   35.0307   10.4906   29.3494 C   0  0  0  0  0  0  0  0  0  0  0  0
   35.1807   12.6410   28.0338 C   0  0  0  0  0  0  0  0  0  0  0  0
   27.2981   10.1497   27.3078 H   0  0  0  0  0  0  0  0  0  0  0  0
   29.4425   11.3134   27.2867 H   0  0  0  0  0  0  0  0  0  0  0  0
   23.1070   10.0233   29.3575 H   0  0  0  0  0  0  0  0  0  0  0  0
   25.7245    8.3927   29.5817 H   0  0  0  0  0  0  0  0  0  0  0  0
   32.6225   12.0995   29.3805 H   0  0  0  0  0  0  0  0  0  0  0  0
   31.5878   11.0102   26.7195 H   0  0  0  0  0  0  0  0  0  0  0  0
   28.0924    8.3113   28.5370 H   0  0  0  0  0  0  0  0  0  0  0  0
   27.9259    9.1236   30.0957 H   0  0  0  0  0  0  0  0  0  0  0  0
   30.0650    9.8589   29.8672 H   0  0  0  0  0  0  0  0  0  0  0  0
   30.1559    9.3072   28.1927 H   0  0  0  0  0  0  0  0  0  0  0  0
   21.3725    8.8389   31.4212 H   0  0  0  0  0  0  0  0  0  0  0  0
   21.1271    8.6961   29.6925 H   0  0  0  0  0  0  0  0  0  0  0  0
   30.4227   12.3055   30.0065 H   0  0  0  0  0  0  0  0  0  0  0  0
   23.2899    4.9154   31.1569 H   0  0  0  0  0  0  0  0  0  0  0  0
   23.7865    5.3128   29.5146 H   0  0  0  0  0  0  0  0  0  0  0  0
   25.1731    6.1319   32.1951 H   0  0  0  0  0  0  0  0  0  0  0  0
   25.0944    7.9818   32.1813 H   0  0  0  0  0  0  0  0  0  0  0  0
   33.8993   11.1742   26.1122 H   0  0  0  0  0  0  0  0  0  0  0  0
   27.1739   13.7170   28.4340 H   0  0  0  0  0  0  0  0  0  0  0  0
   27.8907   13.0153   27.0024 H   0  0  0  0  0  0  0  0  0  0  0  0
   28.1774   11.3060   30.9008 H   0  0  0  0  0  0  0  0  0  0  0  0
   28.2085   13.0084   30.4546 H   0  0  0  0  0  0  0  0  0  0  0  0
   26.6798   12.1531   30.5234 H   0  0  0  0  0  0  0  0  0  0  0  0
   21.0152    6.5554   31.8289 H   0  0  0  0  0  0  0  0  0  0  0  0
   21.2400    4.7831   30.0657 H   0  0  0  0  0  0  0  0  0  0  0  0
   21.6491    6.0007   28.8851 H   0  0  0  0  0  0  0  0  0  0  0  0
   35.8349   10.7351   27.4110 H   0  0  0  0  0  0  0  0  0  0  0  0
   24.0864   11.3113   27.7551 H   0  0  0  0  0  0  0  0  0  0  0  0
   24.7582   12.1582   29.1565 H   0  0  0  0  0  0  0  0  0  0  0  0
   19.1550    7.4833   30.9218 H   0  0  0  0  0  0  0  0  0  0  0  0
   25.9706   11.9014   26.3679 H   0  0  0  0  0  0  0  0  0  0  0  0
   25.3130   13.3554   27.0895 H   0  0  0  0  0  0  0  0  0  0  0  0
   29.4337   14.2028   28.8189 H   0  0  0  0  0  0  0  0  0  0  0  0
   31.1805   14.3569   28.7574 H   0  0  0  0  0  0  0  0  0  0  0  0
   30.3027   13.7872   27.3302 H   0  0  0  0  0  0  0  0  0  0  0  0
   33.3577    8.6922   27.8115 H   0  0  0  0  0  0  0  0  0  0  0  0
   34.6215    8.8228   26.5712 H   0  0  0  0  0  0  0  0  0  0  0  0
   32.9207    8.9606   26.1214 H   0  0  0  0  0  0  0  0  0  0  0  0
   35.0185    9.3978   29.2892 H   0  0  0  0  0  0  0  0  0  0  0  0
   35.9656   10.7699   29.8483 H   0  0  0  0  0  0  0  0  0  0  0  0
   34.2105   10.8016   29.9983 H   0  0  0  0  0  0  0  0  0  0  0  0
   35.1474   13.0895   27.0355 H   0  0  0  0  0  0  0  0  0  0  0  0
   36.1657   12.8626   28.4600 H   0  0  0  0  0  0  0  0  0  0  0  0
   34.4383   13.1434   28.6579 H   0  0  0  0  0  0  0  0  0  0  0  0
  2  1  1  0
  3  5  2  0
  4  1  1  0
  5  8  1  0
  6  3  1  0
  7  2  1  0
  8  7  2  0
  9 14  1  0
 10  9  2  0
  2 11  1  0
  4 12  1  0
 13  3  1  0
 14  4  1  0
 15  6  1  0
 16  6  2  0
 17 10  1  0
 18  1  1  0
  1 19  1  6
 20 13  1  0
 21 20  1  0
 22 17  1  0
 23  7  1  0
 20 24  1  0
 25 18  1  0
 14 26  1  0
 17 27  1  0
 28 22  1  0
 29 22  1  0
 23 25  1  0
 12 11  1  0
 15 21  1  0
  2 30  1  1
  4 31  1  1
  5 32  1  0
  8 33  1  0
  9 34  1  0
 10 35  1  0
 11 36  1  0
 11 37  1  0
 12 38  1  0
 12 39  1  0
 13 40  1  0
 13 41  1  0
 14 42  1  6
 15 43  1  0
 15 44  1  0
 16 45  1  0
 16 46  1  0
 17 47  1  6
 18 48  1  0
 18 49  1  0
 19 50  1  0
 19 51  1  0
 19 52  1  0
 20 53  1  1
 21 54  1  0
 21 55  1  0
 22 56  1  0
 23 57  1  0
 23 58  1  0
 24 59  1  0
 25 60  1  0
 25 61  1  0
 26 62  1  0
 26 63  1  0
 26 64  1  0
 27 65  1  0
 27 66  1  0
 27 67  1  0
 28 68  1  0
 28 69  1  0
 28 70  1  0
 29 71  1  0
 29 72  1  0
 29 73  1  0
M  END
> <Uni-Dock RESULT> 
ENERGY=   -3.885  LOWER_BOUND=    3.037  UPPER_BOUND=    3.902
INTER + INTRA:          -3.885
INTER:                  -3.885
INTRA:                   0.000
UNBOUND:                 0.000

$$$$

     RDKit          3D

 73 75  0  0  1  0  0  0  0  0999 V2000
   26.4754   10.3716   29.8167 C   0  0  1  0  0  0  0  0  0  0  0  0
   26.7727    9.8926   28.3682 C   0  0  2  0  0  0  0  0  0  0  0  0
   29.2964   12.2029   24.6979 C   0  0  0  0  0  0  0  0  0  0  0  0
   25.1303    9.6209   30.0813 C   0  0  2  0  0  0  0  0  0  0  0  0
   29.2357   11.6600   25.9317 C   0  0  0  0  0  0  0  0  0  0  0  0
   28.1983   12.2668   23.7403 C   0  0  0  0  0  0  0  0  0  0  0  0
   28.0246   10.5292   27.7970 C   0  0  0  0  0  0  0  0  0  0  0  0
   28.0874   11.0171   26.5418 C   0  0  0  0  0  0  0  0  0  0  0  0
   22.9112    9.3549   31.4025 C   0  0  0  0  0  0  0  0  0  0  0  0
   22.6671    8.0665   31.1150 C   0  0  0  0  0  0  0  0  0  0  0  0
   25.4300   10.0515   27.6545 C   0  0  0  0  0  0  0  0  0  0  0  0
   24.3808    9.7362   28.7253 C   0  0  0  0  0  0  0  0  0  0  0  0
   30.6103   12.7486   24.1688 C   0  0  0  0  0  0  0  0  0  0  0  0
   24.2463   10.0766   31.2764 C   0  0  1  0  0  0  0  0  0  0  0  0
   28.4641   11.6340   22.3923 C   0  0  0  0  0  0  0  0  0  0  0  0
   27.0661   12.9414   23.9956 C   0  0  0  0  0  0  0  0  0  0  0  0
   21.3756    7.2752   31.2094 C   0  0  1  0  0  0  0  0  0  0  0  0
   27.6403    9.9407   30.7431 C   0  0  0  0  0  0  0  0  0  0  0  0
   26.2937   11.9089   29.9048 C   0  0  0  0  0  0  0  0  0  0  0  0
   30.7010   12.7797   22.6316 C   0  0  2  0  0  0  0  0  0  0  0  0
   29.9491   11.6027   22.0168 C   0  0  0  0  0  0  0  0  0  0  0  0
   20.1112    7.8819   31.8874 C   0  0  0  0  0  0  0  0  0  0  0  0
   29.1843   10.5653   28.7786 C   0  0  0  0  0  0  0  0  0  0  0  0
   32.0651   12.7187   22.2165 O   0  0  0  0  0  0  0  0  0  0  0  0
   28.9609    9.6709   30.0031 C   0  0  0  0  0  0  0  0  0  0  0  0
   24.9567    9.9777   32.6290 C   0  0  0  0  0  0  0  0  0  0  0  0
   21.0412    6.7468   29.8048 C   0  0  0  0  0  0  0  0  0  0  0  0
   19.4537    9.0401   31.1314 C   0  0  0  0  0  0  0  0  0  0  0  0
   20.3452    8.2470   33.3571 C   0  0  0  0  0  0  0  0  0  0  0  0
   26.9722    8.8087   28.3937 H   0  0  0  0  0  0  0  0  0  0  0  0
   25.3787    8.5589   30.2243 H   0  0  0  0  0  0  0  0  0  0  0  0
   30.1426   11.6839   26.5323 H   0  0  0  0  0  0  0  0  0  0  0  0
   27.2116   10.9253   25.9043 H   0  0  0  0  0  0  0  0  0  0  0  0
   22.1135    9.9874   31.7774 H   0  0  0  0  0  0  0  0  0  0  0  0
   23.5050    7.4601   30.7702 H   0  0  0  0  0  0  0  0  0  0  0  0
   25.3416    9.3735   26.7988 H   0  0  0  0  0  0  0  0  0  0  0  0
   25.2804   11.0709   27.2806 H   0  0  0  0  0  0  0  0  0  0  0  0
   23.6241   10.5291   28.7406 H   0  0  0  0  0  0  0  0  0  0  0  0
   23.8657    8.7985   28.4899 H   0  0  0  0  0  0  0  0  0  0  0  0
   30.7608   13.7681   24.5464 H   0  0  0  0  0  0  0  0  0  0  0  0
   31.4461   12.1559   24.5646 H   0  0  0  0  0  0  0  0  0  0  0  0
   23.9904   11.1324   31.1144 H   0  0  0  0  0  0  0  0  0  0  0  0
   27.9225   12.1893   21.6152 H   0  0  0  0  0  0  0  0  0  0  0  0
   28.0702   10.6105   22.3816 H   0  0  0  0  0  0  0  0  0  0  0  0
   26.2725   13.0142   23.2587 H   0  0  0  0  0  0  0  0  0  0  0  0
   26.9015   13.4378   24.9479 H   0  0  0  0  0  0  0  0  0  0  0  0
   21.6319    6.3908   31.8126 H   0  0  0  0  0  0  0  0  0  0  0  0
   27.8233   10.7103   31.5031 H   0  0  0  0  0  0  0  0  0  0  0  0
   27.3805    9.0317   31.2988 H   0  0  0  0  0  0  0  0  0  0  0  0
   25.4696   12.2690   29.2814 H   0  0  0  0  0  0  0  0  0  0  0  0
   26.0811   12.2247   30.9313 H   0  0  0  0  0  0  0  0  0  0  0  0
   27.1937   12.4478   29.5951 H   0  0  0  0  0  0  0  0  0  0  0  0
   30.2831   13.7195   22.2490 H   0  0  0  0  0  0  0  0  0  0  0  0
   30.0639   11.5979   20.9258 H   0  0  0  0  0  0  0  0  0  0  0  0
   30.4015   10.6618   22.3588 H   0  0  0  0  0  0  0  0  0  0  0  0
   19.3627    7.0757   31.9040 H   0  0  0  0  0  0  0  0  0  0  0  0
   30.1064   10.2334   28.2875 H   0  0  0  0  0  0  0  0  0  0  0  0
   29.3402   11.5970   29.1156 H   0  0  0  0  0  0  0  0  0  0  0  0
   32.5155   13.4986   22.5835 H   0  0  0  0  0  0  0  0  0  0  0  0
   28.9768    8.6206   29.6824 H   0  0  0  0  0  0  0  0  0  0  0  0
   29.7983    9.7839   30.7018 H   0  0  0  0  0  0  0  0  0  0  0  0
   25.8034   10.6650   32.6902 H   0  0  0  0  0  0  0  0  0  0  0  0
   24.2808   10.2399   33.4515 H   0  0  0  0  0  0  0  0  0  0  0  0
   25.3247    8.9620   32.8120 H   0  0  0  0  0  0  0  0  0  0  0  0
   20.8848    7.5622   29.0903 H   0  0  0  0  0  0  0  0  0  0  0  0
   20.1382    6.1272   29.8224 H   0  0  0  0  0  0  0  0  0  0  0  0
   21.8558    6.1237   29.4175 H   0  0  0  0  0  0  0  0  0  0  0  0
   19.1555    8.7386   30.1223 H   0  0  0  0  0  0  0  0  0  0  0  0
   18.5423    9.3605   31.6486 H   0  0  0  0  0  0  0  0  0  0  0  0
   20.1022    9.9133   31.0445 H   0  0  0  0  0  0  0  0  0  0  0  0
   20.8013    7.4111   33.8977 H   0  0  0  0  0  0  0  0  0  0  0  0
   19.3922    8.4740   33.8483 H   0  0  0  0  0  0  0  0  0  0  0  0
   20.9875    9.1220   33.4781 H   0  0  0  0  0  0  0  0  0  0  0  0
  2  1  1  0
  3  5  2  0
  4  1  1  0
  5  8  1  0
  6  3  1  0
  7  2  1  0
  8  7  2  0
  9 14  1  0
 10  9  2  0
  2 11  1  0
  4 12  1  0
 13  3  1  0
 14  4  1  0
 15  6  1  0
 16  6  2  0
 17 10  1  0
 18  1  1  0
  1 19  1  6
 20 13  1  0
 21 20  1  0
 22 17  1  0
 23  7  1  0
 20 24  1  0
 25 18  1  0
 14 26  1  0
 17 27  1  0
 28 22  1  0
 29 22  1  0
 23 25  1  0
 12 11  1  0
 15 21  1  0
  2 30  1  1
  4 31  1  1
  5 32  1  0
  8 33  1  0
  9 34  1  0
 10 35  1  0
 11 36  1  0
 11 37  1  0
 12 38  1  0
 12 39  1  0
 13 40  1  0
 13 41  1  0
 14 42  1  6
 15 43  1  0
 15 44  1  0
 16 45  1  0
 16 46  1  0
 17 47  1  6
 18 48  1  0
 18 49  1  0
 19 50  1  0
 19 51  1  0
 19 52  1  0
 20 53  1  1
 21 54  1  0
 21 55  1  0
 22 56  1  0
 23 57  1  0
 23 58  1  0
 24 59  1  0
 25 60  1  0
 25 61  1  0
 26 62  1  0
 26 63  1  0
 26 64  1  0
 27 65  1  0
 27 66  1  0
 27 67  1  0
 28 68  1  0
 28 69  1  0
 28 70  1  0
 29 71  1  0
 29 72  1  0
 29 73  1  0
M  END
> <Uni-Dock RESULT> 
ENERGY=   -3.832  LOWER_BOUND=    3.837  UPPER_BOUND=    9.930
INTER + INTRA:          -3.832
INTER:                  -3.832
INTRA:                   0.000
UNBOUND:                 0.000

$$$$

     RDKit          3D

 73 75  0  0  1  0  0  0  0  0999 V2000
   32.3839    8.3725   29.6451 C   0  0  1  0  0  0  0  0  0  0  0  0
   32.5136    8.5169   28.1028 C   0  0  2  0  0  0  0  0  0  0  0  0
   32.7986   12.6686   25.2993 C   0  0  0  0  0  0  0  0  0  0  0  0
   31.6197    7.0116   29.7279 C   0  0  2  0  0  0  0  0  0  0  0  0
   33.2786   11.8585   26.2658 C   0  0  0  0  0  0  0  0  0  0  0  0
   31.5967   12.4314   24.5080 C   0  0  0  0  0  0  0  0  0  0  0  0
   33.1762    9.8200   27.7005 C   0  0  0  0  0  0  0  0  0  0  0  0
   32.7175   10.5915   26.6946 C   0  0  0  0  0  0  0  0  0  0  0  0
   30.1329    5.3289   31.0314 C   0  0  0  0  0  0  0  0  0  0  0  0
   30.4295    4.2235   30.3297 C   0  0  0  0  0  0  0  0  0  0  0  0
   31.1155    8.1701   27.5905 C   0  0  0  0  0  0  0  0  0  0  0  0
   30.6021    7.0982   28.5571 C   0  0  0  0  0  0  0  0  0  0  0  0
   33.5651   13.9163   24.8999 C   0  0  0  0  0  0  0  0  0  0  0  0
   30.9341    6.6235   31.0684 C   0  0  1  0  0  0  0  0  0  0  0  0
   31.7915   12.4063   23.0082 C   0  0  0  0  0  0  0  0  0  0  0  0
   30.3780   12.3531   25.0658 C   0  0  0  0  0  0  0  0  0  0  0  0
   29.6896    2.9019   30.2355 C   0  0  1  0  0  0  0  0  0  0  0  0
   33.7999    8.3492   30.2737 C   0  0  0  0  0  0  0  0  0  0  0  0
   31.5617    9.5241   30.2790 C   0  0  0  0  0  0  0  0  0  0  0  0
   33.2680   14.4017   23.4686 C   0  0  2  0  0  0  0  0  0  0  0  0
   32.9993   13.2229   22.5376 C   0  0  0  0  0  0  0  0  0  0  0  0
   28.4866    2.5878   31.1739 C   0  0  0  0  0  0  0  0  0  0  0  0
   34.3923   10.1638   28.5446 C   0  0  0  0  0  0  0  0  0  0  0  0
   34.3754   15.1441   22.9595 O   0  0  0  0  0  0  0  0  0  0  0  0
   34.8865    8.9855   29.3912 C   0  0  0  0  0  0  0  0  0  0  0  0
   31.9098    6.5319   32.2446 C   0  0  0  0  0  0  0  0  0  0  0  0
   29.3062    2.6785   28.7635 C   0  0  0  0  0  0  0  0  0  0  0  0
   27.2242    3.4173   30.9218 C   0  0  0  0  0  0  0  0  0  0  0  0
   28.8714    2.6089   32.6570 C   0  0  0  0  0  0  0  0  0  0  0  0
   33.1755    7.7169   27.7324 H   0  0  0  0  0  0  0  0  0  0  0  0
   32.3416    6.2223   29.4714 H   0  0  0  0  0  0  0  0  0  0  0  0
   34.1923   12.1688   26.7684 H   0  0  0  0  0  0  0  0  0  0  0  0
   31.8523   10.2507   26.1315 H   0  0  0  0  0  0  0  0  0  0  0  0
   29.2501    5.3506   31.6616 H   0  0  0  0  0  0  0  0  0  0  0  0
   31.3424    4.2352   29.7338 H   0  0  0  0  0  0  0  0  0  0  0  0
   31.1404    7.7984   26.5606 H   0  0  0  0  0  0  0  0  0  0  0  0
   30.4435    9.0359   27.6094 H   0  0  0  0  0  0  0  0  0  0  0  0
   29.5985    7.3694   28.9046 H   0  0  0  0  0  0  0  0  0  0  0  0
   30.5203    6.1323   28.0467 H   0  0  0  0  0  0  0  0  0  0  0  0
   33.3290   14.7292   25.5985 H   0  0  0  0  0  0  0  0  0  0  0  0
   34.6443   13.7386   25.0006 H   0  0  0  0  0  0  0  0  0  0  0  0
   30.2039    7.4090   31.3056 H   0  0  0  0  0  0  0  0  0  0  0  0
   30.8933   12.8029   22.5168 H   0  0  0  0  0  0  0  0  0  0  0  0
   31.9055   11.3697   22.6687 H   0  0  0  0  0  0  0  0  0  0  0  0
   29.4870   12.2157   24.4614 H   0  0  0  0  0  0  0  0  0  0  0  0
   30.2384   12.4230   26.1410 H   0  0  0  0  0  0  0  0  0  0  0  0
   30.4474    2.1388   30.4703 H   0  0  0  0  0  0  0  0  0  0  0  0
   33.7932    8.8694   31.2395 H   0  0  0  0  0  0  0  0  0  0  0  0
   34.1118    7.3210   30.4934 H   0  0  0  0  0  0  0  0  0  0  0  0
   30.5428    9.5776   29.8834 H   0  0  0  0  0  0  0  0  0  0  0  0
   31.4787    9.4013   31.3637 H   0  0  0  0  0  0  0  0  0  0  0  0
   32.0255   10.5006   30.1124 H   0  0  0  0  0  0  0  0  0  0  0  0
   32.3978   15.0702   23.4712 H   0  0  0  0  0  0  0  0  0  0  0  0
   32.8440   13.5703   21.5087 H   0  0  0  0  0  0  0  0  0  0  0  0
   33.8902   12.5815   22.4943 H   0  0  0  0  0  0  0  0  0  0  0  0
   28.2039    1.5458   30.9621 H   0  0  0  0  0  0  0  0  0  0  0  0
   35.2211   10.4830   27.9021 H   0  0  0  0  0  0  0  0  0  0  0  0
   34.1458   11.0003   29.2091 H   0  0  0  0  0  0  0  0  0  0  0  0
   34.5026   15.9122   23.5423 H   0  0  0  0  0  0  0  0  0  0  0  0
   35.2934    8.2149   28.7228 H   0  0  0  0  0  0  0  0  0  0  0  0
   35.7235    9.3081   30.0218 H   0  0  0  0  0  0  0  0  0  0  0  0
   32.3486    7.5040   32.4803 H   0  0  0  0  0  0  0  0  0  0  0  0
   31.4026    6.1888   33.1542 H   0  0  0  0  0  0  0  0  0  0  0  0
   32.7237    5.8297   32.0328 H   0  0  0  0  0  0  0  0  0  0  0  0
   28.6393    3.4647   28.3932 H   0  0  0  0  0  0  0  0  0  0  0  0
   28.8072    1.7128   28.6292 H   0  0  0  0  0  0  0  0  0  0  0  0
   30.1966    2.6763   28.1238 H   0  0  0  0  0  0  0  0  0  0  0  0
   26.8639    3.2923   29.8959 H   0  0  0  0  0  0  0  0  0  0  0  0
   26.4159    3.0869   31.5839 H   0  0  0  0  0  0  0  0  0  0  0  0
   27.3741    4.4835   31.0989 H   0  0  0  0  0  0  0  0  0  0  0  0
   29.7654    2.0024   32.8357 H   0  0  0  0  0  0  0  0  0  0  0  0
   28.0628    2.1879   33.2651 H   0  0  0  0  0  0  0  0  0  0  0  0
   29.0640    3.6175   33.0293 H   0  0  0  0  0  0  0  0  0  0  0  0
  2  1  1  0
  3  5  2  0
  4  1  1  0
  5  8  1  0
  6  3  1  0
  7  2  1  0
  8  7  2  0
  9 14  1  0
 10  9  2  0
  2 11  1  0
  4 12  1  0
 13  3  1  0
 14  4  1  0
 15  6  1  0
 16  6  2  0
 17 10  1  0
 18  1  1  0
  1 19  1  6
 20 13  1  0
 21 20  1  0
 22 17  1  0
 23  7  1  0
 20 24  1  0
 25 18  1  0
 14 26  1  0
 17 27  1  0
 28 22  1  0
 29 22  1  0
 23 25  1  0
 12 11  1  0
 15 21  1  0
  2 30  1  1
  4 31  1  1
  5 32  1  0
  8 33  1  0
  9 34  1  0
 10 35  1  0
 11 36  1  0
 11 37  1  0
 12 38  1  0
 12 39  1  0
 13 40  1  0
 13 41  1  0
 14 42  1  6
 15 43  1  0
 15 44  1  0
 16 45  1  0
 16 46  1  0
 17 47  1  6
 18 48  1  0
 18 49  1  0
 19 50  1  0
 19 51  1  0
 19 52  1  0
 20 53  1  1
 21 54  1  0
 21 55  1  0
 22 56  1  0
 23 57  1  0
 23 58  1  0
 24 59  1  0
 25 60  1  0
 25 61  1  0
 26 62  1  0
 26 63  1  0
 26 64  1  0
 27 65  1  0
 27 66  1  0
 27 67  1  0
 28 68  1  0
 28 69  1  0
 28 70  1  0
 29 71  1  0
 29 72  1  0
 29 73  1  0
M  END
> <Uni-Dock RESULT> 
ENERGY=   -3.819  LOWER_BOUND=    6.813  UPPER_BOUND=   12.018
INTER + INTRA:          -3.819
INTER:                  -3.819
INTRA:                   0.000
UNBOUND:                 0.000

$$$$

     RDKit          3D

 73 75  0  0  1  0  0  0  0  0999 V2000
   27.1385   10.0095   29.0088 C   0  0  1  0  0  0  0  0  0  0  0  0
   26.6935   10.1777   27.5290 C   0  0  2  0  0  0  0  0  0  0  0  0
   27.4753   14.0025   24.3767 C   0  0  0  0  0  0  0  0  0  0  0  0
   25.9965    9.0799   29.5327 C   0  0  2  0  0  0  0  0  0  0  0  0
   27.9319   13.0119   25.1710 C   0  0  0  0  0  0  0  0  0  0  0  0
   26.0732   14.3261   24.1389 C   0  0  0  0  0  0  0  0  0  0  0  0
   27.6020   11.1151   26.7578 C   0  0  0  0  0  0  0  0  0  0  0  0
   27.1321   12.0642   25.9236 C   0  0  0  0  0  0  0  0  0  0  0  0
   24.6111    8.0826   31.4891 C   0  0  0  0  0  0  0  0  0  0  0  0
   24.1385    6.9959   30.8583 C   0  0  0  0  0  0  0  0  0  0  0  0
   25.1958   10.4658   27.6347 C   0  0  0  0  0  0  0  0  0  0  0  0
   24.7259    9.6446   28.8396 C   0  0  0  0  0  0  0  0  0  0  0  0
   28.4488   14.8468   23.5746 C   0  0  0  0  0  0  0  0  0  0  0  0
   25.8047    8.9298   31.0684 C   0  0  1  0  0  0  0  0  0  0  0  0
   25.6313   14.3108   22.6924 C   0  0  0  0  0  0  0  0  0  0  0  0
   25.2541   14.7224   25.1261 C   0  0  0  0  0  0  0  0  0  0  0  0
   22.9623    6.1023   31.2061 C   0  0  1  0  0  0  0  0  0  0  0  0
   28.5496    9.3705   29.0452 C   0  0  0  0  0  0  0  0  0  0  0  0
   27.1678   11.3579   29.7736 C   0  0  0  0  0  0  0  0  0  0  0  0
   27.8304   15.4939   22.3212 C   0  0  2  0  0  0  0  0  0  0  0  0
   26.7700   14.5857   21.7051 C   0  0  0  0  0  0  0  0  0  0  0  0
   22.2127    6.2555   32.5630 C   0  0  0  0  0  0  0  0  0  0  0  0
   29.0792   10.8796   27.0264 C   0  0  0  0  0  0  0  0  0  0  0  0
   28.8413   15.7447   21.3456 O   0  0  0  0  0  0  0  0  0  0  0  0
   29.3534    9.5551   27.7474 C   0  0  0  0  0  0  0  0  0  0  0  0
   27.0407    8.3774   31.7832 C   0  0  0  0  0  0  0  0  0  0  0  0
   21.9739    6.1423   30.0292 C   0  0  0  0  0  0  0  0  0  0  0  0
   21.3990    7.5431   32.7211 C   0  0  0  0  0  0  0  0  0  0  0  0
   23.1261    6.0302   33.7726 C   0  0  0  0  0  0  0  0  0  0  0  0
   26.7760    9.1996   27.0271 H   0  0  0  0  0  0  0  0  0  0  0  0
   26.1780    8.0803   29.1110 H   0  0  0  0  0  0  0  0  0  0  0  0
   29.0103   12.8900   25.2463 H   0  0  0  0  0  0  0  0  0  0  0  0
   26.0576   12.1419   25.7778 H   0  0  0  0  0  0  0  0  0  0  0  0
   24.1384    8.4279   32.4025 H   0  0  0  0  0  0  0  0  0  0  0  0
   24.6630    6.6667   29.9610 H   0  0  0  0  0  0  0  0  0  0  0  0
   24.6609   10.1774   26.7235 H   0  0  0  0  0  0  0  0  0  0  0  0
   24.9922   11.5283   27.8107 H   0  0  0  0  0  0  0  0  0  0  0  0
   24.1410   10.2830   29.5117 H   0  0  0  0  0  0  0  0  0  0  0  0
   24.0715    8.8289   28.5132 H   0  0  0  0  0  0  0  0  0  0  0  0
   28.8537   15.6427   24.2128 H   0  0  0  0  0  0  0  0  0  0  0  0
   29.3109   14.2362   23.2737 H   0  0  0  0  0  0  0  0  0  0  0  0
   25.6073    9.9305   31.4760 H   0  0  0  0  0  0  0  0  0  0  0  0
   24.8517   15.0690   22.5409 H   0  0  0  0  0  0  0  0  0  0  0  0
   25.1783   13.3405   22.4557 H   0  0  0  0  0  0  0  0  0  0  0  0
   24.2230   14.9983   24.9292 H   0  0  0  0  0  0  0  0  0  0  0  0
   25.5917   14.7806   26.1571 H   0  0  0  0  0  0  0  0  0  0  0  0
   23.3781    5.0832   31.2180 H   0  0  0  0  0  0  0  0  0  0  0  0
   29.1334    9.7903   29.8737 H   0  0  0  0  0  0  0  0  0  0  0  0
   28.4849    8.2940   29.2443 H   0  0  0  0  0  0  0  0  0  0  0  0
   26.1896   11.8478   29.7953 H   0  0  0  0  0  0  0  0  0  0  0  0
   27.4792   11.2171   30.8138 H   0  0  0  0  0  0  0  0  0  0  0  0
   27.8749   12.0660   29.3319 H   0  0  0  0  0  0  0  0  0  0  0  0
   27.3778   16.4593   22.5807 H   0  0  0  0  0  0  0  0  0  0  0  0
   26.3731   15.0256   20.7820 H   0  0  0  0  0  0  0  0  0  0  0  0
   27.2346   13.6390   21.3972 H   0  0  0  0  0  0  0  0  0  0  0  0
   21.4797    5.4356   32.5959 H   0  0  0  0  0  0  0  0  0  0  0  0
   29.6382   10.8675   26.0835 H   0  0  0  0  0  0  0  0  0  0  0  0
   29.4714   11.7033   27.6346 H   0  0  0  0  0  0  0  0  0  0  0  0
   29.4832   16.3575   21.7435 H   0  0  0  0  0  0  0  0  0  0  0  0
   29.1187    8.7259   27.0667 H   0  0  0  0  0  0  0  0  0  0  0  0
   30.4240    9.4684   27.9679 H   0  0  0  0  0  0  0  0  0  0  0  0
   27.8844    9.0682   31.7203 H   0  0  0  0  0  0  0  0  0  0  0  0
   26.8440    8.2203   32.8504 H   0  0  0  0  0  0  0  0  0  0  0  0
   27.3507    7.4167   31.3572 H   0  0  0  0  0  0  0  0  0  0  0  0
   21.5888    7.1531   29.8557 H   0  0  0  0  0  0  0  0  0  0  0  0
   21.1230    5.4761   30.2074 H   0  0  0  0  0  0  0  0  0  0  0  0
   22.4568    5.8122   29.1019 H   0  0  0  0  0  0  0  0  0  0  0  0
   20.6452    7.6371   31.9329 H   0  0  0  0  0  0  0  0  0  0  0  0
   20.8603    7.5356   33.6753 H   0  0  0  0  0  0  0  0  0  0  0  0
   22.0179    8.4415   32.7043 H   0  0  0  0  0  0  0  0  0  0  0  0
   23.6948    5.1009   33.6630 H   0  0  0  0  0  0  0  0  0  0  0  0
   22.5296    5.9434   34.6878 H   0  0  0  0  0  0  0  0  0  0  0  0
   23.8347    6.8473   33.9251 H   0  0  0  0  0  0  0  0  0  0  0  0
  2  1  1  0
  3  5  2  0
  4  1  1  0
  5  8  1  0
  6  3  1  0
  7  2  1  0
  8  7  2  0
  9 14  1  0
 10  9  2  0
  2 11  1  0
  4 12  1  0
 13  3  1  0
 14  4  1  0
 15  6  1  0
 16  6  2  0
 17 10  1  0
 18  1  1  0
  1 19  1  6
 20 13  1  0
 21 20  1  0
 22 17  1  0
 23  7  1  0
 20 24  1  0
 25 18  1  0
 14 26  1  0
 17 27  1  0
 28 22  1  0
 29 22  1  0
 23 25  1  0
 12 11  1  0
 15 21  1  0
  2 30  1  1
  4 31  1  1
  5 32  1  0
  8 33  1  0
  9 34  1  0
 10 35  1  0
 11 36  1  0
 11 37  1  0
 12 38  1  0
 12 39  1  0
 13 40  1  0
 13 41  1  0
 14 42  1  6
 15 43  1  0
 15 44  1  0
 16 45  1  0
 16 46  1  0
 17 47  1  6
 18 48  1  0
 18 49  1  0
 19 50  1  0
 19 51  1  0
 19 52  1  0
 20 53  1  1
 21 54  1  0
 21 55  1  0
 22 56  1  0
 23 57  1  0
 23 58  1  0
 24 59  1  0
 25 60  1  0
 25 61  1  0
 26 62  1  0
 26 63  1  0
 26 64  1  0
 27 65  1  0
 27 66  1  0
 27 67  1  0
 28 68  1  0
 28 69  1  0
 28 70  1  0
 29 71  1  0
 29 72  1  0
 29 73  1  0
M  END
> <Uni-Dock RESULT> 
ENERGY=   -3.810  LOWER_BOUND=    3.967  UPPER_BOUND=   10.002
INTER + INTRA:          -3.810
INTER:                  -3.810
INTRA:                   0.000
UNBOUND:                 0.000

$$$$

     RDKit          3D

 73 75  0  0  1  0  0  0  0  0999 V2000
   28.6307    3.6372   31.0922 C   0  0  1  0  0  0  0  0  0  0  0  0
   27.7980    4.7171   31.8382 C   0  0  2  0  0  0  0  0  0  0  0  0
   23.3885    6.7662   30.5992 C   0  0  0  0  0  0  0  0  0  0  0  0
   30.0698    4.0360   31.5534 C   0  0  2  0  0  0  0  0  0  0  0  0
   24.1480    5.6984   30.9213 C   0  0  0  0  0  0  0  0  0  0  0  0
   23.8540    8.1450   30.5037 C   0  0  0  0  0  0  0  0  0  0  0  0
   26.3183    4.6239   31.5209 C   0  0  0  0  0  0  0  0  0  0  0  0
   25.5594    5.7061   31.2561 C   0  0  0  0  0  0  0  0  0  0  0  0
   32.6451    3.9814   31.2279 C   0  0  0  0  0  0  0  0  0  0  0  0
   33.0063    4.2810   32.4856 C   0  0  0  0  0  0  0  0  0  0  0  0
   28.5661    6.0116   31.5703 C   0  0  0  0  0  0  0  0  0  0  0  0
   30.0381    5.5891   31.5298 C   0  0  0  0  0  0  0  0  0  0  0  0
   21.8966    6.6007   30.3742 C   0  0  0  0  0  0  0  0  0  0  0  0
   31.2867    3.4660   30.7712 C   0  0  1  0  0  0  0  0  0  0  0  0
   23.1306    9.1451   31.3781 C   0  0  0  0  0  0  0  0  0  0  0  0
   24.7868    8.5242   29.6158 C   0  0  0  0  0  0  0  0  0  0  0  0
   34.3282    4.7982   33.0224 C   0  0  1  0  0  0  0  0  0  0  0  0
   28.1762    2.2320   31.5610 C   0  0  0  0  0  0  0  0  0  0  0  0
   28.4811    3.7357   29.5521 C   0  0  0  0  0  0  0  0  0  0  0  0
   21.0828    7.8882   30.6032 C   0  0  2  0  0  0  0  0  0  0  0  0
   21.6958    8.7299   31.7188 C   0  0  0  0  0  0  0  0  0  0  0  0
   35.5893    4.8735   32.1111 C   0  0  0  0  0  0  0  0  0  0  0  0
   25.7893    3.1991   31.5258 C   0  0  0  0  0  0  0  0  0  0  0  0
   19.7388    7.5657   30.9587 O   0  0  0  0  0  0  0  0  0  0  0  0
   26.7619    2.2010   32.1639 C   0  0  0  0  0  0  0  0  0  0  0  0
   31.3464    1.9363   30.7728 C   0  0  0  0  0  0  0  0  0  0  0  0
   34.0651    6.1516   33.7028 C   0  0  0  0  0  0  0  0  0  0  0  0
   35.5293    5.9186   30.9934 C   0  0  0  0  0  0  0  0  0  0  0  0
   36.0056    3.5047   31.5622 C   0  0  0  0  0  0  0  0  0  0  0  0
   27.8843    4.5363   32.9223 H   0  0  0  0  0  0  0  0  0  0  0  0
   30.1654    3.7303   32.6057 H   0  0  0  0  0  0  0  0  0  0  0  0
   23.6560    4.7286   30.9559 H   0  0  0  0  0  0  0  0  0  0  0  0
   26.0227    6.6886   31.2987 H   0  0  0  0  0  0  0  0  0  0  0  0
   33.3594    4.0883   30.4184 H   0  0  0  0  0  0  0  0  0  0  0  0
   32.2662    4.1295   33.2716 H   0  0  0  0  0  0  0  0  0  0  0  0
   28.3878    6.7592   32.3506 H   0  0  0  0  0  0  0  0  0  0  0  0
   28.2864    6.4657   30.6126 H   0  0  0  0  0  0  0  0  0  0  0  0
   30.5107    5.9958   30.6283 H   0  0  0  0  0  0  0  0  0  0  0  0
   30.5757    5.9977   32.3925 H   0  0  0  0  0  0  0  0  0  0  0  0
   21.7183    6.2549   29.3479 H   0  0  0  0  0  0  0  0  0  0  0  0
   21.5067    5.8097   31.0290 H   0  0  0  0  0  0  0  0  0  0  0  0
   31.1899    3.7916   29.7267 H   0  0  0  0  0  0  0  0  0  0  0  0
   23.0976   10.1177   30.8697 H   0  0  0  0  0  0  0  0  0  0  0  0
   23.6910    9.2941   32.3089 H   0  0  0  0  0  0  0  0  0  0  0  0
   25.0960    9.5609   29.5279 H   0  0  0  0  0  0  0  0  0  0  0  0
   25.2671    7.8088   28.9540 H   0  0  0  0  0  0  0  0  0  0  0  0
   34.5955    4.1000   33.8302 H   0  0  0  0  0  0  0  0  0  0  0  0
   28.2079    1.5253   30.7226 H   0  0  0  0  0  0  0  0  0  0  0  0
   28.8656    1.8303   32.3132 H   0  0  0  0  0  0  0  0  0  0  0  0
   28.8053    4.7051   29.1615 H   0  0  0  0  0  0  0  0  0  0  0  0
   29.0781    2.9701   29.0460 H   0  0  0  0  0  0  0  0  0  0  0  0
   27.4469    3.5858   29.2289 H   0  0  0  0  0  0  0  0  0  0  0  0
   21.0453    8.4788   29.6791 H   0  0  0  0  0  0  0  0  0  0  0  0
   21.0814    9.6170   31.9160 H   0  0  0  0  0  0  0  0  0  0  0  0
   21.6849    8.1570   32.6561 H   0  0  0  0  0  0  0  0  0  0  0  0
   36.4156    5.1872   32.7663 H   0  0  0  0  0  0  0  0  0  0  0  0
   24.8463    3.1474   32.0823 H   0  0  0  0  0  0  0  0  0  0  0  0
   25.5844    2.8865   30.4950 H   0  0  0  0  0  0  0  0  0  0  0  0
   19.3542    7.0667   30.2178 H   0  0  0  0  0  0  0  0  0  0  0  0
   26.8326    2.4131   33.2391 H   0  0  0  0  0  0  0  0  0  0  0  0
   26.3555    1.1858   32.0844 H   0  0  0  0  0  0  0  0  0  0  0  0
   30.5003    1.4998   30.2374 H   0  0  0  0  0  0  0  0  0  0  0  0
   32.2530    1.5747   30.2730 H   0  0  0  0  0  0  0  0  0  0  0  0
   31.3488    1.5390   31.7939 H   0  0  0  0  0  0  0  0  0  0  0  0
   33.6755    6.8928   32.9965 H   0  0  0  0  0  0  0  0  0  0  0  0
   34.9812    6.5515   34.1504 H   0  0  0  0  0  0  0  0  0  0  0  0
   33.3283    6.0475   34.5080 H   0  0  0  0  0  0  0  0  0  0  0  0
   35.3720    6.9240   31.3964 H   0  0  0  0  0  0  0  0  0  0  0  0
   36.4782    5.9418   30.4457 H   0  0  0  0  0  0  0  0  0  0  0  0
   34.7397    5.7192   30.2672 H   0  0  0  0  0  0  0  0  0  0  0  0
   36.0623    2.7639   32.3666 H   0  0  0  0  0  0  0  0  0  0  0  0
   36.9986    3.5660   31.1026 H   0  0  0  0  0  0  0  0  0  0  0  0
   35.3195    3.1285   30.8002 H   0  0  0  0  0  0  0  0  0  0  0  0
  2  1  1  0
  3  5  2  0
  4  1  1  0
  5  8  1  0
  6  3  1  0
  7  2  1  0
  8  7  2  0
  9 14  1  0
 10  9  2  0
  2 11  1  0
  4 12  1  0
 13  3  1  0
 14  4  1  0
 15  6  1  0
 16  6  2  0
 17 10  1  0
 18  1  1  0
  1 19  1  6
 20 13  1  0
 21 20  1  0
 22 17  1  0
 23  7  1  0
 20 24  1  0
 25 18  1  0
 14 26  1  0
 17 27  1  0
 28 22  1  0
 29 22  1  0
 23 25  1  0
 12 11  1  0
 15 21  1  0
  2 30  1  1
  4 31  1  1
  5 32  1  0
  8 33  1  0
  9 34  1  0
 10 35  1  0
 11 36  1  0
 11 37  1  0
 12 38  1  0
 12 39  1  0
 13 40  1  0
 13 41  1  0
 14 42  1  6
 15 43  1  0
 15 44  1  0
 16 45  1  0
 16 46  1  0
 17 47  1  6
 18 48  1  0
 18 49  1  0
 19 50  1  0
 19 51  1  0
 19 52  1  0
 20 53  1  1
 21 54  1  0
 21 55  1  0
 22 56  1  0
 23 57  1  0
 23 58  1  0
 24 59  1  0
 25 60  1  0
 25 61  1  0
 26 62  1  0
 26 63  1  0
 26 64  1  0
 27 65  1  0
 27 66  1  0
 27 67  1  0
 28 68  1  0
 28 69  1  0
 28 70  1  0
 29 71  1  0
 29 72  1  0
 29 73  1  0
M  END
> <Uni-Dock RESULT> 
ENERGY=   -3.761  LOWER_BOUND=    6.202  UPPER_BOUND=    9.144
INTER + INTRA:          -3.761
INTER:                  -3.761
INTRA:                   0.000
UNBOUND:                 0.000

$$$$

     RDKit          3D

 73 75  0  0  1  0  0  0  0  0999 V2000
   24.6675   11.5827   28.9860 C   0  0  1  0  0  0  0  0  0  0  0  0
   24.6842   10.0541   28.7046 C   0  0  2  0  0  0  0  0  0  0  0  0
   24.7484    6.2153   31.9353 C   0  0  0  0  0  0  0  0  0  0  0  0
   25.3916   12.1038   27.7026 C   0  0  2  0  0  0  0  0  0  0  0  0
   24.1638    7.3153   31.4166 C   0  0  0  0  0  0  0  0  0  0  0  0
   26.0131    5.6358   31.4974 C   0  0  0  0  0  0  0  0  0  0  0  0
   24.0896    9.2522   29.8459 C   0  0  0  0  0  0  0  0  0  0  0  0
   24.6558    8.1230   30.3168 C   0  0  0  0  0  0  0  0  0  0  0  0
   26.7151   13.9500   26.4452 C   0  0  0  0  0  0  0  0  0  0  0  0
   26.4613   13.5496   25.1892 C   0  0  0  0  0  0  0  0  0  0  0  0
   26.1160    9.7902   28.2381 C   0  0  0  0  0  0  0  0  0  0  0  0
   26.5148   11.0555   27.4721 C   0  0  0  0  0  0  0  0  0  0  0  0
   24.0489    5.4214   33.0236 C   0  0  0  0  0  0  0  0  0  0  0  0
   25.9417   13.5581   27.6972 C   0  0  1  0  0  0  0  0  0  0  0  0
   25.9575    4.1876   31.0642 C   0  0  0  0  0  0  0  0  0  0  0  0
   27.1729    6.3069   31.5796 C   0  0  0  0  0  0  0  0  0  0  0  0
   27.1784   13.8883   23.8953 C   0  0  1  0  0  0  0  0  0  0  0  0
   23.1992   12.0569   29.1280 C   0  0  0  0  0  0  0  0  0  0  0  0
   25.4518   11.9554   30.2705 C   0  0  0  0  0  0  0  0  0  0  0  0
   24.4875    3.9471   33.1025 C   0  0  2  0  0  0  0  0  0  0  0  0
   24.8161    3.4007   31.7161 C   0  0  0  0  0  0  0  0  0  0  0  0
   28.2824   14.9864   23.8542 C   0  0  0  0  0  0  0  0  0  0  0  0
   22.8081    9.8521   30.4007 C   0  0  0  0  0  0  0  0  0  0  0  0
   23.4480    3.1530   33.6731 O   0  0  0  0  0  0  0  0  0  0  0  0
   22.2127   10.9358   29.4950 C   0  0  0  0  0  0  0  0  0  0  0  0
   24.8596   14.6170   27.9246 C   0  0  0  0  0  0  0  0  0  0  0  0
   27.6916   12.5753   23.2816 C   0  0  0  0  0  0  0  0  0  0  0  0
   29.5801   14.6397   24.5897 C   0  0  0  0  0  0  0  0  0  0  0  0
   27.7625   16.3647   24.2763 C   0  0  0  0  0  0  0  0  0  0  0  0
   24.0425    9.8536   27.8309 H   0  0  0  0  0  0  0  0  0  0  0  0
   24.6798   12.0038   26.8700 H   0  0  0  0  0  0  0  0  0  0  0  0
   23.2144    7.6258   31.8476 H   0  0  0  0  0  0  0  0  0  0  0  0
   25.5619    7.7582   29.8396 H   0  0  0  0  0  0  0  0  0  0  0  0
   27.5361   14.6314   26.6418 H   0  0  0  0  0  0  0  0  0  0  0  0
   25.6079   12.8892   25.0340 H   0  0  0  0  0  0  0  0  0  0  0  0
   26.1786    8.9022   27.6000 H   0  0  0  0  0  0  0  0  0  0  0  0
   26.8017    9.6370   29.0795 H   0  0  0  0  0  0  0  0  0  0  0  0
   27.4875   11.4099   27.8324 H   0  0  0  0  0  0  0  0  0  0  0  0
   26.6228   10.8365   26.4042 H   0  0  0  0  0  0  0  0  0  0  0  0
   24.2366    5.8924   33.9971 H   0  0  0  0  0  0  0  0  0  0  0  0
   22.9614    5.4638   32.8749 H   0  0  0  0  0  0  0  0  0  0  0  0
   26.6633   13.6414   28.5211 H   0  0  0  0  0  0  0  0  0  0  0  0
   26.9055    3.6945   31.3163 H   0  0  0  0  0  0  0  0  0  0  0  0
   25.8533    4.1329   29.9738 H   0  0  0  0  0  0  0  0  0  0  0  0
   28.1129    5.8499   31.2871 H   0  0  0  0  0  0  0  0  0  0  0  0
   27.2138    7.3310   31.9401 H   0  0  0  0  0  0  0  0  0  0  0  0
   26.3861   14.2483   23.2213 H   0  0  0  0  0  0  0  0  0  0  0  0
   23.1275   12.8413   29.8914 H   0  0  0  0  0  0  0  0  0  0  0  0
   22.8464   12.5166   28.1969 H   0  0  0  0  0  0  0  0  0  0  0  0
   26.5038   11.6586   30.2191 H   0  0  0  0  0  0  0  0  0  0  0  0
   25.4314   13.0355   30.4480 H   0  0  0  0  0  0  0  0  0  0  0  0
   25.0263   11.4869   31.1626 H   0  0  0  0  0  0  0  0  0  0  0  0
   25.3677    3.8507   33.7507 H   0  0  0  0  0  0  0  0  0  0  0  0
   25.0733    2.3357   31.7712 H   0  0  0  0  0  0  0  0  0  0  0  0
   23.9195    3.4487   31.0830 H   0  0  0  0  0  0  0  0  0  0  0  0
   28.5612   15.0931   22.7952 H   0  0  0  0  0  0  0  0  0  0  0  0
   22.0494    9.0715   30.5291 H   0  0  0  0  0  0  0  0  0  0  0  0
   23.0098   10.2850   31.3877 H   0  0  0  0  0  0  0  0  0  0  0  0
   23.2838    3.4907   34.5703 H   0  0  0  0  0  0  0  0  0  0  0  0
   21.8531   10.4661   28.5697 H   0  0  0  0  0  0  0  0  0  0  0  0
   21.3280   11.3729   29.9730 H   0  0  0  0  0  0  0  0  0  0  0  0
   24.4217   14.5373   28.9220 H   0  0  0  0  0  0  0  0  0  0  0  0
   25.2730   15.6294   27.8443 H   0  0  0  0  0  0  0  0  0  0  0  0
   24.0540   14.5274   27.1874 H   0  0  0  0  0  0  0  0  0  0  0  0
   28.4065   12.0707   23.9405 H   0  0  0  0  0  0  0  0  0  0  0  0
   28.1802   12.7561   22.3182 H   0  0  0  0  0  0  0  0  0  0  0  0
   26.8644   11.8788   23.1012 H   0  0  0  0  0  0  0  0  0  0  0  0
   30.0311   13.7251   24.1919 H   0  0  0  0  0  0  0  0  0  0  0  0
   30.3164   15.4401   24.4558 H   0  0  0  0  0  0  0  0  0  0  0  0
   29.4372   14.5057   25.6631 H   0  0  0  0  0  0  0  0  0  0  0  0
   26.8431   16.6156   23.7370 H   0  0  0  0  0  0  0  0  0  0  0  0
   28.5022   17.1381   24.0404 H   0  0  0  0  0  0  0  0  0  0  0  0
   27.5578   16.4293   25.3472 H   0  0  0  0  0  0  0  0  0  0  0  0
  2  1  1  0
  3  5  2  0
  4  1  1  0
  5  8  1  0
  6  3  1  0
  7  2  1  0
  8  7  2  0
  9 14  1  0
 10  9  2  0
  2 11  1  0
  4 12  1  0
 13  3  1  0
 14  4  1  0
 15  6  1  0
 16  6  2  0
 17 10  1  0
 18  1  1  0
  1 19  1  6
 20 13  1  0
 21 20  1  0
 22 17  1  0
 23  7  1  0
 20 24  1  0
 25 18  1  0
 14 26  1  0
 17 27  1  0
 28 22  1  0
 29 22  1  0
 23 25  1  0
 12 11  1  0
 15 21  1  0
  2 30  1  1
  4 31  1  1
  5 32  1  0
  8 33  1  0
  9 34  1  0
 10 35  1  0
 11 36  1  0
 11 37  1  0
 12 38  1  0
 12 39  1  0
 13 40  1  0
 13 41  1  0
 14 42  1  6
 15 43  1  0
 15 44  1  0
 16 45  1  0
 16 46  1  0
 17 47  1  6
 18 48  1  0
 18 49  1  0
 19 50  1  0
 19 51  1  0
 19 52  1  0
 20 53  1  1
 21 54  1  0
 21 55  1  0
 22 56  1  0
 23 57  1  0
 23 58  1  0
 24 59  1  0
 25 60  1  0
 25 61  1  0
 26 62  1  0
 26 63  1  0
 26 64  1  0
 27 65  1  0
 27 66  1  0
 27 67  1  0
 28 68  1  0
 28 69  1  0
 28 70  1  0
 29 71  1  0
 29 72  1  0
 29 73  1  0
M  END
> <Uni-Dock RESULT> 
ENERGY=   -3.726  LOWER_BOUND=    1.936  UPPER_BOUND=    2.431
INTER + INTRA:          -3.726
INTER:                  -3.726
INTRA:                   0.000
UNBOUND:                 0.000

$$$$

     RDKit          3D

 73 75  0  0  1  0  0  0  0  0999 V2000
   30.9937   10.5210   27.5271 C   0  0  1  0  0  0  0  0  0  0  0  0
   32.5050   10.4431   27.1721 C   0  0  2  0  0  0  0  0  0  0  0  0
   36.4957   10.3387   30.2119 C   0  0  0  0  0  0  0  0  0  0  0  0
   30.4526   11.2519   26.2559 C   0  0  2  0  0  0  0  0  0  0  0  0
   35.3396    9.8106   29.7588 C   0  0  0  0  0  0  0  0  0  0  0  0
   37.1250   11.5593   29.7209 C   0  0  0  0  0  0  0  0  0  0  0  0
   33.3264    9.8226   28.2852 C   0  0  0  0  0  0  0  0  0  0  0  0
   34.5083   10.3298   28.6895 C   0  0  0  0  0  0  0  0  0  0  0  0
   28.6262   12.6591   25.0622 C   0  0  0  0  0  0  0  0  0  0  0  0
   28.9487   12.3603   23.7938 C   0  0  0  0  0  0  0  0  0  0  0  0
   32.8278   11.8486   26.6643 C   0  0  0  0  0  0  0  0  0  0  0  0
   31.5513   12.3074   25.9522 C   0  0  0  0  0  0  0  0  0  0  0  0
   37.3006    9.6131   31.2747 C   0  0  0  0  0  0  0  0  0  0  0  0
   29.0340   11.8862   26.3094 C   0  0  1  0  0  0  0  0  0  0  0  0
   38.5444   11.4112   29.2195 C   0  0  0  0  0  0  0  0  0  0  0  0
   36.5268   12.7578   29.8117 C   0  0  0  0  0  0  0  0  0  0  0  0
   28.5886   13.0732   22.5034 C   0  0  1  0  0  0  0  0  0  0  0  0
   30.4431    9.0859   27.7217 C   0  0  0  0  0  0  0  0  0  0  0  0
   30.7307   11.3483   28.8118 C   0  0  0  0  0  0  0  0  0  0  0  0
   38.7999    9.9656   31.2735 C   0  0  2  0  0  0  0  0  0  0  0  0
   39.2953   10.2372   29.8559 C   0  0  0  0  0  0  0  0  0  0  0  0
   27.5554   14.2389   22.4927 C   0  0  0  0  0  0  0  0  0  0  0  0
   32.6817    8.5885   28.8943 C   0  0  0  0  0  0  0  0  0  0  0  0
   39.5598    8.8916   31.8262 O   0  0  0  0  0  0  0  0  0  0  0  0
   31.5220    8.0419   28.0543 C   0  0  0  0  0  0  0  0  0  0  0  0
   27.9269   10.8722   26.6095 C   0  0  0  0  0  0  0  0  0  0  0  0
   29.8972   13.4976   21.8168 C   0  0  0  0  0  0  0  0  0  0  0  0
   28.0124   15.5267   23.1840 C   0  0  0  0  0  0  0  0  0  0  0  0
   26.1719   13.8082   22.9913 C   0  0  0  0  0  0  0  0  0  0  0  0
   32.6247    9.7755   26.3030 H   0  0  0  0  0  0  0  0  0  0  0  0
   30.4701   10.5210   25.4340 H   0  0  0  0  0  0  0  0  0  0  0  0
   34.9964    8.8888   30.2236 H   0  0  0  0  0  0  0  0  0  0  0  0
   34.9008   11.2044   28.1769 H   0  0  0  0  0  0  0  0  0  0  0  0
   28.0038   13.5220   25.2746 H   0  0  0  0  0  0  0  0  0  0  0  0
   29.5503   11.4671   23.6244 H   0  0  0  0  0  0  0  0  0  0  0  0
   33.6853   11.8478   25.9830 H   0  0  0  0  0  0  0  0  0  0  0  0
   33.0615   12.5387   27.4831 H   0  0  0  0  0  0  0  0  0  0  0  0
   31.2719   13.3054   26.3093 H   0  0  0  0  0  0  0  0  0  0  0  0
   31.7233   12.3837   24.8730 H   0  0  0  0  0  0  0  0  0  0  0  0
   36.8899    9.8451   32.2657 H   0  0  0  0  0  0  0  0  0  0  0  0
   37.1882    8.5275   31.1504 H   0  0  0  0  0  0  0  0  0  0  0  0
   29.0332   12.6258   27.1214 H   0  0  0  0  0  0  0  0  0  0  0  0
   39.1032   12.3330   29.4282 H   0  0  0  0  0  0  0  0  0  0  0  0
   38.5392   11.2849   28.1302 H   0  0  0  0  0  0  0  0  0  0  0  0
   37.0224   13.6641   29.4784 H   0  0  0  0  0  0  0  0  0  0  0  0
   35.5258   12.8650   30.2202 H   0  0  0  0  0  0  0  0  0  0  0  0
   28.1507   12.2917   21.8638 H   0  0  0  0  0  0  0  0  0  0  0  0
   29.6944    9.0737   28.5233 H   0  0  0  0  0  0  0  0  0  0  0  0
   29.9184    8.7444   26.8213 H   0  0  0  0  0  0  0  0  0  0  0  0
   31.0848   12.3800   28.7247 H   0  0  0  0  0  0  0  0  0  0  0  0
   29.6612   11.3945   29.0416 H   0  0  0  0  0  0  0  0  0  0  0  0
   31.2173   10.9118   29.6888 H   0  0  0  0  0  0  0  0  0  0  0  0
   38.9788   10.8500   31.8981 H   0  0  0  0  0  0  0  0  0  0  0  0
   40.3748   10.4325   29.8543 H   0  0  0  0  0  0  0  0  0  0  0  0
   39.1644    9.3341   29.2443 H   0  0  0  0  0  0  0  0  0  0  0  0
   27.4129   14.5048   21.4346 H   0  0  0  0  0  0  0  0  0  0  0  0
   33.4226    7.7876   29.0004 H   0  0  0  0  0  0  0  0  0  0  0  0
   32.3104    8.8326   29.8967 H   0  0  0  0  0  0  0  0  0  0  0  0
   39.2579    8.7632   32.7417 H   0  0  0  0  0  0  0  0  0  0  0  0
   31.9240    7.6392   27.1149 H   0  0  0  0  0  0  0  0  0  0  0  0
   31.0587    7.1929   28.5707 H   0  0  0  0  0  0  0  0  0  0  0  0
   28.0302   10.4480   27.6107 H   0  0  0  0  0  0  0  0  0  0  0  0
   26.9373   11.3428   26.5698 H   0  0  0  0  0  0  0  0  0  0  0  0
   27.9333   10.0499   25.8855 H   0  0  0  0  0  0  0  0  0  0  0  0
   30.4741   14.1932   22.4358 H   0  0  0  0  0  0  0  0  0  0  0  0
   29.6976   13.9790   20.8534 H   0  0  0  0  0  0  0  0  0  0  0  0
   30.5350   12.6279   21.6198 H   0  0  0  0  0  0  0  0  0  0  0  0
   28.9307   15.9162   22.7335 H   0  0  0  0  0  0  0  0  0  0  0  0
   27.2501   16.3062   23.0739 H   0  0  0  0  0  0  0  0  0  0  0  0
   28.1906   15.3950   24.2524 H   0  0  0  0  0  0  0  0  0  0  0  0
   25.8421   12.8958   22.4836 H   0  0  0  0  0  0  0  0  0  0  0  0
   25.4318   14.5878   22.7780 H   0  0  0  0  0  0  0  0  0  0  0  0
   26.1485   13.6264   24.0680 H   0  0  0  0  0  0  0  0  0  0  0  0
  2  1  1  0
  3  5  2  0
  4  1  1  0
  5  8  1  0
  6  3  1  0
  7  2  1  0
  8  7  2  0
  9 14  1  0
 10  9  2  0
  2 11  1  0
  4 12  1  0
 13  3  1  0
 14  4  1  0
 15  6  1  0
 16  6  2  0
 17 10  1  0
 18  1  1  0
  1 19  1  6
 20 13  1  0
 21 20  1  0
 22 17  1  0
 23  7  1  0
 20 24  1  0
 25 18  1  0
 14 26  1  0
 17 27  1  0
 28 22  1  0
 29 22  1  0
 23 25  1  0
 12 11  1  0
 15 21  1  0
  2 30  1  1
  4 31  1  1
  5 32  1  0
  8 33  1  0
  9 34  1  0
 10 35  1  0
 11 36  1  0
 11 37  1  0
 12 38  1  0
 12 39  1  0
 13 40  1  0
 13 41  1  0
 14 42  1  6
 15 43  1  0
 15 44  1  0
 16 45  1  0
 16 46  1  0
 17 47  1  6
 18 48  1  0
 18 49  1  0
 19 50  1  0
 19 51  1  0
 19 52  1  0
 20 53  1  1
 21 54  1  0
 21 55  1  0
 22 56  1  0
 23 57  1  0
 23 58  1  0
 24 59  1  0
 25 60  1  0
 25 61  1  0
 26 62  1  0
 26 63  1  0
 26 64  1  0
 27 65  1  0
 27 66  1  0
 27 67  1  0
 28 68  1  0
 28 69  1  0
 28 70  1  0
 29 71  1  0
 29 72  1  0
 29 73  1  0
M  END
> <Uni-Dock RESULT> 
ENERGY=   -3.590  LOWER_BOUND=    6.720  UPPER_BOUND=   10.756
INTER + INTRA:          -3.590
INTER:                  -3.590
INTRA:                   0.000
UNBOUND:                 0.000

$$$$
