
     RDKit          3D

 73 75  0  0  1  0  0  0  0  0999 V2000
   27.8400   12.6827   20.8851 C   0  0  1  0  0  0  0  0  0  0  0  0
   27.4156   11.5222   19.9419 C   0  0  2  0  0  0  0  0  0  0  0  0
   22.9359    9.4931   18.9514 C   0  0  0  0  0  0  0  0  0  0  0  0
   29.3194   12.2649   21.1405 C   0  0  2  0  0  0  0  0  0  0  0  0
   23.7457   10.5624   19.0993 C   0  0  0  0  0  0  0  0  0  0  0  0
   23.3379    8.0996   19.1000 C   0  0  0  0  0  0  0  0  0  0  0  0
   25.9631   11.6194   19.5231 C   0  0  0  0  0  0  0  0  0  0  0  0
   25.1504   10.5458   19.4610 C   0  0  0  0  0  0  0  0  0  0  0  0
   29.8272   12.8026   23.6342 C   0  0  0  0  0  0  0  0  0  0  0  0
   30.4630   11.9841   24.4913 C   0  0  0  0  0  0  0  0  0  0  0  0
   27.9513   10.2724   20.6508 C   0  0  0  0  0  0  0  0  0  0  0  0
   29.2436   10.7338   21.3455 C   0  0  0  0  0  0  0  0  0  0  0  0
   21.4532    9.6941   18.6718 C   0  0  0  0  0  0  0  0  0  0  0  0
   30.1704   13.0471   22.1770 C   0  0  1  0  0  0  0  0  0  0  0  0
   22.5582    7.2910   20.1114 C   0  0  0  0  0  0  0  0  0  0  0  0
   24.2631    7.5350   18.3074 C   0  0  0  0  0  0  0  0  0  0  0  0
   30.1258   11.7562   25.9562 C   0  0  1  0  0  0  0  0  0  0  0  0
   27.7007   14.0349   20.1447 C   0  0  0  0  0  0  0  0  0  0  0  0
   26.9892   12.7228   22.1769 C   0  0  0  0  0  0  0  0  0  0  0  0
   20.5581    8.5392   19.1620 C   0  0  2  0  0  0  0  0  0  0  0  0
   21.1518    7.8411   20.3841 C   0  0  0  0  0  0  0  0  0  0  0  0
   31.0711   12.5725   26.8874 C   0  0  0  0  0  0  0  0  0  0  0  0
   25.5296   13.0350   19.1729 C   0  0  0  0  0  0  0  0  0  0  0  0
   20.3438    7.5861   18.1172 O   0  0  0  0  0  0  0  0  0  0  0  0
   26.7091   13.9949   18.9695 C   0  0  0  0  0  0  0  0  0  0  0  0
   31.6670   12.8305   21.8839 C   0  0  0  0  0  0  0  0  0  0  0  0
   28.6414   12.0028   26.2681 C   0  0  0  0  0  0  0  0  0  0  0  0
   30.7587   12.3515   28.3730 C   0  0  0  0  0  0  0  0  0  0  0  0
   32.5511   12.2398   26.6461 C   0  0  0  0  0  0  0  0  0  0  0  0
   27.9935   11.6045   19.0062 H   0  0  0  0  0  0  0  0  0  0  0  0
   29.8342   12.4070   20.1757 H   0  0  0  0  0  0  0  0  0  0  0  0
   23.3040   11.5479   18.9649 H   0  0  0  0  0  0  0  0  0  0  0  0
   25.5571    9.5703   19.7166 H   0  0  0  0  0  0  0  0  0  0  0  0
   29.0027   13.4009   24.0119 H   0  0  0  0  0  0  0  0  0  0  0  0
   31.3035   11.3934   24.1316 H   0  0  0  0  0  0  0  0  0  0  0  0
   28.1489    9.4596   19.9436 H   0  0  0  0  0  0  0  0  0  0  0  0
   27.2457    9.8931   21.3992 H   0  0  0  0  0  0  0  0  0  0  0  0
   29.2049   10.4462   22.4000 H   0  0  0  0  0  0  0  0  0  0  0  0
   30.1193   10.2435   20.9061 H   0  0  0  0  0  0  0  0  0  0  0  0
   21.3118    9.8415   17.5938 H   0  0  0  0  0  0  0  0  0  0  0  0
   21.1242   10.6116   19.1778 H   0  0  0  0  0  0  0  0  0  0  0  0
   29.9934   14.1179   22.0043 H   0  0  0  0  0  0  0  0  0  0  0  0
   22.4640    6.2563   19.7571 H   0  0  0  0  0  0  0  0  0  0  0  0
   23.1137    7.2504   21.0561 H   0  0  0  0  0  0  0  0  0  0  0  0
   24.5259    6.4861   18.4028 H   0  0  0  0  0  0  0  0  0  0  0  0
   24.7858    8.1061   17.5453 H   0  0  0  0  0  0  0  0  0  0  0  0
   30.3008   10.6868   26.1435 H   0  0  0  0  0  0  0  0  0  0  0  0
   28.6708   14.3673   19.7545 H   0  0  0  0  0  0  0  0  0  0  0  0
   27.3887   14.8204   20.8445 H   0  0  0  0  0  0  0  0  0  0  0  0
   27.1348   11.8382   22.8041 H   0  0  0  0  0  0  0  0  0  0  0  0
   25.9181   12.7898   21.9654 H   0  0  0  0  0  0  0  0  0  0  0  0
   27.2307   13.6038   22.7790 H   0  0  0  0  0  0  0  0  0  0  0  0
   19.5687    8.9366   19.4136 H   0  0  0  0  0  0  0  0  0  0  0  0
   21.1970    8.5523   21.2188 H   0  0  0  0  0  0  0  0  0  0  0  0
   20.5059    7.0141   20.7021 H   0  0  0  0  0  0  0  0  0  0  0  0
   30.9344   13.6420   26.6772 H   0  0  0  0  0  0  0  0  0  0  0  0
   24.9379   13.0315   18.2499 H   0  0  0  0  0  0  0  0  0  0  0  0
   24.8897   13.4249   19.9734 H   0  0  0  0  0  0  0  0  0  0  0  0
   21.2112    7.3669   17.7323 H   0  0  0  0  0  0  0  0  0  0  0  0
   27.2524   13.6982   18.0623 H   0  0  0  0  0  0  0  0  0  0  0  0
   26.3335   15.0071   18.7775 H   0  0  0  0  0  0  0  0  0  0  0  0
   32.2935   13.3806   22.5950 H   0  0  0  0  0  0  0  0  0  0  0  0
   31.9180   13.1960   20.8817 H   0  0  0  0  0  0  0  0  0  0  0  0
   31.9455   11.7722   21.9272 H   0  0  0  0  0  0  0  0  0  0  0  0
   28.4038   13.0719   26.2859 H   0  0  0  0  0  0  0  0  0  0  0  0
   27.9945   11.5186   25.5277 H   0  0  0  0  0  0  0  0  0  0  0  0
   28.3702   11.5826   27.2421 H   0  0  0  0  0  0  0  0  0  0  0  0
   30.7938   11.2878   28.6308 H   0  0  0  0  0  0  0  0  0  0  0  0
   29.7695   12.7381   28.6358 H   0  0  0  0  0  0  0  0  0  0  0  0
   31.4822   12.8766   29.0066 H   0  0  0  0  0  0  0  0  0  0  0  0
   32.8684   12.5222   25.6378 H   0  0  0  0  0  0  0  0  0  0  0  0
   32.7423   11.1697   26.7795 H   0  0  0  0  0  0  0  0  0  0  0  0
   33.1924   12.7867   27.3459 H   0  0  0  0  0  0  0  0  0  0  0  0
  2  1  1  0
  3  5  2  0
  4  1  1  0
  5  8  1  0
  6  3  1  0
  7  2  1  0
  8  7  2  0
  9 14  1  0
 10  9  2  0
  2 11  1  0
  4 12  1  0
 13  3  1  0
 14  4  1  0
 15  6  1  0
 16  6  2  0
 17 10  1  0
 18  1  1  0
  1 19  1  1
 20 13  1  0
 21 20  1  0
 22 17  1  0
 23  7  1  0
 20 24  1  0
 25 18  1  0
 14 26  1  0
 17 27  1  0
 28 22  1  0
 29 22  1  0
 23 25  1  0
 12 11  1  0
 15 21  1  0
  2 30  1  6
  4 31  1  1
  5 32  1  0
  8 33  1  0
  9 34  1  0
 10 35  1  0
 11 36  1  0
 11 37  1  0
 12 38  1  0
 12 39  1  0
 13 40  1  0
 13 41  1  0
 14 42  1  1
 15 43  1  0
 15 44  1  0
 16 45  1  0
 16 46  1  0
 17 47  1  6
 18 48  1  0
 18 49  1  0
 19 50  1  0
 19 51  1  0
 19 52  1  0
 20 53  1  1
 21 54  1  0
 21 55  1  0
 22 56  1  0
 23 57  1  0
 23 58  1  0
 24 59  1  0
 25 60  1  0
 25 61  1  0
 26 62  1  0
 26 63  1  0
 26 64  1  0
 27 65  1  0
 27 66  1  0
 27 67  1  0
 28 68  1  0
 28 69  1  0
 28 70  1  0
 29 71  1  0
 29 72  1  0
 29 73  1  0
M  END
> <Uni-Dock RESULT> 
ENERGY=   -4.026  LOWER_BOUND=    0.000  UPPER_BOUND=    0.000
INTER + INTRA:          -4.026
INTER:                  -4.026
INTRA:                   0.000
UNBOUND:                 0.000

$$$$

     RDKit          3D

 73 75  0  0  1  0  0  0  0  0999 V2000
   22.2123    7.9529   30.8753 C   0  0  1  0  0  0  0  0  0  0  0  0
   23.4142    7.1557   30.2953 C   0  0  2  0  0  0  0  0  0  0  0  0
   25.6370    2.9126   31.7859 C   0  0  0  0  0  0  0  0  0  0  0  0
   22.5669    9.3678   30.3269 C   0  0  2  0  0  0  0  0  0  0  0  0
   24.5344    3.6306   31.4865 C   0  0  0  0  0  0  0  0  0  0  0  0
   27.0098    3.3980   31.7108 C   0  0  0  0  0  0  0  0  0  0  0  0
   23.3834    5.6939   30.6915 C   0  0  0  0  0  0  0  0  0  0  0  0
   24.4880    5.0181   31.0658 C   0  0  0  0  0  0  0  0  0  0  0  0
   21.9400   11.0697   32.1913 C   0  0  0  0  0  0  0  0  0  0  0  0
   22.7094   12.0953   32.5975 C   0  0  0  0  0  0  0  0  0  0  0  0
   24.6224    8.0391   30.6288 C   0  0  0  0  0  0  0  0  0  0  0  0
   24.0933    9.4811   30.5488 C   0  0  0  0  0  0  0  0  0  0  0  0
   25.4998    1.4924   32.3162 C   0  0  0  0  0  0  0  0  0  0  0  0
   21.7243   10.5954   30.7668 C   0  0  1  0  0  0  0  0  0  0  0  0
   27.8180    3.2949   32.9839 C   0  0  0  0  0  0  0  0  0  0  0  0
   27.5615    3.8031   30.5556 C   0  0  0  0  0  0  0  0  0  0  0  0
   22.9081   12.5780   34.0254 C   0  0  1  0  0  0  0  0  0  0  0  0
   20.8878    7.3867   30.3085 C   0  0  0  0  0  0  0  0  0  0  0  0
   22.1674    7.8948   32.4208 C   0  0  0  0  0  0  0  0  0  0  0  0
   26.6731    1.0366   33.2057 C   0  0  2  0  0  0  0  0  0  0  0  0
   27.3133    2.2100   33.9449 C   0  0  0  0  0  0  0  0  0  0  0  0
   22.0308   13.8298   34.3261 C   0  0  0  0  0  0  0  0  0  0  0  0
   21.9956    5.0760   30.6107 C   0  0  0  0  0  0  0  0  0  0  0  0
   27.6628    0.3562   32.4288 O   0  0  0  0  0  0  0  0  0  0  0  0
   20.9983    5.9324   29.8196 C   0  0  0  0  0  0  0  0  0  0  0  0
   21.8929   11.7310   29.7399 C   0  0  0  0  0  0  0  0  0  0  0  0
   22.7085   11.4611   35.0618 C   0  0  0  0  0  0  0  0  0  0  0  0
   22.2211   14.3441   35.7588 C   0  0  0  0  0  0  0  0  0  0  0  0
   22.3146   14.9836   33.3527 C   0  0  0  0  0  0  0  0  0  0  0  0
   23.3370    7.1598   29.1953 H   0  0  0  0  0  0  0  0  0  0  0  0
   22.4331    9.3001   29.2344 H   0  0  0  0  0  0  0  0  0  0  0  0
   23.5704    3.1377   31.5963 H   0  0  0  0  0  0  0  0  0  0  0  0
   25.4399    5.5436   31.0777 H   0  0  0  0  0  0  0  0  0  0  0  0
   21.3625   10.5338   32.9396 H   0  0  0  0  0  0  0  0  0  0  0  0
   23.2782   12.6539   31.8563 H   0  0  0  0  0  0  0  0  0  0  0  0
   25.4470    7.8790   29.9258 H   0  0  0  0  0  0  0  0  0  0  0  0
   25.0065    7.8427   31.6366 H   0  0  0  0  0  0  0  0  0  0  0  0
   24.3522   10.0084   31.4714 H   0  0  0  0  0  0  0  0  0  0  0  0
   24.5628   10.0236   29.7209 H   0  0  0  0  0  0  0  0  0  0  0  0
   25.3884    0.8057   31.4678 H   0  0  0  0  0  0  0  0  0  0  0  0
   24.5813    1.4311   32.9150 H   0  0  0  0  0  0  0  0  0  0  0  0
   20.6662   10.3046   30.7060 H   0  0  0  0  0  0  0  0  0  0  0  0
   28.8651    3.0791   32.7351 H   0  0  0  0  0  0  0  0  0  0  0  0
   27.8108    4.2610   33.5027 H   0  0  0  0  0  0  0  0  0  0  0  0
   28.5967    4.1259   30.5056 H   0  0  0  0  0  0  0  0  0  0  0  0
   26.9931    3.8273   29.6301 H   0  0  0  0  0  0  0  0  0  0  0  0
   23.9644   12.8747   34.0997 H   0  0  0  0  0  0  0  0  0  0  0  0
   20.5305    7.9968   29.4695 H   0  0  0  0  0  0  0  0  0  0  0  0
   20.0951    7.4465   31.0647 H   0  0  0  0  0  0  0  0  0  0  0  0
   23.0278    8.3858   32.8853 H   0  0  0  0  0  0  0  0  0  0  0  0
   22.1467    6.8676   32.7962 H   0  0  0  0  0  0  0  0  0  0  0  0
   21.2612    8.3721   32.8056 H   0  0  0  0  0  0  0  0  0  0  0  0
   26.3059    0.3039   33.9327 H   0  0  0  0  0  0  0  0  0  0  0  0
   26.5776    2.6483   34.6312 H   0  0  0  0  0  0  0  0  0  0  0  0
   28.1547    1.8623   34.5561 H   0  0  0  0  0  0  0  0  0  0  0  0
   20.9736   13.5541   34.2123 H   0  0  0  0  0  0  0  0  0  0  0  0
   22.0475    4.0922   30.1295 H   0  0  0  0  0  0  0  0  0  0  0  0
   21.6074    4.9267   31.6253 H   0  0  0  0  0  0  0  0  0  0  0  0
   27.8601    0.9073   31.6504 H   0  0  0  0  0  0  0  0  0  0  0  0
   21.3001    5.9395   28.7636 H   0  0  0  0  0  0  0  0  0  0  0  0
   20.0068    5.4648   29.8458 H   0  0  0  0  0  0  0  0  0  0  0  0
   21.2997   12.6090   30.0195 H   0  0  0  0  0  0  0  0  0  0  0  0
   21.5469   11.4083   28.7514 H   0  0  0  0  0  0  0  0  0  0  0  0
   22.9383   12.0408   29.6373 H   0  0  0  0  0  0  0  0  0  0  0  0
   21.6489   11.2175   35.1953 H   0  0  0  0  0  0  0  0  0  0  0  0
   23.2374   10.5474   34.7675 H   0  0  0  0  0  0  0  0  0  0  0  0
   23.1107   11.7545   36.0370 H   0  0  0  0  0  0  0  0  0  0  0  0
   23.2750   14.5576   35.9660 H   0  0  0  0  0  0  0  0  0  0  0  0
   21.8645   13.6179   36.4954 H   0  0  0  0  0  0  0  0  0  0  0  0
   21.6514   15.2658   35.9218 H   0  0  0  0  0  0  0  0  0  0  0  0
   22.0492   14.7183   32.3249 H   0  0  0  0  0  0  0  0  0  0  0  0
   23.3724   15.2661   33.3725 H   0  0  0  0  0  0  0  0  0  0  0  0
   21.7243   15.8686   33.6149 H   0  0  0  0  0  0  0  0  0  0  0  0
  2  1  1  0
  3  5  2  0
  4  1  1  0
  5  8  1  0
  6  3  1  0
  7  2  1  0
  8  7  2  0
  9 14  1  0
 10  9  2  0
  2 11  1  0
  4 12  1  0
 13  3  1  0
 14  4  1  0
 15  6  1  0
 16  6  2  0
 17 10  1  0
 18  1  1  0
  1 19  1  1
 20 13  1  0
 21 20  1  0
 22 17  1  0
 23  7  1  0
 20 24  1  0
 25 18  1  0
 14 26  1  0
 17 27  1  0
 28 22  1  0
 29 22  1  0
 23 25  1  0
 12 11  1  0
 15 21  1  0
  2 30  1  6
  4 31  1  1
  5 32  1  0
  8 33  1  0
  9 34  1  0
 10 35  1  0
 11 36  1  0
 11 37  1  0
 12 38  1  0
 12 39  1  0
 13 40  1  0
 13 41  1  0
 14 42  1  1
 15 43  1  0
 15 44  1  0
 16 45  1  0
 16 46  1  0
 17 47  1  6
 18 48  1  0
 18 49  1  0
 19 50  1  0
 19 51  1  0
 19 52  1  0
 20 53  1  1
 21 54  1  0
 21 55  1  0
 22 56  1  0
 23 57  1  0
 23 58  1  0
 24 59  1  0
 25 60  1  0
 25 61  1  0
 26 62  1  0
 26 63  1  0
 26 64  1  0
 27 65  1  0
 27 66  1  0
 27 67  1  0
 28 68  1  0
 28 69  1  0
 28 70  1  0
 29 71  1  0
 29 72  1  0
 29 73  1  0
M  END
> <Uni-Dock RESULT> 
ENERGY=   -3.953  LOWER_BOUND=   10.741  UPPER_BOUND=   13.282
INTER + INTRA:          -3.953
INTER:                  -3.953
INTRA:                   0.000
UNBOUND:                 0.000

$$$$

     RDKit          3D

 73 75  0  0  1  0  0  0  0  0999 V2000
   30.0126   11.6350   26.4951 C   0  0  1  0  0  0  0  0  0  0  0  0
   28.9415   10.5731   26.8713 C   0  0  2  0  0  0  0  0  0  0  0  0
   24.3165   11.0209   28.7623 C   0  0  0  0  0  0  0  0  0  0  0  0
   31.2922   10.7578   26.6422 C   0  0  2  0  0  0  0  0  0  0  0  0
   25.2719   11.3660   27.8740 C   0  0  0  0  0  0  0  0  0  0  0  0
   24.4586   10.0192   29.8121 C   0  0  0  0  0  0  0  0  0  0  0  0
   27.5364   11.1391   26.8569 C   0  0  0  0  0  0  0  0  0  0  0  0
   26.6229   10.8424   27.8027 C   0  0  0  0  0  0  0  0  0  0  0  0
   33.1264   12.2812   27.6814 C   0  0  0  0  0  0  0  0  0  0  0  0
   33.9454   11.9333   28.6900 C   0  0  0  0  0  0  0  0  0  0  0  0
   29.5163    9.9181   28.1330 C   0  0  0  0  0  0  0  0  0  0  0  0
   31.0413    9.9475   27.9354 C   0  0  0  0  0  0  0  0  0  0  0  0
   22.9796   11.7487   28.7635 C   0  0  0  0  0  0  0  0  0  0  0  0
   32.6929   11.4150   26.5141 C   0  0  1  0  0  0  0  0  0  0  0  0
   24.1873   10.4950   31.2209 C   0  0  0  0  0  0  0  0  0  0  0  0
   24.7001    8.7271   29.5379 C   0  0  0  0  0  0  0  0  0  0  0  0
   34.3912   12.8113   29.8484 C   0  0  1  0  0  0  0  0  0  0  0  0
   29.7696   12.1326   25.0496 C   0  0  0  0  0  0  0  0  0  0  0  0
   29.9936   12.8464   27.4575 C   0  0  0  0  0  0  0  0  0  0  0  0
   22.2721   11.7630   30.1327 C   0  0  2  0  0  0  0  0  0  0  0  0
   23.2711   11.7243   31.2876 C   0  0  0  0  0  0  0  0  0  0  0  0
   35.8213   13.3807   29.6083 C   0  0  0  0  0  0  0  0  0  0  0  0
   27.2667   12.0542   25.6720 C   0  0  0  0  0  0  0  0  0  0  0  0
   21.3617   10.6653   30.2436 O   0  0  0  0  0  0  0  0  0  0  0  0
   28.3229   11.9365   24.5653 C   0  0  0  0  0  0  0  0  0  0  0  0
   33.7375   10.3384   26.1646 C   0  0  0  0  0  0  0  0  0  0  0  0
   33.3723   13.9116   30.1844 C   0  0  0  0  0  0  0  0  0  0  0  0
   36.2998   14.2623   30.7689 C   0  0  0  0  0  0  0  0  0  0  0  0
   36.8569   12.2692   29.3818 C   0  0  0  0  0  0  0  0  0  0  0  0
   28.9450    9.7858   26.0991 H   0  0  0  0  0  0  0  0  0  0  0  0
   31.2396   10.0238   25.8208 H   0  0  0  0  0  0  0  0  0  0  0  0
   25.0256   12.1384   27.1480 H   0  0  0  0  0  0  0  0  0  0  0  0
   26.9058   10.1646   28.6044 H   0  0  0  0  0  0  0  0  0  0  0  0
   32.7570   13.3025   27.6495 H   0  0  0  0  0  0  0  0  0  0  0  0
   34.3390   10.9190   28.7240 H   0  0  0  0  0  0  0  0  0  0  0  0
   29.1517    8.8928   28.2586 H   0  0  0  0  0  0  0  0  0  0  0  0
   29.2512   10.4748   29.0395 H   0  0  0  0  0  0  0  0  0  0  0  0
   31.5074   10.3965   28.8172 H   0  0  0  0  0  0  0  0  0  0  0  0
   31.4416    8.9325   27.8368 H   0  0  0  0  0  0  0  0  0  0  0  0
   22.3249   11.2901   28.0120 H   0  0  0  0  0  0  0  0  0  0  0  0
   23.1499   12.7911   28.4629 H   0  0  0  0  0  0  0  0  0  0  0  0
   32.6624   12.0830   25.6419 H   0  0  0  0  0  0  0  0  0  0  0  0
   23.7233    9.6840   31.7971 H   0  0  0  0  0  0  0  0  0  0  0  0
   25.1359   10.7309   31.7179 H   0  0  0  0  0  0  0  0  0  0  0  0
   24.7654    7.9840   30.3265 H   0  0  0  0  0  0  0  0  0  0  0  0
   24.8435    8.3777   28.5193 H   0  0  0  0  0  0  0  0  0  0  0  0
   34.4281   12.1538   30.7290 H   0  0  0  0  0  0  0  0  0  0  0  0
   30.4329   11.6177   24.3435 H   0  0  0  0  0  0  0  0  0  0  0  0
   30.0301   13.1951   24.9652 H   0  0  0  0  0  0  0  0  0  0  0  0
   30.2728   12.5756   28.4802 H   0  0  0  0  0  0  0  0  0  0  0  0
   29.0077   13.3173   27.5112 H   0  0  0  0  0  0  0  0  0  0  0  0
   30.6801   13.6281   27.1187 H   0  0  0  0  0  0  0  0  0  0  0  0
   21.6610   12.6690   30.2090 H   0  0  0  0  0  0  0  0  0  0  0  0
   23.8843   12.6342   31.2644 H   0  0  0  0  0  0  0  0  0  0  0  0
   22.7430   11.7179   32.2485 H   0  0  0  0  0  0  0  0  0  0  0  0
   35.8042   14.0053   28.7049 H   0  0  0  0  0  0  0  0  0  0  0  0
   26.2909   11.8217   25.2295 H   0  0  0  0  0  0  0  0  0  0  0  0
   27.2320   13.0937   26.0192 H   0  0  0  0  0  0  0  0  0  0  0  0
   21.8362    9.8576   29.9772 H   0  0  0  0  0  0  0  0  0  0  0  0
   28.2395   10.9438   24.1029 H   0  0  0  0  0  0  0  0  0  0  0  0
   28.1062   12.6584   23.7689 H   0  0  0  0  0  0  0  0  0  0  0  0
   34.7365   10.7759   26.0572 H   0  0  0  0  0  0  0  0  0  0  0  0
   33.4899    9.8597   25.2103 H   0  0  0  0  0  0  0  0  0  0  0  0
   33.7867    9.5511   26.9243 H   0  0  0  0  0  0  0  0  0  0  0  0
   33.3912   14.7200   29.4456 H   0  0  0  0  0  0  0  0  0  0  0  0
   32.3538   13.5093   30.2285 H   0  0  0  0  0  0  0  0  0  0  0  0
   33.5779   14.3497   31.1665 H   0  0  0  0  0  0  0  0  0  0  0  0
   36.2588   13.7211   31.7200 H   0  0  0  0  0  0  0  0  0  0  0  0
   35.6926   15.1679   30.8603 H   0  0  0  0  0  0  0  0  0  0  0  0
   37.3336   14.5892   30.6106 H   0  0  0  0  0  0  0  0  0  0  0  0
   36.6450   11.7003   28.4715 H   0  0  0  0  0  0  0  0  0  0  0  0
   36.8788   11.5716   30.2257 H   0  0  0  0  0  0  0  0  0  0  0  0
   37.8616   12.6905   29.2665 H   0  0  0  0  0  0  0  0  0  0  0  0
  2  1  1  0
  3  5  2  0
  4  1  1  0
  5  8  1  0
  6  3  1  0
  7  2  1  0
  8  7  2  0
  9 14  1  0
 10  9  2  0
  2 11  1  0
  4 12  1  0
 13  3  1  0
 14  4  1  0
 15  6  1  0
 16  6  2  0
 17 10  1  0
 18  1  1  0
  1 19  1  1
 20 13  1  0
 21 20  1  0
 22 17  1  0
 23  7  1  0
 20 24  1  0
 25 18  1  0
 14 26  1  0
 17 27  1  0
 28 22  1  0
 29 22  1  0
 23 25  1  0
 12 11  1  0
 15 21  1  0
  2 30  1  6
  4 31  1  1
  5 32  1  0
  8 33  1  0
  9 34  1  0
 10 35  1  0
 11 36  1  0
 11 37  1  0
 12 38  1  0
 12 39  1  0
 13 40  1  0
 13 41  1  0
 14 42  1  1
 15 43  1  0
 15 44  1  0
 16 45  1  0
 16 46  1  0
 17 47  1  6
 18 48  1  0
 18 49  1  0
 19 50  1  0
 19 51  1  0
 19 52  1  0
 20 53  1  1
 21 54  1  0
 21 55  1  0
 22 56  1  0
 23 57  1  0
 23 58  1  0
 24 59  1  0
 25 60  1  0
 25 61  1  0
 26 62  1  0
 26 63  1  0
 26 64  1  0
 27 65  1  0
 27 66  1  0
 27 67  1  0
 28 68  1  0
 28 69  1  0
 28 70  1  0
 29 71  1  0
 29 72  1  0
 29 73  1  0
M  END
> <Uni-Dock RESULT> 
ENERGY=   -3.937  LOWER_BOUND=    6.037  UPPER_BOUND=    8.097
INTER + INTRA:          -3.937
INTER:                  -3.937
INTRA:                   0.000
UNBOUND:                 0.000

$$$$

     RDKit          3D

 73 75  0  0  1  0  0  0  0  0999 V2000
   30.0154   11.6354   26.4946 C   0  0  1  0  0  0  0  0  0  0  0  0
   28.9443   10.5734   26.8707 C   0  0  2  0  0  0  0  0  0  0  0  0
   24.3192   11.0206   28.7612 C   0  0  0  0  0  0  0  0  0  0  0  0
   31.2951   10.7583   26.6417 C   0  0  2  0  0  0  0  0  0  0  0  0
   25.2746   11.3659   27.8730 C   0  0  0  0  0  0  0  0  0  0  0  0
   24.4613   10.0189   29.8110 C   0  0  0  0  0  0  0  0  0  0  0  0
   27.5392   11.1393   26.8562 C   0  0  0  0  0  0  0  0  0  0  0  0
   26.6256   10.8425   27.8018 C   0  0  0  0  0  0  0  0  0  0  0  0
   33.1290   12.2820   27.6812 C   0  0  0  0  0  0  0  0  0  0  0  0
   33.9479   11.9342   28.6898 C   0  0  0  0  0  0  0  0  0  0  0  0
   29.5191    9.9184   28.1324 C   0  0  0  0  0  0  0  0  0  0  0  0
   31.0441    9.9481   27.9350 C   0  0  0  0  0  0  0  0  0  0  0  0
   22.9822   11.7482   28.7623 C   0  0  0  0  0  0  0  0  0  0  0  0
   32.6957   11.4158   26.5138 C   0  0  1  0  0  0  0  0  0  0  0  0
   24.1898   10.4947   31.2198 C   0  0  0  0  0  0  0  0  0  0  0  0
   24.7030    8.7269   29.5369 C   0  0  0  0  0  0  0  0  0  0  0  0
   34.3935   12.8123   29.8482 C   0  0  1  0  0  0  0  0  0  0  0  0
   29.7724   12.1330   25.0491 C   0  0  0  0  0  0  0  0  0  0  0  0
   29.9962   12.8468   27.4570 C   0  0  0  0  0  0  0  0  0  0  0  0
   22.2745   11.7625   30.1315 C   0  0  2  0  0  0  0  0  0  0  0  0
   23.2734   11.7239   31.2864 C   0  0  0  0  0  0  0  0  0  0  0  0
   35.8236   13.3818   29.6083 C   0  0  0  0  0  0  0  0  0  0  0  0
   27.2695   12.0543   25.6712 C   0  0  0  0  0  0  0  0  0  0  0  0
   21.3643   10.6647   30.2423 O   0  0  0  0  0  0  0  0  0  0  0  0
   28.3258   11.9368   24.5646 C   0  0  0  0  0  0  0  0  0  0  0  0
   33.7405   10.3393   26.1643 C   0  0  0  0  0  0  0  0  0  0  0  0
   33.3745   13.9124   30.1842 C   0  0  0  0  0  0  0  0  0  0  0  0
   36.3019   14.2635   30.7689 C   0  0  0  0  0  0  0  0  0  0  0  0
   36.8594   12.2704   29.3819 C   0  0  0  0  0  0  0  0  0  0  0  0
   28.9480    9.7861   26.0985 H   0  0  0  0  0  0  0  0  0  0  0  0
   31.2427   10.0244   25.8204 H   0  0  0  0  0  0  0  0  0  0  0  0
   25.0283   12.1383   27.1470 H   0  0  0  0  0  0  0  0  0  0  0  0
   26.9086   10.1647   28.6036 H   0  0  0  0  0  0  0  0  0  0  0  0
   32.7594   13.3032   27.6492 H   0  0  0  0  0  0  0  0  0  0  0  0
   34.3417   10.9200   28.7238 H   0  0  0  0  0  0  0  0  0  0  0  0
   29.1547    8.8932   28.2579 H   0  0  0  0  0  0  0  0  0  0  0  0
   29.2539   10.4751   29.0388 H   0  0  0  0  0  0  0  0  0  0  0  0
   31.5101   10.3971   28.8167 H   0  0  0  0  0  0  0  0  0  0  0  0
   31.4446    8.9331   27.8363 H   0  0  0  0  0  0  0  0  0  0  0  0
   22.3276   11.2896   28.0108 H   0  0  0  0  0  0  0  0  0  0  0  0
   23.1524   12.7907   28.4618 H   0  0  0  0  0  0  0  0  0  0  0  0
   32.6652   12.0838   25.6416 H   0  0  0  0  0  0  0  0  0  0  0  0
   23.7259    9.6837   31.7959 H   0  0  0  0  0  0  0  0  0  0  0  0
   25.1384   10.7307   31.7169 H   0  0  0  0  0  0  0  0  0  0  0  0
   24.7683    7.9838   30.3255 H   0  0  0  0  0  0  0  0  0  0  0  0
   24.8465    8.3775   28.5182 H   0  0  0  0  0  0  0  0  0  0  0  0
   34.4304   12.1547   30.7288 H   0  0  0  0  0  0  0  0  0  0  0  0
   30.4359   11.6182   24.3430 H   0  0  0  0  0  0  0  0  0  0  0  0
   30.0329   13.1956   24.9647 H   0  0  0  0  0  0  0  0  0  0  0  0
   30.2753   12.5760   28.4797 H   0  0  0  0  0  0  0  0  0  0  0  0
   29.0102   13.3176   27.5106 H   0  0  0  0  0  0  0  0  0  0  0  0
   30.6826   13.6286   27.1182 H   0  0  0  0  0  0  0  0  0  0  0  0
   21.6633   12.6684   30.2077 H   0  0  0  0  0  0  0  0  0  0  0  0
   23.8865   12.6339   31.2633 H   0  0  0  0  0  0  0  0  0  0  0  0
   22.7453   11.7174   32.2473 H   0  0  0  0  0  0  0  0  0  0  0  0
   35.8065   14.0064   28.7049 H   0  0  0  0  0  0  0  0  0  0  0  0
   26.2938   11.8217   25.2286 H   0  0  0  0  0  0  0  0  0  0  0  0
   27.2346   13.0938   26.0185 H   0  0  0  0  0  0  0  0  0  0  0  0
   21.8388    9.8570   29.9759 H   0  0  0  0  0  0  0  0  0  0  0  0
   28.2426   10.9441   24.1021 H   0  0  0  0  0  0  0  0  0  0  0  0
   28.1091   12.6586   23.7682 H   0  0  0  0  0  0  0  0  0  0  0  0
   34.7394   10.7769   26.0571 H   0  0  0  0  0  0  0  0  0  0  0  0
   33.4930    9.8606   25.2101 H   0  0  0  0  0  0  0  0  0  0  0  0
   33.7897    9.5520   26.9241 H   0  0  0  0  0  0  0  0  0  0  0  0
   33.3934   14.7208   29.4454 H   0  0  0  0  0  0  0  0  0  0  0  0
   32.3560   13.5100   30.2282 H   0  0  0  0  0  0  0  0  0  0  0  0
   33.5799   14.3505   31.1664 H   0  0  0  0  0  0  0  0  0  0  0  0
   36.2609   13.7223   31.7201 H   0  0  0  0  0  0  0  0  0  0  0  0
   35.6946   15.1690   30.8604 H   0  0  0  0  0  0  0  0  0  0  0  0
   37.3356   14.5905   30.6108 H   0  0  0  0  0  0  0  0  0  0  0  0
   36.6476   11.7015   28.4715 H   0  0  0  0  0  0  0  0  0  0  0  0
   36.8812   11.5728   30.2258 H   0  0  0  0  0  0  0  0  0  0  0  0
   37.8640   12.6918   29.2667 H   0  0  0  0  0  0  0  0  0  0  0  0
  2  1  1  0
  3  5  2  0
  4  1  1  0
  5  8  1  0
  6  3  1  0
  7  2  1  0
  8  7  2  0
  9 14  1  0
 10  9  2  0
  2 11  1  0
  4 12  1  0
 13  3  1  0
 14  4  1  0
 15  6  1  0
 16  6  2  0
 17 10  1  0
 18  1  1  0
  1 19  1  1
 20 13  1  0
 21 20  1  0
 22 17  1  0
 23  7  1  0
 20 24  1  0
 25 18  1  0
 14 26  1  0
 17 27  1  0
 28 22  1  0
 29 22  1  0
 23 25  1  0
 12 11  1  0
 15 21  1  0
  2 30  1  6
  4 31  1  1
  5 32  1  0
  8 33  1  0
  9 34  1  0
 10 35  1  0
 11 36  1  0
 11 37  1  0
 12 38  1  0
 12 39  1  0
 13 40  1  0
 13 41  1  0
 14 42  1  1
 15 43  1  0
 15 44  1  0
 16 45  1  0
 16 46  1  0
 17 47  1  6
 18 48  1  0
 18 49  1  0
 19 50  1  0
 19 51  1  0
 19 52  1  0
 20 53  1  1
 21 54  1  0
 21 55  1  0
 22 56  1  0
 23 57  1  0
 23 58  1  0
 24 59  1  0
 25 60  1  0
 25 61  1  0
 26 62  1  0
 26 63  1  0
 26 64  1  0
 27 65  1  0
 27 66  1  0
 27 67  1  0
 28 68  1  0
 28 69  1  0
 28 70  1  0
 29 71  1  0
 29 72  1  0
 29 73  1  0
M  END
> <Uni-Dock RESULT> 
ENERGY=   -3.935  LOWER_BOUND=    6.037  UPPER_BOUND=    8.097
INTER + INTRA:          -3.935
INTER:                  -3.935
INTRA:                   0.000
UNBOUND:                 0.000

$$$$

     RDKit          3D

 73 75  0  0  1  0  0  0  0  0999 V2000
   31.5503   12.4212   26.7446 C   0  0  1  0  0  0  0  0  0  0  0  0
   31.7012   12.7770   25.2389 C   0  0  2  0  0  0  0  0  0  0  0  0
   29.0938   11.3568   21.1953 C   0  0  0  0  0  0  0  0  0  0  0  0
   33.0196   12.6636   27.2040 C   0  0  2  0  0  0  0  0  0  0  0  0
   29.1583   11.8281   22.4581 C   0  0  0  0  0  0  0  0  0  0  0  0
   30.2384   11.0118   20.3608 C   0  0  0  0  0  0  0  0  0  0  0  0
   30.4067   12.6037   24.4715 C   0  0  0  0  0  0  0  0  0  0  0  0
   30.3580   12.0545   23.2414 C   0  0  0  0  0  0  0  0  0  0  0  0
   33.5744   10.8088   28.9409 C   0  0  0  0  0  0  0  0  0  0  0  0
   34.7072   10.0842   28.9685 C   0  0  0  0  0  0  0  0  0  0  0  0
   32.9731   12.0291   24.8213 C   0  0  0  0  0  0  0  0  0  0  0  0
   33.8707   12.0455   26.0702 C   0  0  0  0  0  0  0  0  0  0  0  0
   27.7413   11.0767   20.5555 C   0  0  0  0  0  0  0  0  0  0  0  0
   33.4433   12.2918   28.6505 C   0  0  1  0  0  0  0  0  0  0  0  0
   30.2609    9.6004   19.8202 C   0  0  0  0  0  0  0  0  0  0  0  0
   31.1565   11.9215   19.9968 C   0  0  0  0  0  0  0  0  0  0  0  0
   34.8350    8.6012   29.2778 C   0  0  1  0  0  0  0  0  0  0  0  0
   30.5314   13.3793   27.4080 C   0  0  0  0  0  0  0  0  0  0  0  0
   31.0825   10.9612   26.9531 C   0  0  0  0  0  0  0  0  0  0  0  0
   27.7740    9.9870   19.4660 C   0  0  2  0  0  0  0  0  0  0  0  0
   28.8709    8.9567   19.7274 C   0  0  0  0  0  0  0  0  0  0  0  0
   35.2954    8.3681   30.7478 C   0  0  0  0  0  0  0  0  0  0  0  0
   29.1874   13.1198   25.2207 C   0  0  0  0  0  0  0  0  0  0  0  0
   27.9559   10.5697   18.1724 O   0  0  0  0  0  0  0  0  0  0  0  0
   29.5461   14.0161   26.4133 C   0  0  0  0  0  0  0  0  0  0  0  0
   34.7112   13.0776   29.0344 C   0  0  0  0  0  0  0  0  0  0  0  0
   33.5631    7.8116   28.9310 C   0  0  0  0  0  0  0  0  0  0  0  0
   35.4430    6.8783   31.0828 C   0  0  0  0  0  0  0  0  0  0  0  0
   36.6259    9.0709   31.0566 C   0  0  0  0  0  0  0  0  0  0  0  0
   31.9458   13.8492   25.1568 H   0  0  0  0  0  0  0  0  0  0  0  0
   33.1742   13.7528   27.1270 H   0  0  0  0  0  0  0  0  0  0  0  0
   28.2174   12.0363   22.9639 H   0  0  0  0  0  0  0  0  0  0  0  0
   31.2873   11.7285   22.7804 H   0  0  0  0  0  0  0  0  0  0  0  0
   32.6418   10.3128   29.1957 H   0  0  0  0  0  0  0  0  0  0  0  0
   35.6515   10.5725   28.7347 H   0  0  0  0  0  0  0  0  0  0  0  0
   33.4663   12.5128   23.9713 H   0  0  0  0  0  0  0  0  0  0  0  0
   32.7617   10.9928   24.5329 H   0  0  0  0  0  0  0  0  0  0  0  0
   34.1966   11.0247   26.2896 H   0  0  0  0  0  0  0  0  0  0  0  0
   34.7713   12.6444   25.8955 H   0  0  0  0  0  0  0  0  0  0  0  0
   27.3471   12.0104   20.1351 H   0  0  0  0  0  0  0  0  0  0  0  0
   27.0465   10.7468   21.3393 H   0  0  0  0  0  0  0  0  0  0  0  0
   32.6586   12.6600   29.3262 H   0  0  0  0  0  0  0  0  0  0  0  0
   30.7117    9.6000   18.8193 H   0  0  0  0  0  0  0  0  0  0  0  0
   30.9012    8.9747   20.4536 H   0  0  0  0  0  0  0  0  0  0  0  0
   31.9833   11.6609   19.3434 H   0  0  0  0  0  0  0  0  0  0  0  0
   31.1096   12.9495   20.3451 H   0  0  0  0  0  0  0  0  0  0  0  0
   35.6200    8.2197   28.6089 H   0  0  0  0  0  0  0  0  0  0  0  0
   31.0467   14.1910   27.9366 H   0  0  0  0  0  0  0  0  0  0  0  0
   29.9610   12.8500   28.1816 H   0  0  0  0  0  0  0  0  0  0  0  0
   31.8187   10.2300   26.6062 H   0  0  0  0  0  0  0  0  0  0  0  0
   30.1483   10.7464   26.4261 H   0  0  0  0  0  0  0  0  0  0  0  0
   30.8826   10.7599   28.0098 H   0  0  0  0  0  0  0  0  0  0  0  0
   26.8011    9.4844   19.4349 H   0  0  0  0  0  0  0  0  0  0  0  0
   28.6535    8.4285   20.6645 H   0  0  0  0  0  0  0  0  0  0  0  0
   28.8844    8.2036   18.9305 H   0  0  0  0  0  0  0  0  0  0  0  0
   34.5369    8.7847   31.4243 H   0  0  0  0  0  0  0  0  0  0  0  0
   28.5472   13.7005   24.5462 H   0  0  0  0  0  0  0  0  0  0  0  0
   28.5988   12.2682   25.5822 H   0  0  0  0  0  0  0  0  0  0  0  0
   28.7049   11.1897   18.2284 H   0  0  0  0  0  0  0  0  0  0  0  0
   29.9846   14.9487   26.0337 H   0  0  0  0  0  0  0  0  0  0  0  0
   28.6324   14.3079   26.9446 H   0  0  0  0  0  0  0  0  0  0  0  0
   35.0284   12.8428   30.0568 H   0  0  0  0  0  0  0  0  0  0  0  0
   34.5204   14.1560   28.9947 H   0  0  0  0  0  0  0  0  0  0  0  0
   35.5464   12.8665   28.3582 H   0  0  0  0  0  0  0  0  0  0  0  0
   32.7657    7.9878   29.6609 H   0  0  0  0  0  0  0  0  0  0  0  0
   33.1866    8.0818   27.9378 H   0  0  0  0  0  0  0  0  0  0  0  0
   33.7640    6.7355   28.9067 H   0  0  0  0  0  0  0  0  0  0  0  0
   36.1256    6.3815   30.3854 H   0  0  0  0  0  0  0  0  0  0  0  0
   34.4785    6.3629   31.0483 H   0  0  0  0  0  0  0  0  0  0  0  0
   35.8378    6.7431   32.0959 H   0  0  0  0  0  0  0  0  0  0  0  0
   36.5344   10.1585   30.9799 H   0  0  0  0  0  0  0  0  0  0  0  0
   37.4143    8.7430   30.3709 H   0  0  0  0  0  0  0  0  0  0  0  0
   36.9546    8.8509   32.0782 H   0  0  0  0  0  0  0  0  0  0  0  0
  2  1  1  0
  3  5  2  0
  4  1  1  0
  5  8  1  0
  6  3  1  0
  7  2  1  0
  8  7  2  0
  9 14  1  0
 10  9  2  0
  2 11  1  0
  4 12  1  0
 13  3  1  0
 14  4  1  0
 15  6  1  0
 16  6  2  0
 17 10  1  0
 18  1  1  0
  1 19  1  1
 20 13  1  0
 21 20  1  0
 22 17  1  0
 23  7  1  0
 20 24  1  0
 25 18  1  0
 14 26  1  0
 17 27  1  0
 28 22  1  0
 29 22  1  0
 23 25  1  0
 12 11  1  0
 15 21  1  0
  2 30  1  6
  4 31  1  1
  5 32  1  0
  8 33  1  0
  9 34  1  0
 10 35  1  0
 11 36  1  0
 11 37  1  0
 12 38  1  0
 12 39  1  0
 13 40  1  0
 13 41  1  0
 14 42  1  1
 15 43  1  0
 15 44  1  0
 16 45  1  0
 16 46  1  0
 17 47  1  6
 18 48  1  0
 18 49  1  0
 19 50  1  0
 19 51  1  0
 19 52  1  0
 20 53  1  1
 21 54  1  0
 21 55  1  0
 22 56  1  0
 23 57  1  0
 23 58  1  0
 24 59  1  0
 25 60  1  0
 25 61  1  0
 26 62  1  0
 26 63  1  0
 26 64  1  0
 27 65  1  0
 27 66  1  0
 27 67  1  0
 28 68  1  0
 28 69  1  0
 28 70  1  0
 29 71  1  0
 29 72  1  0
 29 73  1  0
M  END
> <Uni-Dock RESULT> 
ENERGY=   -3.548  LOWER_BOUND=    3.713  UPPER_BOUND=    7.195
INTER + INTRA:          -3.548
INTER:                  -3.548
INTRA:                   0.000
UNBOUND:                 0.000

$$$$

     RDKit          3D

 73 75  0  0  1  0  0  0  0  0999 V2000
   31.6003   12.0166   26.3121 C   0  0  1  0  0  0  0  0  0  0  0  0
   32.5965   13.0309   26.9409 C   0  0  2  0  0  0  0  0  0  0  0  0
   36.9127   12.3767   29.4124 C   0  0  0  0  0  0  0  0  0  0  0  0
   30.3036   12.8794   26.3641 C   0  0  2  0  0  0  0  0  0  0  0  0
   36.0959   12.1267   28.3677 C   0  0  0  0  0  0  0  0  0  0  0  0
   36.6134   13.2678   30.5268 C   0  0  0  0  0  0  0  0  0  0  0  0
   33.9953   12.4638   27.0686 C   0  0  0  0  0  0  0  0  0  0  0  0
   34.7631   12.6600   28.1590 C   0  0  0  0  0  0  0  0  0  0  0  0
   28.3572   11.2660   26.9750 C   0  0  0  0  0  0  0  0  0  0  0  0
   27.4005   11.5134   27.8874 C   0  0  0  0  0  0  0  0  0  0  0  0
   31.8425   13.5574   28.1680 C   0  0  0  0  0  0  0  0  0  0  0  0
   30.3610   13.5540   27.7547 C   0  0  0  0  0  0  0  0  0  0  0  0
   38.2436   11.6473   29.5296 C   0  0  0  0  0  0  0  0  0  0  0  0
   28.9420   12.2439   25.9737 C   0  0  1  0  0  0  0  0  0  0  0  0
   36.6882   12.6511   31.9048 C   0  0  0  0  0  0  0  0  0  0  0  0
   36.3995   14.5819   30.3525 C   0  0  0  0  0  0  0  0  0  0  0  0
   26.8049   10.5246   28.8769 C   0  0  1  0  0  0  0  0  0  0  0  0
   32.0501   11.6666   24.8729 C   0  0  0  0  0  0  0  0  0  0  0  0
   31.4960   10.7141   27.1408 C   0  0  0  0  0  0  0  0  0  0  0  0
   38.7509   11.4921   30.9766 C   0  0  2  0  0  0  0  0  0  0  0  0
   37.5986   11.4178   31.9766 C   0  0  0  0  0  0  0  0  0  0  0  0
   25.4290    9.9880   28.3809 C   0  0  0  0  0  0  0  0  0  0  0  0
   34.4392   11.6720   25.8478 C   0  0  0  0  0  0  0  0  0  0  0  0
   39.6250   12.5694   31.3250 O   0  0  0  0  0  0  0  0  0  0  0  0
   33.5485   11.9050   24.6203 C   0  0  0  0  0  0  0  0  0  0  0  0
   27.9459   13.3543   25.5899 C   0  0  0  0  0  0  0  0  0  0  0  0
   27.7776    9.3922   29.2414 C   0  0  0  0  0  0  0  0  0  0  0  0
   24.8008    8.9955   29.3676 C   0  0  0  0  0  0  0  0  0  0  0  0
   24.4241   11.1206   28.1230 C   0  0  0  0  0  0  0  0  0  0  0  0
   32.6937   13.8922   26.2590 H   0  0  0  0  0  0  0  0  0  0  0  0
   30.4639   13.6924   25.6364 H   0  0  0  0  0  0  0  0  0  0  0  0
   36.4503   11.4305   27.6099 H   0  0  0  0  0  0  0  0  0  0  0  0
   34.3628   13.2545   28.9767 H   0  0  0  0  0  0  0  0  0  0  0  0
   28.7381   10.2517   26.8932 H   0  0  0  0  0  0  0  0  0  0  0  0
   26.9954   12.5206   27.9671 H   0  0  0  0  0  0  0  0  0  0  0  0
   32.1749   14.5634   28.4462 H   0  0  0  0  0  0  0  0  0  0  0  0
   31.9828   12.9110   29.0422 H   0  0  0  0  0  0  0  0  0  0  0  0
   29.7799   13.0201   28.5119 H   0  0  0  0  0  0  0  0  0  0  0  0
   29.9680   14.5754   27.7028 H   0  0  0  0  0  0  0  0  0  0  0  0
   38.9930   12.1769   28.9282 H   0  0  0  0  0  0  0  0  0  0  0  0
   38.1284   10.6412   29.1047 H   0  0  0  0  0  0  0  0  0  0  0  0
   29.1023   11.6672   25.0520 H   0  0  0  0  0  0  0  0  0  0  0  0
   37.0576   13.3980   32.6194 H   0  0  0  0  0  0  0  0  0  0  0  0
   35.6814   12.3699   32.2364 H   0  0  0  0  0  0  0  0  0  0  0  0
   36.2157   15.2418   31.1946 H   0  0  0  0  0  0  0  0  0  0  0  0
   36.3976   15.0329   29.3642 H   0  0  0  0  0  0  0  0  0  0  0  0
   26.6372   11.0901   29.8050 H   0  0  0  0  0  0  0  0  0  0  0  0
   31.4877   12.2527   24.1354 H   0  0  0  0  0  0  0  0  0  0  0  0
   31.8152   10.6190   24.6461 H   0  0  0  0  0  0  0  0  0  0  0  0
   31.0725   10.8814   28.1357 H   0  0  0  0  0  0  0  0  0  0  0  0
   32.4693   10.2365   27.2859 H   0  0  0  0  0  0  0  0  0  0  0  0
   30.8724    9.9734   26.6315 H   0  0  0  0  0  0  0  0  0  0  0  0
   39.3546   10.5807   31.0472 H   0  0  0  0  0  0  0  0  0  0  0  0
   37.0044   10.5173   31.7755 H   0  0  0  0  0  0  0  0  0  0  0  0
   37.9856   11.3252   32.9983 H   0  0  0  0  0  0  0  0  0  0  0  0
   25.5800    9.4577   27.4309 H   0  0  0  0  0  0  0  0  0  0  0  0
   35.4651   11.9443   25.5734 H   0  0  0  0  0  0  0  0  0  0  0  0
   34.4354   10.6027   26.0902 H   0  0  0  0  0  0  0  0  0  0  0  0
   39.1844   13.4018   31.0767 H   0  0  0  0  0  0  0  0  0  0  0  0
   33.6860   12.9389   24.2764 H   0  0  0  0  0  0  0  0  0  0  0  0
   33.8830   11.2663   23.7941 H   0  0  0  0  0  0  0  0  0  0  0  0
   26.9767   12.9338   25.2989 H   0  0  0  0  0  0  0  0  0  0  0  0
   28.3207   13.9259   24.7333 H   0  0  0  0  0  0  0  0  0  0  0  0
   27.7818   14.0611   26.4103 H   0  0  0  0  0  0  0  0  0  0  0  0
   27.8716    8.6625   28.4299 H   0  0  0  0  0  0  0  0  0  0  0  0
   28.7755    9.7840   29.4694 H   0  0  0  0  0  0  0  0  0  0  0  0
   27.4401    8.8579   30.1355 H   0  0  0  0  0  0  0  0  0  0  0  0
   24.7014    9.4378   30.3645 H   0  0  0  0  0  0  0  0  0  0  0  0
   25.3984    8.0830   29.4526 H   0  0  0  0  0  0  0  0  0  0  0  0
   23.8032    8.6902   29.0327 H   0  0  0  0  0  0  0  0  0  0  0  0
   24.7564   11.7777   27.3137 H   0  0  0  0  0  0  0  0  0  0  0  0
   24.2761   11.7295   29.0212 H   0  0  0  0  0  0  0  0  0  0  0  0
   23.4502   10.7170   27.8250 H   0  0  0  0  0  0  0  0  0  0  0  0
  2  1  1  0
  3  5  2  0
  4  1  1  0
  5  8  1  0
  6  3  1  0
  7  2  1  0
  8  7  2  0
  9 14  1  0
 10  9  2  0
  2 11  1  0
  4 12  1  0
 13  3  1  0
 14  4  1  0
 15  6  1  0
 16  6  2  0
 17 10  1  0
 18  1  1  0
  1 19  1  1
 20 13  1  0
 21 20  1  0
 22 17  1  0
 23  7  1  0
 20 24  1  0
 25 18  1  0
 14 26  1  0
 17 27  1  0
 28 22  1  0
 29 22  1  0
 23 25  1  0
 12 11  1  0
 15 21  1  0
  2 30  1  6
  4 31  1  1
  5 32  1  0
  8 33  1  0
  9 34  1  0
 10 35  1  0
 11 36  1  0
 11 37  1  0
 12 38  1  0
 12 39  1  0
 13 40  1  0
 13 41  1  0
 14 42  1  1
 15 43  1  0
 15 44  1  0
 16 45  1  0
 16 46  1  0
 17 47  1  6
 18 48  1  0
 18 49  1  0
 19 50  1  0
 19 51  1  0
 19 52  1  0
 20 53  1  1
 21 54  1  0
 21 55  1  0
 22 56  1  0
 23 57  1  0
 23 58  1  0
 24 59  1  0
 25 60  1  0
 25 61  1  0
 26 62  1  0
 26 63  1  0
 26 64  1  0
 27 65  1  0
 27 66  1  0
 27 67  1  0
 28 68  1  0
 28 69  1  0
 28 70  1  0
 29 71  1  0
 29 72  1  0
 29 73  1  0
M  END
> <Uni-Dock RESULT> 
ENERGY=   -3.496  LOWER_BOUND=    7.623  UPPER_BOUND=   12.633
INTER + INTRA:          -3.496
INTER:                  -3.496
INTRA:                   0.000
UNBOUND:                 0.000

$$$$

     RDKit          3D

 73 75  0  0  1  0  0  0  0  0999 V2000
   28.7877   11.1403   27.5097 C   0  0  1  0  0  0  0  0  0  0  0  0
   29.4723   11.2805   26.1211 C   0  0  2  0  0  0  0  0  0  0  0  0
   33.4387   13.9538   24.6090 C   0  0  0  0  0  0  0  0  0  0  0  0
   27.3561   10.7421   27.0401 C   0  0  2  0  0  0  0  0  0  0  0  0
   32.8414   13.1039   25.4703 C   0  0  0  0  0  0  0  0  0  0  0  0
   32.8197   14.5294   23.4211 C   0  0  0  0  0  0  0  0  0  0  0  0
   30.9211   11.7086   26.2316 C   0  0  0  0  0  0  0  0  0  0  0  0
   31.4747   12.6217   25.4088 C   0  0  0  0  0  0  0  0  0  0  0  0
   25.6870   11.9385   28.6363 C   0  0  0  0  0  0  0  0  0  0  0  0
   24.5810   12.5993   28.2502 C   0  0  0  0  0  0  0  0  0  0  0  0
   28.4653   12.1032   25.3083 C   0  0  0  0  0  0  0  0  0  0  0  0
   27.0857   11.6763   25.8375 C   0  0  0  0  0  0  0  0  0  0  0  0
   34.8541   14.4435   24.8811 C   0  0  0  0  0  0  0  0  0  0  0  0
   26.2103   10.6273   28.0814 C   0  0  1  0  0  0  0  0  0  0  0  0
   32.8145   16.0389   23.3438 C   0  0  0  0  0  0  0  0  0  0  0  0
   32.3857   13.7693   22.4028 C   0  0  0  0  0  0  0  0  0  0  0  0
   24.0510   13.9045   28.8221 C   0  0  1  0  0  0  0  0  0  0  0  0
   29.4957   10.0363   28.3319 C   0  0  0  0  0  0  0  0  0  0  0  0
   28.8175   12.4647   28.3091 C   0  0  0  0  0  0  0  0  0  0  0  0
   35.1711   15.8228   24.2709 C   0  0  2  0  0  0  0  0  0  0  0  0
   33.9242   16.6996   24.1728 C   0  0  0  0  0  0  0  0  0  0  0  0
   22.8875   13.6502   29.8265 C   0  0  0  0  0  0  0  0  0  0  0  0
   31.6767   10.9992   27.3452 C   0  0  0  0  0  0  0  0  0  0  0  0
   35.7649   15.6798   22.9775 O   0  0  0  0  0  0  0  0  0  0  0  0
   30.9414    9.7645   27.8825 C   0  0  0  0  0  0  0  0  0  0  0  0
   25.0853    9.7412   27.5144 C   0  0  0  0  0  0  0  0  0  0  0  0
   25.1603   14.7825   29.4221 C   0  0  0  0  0  0  0  0  0  0  0  0
   22.3268   14.9532   30.4105 C   0  0  0  0  0  0  0  0  0  0  0  0
   21.7317   12.8657   29.1877 C   0  0  0  0  0  0  0  0  0  0  0  0
   29.4990   10.2867   25.6437 H   0  0  0  0  0  0  0  0  0  0  0  0
   27.4598    9.7320   26.6099 H   0  0  0  0  0  0  0  0  0  0  0  0
   33.4261   12.7597   26.3212 H   0  0  0  0  0  0  0  0  0  0  0  0
   30.8563   13.0635   24.6312 H   0  0  0  0  0  0  0  0  0  0  0  0
   26.2623   12.3414   29.4653 H   0  0  0  0  0  0  0  0  0  0  0  0
   23.9839   12.1968   27.4340 H   0  0  0  0  0  0  0  0  0  0  0  0
   28.5566   11.9080   24.2344 H   0  0  0  0  0  0  0  0  0  0  0  0
   28.6009   13.1804   25.4597 H   0  0  0  0  0  0  0  0  0  0  0  0
   26.5157   12.5689   26.1106 H   0  0  0  0  0  0  0  0  0  0  0  0
   26.5162   11.1507   25.0630 H   0  0  0  0  0  0  0  0  0  0  0  0
   35.5662   13.6984   24.5048 H   0  0  0  0  0  0  0  0  0  0  0  0
   34.9946   14.5170   25.9678 H   0  0  0  0  0  0  0  0  0  0  0  0
   26.6070   10.0750   28.9448 H   0  0  0  0  0  0  0  0  0  0  0  0
   32.9293   16.3513   22.2978 H   0  0  0  0  0  0  0  0  0  0  0  0
   31.8433   16.4206   23.6810 H   0  0  0  0  0  0  0  0  0  0  0  0
   31.9617   14.2120   21.5069 H   0  0  0  0  0  0  0  0  0  0  0  0
   32.4381   12.6847   22.4385 H   0  0  0  0  0  0  0  0  0  0  0  0
   23.6484   14.4673   27.9675 H   0  0  0  0  0  0  0  0  0  0  0  0
   28.9421    9.0909   28.2728 H   0  0  0  0  0  0  0  0  0  0  0  0
   29.4997   10.3001   29.3970 H   0  0  0  0  0  0  0  0  0  0  0  0
   28.2330   13.2572   27.8321 H   0  0  0  0  0  0  0  0  0  0  0  0
   29.8335   12.8503   28.4339 H   0  0  0  0  0  0  0  0  0  0  0  0
   28.4256   12.3219   29.3205 H   0  0  0  0  0  0  0  0  0  0  0  0
   35.9215   16.3238   24.8922 H   0  0  0  0  0  0  0  0  0  0  0  0
   33.5476   16.9049   25.1830 H   0  0  0  0  0  0  0  0  0  0  0  0
   34.1728   17.6670   23.7205 H   0  0  0  0  0  0  0  0  0  0  0  0
   23.2702   13.0513   30.6640 H   0  0  0  0  0  0  0  0  0  0  0  0
   32.6602   10.6734   26.9865 H   0  0  0  0  0  0  0  0  0  0  0  0
   31.8429   11.7001   28.1719 H   0  0  0  0  0  0  0  0  0  0  0  0
   35.2133   15.0631   22.4638 H   0  0  0  0  0  0  0  0  0  0  0  0
   30.9262    8.9949   27.0992 H   0  0  0  0  0  0  0  0  0  0  0  0
   31.5054    9.3324   28.7177 H   0  0  0  0  0  0  0  0  0  0  0  0
   24.2655    9.6333   28.2337 H   0  0  0  0  0  0  0  0  0  0  0  0
   25.4617    8.7346   27.2999 H   0  0  0  0  0  0  0  0  0  0  0  0
   24.6744   10.1441   26.5826 H   0  0  0  0  0  0  0  0  0  0  0  0
   25.5061   14.3950   30.3865 H   0  0  0  0  0  0  0  0  0  0  0  0
   26.0223   14.8485   28.7485 H   0  0  0  0  0  0  0  0  0  0  0  0
   24.8076   15.8071   29.5792 H   0  0  0  0  0  0  0  0  0  0  0  0
   22.0044   15.6360   29.6173 H   0  0  0  0  0  0  0  0  0  0  0  0
   23.0694   15.4673   31.0279 H   0  0  0  0  0  0  0  0  0  0  0  0
   21.4637   14.7528   31.0550 H   0  0  0  0  0  0  0  0  0  0  0  0
   22.0438   11.8607   28.8883 H   0  0  0  0  0  0  0  0  0  0  0  0
   21.3442   13.3829   28.3036 H   0  0  0  0  0  0  0  0  0  0  0  0
   20.9051   12.7438   29.8963 H   0  0  0  0  0  0  0  0  0  0  0  0
  2  1  1  0
  3  5  2  0
  4  1  1  0
  5  8  1  0
  6  3  1  0
  7  2  1  0
  8  7  2  0
  9 14  1  0
 10  9  2  0
  2 11  1  0
  4 12  1  0
 13  3  1  0
 14  4  1  0
 15  6  1  0
 16  6  2  0
 17 10  1  0
 18  1  1  0
  1 19  1  1
 20 13  1  0
 21 20  1  0
 22 17  1  0
 23  7  1  0
 20 24  1  0
 25 18  1  0
 14 26  1  0
 17 27  1  0
 28 22  1  0
 29 22  1  0
 23 25  1  0
 12 11  1  0
 15 21  1  0
  2 30  1  6
  4 31  1  1
  5 32  1  0
  8 33  1  0
  9 34  1  0
 10 35  1  0
 11 36  1  0
 11 37  1  0
 12 38  1  0
 12 39  1  0
 13 40  1  0
 13 41  1  0
 14 42  1  1
 15 43  1  0
 15 44  1  0
 16 45  1  0
 16 46  1  0
 17 47  1  6
 18 48  1  0
 18 49  1  0
 19 50  1  0
 19 51  1  0
 19 52  1  0
 20 53  1  1
 21 54  1  0
 21 55  1  0
 22 56  1  0
 23 57  1  0
 23 58  1  0
 24 59  1  0
 25 60  1  0
 25 61  1  0
 26 62  1  0
 26 63  1  0
 26 64  1  0
 27 65  1  0
 27 66  1  0
 27 67  1  0
 28 68  1  0
 28 69  1  0
 28 70  1  0
 29 71  1  0
 29 72  1  0
 29 73  1  0
M  END
> <Uni-Dock RESULT> 
ENERGY=   -3.462  LOWER_BOUND=    6.620  UPPER_BOUND=   10.421
INTER + INTRA:          -3.462
INTER:                  -3.462
INTRA:                   0.000
UNBOUND:                 0.000

$$$$

     RDKit          3D

 73 75  0  0  1  0  0  0  0  0999 V2000
   28.9510    4.3687   31.6148 C   0  0  1  0  0  0  0  0  0  0  0  0
   27.6500    4.7755   32.3622 C   0  0  2  0  0  0  0  0  0  0  0  0
   22.8065    4.1855   31.1967 C   0  0  0  0  0  0  0  0  0  0  0  0
   29.9228    5.4282   32.2161 C   0  0  2  0  0  0  0  0  0  0  0  0
   24.0595    3.7035   31.3333 C   0  0  0  0  0  0  0  0  0  0  0  0
   22.3909    5.5547   31.4760 C   0  0  0  0  0  0  0  0  0  0  0  0
   26.4622    3.9263   31.9590 C   0  0  0  0  0  0  0  0  0  0  0  0
   25.2355    4.4442   31.7489 C   0  0  0  0  0  0  0  0  0  0  0  0
   31.5010    6.1732   30.2875 C   0  0  0  0  0  0  0  0  0  0  0  0
   31.8346    7.4450   30.0042 C   0  0  0  0  0  0  0  0  0  0  0  0
   27.6164    6.3015   32.2150 C   0  0  0  0  0  0  0  0  0  0  0  0
   29.0926    6.7332   32.2226 C   0  0  0  0  0  0  0  0  0  0  0  0
   21.7036    3.2930   30.6453 C   0  0  0  0  0  0  0  0  0  0  0  0
   31.3684    5.5462   31.6623 C   0  0  1  0  0  0  0  0  0  0  0  0
   21.7229    6.2884   30.3357 C   0  0  0  0  0  0  0  0  0  0  0  0
   22.4873    6.0941   32.7019 C   0  0  0  0  0  0  0  0  0  0  0  0
   31.9837    8.0638   28.6235 C   0  0  1  0  0  0  0  0  0  0  0  0
   29.3275    2.9116   31.9772 C   0  0  0  0  0  0  0  0  0  0  0  0
   28.8003    4.4858   30.0794 C   0  0  0  0  0  0  0  0  0  0  0  0
   20.5693    4.0591   29.9368 C   0  0  2  0  0  0  0  0  0  0  0  0
   21.0697    5.3570   29.3058 C   0  0  0  0  0  0  0  0  0  0  0  0
   33.4810    8.1520   28.2023 C   0  0  0  0  0  0  0  0  0  0  0  0
   26.7936    2.4471   31.8311 C   0  0  0  0  0  0  0  0  0  0  0  0
   19.5042    4.3435   30.8482 O   0  0  0  0  0  0  0  0  0  0  0  0
   28.1370    2.0717   32.4703 C   0  0  0  0  0  0  0  0  0  0  0  0
   32.2665    6.2336   32.7080 C   0  0  0  0  0  0  0  0  0  0  0  0
   31.1181    7.3643   27.5638 C   0  0  0  0  0  0  0  0  0  0  0  0
   33.6600    8.7836   26.8159 C   0  0  0  0  0  0  0  0  0  0  0  0
   34.3211    8.9479   29.2123 C   0  0  0  0  0  0  0  0  0  0  0  0
   27.7920    4.5833   33.4388 H   0  0  0  0  0  0  0  0  0  0  0  0
   30.0399    5.1492   33.2765 H   0  0  0  0  0  0  0  0  0  0  0  0
   24.2247    2.6581   31.0799 H   0  0  0  0  0  0  0  0  0  0  0  0
   25.0934    5.5142   31.8802 H   0  0  0  0  0  0  0  0  0  0  0  0
   31.3491    5.4860   29.4596 H   0  0  0  0  0  0  0  0  0  0  0  0
   32.0091    8.1396   30.8238 H   0  0  0  0  0  0  0  0  0  0  0  0
   27.0600    6.7745   33.0314 H   0  0  0  0  0  0  0  0  0  0  0  0
   27.1467    6.6110   31.2741 H   0  0  0  0  0  0  0  0  0  0  0  0
   29.2847    7.3651   31.3508 H   0  0  0  0  0  0  0  0  0  0  0  0
   29.3203    7.3290   33.1133 H   0  0  0  0  0  0  0  0  0  0  0  0
   21.2902    2.6918   31.4648 H   0  0  0  0  0  0  0  0  0  0  0  0
   22.1467    2.6007   29.9171 H   0  0  0  0  0  0  0  0  0  0  0  0
   31.7657    4.5262   31.5648 H   0  0  0  0  0  0  0  0  0  0  0  0
   20.9519    6.9598   30.7355 H   0  0  0  0  0  0  0  0  0  0  0  0
   22.4583    6.9225   29.8260 H   0  0  0  0  0  0  0  0  0  0  0  0
   22.1387    7.1017   32.9057 H   0  0  0  0  0  0  0  0  0  0  0  0
   22.9209    5.5456   33.5334 H   0  0  0  0  0  0  0  0  0  0  0  0
   31.5910    9.0875   28.7074 H   0  0  0  0  0  0  0  0  0  0  0  0
   30.0991    2.8909   32.7569 H   0  0  0  0  0  0  0  0  0  0  0  0
   29.7802    2.4104   31.1124 H   0  0  0  0  0  0  0  0  0  0  0  0
   28.6464    5.5175   29.7493 H   0  0  0  0  0  0  0  0  0  0  0  0
   27.9568    3.9015   29.7002 H   0  0  0  0  0  0  0  0  0  0  0  0
   29.6862    4.0988   29.5671 H   0  0  0  0  0  0  0  0  0  0  0  0
   20.1371    3.4186   29.1602 H   0  0  0  0  0  0  0  0  0  0  0  0
   21.7982    5.1185   28.5203 H   0  0  0  0  0  0  0  0  0  0  0  0
   20.2418    5.8907   28.8239 H   0  0  0  0  0  0  0  0  0  0  0  0
   33.8943    7.1352   28.1574 H   0  0  0  0  0  0  0  0  0  0  0  0
   26.0145    1.8425   32.3102 H   0  0  0  0  0  0  0  0  0  0  0  0
   26.8176    2.1731   30.7697 H   0  0  0  0  0  0  0  0  0  0  0  0
   19.8954    4.7347   31.6498 H   0  0  0  0  0  0  0  0  0  0  0  0
   28.0535    2.1873   33.5592 H   0  0  0  0  0  0  0  0  0  0  0  0
   28.3457    1.0095   32.2957 H   0  0  0  0  0  0  0  0  0  0  0  0
   33.2978    6.3213   32.3480 H   0  0  0  0  0  0  0  0  0  0  0  0
   32.2957    5.6467   33.6331 H   0  0  0  0  0  0  0  0  0  0  0  0
   31.9057    7.2351   32.9654 H   0  0  0  0  0  0  0  0  0  0  0  0
   31.5377    6.3948   27.2742 H   0  0  0  0  0  0  0  0  0  0  0  0
   30.0974    7.2025   27.9287 H   0  0  0  0  0  0  0  0  0  0  0  0
   31.0333    7.9767   26.6601 H   0  0  0  0  0  0  0  0  0  0  0  0
   33.1908    9.7719   26.7676 H   0  0  0  0  0  0  0  0  0  0  0  0
   33.2260    8.1565   26.0313 H   0  0  0  0  0  0  0  0  0  0  0  0
   34.7223    8.9019   26.5747 H   0  0  0  0  0  0  0  0  0  0  0  0
   34.3520    8.4544   30.1884 H   0  0  0  0  0  0  0  0  0  0  0  0
   33.9208    9.9578   29.3503 H   0  0  0  0  0  0  0  0  0  0  0  0
   35.3577    9.0400   28.8699 H   0  0  0  0  0  0  0  0  0  0  0  0
  2  1  1  0
  3  5  2  0
  4  1  1  0
  5  8  1  0
  6  3  1  0
  7  2  1  0
  8  7  2  0
  9 14  1  0
 10  9  2  0
  2 11  1  0
  4 12  1  0
 13  3  1  0
 14  4  1  0
 15  6  1  0
 16  6  2  0
 17 10  1  0
 18  1  1  0
  1 19  1  1
 20 13  1  0
 21 20  1  0
 22 17  1  0
 23  7  1  0
 20 24  1  0
 25 18  1  0
 14 26  1  0
 17 27  1  0
 28 22  1  0
 29 22  1  0
 23 25  1  0
 12 11  1  0
 15 21  1  0
  2 30  1  6
  4 31  1  1
  5 32  1  0
  8 33  1  0
  9 34  1  0
 10 35  1  0
 11 36  1  0
 11 37  1  0
 12 38  1  0
 12 39  1  0
 13 40  1  0
 13 41  1  0
 14 42  1  1
 15 43  1  0
 15 44  1  0
 16 45  1  0
 16 46  1  0
 17 47  1  6
 18 48  1  0
 18 49  1  0
 19 50  1  0
 19 51  1  0
 19 52  1  0
 20 53  1  1
 21 54  1  0
 21 55  1  0
 22 56  1  0
 23 57  1  0
 23 58  1  0
 24 59  1  0
 25 60  1  0
 25 61  1  0
 26 62  1  0
 26 63  1  0
 26 64  1  0
 27 65  1  0
 27 66  1  0
 27 67  1  0
 28 68  1  0
 28 69  1  0
 28 70  1  0
 29 71  1  0
 29 72  1  0
 29 73  1  0
M  END
> <Uni-Dock RESULT> 
ENERGY=   -3.409  LOWER_BOUND=    9.110  UPPER_BOUND=   12.110
INTER + INTRA:          -3.409
INTER:                  -3.409
INTRA:                   0.000
UNBOUND:                 0.000

$$$$
