
     RDKit          3D

 73 75  0  0  1  0  0  0  0  0999 V2000
   22.0669    7.8412   30.7868 C   0  0  1  0  0  0  0  0  0  0  0  0
   23.2767    7.0553   30.2073 C   0  0  2  0  0  0  0  0  0  0  0  0
   25.6271    2.9310   31.8423 C   0  0  0  0  0  0  0  0  0  0  0  0
   22.3750    9.2665   30.2279 C   0  0  2  0  0  0  0  0  0  0  0  0
   24.5050    3.6046   31.5144 C   0  0  0  0  0  0  0  0  0  0  0  0
   26.9853    3.4534   31.7526 C   0  0  0  0  0  0  0  0  0  0  0  0
   23.2930    5.6063   30.6539 C   0  0  0  0  0  0  0  0  0  0  0  0
   24.4184    4.9739   31.0428 C   0  0  0  0  0  0  0  0  0  0  0  0
   22.1346   11.7787   30.1958 C   0  0  0  0  0  0  0  0  0  0  0  0
   21.5380   12.5219   29.2471 C   0  0  0  0  0  0  0  0  0  0  0  0
   24.4721    7.9640   30.4957 C   0  0  0  0  0  0  0  0  0  0  0  0
   23.9154    9.3875   30.3903 C   0  0  0  0  0  0  0  0  0  0  0  0
   25.5299    1.5287   32.4263 C   0  0  0  0  0  0  0  0  0  0  0  0
   21.6152   10.4879   30.8175 C   0  0  1  0  0  0  0  0  0  0  0  0
   27.7916    3.4235   33.0310 C   0  0  0  0  0  0  0  0  0  0  0  0
   27.5292    3.8304   30.5843 C   0  0  0  0  0  0  0  0  0  0  0  0
   22.0530   13.8081   28.6206 C   0  0  1  0  0  0  0  0  0  0  0  0
   20.7551    7.2118   30.2547 C   0  0  0  0  0  0  0  0  0  0  0  0
   22.0482    7.8380   32.3373 C   0  0  0  0  0  0  0  0  0  0  0  0
   26.7056    1.1480   33.3474 C   0  0  2  0  0  0  0  0  0  0  0  0
   27.3058    2.3717   34.0375 C   0  0  0  0  0  0  0  0  0  0  0  0
   21.0793   14.9838   28.9256 C   0  0  0  0  0  0  0  0  0  0  0  0
   21.9253    4.9450   30.6090 C   0  0  0  0  0  0  0  0  0  0  0  0
   27.7215    0.4605   32.6116 O   0  0  0  0  0  0  0  0  0  0  0  0
   20.8997    5.7488   29.8031 C   0  0  0  0  0  0  0  0  0  0  0  0
   20.0913   10.3553   30.7109 C   0  0  0  0  0  0  0  0  0  0  0  0
   23.5194   14.1290   28.9424 C   0  0  0  0  0  0  0  0  0  0  0  0
   21.3887   16.2209   28.0758 C   0  0  0  0  0  0  0  0  0  0  0  0
   21.0340   15.3765   30.4068 C   0  0  0  0  0  0  0  0  0  0  0  0
   23.1787    7.0286   29.1095 H   0  0  0  0  0  0  0  0  0  0  0  0
   22.1737    9.2483   29.1450 H   0  0  0  0  0  0  0  0  0  0  0  0
   23.5556    3.0878   31.6415 H   0  0  0  0  0  0  0  0  0  0  0  0
   25.3564    5.5234   31.0279 H   0  0  0  0  0  0  0  0  0  0  0  0
   23.0923   12.1073   30.5957 H   0  0  0  0  0  0  0  0  0  0  0  0
   20.5817   12.1920   28.8437 H   0  0  0  0  0  0  0  0  0  0  0  0
   24.8801    7.8017   31.5001 H   0  0  0  0  0  0  0  0  0  0  0  0
   25.2868    7.8012   29.7818 H   0  0  0  0  0  0  0  0  0  0  0  0
   24.3515    9.9111   29.5320 H   0  0  0  0  0  0  0  0  0  0  0  0
   24.1883    9.9500   31.2908 H   0  0  0  0  0  0  0  0  0  0  0  0
   24.6062    1.4595   33.0161 H   0  0  0  0  0  0  0  0  0  0  0  0
   25.4524    0.8064   31.6043 H   0  0  0  0  0  0  0  0  0  0  0  0
   21.8458   10.5649   31.8886 H   0  0  0  0  0  0  0  0  0  0  0  0
   27.7635    4.4115   33.5068 H   0  0  0  0  0  0  0  0  0  0  0  0
   28.8438    3.2177   32.7937 H   0  0  0  0  0  0  0  0  0  0  0  0
   28.5548    4.1813   30.5245 H   0  0  0  0  0  0  0  0  0  0  0  0
   26.9638    3.8026   29.6568 H   0  0  0  0  0  0  0  0  0  0  0  0
   22.0155   13.6325   27.5356 H   0  0  0  0  0  0  0  0  0  0  0  0
   19.9740    7.2594   31.0235 H   0  0  0  0  0  0  0  0  0  0  0  0
   20.3682    7.7820   29.4018 H   0  0  0  0  0  0  0  0  0  0  0  0
   21.9585    6.8272   32.7457 H   0  0  0  0  0  0  0  0  0  0  0  0
   22.9515    8.2812   32.7672 H   0  0  0  0  0  0  0  0  0  0  0  0
   21.1970    8.4061   32.7257 H   0  0  0  0  0  0  0  0  0  0  0  0
   26.3513    0.4396   34.1044 H   0  0  0  0  0  0  0  0  0  0  0  0
   28.1497    2.0761   34.6721 H   0  0  0  0  0  0  0  0  0  0  0  0
   26.5510    2.8213   34.6952 H   0  0  0  0  0  0  0  0  0  0  0  0
   20.0670   14.6578   28.6468 H   0  0  0  0  0  0  0  0  0  0  0  0
   22.0006    3.9491   30.1566 H   0  0  0  0  0  0  0  0  0  0  0  0
   21.5520    4.8163   31.6319 H   0  0  0  0  0  0  0  0  0  0  0  0
   27.9204    0.9871   31.8169 H   0  0  0  0  0  0  0  0  0  0  0  0
   21.1912    5.7338   28.7443 H   0  0  0  0  0  0  0  0  0  0  0  0
   19.9214    5.2557   29.8519 H   0  0  0  0  0  0  0  0  0  0  0  0
   19.7145    9.5586   31.3569 H   0  0  0  0  0  0  0  0  0  0  0  0
   19.5920   11.2763   31.0340 H   0  0  0  0  0  0  0  0  0  0  0  0
   19.7731   10.1380   29.6859 H   0  0  0  0  0  0  0  0  0  0  0  0
   23.8724   14.9893   28.3655 H   0  0  0  0  0  0  0  0  0  0  0  0
   23.6724   14.3500   30.0034 H   0  0  0  0  0  0  0  0  0  0  0  0
   24.1681   13.2857   28.6785 H   0  0  0  0  0  0  0  0  0  0  0  0
   20.6014   16.9734   28.1949 H   0  0  0  0  0  0  0  0  0  0  0  0
   22.3355   16.6885   28.3643 H   0  0  0  0  0  0  0  0  0  0  0  0
   21.4416   15.9622   27.0133 H   0  0  0  0  0  0  0  0  0  0  0  0
   21.9938   15.7745   30.7508 H   0  0  0  0  0  0  0  0  0  0  0  0
   20.7685   14.5253   31.0407 H   0  0  0  0  0  0  0  0  0  0  0  0
   20.2785   16.1529   30.5721 H   0  0  0  0  0  0  0  0  0  0  0  0
  2  1  1  0
  3  5  2  0
  4  1  1  0
  5  8  1  0
  6  3  1  0
  7  2  1  0
  8  7  2  0
  9 14  1  0
 10  9  2  0
  2 11  1  0
  4 12  1  0
 13  3  1  0
 14  4  1  0
 15  6  1  0
 16  6  2  0
 17 10  1  0
 18  1  1  0
  1 19  1  6
 20 13  1  0
 21 20  1  0
 22 17  1  0
 23  7  1  0
 20 24  1  0
 25 18  1  0
 14 26  1  0
 17 27  1  0
 28 22  1  0
 29 22  1  0
 23 25  1  0
 12 11  1  0
 15 21  1  0
  2 30  1  1
  4 31  1  1
  5 32  1  0
  8 33  1  0
  9 34  1  0
 10 35  1  0
 11 36  1  0
 11 37  1  0
 12 38  1  0
 12 39  1  0
 13 40  1  0
 13 41  1  0
 14 42  1  6
 15 43  1  0
 15 44  1  0
 16 45  1  0
 16 46  1  0
 17 47  1  1
 18 48  1  0
 18 49  1  0
 19 50  1  0
 19 51  1  0
 19 52  1  0
 20 53  1  6
 21 54  1  0
 21 55  1  0
 22 56  1  0
 23 57  1  0
 23 58  1  0
 24 59  1  0
 25 60  1  0
 25 61  1  0
 26 62  1  0
 26 63  1  0
 26 64  1  0
 27 65  1  0
 27 66  1  0
 27 67  1  0
 28 68  1  0
 28 69  1  0
 28 70  1  0
 29 71  1  0
 29 72  1  0
 29 73  1  0
M  END
> <Uni-Dock RESULT> 
ENERGY=   -4.362  LOWER_BOUND=    0.000  UPPER_BOUND=    0.000
INTER + INTRA:          -4.362
INTER:                  -4.362
INTRA:                   0.000
UNBOUND:                 0.000

$$$$

     RDKit          3D

 73 75  0  0  1  0  0  0  0  0999 V2000
   26.3619    1.8117   32.5359 C   0  0  1  0  0  0  0  0  0  0  0  0
   27.6014    1.7712   31.5983 C   0  0  2  0  0  0  0  0  0  0  0  0
   32.3277    0.2959   32.4307 C   0  0  0  0  0  0  0  0  0  0  0  0
   25.5579    2.9757   31.8745 C   0  0  2  0  0  0  0  0  0  0  0  0
   30.9950    0.0929   32.4876 C   0  0  0  0  0  0  0  0  0  0  0  0
   32.9820    1.4742   31.8748 C   0  0  0  0  0  0  0  0  0  0  0  0
   28.6318    0.7522   32.0447 C   0  0  0  0  0  0  0  0  0  0  0  0
   29.9564    1.0031   32.0432 C   0  0  0  0  0  0  0  0  0  0  0  0
   23.8015    4.7882   31.8706 C   0  0  0  0  0  0  0  0  0  0  0  0
   22.6575    4.8041   31.1640 C   0  0  0  0  0  0  0  0  0  0  0  0
   27.9889    3.2423   31.4447 C   0  0  0  0  0  0  0  0  0  0  0  0
   26.6612    4.0045   31.5028 C   0  0  0  0  0  0  0  0  0  0  0  0
   33.2795   -0.7216   33.0438 C   0  0  0  0  0  0  0  0  0  0  0  0
   24.3812    3.6204   32.6597 C   0  0  1  0  0  0  0  0  0  0  0  0
   33.9179    2.2121   32.8049 C   0  0  0  0  0  0  0  0  0  0  0  0
   32.8544    1.8188   30.5833 C   0  0  0  0  0  0  0  0  0  0  0  0
   22.0763    5.9647   30.3719 C   0  0  1  0  0  0  0  0  0  0  0  0
   25.6525    0.4352   32.4936 C   0  0  0  0  0  0  0  0  0  0  0  0
   26.7400    2.1519   34.0007 C   0  0  0  0  0  0  0  0  0  0  0  0
   34.6177   -0.1236   33.5203 C   0  0  2  0  0  0  0  0  0  0  0  0
   34.4696    1.3381   33.9392 C   0  0  0  0  0  0  0  0  0  0  0  0
   20.6986    6.3841   30.9628 C   0  0  0  0  0  0  0  0  0  0  0  0
   28.0234   -0.5708   32.4803 C   0  0  0  0  0  0  0  0  0  0  0  0
   35.6132   -0.2359   32.4992 O   0  0  0  0  0  0  0  0  0  0  0  0
   26.5605   -0.7249   32.0520 C   0  0  0  0  0  0  0  0  0  0  0  0
   23.3113    2.6048   33.0785 C   0  0  0  0  0  0  0  0  0  0  0  0
   23.0400    7.1427   30.1709 C   0  0  0  0  0  0  0  0  0  0  0  0
   19.9400    7.3358   30.0314 C   0  0  0  0  0  0  0  0  0  0  0  0
   20.7920    7.0018   32.3627 C   0  0  0  0  0  0  0  0  0  0  0  0
   27.2697    1.4430   30.5995 H   0  0  0  0  0  0  0  0  0  0  0  0
   25.1483    2.5973   30.9245 H   0  0  0  0  0  0  0  0  0  0  0  0
   30.6487   -0.8344   32.9401 H   0  0  0  0  0  0  0  0  0  0  0  0
   30.3021    1.9748   31.6994 H   0  0  0  0  0  0  0  0  0  0  0  0
   24.4042    5.6936   31.9151 H   0  0  0  0  0  0  0  0  0  0  0  0
   22.0558    3.8976   31.1156 H   0  0  0  0  0  0  0  0  0  0  0  0
   28.6444    3.5824   32.2548 H   0  0  0  0  0  0  0  0  0  0  0  0
   28.5132    3.4272   30.5008 H   0  0  0  0  0  0  0  0  0  0  0  0
   26.4402    4.4713   30.5362 H   0  0  0  0  0  0  0  0  0  0  0  0
   26.7375    4.8076   32.2450 H   0  0  0  0  0  0  0  0  0  0  0  0
   32.7887   -1.1792   33.9130 H   0  0  0  0  0  0  0  0  0  0  0  0
   33.4672   -1.5177   32.3127 H   0  0  0  0  0  0  0  0  0  0  0  0
   24.7727    4.0590   33.5873 H   0  0  0  0  0  0  0  0  0  0  0  0
   33.3991    3.0750   33.2402 H   0  0  0  0  0  0  0  0  0  0  0  0
   34.7643    2.6105   32.2297 H   0  0  0  0  0  0  0  0  0  0  0  0
   33.3777    2.6764   30.1720 H   0  0  0  0  0  0  0  0  0  0  0  0
   32.2209    1.2562   29.9030 H   0  0  0  0  0  0  0  0  0  0  0  0
   21.8856    5.5584   29.3679 H   0  0  0  0  0  0  0  0  0  0  0  0
   25.2389    0.1925   33.4803 H   0  0  0  0  0  0  0  0  0  0  0  0
   24.7957    0.4601   31.8099 H   0  0  0  0  0  0  0  0  0  0  0  0
   27.4084    1.4042   34.4375 H   0  0  0  0  0  0  0  0  0  0  0  0
   27.2384    3.1219   34.0894 H   0  0  0  0  0  0  0  0  0  0  0  0
   25.8536    2.1877   34.6419 H   0  0  0  0  0  0  0  0  0  0  0  0
   34.9892   -0.7101   34.3679 H   0  0  0  0  0  0  0  0  0  0  0  0
   35.4375    1.7438   34.2568 H   0  0  0  0  0  0  0  0  0  0  0  0
   33.7962    1.3990   34.8037 H   0  0  0  0  0  0  0  0  0  0  0  0
   20.0844    5.4765   31.0506 H   0  0  0  0  0  0  0  0  0  0  0  0
   28.5880   -1.4070   32.0512 H   0  0  0  0  0  0  0  0  0  0  0  0
   28.0853   -0.6554   33.5717 H   0  0  0  0  0  0  0  0  0  0  0  0
   35.2311    0.1096   31.6728 H   0  0  0  0  0  0  0  0  0  0  0  0
   26.5190   -0.8082   30.9576 H   0  0  0  0  0  0  0  0  0  0  0  0
   26.1582   -1.6684   32.4401 H   0  0  0  0  0  0  0  0  0  0  0  0
   23.6935    1.9110   33.8313 H   0  0  0  0  0  0  0  0  0  0  0  0
   22.4479    3.1061   33.5313 H   0  0  0  0  0  0  0  0  0  0  0  0
   22.9544    2.0162   32.2269 H   0  0  0  0  0  0  0  0  0  0  0  0
   22.6179    7.8879   29.4897 H   0  0  0  0  0  0  0  0  0  0  0  0
   23.2817    7.6461   31.1121 H   0  0  0  0  0  0  0  0  0  0  0  0
   23.9802    6.8025   29.7214 H   0  0  0  0  0  0  0  0  0  0  0  0
   18.9178    7.4913   30.3936 H   0  0  0  0  0  0  0  0  0  0  0  0
   20.4197    8.3179   29.9718 H   0  0  0  0  0  0  0  0  0  0  0  0
   19.8736    6.9225   29.0198 H   0  0  0  0  0  0  0  0  0  0  0  0
   21.3388    7.9500   32.3525 H   0  0  0  0  0  0  0  0  0  0  0  0
   21.2874    6.3276   33.0676 H   0  0  0  0  0  0  0  0  0  0  0  0
   19.7900    7.2052   32.7570 H   0  0  0  0  0  0  0  0  0  0  0  0
  2  1  1  0
  3  5  2  0
  4  1  1  0
  5  8  1  0
  6  3  1  0
  7  2  1  0
  8  7  2  0
  9 14  1  0
 10  9  2  0
  2 11  1  0
  4 12  1  0
 13  3  1  0
 14  4  1  0
 15  6  1  0
 16  6  2  0
 17 10  1  0
 18  1  1  0
  1 19  1  6
 20 13  1  0
 21 20  1  0
 22 17  1  0
 23  7  1  0
 20 24  1  0
 25 18  1  0
 14 26  1  0
 17 27  1  0
 28 22  1  0
 29 22  1  0
 23 25  1  0
 12 11  1  0
 15 21  1  0
  2 30  1  1
  4 31  1  1
  5 32  1  0
  8 33  1  0
  9 34  1  0
 10 35  1  0
 11 36  1  0
 11 37  1  0
 12 38  1  0
 12 39  1  0
 13 40  1  0
 13 41  1  0
 14 42  1  6
 15 43  1  0
 15 44  1  0
 16 45  1  0
 16 46  1  0
 17 47  1  1
 18 48  1  0
 18 49  1  0
 19 50  1  0
 19 51  1  0
 19 52  1  0
 20 53  1  6
 21 54  1  0
 21 55  1  0
 22 56  1  0
 23 57  1  0
 23 58  1  0
 24 59  1  0
 25 60  1  0
 25 61  1  0
 26 62  1  0
 26 63  1  0
 26 64  1  0
 27 65  1  0
 27 66  1  0
 27 67  1  0
 28 68  1  0
 28 69  1  0
 28 70  1  0
 29 71  1  0
 29 72  1  0
 29 73  1  0
M  END
> <Uni-Dock RESULT> 
ENERGY=   -3.932  LOWER_BOUND=    4.068  UPPER_BOUND=    7.623
INTER + INTRA:          -3.932
INTER:                  -3.932
INTRA:                   0.000
UNBOUND:                 0.000

$$$$

     RDKit          3D

 73 75  0  0  1  0  0  0  0  0999 V2000
   28.9977    2.3446   31.4122 C   0  0  1  0  0  0  0  0  0  0  0  0
   28.5556    3.6174   32.1880 C   0  0  2  0  0  0  0  0  0  0  0  0
   25.1056    7.1055   31.1213 C   0  0  0  0  0  0  0  0  0  0  0  0
   30.4698    2.2155   31.9172 C   0  0  2  0  0  0  0  0  0  0  0  0
   25.4863    5.8188   31.2619 C   0  0  0  0  0  0  0  0  0  0  0  0
   25.9531    8.2694   31.3507 C   0  0  0  0  0  0  0  0  0  0  0  0
   27.1448    4.0482   31.8368 C   0  0  0  0  0  0  0  0  0  0  0  0
   26.8031    5.3365   31.6337 C   0  0  0  0  0  0  0  0  0  0  0  0
   32.8422    1.3676   31.7642 C   0  0  0  0  0  0  0  0  0  0  0  0
   33.4389    0.4824   32.5819 C   0  0  0  0  0  0  0  0  0  0  0  0
   29.7259    4.5831   31.9987 C   0  0  0  0  0  0  0  0  0  0  0  0
   30.9674    3.6870   31.9449 C   0  0  0  0  0  0  0  0  0  0  0  0
   23.7078    7.4350   30.6169 C   0  0  0  0  0  0  0  0  0  0  0  0
   31.4457    1.2699   31.1619 C   0  0  1  0  0  0  0  0  0  0  0  0
   26.0900    9.2276   30.1895 C   0  0  0  0  0  0  0  0  0  0  0  0
   26.4866    8.5379   32.5534 C   0  0  0  0  0  0  0  0  0  0  0  0
   34.8299    0.5764   33.1887 C   0  0  1  0  0  0  0  0  0  0  0  0
   28.0757    1.1654   31.8108 C   0  0  0  0  0  0  0  0  0  0  0  0
   28.9468    2.5421   29.8751 C   0  0  0  0  0  0  0  0  0  0  0  0
   23.6075    8.7839   29.8779 C   0  0  2  0  0  0  0  0  0  0  0  0
   24.9226    9.1571   29.1959 C   0  0  0  0  0  0  0  0  0  0  0  0
   35.7159   -0.6027   32.6907 C   0  0  0  0  0  0  0  0  0  0  0  0
   26.1642    2.8904   31.7480 C   0  0  0  0  0  0  0  0  0  0  0  0
   23.2165    9.8249   30.7777 O   0  0  0  0  0  0  0  0  0  0  0  0
   26.7083    1.5984   32.3660 C   0  0  0  0  0  0  0  0  0  0  0  0
   30.9395   -0.1753   31.0818 C   0  0  0  0  0  0  0  0  0  0  0  0
   35.4980    1.9502   33.0368 C   0  0  0  0  0  0  0  0  0  0  0  0
   37.0144   -0.7250   33.4954 C   0  0  0  0  0  0  0  0  0  0  0  0
   36.0434   -0.5370   31.1945 C   0  0  0  0  0  0  0  0  0  0  0  0
   28.5359    3.3779   33.2639 H   0  0  0  0  0  0  0  0  0  0  0  0
   30.4322    1.8768   32.9648 H   0  0  0  0  0  0  0  0  0  0  0  0
   24.7453    5.0511   31.0471 H   0  0  0  0  0  0  0  0  0  0  0  0
   27.5698    6.1008   31.7341 H   0  0  0  0  0  0  0  0  0  0  0  0
   33.3883    2.2621   31.4699 H   0  0  0  0  0  0  0  0  0  0  0  0
   32.8919   -0.4109   32.8800 H   0  0  0  0  0  0  0  0  0  0  0  0
   29.6427    5.1533   31.0662 H   0  0  0  0  0  0  0  0  0  0  0  0
   29.7918    5.3061   32.8190 H   0  0  0  0  0  0  0  0  0  0  0  0
   31.6071    3.8592   32.8179 H   0  0  0  0  0  0  0  0  0  0  0  0
   31.5549    3.9364   31.0536 H   0  0  0  0  0  0  0  0  0  0  0  0
   23.3935    6.6469   29.9198 H   0  0  0  0  0  0  0  0  0  0  0  0
   23.0123    7.4230   31.4652 H   0  0  0  0  0  0  0  0  0  0  0  0
   31.5479    1.6207   30.1261 H   0  0  0  0  0  0  0  0  0  0  0  0
   27.0260    9.0256   29.6543 H   0  0  0  0  0  0  0  0  0  0  0  0
   26.1605   10.2550   30.5709 H   0  0  0  0  0  0  0  0  0  0  0  0
   27.0842    9.4285   32.7215 H   0  0  0  0  0  0  0  0  0  0  0  0
   26.3442    7.8736   33.4015 H   0  0  0  0  0  0  0  0  0  0  0  0
   34.6808    0.4331   34.2688 H   0  0  0  0  0  0  0  0  0  0  0  0
   27.9050    0.5104   30.9475 H   0  0  0  0  0  0  0  0  0  0  0  0
   28.5546    0.5369   32.5709 H   0  0  0  0  0  0  0  0  0  0  0  0
   27.9346    2.7591   29.5214 H   0  0  0  0  0  0  0  0  0  0  0  0
   29.5895    3.3606   29.5371 H   0  0  0  0  0  0  0  0  0  0  0  0
   29.2730    1.6403   29.3474 H   0  0  0  0  0  0  0  0  0  0  0  0
   22.8122    8.7213   29.1269 H   0  0  0  0  0  0  0  0  0  0  0  0
   24.8297   10.1270   28.6931 H   0  0  0  0  0  0  0  0  0  0  0  0
   25.1507    8.4140   28.4212 H   0  0  0  0  0  0  0  0  0  0  0  0
   35.1552   -1.5334   32.8580 H   0  0  0  0  0  0  0  0  0  0  0  0
   25.2317    3.1430   32.2665 H   0  0  0  0  0  0  0  0  0  0  0  0
   25.9178    2.7050   30.6957 H   0  0  0  0  0  0  0  0  0  0  0  0
   23.7981    9.7774   31.5574 H   0  0  0  0  0  0  0  0  0  0  0  0
   26.7963    1.7353   33.4522 H   0  0  0  0  0  0  0  0  0  0  0  0
   25.9853    0.7864   32.2236 H   0  0  0  0  0  0  0  0  0  0  0  0
   30.0561   -0.2533   30.4433 H   0  0  0  0  0  0  0  0  0  0  0  0
   31.6970   -0.8344   30.6419 H   0  0  0  0  0  0  0  0  0  0  0  0
   30.6783   -0.5696   32.0694 H   0  0  0  0  0  0  0  0  0  0  0  0
   36.4350    1.9995   33.6001 H   0  0  0  0  0  0  0  0  0  0  0  0
   35.7205    2.1901   31.9924 H   0  0  0  0  0  0  0  0  0  0  0  0
   34.8512    2.7420   33.4324 H   0  0  0  0  0  0  0  0  0  0  0  0
   37.5426   -1.6478   33.2313 H   0  0  0  0  0  0  0  0  0  0  0  0
   37.6955    0.1097   33.3016 H   0  0  0  0  0  0  0  0  0  0  0  0
   36.8069   -0.7582   34.5699 H   0  0  0  0  0  0  0  0  0  0  0  0
   36.6589    0.3349   30.9516 H   0  0  0  0  0  0  0  0  0  0  0  0
   35.1355   -0.4965   30.5855 H   0  0  0  0  0  0  0  0  0  0  0  0
   36.6015   -1.4286   30.8872 H   0  0  0  0  0  0  0  0  0  0  0  0
  2  1  1  0
  3  5  2  0
  4  1  1  0
  5  8  1  0
  6  3  1  0
  7  2  1  0
  8  7  2  0
  9 14  1  0
 10  9  2  0
  2 11  1  0
  4 12  1  0
 13  3  1  0
 14  4  1  0
 15  6  1  0
 16  6  2  0
 17 10  1  0
 18  1  1  0
  1 19  1  6
 20 13  1  0
 21 20  1  0
 22 17  1  0
 23  7  1  0
 20 24  1  0
 25 18  1  0
 14 26  1  0
 17 27  1  0
 28 22  1  0
 29 22  1  0
 23 25  1  0
 12 11  1  0
 15 21  1  0
  2 30  1  1
  4 31  1  1
  5 32  1  0
  8 33  1  0
  9 34  1  0
 10 35  1  0
 11 36  1  0
 11 37  1  0
 12 38  1  0
 12 39  1  0
 13 40  1  0
 13 41  1  0
 14 42  1  6
 15 43  1  0
 15 44  1  0
 16 45  1  0
 16 46  1  0
 17 47  1  1
 18 48  1  0
 18 49  1  0
 19 50  1  0
 19 51  1  0
 19 52  1  0
 20 53  1  6
 21 54  1  0
 21 55  1  0
 22 56  1  0
 23 57  1  0
 23 58  1  0
 24 59  1  0
 25 60  1  0
 25 61  1  0
 26 62  1  0
 26 63  1  0
 26 64  1  0
 27 65  1  0
 27 66  1  0
 27 67  1  0
 28 68  1  0
 28 69  1  0
 28 70  1  0
 29 71  1  0
 29 72  1  0
 29 73  1  0
M  END
> <Uni-Dock RESULT> 
ENERGY=   -3.923  LOWER_BOUND=    4.872  UPPER_BOUND=   12.016
INTER + INTRA:          -3.923
INTER:                  -3.923
INTRA:                   0.000
UNBOUND:                 0.000

$$$$

     RDKit          3D

 73 75  0  0  1  0  0  0  0  0999 V2000
   29.8304   11.1946   19.7300 C   0  0  1  0  0  0  0  0  0  0  0  0
   29.7400   11.9076   21.1086 C   0  0  2  0  0  0  0  0  0  0  0  0
   33.1351   12.4765   24.7633 C   0  0  0  0  0  0  0  0  0  0  0  0
   28.3306   10.8118   19.5225 C   0  0  2  0  0  0  0  0  0  0  0  0
   32.7629   12.5527   23.4687 C   0  0  0  0  0  0  0  0  0  0  0  0
   32.2850   12.0409   25.8648 C   0  0  0  0  0  0  0  0  0  0  0  0
   31.0976   12.3427   21.6252 C   0  0  0  0  0  0  0  0  0  0  0  0
   31.4725   12.1935   22.9116 C   0  0  0  0  0  0  0  0  0  0  0  0
   26.4665    9.4855   18.4567 C   0  0  0  0  0  0  0  0  0  0  0  0
   25.5292    9.9451   17.6091 C   0  0  0  0  0  0  0  0  0  0  0  0
   28.8607   10.9755   21.9428 C   0  0  0  0  0  0  0  0  0  0  0  0
   27.8781   10.3632   20.9394 C   0  0  0  0  0  0  0  0  0  0  0  0
   34.5696   12.7919   25.1629 C   0  0  0  0  0  0  0  0  0  0  0  0
   27.9620    9.7765   18.4229 C   0  0  1  0  0  0  0  0  0  0  0  0
   32.8061   10.8830   26.6851 C   0  0  0  0  0  0  0  0  0  0  0  0
   31.1646   12.6984   26.2048 C   0  0  0  0  0  0  0  0  0  0  0  0
   24.0357    9.6612   17.6401 C   0  0  1  0  0  0  0  0  0  0  0  0
   30.3905   12.1898   18.6833 C   0  0  0  0  0  0  0  0  0  0  0  0
   30.7307    9.9330   19.7752 C   0  0  0  0  0  0  0  0  0  0  0  0
   35.0439   12.0604   26.4339 C   0  0  2  0  0  0  0  0  0  0  0  0
   34.3308   10.7220   26.6184 C   0  0  0  0  0  0  0  0  0  0  0  0
   23.6012    8.9183   16.3430 C   0  0  0  0  0  0  0  0  0  0  0  0
   31.9791   12.9668   20.5557 C   0  0  0  0  0  0  0  0  0  0  0  0
   34.8456   12.8779   27.5908 O   0  0  0  0  0  0  0  0  0  0  0  0
   31.2041   13.3456   19.2896 C   0  0  0  0  0  0  0  0  0  0  0  0
   28.4506   10.1834   17.0275 C   0  0  0  0  0  0  0  0  0  0  0  0
   23.5443    8.9836   18.9270 C   0  0  0  0  0  0  0  0  0  0  0  0
   22.0772    8.8772   16.1879 C   0  0  0  0  0  0  0  0  0  0  0  0
   24.1675    7.4984   16.2282 C   0  0  0  0  0  0  0  0  0  0  0  0
   29.1573   12.8349   20.9815 H   0  0  0  0  0  0  0  0  0  0  0  0
   27.7804   11.7389   19.2959 H   0  0  0  0  0  0  0  0  0  0  0  0
   33.5100   12.8886   22.7520 H   0  0  0  0  0  0  0  0  0  0  0  0
   30.7684   11.7497   23.6112 H   0  0  0  0  0  0  0  0  0  0  0  0
   26.1639    8.8221   19.2651 H   0  0  0  0  0  0  0  0  0  0  0  0
   25.8302   10.6119   16.8024 H   0  0  0  0  0  0  0  0  0  0  0  0
   29.4425   10.1791   22.4213 H   0  0  0  0  0  0  0  0  0  0  0  0
   28.3340   11.5170   22.7361 H   0  0  0  0  0  0  0  0  0  0  0  0
   26.8562   10.7037   21.1414 H   0  0  0  0  0  0  0  0  0  0  0  0
   27.8869    9.2720   21.0447 H   0  0  0  0  0  0  0  0  0  0  0  0
   35.2339   12.4978   24.3395 H   0  0  0  0  0  0  0  0  0  0  0  0
   34.6703   13.8760   25.2981 H   0  0  0  0  0  0  0  0  0  0  0  0
   28.4519    8.8218   18.6570 H   0  0  0  0  0  0  0  0  0  0  0  0
   32.3346    9.9517   26.3480 H   0  0  0  0  0  0  0  0  0  0  0  0
   32.5166   11.0207   27.7353 H   0  0  0  0  0  0  0  0  0  0  0  0
   30.5605   12.3871   27.0514 H   0  0  0  0  0  0  0  0  0  0  0  0
   30.8185   13.5628   25.6447 H   0  0  0  0  0  0  0  0  0  0  0  0
   23.5562   10.6508   17.6202 H   0  0  0  0  0  0  0  0  0  0  0  0
   31.0268   11.6618   17.9623 H   0  0  0  0  0  0  0  0  0  0  0  0
   29.5786   12.6332   18.0947 H   0  0  0  0  0  0  0  0  0  0  0  0
   31.7633   10.1738   20.0442 H   0  0  0  0  0  0  0  0  0  0  0  0
   30.3740    9.1904   20.4953 H   0  0  0  0  0  0  0  0  0  0  0  0
   30.7716    9.4387   18.7995 H   0  0  0  0  0  0  0  0  0  0  0  0
   36.1244   11.8918   26.3666 H   0  0  0  0  0  0  0  0  0  0  0  0
   34.6731   10.2310   27.5371 H   0  0  0  0  0  0  0  0  0  0  0  0
   34.5888   10.0578   25.7837 H   0  0  0  0  0  0  0  0  0  0  0  0
   23.9875    9.4902   15.4872 H   0  0  0  0  0  0  0  0  0  0  0  0
   32.4562   13.8757   20.9409 H   0  0  0  0  0  0  0  0  0  0  0  0
   32.7760   12.2629   20.2878 H   0  0  0  0  0  0  0  0  0  0  0  0
   33.9279   13.2032   27.5708 H   0  0  0  0  0  0  0  0  0  0  0  0
   30.5202   14.1715   19.5270 H   0  0  0  0  0  0  0  0  0  0  0  0
   31.8964   13.7369   18.5346 H   0  0  0  0  0  0  0  0  0  0  0  0
   29.5412   10.1580   16.9641 H   0  0  0  0  0  0  0  0  0  0  0  0
   28.0811    9.4902   16.2629 H   0  0  0  0  0  0  0  0  0  0  0  0
   28.1201   11.1924   16.7595 H   0  0  0  0  0  0  0  0  0  0  0  0
   22.4519    8.9212   18.9496 H   0  0  0  0  0  0  0  0  0  0  0  0
   23.9413    7.9699   19.0397 H   0  0  0  0  0  0  0  0  0  0  0  0
   23.8446    9.5614   19.8089 H   0  0  0  0  0  0  0  0  0  0  0  0
   21.8035    8.4905   15.2000 H   0  0  0  0  0  0  0  0  0  0  0  0
   21.6076    8.2296   16.9351 H   0  0  0  0  0  0  0  0  0  0  0  0
   21.6473    9.8797   16.2817 H   0  0  0  0  0  0  0  0  0  0  0  0
   23.7792    6.8418   17.0132 H   0  0  0  0  0  0  0  0  0  0  0  0
   25.2599    7.4950   16.2874 H   0  0  0  0  0  0  0  0  0  0  0  0
   23.8928    7.0555   15.2643 H   0  0  0  0  0  0  0  0  0  0  0  0
  2  1  1  0
  3  5  2  0
  4  1  1  0
  5  8  1  0
  6  3  1  0
  7  2  1  0
  8  7  2  0
  9 14  1  0
 10  9  2  0
  2 11  1  0
  4 12  1  0
 13  3  1  0
 14  4  1  0
 15  6  1  0
 16  6  2  0
 17 10  1  0
 18  1  1  0
  1 19  1  6
 20 13  1  0
 21 20  1  0
 22 17  1  0
 23  7  1  0
 20 24  1  0
 25 18  1  0
 14 26  1  0
 17 27  1  0
 28 22  1  0
 29 22  1  0
 23 25  1  0
 12 11  1  0
 15 21  1  0
  2 30  1  1
  4 31  1  1
  5 32  1  0
  8 33  1  0
  9 34  1  0
 10 35  1  0
 11 36  1  0
 11 37  1  0
 12 38  1  0
 12 39  1  0
 13 40  1  0
 13 41  1  0
 14 42  1  6
 15 43  1  0
 15 44  1  0
 16 45  1  0
 16 46  1  0
 17 47  1  1
 18 48  1  0
 18 49  1  0
 19 50  1  0
 19 51  1  0
 19 52  1  0
 20 53  1  6
 21 54  1  0
 21 55  1  0
 22 56  1  0
 23 57  1  0
 23 58  1  0
 24 59  1  0
 25 60  1  0
 25 61  1  0
 26 62  1  0
 26 63  1  0
 26 64  1  0
 27 65  1  0
 27 66  1  0
 27 67  1  0
 28 68  1  0
 28 69  1  0
 28 70  1  0
 29 71  1  0
 29 72  1  0
 29 73  1  0
M  END
> <Uni-Dock RESULT> 
ENERGY=   -3.853  LOWER_BOUND=   11.602  UPPER_BOUND=   13.745
INTER + INTRA:          -3.853
INTER:                  -3.853
INTRA:                   0.000
UNBOUND:                 0.000

$$$$

     RDKit          3D

 73 75  0  0  1  0  0  0  0  0999 V2000
   25.5091   10.8718   28.9198 C   0  0  1  0  0  0  0  0  0  0  0  0
   24.2976   10.4321   29.7893 C   0  0  2  0  0  0  0  0  0  0  0  0
   22.1234    5.9481   30.4008 C   0  0  0  0  0  0  0  0  0  0  0  0
   25.1416   12.3703   28.6785 C   0  0  2  0  0  0  0  0  0  0  0  0
   23.2134    6.7427   30.3697 C   0  0  0  0  0  0  0  0  0  0  0  0
   20.7496    6.3861   30.1855 C   0  0  0  0  0  0  0  0  0  0  0  0
   24.3371    8.9556   30.1324 C   0  0  0  0  0  0  0  0  0  0  0  0
   23.2452    8.1658   30.0900 C   0  0  0  0  0  0  0  0  0  0  0  0
   25.3151   14.5667   27.4472 C   0  0  0  0  0  0  0  0  0  0  0  0
   25.8533   15.7105   27.9058 C   0  0  0  0  0  0  0  0  0  0  0  0
   23.0917   11.0210   29.0566 C   0  0  0  0  0  0  0  0  0  0  0  0
   23.6065   12.3273   28.4435 C   0  0  0  0  0  0  0  0  0  0  0  0
   22.2806    4.4478   30.6041 C   0  0  0  0  0  0  0  0  0  0  0  0
   25.8927   13.1618   27.5712 C   0  0  1  0  0  0  0  0  0  0  0  0
   19.9969    5.6838   29.0785 C   0  0  0  0  0  0  0  0  0  0  0  0
   20.1491    7.2751   30.9931 C   0  0  0  0  0  0  0  0  0  0  0  0
   25.2800   17.1140   27.7885 C   0  0  1  0  0  0  0  0  0  0  0  0
   26.8141   10.6516   29.7250 C   0  0  0  0  0  0  0  0  0  0  0  0
   25.5907   10.0914   27.5824 C   0  0  0  0  0  0  0  0  0  0  0  0
   21.1536    3.6061   29.9742 C   0  0  2  0  0  0  0  0  0  0  0  0
   20.5503    4.2908   28.7490 C   0  0  0  0  0  0  0  0  0  0  0  0
   26.2343   18.0180   26.9547 C   0  0  0  0  0  0  0  0  0  0  0  0
   25.7186    8.4656   30.5341 C   0  0  0  0  0  0  0  0  0  0  0  0
   20.1268    3.3381   30.9335 O   0  0  0  0  0  0  0  0  0  0  0  0
   26.6894    9.6085   30.8482 C   0  0  0  0  0  0  0  0  0  0  0  0
   27.4140   13.1662   27.7635 C   0  0  0  0  0  0  0  0  0  0  0  0
   23.8200   17.1667   27.3167 C   0  0  0  0  0  0  0  0  0  0  0  0
   25.8587   19.5000   27.0594 C   0  0  0  0  0  0  0  0  0  0  0  0
   26.3295   17.6155   25.4785 C   0  0  0  0  0  0  0  0  0  0  0  0
   24.3516   10.9645   30.7532 H   0  0  0  0  0  0  0  0  0  0  0  0
   25.2992   12.9070   29.6276 H   0  0  0  0  0  0  0  0  0  0  0  0
   24.1803    6.2731   30.5409 H   0  0  0  0  0  0  0  0  0  0  0  0
   22.2934    8.6077   29.8057 H   0  0  0  0  0  0  0  0  0  0  0  0
   24.3662   14.6086   26.9154 H   0  0  0  0  0  0  0  0  0  0  0  0
   26.8006   15.6691   28.4414 H   0  0  0  0  0  0  0  0  0  0  0  0
   22.7291   10.3590   28.2616 H   0  0  0  0  0  0  0  0  0  0  0  0
   22.2531   11.2039   29.7373 H   0  0  0  0  0  0  0  0  0  0  0  0
   23.1224   13.1918   28.9119 H   0  0  0  0  0  0  0  0  0  0  0  0
   23.3558   12.3493   27.3765 H   0  0  0  0  0  0  0  0  0  0  0  0
   23.2290    4.1315   30.1498 H   0  0  0  0  0  0  0  0  0  0  0  0
   22.3435    4.2400   31.6795 H   0  0  0  0  0  0  0  0  0  0  0  0
   25.7038   12.6806   26.6021 H   0  0  0  0  0  0  0  0  0  0  0  0
   20.0185    6.2995   28.1709 H   0  0  0  0  0  0  0  0  0  0  0  0
   18.9416    5.5801   29.3639 H   0  0  0  0  0  0  0  0  0  0  0  0
   19.1131    7.5642   30.8456 H   0  0  0  0  0  0  0  0  0  0  0  0
   20.6769    7.7409   31.8208 H   0  0  0  0  0  0  0  0  0  0  0  0
   25.2780   17.5086   28.8150 H   0  0  0  0  0  0  0  0  0  0  0  0
   27.6242   10.3402   29.0541 H   0  0  0  0  0  0  0  0  0  0  0  0
   27.1511   11.5889   30.1834 H   0  0  0  0  0  0  0  0  0  0  0  0
   25.7231    9.0171   27.7403 H   0  0  0  0  0  0  0  0  0  0  0  0
   24.6944   10.2196   26.9681 H   0  0  0  0  0  0  0  0  0  0  0  0
   26.4419   10.4235   26.9797 H   0  0  0  0  0  0  0  0  0  0  0  0
   21.5566    2.6293   29.6846 H   0  0  0  0  0  0  0  0  0  0  0  0
   19.7408    3.6807   28.3310 H   0  0  0  0  0  0  0  0  0  0  0  0
   21.3192    4.3813   27.9712 H   0  0  0  0  0  0  0  0  0  0  0  0
   27.2426   17.9198   27.3819 H   0  0  0  0  0  0  0  0  0  0  0  0
   25.6508    7.8293   31.4244 H   0  0  0  0  0  0  0  0  0  0  0  0
   26.1363    7.8568   29.7234 H   0  0  0  0  0  0  0  0  0  0  0  0
   19.8823    4.1835   31.3506 H   0  0  0  0  0  0  0  0  0  0  0  0
   26.3556   10.1147   31.7640 H   0  0  0  0  0  0  0  0  0  0  0  0
   27.6813    9.2000   31.0757 H   0  0  0  0  0  0  0  0  0  0  0  0
   27.8372   12.1698   27.6148 H   0  0  0  0  0  0  0  0  0  0  0  0
   27.9018   13.8208   27.0319 H   0  0  0  0  0  0  0  0  0  0  0  0
   27.6958   13.5068   28.7653 H   0  0  0  0  0  0  0  0  0  0  0  0
   23.4216   18.1843   27.3743 H   0  0  0  0  0  0  0  0  0  0  0  0
   23.7045   16.8182   26.2856 H   0  0  0  0  0  0  0  0  0  0  0  0
   23.1833   16.5430   27.9549 H   0  0  0  0  0  0  0  0  0  0  0  0
   26.6304   20.1239   26.5952 H   0  0  0  0  0  0  0  0  0  0  0  0
   24.9126   19.7185   26.5541 H   0  0  0  0  0  0  0  0  0  0  0  0
   25.7695   19.8078   28.1063 H   0  0  0  0  0  0  0  0  0  0  0  0
   25.3744   17.7454   24.9599 H   0  0  0  0  0  0  0  0  0  0  0  0
   26.6426   16.5733   25.3652 H   0  0  0  0  0  0  0  0  0  0  0  0
   27.0706   18.2355   24.9616 H   0  0  0  0  0  0  0  0  0  0  0  0
  2  1  1  0
  3  5  2  0
  4  1  1  0
  5  8  1  0
  6  3  1  0
  7  2  1  0
  8  7  2  0
  9 14  1  0
 10  9  2  0
  2 11  1  0
  4 12  1  0
 13  3  1  0
 14  4  1  0
 15  6  1  0
 16  6  2  0
 17 10  1  0
 18  1  1  0
  1 19  1  6
 20 13  1  0
 21 20  1  0
 22 17  1  0
 23  7  1  0
 20 24  1  0
 25 18  1  0
 14 26  1  0
 17 27  1  0
 28 22  1  0
 29 22  1  0
 23 25  1  0
 12 11  1  0
 15 21  1  0
  2 30  1  1
  4 31  1  1
  5 32  1  0
  8 33  1  0
  9 34  1  0
 10 35  1  0
 11 36  1  0
 11 37  1  0
 12 38  1  0
 12 39  1  0
 13 40  1  0
 13 41  1  0
 14 42  1  6
 15 43  1  0
 15 44  1  0
 16 45  1  0
 16 46  1  0
 17 47  1  1
 18 48  1  0
 18 49  1  0
 19 50  1  0
 19 51  1  0
 19 52  1  0
 20 53  1  6
 21 54  1  0
 21 55  1  0
 22 56  1  0
 23 57  1  0
 23 58  1  0
 24 59  1  0
 25 60  1  0
 25 61  1  0
 26 62  1  0
 26 63  1  0
 26 64  1  0
 27 65  1  0
 27 66  1  0
 27 67  1  0
 28 68  1  0
 28 69  1  0
 28 70  1  0
 29 71  1  0
 29 72  1  0
 29 73  1  0
M  END
> <Uni-Dock RESULT> 
ENERGY=   -3.826  LOWER_BOUND=    3.563  UPPER_BOUND=    6.014
INTER + INTRA:          -3.826
INTER:                  -3.826
INTRA:                   0.000
UNBOUND:                 0.000

$$$$

     RDKit          3D

 73 75  0  0  1  0  0  0  0  0999 V2000
   24.7975    9.4197   30.0443 C   0  0  1  0  0  0  0  0  0  0  0  0
   23.4767    9.9007   29.3800 C   0  0  2  0  0  0  0  0  0  0  0  0
   21.5013   14.4913   28.8988 C   0  0  0  0  0  0  0  0  0  0  0  0
   24.3906    7.9638   30.4365 C   0  0  2  0  0  0  0  0  0  0  0  0
   22.5289   13.6248   28.7824 C   0  0  0  0  0  0  0  0  0  0  0  0
   20.1657   14.1613   29.3815 C   0  0  0  0  0  0  0  0  0  0  0  0
   23.5419   11.3527   28.9477 C   0  0  0  0  0  0  0  0  0  0  0  0
   22.5254   12.2180   29.1368 C   0  0  0  0  0  0  0  0  0  0  0  0
   24.6528    5.8224   31.7464 C   0  0  0  0  0  0  0  0  0  0  0  0
   25.0288    4.6230   31.2685 C   0  0  0  0  0  0  0  0  0  0  0  0
   22.3910    9.4335   30.3501 C   0  0  0  0  0  0  0  0  0  0  0  0
   22.9293    8.1254   30.9386 C   0  0  0  0  0  0  0  0  0  0  0  0
   21.7088   15.9654   28.5812 C   0  0  0  0  0  0  0  0  0  0  0  0
   25.2816    7.1758   31.4375 C   0  0  1  0  0  0  0  0  0  0  0  0
   19.6705   14.9669   30.5609 C   0  0  0  0  0  0  0  0  0  0  0  0
   19.3760   13.2788   28.7486 C   0  0  0  0  0  0  0  0  0  0  0  0
   24.4031    3.2704   31.5700 C   0  0  1  0  0  0  0  0  0  0  0  0
   25.9451    9.5091   29.0075 C   0  0  0  0  0  0  0  0  0  0  0  0
   25.1678   10.2558   31.2965 C   0  0  0  0  0  0  0  0  0  0  0  0
   20.7678   16.9132   29.3505 C   0  0  2  0  0  0  0  0  0  0  0  0
   20.3574   16.3320   30.7024 C   0  0  0  0  0  0  0  0  0  0  0  0
   25.4370    2.3429   32.2728 C   0  0  0  0  0  0  0  0  0  0  0  0
   24.8542   11.7250   28.2774 C   0  0  0  0  0  0  0  0  0  0  0  0
   19.6017   17.2059   28.5754 O   0  0  0  0  0  0  0  0  0  0  0  0
   25.6811   10.5032   27.8642 C   0  0  0  0  0  0  0  0  0  0  0  0
   26.7395    7.0559   30.9776 C   0  0  0  0  0  0  0  0  0  0  0  0
   23.0528    3.3427   32.2969 C   0  0  0  0  0  0  0  0  0  0  0  0
   24.9602    0.8875   32.3257 C   0  0  0  0  0  0  0  0  0  0  0  0
   25.8232    2.8082   33.6815 C   0  0  0  0  0  0  0  0  0  0  0  0
   23.3224    9.3202   28.4556 H   0  0  0  0  0  0  0  0  0  0  0  0
   24.3404    7.3725   29.5084 H   0  0  0  0  0  0  0  0  0  0  0  0
   23.4750   14.0168   28.4138 H   0  0  0  0  0  0  0  0  0  0  0  0
   21.6164   11.8579   29.6122 H   0  0  0  0  0  0  0  0  0  0  0  0
   23.8157    5.8726   32.4405 H   0  0  0  0  0  0  0  0  0  0  0  0
   25.8637    4.5722   30.5710 H   0  0  0  0  0  0  0  0  0  0  0  0
   22.2196   10.1567   31.1558 H   0  0  0  0  0  0  0  0  0  0  0  0
   21.4332    9.2773   29.8420 H   0  0  0  0  0  0  0  0  0  0  0  0
   22.3170    7.2754   30.6167 H   0  0  0  0  0  0  0  0  0  0  0  0
   22.8760    8.1722   32.0325 H   0  0  0  0  0  0  0  0  0  0  0  0
   22.7412   16.2361   28.8394 H   0  0  0  0  0  0  0  0  0  0  0  0
   21.5874   16.1164   27.5014 H   0  0  0  0  0  0  0  0  0  0  0  0
   25.3014    7.7151   32.3942 H   0  0  0  0  0  0  0  0  0  0  0  0
   19.8198   14.3955   31.4853 H   0  0  0  0  0  0  0  0  0  0  0  0
   18.5891   15.1303   30.4626 H   0  0  0  0  0  0  0  0  0  0  0  0
   18.3686   13.0703   29.0956 H   0  0  0  0  0  0  0  0  0  0  0  0
   19.7155   12.7379   27.8695 H   0  0  0  0  0  0  0  0  0  0  0  0
   24.1907    2.8280   30.5858 H   0  0  0  0  0  0  0  0  0  0  0  0
   26.8810    9.7950   29.5033 H   0  0  0  0  0  0  0  0  0  0  0  0
   26.1362    8.5296   28.5534 H   0  0  0  0  0  0  0  0  0  0  0  0
   25.3337   11.3094   31.0535 H   0  0  0  0  0  0  0  0  0  0  0  0
   24.3921   10.2202   32.0674 H   0  0  0  0  0  0  0  0  0  0  0  0
   26.0929    9.8943   31.7565 H   0  0  0  0  0  0  0  0  0  0  0  0
   21.2748   17.8721   29.5046 H   0  0  0  0  0  0  0  0  0  0  0  0
   19.6756   17.0166   31.2208 H   0  0  0  0  0  0  0  0  0  0  0  0
   21.2481   16.2254   31.3346 H   0  0  0  0  0  0  0  0  0  0  0  0
   26.3548    2.3497   31.6676 H   0  0  0  0  0  0  0  0  0  0  0  0
   24.6640   12.3210   27.3770 H   0  0  0  0  0  0  0  0  0  0  0  0
   25.4482   12.3413   28.9627 H   0  0  0  0  0  0  0  0  0  0  0  0
   19.2350   16.3607   28.2600 H   0  0  0  0  0  0  0  0  0  0  0  0
   25.1565    9.9782   27.0546 H   0  0  0  0  0  0  0  0  0  0  0  0
   26.6379   10.8299   27.4394 H   0  0  0  0  0  0  0  0  0  0  0  0
   27.2419    8.0262   30.9885 H   0  0  0  0  0  0  0  0  0  0  0  0
   27.3120    6.4046   31.6483 H   0  0  0  0  0  0  0  0  0  0  0  0
   26.8134    6.6486   29.9638 H   0  0  0  0  0  0  0  0  0  0  0  0
   22.5901    2.3538   32.3723 H   0  0  0  0  0  0  0  0  0  0  0  0
   23.1479    3.7474   33.3093 H   0  0  0  0  0  0  0  0  0  0  0  0
   22.3493    3.9780   31.7463 H   0  0  0  0  0  0  0  0  0  0  0  0
   25.7645    0.2341   32.6814 H   0  0  0  0  0  0  0  0  0  0  0  0
   24.1104    0.7603   33.0038 H   0  0  0  0  0  0  0  0  0  0  0  0
   24.6637    0.5368   31.3319 H   0  0  0  0  0  0  0  0  0  0  0  0
   24.9723    2.7705   34.3690 H   0  0  0  0  0  0  0  0  0  0  0  0
   26.2137    3.8302   33.6746 H   0  0  0  0  0  0  0  0  0  0  0  0
   26.6073    2.1634   34.0942 H   0  0  0  0  0  0  0  0  0  0  0  0
  2  1  1  0
  3  5  2  0
  4  1  1  0
  5  8  1  0
  6  3  1  0
  7  2  1  0
  8  7  2  0
  9 14  1  0
 10  9  2  0
  2 11  1  0
  4 12  1  0
 13  3  1  0
 14  4  1  0
 15  6  1  0
 16  6  2  0
 17 10  1  0
 18  1  1  0
  1 19  1  6
 20 13  1  0
 21 20  1  0
 22 17  1  0
 23  7  1  0
 20 24  1  0
 25 18  1  0
 14 26  1  0
 17 27  1  0
 28 22  1  0
 29 22  1  0
 23 25  1  0
 12 11  1  0
 15 21  1  0
  2 30  1  1
  4 31  1  1
  5 32  1  0
  8 33  1  0
  9 34  1  0
 10 35  1  0
 11 36  1  0
 11 37  1  0
 12 38  1  0
 12 39  1  0
 13 40  1  0
 13 41  1  0
 14 42  1  6
 15 43  1  0
 15 44  1  0
 16 45  1  0
 16 46  1  0
 17 47  1  1
 18 48  1  0
 18 49  1  0
 19 50  1  0
 19 51  1  0
 19 52  1  0
 20 53  1  6
 21 54  1  0
 21 55  1  0
 22 56  1  0
 23 57  1  0
 23 58  1  0
 24 59  1  0
 25 60  1  0
 25 61  1  0
 26 62  1  0
 26 63  1  0
 26 64  1  0
 27 65  1  0
 27 66  1  0
 27 67  1  0
 28 68  1  0
 28 69  1  0
 28 70  1  0
 29 71  1  0
 29 72  1  0
 29 73  1  0
M  END
> <Uni-Dock RESULT> 
ENERGY=   -3.712  LOWER_BOUND=    3.871  UPPER_BOUND=   10.748
INTER + INTRA:          -3.712
INTER:                  -3.712
INTRA:                   0.000
UNBOUND:                 0.000

$$$$

     RDKit          3D

 73 75  0  0  1  0  0  0  0  0999 V2000
   30.2809    9.0832   29.4916 C   0  0  1  0  0  0  0  0  0  0  0  0
   29.7810    7.7483   28.8710 C   0  0  2  0  0  0  0  0  0  0  0  0
   29.0280    3.2282   30.9227 C   0  0  0  0  0  0  0  0  0  0  0  0
   30.9206    9.7470   28.2309 C   0  0  2  0  0  0  0  0  0  0  0  0
   28.8619    4.5672   30.9106 C   0  0  0  0  0  0  0  0  0  0  0  0
   29.7585    2.4563   29.9246 C   0  0  0  0  0  0  0  0  0  0  0  0
   29.1576    6.8282   29.9026 C   0  0  0  0  0  0  0  0  0  0  0  0
   29.3932    5.5011   29.9358 C   0  0  0  0  0  0  0  0  0  0  0  0
   32.4398   11.3982   27.0753 C   0  0  0  0  0  0  0  0  0  0  0  0
   32.0686   12.4516   26.3265 C   0  0  0  0  0  0  0  0  0  0  0  0
   30.9659    7.2724   28.0299 C   0  0  0  0  0  0  0  0  0  0  0  0
   31.6260    8.5582   27.5217 C   0  0  0  0  0  0  0  0  0  0  0  0
   28.4911    2.4051   32.0850 C   0  0  0  0  0  0  0  0  0  0  0  0
   31.8593   10.9719   28.4183 C   0  0  1  0  0  0  0  0  0  0  0  0
   30.8867    1.5971   30.4482 C   0  0  0  0  0  0  0  0  0  0  0  0
   29.3821    2.4180   28.6362 C   0  0  0  0  0  0  0  0  0  0  0  0
   32.6413   12.8795   24.9844 C   0  0  1  0  0  0  0  0  0  0  0  0
   29.0701    9.8514   30.0779 C   0  0  0  0  0  0  0  0  0  0  0  0
   31.3368    8.8586   30.6046 C   0  0  0  0  0  0  0  0  0  0  0  0
   29.2712    1.1017   32.3462 C   0  0  2  0  0  0  0  0  0  0  0  0
   30.7358    1.2232   31.9290 C   0  0  0  0  0  0  0  0  0  0  0  0
   33.2835   14.2929   25.0984 C   0  0  0  0  0  0  0  0  0  0  0  0
   28.2418    7.5480   30.8789 C   0  0  0  0  0  0  0  0  0  0  0  0
   28.6626    0.0030   31.6617 O   0  0  0  0  0  0  0  0  0  0  0  0
   27.8641    8.9583   30.4143 C   0  0  0  0  0  0  0  0  0  0  0  0
   31.1902   12.1322   29.1648 C   0  0  0  0  0  0  0  0  0  0  0  0
   33.5605   11.8412   24.3257 C   0  0  0  0  0  0  0  0  0  0  0  0
   33.6025   14.8913   23.7242 C   0  0  0  0  0  0  0  0  0  0  0  0
   34.5385   14.3293   25.9781 C   0  0  0  0  0  0  0  0  0  0  0  0
   28.9774    7.9797   28.1525 H   0  0  0  0  0  0  0  0  0  0  0  0
   30.0981   10.0637   27.5700 H   0  0  0  0  0  0  0  0  0  0  0  0
   28.2976    5.0091   31.7297 H   0  0  0  0  0  0  0  0  0  0  0  0
   30.0518    5.0701   29.1859 H   0  0  0  0  0  0  0  0  0  0  0  0
   33.2471   10.7598   26.7206 H   0  0  0  0  0  0  0  0  0  0  0  0
   31.2584   13.0886   26.6786 H   0  0  0  0  0  0  0  0  0  0  0  0
   31.6871    6.6976   28.6224 H   0  0  0  0  0  0  0  0  0  0  0  0
   30.6437    6.6350   27.1993 H   0  0  0  0  0  0  0  0  0  0  0  0
   31.5209    8.6434   26.4342 H   0  0  0  0  0  0  0  0  0  0  0  0
   32.6986    8.5270   27.7461 H   0  0  0  0  0  0  0  0  0  0  0  0
   28.5418    3.0144   32.9971 H   0  0  0  0  0  0  0  0  0  0  0  0
   27.4345    2.1752   31.8991 H   0  0  0  0  0  0  0  0  0  0  0  0
   32.7214   10.6674   29.0269 H   0  0  0  0  0  0  0  0  0  0  0  0
   31.8417    2.1183   30.3079 H   0  0  0  0  0  0  0  0  0  0  0  0
   30.9434    0.6715   29.8600 H   0  0  0  0  0  0  0  0  0  0  0  0
   29.9111    1.8087   27.9100 H   0  0  0  0  0  0  0  0  0  0  0  0
   28.5382    2.9970   28.2713 H   0  0  0  0  0  0  0  0  0  0  0  0
   31.7707   12.9743   24.3193 H   0  0  0  0  0  0  0  0  0  0  0  0
   29.3669   10.3867   30.9882 H   0  0  0  0  0  0  0  0  0  0  0  0
   28.7232   10.6221   29.3794 H   0  0  0  0  0  0  0  0  0  0  0  0
   30.9346    8.2828   31.4432 H   0  0  0  0  0  0  0  0  0  0  0  0
   32.2205    8.3255   30.2411 H   0  0  0  0  0  0  0  0  0  0  0  0
   31.6850    9.8095   31.0199 H   0  0  0  0  0  0  0  0  0  0  0  0
   29.2148    0.8595   33.4132 H   0  0  0  0  0  0  0  0  0  0  0  0
   31.2632    0.2789   32.1087 H   0  0  0  0  0  0  0  0  0  0  0  0
   31.2247    1.9871   32.5470 H   0  0  0  0  0  0  0  0  0  0  0  0
   32.5427   14.9579   25.5650 H   0  0  0  0  0  0  0  0  0  0  0  0
   27.3136    6.9808   31.0164 H   0  0  0  0  0  0  0  0  0  0  0  0
   28.7358    7.6157   31.8555 H   0  0  0  0  0  0  0  0  0  0  0  0
   28.5237    0.2703   30.7356 H   0  0  0  0  0  0  0  0  0  0  0  0
   27.2253    8.8785   29.5244 H   0  0  0  0  0  0  0  0  0  0  0  0
   27.2517    9.4491   31.1801 H   0  0  0  0  0  0  0  0  0  0  0  0
   30.9930   11.8739   30.2081 H   0  0  0  0  0  0  0  0  0  0  0  0
   31.8392   13.0155   29.1832 H   0  0  0  0  0  0  0  0  0  0  0  0
   30.2398   12.4186   28.7023 H   0  0  0  0  0  0  0  0  0  0  0  0
   33.8381   12.1447   23.3116 H   0  0  0  0  0  0  0  0  0  0  0  0
   34.4826   11.6837   24.8938 H   0  0  0  0  0  0  0  0  0  0  0  0
   33.0521   10.8741   24.2365 H   0  0  0  0  0  0  0  0  0  0  0  0
   33.9063   15.9391   23.8244 H   0  0  0  0  0  0  0  0  0  0  0  0
   34.4194   14.3593   23.2264 H   0  0  0  0  0  0  0  0  0  0  0  0
   32.7239   14.8622   23.0715 H   0  0  0  0  0  0  0  0  0  0  0  0
   35.3531   13.7380   25.5481 H   0  0  0  0  0  0  0  0  0  0  0  0
   34.3352   13.9522   26.9848 H   0  0  0  0  0  0  0  0  0  0  0  0
   34.9002   15.3583   26.0835 H   0  0  0  0  0  0  0  0  0  0  0  0
  2  1  1  0
  3  5  2  0
  4  1  1  0
  5  8  1  0
  6  3  1  0
  7  2  1  0
  8  7  2  0
  9 14  1  0
 10  9  2  0
  2 11  1  0
  4 12  1  0
 13  3  1  0
 14  4  1  0
 15  6  1  0
 16  6  2  0
 17 10  1  0
 18  1  1  0
  1 19  1  6
 20 13  1  0
 21 20  1  0
 22 17  1  0
 23  7  1  0
 20 24  1  0
 25 18  1  0
 14 26  1  0
 17 27  1  0
 28 22  1  0
 29 22  1  0
 23 25  1  0
 12 11  1  0
 15 21  1  0
  2 30  1  1
  4 31  1  1
  5 32  1  0
  8 33  1  0
  9 34  1  0
 10 35  1  0
 11 36  1  0
 11 37  1  0
 12 38  1  0
 12 39  1  0
 13 40  1  0
 13 41  1  0
 14 42  1  6
 15 43  1  0
 15 44  1  0
 16 45  1  0
 16 46  1  0
 17 47  1  1
 18 48  1  0
 18 49  1  0
 19 50  1  0
 19 51  1  0
 19 52  1  0
 20 53  1  6
 21 54  1  0
 21 55  1  0
 22 56  1  0
 23 57  1  0
 23 58  1  0
 24 59  1  0
 25 60  1  0
 25 61  1  0
 26 62  1  0
 26 63  1  0
 26 64  1  0
 27 65  1  0
 27 66  1  0
 27 67  1  0
 28 68  1  0
 28 69  1  0
 28 70  1  0
 29 71  1  0
 29 72  1  0
 29 73  1  0
M  END
> <Uni-Dock RESULT> 
ENERGY=   -3.701  LOWER_BOUND=    6.592  UPPER_BOUND=    8.348
INTER + INTRA:          -3.701
INTER:                  -3.701
INTRA:                   0.000
UNBOUND:                 0.000

$$$$

     RDKit          3D

 73 75  0  0  1  0  0  0  0  0999 V2000
   29.4798    1.5485   32.0717 C   0  0  1  0  0  0  0  0  0  0  0  0
   30.6351    1.9703   31.1207 C   0  0  2  0  0  0  0  0  0  0  0  0
   35.6050    1.3585   31.4849 C   0  0  0  0  0  0  0  0  0  0  0  0
   28.4192    2.6367   31.7113 C   0  0  2  0  0  0  0  0  0  0  0  0
   34.3453    0.8771   31.5253 C   0  0  0  0  0  0  0  0  0  0  0  0
   35.9755    2.7388   31.1964 C   0  0  0  0  0  0  0  0  0  0  0  0
   31.8737    1.1140   31.2994 C   0  0  0  0  0  0  0  0  0  0  0  0
   33.1201    1.6275   31.3240 C   0  0  0  0  0  0  0  0  0  0  0  0
   26.3455    4.0034   32.1607 C   0  0  0  0  0  0  0  0  0  0  0  0
   25.1744    3.9360   31.5032 C   0  0  0  0  0  0  0  0  0  0  0  0
   30.7150    3.4871   31.2966 C   0  0  0  0  0  0  0  0  0  0  0  0
   29.2708    3.9270   31.5576 C   0  0  0  0  0  0  0  0  0  0  0  0
   36.7780    0.4512   31.8282 C   0  0  0  0  0  0  0  0  0  0  0  0
   27.1962    2.8374   32.6498 C   0  0  1  0  0  0  0  0  0  0  0  0
   36.8106    3.4334   32.2478 C   0  0  0  0  0  0  0  0  0  0  0  0
   35.6935    3.3224   30.0205 C   0  0  0  0  0  0  0  0  0  0  0  0
   24.3234    5.0955   31.0097 C   0  0  1  0  0  0  0  0  0  0  0  0
   29.0528    0.0981   31.7340 C   0  0  0  0  0  0  0  0  0  0  0  0
   29.8844    1.6320   33.5662 C   0  0  0  0  0  0  0  0  0  0  0  0
   38.0028    1.1943   32.3968 C   0  0  2  0  0  0  0  0  0  0  0  0
   37.6003    2.4667   33.1404 C   0  0  0  0  0  0  0  0  0  0  0  0
   22.9346    5.0822   31.7125 C   0  0  0  0  0  0  0  0  0  0  0  0
   31.5682   -0.3685   31.4368 C   0  0  0  0  0  0  0  0  0  0  0  0
   38.9277    1.5154   31.3538 O   0  0  0  0  0  0  0  0  0  0  0  0
   30.1379   -0.7246   31.0191 C   0  0  0  0  0  0  0  0  0  0  0  0
   26.3780    1.5563   32.8516 C   0  0  0  0  0  0  0  0  0  0  0  0
   25.0211    6.4621   31.0593 C   0  0  0  0  0  0  0  0  0  0  0  0
   21.9414    6.0360   31.0400 C   0  0  0  0  0  0  0  0  0  0  0  0
   23.0018    5.3857   33.2137 C   0  0  0  0  0  0  0  0  0  0  0  0
   30.3057    1.8063   30.0814 H   0  0  0  0  0  0  0  0  0  0  0  0
   28.0269    2.3981   30.7100 H   0  0  0  0  0  0  0  0  0  0  0  0
   34.2197   -0.1776   31.7631 H   0  0  0  0  0  0  0  0  0  0  0  0
   33.2438    2.7007   31.2022 H   0  0  0  0  0  0  0  0  0  0  0  0
   26.7606    4.9819   32.3959 H   0  0  0  0  0  0  0  0  0  0  0  0
   24.7603    2.9576   31.2641 H   0  0  0  0  0  0  0  0  0  0  0  0
   31.3456    3.7705   32.1473 H   0  0  0  0  0  0  0  0  0  0  0  0
   31.1261    3.9774   30.4075 H   0  0  0  0  0  0  0  0  0  0  0  0
   28.8962    4.5372   30.7279 H   0  0  0  0  0  0  0  0  0  0  0  0
   29.2395    4.5471   32.4610 H   0  0  0  0  0  0  0  0  0  0  0  0
   36.4479   -0.2761   32.5817 H   0  0  0  0  0  0  0  0  0  0  0  0
   37.0670   -0.1101   30.9310 H   0  0  0  0  0  0  0  0  0  0  0  0
   27.5575    3.1346   33.6435 H   0  0  0  0  0  0  0  0  0  0  0  0
   36.1641    4.0545   32.8799 H   0  0  0  0  0  0  0  0  0  0  0  0
   37.5205    4.1136   31.7587 H   0  0  0  0  0  0  0  0  0  0  0  0
   36.0087    4.3383   29.8028 H   0  0  0  0  0  0  0  0  0  0  0  0
   35.1370    2.8031   29.2451 H   0  0  0  0  0  0  0  0  0  0  0  0
   24.1470    4.8873   29.9443 H   0  0  0  0  0  0  0  0  0  0  0  0
   28.7643   -0.4338   32.6491 H   0  0  0  0  0  0  0  0  0  0  0  0
   28.1625    0.0937   31.0941 H   0  0  0  0  0  0  0  0  0  0  0  0
   30.7151    0.9618   33.8057 H   0  0  0  0  0  0  0  0  0  0  0  0
   30.1878    2.6410   33.8615 H   0  0  0  0  0  0  0  0  0  0  0  0
   29.0548    1.3433   34.2193 H   0  0  0  0  0  0  0  0  0  0  0  0
   38.5399    0.5270   33.0798 H   0  0  0  0  0  0  0  0  0  0  0  0
   38.4895    2.9845   33.5192 H   0  0  0  0  0  0  0  0  0  0  0  0
   36.9896    2.1973   34.0116 H   0  0  0  0  0  0  0  0  0  0  0  0
   22.5179    4.0704   31.6060 H   0  0  0  0  0  0  0  0  0  0  0  0
   32.2547   -0.9560   30.8157 H   0  0  0  0  0  0  0  0  0  0  0  0
   31.7210   -0.6742   32.4787 H   0  0  0  0  0  0  0  0  0  0  0  0
   38.4289    1.9460   30.6368 H   0  0  0  0  0  0  0  0  0  0  0  0
   30.0377   -0.5742   29.9357 H   0  0  0  0  0  0  0  0  0  0  0  0
   29.9563   -1.7922   31.1918 H   0  0  0  0  0  0  0  0  0  0  0  0
   26.9400    0.8095   33.4177 H   0  0  0  0  0  0  0  0  0  0  0  0
   25.4665    1.7574   33.4266 H   0  0  0  0  0  0  0  0  0  0  0  0
   26.0852    1.1066   31.8971 H   0  0  0  0  0  0  0  0  0  0  0  0
   24.4149    7.2342   30.5755 H   0  0  0  0  0  0  0  0  0  0  0  0
   25.2241    6.7872   32.0845 H   0  0  0  0  0  0  0  0  0  0  0  0
   25.9763    6.4298   30.5224 H   0  0  0  0  0  0  0  0  0  0  0  0
   20.9361    5.8941   31.4519 H   0  0  0  0  0  0  0  0  0  0  0  0
   22.2138    7.0849   31.1941 H   0  0  0  0  0  0  0  0  0  0  0  0
   21.8874    5.8484   29.9627 H   0  0  0  0  0  0  0  0  0  0  0  0
   23.3500    6.4053   33.4066 H   0  0  0  0  0  0  0  0  0  0  0  0
   23.6675    4.6914   33.7350 H   0  0  0  0  0  0  0  0  0  0  0  0
   22.0092    5.2866   33.6672 H   0  0  0  0  0  0  0  0  0  0  0  0
  2  1  1  0
  3  5  2  0
  4  1  1  0
  5  8  1  0
  6  3  1  0
  7  2  1  0
  8  7  2  0
  9 14  1  0
 10  9  2  0
  2 11  1  0
  4 12  1  0
 13  3  1  0
 14  4  1  0
 15  6  1  0
 16  6  2  0
 17 10  1  0
 18  1  1  0
  1 19  1  6
 20 13  1  0
 21 20  1  0
 22 17  1  0
 23  7  1  0
 20 24  1  0
 25 18  1  0
 14 26  1  0
 17 27  1  0
 28 22  1  0
 29 22  1  0
 23 25  1  0
 12 11  1  0
 15 21  1  0
  2 30  1  1
  4 31  1  1
  5 32  1  0
  8 33  1  0
  9 34  1  0
 10 35  1  0
 11 36  1  0
 11 37  1  0
 12 38  1  0
 12 39  1  0
 13 40  1  0
 13 41  1  0
 14 42  1  6
 15 43  1  0
 15 44  1  0
 16 45  1  0
 16 46  1  0
 17 47  1  1
 18 48  1  0
 18 49  1  0
 19 50  1  0
 19 51  1  0
 19 52  1  0
 20 53  1  6
 21 54  1  0
 21 55  1  0
 22 56  1  0
 23 57  1  0
 23 58  1  0
 24 59  1  0
 25 60  1  0
 25 61  1  0
 26 62  1  0
 26 63  1  0
 26 64  1  0
 27 65  1  0
 27 66  1  0
 27 67  1  0
 28 68  1  0
 28 69  1  0
 28 70  1  0
 29 71  1  0
 29 72  1  0
 29 73  1  0
M  END
> <Uni-Dock RESULT> 
ENERGY=   -3.587  LOWER_BOUND=    5.709  UPPER_BOUND=    9.892
INTER + INTRA:          -3.587
INTER:                  -3.587
INTRA:                   0.000
UNBOUND:                 0.000

$$$$
