
     RDKit          3D

 73 75  0  0  1  0  0  0  0  0999 V2000
   29.1854    2.4395   31.3718 C   0  0  1  0  0  0  0  0  0  0  0  0
   30.2302    2.0226   30.2939 C   0  0  2  0  0  0  0  0  0  0  0  0
   35.1831    2.0368   31.1057 C   0  0  0  0  0  0  0  0  0  0  0  0
   28.0542    2.9761   30.4391 C   0  0  2  0  0  0  0  0  0  0  0  0
   33.9743    1.4459   31.2082 C   0  0  0  0  0  0  0  0  0  0  0  0
   35.4503    3.3288   30.4837 C   0  0  0  0  0  0  0  0  0  0  0  0
   31.4895    1.4360   30.9023 C   0  0  0  0  0  0  0  0  0  0  0  0
   32.7167    1.9517   30.6929 C   0  0  0  0  0  0  0  0  0  0  0  0
   26.0192    2.9559   31.9627 C   0  0  0  0  0  0  0  0  0  0  0  0
   24.8515    2.3583   31.6701 C   0  0  0  0  0  0  0  0  0  0  0  0
   30.2731    3.2322   29.3613 C   0  0  0  0  0  0  0  0  0  0  0  0
   28.8180    3.7179   29.3078 C   0  0  0  0  0  0  0  0  0  0  0  0
   36.4302    1.3301   31.6065 C   0  0  0  0  0  0  0  0  0  0  0  0
   26.8255    3.7640   30.9705 C   0  0  1  0  0  0  0  0  0  0  0  0
   36.4750    3.3325   29.3727 C   0  0  0  0  0  0  0  0  0  0  0  0
   34.9013    4.4673   30.9369 C   0  0  0  0  0  0  0  0  0  0  0  0
   23.9734    1.5383   32.6008 C   0  0  1  0  0  0  0  0  0  0  0  0
   28.8214    1.1701   32.1745 C   0  0  0  0  0  0  0  0  0  0  0  0
   29.7294    3.5216   32.3295 C   0  0  0  0  0  0  0  0  0  0  0  0
   37.6914    1.6190   30.7682 C   0  0  2  0  0  0  0  0  0  0  0  0
   37.3500    2.0770   29.3514 C   0  0  0  0  0  0  0  0  0  0  0  0
   23.8080    0.0910   32.0511 C   0  0  0  0  0  0  0  0  0  0  0  0
   31.1661    0.2156   31.7480 C   0  0  0  0  0  0  0  0  0  0  0  0
   38.5161    0.4549   30.7010 O   0  0  0  0  0  0  0  0  0  0  0  0
   30.0604    0.4888   32.7770 C   0  0  0  0  0  0  0  0  0  0  0  0
   27.0793    5.1551   31.5606 C   0  0  0  0  0  0  0  0  0  0  0  0
   24.3989    1.5846   34.0755 C   0  0  0  0  0  0  0  0  0  0  0  0
   25.1092   -0.7191   32.0499 C   0  0  0  0  0  0  0  0  0  0  0  0
   22.7188   -0.6873   32.7969 C   0  0  0  0  0  0  0  0  0  0  0  0
   29.8005    1.2049   29.6903 H   0  0  0  0  0  0  0  0  0  0  0  0
   27.6213    2.0845   29.9542 H   0  0  0  0  0  0  0  0  0  0  0  0
   33.9357    0.4776   31.7000 H   0  0  0  0  0  0  0  0  0  0  0  0
   32.8054    2.8305   30.0587 H   0  0  0  0  0  0  0  0  0  0  0  0
   26.4307    2.8848   32.9661 H   0  0  0  0  0  0  0  0  0  0  0  0
   24.4624    2.4574   30.6563 H   0  0  0  0  0  0  0  0  0  0  0  0
   30.6458    2.9702   28.3657 H   0  0  0  0  0  0  0  0  0  0  0  0
   30.9107    4.0327   29.7527 H   0  0  0  0  0  0  0  0  0  0  0  0
   28.7977    4.8057   29.4067 H   0  0  0  0  0  0  0  0  0  0  0  0
   28.3671    3.4778   28.3378 H   0  0  0  0  0  0  0  0  0  0  0  0
   36.2589    0.2462   31.6482 H   0  0  0  0  0  0  0  0  0  0  0  0
   36.6231    1.6396   32.6425 H   0  0  0  0  0  0  0  0  0  0  0  0
   26.1920    3.9405   30.0881 H   0  0  0  0  0  0  0  0  0  0  0  0
   35.9691    3.4304   28.4046 H   0  0  0  0  0  0  0  0  0  0  0  0
   37.1271    4.2086   29.4849 H   0  0  0  0  0  0  0  0  0  0  0  0
   35.1395    5.4266   30.4888 H   0  0  0  0  0  0  0  0  0  0  0  0
   34.2021    4.4713   31.7684 H   0  0  0  0  0  0  0  0  0  0  0  0
   22.9830    2.0144   32.5565 H   0  0  0  0  0  0  0  0  0  0  0  0
   28.1259    1.4014   32.9870 H   0  0  0  0  0  0  0  0  0  0  0  0
   28.3129    0.4495   31.5216 H   0  0  0  0  0  0  0  0  0  0  0  0
   30.7010    3.2528   32.7555 H   0  0  0  0  0  0  0  0  0  0  0  0
   29.8623    4.4881   31.8341 H   0  0  0  0  0  0  0  0  0  0  0  0
   29.0506    3.6665   33.1759 H   0  0  0  0  0  0  0  0  0  0  0  0
   38.2833    2.3969   31.2659 H   0  0  0  0  0  0  0  0  0  0  0  0
   38.2669    2.2644   28.7790 H   0  0  0  0  0  0  0  0  0  0  0  0
   36.8334    1.2685   28.8160 H   0  0  0  0  0  0  0  0  0  0  0  0
   23.4760    0.1685   31.0061 H   0  0  0  0  0  0  0  0  0  0  0  0
   30.8365   -0.5877   31.0764 H   0  0  0  0  0  0  0  0  0  0  0  0
   32.0362   -0.1715   32.2841 H   0  0  0  0  0  0  0  0  0  0  0  0
   38.0273   -0.2274   30.2090 H   0  0  0  0  0  0  0  0  0  0  0  0
   29.7578   -0.4592   33.2383 H   0  0  0  0  0  0  0  0  0  0  0  0
   30.4634    1.1073   33.5881 H   0  0  0  0  0  0  0  0  0  0  0  0
   27.6829    5.7841   30.9025 H   0  0  0  0  0  0  0  0  0  0  0  0
   26.1256    5.6780   31.7066 H   0  0  0  0  0  0  0  0  0  0  0  0
   27.5627    5.1194   32.5397 H   0  0  0  0  0  0  0  0  0  0  0  0
   24.4606    2.6202   34.4301 H   0  0  0  0  0  0  0  0  0  0  0  0
   23.6699    1.0781   34.7154 H   0  0  0  0  0  0  0  0  0  0  0  0
   25.3746    1.1157   34.2394 H   0  0  0  0  0  0  0  0  0  0  0  0
   25.4921   -0.8772   33.0628 H   0  0  0  0  0  0  0  0  0  0  0  0
   25.8877   -0.2240   31.4616 H   0  0  0  0  0  0  0  0  0  0  0  0
   24.9440   -1.7057   31.6029 H   0  0  0  0  0  0  0  0  0  0  0  0
   21.7836   -0.1186   32.8275 H   0  0  0  0  0  0  0  0  0  0  0  0
   22.5126   -1.6367   32.2906 H   0  0  0  0  0  0  0  0  0  0  0  0
   23.0142   -0.9214   33.8241 H   0  0  0  0  0  0  0  0  0  0  0  0
  2  1  1  0
  3  5  2  0
  4  1  1  0
  5  8  1  0
  6  3  1  0
  7  2  1  0
  8  7  2  0
  9 14  1  0
 10  9  2  0
  2 11  1  0
  4 12  1  0
 13  3  1  0
 14  4  1  0
 15  6  1  0
 16  6  2  0
 17 10  1  0
 18  1  1  0
  1 19  1  6
 20 13  1  0
 21 20  1  0
 22 17  1  0
 23  7  1  0
 20 24  1  0
 25 18  1  0
 14 26  1  0
 17 27  1  0
 28 22  1  0
 29 22  1  0
 23 25  1  0
 12 11  1  0
 15 21  1  0
  2 30  1  1
  4 31  1  1
  5 32  1  0
  8 33  1  0
  9 34  1  0
 10 35  1  0
 11 36  1  0
 11 37  1  0
 12 38  1  0
 12 39  1  0
 13 40  1  0
 13 41  1  0
 14 42  1  6
 15 43  1  0
 15 44  1  0
 16 45  1  0
 16 46  1  0
 17 47  1  6
 18 48  1  0
 18 49  1  0
 19 50  1  0
 19 51  1  0
 19 52  1  0
 20 53  1  6
 21 54  1  0
 21 55  1  0
 22 56  1  0
 23 57  1  0
 23 58  1  0
 24 59  1  0
 25 60  1  0
 25 61  1  0
 26 62  1  0
 26 63  1  0
 26 64  1  0
 27 65  1  0
 27 66  1  0
 27 67  1  0
 28 68  1  0
 28 69  1  0
 28 70  1  0
 29 71  1  0
 29 72  1  0
 29 73  1  0
M  END
> <Uni-Dock RESULT> 
ENERGY=   -5.570  LOWER_BOUND=    0.000  UPPER_BOUND=    0.000
INTER + INTRA:          -5.570
INTER:                  -5.570
INTRA:                   0.000
UNBOUND:                 0.000

$$$$

     RDKit          3D

 73 75  0  0  1  0  0  0  0  0999 V2000
   31.8499    1.7210   31.6708 C   0  0  1  0  0  0  0  0  0  0  0  0
   30.5955    1.3270   30.8349 C   0  0  2  0  0  0  0  0  0  0  0  0
   25.9834    3.0519   31.8063 C   0  0  0  0  0  0  0  0  0  0  0  0
   32.7031    0.4277   31.4788 C   0  0  2  0  0  0  0  0  0  0  0  0
   27.2045    3.2016   31.2517 C   0  0  0  0  0  0  0  0  0  0  0  0
   25.5237    1.8868   32.5537 C   0  0  0  0  0  0  0  0  0  0  0  0
   29.5426    2.4185   30.8185 C   0  0  0  0  0  0  0  0  0  0  0  0
   28.2812    2.2302   31.2535 C   0  0  0  0  0  0  0  0  0  0  0  0
   35.0422    1.2058   32.1002 C   0  0  0  0  0  0  0  0  0  0  0  0
   36.1293    1.0536   31.3248 C   0  0  0  0  0  0  0  0  0  0  0  0
   30.2826   -0.0881   31.3188 C   0  0  0  0  0  0  0  0  0  0  0  0
   31.6620   -0.7238   31.5403 C   0  0  0  0  0  0  0  0  0  0  0  0
   24.9215    4.1227   31.6296 C   0  0  0  0  0  0  0  0  0  0  0  0
   33.9904    0.1370   32.2980 C   0  0  1  0  0  0  0  0  0  0  0  0
   24.2639    1.2249   32.0443 C   0  0  0  0  0  0  0  0  0  0  0  0
   26.1187    1.4853   33.6884 C   0  0  0  0  0  0  0  0  0  0  0  0
   37.2365    2.0644   31.0755 C   0  0  1  0  0  0  0  0  0  0  0  0
   32.4459    2.9960   31.0325 C   0  0  0  0  0  0  0  0  0  0  0  0
   31.5073    1.9928   33.1516 C   0  0  0  0  0  0  0  0  0  0  0  0
   23.4859    3.5691   31.5314 C   0  0  2  0  0  0  0  0  0  0  0  0
   23.4604    2.1078   31.0867 C   0  0  0  0  0  0  0  0  0  0  0  0
   37.3239    2.4064   29.5591 C   0  0  0  0  0  0  0  0  0  0  0  0
   30.1075    3.7090   30.2486 C   0  0  0  0  0  0  0  0  0  0  0  0
   22.7166    4.3528   30.6185 O   0  0  0  0  0  0  0  0  0  0  0  0
   31.4150    4.1317   30.9325 C   0  0  0  0  0  0  0  0  0  0  0  0
   33.8292   -0.1218   33.7996 C   0  0  0  0  0  0  0  0  0  0  0  0
   37.1740    3.3058   31.9771 C   0  0  0  0  0  0  0  0  0  0  0  0
   36.0937    3.1476   29.0237 C   0  0  0  0  0  0  0  0  0  0  0  0
   38.5901    3.2001   29.2198 C   0  0  0  0  0  0  0  0  0  0  0  0
   30.9012    1.2132   29.7808 H   0  0  0  0  0  0  0  0  0  0  0  0
   33.0431    0.4493   30.4293 H   0  0  0  0  0  0  0  0  0  0  0  0
   27.3983    4.1306   30.7223 H   0  0  0  0  0  0  0  0  0  0  0  0
   28.0083    1.2491   31.6349 H   0  0  0  0  0  0  0  0  0  0  0  0
   34.8855    2.1351   32.6415 H   0  0  0  0  0  0  0  0  0  0  0  0
   36.2607    0.1052   30.8030 H   0  0  0  0  0  0  0  0  0  0  0  0
   29.6937   -0.6514   30.5875 H   0  0  0  0  0  0  0  0  0  0  0  0
   29.7252   -0.0879   32.2621 H   0  0  0  0  0  0  0  0  0  0  0  0
   31.6615   -1.2628   32.4905 H   0  0  0  0  0  0  0  0  0  0  0  0
   31.8775   -1.4596   30.7568 H   0  0  0  0  0  0  0  0  0  0  0  0
   25.1412    4.7295   30.7411 H   0  0  0  0  0  0  0  0  0  0  0  0
   24.9692    4.8154   32.4806 H   0  0  0  0  0  0  0  0  0  0  0  0
   34.3872   -0.8041   31.8881 H   0  0  0  0  0  0  0  0  0  0  0  0
   24.5197    0.2879   31.5351 H   0  0  0  0  0  0  0  0  0  0  0  0
   23.6229    0.9633   32.8964 H   0  0  0  0  0  0  0  0  0  0  0  0
   25.7420    0.6399   34.2551 H   0  0  0  0  0  0  0  0  0  0  0  0
   26.9956    1.9917   34.0821 H   0  0  0  0  0  0  0  0  0  0  0  0
   38.1677    1.5433   31.3420 H   0  0  0  0  0  0  0  0  0  0  0  0
   33.3054    3.3600   31.6035 H   0  0  0  0  0  0  0  0  0  0  0  0
   32.8123    2.7709   30.0229 H   0  0  0  0  0  0  0  0  0  0  0  0
   30.6772    2.6967   33.2664 H   0  0  0  0  0  0  0  0  0  0  0  0
   31.2212    1.0825   33.6871 H   0  0  0  0  0  0  0  0  0  0  0  0
   32.3622    2.4361   33.6719 H   0  0  0  0  0  0  0  0  0  0  0  0
   22.9993    3.6565   32.5105 H   0  0  0  0  0  0  0  0  0  0  0  0
   22.4266    1.7475   31.0171 H   0  0  0  0  0  0  0  0  0  0  0  0
   23.8663    2.0240   30.0691 H   0  0  0  0  0  0  0  0  0  0  0  0
   37.3933    1.4578   29.0081 H   0  0  0  0  0  0  0  0  0  0  0  0
   30.2991    3.5548   29.1788 H   0  0  0  0  0  0  0  0  0  0  0  0
   29.4068    4.5450   30.3166 H   0  0  0  0  0  0  0  0  0  0  0  0
   23.1008    4.2385   29.7319 H   0  0  0  0  0  0  0  0  0  0  0  0
   31.8569    4.9671   30.3758 H   0  0  0  0  0  0  0  0  0  0  0  0
   31.1928    4.5171   31.9349 H   0  0  0  0  0  0  0  0  0  0  0  0
   33.0611   -0.8680   34.0147 H   0  0  0  0  0  0  0  0  0  0  0  0
   34.7683   -0.5096   34.2143 H   0  0  0  0  0  0  0  0  0  0  0  0
   33.5954    0.7839   34.3641 H   0  0  0  0  0  0  0  0  0  0  0  0
   37.1572    3.0177   33.0349 H   0  0  0  0  0  0  0  0  0  0  0  0
   38.0545    3.9409   31.8402 H   0  0  0  0  0  0  0  0  0  0  0  0
   36.2854    3.9147   31.7815 H   0  0  0  0  0  0  0  0  0  0  0  0
   35.9706    4.1273   29.4956 H   0  0  0  0  0  0  0  0  0  0  0  0
   35.1780    2.5709   29.1851 H   0  0  0  0  0  0  0  0  0  0  0  0
   36.1870    3.3117   27.9444 H   0  0  0  0  0  0  0  0  0  0  0  0
   39.4819    2.6987   29.6100 H   0  0  0  0  0  0  0  0  0  0  0  0
   38.7074    3.2870   28.1341 H   0  0  0  0  0  0  0  0  0  0  0  0
   38.5583    4.2148   29.6280 H   0  0  0  0  0  0  0  0  0  0  0  0
  2  1  1  0
  3  5  2  0
  4  1  1  0
  5  8  1  0
  6  3  1  0
  7  2  1  0
  8  7  2  0
  9 14  1  0
 10  9  2  0
  2 11  1  0
  4 12  1  0
 13  3  1  0
 14  4  1  0
 15  6  1  0
 16  6  2  0
 17 10  1  0
 18  1  1  0
  1 19  1  6
 20 13  1  0
 21 20  1  0
 22 17  1  0
 23  7  1  0
 20 24  1  0
 25 18  1  0
 14 26  1  0
 17 27  1  0
 28 22  1  0
 29 22  1  0
 23 25  1  0
 12 11  1  0
 15 21  1  0
  2 30  1  1
  4 31  1  1
  5 32  1  0
  8 33  1  0
  9 34  1  0
 10 35  1  0
 11 36  1  0
 11 37  1  0
 12 38  1  0
 12 39  1  0
 13 40  1  0
 13 41  1  0
 14 42  1  6
 15 43  1  0
 15 44  1  0
 16 45  1  0
 16 46  1  0
 17 47  1  6
 18 48  1  0
 18 49  1  0
 19 50  1  0
 19 51  1  0
 19 52  1  0
 20 53  1  6
 21 54  1  0
 21 55  1  0
 22 56  1  0
 23 57  1  0
 23 58  1  0
 24 59  1  0
 25 60  1  0
 25 61  1  0
 26 62  1  0
 26 63  1  0
 26 64  1  0
 27 65  1  0
 27 66  1  0
 27 67  1  0
 28 68  1  0
 28 69  1  0
 28 70  1  0
 29 71  1  0
 29 72  1  0
 29 73  1  0
M  END
> <Uni-Dock RESULT> 
ENERGY=   -4.562  LOWER_BOUND=    3.323  UPPER_BOUND=    9.819
INTER + INTRA:          -4.562
INTER:                  -4.562
INTRA:                   0.000
UNBOUND:                 0.000

$$$$

     RDKit          3D

 73 75  0  0  1  0  0  0  0  0999 V2000
   31.4235    2.3977   31.5421 C   0  0  1  0  0  0  0  0  0  0  0  0
   30.1929    2.4279   30.5870 C   0  0  2  0  0  0  0  0  0  0  0  0
   26.0355    5.0765   31.5312 C   0  0  0  0  0  0  0  0  0  0  0  0
   31.9686    0.9721   31.2138 C   0  0  2  0  0  0  0  0  0  0  0  0
   27.3032    4.9965   31.0756 C   0  0  0  0  0  0  0  0  0  0  0  0
   25.2534    3.9713   32.0737 C   0  0  0  0  0  0  0  0  0  0  0  0
   29.4266    3.7341   30.6687 C   0  0  0  0  0  0  0  0  0  0  0  0
   28.1218    3.8019   30.9983 C   0  0  0  0  0  0  0  0  0  0  0  0
   34.3580    1.0770   32.0754 C   0  0  0  0  0  0  0  0  0  0  0  0
   35.4463    0.7671   31.3501 C   0  0  0  0  0  0  0  0  0  0  0  0
   29.5191    1.0803   30.8412 C   0  0  0  0  0  0  0  0  0  0  0  0
   30.6885    0.1077   31.0472 C   0  0  0  0  0  0  0  0  0  0  0  0
   25.2702    6.3854   31.4512 C   0  0  0  0  0  0  0  0  0  0  0  0
   33.0744    0.2774   32.0549 C   0  0  1  0  0  0  0  0  0  0  0  0
   23.9263    3.7034   31.4018 C   0  0  0  0  0  0  0  0  0  0  0  0
   25.6344    3.2968   33.1703 C   0  0  0  0  0  0  0  0  0  0  0  0
   36.7748    1.5041   31.3146 C   0  0  1  0  0  0  0  0  0  0  0  0
   32.3531    3.5619   31.1313 C   0  0  0  0  0  0  0  0  0  0  0  0
   31.0204    2.5532   33.0245 C   0  0  0  0  0  0  0  0  0  0  0  0
   23.7605    6.2117   31.1909 C   0  0  2  0  0  0  0  0  0  0  0  0
   23.4385    4.8688   30.5379 C   0  0  0  0  0  0  0  0  0  0  0  0
   37.0758    2.0053   29.8716 C   0  0  0  0  0  0  0  0  0  0  0  0
   30.3235    4.9120   30.3259 C   0  0  0  0  0  0  0  0  0  0  0  0
   23.2789    7.2677   30.3588 O   0  0  0  0  0  0  0  0  0  0  0  0
   31.6259    4.9159   31.1382 C   0  0  0  0  0  0  0  0  0  0  0  0
   32.7225   -0.1241   33.4911 C   0  0  0  0  0  0  0  0  0  0  0  0
   36.9195    2.5985   32.3819 C   0  0  0  0  0  0  0  0  0  0  0  0
   36.1037    3.0835   29.3796 C   0  0  0  0  0  0  0  0  0  0  0  0
   38.5165    2.5066   29.7248 C   0  0  0  0  0  0  0  0  0  0  0  0
   30.5582    2.3791   29.5469 H   0  0  0  0  0  0  0  0  0  0  0  0
   32.3980    1.0446   30.1999 H   0  0  0  0  0  0  0  0  0  0  0  0
   27.7535    5.9110   30.6989 H   0  0  0  0  0  0  0  0  0  0  0  0
   27.5963    2.8753   31.2167 H   0  0  0  0  0  0  0  0  0  0  0  0
   34.3719    1.9398   32.7361 H   0  0  0  0  0  0  0  0  0  0  0  0
   35.4017   -0.1106   30.7045 H   0  0  0  0  0  0  0  0  0  0  0  0
   28.8847    0.7738   30.0031 H   0  0  0  0  0  0  0  0  0  0  0  0
   28.8938    1.0948   31.7408 H   0  0  0  0  0  0  0  0  0  0  0  0
   30.4775   -0.5319   31.9073 H   0  0  0  0  0  0  0  0  0  0  0  0
   30.7982   -0.5523   30.1787 H   0  0  0  0  0  0  0  0  0  0  0  0
   25.7037    7.0294   30.6744 H   0  0  0  0  0  0  0  0  0  0  0  0
   25.3995    6.9318   32.3951 H   0  0  0  0  0  0  0  0  0  0  0  0
   33.2785   -0.6715   31.5361 H   0  0  0  0  0  0  0  0  0  0  0  0
   24.0037    2.8052   30.7773 H   0  0  0  0  0  0  0  0  0  0  0  0
   23.1677    3.4979   32.1684 H   0  0  0  0  0  0  0  0  0  0  0  0
   25.0229    2.5021   33.5855 H   0  0  0  0  0  0  0  0  0  0  0  0
   26.5652    3.5222   33.6834 H   0  0  0  0  0  0  0  0  0  0  0  0
   37.5324    0.7442   31.5558 H   0  0  0  0  0  0  0  0  0  0  0  0
   33.2181    3.6318   31.7978 H   0  0  0  0  0  0  0  0  0  0  0  0
   32.7474    3.3855   30.1225 H   0  0  0  0  0  0  0  0  0  0  0  0
   30.3684    3.4160   33.1923 H   0  0  0  0  0  0  0  0  0  0  0  0
   30.4844    1.6782   33.4047 H   0  0  0  0  0  0  0  0  0  0  0  0
   31.9038    2.7070   33.6521 H   0  0  0  0  0  0  0  0  0  0  0  0
   23.2207    6.2884   32.1427 H   0  0  0  0  0  0  0  0  0  0  0  0
   22.3601    4.7805   30.3572 H   0  0  0  0  0  0  0  0  0  0  0  0
   23.9045    4.8199   29.5440 H   0  0  0  0  0  0  0  0  0  0  0  0
   36.9738    1.1463   29.1934 H   0  0  0  0  0  0  0  0  0  0  0  0
   30.5704    4.8538   29.2579 H   0  0  0  0  0  0  0  0  0  0  0  0
   29.8317    5.8767   30.4741 H   0  0  0  0  0  0  0  0  0  0  0  0
   23.7050    7.1781   29.4887 H   0  0  0  0  0  0  0  0  0  0  0  0
   32.2973    5.6839   30.7352 H   0  0  0  0  0  0  0  0  0  0  0  0
   31.4089    5.2126   32.1715 H   0  0  0  0  0  0  0  0  0  0  0  0
   31.7866   -0.6841   33.5508 H   0  0  0  0  0  0  0  0  0  0  0  0
   33.5051   -0.7766   33.8984 H   0  0  0  0  0  0  0  0  0  0  0  0
   32.6542    0.7317   34.1668 H   0  0  0  0  0  0  0  0  0  0  0  0
   36.7409    2.1906   33.3838 H   0  0  0  0  0  0  0  0  0  0  0  0
   37.9316    3.0145   32.3897 H   0  0  0  0  0  0  0  0  0  0  0  0
   36.2170    3.4237   32.2260 H   0  0  0  0  0  0  0  0  0  0  0  0
   36.1680    3.9956   29.9809 H   0  0  0  0  0  0  0  0  0  0  0  0
   35.0689    2.7291   29.4023 H   0  0  0  0  0  0  0  0  0  0  0  0
   36.3297    3.3565   28.3428 H   0  0  0  0  0  0  0  0  0  0  0  0
   39.2292    1.7592   30.0887 H   0  0  0  0  0  0  0  0  0  0  0  0
   38.7484    2.7003   28.6717 H   0  0  0  0  0  0  0  0  0  0  0  0
   38.6831    3.4385   30.2736 H   0  0  0  0  0  0  0  0  0  0  0  0
  2  1  1  0
  3  5  2  0
  4  1  1  0
  5  8  1  0
  6  3  1  0
  7  2  1  0
  8  7  2  0
  9 14  1  0
 10  9  2  0
  2 11  1  0
  4 12  1  0
 13  3  1  0
 14  4  1  0
 15  6  1  0
 16  6  2  0
 17 10  1  0
 18  1  1  0
  1 19  1  6
 20 13  1  0
 21 20  1  0
 22 17  1  0
 23  7  1  0
 20 24  1  0
 25 18  1  0
 14 26  1  0
 17 27  1  0
 28 22  1  0
 29 22  1  0
 23 25  1  0
 12 11  1  0
 15 21  1  0
  2 30  1  1
  4 31  1  1
  5 32  1  0
  8 33  1  0
  9 34  1  0
 10 35  1  0
 11 36  1  0
 11 37  1  0
 12 38  1  0
 12 39  1  0
 13 40  1  0
 13 41  1  0
 14 42  1  6
 15 43  1  0
 15 44  1  0
 16 45  1  0
 16 46  1  0
 17 47  1  6
 18 48  1  0
 18 49  1  0
 19 50  1  0
 19 51  1  0
 19 52  1  0
 20 53  1  6
 21 54  1  0
 21 55  1  0
 22 56  1  0
 23 57  1  0
 23 58  1  0
 24 59  1  0
 25 60  1  0
 25 61  1  0
 26 62  1  0
 26 63  1  0
 26 64  1  0
 27 65  1  0
 27 66  1  0
 27 67  1  0
 28 68  1  0
 28 69  1  0
 28 70  1  0
 29 71  1  0
 29 72  1  0
 29 73  1  0
M  END
> <Uni-Dock RESULT> 
ENERGY=   -4.399  LOWER_BOUND=    3.627  UPPER_BOUND=    9.724
INTER + INTRA:          -4.399
INTER:                  -4.399
INTRA:                   0.000
UNBOUND:                 0.000

$$$$

     RDKit          3D

 73 75  0  0  1  0  0  0  0  0999 V2000
   24.3267    6.4929   31.2945 C   0  0  1  0  0  0  0  0  0  0  0  0
   23.5291    7.1962   30.1557 C   0  0  2  0  0  0  0  0  0  0  0  0
   21.8439   11.9129   30.4779 C   0  0  0  0  0  0  0  0  0  0  0  0
   23.9047    5.0136   31.0279 C   0  0  2  0  0  0  0  0  0  0  0  0
   22.8337   11.0299   30.2292 C   0  0  0  0  0  0  0  0  0  0  0  0
   20.4786   11.5760   30.8652 C   0  0  0  0  0  0  0  0  0  0  0  0
   23.7402    8.6979   30.1409 C   0  0  0  0  0  0  0  0  0  0  0  0
   22.7316    9.5837   30.2590 C   0  0  0  0  0  0  0  0  0  0  0  0
   25.6922    3.6933   32.2626 C   0  0  0  0  0  0  0  0  0  0  0  0
   26.4378    2.7187   31.7143 C   0  0  0  0  0  0  0  0  0  0  0  0
   22.1361    6.5788   30.2709 C   0  0  0  0  0  0  0  0  0  0  0  0
   22.4034    5.1133   30.6409 C   0  0  0  0  0  0  0  0  0  0  0  0
   22.0799   13.4026   30.3037 C   0  0  0  0  0  0  0  0  0  0  0  0
   24.2083    3.8580   32.0204 C   0  0  1  0  0  0  0  0  0  0  0  0
   19.3820   12.1292   29.9843 C   0  0  0  0  0  0  0  0  0  0  0  0
   20.2012   10.9047   31.9944 C   0  0  0  0  0  0  0  0  0  0  0  0
   27.9251    2.4726   31.9070 C   0  0  1  0  0  0  0  0  0  0  0  0
   25.8241    6.7959   31.0618 C   0  0  0  0  0  0  0  0  0  0  0  0
   23.9083    6.9871   32.6962 C   0  0  0  0  0  0  0  0  0  0  0  0
   20.8445   14.1765   29.8019 C   0  0  2  0  0  0  0  0  0  0  0  0
   19.8506   13.2699   29.0780 C   0  0  0  0  0  0  0  0  0  0  0  0
   28.6679    2.5585   30.5413 C   0  0  0  0  0  0  0  0  0  0  0  0
   25.2116    9.0375   29.9705 C   0  0  0  0  0  0  0  0  0  0  0  0
   21.2453   15.2305   28.9255 O   0  0  0  0  0  0  0  0  0  0  0  0
   26.1055    8.3048   30.9804 C   0  0  0  0  0  0  0  0  0  0  0  0
   23.4892    3.8809   33.3732 C   0  0  0  0  0  0  0  0  0  0  0  0
   28.5704    3.3288   33.0061 C   0  0  0  0  0  0  0  0  0  0  0  0
   28.6578    3.9609   29.9228 C   0  0  0  0  0  0  0  0  0  0  0  0
   30.1101    2.0495   30.6372 C   0  0  0  0  0  0  0  0  0  0  0  0
   23.9235    6.8457   29.1866 H   0  0  0  0  0  0  0  0  0  0  0  0
   24.4205    4.7208   30.0975 H   0  0  0  0  0  0  0  0  0  0  0  0
   23.8017   11.4362   29.9485 H   0  0  0  0  0  0  0  0  0  0  0  0
   21.7199    9.2012   30.3713 H   0  0  0  0  0  0  0  0  0  0  0  0
   26.1487    4.4150   32.9347 H   0  0  0  0  0  0  0  0  0  0  0  0
   25.9463    2.0055   31.0518 H   0  0  0  0  0  0  0  0  0  0  0  0
   21.5721    6.6604   29.3359 H   0  0  0  0  0  0  0  0  0  0  0  0
   21.5393    7.0510   31.0590 H   0  0  0  0  0  0  0  0  0  0  0  0
   21.7242    4.8149   31.4428 H   0  0  0  0  0  0  0  0  0  0  0  0
   22.1969    4.4567   29.7877 H   0  0  0  0  0  0  0  0  0  0  0  0
   22.9217   13.5742   29.6197 H   0  0  0  0  0  0  0  0  0  0  0  0
   22.3893   13.8292   31.2672 H   0  0  0  0  0  0  0  0  0  0  0  0
   23.8466    2.9462   31.5213 H   0  0  0  0  0  0  0  0  0  0  0  0
   18.9688   11.3265   29.3618 H   0  0  0  0  0  0  0  0  0  0  0  0
   18.5639   12.5005   30.6154 H   0  0  0  0  0  0  0  0  0  0  0  0
   19.1782   10.6949   32.2899 H   0  0  0  0  0  0  0  0  0  0  0  0
   20.9878   10.5496   32.6543 H   0  0  0  0  0  0  0  0  0  0  0  0
   28.0026    1.4306   32.2503 H   0  0  0  0  0  0  0  0  0  0  0  0
   26.4422    6.3726   31.8594 H   0  0  0  0  0  0  0  0  0  0  0  0
   26.1573    6.3304   30.1256 H   0  0  0  0  0  0  0  0  0  0  0  0
   23.9198    8.0786   32.7755 H   0  0  0  0  0  0  0  0  0  0  0  0
   22.8984    6.6650   32.9675 H   0  0  0  0  0  0  0  0  0  0  0  0
   24.5982    6.6148   33.4601 H   0  0  0  0  0  0  0  0  0  0  0  0
   20.3450   14.6492   30.6564 H   0  0  0  0  0  0  0  0  0  0  0  0
   18.9897   13.8512   28.7254 H   0  0  0  0  0  0  0  0  0  0  0  0
   20.3163   12.8612   28.1706 H   0  0  0  0  0  0  0  0  0  0  0  0
   28.1482    1.8927   29.8379 H   0  0  0  0  0  0  0  0  0  0  0  0
   25.5129    8.7504   28.9548 H   0  0  0  0  0  0  0  0  0  0  0  0
   25.4126   10.1082   30.0582 H   0  0  0  0  0  0  0  0  0  0  0  0
   21.6378   14.8248   28.1330 H   0  0  0  0  0  0  0  0  0  0  0  0
   27.1564    8.4577   30.7061 H   0  0  0  0  0  0  0  0  0  0  0  0
   25.9804    8.7571   31.9717 H   0  0  0  0  0  0  0  0  0  0  0  0
   22.4114    4.0252   33.2709 H   0  0  0  0  0  0  0  0  0  0  0  0
   23.6300    2.9214   33.8868 H   0  0  0  0  0  0  0  0  0  0  0  0
   23.8760    4.6491   34.0469 H   0  0  0  0  0  0  0  0  0  0  0  0
   28.0408    3.2035   33.9580 H   0  0  0  0  0  0  0  0  0  0  0  0
   29.6081    3.0304   33.1844 H   0  0  0  0  0  0  0  0  0  0  0  0
   28.5642    4.3949   32.7571 H   0  0  0  0  0  0  0  0  0  0  0  0
   29.1920    4.6851   30.5455 H   0  0  0  0  0  0  0  0  0  0  0  0
   27.6367    4.3241   29.7724 H   0  0  0  0  0  0  0  0  0  0  0  0
   29.1448    3.9485   28.9413 H   0  0  0  0  0  0  0  0  0  0  0  0
   30.1440    1.0553   31.0948 H   0  0  0  0  0  0  0  0  0  0  0  0
   30.5547    1.9700   29.6391 H   0  0  0  0  0  0  0  0  0  0  0  0
   30.7428    2.7217   31.2248 H   0  0  0  0  0  0  0  0  0  0  0  0
  2  1  1  0
  3  5  2  0
  4  1  1  0
  5  8  1  0
  6  3  1  0
  7  2  1  0
  8  7  2  0
  9 14  1  0
 10  9  2  0
  2 11  1  0
  4 12  1  0
 13  3  1  0
 14  4  1  0
 15  6  1  0
 16  6  2  0
 17 10  1  0
 18  1  1  0
  1 19  1  6
 20 13  1  0
 21 20  1  0
 22 17  1  0
 23  7  1  0
 20 24  1  0
 25 18  1  0
 14 26  1  0
 17 27  1  0
 28 22  1  0
 29 22  1  0
 23 25  1  0
 12 11  1  0
 15 21  1  0
  2 30  1  1
  4 31  1  1
  5 32  1  0
  8 33  1  0
  9 34  1  0
 10 35  1  0
 11 36  1  0
 11 37  1  0
 12 38  1  0
 12 39  1  0
 13 40  1  0
 13 41  1  0
 14 42  1  6
 15 43  1  0
 15 44  1  0
 16 45  1  0
 16 46  1  0
 17 47  1  6
 18 48  1  0
 18 49  1  0
 19 50  1  0
 19 51  1  0
 19 52  1  0
 20 53  1  6
 21 54  1  0
 21 55  1  0
 22 56  1  0
 23 57  1  0
 23 58  1  0
 24 59  1  0
 25 60  1  0
 25 61  1  0
 26 62  1  0
 26 63  1  0
 26 64  1  0
 27 65  1  0
 27 66  1  0
 27 67  1  0
 28 68  1  0
 28 69  1  0
 28 70  1  0
 29 71  1  0
 29 72  1  0
 29 73  1  0
M  END
> <Uni-Dock RESULT> 
ENERGY=   -4.234  LOWER_BOUND=    7.138  UPPER_BOUND=   12.004
INTER + INTRA:          -4.234
INTER:                  -4.234
INTRA:                   0.000
UNBOUND:                 0.000

$$$$

     RDKit          3D

 73 75  0  0  1  0  0  0  0  0999 V2000
   24.3226    6.5001   31.2932 C   0  0  1  0  0  0  0  0  0  0  0  0
   23.5242    7.2020   30.1543 C   0  0  2  0  0  0  0  0  0  0  0  0
   21.8375   11.9184   30.4732 C   0  0  0  0  0  0  0  0  0  0  0  0
   23.9010    5.0204   31.0282 C   0  0  2  0  0  0  0  0  0  0  0  0
   22.8275   11.0356   30.2248 C   0  0  0  0  0  0  0  0  0  0  0  0
   20.4725   11.5814   30.8615 C   0  0  0  0  0  0  0  0  0  0  0  0
   23.7348    8.7038   30.1380 C   0  0  0  0  0  0  0  0  0  0  0  0
   22.7259    9.5893   30.2558 C   0  0  0  0  0  0  0  0  0  0  0  0
   25.6897    3.7017   32.2630 C   0  0  0  0  0  0  0  0  0  0  0  0
   26.4354    2.7269   31.7152 C   0  0  0  0  0  0  0  0  0  0  0  0
   22.1315    6.5842   30.2707 C   0  0  0  0  0  0  0  0  0  0  0  0
   22.3995    5.1192   30.6419 C   0  0  0  0  0  0  0  0  0  0  0  0
   22.0728   13.4081   30.2976 C   0  0  0  0  0  0  0  0  0  0  0  0
   24.2056    3.8657   32.0215 C   0  0  1  0  0  0  0  0  0  0  0  0
   19.3753   12.1334   29.9808 C   0  0  0  0  0  0  0  0  0  0  0  0
   20.1959   10.9109   31.9915 C   0  0  0  0  0  0  0  0  0  0  0  0
   27.9228    2.4815   31.9073 C   0  0  1  0  0  0  0  0  0  0  0  0
   25.8198    6.8034   31.0595 C   0  0  0  0  0  0  0  0  0  0  0  0
   23.9048    6.9953   32.6947 C   0  0  0  0  0  0  0  0  0  0  0  0
   20.8369   14.1811   29.7957 C   0  0  2  0  0  0  0  0  0  0  0  0
   19.8430   13.2735   29.0731 C   0  0  0  0  0  0  0  0  0  0  0  0
   28.6649    2.5666   30.5412 C   0  0  0  0  0  0  0  0  0  0  0  0
   25.2059    9.0438   29.9666 C   0  0  0  0  0  0  0  0  0  0  0  0
   21.2369   15.2345   28.9182 O   0  0  0  0  0  0  0  0  0  0  0  0
   26.1006    8.3123   30.9767 C   0  0  0  0  0  0  0  0  0  0  0  0
   23.4872    3.8896   33.3747 C   0  0  0  0  0  0  0  0  0  0  0  0
   28.5684    3.3390   33.0054 C   0  0  0  0  0  0  0  0  0  0  0  0
   28.6539    3.9684   29.9214 C   0  0  0  0  0  0  0  0  0  0  0  0
   30.1073    2.0581   30.6368 C   0  0  0  0  0  0  0  0  0  0  0  0
   23.9182    6.8508   29.1853 H   0  0  0  0  0  0  0  0  0  0  0  0
   24.4165    4.7269   30.0978 H   0  0  0  0  0  0  0  0  0  0  0  0
   23.7952   11.4419   29.9432 H   0  0  0  0  0  0  0  0  0  0  0  0
   21.7144    9.2066   30.3690 H   0  0  0  0  0  0  0  0  0  0  0  0
   26.1463    4.4242   32.9343 H   0  0  0  0  0  0  0  0  0  0  0  0
   25.9438    2.0130   31.0536 H   0  0  0  0  0  0  0  0  0  0  0  0
   21.5670    6.6648   29.3360 H   0  0  0  0  0  0  0  0  0  0  0  0
   21.5349    7.0570   31.0588 H   0  0  0  0  0  0  0  0  0  0  0  0
   21.7208    4.8212   31.4443 H   0  0  0  0  0  0  0  0  0  0  0  0
   22.1928    4.4617   29.7893 H   0  0  0  0  0  0  0  0  0  0  0  0
   22.9143   13.5793   29.6130 H   0  0  0  0  0  0  0  0  0  0  0  0
   22.3826   13.8356   31.2606 H   0  0  0  0  0  0  0  0  0  0  0  0
   23.8440    2.9534   31.5234 H   0  0  0  0  0  0  0  0  0  0  0  0
   18.9620   11.3300   29.3591 H   0  0  0  0  0  0  0  0  0  0  0  0
   18.5574   12.5049   30.6119 H   0  0  0  0  0  0  0  0  0  0  0  0
   19.1731   10.7011   32.2877 H   0  0  0  0  0  0  0  0  0  0  0  0
   20.9830   10.5567   32.6512 H   0  0  0  0  0  0  0  0  0  0  0  0
   28.0008    1.4399   32.2516 H   0  0  0  0  0  0  0  0  0  0  0  0
   26.4385    6.3809   31.8571 H   0  0  0  0  0  0  0  0  0  0  0  0
   26.1527    6.3371   30.1235 H   0  0  0  0  0  0  0  0  0  0  0  0
   23.9159    8.0869   32.7731 H   0  0  0  0  0  0  0  0  0  0  0  0
   22.8952    6.6730   32.9669 H   0  0  0  0  0  0  0  0  0  0  0  0
   24.5952    6.6239   33.4586 H   0  0  0  0  0  0  0  0  0  0  0  0
   20.3377   14.6543   30.6501 H   0  0  0  0  0  0  0  0  0  0  0  0
   18.9816   13.8542   28.7206 H   0  0  0  0  0  0  0  0  0  0  0  0
   20.3083   12.8641   28.1659 H   0  0  0  0  0  0  0  0  0  0  0  0
   28.1451    1.8999   29.8387 H   0  0  0  0  0  0  0  0  0  0  0  0
   25.5068    8.7560   28.9509 H   0  0  0  0  0  0  0  0  0  0  0  0
   25.4066   10.1146   30.0532 H   0  0  0  0  0  0  0  0  0  0  0  0
   21.6291   14.8282   28.1259 H   0  0  0  0  0  0  0  0  0  0  0  0
   27.1513    8.4653   30.7016 H   0  0  0  0  0  0  0  0  0  0  0  0
   25.9759    8.7654   31.9677 H   0  0  0  0  0  0  0  0  0  0  0  0
   22.4093    4.0334   33.2728 H   0  0  0  0  0  0  0  0  0  0  0  0
   23.6286    2.9305   33.8891 H   0  0  0  0  0  0  0  0  0  0  0  0
   23.8741    4.6585   34.0475 H   0  0  0  0  0  0  0  0  0  0  0  0
   28.0393    3.2143   33.9576 H   0  0  0  0  0  0  0  0  0  0  0  0
   29.6063    3.0411   33.1834 H   0  0  0  0  0  0  0  0  0  0  0  0
   28.5617    4.4049   32.7555 H   0  0  0  0  0  0  0  0  0  0  0  0
   29.1882    4.6934   30.5432 H   0  0  0  0  0  0  0  0  0  0  0  0
   27.6327    4.3311   29.7713 H   0  0  0  0  0  0  0  0  0  0  0  0
   29.1404    3.9553   28.9397 H   0  0  0  0  0  0  0  0  0  0  0  0
   30.1418    1.0644   31.0953 H   0  0  0  0  0  0  0  0  0  0  0  0
   30.5514    1.9780   29.6385 H   0  0  0  0  0  0  0  0  0  0  0  0
   30.7400    2.7311   31.2235 H   0  0  0  0  0  0  0  0  0  0  0  0
  2  1  1  0
  3  5  2  0
  4  1  1  0
  5  8  1  0
  6  3  1  0
  7  2  1  0
  8  7  2  0
  9 14  1  0
 10  9  2  0
  2 11  1  0
  4 12  1  0
 13  3  1  0
 14  4  1  0
 15  6  1  0
 16  6  2  0
 17 10  1  0
 18  1  1  0
  1 19  1  6
 20 13  1  0
 21 20  1  0
 22 17  1  0
 23  7  1  0
 20 24  1  0
 25 18  1  0
 14 26  1  0
 17 27  1  0
 28 22  1  0
 29 22  1  0
 23 25  1  0
 12 11  1  0
 15 21  1  0
  2 30  1  1
  4 31  1  1
  5 32  1  0
  8 33  1  0
  9 34  1  0
 10 35  1  0
 11 36  1  0
 11 37  1  0
 12 38  1  0
 12 39  1  0
 13 40  1  0
 13 41  1  0
 14 42  1  6
 15 43  1  0
 15 44  1  0
 16 45  1  0
 16 46  1  0
 17 47  1  6
 18 48  1  0
 18 49  1  0
 19 50  1  0
 19 51  1  0
 19 52  1  0
 20 53  1  6
 21 54  1  0
 21 55  1  0
 22 56  1  0
 23 57  1  0
 23 58  1  0
 24 59  1  0
 25 60  1  0
 25 61  1  0
 26 62  1  0
 26 63  1  0
 26 64  1  0
 27 65  1  0
 27 66  1  0
 27 67  1  0
 28 68  1  0
 28 69  1  0
 28 70  1  0
 29 71  1  0
 29 72  1  0
 29 73  1  0
M  END
> <Uni-Dock RESULT> 
ENERGY=   -4.233  LOWER_BOUND=    7.144  UPPER_BOUND=   12.010
INTER + INTRA:          -4.233
INTER:                  -4.233
INTRA:                   0.000
UNBOUND:                 0.000

$$$$

     RDKit          3D

 73 75  0  0  1  0  0  0  0  0999 V2000
   29.9077    3.3520   31.5326 C   0  0  1  0  0  0  0  0  0  0  0  0
   29.1410    4.3821   30.6504 C   0  0  2  0  0  0  0  0  0  0  0  0
   24.7750    6.4572   32.0004 C   0  0  0  0  0  0  0  0  0  0  0  0
   30.6305    2.5410   30.4112 C   0  0  2  0  0  0  0  0  0  0  0  0
   26.1226    6.4100   32.0518 C   0  0  0  0  0  0  0  0  0  0  0  0
   23.9194    5.5606   31.2312 C   0  0  0  0  0  0  0  0  0  0  0  0
   28.3175    5.3531   31.4745 C   0  0  0  0  0  0  0  0  0  0  0  0
   26.9850    5.4936   31.3311 C   0  0  0  0  0  0  0  0  0  0  0  0
   32.4909    1.3660   31.6843 C   0  0  0  0  0  0  0  0  0  0  0  0
   33.7925    1.4144   31.3529 C   0  0  0  0  0  0  0  0  0  0  0  0
   28.5122    3.5124   29.5627 C   0  0  0  0  0  0  0  0  0  0  0  0
   29.5737    2.4413   29.2768 C   0  0  0  0  0  0  0  0  0  0  0  0
   24.0146    7.5470   32.7349 C   0  0  0  0  0  0  0  0  0  0  0  0
   31.3703    1.2023   30.6818 C   0  0  1  0  0  0  0  0  0  0  0  0
   22.9744    6.2200   30.2531 C   0  0  0  0  0  0  0  0  0  0  0  0
   23.8924    4.2361   31.4500 C   0  0  0  0  0  0  0  0  0  0  0  0
   34.9802    1.5672   32.2887 C   0  0  1  0  0  0  0  0  0  0  0  0
   30.8444    4.1525   32.4653 C   0  0  0  0  0  0  0  0  0  0  0  0
   28.9553    2.4787   32.3778 C   0  0  0  0  0  0  0  0  0  0  0  0
   22.7368    8.0146   32.0099 C   0  0  2  0  0  0  0  0  0  0  0  0
   22.7810    7.7159   30.5124 C   0  0  0  0  0  0  0  0  0  0  0  0
   35.7799    2.8568   31.9399 C   0  0  0  0  0  0  0  0  0  0  0  0
   29.1970    6.1214   32.4469 C   0  0  0  0  0  0  0  0  0  0  0  0
   22.5440    9.4162   32.2051 O   0  0  0  0  0  0  0  0  0  0  0  0
   30.0826    5.1982   33.2951 C   0  0  0  0  0  0  0  0  0  0  0  0
   30.5198   -0.0056   31.0882 C   0  0  0  0  0  0  0  0  0  0  0  0
   34.6296    1.4526   33.7792 C   0  0  0  0  0  0  0  0  0  0  0  0
   35.0032    4.1520   32.2019 C   0  0  0  0  0  0  0  0  0  0  0  0
   37.1292    2.9113   32.6642 C   0  0  0  0  0  0  0  0  0  0  0  0
   29.8811    5.0119   30.1277 H   0  0  0  0  0  0  0  0  0  0  0  0
   31.4114    3.2127   30.0156 H   0  0  0  0  0  0  0  0  0  0  0  0
   26.6215    7.1502   32.6715 H   0  0  0  0  0  0  0  0  0  0  0  0
   26.4786    4.8799   30.5898 H   0  0  0  0  0  0  0  0  0  0  0  0
   32.1920    1.4327   32.7271 H   0  0  0  0  0  0  0  0  0  0  0  0
   34.0584    1.3352   30.2983 H   0  0  0  0  0  0  0  0  0  0  0  0
   28.2715    4.0892   28.6637 H   0  0  0  0  0  0  0  0  0  0  0  0
   27.5892    3.0297   29.9026 H   0  0  0  0  0  0  0  0  0  0  0  0
   29.0906    1.4635   29.2138 H   0  0  0  0  0  0  0  0  0  0  0  0
   30.0530    2.6228   28.3077 H   0  0  0  0  0  0  0  0  0  0  0  0
   24.6700    8.4097   32.9140 H   0  0  0  0  0  0  0  0  0  0  0  0
   23.7337    7.1766   33.7299 H   0  0  0  0  0  0  0  0  0  0  0  0
   31.8210    0.9215   29.7178 H   0  0  0  0  0  0  0  0  0  0  0  0
   23.3458    6.0809   29.2306 H   0  0  0  0  0  0  0  0  0  0  0  0
   21.9946    5.7280   30.3092 H   0  0  0  0  0  0  0  0  0  0  0  0
   23.2223    3.5859   30.8968 H   0  0  0  0  0  0  0  0  0  0  0  0
   24.5365    3.7672   32.1886 H   0  0  0  0  0  0  0  0  0  0  0  0
   35.6350    0.7123   32.0651 H   0  0  0  0  0  0  0  0  0  0  0  0
   31.3792    3.4900   33.1527 H   0  0  0  0  0  0  0  0  0  0  0  0
   31.6077    4.6708   31.8712 H   0  0  0  0  0  0  0  0  0  0  0  0
   28.2333    3.0750   32.9443 H   0  0  0  0  0  0  0  0  0  0  0  0
   28.3736    1.7832   31.7653 H   0  0  0  0  0  0  0  0  0  0  0  0
   29.5165    1.8932   33.1129 H   0  0  0  0  0  0  0  0  0  0  0  0
   21.8681    7.5118   32.4523 H   0  0  0  0  0  0  0  0  0  0  0  0
   21.8638    8.0689   30.0250 H   0  0  0  0  0  0  0  0  0  0  0  0
   23.5960    8.2861   30.0457 H   0  0  0  0  0  0  0  0  0  0  0  0
   36.0042    2.8279   30.8642 H   0  0  0  0  0  0  0  0  0  0  0  0
   29.8395    6.7960   31.8664 H   0  0  0  0  0  0  0  0  0  0  0  0
   28.6232    6.7555   33.1275 H   0  0  0  0  0  0  0  0  0  0  0  0
   23.2773    9.8809   31.7658 H   0  0  0  0  0  0  0  0  0  0  0  0
   30.8049    5.8071   33.8524 H   0  0  0  0  0  0  0  0  0  0  0  0
   29.4651    4.6930   34.0477 H   0  0  0  0  0  0  0  0  0  0  0  0
   29.6725   -0.1645   30.4176 H   0  0  0  0  0  0  0  0  0  0  0  0
   31.1266   -0.9192   31.0492 H   0  0  0  0  0  0  0  0  0  0  0  0
   30.1399    0.0669   32.1100 H   0  0  0  0  0  0  0  0  0  0  0  0
   34.1063    0.5111   33.9843 H   0  0  0  0  0  0  0  0  0  0  0  0
   35.5306    1.4510   34.4003 H   0  0  0  0  0  0  0  0  0  0  0  0
   33.9883    2.2729   34.1175 H   0  0  0  0  0  0  0  0  0  0  0  0
   34.7702    4.2802   33.2634 H   0  0  0  0  0  0  0  0  0  0  0  0
   34.0654    4.1765   31.6388 H   0  0  0  0  0  0  0  0  0  0  0  0
   35.5924    5.0205   31.8872 H   0  0  0  0  0  0  0  0  0  0  0  0
   37.6946    1.9868   32.5071 H   0  0  0  0  0  0  0  0  0  0  0  0
   37.7355    3.7395   32.2813 H   0  0  0  0  0  0  0  0  0  0  0  0
   37.0093    3.0638   33.7411 H   0  0  0  0  0  0  0  0  0  0  0  0
  2  1  1  0
  3  5  2  0
  4  1  1  0
  5  8  1  0
  6  3  1  0
  7  2  1  0
  8  7  2  0
  9 14  1  0
 10  9  2  0
  2 11  1  0
  4 12  1  0
 13  3  1  0
 14  4  1  0
 15  6  1  0
 16  6  2  0
 17 10  1  0
 18  1  1  0
  1 19  1  6
 20 13  1  0
 21 20  1  0
 22 17  1  0
 23  7  1  0
 20 24  1  0
 25 18  1  0
 14 26  1  0
 17 27  1  0
 28 22  1  0
 29 22  1  0
 23 25  1  0
 12 11  1  0
 15 21  1  0
  2 30  1  1
  4 31  1  1
  5 32  1  0
  8 33  1  0
  9 34  1  0
 10 35  1  0
 11 36  1  0
 11 37  1  0
 12 38  1  0
 12 39  1  0
 13 40  1  0
 13 41  1  0
 14 42  1  6
 15 43  1  0
 15 44  1  0
 16 45  1  0
 16 46  1  0
 17 47  1  6
 18 48  1  0
 18 49  1  0
 19 50  1  0
 19 51  1  0
 19 52  1  0
 20 53  1  6
 21 54  1  0
 21 55  1  0
 22 56  1  0
 23 57  1  0
 23 58  1  0
 24 59  1  0
 25 60  1  0
 25 61  1  0
 26 62  1  0
 26 63  1  0
 26 64  1  0
 27 65  1  0
 27 66  1  0
 27 67  1  0
 28 68  1  0
 28 69  1  0
 28 70  1  0
 29 71  1  0
 29 72  1  0
 29 73  1  0
M  END
> <Uni-Dock RESULT> 
ENERGY=   -3.882  LOWER_BOUND=    4.110  UPPER_BOUND=    9.808
INTER + INTRA:          -3.882
INTER:                  -3.882
INTRA:                   0.000
UNBOUND:                 0.000

$$$$

     RDKit          3D

 73 75  0  0  1  0  0  0  0  0999 V2000
   24.1232   11.2461   29.3882 C   0  0  1  0  0  0  0  0  0  0  0  0
   24.2612    9.7851   28.8647 C   0  0  2  0  0  0  0  0  0  0  0  0
   24.9835    5.8352   31.8758 C   0  0  0  0  0  0  0  0  0  0  0  0
   24.6881   12.0160   28.1530 C   0  0  2  0  0  0  0  0  0  0  0  0
   24.1679    6.7386   31.2929 C   0  0  0  0  0  0  0  0  0  0  0  0
   26.4291    5.7536   31.6998 C   0  0  0  0  0  0  0  0  0  0  0  0
   23.7723    8.7598   29.8696 C   0  0  0  0  0  0  0  0  0  0  0  0
   24.5536    7.7748   30.3546 C   0  0  0  0  0  0  0  0  0  0  0  0
   23.8165   14.3756   28.5209 C   0  0  0  0  0  0  0  0  0  0  0  0
   23.1220   15.0838   27.6139 C   0  0  0  0  0  0  0  0  0  0  0  0
   25.6806    9.7480   28.3002 C   0  0  0  0  0  0  0  0  0  0  0  0
   25.8698   11.1329   27.6660 C   0  0  0  0  0  0  0  0  0  0  0  0
   24.4126    4.7405   32.7597 C   0  0  0  0  0  0  0  0  0  0  0  0
   25.0262   13.5317   28.1862 C   0  0  1  0  0  0  0  0  0  0  0  0
   26.9659    4.4261   31.2157 C   0  0  0  0  0  0  0  0  0  0  0  0
   27.2491    6.7587   32.0462 C   0  0  0  0  0  0  0  0  0  0  0  0
   21.9059   15.9615   27.8597 C   0  0  1  0  0  0  0  0  0  0  0  0
   22.6254   11.4905   29.6798 C   0  0  0  0  0  0  0  0  0  0  0  0
   24.9486   11.4912   30.6699 C   0  0  0  0  0  0  0  0  0  0  0  0
   25.1788    3.4053   32.6744 C   0  0  2  0  0  0  0  0  0  0  0  0
   25.9689    3.2757   31.3734 C   0  0  0  0  0  0  0  0  0  0  0  0
   20.6892   15.4399   27.0402 C   0  0  0  0  0  0  0  0  0  0  0  0
   22.3150    9.0013   30.2262 C   0  0  0  0  0  0  0  0  0  0  0  0
   24.2714    2.3082   32.7857 O   0  0  0  0  0  0  0  0  0  0  0  0
   22.0460   10.4511   30.6526 C   0  0  0  0  0  0  0  0  0  0  0  0
   26.1953   13.9758   29.0714 C   0  0  0  0  0  0  0  0  0  0  0  0
   21.5854   16.1967   29.3429 C   0  0  0  0  0  0  0  0  0  0  0  0
   20.1841   14.0663   27.4957 C   0  0  0  0  0  0  0  0  0  0  0  0
   19.5273   16.4390   27.0353 C   0  0  0  0  0  0  0  0  0  0  0  0
   23.5975    9.6640   27.9915 H   0  0  0  0  0  0  0  0  0  0  0  0
   23.9189   11.9222   27.3675 H   0  0  0  0  0  0  0  0  0  0  0  0
   23.1078    6.6704   31.5223 H   0  0  0  0  0  0  0  0  0  0  0  0
   25.5828    7.7153   30.0087 H   0  0  0  0  0  0  0  0  0  0  0  0
   23.5260   14.3988   29.5679 H   0  0  0  0  0  0  0  0  0  0  0  0
   23.4460   15.0458   26.5734 H   0  0  0  0  0  0  0  0  0  0  0  0
   25.8088    8.9481   27.5636 H   0  0  0  0  0  0  0  0  0  0  0  0
   26.4324    9.5996   29.0833 H   0  0  0  0  0  0  0  0  0  0  0  0
   26.8514   11.5244   27.9425 H   0  0  0  0  0  0  0  0  0  0  0  0
   25.8519   11.0614   26.5722 H   0  0  0  0  0  0  0  0  0  0  0  0
   23.3552    4.5717   32.5163 H   0  0  0  0  0  0  0  0  0  0  0  0
   24.4255    5.0825   33.8033 H   0  0  0  0  0  0  0  0  0  0  0  0
   25.3356   13.7811   27.1599 H   0  0  0  0  0  0  0  0  0  0  0  0
   27.2525    4.5069   30.1602 H   0  0  0  0  0  0  0  0  0  0  0  0
   27.8755    4.1771   31.7778 H   0  0  0  0  0  0  0  0  0  0  0  0
   28.3260    6.6692   31.9459 H   0  0  0  0  0  0  0  0  0  0  0  0
   26.8668    7.6958   32.4412 H   0  0  0  0  0  0  0  0  0  0  0  0
   22.1730   16.9458   27.4480 H   0  0  0  0  0  0  0  0  0  0  0  0
   22.4617   12.4866   30.1020 H   0  0  0  0  0  0  0  0  0  0  0  0
   22.0521   11.4475   28.7450 H   0  0  0  0  0  0  0  0  0  0  0  0
   24.7562   10.7392   31.4414 H   0  0  0  0  0  0  0  0  0  0  0  0
   26.0263   11.4759   30.4809 H   0  0  0  0  0  0  0  0  0  0  0  0
   24.6972   12.4599   31.1132 H   0  0  0  0  0  0  0  0  0  0  0  0
   25.8687    3.3320   33.5240 H   0  0  0  0  0  0  0  0  0  0  0  0
   26.4935    2.3129   31.3392 H   0  0  0  0  0  0  0  0  0  0  0  0
   25.2765    3.2597   30.5205 H   0  0  0  0  0  0  0  0  0  0  0  0
   21.0134   15.3334   25.9953 H   0  0  0  0  0  0  0  0  0  0  0  0
   21.7047    8.7709   29.3434 H   0  0  0  0  0  0  0  0  0  0  0  0
   21.9593    8.3446   31.0240 H   0  0  0  0  0  0  0  0  0  0  0  0
   23.6889    2.3242   32.0065 H   0  0  0  0  0  0  0  0  0  0  0  0
   20.9632   10.6051   30.7363 H   0  0  0  0  0  0  0  0  0  0  0  0
   22.4559   10.6169   31.6562 H   0  0  0  0  0  0  0  0  0  0  0  0
   27.0978   13.3853   28.8987 H   0  0  0  0  0  0  0  0  0  0  0  0
   26.4555   15.0187   28.8502 H   0  0  0  0  0  0  0  0  0  0  0  0
   25.9592   13.9380   30.1375 H   0  0  0  0  0  0  0  0  0  0  0  0
   22.4569   16.6035   29.8693 H   0  0  0  0  0  0  0  0  0  0  0  0
   20.7786   16.9261   29.4642 H   0  0  0  0  0  0  0  0  0  0  0  0
   21.2861   15.2751   29.8526 H   0  0  0  0  0  0  0  0  0  0  0  0
   19.8040   14.0912   28.5216 H   0  0  0  0  0  0  0  0  0  0  0  0
   20.9741   13.3114   27.4401 H   0  0  0  0  0  0  0  0  0  0  0  0
   19.3663   13.7272   26.8501 H   0  0  0  0  0  0  0  0  0  0  0  0
   19.8687   17.4339   26.7313 H   0  0  0  0  0  0  0  0  0  0  0  0
   18.7543   16.1230   26.3262 H   0  0  0  0  0  0  0  0  0  0  0  0
   19.0551   16.5218   28.0190 H   0  0  0  0  0  0  0  0  0  0  0  0
  2  1  1  0
  3  5  2  0
  4  1  1  0
  5  8  1  0
  6  3  1  0
  7  2  1  0
  8  7  2  0
  9 14  1  0
 10  9  2  0
  2 11  1  0
  4 12  1  0
 13  3  1  0
 14  4  1  0
 15  6  1  0
 16  6  2  0
 17 10  1  0
 18  1  1  0
  1 19  1  6
 20 13  1  0
 21 20  1  0
 22 17  1  0
 23  7  1  0
 20 24  1  0
 25 18  1  0
 14 26  1  0
 17 27  1  0
 28 22  1  0
 29 22  1  0
 23 25  1  0
 12 11  1  0
 15 21  1  0
  2 30  1  1
  4 31  1  1
  5 32  1  0
  8 33  1  0
  9 34  1  0
 10 35  1  0
 11 36  1  0
 11 37  1  0
 12 38  1  0
 12 39  1  0
 13 40  1  0
 13 41  1  0
 14 42  1  6
 15 43  1  0
 15 44  1  0
 16 45  1  0
 16 46  1  0
 17 47  1  6
 18 48  1  0
 18 49  1  0
 19 50  1  0
 19 51  1  0
 19 52  1  0
 20 53  1  6
 21 54  1  0
 21 55  1  0
 22 56  1  0
 23 57  1  0
 23 58  1  0
 24 59  1  0
 25 60  1  0
 25 61  1  0
 26 62  1  0
 26 63  1  0
 26 64  1  0
 27 65  1  0
 27 66  1  0
 27 67  1  0
 28 68  1  0
 28 69  1  0
 28 70  1  0
 29 71  1  0
 29 72  1  0
 29 73  1  0
M  END
> <Uni-Dock RESULT> 
ENERGY=   -3.805  LOWER_BOUND=    8.212  UPPER_BOUND=   12.096
INTER + INTRA:          -3.805
INTER:                  -3.805
INTRA:                   0.000
UNBOUND:                 0.000

$$$$

     RDKit          3D

 73 75  0  0  1  0  0  0  0  0999 V2000
   30.3967    3.7829   31.4667 C   0  0  1  0  0  0  0  0  0  0  0  0
   29.2842    3.2959   30.4907 C   0  0  2  0  0  0  0  0  0  0  0  0
   24.5201    2.5601   31.8881 C   0  0  0  0  0  0  0  0  0  0  0  0
   31.6374    3.1119   30.7976 C   0  0  2  0  0  0  0  0  0  0  0  0
   25.5199    3.3772   31.4958 C   0  0  0  0  0  0  0  0  0  0  0  0
   24.6214    1.1167   32.0720 C   0  0  0  0  0  0  0  0  0  0  0  0
   27.9086    3.8030   30.8787 C   0  0  0  0  0  0  0  0  0  0  0  0
   26.8712    2.9851   31.1446 C   0  0  0  0  0  0  0  0  0  0  0  0
   33.5793    4.4247   31.7815 C   0  0  0  0  0  0  0  0  0  0  0  0
   34.5402    5.0249   31.0585 C   0  0  0  0  0  0  0  0  0  0  0  0
   29.5805    1.8047   30.3381 C   0  0  0  0  0  0  0  0  0  0  0  0
   31.1132    1.7236   30.3375 C   0  0  0  0  0  0  0  0  0  0  0  0
   23.1240    3.1096   32.1215 C   0  0  0  0  0  0  0  0  0  0  0  0
   33.0316    3.0477   31.4791 C   0  0  1  0  0  0  0  0  0  0  0  0
   23.6438    0.2759   31.2834 C   0  0  0  0  0  0  0  0  0  0  0  0
   25.4587    0.5672   32.9663 C   0  0  0  0  0  0  0  0  0  0  0  0
   35.1539    6.3954   31.2926 C   0  0  1  0  0  0  0  0  0  0  0  0
   30.3936    5.3280   31.4331 C   0  0  0  0  0  0  0  0  0  0  0  0
   30.1643    3.2943   32.9129 C   0  0  0  0  0  0  0  0  0  0  0  0
   21.9955    2.1291   31.7443 C   0  0  2  0  0  0  0  0  0  0  0  0
   22.4582    1.0761   30.7389 C   0  0  0  0  0  0  0  0  0  0  0  0
   34.9195    7.3105   30.0549 C   0  0  0  0  0  0  0  0  0  0  0  0
   27.8797    5.3220   30.9125 C   0  0  0  0  0  0  0  0  0  0  0  0
   20.8837    2.8423   31.2014 O   0  0  0  0  0  0  0  0  0  0  0  0
   29.0116    5.9133   31.7641 C   0  0  0  0  0  0  0  0  0  0  0  0
   33.1654    2.1791   32.7343 C   0  0  0  0  0  0  0  0  0  0  0  0
   34.7483    7.0514   32.6204 C   0  0  0  0  0  0  0  0  0  0  0  0
   33.4461    7.6608   29.8191 C   0  0  0  0  0  0  0  0  0  0  0  0
   35.7489    8.5971   30.1247 C   0  0  0  0  0  0  0  0  0  0  0  0
   29.4770    3.7341   29.4965 H   0  0  0  0  0  0  0  0  0  0  0  0
   31.8121    3.6745   29.8646 H   0  0  0  0  0  0  0  0  0  0  0  0
   25.2884    4.4348   31.4026 H   0  0  0  0  0  0  0  0  0  0  0  0
   27.0308    1.9115   31.0784 H   0  0  0  0  0  0  0  0  0  0  0  0
   33.1579    4.9256   32.6491 H   0  0  0  0  0  0  0  0  0  0  0  0
   34.9478    4.4906   30.1998 H   0  0  0  0  0  0  0  0  0  0  0  0
   29.1564    1.3939   29.4160 H   0  0  0  0  0  0  0  0  0  0  0  0
   29.1844    1.2176   31.1741 H   0  0  0  0  0  0  0  0  0  0  0  0
   31.4304    0.9007   30.9822 H   0  0  0  0  0  0  0  0  0  0  0  0
   31.4870    1.5020   29.3310 H   0  0  0  0  0  0  0  0  0  0  0  0
   22.9912    4.0498   31.5700 H   0  0  0  0  0  0  0  0  0  0  0  0
   23.0169    3.3709   33.1828 H   0  0  0  0  0  0  0  0  0  0  0  0
   33.6948    2.5786   30.7365 H   0  0  0  0  0  0  0  0  0  0  0  0
   24.1632   -0.2055   30.4460 H   0  0  0  0  0  0  0  0  0  0  0  0
   23.2564   -0.5260   31.9254 H   0  0  0  0  0  0  0  0  0  0  0  0
   25.4955   -0.5065   33.1201 H   0  0  0  0  0  0  0  0  0  0  0  0
   26.1271    1.1751   33.5698 H   0  0  0  0  0  0  0  0  0  0  0  0
   36.2372    6.2181   31.3611 H   0  0  0  0  0  0  0  0  0  0  0  0
   31.1208    5.7407   32.1389 H   0  0  0  0  0  0  0  0  0  0  0  0
   30.6891    5.6795   30.4364 H   0  0  0  0  0  0  0  0  0  0  0  0
   29.1536    3.5134   33.2710 H   0  0  0  0  0  0  0  0  0  0  0  0
   30.3046    2.2140   33.0155 H   0  0  0  0  0  0  0  0  0  0  0  0
   30.8516    3.7913   33.6048 H   0  0  0  0  0  0  0  0  0  0  0  0
   21.6367    1.6281   32.6517 H   0  0  0  0  0  0  0  0  0  0  0  0
   21.6315    0.4016   30.4842 H   0  0  0  0  0  0  0  0  0  0  0  0
   22.7367    1.5639   29.7946 H   0  0  0  0  0  0  0  0  0  0  0  0
   35.2665    6.7635   29.1669 H   0  0  0  0  0  0  0  0  0  0  0  0
   27.9805    5.6884   29.8827 H   0  0  0  0  0  0  0  0  0  0  0  0
   26.9335    5.7198   31.2876 H   0  0  0  0  0  0  0  0  0  0  0  0
   21.1697    3.2448   30.3630 H   0  0  0  0  0  0  0  0  0  0  0  0
   29.0398    7.0000   31.6181 H   0  0  0  0  0  0  0  0  0  0  0  0
   28.7886    5.7542   32.8261 H   0  0  0  0  0  0  0  0  0  0  0  0
   32.7616    1.1743   32.5919 H   0  0  0  0  0  0  0  0  0  0  0  0
   34.2250    2.0577   32.9928 H   0  0  0  0  0  0  0  0  0  0  0  0
   32.6847    2.6213   33.6101 H   0  0  0  0  0  0  0  0  0  0  0  0
   34.9709    6.3890   33.4653 H   0  0  0  0  0  0  0  0  0  0  0  0
   35.3066    7.9766   32.7933 H   0  0  0  0  0  0  0  0  0  0  0  0
   33.6805    7.2906   32.6544 H   0  0  0  0  0  0  0  0  0  0  0  0
   33.0283    8.2440   30.6456 H   0  0  0  0  0  0  0  0  0  0  0  0
   32.8369    6.7611   29.6910 H   0  0  0  0  0  0  0  0  0  0  0  0
   33.3372    8.2581   28.9070 H   0  0  0  0  0  0  0  0  0  0  0  0
   36.8040    8.3722   30.3123 H   0  0  0  0  0  0  0  0  0  0  0  0
   35.6900    9.1419   29.1761 H   0  0  0  0  0  0  0  0  0  0  0  0
   35.3943    9.2701   30.9113 H   0  0  0  0  0  0  0  0  0  0  0  0
  2  1  1  0
  3  5  2  0
  4  1  1  0
  5  8  1  0
  6  3  1  0
  7  2  1  0
  8  7  2  0
  9 14  1  0
 10  9  2  0
  2 11  1  0
  4 12  1  0
 13  3  1  0
 14  4  1  0
 15  6  1  0
 16  6  2  0
 17 10  1  0
 18  1  1  0
  1 19  1  6
 20 13  1  0
 21 20  1  0
 22 17  1  0
 23  7  1  0
 20 24  1  0
 25 18  1  0
 14 26  1  0
 17 27  1  0
 28 22  1  0
 29 22  1  0
 23 25  1  0
 12 11  1  0
 15 21  1  0
  2 30  1  1
  4 31  1  1
  5 32  1  0
  8 33  1  0
  9 34  1  0
 10 35  1  0
 11 36  1  0
 11 37  1  0
 12 38  1  0
 12 39  1  0
 13 40  1  0
 13 41  1  0
 14 42  1  6
 15 43  1  0
 15 44  1  0
 16 45  1  0
 16 46  1  0
 17 47  1  6
 18 48  1  0
 18 49  1  0
 19 50  1  0
 19 51  1  0
 19 52  1  0
 20 53  1  6
 21 54  1  0
 21 55  1  0
 22 56  1  0
 23 57  1  0
 23 58  1  0
 24 59  1  0
 25 60  1  0
 25 61  1  0
 26 62  1  0
 26 63  1  0
 26 64  1  0
 27 65  1  0
 27 66  1  0
 27 67  1  0
 28 68  1  0
 28 69  1  0
 28 70  1  0
 29 71  1  0
 29 72  1  0
 29 73  1  0
M  END
> <Uni-Dock RESULT> 
ENERGY=   -3.764  LOWER_BOUND=    3.871  UPPER_BOUND=    9.950
INTER + INTRA:          -3.764
INTER:                  -3.764
INTRA:                   0.000
UNBOUND:                 0.000

$$$$

     RDKit          3D

 73 75  0  0  1  0  0  0  0  0999 V2000
   30.8713    8.6091   29.6027 C   0  0  1  0  0  0  0  0  0  0  0  0
   29.8507    9.6452   30.1616 C   0  0  2  0  0  0  0  0  0  0  0  0
   24.8788    9.1477   29.6885 C   0  0  0  0  0  0  0  0  0  0  0  0
   32.0796    9.5596   29.3310 C   0  0  2  0  0  0  0  0  0  0  0  0
   26.0368    8.8602   30.3190 C   0  0  0  0  0  0  0  0  0  0  0  0
   24.7329   10.0244   28.5320 C   0  0  0  0  0  0  0  0  0  0  0  0
   28.5262    9.0100   30.5389 C   0  0  0  0  0  0  0  0  0  0  0  0
   27.3496    9.3885   30.0021 C   0  0  0  0  0  0  0  0  0  0  0  0
   34.0351    7.9430   29.1708 C   0  0  0  0  0  0  0  0  0  0  0  0
   35.1700    8.0435   29.8837 C   0  0  0  0  0  0  0  0  0  0  0  0
   29.9368   10.7966   29.1608 C   0  0  0  0  0  0  0  0  0  0  0  0
   31.4235   10.8571   28.7839 C   0  0  0  0  0  0  0  0  0  0  0  0
   23.5631    8.5937   30.2054 C   0  0  0  0  0  0  0  0  0  0  0  0
   33.3349    9.1198   28.5287 C   0  0  1  0  0  0  0  0  0  0  0  0
   23.7637   11.1738   28.6872 C   0  0  0  0  0  0  0  0  0  0  0  0
   25.3394    9.7701   27.3614 C   0  0  0  0  0  0  0  0  0  0  0  0
   35.9437    6.9202   30.5541 C   0  0  1  0  0  0  0  0  0  0  0  0
   31.1069    7.5540   30.7071 C   0  0  0  0  0  0  0  0  0  0  0  0
   30.3612    7.9147   28.3213 C   0  0  0  0  0  0  0  0  0  0  0  0
   22.3657    9.5457   30.0133 C   0  0  2  0  0  0  0  0  0  0  0  0
   22.8040   11.0018   29.8669 C   0  0  0  0  0  0  0  0  0  0  0  0
   36.0317    7.1664   32.0890 C   0  0  0  0  0  0  0  0  0  0  0  0
   28.7229    7.9249   31.5844 C   0  0  0  0  0  0  0  0  0  0  0  0
   21.4647    9.4336   31.1157 O   0  0  0  0  0  0  0  0  0  0  0  0
   29.7962    6.9051   31.1794 C   0  0  0  0  0  0  0  0  0  0  0  0
   33.1530    8.8285   27.0355 C   0  0  0  0  0  0  0  0  0  0  0  0
   35.4545    5.5108   30.1905 C   0  0  0  0  0  0  0  0  0  0  0  0
   34.6779    7.0870   32.8033 C   0  0  0  0  0  0  0  0  0  0  0  0
   37.0274    6.2198   32.7679 C   0  0  0  0  0  0  0  0  0  0  0  0
   30.2491   10.0511   31.1072 H   0  0  0  0  0  0  0  0  0  0  0  0
   32.4704    9.8347   30.3255 H   0  0  0  0  0  0  0  0  0  0  0  0
   25.9839    8.1876   31.1709 H   0  0  0  0  0  0  0  0  0  0  0  0
   27.3528   10.1861   29.2630 H   0  0  0  0  0  0  0  0  0  0  0  0
   33.5735    6.9713   29.0165 H   0  0  0  0  0  0  0  0  0  0  0  0
   35.6118    9.0322   30.0114 H   0  0  0  0  0  0  0  0  0  0  0  0
   29.5932   11.7424   29.5922 H   0  0  0  0  0  0  0  0  0  0  0  0
   29.3399   10.6073   28.2617 H   0  0  0  0  0  0  0  0  0  0  0  0
   31.5161   10.9712   27.7014 H   0  0  0  0  0  0  0  0  0  0  0  0
   31.9009   11.7331   29.2384 H   0  0  0  0  0  0  0  0  0  0  0  0
   23.6551    8.3314   31.2678 H   0  0  0  0  0  0  0  0  0  0  0  0
   23.3446    7.6513   29.6854 H   0  0  0  0  0  0  0  0  0  0  0  0
   34.0196    9.9805   28.5693 H   0  0  0  0  0  0  0  0  0  0  0  0
   24.3197   12.1105   28.8140 H   0  0  0  0  0  0  0  0  0  0  0  0
   23.1707   11.2734   27.7686 H   0  0  0  0  0  0  0  0  0  0  0  0
   25.1907   10.4100   26.4975 H   0  0  0  0  0  0  0  0  0  0  0  0
   25.9978    8.9152   27.2344 H   0  0  0  0  0  0  0  0  0  0  0  0
   36.9663    6.9976   30.1567 H   0  0  0  0  0  0  0  0  0  0  0  0
   31.7785    6.7623   30.3614 H   0  0  0  0  0  0  0  0  0  0  0  0
   31.5929    8.0226   31.5722 H   0  0  0  0  0  0  0  0  0  0  0  0
   29.3543    7.5031   28.4412 H   0  0  0  0  0  0  0  0  0  0  0  0
   30.3202    8.5962   27.4661 H   0  0  0  0  0  0  0  0  0  0  0  0
   31.0085    7.0740   28.0524 H   0  0  0  0  0  0  0  0  0  0  0  0
   21.8078    9.2454   29.1178 H   0  0  0  0  0  0  0  0  0  0  0  0
   21.9303   11.6532   29.7421 H   0  0  0  0  0  0  0  0  0  0  0  0
   23.2865   11.3376   30.7952 H   0  0  0  0  0  0  0  0  0  0  0  0
   36.4165    8.1848   32.2406 H   0  0  0  0  0  0  0  0  0  0  0  0
   29.0256    8.4062   32.5233 H   0  0  0  0  0  0  0  0  0  0  0  0
   27.8036    7.3764   31.8043 H   0  0  0  0  0  0  0  0  0  0  0  0
   21.9264    9.7532   31.9103 H   0  0  0  0  0  0  0  0  0  0  0  0
   30.0092    6.2506   32.0335 H   0  0  0  0  0  0  0  0  0  0  0  0
   29.4006    6.2556   30.3891 H   0  0  0  0  0  0  0  0  0  0  0  0
   32.6267    9.6312   26.5144 H   0  0  0  0  0  0  0  0  0  0  0  0
   34.1335    8.7307   26.5523 H   0  0  0  0  0  0  0  0  0  0  0  0
   32.6234    7.8917   26.8469 H   0  0  0  0  0  0  0  0  0  0  0  0
   35.4499    5.3693   29.1033 H   0  0  0  0  0  0  0  0  0  0  0  0
   36.1154    4.7423   30.6028 H   0  0  0  0  0  0  0  0  0  0  0  0
   34.4416    5.3170   30.5580 H   0  0  0  0  0  0  0  0  0  0  0  0
   34.2382    6.0873   32.7340 H   0  0  0  0  0  0  0  0  0  0  0  0
   33.9646    7.8057   32.3889 H   0  0  0  0  0  0  0  0  0  0  0  0
   34.7936    7.3225   33.8672 H   0  0  0  0  0  0  0  0  0  0  0  0
   37.9980    6.2451   32.2617 H   0  0  0  0  0  0  0  0  0  0  0  0
   37.1891    6.5181   33.8095 H   0  0  0  0  0  0  0  0  0  0  0  0
   36.6688    5.1860   32.7753 H   0  0  0  0  0  0  0  0  0  0  0  0
  2  1  1  0
  3  5  2  0
  4  1  1  0
  5  8  1  0
  6  3  1  0
  7  2  1  0
  8  7  2  0
  9 14  1  0
 10  9  2  0
  2 11  1  0
  4 12  1  0
 13  3  1  0
 14  4  1  0
 15  6  1  0
 16  6  2  0
 17 10  1  0
 18  1  1  0
  1 19  1  6
 20 13  1  0
 21 20  1  0
 22 17  1  0
 23  7  1  0
 20 24  1  0
 25 18  1  0
 14 26  1  0
 17 27  1  0
 28 22  1  0
 29 22  1  0
 23 25  1  0
 12 11  1  0
 15 21  1  0
  2 30  1  1
  4 31  1  1
  5 32  1  0
  8 33  1  0
  9 34  1  0
 10 35  1  0
 11 36  1  0
 11 37  1  0
 12 38  1  0
 12 39  1  0
 13 40  1  0
 13 41  1  0
 14 42  1  6
 15 43  1  0
 15 44  1  0
 16 45  1  0
 16 46  1  0
 17 47  1  6
 18 48  1  0
 18 49  1  0
 19 50  1  0
 19 51  1  0
 19 52  1  0
 20 53  1  6
 21 54  1  0
 21 55  1  0
 22 56  1  0
 23 57  1  0
 23 58  1  0
 24 59  1  0
 25 60  1  0
 25 61  1  0
 26 62  1  0
 26 63  1  0
 26 64  1  0
 27 65  1  0
 27 66  1  0
 27 67  1  0
 28 68  1  0
 28 69  1  0
 28 70  1  0
 29 71  1  0
 29 72  1  0
 29 73  1  0
M  END
> <Uni-Dock RESULT> 
ENERGY=   -3.754  LOWER_BOUND=    6.526  UPPER_BOUND=   11.629
INTER + INTRA:          -3.754
INTER:                  -3.754
INTRA:                   0.000
UNBOUND:                 0.000

$$$$
