
     RDKit          3D

 73 75  0  0  1  0  0  0  0  0999 V2000
   30.4520    1.5982   31.5059 C   0  0  1  0  0  0  0  0  0  0  0  0
   28.9457    1.4143   31.1576 C   0  0  2  0  0  0  0  0  0  0  0  0
   25.1061    4.6390   31.4649 C   0  0  0  0  0  0  0  0  0  0  0  0
   30.8223    0.1234   31.8670 C   0  0  2  0  0  0  0  0  0  0  0  0
   26.3504    4.3091   31.0597 C   0  0  0  0  0  0  0  0  0  0  0  0
   24.1835    3.7711   32.1876 C   0  0  0  0  0  0  0  0  0  0  0  0
   28.2634    2.7284   30.8293 C   0  0  0  0  0  0  0  0  0  0  0  0
   27.0393    3.0531   31.2906 C   0  0  0  0  0  0  0  0  0  0  0  0
   33.3553    0.2018   31.6505 C   0  0  0  0  0  0  0  0  0  0  0  0
   34.3126    1.0903   31.9666 C   0  0  0  0  0  0  0  0  0  0  0  0
   28.4170    0.5304   32.2886 C   0  0  0  0  0  0  0  0  0  0  0  0
   29.5878   -0.3926   32.6489 C   0  0  0  0  0  0  0  0  0  0  0  0
   24.5717    6.0465   31.2516 C   0  0  0  0  0  0  0  0  0  0  0  0
   32.1903   -0.2469   32.5134 C   0  0  1  0  0  0  0  0  0  0  0  0
   23.6427    4.3154   33.4891 C   0  0  0  0  0  0  0  0  0  0  0  0
   23.7513    2.6031   31.6853 C   0  0  0  0  0  0  0  0  0  0  0  0
   35.4620    1.4533   31.0479 C   0  0  1  0  0  0  0  0  0  0  0  0
   31.1862    2.1608   30.2621 C   0  0  0  0  0  0  0  0  0  0  0  0
   30.6655    2.5611   32.6961 C   0  0  0  0  0  0  0  0  0  0  0  0
   23.8180    6.6237   32.4678 C   0  0  2  0  0  0  0  0  0  0  0  0
   24.0075    5.7851   33.7319 C   0  0  0  0  0  0  0  0  0  0  0  0
   35.3268    2.9037   30.5053 C   0  0  0  0  0  0  0  0  0  0  0  0
   29.0947    3.6320   29.9329 C   0  0  0  0  0  0  0  0  0  0  0  0
   22.4233    6.7098   32.1595 O   0  0  0  0  0  0  0  0  0  0  0  0
   30.2709    2.9040   29.2741 C   0  0  0  0  0  0  0  0  0  0  0  0
   32.3619    0.0736   34.0056 C   0  0  0  0  0  0  0  0  0  0  0  0
   36.7843    1.1793   31.7728 C   0  0  0  0  0  0  0  0  0  0  0  0
   36.3566    3.1924   29.4070 C   0  0  0  0  0  0  0  0  0  0  0  0
   35.4111    3.9916   31.5817 C   0  0  0  0  0  0  0  0  0  0  0  0
   28.8726    0.8042   30.2419 H   0  0  0  0  0  0  0  0  0  0  0  0
   30.8067   -0.4285   30.9117 H   0  0  0  0  0  0  0  0  0  0  0  0
   26.9243    5.0698   30.5347 H   0  0  0  0  0  0  0  0  0  0  0  0
   26.5098    2.3385   31.9160 H   0  0  0  0  0  0  0  0  0  0  0  0
   33.4024   -0.2796   30.6737 H   0  0  0  0  0  0  0  0  0  0  0  0
   34.2938    1.5882   32.9330 H   0  0  0  0  0  0  0  0  0  0  0  0
   28.1300    1.1202   33.1670 H   0  0  0  0  0  0  0  0  0  0  0  0
   27.5379   -0.0448   31.9785 H   0  0  0  0  0  0  0  0  0  0  0  0
   29.3695   -1.4286   32.3663 H   0  0  0  0  0  0  0  0  0  0  0  0
   29.7208   -0.3780   33.7327 H   0  0  0  0  0  0  0  0  0  0  0  0
   23.9251    6.0494   30.3649 H   0  0  0  0  0  0  0  0  0  0  0  0
   25.4096    6.7202   31.0292 H   0  0  0  0  0  0  0  0  0  0  0  0
   32.2340   -1.3469   32.4764 H   0  0  0  0  0  0  0  0  0  0  0  0
   24.0247    3.7158   34.3243 H   0  0  0  0  0  0  0  0  0  0  0  0
   22.5491    4.2170   33.4957 H   0  0  0  0  0  0  0  0  0  0  0  0
   24.0941    2.2347   30.7223 H   0  0  0  0  0  0  0  0  0  0  0  0
   23.0298    1.9931   32.2192 H   0  0  0  0  0  0  0  0  0  0  0  0
   35.4341    0.7795   30.1797 H   0  0  0  0  0  0  0  0  0  0  0  0
   31.6820    1.3585   29.7031 H   0  0  0  0  0  0  0  0  0  0  0  0
   31.9848    2.8436   30.5751 H   0  0  0  0  0  0  0  0  0  0  0  0
   30.2197    2.1856   33.6222 H   0  0  0  0  0  0  0  0  0  0  0  0
   31.7318    2.7265   32.8791 H   0  0  0  0  0  0  0  0  0  0  0  0
   30.2347    3.5497   32.5123 H   0  0  0  0  0  0  0  0  0  0  0  0
   24.1591    7.6495   32.6486 H   0  0  0  0  0  0  0  0  0  0  0  0
   23.3838    6.1730   34.5461 H   0  0  0  0  0  0  0  0  0  0  0  0
   25.0509    5.8545   34.0642 H   0  0  0  0  0  0  0  0  0  0  0  0
   34.3374    2.9892   30.0360 H   0  0  0  0  0  0  0  0  0  0  0  0
   28.4700    4.0504   29.1345 H   0  0  0  0  0  0  0  0  0  0  0  0
   29.4826    4.4709   30.5231 H   0  0  0  0  0  0  0  0  0  0  0  0
   21.9762    7.1099   32.9246 H   0  0  0  0  0  0  0  0  0  0  0  0
   30.8684    3.6159   28.6917 H   0  0  0  0  0  0  0  0  0  0  0  0
   29.8758    2.1797   28.5485 H   0  0  0  0  0  0  0  0  0  0  0  0
   31.6065   -0.4243   34.6184 H   0  0  0  0  0  0  0  0  0  0  0  0
   32.3258    1.1411   34.2261 H   0  0  0  0  0  0  0  0  0  0  0  0
   33.3309   -0.2958   34.3642 H   0  0  0  0  0  0  0  0  0  0  0  0
   37.6430    1.3652   31.1209 H   0  0  0  0  0  0  0  0  0  0  0  0
   36.8414    0.1306   32.0879 H   0  0  0  0  0  0  0  0  0  0  0  0
   36.8966    1.7963   32.6705 H   0  0  0  0  0  0  0  0  0  0  0  0
   36.3252    2.4229   28.6290 H   0  0  0  0  0  0  0  0  0  0  0  0
   37.3752    3.2380   29.8044 H   0  0  0  0  0  0  0  0  0  0  0  0
   36.1469    4.1550   28.9282 H   0  0  0  0  0  0  0  0  0  0  0  0
   34.6437    3.8592   32.3498 H   0  0  0  0  0  0  0  0  0  0  0  0
   36.3904    4.0044   32.0706 H   0  0  0  0  0  0  0  0  0  0  0  0
   35.2540    4.9810   31.1365 H   0  0  0  0  0  0  0  0  0  0  0  0
  2  1  1  0
  3  5  2  0
  4  1  1  0
  5  8  1  0
  6  3  1  0
  7  2  1  0
  8  7  2  0
  9 14  1  0
 10  9  2  0
  2 11  1  0
  4 12  1  0
 13  3  1  0
 14  4  1  0
 15  6  1  0
 16  6  2  0
 17 10  1  0
 18  1  1  0
  1 19  1  6
 20 13  1  0
 21 20  1  0
 22 17  1  0
 23  7  1  0
 20 24  1  0
 25 18  1  0
 14 26  1  0
 17 27  1  0
 28 22  1  0
 29 22  1  0
 23 25  1  0
 12 11  1  0
 15 21  1  0
  2 30  1  1
  4 31  1  1
  5 32  1  0
  8 33  1  0
  9 34  1  0
 10 35  1  0
 11 36  1  0
 11 37  1  0
 12 38  1  0
 12 39  1  0
 13 40  1  0
 13 41  1  0
 14 42  1  1
 15 43  1  0
 15 44  1  0
 16 45  1  0
 16 46  1  0
 17 47  1  1
 18 48  1  0
 18 49  1  0
 19 50  1  0
 19 51  1  0
 19 52  1  0
 20 53  1  6
 21 54  1  0
 21 55  1  0
 22 56  1  0
 23 57  1  0
 23 58  1  0
 24 59  1  0
 25 60  1  0
 25 61  1  0
 26 62  1  0
 26 63  1  0
 26 64  1  0
 27 65  1  0
 27 66  1  0
 27 67  1  0
 28 68  1  0
 28 69  1  0
 28 70  1  0
 29 71  1  0
 29 72  1  0
 29 73  1  0
M  END
> <Uni-Dock RESULT> 
ENERGY=   -4.432  LOWER_BOUND=    0.000  UPPER_BOUND=    0.000
INTER + INTRA:          -4.432
INTER:                  -4.432
INTRA:                   0.000
UNBOUND:                 0.000

$$$$

     RDKit          3D

 73 75  0  0  1  0  0  0  0  0999 V2000
   28.6965   10.3202   28.0152 C   0  0  1  0  0  0  0  0  0  0  0  0
   30.0207   10.3453   27.1968 C   0  0  2  0  0  0  0  0  0  0  0  0
   34.7343   11.3097   28.6416 C   0  0  0  0  0  0  0  0  0  0  0  0
   27.6803   10.6878   26.8862 C   0  0  2  0  0  0  0  0  0  0  0  0
   33.5638   10.6506   28.7710 C   0  0  0  0  0  0  0  0  0  0  0  0
   35.0564   12.2862   27.6075 C   0  0  0  0  0  0  0  0  0  0  0  0
   31.2403   10.0932   28.0622 C   0  0  0  0  0  0  0  0  0  0  0  0
   32.3805   10.8026   27.9451 C   0  0  0  0  0  0  0  0  0  0  0  0
   25.5025    9.8835   27.9252 C   0  0  0  0  0  0  0  0  0  0  0  0
   24.9688    9.9053   29.1582 C   0  0  0  0  0  0  0  0  0  0  0  0
   29.9117   11.6274   26.3695 C   0  0  0  0  0  0  0  0  0  0  0  0
   28.4170   11.7695   26.0562 C   0  0  0  0  0  0  0  0  0  0  0  0
   35.8409   11.1283   29.6685 C   0  0  0  0  0  0  0  0  0  0  0  0
   26.1910   11.0229   27.1966 C   0  0  1  0  0  0  0  0  0  0  0  0
   35.5288   13.6363   28.0941 C   0  0  0  0  0  0  0  0  0  0  0  0
   35.0399   11.9813   26.2997 C   0  0  0  0  0  0  0  0  0  0  0  0
   24.2682    8.7214   29.7943 C   0  0  1  0  0  0  0  0  0  0  0  0
   28.5081    8.9034   28.6152 C   0  0  0  0  0  0  0  0  0  0  0  0
   28.6954   11.3575   29.1612 C   0  0  0  0  0  0  0  0  0  0  0  0
   36.5319   12.4428   30.0869 C   0  0  2  0  0  0  0  0  0  0  0  0
   35.7796   13.6839   29.6063 C   0  0  0  0  0  0  0  0  0  0  0  0
   25.0983    8.1247   30.9653 C   0  0  0  0  0  0  0  0  0  0  0  0
   31.0461    8.9670   29.0647 C   0  0  0  0  0  0  0  0  0  0  0  0
   37.8634   12.4619   29.5632 O   0  0  0  0  0  0  0  0  0  0  0  0
   29.8147    8.1056   28.7665 C   0  0  0  0  0  0  0  0  0  0  0  0
   25.9015   12.4080   27.7935 C   0  0  0  0  0  0  0  0  0  0  0  0
   22.8459    9.1364   30.1862 C   0  0  0  0  0  0  0  0  0  0  0  0
   24.5056    6.7996   31.4580 C   0  0  0  0  0  0  0  0  0  0  0  0
   25.2855    9.0730   32.1548 C   0  0  0  0  0  0  0  0  0  0  0  0
   29.9956    9.5169   26.4694 H   0  0  0  0  0  0  0  0  0  0  0  0
   27.6359    9.8035   26.2279 H   0  0  0  0  0  0  0  0  0  0  0  0
   33.4702    9.9544   29.6019 H   0  0  0  0  0  0  0  0  0  0  0  0
   32.4357   11.5825   27.1896 H   0  0  0  0  0  0  0  0  0  0  0  0
   25.4360    8.9588   27.3520 H   0  0  0  0  0  0  0  0  0  0  0  0
   25.0190   10.8121   29.7559 H   0  0  0  0  0  0  0  0  0  0  0  0
   30.2549   12.5048   26.9299 H   0  0  0  0  0  0  0  0  0  0  0  0
   30.5069   11.5713   25.4517 H   0  0  0  0  0  0  0  0  0  0  0  0
   28.2259   11.6188   24.9877 H   0  0  0  0  0  0  0  0  0  0  0  0
   28.1073   12.7890   26.2957 H   0  0  0  0  0  0  0  0  0  0  0  0
   36.5784   10.4182   29.2730 H   0  0  0  0  0  0  0  0  0  0  0  0
   35.4210   10.6705   30.5737 H   0  0  0  0  0  0  0  0  0  0  0  0
   25.6955   11.0540   26.2133 H   0  0  0  0  0  0  0  0  0  0  0  0
   34.7844   14.3998   27.8370 H   0  0  0  0  0  0  0  0  0  0  0  0
   36.4576   13.9037   27.5732 H   0  0  0  0  0  0  0  0  0  0  0  0
   34.7558   10.9933   25.9480 H   0  0  0  0  0  0  0  0  0  0  0  0
   35.3265   12.7097   25.5480 H   0  0  0  0  0  0  0  0  0  0  0  0
   24.1675    7.9330   29.0349 H   0  0  0  0  0  0  0  0  0  0  0  0
   27.8317    8.3022   27.9965 H   0  0  0  0  0  0  0  0  0  0  0  0
   28.0293    8.9735   29.5990 H   0  0  0  0  0  0  0  0  0  0  0  0
   28.7643   12.3859   28.7935 H   0  0  0  0  0  0  0  0  0  0  0  0
   27.7845   11.2755   29.7622 H   0  0  0  0  0  0  0  0  0  0  0  0
   29.5281   11.2101   29.8551 H   0  0  0  0  0  0  0  0  0  0  0  0
   36.6281   12.4669   31.1784 H   0  0  0  0  0  0  0  0  0  0  0  0
   36.3486   14.5914   29.8406 H   0  0  0  0  0  0  0  0  0  0  0  0
   34.8213   13.7588   30.1354 H   0  0  0  0  0  0  0  0  0  0  0  0
   26.0990    7.8934   30.5756 H   0  0  0  0  0  0  0  0  0  0  0  0
   31.9230    8.3084   29.0677 H   0  0  0  0  0  0  0  0  0  0  0  0
   30.9473    9.3906   30.0714 H   0  0  0  0  0  0  0  0  0  0  0  0
   38.2896   13.2799   29.8706 H   0  0  0  0  0  0  0  0  0  0  0  0
   29.6900    7.3518   29.5534 H   0  0  0  0  0  0  0  0  0  0  0  0
   29.9928    7.5444   27.8389 H   0  0  0  0  0  0  0  0  0  0  0  0
   26.2509   13.2131   27.1424 H   0  0  0  0  0  0  0  0  0  0  0  0
   26.3431   12.5554   28.7798 H   0  0  0  0  0  0  0  0  0  0  0  0
   24.8195   12.5566   27.9006 H   0  0  0  0  0  0  0  0  0  0  0  0
   22.2803    8.2913   30.5899 H   0  0  0  0  0  0  0  0  0  0  0  0
   22.2958    9.5024   29.3112 H   0  0  0  0  0  0  0  0  0  0  0  0
   22.8423    9.9379   30.9325 H   0  0  0  0  0  0  0  0  0  0  0  0
   24.3511    6.1062   30.6251 H   0  0  0  0  0  0  0  0  0  0  0  0
   23.5474    6.9452   31.9661 H   0  0  0  0  0  0  0  0  0  0  0  0
   25.1847    6.3163   32.1686 H   0  0  0  0  0  0  0  0  0  0  0  0
   25.7713   10.0057   31.8544 H   0  0  0  0  0  0  0  0  0  0  0  0
   24.3317    9.3187   32.6325 H   0  0  0  0  0  0  0  0  0  0  0  0
   25.9232    8.6082   32.9159 H   0  0  0  0  0  0  0  0  0  0  0  0
  2  1  1  0
  3  5  2  0
  4  1  1  0
  5  8  1  0
  6  3  1  0
  7  2  1  0
  8  7  2  0
  9 14  1  0
 10  9  2  0
  2 11  1  0
  4 12  1  0
 13  3  1  0
 14  4  1  0
 15  6  1  0
 16  6  2  0
 17 10  1  0
 18  1  1  0
  1 19  1  6
 20 13  1  0
 21 20  1  0
 22 17  1  0
 23  7  1  0
 20 24  1  0
 25 18  1  0
 14 26  1  0
 17 27  1  0
 28 22  1  0
 29 22  1  0
 23 25  1  0
 12 11  1  0
 15 21  1  0
  2 30  1  1
  4 31  1  1
  5 32  1  0
  8 33  1  0
  9 34  1  0
 10 35  1  0
 11 36  1  0
 11 37  1  0
 12 38  1  0
 12 39  1  0
 13 40  1  0
 13 41  1  0
 14 42  1  1
 15 43  1  0
 15 44  1  0
 16 45  1  0
 16 46  1  0
 17 47  1  1
 18 48  1  0
 18 49  1  0
 19 50  1  0
 19 51  1  0
 19 52  1  0
 20 53  1  6
 21 54  1  0
 21 55  1  0
 22 56  1  0
 23 57  1  0
 23 58  1  0
 24 59  1  0
 25 60  1  0
 25 61  1  0
 26 62  1  0
 26 63  1  0
 26 64  1  0
 27 65  1  0
 27 66  1  0
 27 67  1  0
 28 68  1  0
 28 69  1  0
 28 70  1  0
 29 71  1  0
 29 72  1  0
 29 73  1  0
M  END
> <Uni-Dock RESULT> 
ENERGY=   -3.996  LOWER_BOUND=    7.506  UPPER_BOUND=   12.457
INTER + INTRA:          -3.996
INTER:                  -3.996
INTRA:                   0.000
UNBOUND:                 0.000

$$$$

     RDKit          3D

 73 75  0  0  1  0  0  0  0  0999 V2000
   25.4236   10.4640   29.3751 C   0  0  1  0  0  0  0  0  0  0  0  0
   24.1254   10.0706   30.1393 C   0  0  2  0  0  0  0  0  0  0  0  0
   21.4511    5.8189   30.0593 C   0  0  0  0  0  0  0  0  0  0  0  0
   25.2310   12.0134   29.3058 C   0  0  2  0  0  0  0  0  0  0  0  0
   22.6160    6.4868   30.1937 C   0  0  0  0  0  0  0  0  0  0  0  0
   20.1406    6.4201   29.8404 C   0  0  0  0  0  0  0  0  0  0  0  0
   23.9810    8.5694   30.2993 C   0  0  0  0  0  0  0  0  0  0  0  0
   22.8145    7.9216   30.1084 C   0  0  0  0  0  0  0  0  0  0  0  0
   27.6120   12.7685   28.8265 C   0  0  0  0  0  0  0  0  0  0  0  0
   28.6202   12.3164   28.0619 C   0  0  0  0  0  0  0  0  0  0  0  0
   23.0330   10.8820   29.4405 C   0  0  0  0  0  0  0  0  0  0  0  0
   23.7170   12.1909   29.0263 C   0  0  0  0  0  0  0  0  0  0  0  0
   21.4286    4.2985   30.0502 C   0  0  0  0  0  0  0  0  0  0  0  0
   26.1531   12.9193   28.4366 C   0  0  1  0  0  0  0  0  0  0  0  0
   19.3781    5.9272   28.6328 C   0  0  0  0  0  0  0  0  0  0  0  0
   19.5899    7.2820   30.7107 C   0  0  0  0  0  0  0  0  0  0  0  0
   30.0595   12.2314   28.5290 C   0  0  1  0  0  0  0  0  0  0  0  0
   26.6493   10.0038   30.2049 C   0  0  0  0  0  0  0  0  0  0  0  0
   25.4952    9.8219   27.9709 C   0  0  0  0  0  0  0  0  0  0  0  0
   20.5107    3.6898   28.9697 C   0  0  2  0  0  0  0  0  0  0  0  0
   20.0363    4.7232   27.9479 C   0  0  0  0  0  0  0  0  0  0  0  0
   30.5172   10.7572   28.7123 C   0  0  0  0  0  0  0  0  0  0  0  0
   25.2755    7.8778   30.6952 C   0  0  0  0  0  0  0  0  0  0  0  0
   19.3752    3.0897   29.6006 O   0  0  0  0  0  0  0  0  0  0  0  0
   26.3513    8.8539   31.1824 C   0  0  0  0  0  0  0  0  0  0  0  0
   25.9098   12.9049   26.9203 C   0  0  0  0  0  0  0  0  0  0  0  0
   30.9414   13.0442   27.5748 C   0  0  0  0  0  0  0  0  0  0  0  0
   31.8863   10.6734   29.3967 C   0  0  0  0  0  0  0  0  0  0  0  0
   30.5438    9.9380   27.4171 C   0  0  0  0  0  0  0  0  0  0  0  0
   24.1890   10.4742   31.1635 H   0  0  0  0  0  0  0  0  0  0  0  0
   25.3756   12.3766   30.3376 H   0  0  0  0  0  0  0  0  0  0  0  0
   23.5172    5.8964   30.3457 H   0  0  0  0  0  0  0  0  0  0  0  0
   21.9335    8.4995   29.8398 H   0  0  0  0  0  0  0  0  0  0  0  0
   27.8398   13.0842   29.8445 H   0  0  0  0  0  0  0  0  0  0  0  0
   28.4259   11.9933   27.0420 H   0  0  0  0  0  0  0  0  0  0  0  0
   22.6506   10.3694   28.5502 H   0  0  0  0  0  0  0  0  0  0  0  0
   22.1804   11.0707   30.1016 H   0  0  0  0  0  0  0  0  0  0  0  0
   23.3244   13.0361   29.6030 H   0  0  0  0  0  0  0  0  0  0  0  0
   23.4873   12.3859   27.9767 H   0  0  0  0  0  0  0  0  0  0  0  0
   21.1348    3.9426   31.0459 H   0  0  0  0  0  0  0  0  0  0  0  0
   22.4453    3.9242   29.8723 H   0  0  0  0  0  0  0  0  0  0  0  0
   25.8993   13.9498   28.7315 H   0  0  0  0  0  0  0  0  0  0  0  0
   19.2840    6.7395   27.9019 H   0  0  0  0  0  0  0  0  0  0  0  0
   18.3606    5.6480   28.9369 H   0  0  0  0  0  0  0  0  0  0  0  0
   20.1119    7.5954   31.6106 H   0  0  0  0  0  0  0  0  0  0  0  0
   18.5944    7.6837   30.5518 H   0  0  0  0  0  0  0  0  0  0  0  0
   30.1308   12.7167   29.5129 H   0  0  0  0  0  0  0  0  0  0  0  0
   27.0571   10.8327   30.7952 H   0  0  0  0  0  0  0  0  0  0  0  0
   27.4582    9.6882   29.5354 H   0  0  0  0  0  0  0  0  0  0  0  0
   24.6857   10.1587   27.3160 H   0  0  0  0  0  0  0  0  0  0  0  0
   26.4447   10.0581   27.4807 H   0  0  0  0  0  0  0  0  0  0  0  0
   25.4404    8.7301   28.0107 H   0  0  0  0  0  0  0  0  0  0  0  0
   21.0446    2.8806   28.4585 H   0  0  0  0  0  0  0  0  0  0  0  0
   19.3147    4.2739   27.2554 H   0  0  0  0  0  0  0  0  0  0  0  0
   20.8898    5.0633   27.3480 H   0  0  0  0  0  0  0  0  0  0  0  0
   29.8002   10.2710   29.3877 H   0  0  0  0  0  0  0  0  0  0  0  0
   25.0880    7.1568   31.5000 H   0  0  0  0  0  0  0  0  0  0  0  0
   25.6661    7.3197   29.8358 H   0  0  0  0  0  0  0  0  0  0  0  0
   18.8325    2.6816   28.9047 H   0  0  0  0  0  0  0  0  0  0  0  0
   27.2789    8.3083   31.3938 H   0  0  0  0  0  0  0  0  0  0  0  0
   26.0302    9.2829   32.1417 H   0  0  0  0  0  0  0  0  0  0  0  0
   24.8890   13.2029   26.6688 H   0  0  0  0  0  0  0  0  0  0  0  0
   26.1014   11.9347   26.4602 H   0  0  0  0  0  0  0  0  0  0  0  0
   26.5657   13.6310   26.4236 H   0  0  0  0  0  0  0  0  0  0  0  0
   31.9818   13.0650   27.9127 H   0  0  0  0  0  0  0  0  0  0  0  0
   30.5990   14.0846   27.5249 H   0  0  0  0  0  0  0  0  0  0  0  0
   30.9210   12.6447   26.5553 H   0  0  0  0  0  0  0  0  0  0  0  0
   31.8985   11.2600   30.3209 H   0  0  0  0  0  0  0  0  0  0  0  0
   32.6895   11.0370   28.7484 H   0  0  0  0  0  0  0  0  0  0  0  0
   32.1205    9.6365   29.6605 H   0  0  0  0  0  0  0  0  0  0  0  0
   29.5629    9.9159   26.9337 H   0  0  0  0  0  0  0  0  0  0  0  0
   31.2725   10.3325   26.7018 H   0  0  0  0  0  0  0  0  0  0  0  0
   30.8219    8.8990   27.6292 H   0  0  0  0  0  0  0  0  0  0  0  0
  2  1  1  0
  3  5  2  0
  4  1  1  0
  5  8  1  0
  6  3  1  0
  7  2  1  0
  8  7  2  0
  9 14  1  0
 10  9  2  0
  2 11  1  0
  4 12  1  0
 13  3  1  0
 14  4  1  0
 15  6  1  0
 16  6  2  0
 17 10  1  0
 18  1  1  0
  1 19  1  6
 20 13  1  0
 21 20  1  0
 22 17  1  0
 23  7  1  0
 20 24  1  0
 25 18  1  0
 14 26  1  0
 17 27  1  0
 28 22  1  0
 29 22  1  0
 23 25  1  0
 12 11  1  0
 15 21  1  0
  2 30  1  1
  4 31  1  1
  5 32  1  0
  8 33  1  0
  9 34  1  0
 10 35  1  0
 11 36  1  0
 11 37  1  0
 12 38  1  0
 12 39  1  0
 13 40  1  0
 13 41  1  0
 14 42  1  1
 15 43  1  0
 15 44  1  0
 16 45  1  0
 16 46  1  0
 17 47  1  1
 18 48  1  0
 18 49  1  0
 19 50  1  0
 19 51  1  0
 19 52  1  0
 20 53  1  6
 21 54  1  0
 21 55  1  0
 22 56  1  0
 23 57  1  0
 23 58  1  0
 24 59  1  0
 25 60  1  0
 25 61  1  0
 26 62  1  0
 26 63  1  0
 26 64  1  0
 27 65  1  0
 27 66  1  0
 27 67  1  0
 28 68  1  0
 28 69  1  0
 28 70  1  0
 29 71  1  0
 29 72  1  0
 29 73  1  0
M  END
> <Uni-Dock RESULT> 
ENERGY=   -3.851  LOWER_BOUND=    7.562  UPPER_BOUND=    9.860
INTER + INTRA:          -3.851
INTER:                  -3.851
INTRA:                   0.000
UNBOUND:                 0.000

$$$$

     RDKit          3D

 73 75  0  0  1  0  0  0  0  0999 V2000
   28.0106   10.2261   28.4825 C   0  0  1  0  0  0  0  0  0  0  0  0
   29.2523    9.9522   27.5841 C   0  0  2  0  0  0  0  0  0  0  0  0
   34.1313   10.8239   28.4033 C   0  0  0  0  0  0  0  0  0  0  0  0
   26.9199   10.4091   27.3783 C   0  0  2  0  0  0  0  0  0  0  0  0
   32.9381   10.3122   28.7716 C   0  0  0  0  0  0  0  0  0  0  0  0
   34.4181   11.5070   27.1472 C   0  0  0  0  0  0  0  0  0  0  0  0
   30.5282    9.8038   28.3905 C   0  0  0  0  0  0  0  0  0  0  0  0
   31.6955   10.3695   28.0245 C   0  0  0  0  0  0  0  0  0  0  0  0
   24.8006   10.0494   28.7379 C   0  0  0  0  0  0  0  0  0  0  0  0
   24.3858   10.3976   29.9676 C   0  0  0  0  0  0  0  0  0  0  0  0
   29.1494   11.0151   26.4889 C   0  0  0  0  0  0  0  0  0  0  0  0
   27.6442   11.2063   26.2641 C   0  0  0  0  0  0  0  0  0  0  0  0
   35.3143   10.7905   29.3579 C   0  0  0  0  0  0  0  0  0  0  0  0
   25.4902   10.9298   27.7120 C   0  0  1  0  0  0  0  0  0  0  0  0
   35.0188   12.8883   27.2655 C   0  0  0  0  0  0  0  0  0  0  0  0
   34.2613   10.9131   25.9529 C   0  0  0  0  0  0  0  0  0  0  0  0
   23.6728    9.4538   30.9153 C   0  0  1  0  0  0  0  0  0  0  0  0
   27.7884    9.0054   29.4115 C   0  0  0  0  0  0  0  0  0  0  0  0
   28.1818   11.4947   29.3489 C   0  0  0  0  0  0  0  0  0  0  0  0
   36.1236   12.1034   29.4022 C   0  0  2  0  0  0  0  0  0  0  0  0
   35.4110   13.2598   28.7008 C   0  0  0  0  0  0  0  0  0  0  0  0
   24.5679    9.0739   32.1280 C   0  0  0  0  0  0  0  0  0  0  0  0
   30.3559    8.9575   29.6415 C   0  0  0  0  0  0  0  0  0  0  0  0
   37.3995   11.8905   28.7902 O   0  0  0  0  0  0  0  0  0  0  0  0
   29.0497    8.1569   29.6478 C   0  0  0  0  0  0  0  0  0  0  0  0
   25.3462   12.4341   27.9861 C   0  0  0  0  0  0  0  0  0  0  0  0
   22.3223   10.0651   31.3041 C   0  0  0  0  0  0  0  0  0  0  0  0
   23.9397    7.9513   32.9618 C   0  0  0  0  0  0  0  0  0  0  0  0
   24.9245   10.2503   33.0434 C   0  0  0  0  0  0  0  0  0  0  0  0
   29.1071    8.9843   27.0762 H   0  0  0  0  0  0  0  0  0  0  0  0
   26.7583    9.4044   26.9518 H   0  0  0  0  0  0  0  0  0  0  0  0
   32.8775    9.8353   29.7476 H   0  0  0  0  0  0  0  0  0  0  0  0
   31.7304   10.9482   27.1046 H   0  0  0  0  0  0  0  0  0  0  0  0
   24.6225    9.0268   28.4051 H   0  0  0  0  0  0  0  0  0  0  0  0
   24.5489   11.4098   30.3296 H   0  0  0  0  0  0  0  0  0  0  0  0
   29.5983   11.9657   26.7997 H   0  0  0  0  0  0  0  0  0  0  0  0
   29.6523   10.7007   25.5680 H   0  0  0  0  0  0  0  0  0  0  0  0
   27.3459   10.8315   25.2785 H   0  0  0  0  0  0  0  0  0  0  0  0
   27.4238   12.2758   26.2795 H   0  0  0  0  0  0  0  0  0  0  0  0
   35.9651    9.9496   29.0864 H   0  0  0  0  0  0  0  0  0  0  0  0
   34.9515   10.5891   30.3744 H   0  0  0  0  0  0  0  0  0  0  0  0
   24.9088   10.7762   26.7891 H   0  0  0  0  0  0  0  0  0  0  0  0
   34.3042   13.6321   26.8925 H   0  0  0  0  0  0  0  0  0  0  0  0
   35.9107   12.9506   26.6280 H   0  0  0  0  0  0  0  0  0  0  0  0
   33.8832    9.8982   25.8660 H   0  0  0  0  0  0  0  0  0  0  0  0
   34.5230   11.4234   25.0316 H   0  0  0  0  0  0  0  0  0  0  0  0
   23.4521    8.5237   30.3724 H   0  0  0  0  0  0  0  0  0  0  0  0
   27.0206    8.3371   29.0043 H   0  0  0  0  0  0  0  0  0  0  0  0
   27.4081    9.3388   30.3842 H   0  0  0  0  0  0  0  0  0  0  0  0
   28.2820   12.4021   28.7454 H   0  0  0  0  0  0  0  0  0  0  0  0
   27.3270   11.6292   30.0190 H   0  0  0  0  0  0  0  0  0  0  0  0
   29.0640   11.4410   29.9934 H   0  0  0  0  0  0  0  0  0  0  0  0
   36.3217   12.3687   30.4469 H   0  0  0  0  0  0  0  0  0  0  0  0
   36.0560   14.1460   28.6715 H   0  0  0  0  0  0  0  0  0  0  0  0
   34.5125   13.5339   29.2678 H   0  0  0  0  0  0  0  0  0  0  0  0
   25.5113    8.6766   31.7297 H   0  0  0  0  0  0  0  0  0  0  0  0
   31.1854    8.2462   29.7336 H   0  0  0  0  0  0  0  0  0  0  0  0
   30.3779    9.6072   30.5247 H   0  0  0  0  0  0  0  0  0  0  0  0
   37.9037   12.7185   28.8635 H   0  0  0  0  0  0  0  0  0  0  0  0
   28.9504    7.6166   30.5971 H   0  0  0  0  0  0  0  0  0  0  0  0
   29.1050    7.3852   28.8676 H   0  0  0  0  0  0  0  0  0  0  0  0
   25.6847   13.0364   27.1395 H   0  0  0  0  0  0  0  0  0  0  0  0
   25.8857   12.7660   28.8740 H   0  0  0  0  0  0  0  0  0  0  0  0
   24.2905   12.6933   28.1362 H   0  0  0  0  0  0  0  0  0  0  0  0
   21.7436    9.3854   31.9366 H   0  0  0  0  0  0  0  0  0  0  0  0
   21.7181   10.2657   30.4113 H   0  0  0  0  0  0  0  0  0  0  0  0
   22.4390   11.0137   31.8389 H   0  0  0  0  0  0  0  0  0  0  0  0
   23.6649    7.1009   32.3296 H   0  0  0  0  0  0  0  0  0  0  0  0
   23.0439    8.2890   33.4919 H   0  0  0  0  0  0  0  0  0  0  0  0
   24.6494    7.5885   33.7131 H   0  0  0  0  0  0  0  0  0  0  0  0
   25.4391   11.0455   32.4964 H   0  0  0  0  0  0  0  0  0  0  0  0
   24.0366   10.6779   33.5201 H   0  0  0  0  0  0  0  0  0  0  0  0
   25.5988    9.9205   33.8424 H   0  0  0  0  0  0  0  0  0  0  0  0
  2  1  1  0
  3  5  2  0
  4  1  1  0
  5  8  1  0
  6  3  1  0
  7  2  1  0
  8  7  2  0
  9 14  1  0
 10  9  2  0
  2 11  1  0
  4 12  1  0
 13  3  1  0
 14  4  1  0
 15  6  1  0
 16  6  2  0
 17 10  1  0
 18  1  1  0
  1 19  1  6
 20 13  1  0
 21 20  1  0
 22 17  1  0
 23  7  1  0
 20 24  1  0
 25 18  1  0
 14 26  1  0
 17 27  1  0
 28 22  1  0
 29 22  1  0
 23 25  1  0
 12 11  1  0
 15 21  1  0
  2 30  1  1
  4 31  1  1
  5 32  1  0
  8 33  1  0
  9 34  1  0
 10 35  1  0
 11 36  1  0
 11 37  1  0
 12 38  1  0
 12 39  1  0
 13 40  1  0
 13 41  1  0
 14 42  1  1
 15 43  1  0
 15 44  1  0
 16 45  1  0
 16 46  1  0
 17 47  1  1
 18 48  1  0
 18 49  1  0
 19 50  1  0
 19 51  1  0
 19 52  1  0
 20 53  1  6
 21 54  1  0
 21 55  1  0
 22 56  1  0
 23 57  1  0
 23 58  1  0
 24 59  1  0
 25 60  1  0
 25 61  1  0
 26 62  1  0
 26 63  1  0
 26 64  1  0
 27 65  1  0
 27 66  1  0
 27 67  1  0
 28 68  1  0
 28 69  1  0
 28 70  1  0
 29 71  1  0
 29 72  1  0
 29 73  1  0
M  END
> <Uni-Dock RESULT> 
ENERGY=   -3.789  LOWER_BOUND=    7.429  UPPER_BOUND=   12.392
INTER + INTRA:          -3.789
INTER:                  -3.789
INTRA:                   0.000
UNBOUND:                 0.000

$$$$

     RDKit          3D

 73 75  0  0  1  0  0  0  0  0999 V2000
   29.7103   11.3734   26.9345 C   0  0  1  0  0  0  0  0  0  0  0  0
   28.5899   10.3210   27.1824 C   0  0  2  0  0  0  0  0  0  0  0  0
   23.9405   10.8692   29.0039 C   0  0  0  0  0  0  0  0  0  0  0  0
   30.9698   10.4619   27.0932 C   0  0  2  0  0  0  0  0  0  0  0  0
   24.9279   11.2056   28.1476 C   0  0  0  0  0  0  0  0  0  0  0  0
   23.9994    9.8091   30.0036 C   0  0  0  0  0  0  0  0  0  0  0  0
   27.2043   10.9374   27.1692 C   0  0  0  0  0  0  0  0  0  0  0  0
   26.2530   10.6196   28.0696 C   0  0  0  0  0  0  0  0  0  0  0  0
   32.7327   11.8785   25.9295 C   0  0  0  0  0  0  0  0  0  0  0  0
   33.0202   13.1901   25.8772 C   0  0  0  0  0  0  0  0  0  0  0  0
   29.0812    9.5501   28.4089 C   0  0  0  0  0  0  0  0  0  0  0  0
   30.6090    9.5260   28.2745 C   0  0  0  0  0  0  0  0  0  0  0  0
   22.6464   11.6665   29.0427 C   0  0  0  0  0  0  0  0  0  0  0  0
   32.4097   11.0522   27.1608 C   0  0  1  0  0  0  0  0  0  0  0  0
   23.6946   10.2203   31.4251 C   0  0  0  0  0  0  0  0  0  0  0  0
   24.2063    8.5229   29.6772 C   0  0  0  0  0  0  0  0  0  0  0  0
   33.3643   13.9271   24.5983 C   0  0  1  0  0  0  0  0  0  0  0  0
   29.5246   11.9748   25.5180 C   0  0  0  0  0  0  0  0  0  0  0  0
   29.6825   12.5160   27.9752 C   0  0  0  0  0  0  0  0  0  0  0  0
   22.1369   11.9691   30.4673 C   0  0  2  0  0  0  0  0  0  0  0  0
   23.1768   11.6589   31.5442 C   0  0  0  0  0  0  0  0  0  0  0  0
   32.2354   14.9111   24.1817 C   0  0  0  0  0  0  0  0  0  0  0  0
   27.0009   11.9399   26.0446 C   0  0  0  0  0  0  0  0  0  0  0  0
   20.9531   11.2047   30.7159 O   0  0  0  0  0  0  0  0  0  0  0  0
   28.0911   11.8646   24.9707 C   0  0  0  0  0  0  0  0  0  0  0  0
   32.8262   11.7155   28.4818 C   0  0  0  0  0  0  0  0  0  0  0  0
   34.7387   14.5863   24.7580 C   0  0  0  0  0  0  0  0  0  0  0  0
   32.4769   15.4847   22.7807 C   0  0  0  0  0  0  0  0  0  0  0  0
   32.0016   16.0596   25.1694 C   0  0  0  0  0  0  0  0  0  0  0  0
   28.6019    9.5979   26.3500 H   0  0  0  0  0  0  0  0  0  0  0  0
   30.9774    9.8092   26.2036 H   0  0  0  0  0  0  0  0  0  0  0  0
   24.7369   12.0277   27.4610 H   0  0  0  0  0  0  0  0  0  0  0  0
   26.4819    9.8800   28.8330 H   0  0  0  0  0  0  0  0  0  0  0  0
   32.7383   11.3130   24.9977 H   0  0  0  0  0  0  0  0  0  0  0  0
   33.0225   13.7825   26.7889 H   0  0  0  0  0  0  0  0  0  0  0  0
   28.8023   10.0503   29.3437 H   0  0  0  0  0  0  0  0  0  0  0  0
   28.6690    8.5360   28.4442 H   0  0  0  0  0  0  0  0  0  0  0  0
   30.9671    8.5101   28.0728 H   0  0  0  0  0  0  0  0  0  0  0  0
   31.0463    9.8361   29.2259 H   0  0  0  0  0  0  0  0  0  0  0  0
   21.8810   11.1278   28.4697 H   0  0  0  0  0  0  0  0  0  0  0  0
   22.7994   12.6269   28.5333 H   0  0  0  0  0  0  0  0  0  0  0  0
   33.0785   10.1803   27.0846 H   0  0  0  0  0  0  0  0  0  0  0  0
   24.5990   10.1203   32.0377 H   0  0  0  0  0  0  0  0  0  0  0  0
   22.9437    9.5384   31.8457 H   0  0  0  0  0  0  0  0  0  0  0  0
   24.3691    8.2148   28.6481 H   0  0  0  0  0  0  0  0  0  0  0  0
   24.2018    7.7428   30.4317 H   0  0  0  0  0  0  0  0  0  0  0  0
   33.4625   13.1873   23.7911 H   0  0  0  0  0  0  0  0  0  0  0  0
   30.1859   11.4846   24.7939 H   0  0  0  0  0  0  0  0  0  0  0  0
   29.8147   13.0321   25.5186 H   0  0  0  0  0  0  0  0  0  0  0  0
   29.8700   12.1588   28.9925 H   0  0  0  0  0  0  0  0  0  0  0  0
   30.4344   13.2762   27.7417 H   0  0  0  0  0  0  0  0  0  0  0  0
   28.7215   13.0383   27.9922 H   0  0  0  0  0  0  0  0  0  0  0  0
   21.8433   13.0232   30.5279 H   0  0  0  0  0  0  0  0  0  0  0  0
   22.7466   11.7968   32.5432 H   0  0  0  0  0  0  0  0  0  0  0  0
   24.0162   12.3599   31.4552 H   0  0  0  0  0  0  0  0  0  0  0  0
   31.3008   14.3365   24.1270 H   0  0  0  0  0  0  0  0  0  0  0  0
   26.0353   11.7672   25.5545 H   0  0  0  0  0  0  0  0  0  0  0  0
   26.9834   12.9540   26.4616 H   0  0  0  0  0  0  0  0  0  0  0  0
   20.6309   11.4398   31.6026 H   0  0  0  0  0  0  0  0  0  0  0  0
   27.9281   12.6484   24.2211 H   0  0  0  0  0  0  0  0  0  0  0  0
   27.9925   10.9109   24.4341 H   0  0  0  0  0  0  0  0  0  0  0  0
   32.7559   11.0237   29.3247 H   0  0  0  0  0  0  0  0  0  0  0  0
   32.2409   12.6035   28.7239 H   0  0  0  0  0  0  0  0  0  0  0  0
   33.8775   12.0266   28.4355 H   0  0  0  0  0  0  0  0  0  0  0  0
   35.0570   15.0751   23.8325 H   0  0  0  0  0  0  0  0  0  0  0  0
   35.5001   13.8364   25.0035 H   0  0  0  0  0  0  0  0  0  0  0  0
   34.7460   15.3330   25.5591 H   0  0  0  0  0  0  0  0  0  0  0  0
   32.6578   14.6845   22.0560 H   0  0  0  0  0  0  0  0  0  0  0  0
   33.3328   16.1663   22.7608 H   0  0  0  0  0  0  0  0  0  0  0  0
   31.6007   16.0468   22.4402 H   0  0  0  0  0  0  0  0  0  0  0  0
   31.7567   15.6885   26.1687 H   0  0  0  0  0  0  0  0  0  0  0  0
   32.8771   16.7121   25.2482 H   0  0  0  0  0  0  0  0  0  0  0  0
   31.1593   16.6794   24.8405 H   0  0  0  0  0  0  0  0  0  0  0  0
  2  1  1  0
  3  5  2  0
  4  1  1  0
  5  8  1  0
  6  3  1  0
  7  2  1  0
  8  7  2  0
  9 14  1  0
 10  9  2  0
  2 11  1  0
  4 12  1  0
 13  3  1  0
 14  4  1  0
 15  6  1  0
 16  6  2  0
 17 10  1  0
 18  1  1  0
  1 19  1  6
 20 13  1  0
 21 20  1  0
 22 17  1  0
 23  7  1  0
 20 24  1  0
 25 18  1  0
 14 26  1  0
 17 27  1  0
 28 22  1  0
 29 22  1  0
 23 25  1  0
 12 11  1  0
 15 21  1  0
  2 30  1  1
  4 31  1  1
  5 32  1  0
  8 33  1  0
  9 34  1  0
 10 35  1  0
 11 36  1  0
 11 37  1  0
 12 38  1  0
 12 39  1  0
 13 40  1  0
 13 41  1  0
 14 42  1  1
 15 43  1  0
 15 44  1  0
 16 45  1  0
 16 46  1  0
 17 47  1  1
 18 48  1  0
 18 49  1  0
 19 50  1  0
 19 51  1  0
 19 52  1  0
 20 53  1  6
 21 54  1  0
 21 55  1  0
 22 56  1  0
 23 57  1  0
 23 58  1  0
 24 59  1  0
 25 60  1  0
 25 61  1  0
 26 62  1  0
 26 63  1  0
 26 64  1  0
 27 65  1  0
 27 66  1  0
 27 67  1  0
 28 68  1  0
 28 69  1  0
 28 70  1  0
 29 71  1  0
 29 72  1  0
 29 73  1  0
M  END
> <Uni-Dock RESULT> 
ENERGY=   -3.710  LOWER_BOUND=    8.545  UPPER_BOUND=   10.540
INTER + INTRA:          -3.710
INTER:                  -3.710
INTRA:                   0.000
UNBOUND:                 0.000

$$$$

     RDKit          3D

 73 75  0  0  1  0  0  0  0  0999 V2000
   31.4490    9.5988   28.9206 C   0  0  1  0  0  0  0  0  0  0  0  0
   30.8303    8.3692   28.1930 C   0  0  2  0  0  0  0  0  0  0  0  0
   28.9187    4.1055   30.0375 C   0  0  0  0  0  0  0  0  0  0  0  0
   32.4223   10.1035   27.8069 C   0  0  2  0  0  0  0  0  0  0  0  0
   28.9950    5.4522   29.9951 C   0  0  0  0  0  0  0  0  0  0  0  0
   29.6597    3.1796   29.1888 C   0  0  0  0  0  0  0  0  0  0  0  0
   29.8688    7.5980   29.0766 C   0  0  0  0  0  0  0  0  0  0  0  0
   29.8495    6.2516   29.1371 C   0  0  0  0  0  0  0  0  0  0  0  0
   32.8355   12.4907   28.5813 C   0  0  0  0  0  0  0  0  0  0  0  0
   33.0207   13.0892   29.7701 C   0  0  0  0  0  0  0  0  0  0  0  0
   32.0400    7.6689   27.5715 C   0  0  0  0  0  0  0  0  0  0  0  0
   33.0045    8.8020   27.1996 C   0  0  0  0  0  0  0  0  0  0  0  0
   28.0613    3.4126   31.0847 C   0  0  0  0  0  0  0  0  0  0  0  0
   33.4818   11.2122   28.0803 C   0  0  1  0  0  0  0  0  0  0  0  0
   30.4771    2.1312   29.9067 C   0  0  0  0  0  0  0  0  0  0  0  0
   29.5463    3.1820   27.8506 C   0  0  0  0  0  0  0  0  0  0  0  0
   32.3532   14.3891   30.1722 C   0  0  1  0  0  0  0  0  0  0  0  0
   30.3122   10.5894   29.2800 C   0  0  0  0  0  0  0  0  0  0  0  0
   32.1979    9.2003   30.2127 C   0  0  0  0  0  0  0  0  0  0  0  0
   28.7368    2.1913   31.7424 C   0  0  2  0  0  0  0  0  0  0  0  0
   30.2281    2.0968   31.4196 C   0  0  0  0  0  0  0  0  0  0  0  0
   31.2865   14.1674   31.2809 C   0  0  0  0  0  0  0  0  0  0  0  0
   28.9365    8.4923   29.8779 C   0  0  0  0  0  0  0  0  0  0  0  0
   28.0795    0.9978   31.3049 O   0  0  0  0  0  0  0  0  0  0  0  0
   28.9207    9.9408   29.3789 C   0  0  0  0  0  0  0  0  0  0  0  0
   34.7326   10.7971   28.8689 C   0  0  0  0  0  0  0  0  0  0  0  0
   33.4346   15.4102   30.5424 C   0  0  0  0  0  0  0  0  0  0  0  0
   30.4572   15.4333   31.5258 C   0  0  0  0  0  0  0  0  0  0  0  0
   31.8543   13.6645   32.6128 C   0  0  0  0  0  0  0  0  0  0  0  0
   30.2275    8.7342   27.3449 H   0  0  0  0  0  0  0  0  0  0  0  0
   31.7766   10.5235   27.0169 H   0  0  0  0  0  0  0  0  0  0  0  0
   28.3832    6.0109   30.7003 H   0  0  0  0  0  0  0  0  0  0  0  0
   30.5445    5.6904   28.5172 H   0  0  0  0  0  0  0  0  0  0  0  0
   32.1596   12.9619   27.8677 H   0  0  0  0  0  0  0  0  0  0  0  0
   33.6881   12.6443   30.5041 H   0  0  0  0  0  0  0  0  0  0  0  0
   32.5269    6.9897   28.2809 H   0  0  0  0  0  0  0  0  0  0  0  0
   31.7611    7.0791   26.6917 H   0  0  0  0  0  0  0  0  0  0  0  0
   33.0906    8.9001   26.1115 H   0  0  0  0  0  0  0  0  0  0  0  0
   33.9978    8.5508   27.5775 H   0  0  0  0  0  0  0  0  0  0  0  0
   27.1081    3.1209   30.6258 H   0  0  0  0  0  0  0  0  0  0  0  0
   27.8182    4.1274   31.8818 H   0  0  0  0  0  0  0  0  0  0  0  0
   33.8765   11.4797   27.0873 H   0  0  0  0  0  0  0  0  0  0  0  0
   31.5442    2.3137   29.7301 H   0  0  0  0  0  0  0  0  0  0  0  0
   30.2458    1.1429   29.4879 H   0  0  0  0  0  0  0  0  0  0  0  0
   28.9142    3.8983   27.3332 H   0  0  0  0  0  0  0  0  0  0  0  0
   30.0720    2.4552   27.2397 H   0  0  0  0  0  0  0  0  0  0  0  0
   31.8282   14.7918   29.2943 H   0  0  0  0  0  0  0  0  0  0  0  0
   30.2425   11.3928   28.5373 H   0  0  0  0  0  0  0  0  0  0  0  0
   30.5327   11.0832   30.2336 H   0  0  0  0  0  0  0  0  0  0  0  0
   33.0533    8.5470   30.0149 H   0  0  0  0  0  0  0  0  0  0  0  0
   32.5658   10.0856   30.7406 H   0  0  0  0  0  0  0  0  0  0  0  0
   31.5516    8.6742   30.9213 H   0  0  0  0  0  0  0  0  0  0  0  0
   28.5948    2.2428   32.8279 H   0  0  0  0  0  0  0  0  0  0  0  0
   30.6498    1.1694   31.8249 H   0  0  0  0  0  0  0  0  0  0  0  0
   30.7597    2.9287   31.8983 H   0  0  0  0  0  0  0  0  0  0  0  0
   30.5877   13.4017   30.9176 H   0  0  0  0  0  0  0  0  0  0  0  0
   27.9101    8.1095   29.8279 H   0  0  0  0  0  0  0  0  0  0  0  0
   29.2419    8.4834   30.9311 H   0  0  0  0  0  0  0  0  0  0  0  0
   28.4972    0.2472   31.7602 H   0  0  0  0  0  0  0  0  0  0  0  0
   28.2822   10.5504   30.0298 H   0  0  0  0  0  0  0  0  0  0  0  0
   28.4497    9.9671   28.3866 H   0  0  0  0  0  0  0  0  0  0  0  0
   35.2776    9.9903   28.3728 H   0  0  0  0  0  0  0  0  0  0  0  0
   34.5155   10.4802   29.8897 H   0  0  0  0  0  0  0  0  0  0  0  0
   35.4352   11.6374   28.9361 H   0  0  0  0  0  0  0  0  0  0  0  0
   32.9990   16.3862   30.7760 H   0  0  0  0  0  0  0  0  0  0  0  0
   34.1270   15.5595   29.7054 H   0  0  0  0  0  0  0  0  0  0  0  0
   34.0287   15.0860   31.4034 H   0  0  0  0  0  0  0  0  0  0  0  0
   30.0478   15.8206   30.5872 H   0  0  0  0  0  0  0  0  0  0  0  0
   31.0496   16.2248   31.9949 H   0  0  0  0  0  0  0  0  0  0  0  0
   29.6134   15.2165   32.1896 H   0  0  0  0  0  0  0  0  0  0  0  0
   32.3960   12.7223   32.4902 H   0  0  0  0  0  0  0  0  0  0  0  0
   32.5307   14.3951   33.0678 H   0  0  0  0  0  0  0  0  0  0  0  0
   31.0434   13.4793   33.3269 H   0  0  0  0  0  0  0  0  0  0  0  0
  2  1  1  0
  3  5  2  0
  4  1  1  0
  5  8  1  0
  6  3  1  0
  7  2  1  0
  8  7  2  0
  9 14  1  0
 10  9  2  0
  2 11  1  0
  4 12  1  0
 13  3  1  0
 14  4  1  0
 15  6  1  0
 16  6  2  0
 17 10  1  0
 18  1  1  0
  1 19  1  6
 20 13  1  0
 21 20  1  0
 22 17  1  0
 23  7  1  0
 20 24  1  0
 25 18  1  0
 14 26  1  0
 17 27  1  0
 28 22  1  0
 29 22  1  0
 23 25  1  0
 12 11  1  0
 15 21  1  0
  2 30  1  1
  4 31  1  1
  5 32  1  0
  8 33  1  0
  9 34  1  0
 10 35  1  0
 11 36  1  0
 11 37  1  0
 12 38  1  0
 12 39  1  0
 13 40  1  0
 13 41  1  0
 14 42  1  1
 15 43  1  0
 15 44  1  0
 16 45  1  0
 16 46  1  0
 17 47  1  1
 18 48  1  0
 18 49  1  0
 19 50  1  0
 19 51  1  0
 19 52  1  0
 20 53  1  6
 21 54  1  0
 21 55  1  0
 22 56  1  0
 23 57  1  0
 23 58  1  0
 24 59  1  0
 25 60  1  0
 25 61  1  0
 26 62  1  0
 26 63  1  0
 26 64  1  0
 27 65  1  0
 27 66  1  0
 27 67  1  0
 28 68  1  0
 28 69  1  0
 28 70  1  0
 29 71  1  0
 29 72  1  0
 29 73  1  0
M  END
> <Uni-Dock RESULT> 
ENERGY=   -3.646  LOWER_BOUND=    6.827  UPPER_BOUND=    9.331
INTER + INTRA:          -3.646
INTER:                  -3.646
INTRA:                   0.000
UNBOUND:                 0.000

$$$$

     RDKit          3D

 73 75  0  0  1  0  0  0  0  0999 V2000
   28.6658   11.8316   19.6172 C   0  0  1  0  0  0  0  0  0  0  0  0
   28.0636   10.5896   18.8968 C   0  0  2  0  0  0  0  0  0  0  0  0
   23.2938    9.0891   18.4141 C   0  0  0  0  0  0  0  0  0  0  0  0
   30.0780   11.2688   19.9795 C   0  0  2  0  0  0  0  0  0  0  0  0
   24.2602   10.0257   18.3131 C   0  0  0  0  0  0  0  0  0  0  0  0
   23.4834    7.7066   18.8379 C   0  0  0  0  0  0  0  0  0  0  0  0
   26.6214   10.8055   18.4803 C   0  0  0  0  0  0  0  0  0  0  0  0
   25.6652    9.8692   18.6403 C   0  0  0  0  0  0  0  0  0  0  0  0
   31.3564   13.4266   20.4026 C   0  0  0  0  0  0  0  0  0  0  0  0
   31.0768   14.6007   20.9933 C   0  0  0  0  0  0  0  0  0  0  0  0
   28.4372    9.4225   19.8124 C   0  0  0  0  0  0  0  0  0  0  0  0
   29.8009    9.8038   20.4020 C   0  0  0  0  0  0  0  0  0  0  0  0
   21.8398    9.4473   18.1504 C   0  0  0  0  0  0  0  0  0  0  0  0
   31.0515   12.0344   20.9243 C   0  0  1  0  0  0  0  0  0  0  0  0
   22.6252    7.2431   19.9918 C   0  0  0  0  0  0  0  0  0  0  0  0
   24.2910    6.8572   18.1823 C   0  0  0  0  0  0  0  0  0  0  0  0
   31.4510   15.9482   20.4091 C   0  0  1  0  0  0  0  0  0  0  0  0
   28.6820   13.0234   18.6263 C   0  0  0  0  0  0  0  0  0  0  0  0
   27.8574   12.2305   20.8729 C   0  0  0  0  0  0  0  0  0  0  0  0
   20.8498    8.8480   19.1708 C   0  0  2  0  0  0  0  0  0  0  0  0
   21.5493    8.2586   20.3957 C   0  0  0  0  0  0  0  0  0  0  0  0
   30.1984   16.7330   19.9284 C   0  0  0  0  0  0  0  0  0  0  0  0
   26.3689   12.1737   17.8677 C   0  0  0  0  0  0  0  0  0  0  0  0
   20.0737    7.8300   18.5312 O   0  0  0  0  0  0  0  0  0  0  0  0
   27.6592   12.9050   17.4833 C   0  0  0  0  0  0  0  0  0  0  0  0
   30.7392   11.9880   22.4273 C   0  0  0  0  0  0  0  0  0  0  0  0
   32.3120   16.7087   21.4237 C   0  0  0  0  0  0  0  0  0  0  0  0
   30.5886   17.9865   19.1369 C   0  0  0  0  0  0  0  0  0  0  0  0
   29.2263   17.1196   21.0486 C   0  0  0  0  0  0  0  0  0  0  0  0
   28.6225   10.4260   17.9604 H   0  0  0  0  0  0  0  0  0  0  0  0
   30.6211   11.1922   19.0221 H   0  0  0  0  0  0  0  0  0  0  0  0
   23.9617   11.0202   17.9883 H   0  0  0  0  0  0  0  0  0  0  0  0
   25.9391    8.9112   19.0757 H   0  0  0  0  0  0  0  0  0  0  0  0
   31.8744   13.4434   19.4437 H   0  0  0  0  0  0  0  0  0  0  0  0
   30.5605   14.6181   21.9500 H   0  0  0  0  0  0  0  0  0  0  0  0
   27.7104    9.2907   20.6224 H   0  0  0  0  0  0  0  0  0  0  0  0
   28.4917    8.4761   19.2637 H   0  0  0  0  0  0  0  0  0  0  0  0
   30.5895    9.1461   20.0192 H   0  0  0  0  0  0  0  0  0  0  0  0
   29.7635    9.6617   21.4841 H   0  0  0  0  0  0  0  0  0  0  0  0
   21.5764    9.1330   17.1325 H   0  0  0  0  0  0  0  0  0  0  0  0
   21.7268   10.5390   18.1792 H   0  0  0  0  0  0  0  0  0  0  0  0
   32.0100   11.4981   20.8405 H   0  0  0  0  0  0  0  0  0  0  0  0
   23.2604    7.0389   20.8623 H   0  0  0  0  0  0  0  0  0  0  0  0
   22.1357    6.2981   19.7216 H   0  0  0  0  0  0  0  0  0  0  0  0
   24.8669    7.1716   17.3162 H   0  0  0  0  0  0  0  0  0  0  0  0
   24.3837    5.8198   18.4872 H   0  0  0  0  0  0  0  0  0  0  0  0
   32.0834   15.7765   19.5265 H   0  0  0  0  0  0  0  0  0  0  0  0
   29.6702   13.1372   18.1656 H   0  0  0  0  0  0  0  0  0  0  0  0
   28.4938   13.9604   19.1637 H   0  0  0  0  0  0  0  0  0  0  0  0
   27.8614   11.4482   21.6381 H   0  0  0  0  0  0  0  0  0  0  0  0
   28.2593   13.1434   21.3232 H   0  0  0  0  0  0  0  0  0  0  0  0
   26.8100   12.4451   20.6411 H   0  0  0  0  0  0  0  0  0  0  0  0
   20.1431    9.6245   19.4850 H   0  0  0  0  0  0  0  0  0  0  0  0
   20.8229    7.7610   21.0492 H   0  0  0  0  0  0  0  0  0  0  0  0
   22.0076    9.0666   20.9796 H   0  0  0  0  0  0  0  0  0  0  0  0
   29.6490   16.0834   19.2335 H   0  0  0  0  0  0  0  0  0  0  0  0
   25.7571   12.0755   16.9629 H   0  0  0  0  0  0  0  0  0  0  0  0
   25.8094   12.7922   18.5797 H   0  0  0  0  0  0  0  0  0  0  0  0
   19.4337    7.4946   19.1817 H   0  0  0  0  0  0  0  0  0  0  0  0
   27.4195   13.9067   17.1063 H   0  0  0  0  0  0  0  0  0  0  0  0
   28.1298   12.3734   16.6447 H   0  0  0  0  0  0  0  0  0  0  0  0
   30.7123   10.9634   22.8061 H   0  0  0  0  0  0  0  0  0  0  0  0
   29.7963   12.4697   22.6887 H   0  0  0  0  0  0  0  0  0  0  0  0
   31.5283   12.4975   22.9948 H   0  0  0  0  0  0  0  0  0  0  0  0
   32.6609   17.6621   21.0160 H   0  0  0  0  0  0  0  0  0  0  0  0
   33.2032   16.1265   21.6866 H   0  0  0  0  0  0  0  0  0  0  0  0
   31.7694   16.9122   22.3529 H   0  0  0  0  0  0  0  0  0  0  0  0
   31.2924   17.7400   18.3354 H   0  0  0  0  0  0  0  0  0  0  0  0
   31.0484   18.7462   19.7763 H   0  0  0  0  0  0  0  0  0  0  0  0
   29.7049   18.4379   18.6731 H   0  0  0  0  0  0  0  0  0  0  0  0
   28.8697   16.2413   21.5941 H   0  0  0  0  0  0  0  0  0  0  0  0
   29.6854   17.8083   21.7651 H   0  0  0  0  0  0  0  0  0  0  0  0
   28.3444   17.6200   20.6318 H   0  0  0  0  0  0  0  0  0  0  0  0
  2  1  1  0
  3  5  2  0
  4  1  1  0
  5  8  1  0
  6  3  1  0
  7  2  1  0
  8  7  2  0
  9 14  1  0
 10  9  2  0
  2 11  1  0
  4 12  1  0
 13  3  1  0
 14  4  1  0
 15  6  1  0
 16  6  2  0
 17 10  1  0
 18  1  1  0
  1 19  1  6
 20 13  1  0
 21 20  1  0
 22 17  1  0
 23  7  1  0
 20 24  1  0
 25 18  1  0
 14 26  1  0
 17 27  1  0
 28 22  1  0
 29 22  1  0
 23 25  1  0
 12 11  1  0
 15 21  1  0
  2 30  1  1
  4 31  1  1
  5 32  1  0
  8 33  1  0
  9 34  1  0
 10 35  1  0
 11 36  1  0
 11 37  1  0
 12 38  1  0
 12 39  1  0
 13 40  1  0
 13 41  1  0
 14 42  1  1
 15 43  1  0
 15 44  1  0
 16 45  1  0
 16 46  1  0
 17 47  1  1
 18 48  1  0
 18 49  1  0
 19 50  1  0
 19 51  1  0
 19 52  1  0
 20 53  1  6
 21 54  1  0
 21 55  1  0
 22 56  1  0
 23 57  1  0
 23 58  1  0
 24 59  1  0
 25 60  1  0
 25 61  1  0
 26 62  1  0
 26 63  1  0
 26 64  1  0
 27 65  1  0
 27 66  1  0
 27 67  1  0
 28 68  1  0
 28 69  1  0
 28 70  1  0
 29 71  1  0
 29 72  1  0
 29 73  1  0
M  END
> <Uni-Dock RESULT> 
ENERGY=   -3.620  LOWER_BOUND=   13.761  UPPER_BOUND=   15.849
INTER + INTRA:          -3.620
INTER:                  -3.620
INTRA:                   0.000
UNBOUND:                 0.000

$$$$

     RDKit          3D

 73 75  0  0  1  0  0  0  0  0999 V2000
   28.7406   10.6167   27.9292 C   0  0  1  0  0  0  0  0  0  0  0  0
   27.3004   10.0571   28.1215 C   0  0  2  0  0  0  0  0  0  0  0  0
   22.9919   12.4195   29.1657 C   0  0  0  0  0  0  0  0  0  0  0  0
   29.5710    9.3683   28.3701 C   0  0  2  0  0  0  0  0  0  0  0  0
   24.1150   12.2662   28.4333 C   0  0  0  0  0  0  0  0  0  0  0  0
   22.5693   11.5686   30.2721 C   0  0  0  0  0  0  0  0  0  0  0  0
   26.2333   11.0965   27.8369 C   0  0  0  0  0  0  0  0  0  0  0  0
   25.1459   11.2616   28.6160 C   0  0  0  0  0  0  0  0  0  0  0  0
   31.8297    9.9083   27.3331 C   0  0  0  0  0  0  0  0  0  0  0  0
   32.5685   11.0205   27.1820 C   0  0  0  0  0  0  0  0  0  0  0  0
   27.3597    9.3630   29.4833 C   0  0  0  0  0  0  0  0  0  0  0  0
   28.7842    8.8027   29.5796 C   0  0  0  0  0  0  0  0  0  0  0  0
   22.0688   13.6039   28.9263 C   0  0  0  0  0  0  0  0  0  0  0  0
   31.1121    9.4392   28.5853 C   0  0  1  0  0  0  0  0  0  0  0  0
   22.2894   12.2714   31.5799 C   0  0  0  0  0  0  0  0  0  0  0  0
   22.3370   10.2545   30.1212 C   0  0  0  0  0  0  0  0  0  0  0  0
   33.2787   11.3922   25.8957 C   0  0  1  0  0  0  0  0  0  0  0  0
   28.9242   11.0209   26.4441 C   0  0  0  0  0  0  0  0  0  0  0  0
   29.0164   11.8463   28.8244 C   0  0  0  0  0  0  0  0  0  0  0  0
   21.5599   14.2756   30.2187 C   0  0  2  0  0  0  0  0  0  0  0  0
   22.3077   13.8005   31.4646 C   0  0  0  0  0  0  0  0  0  0  0  0
   32.6213   12.6241   25.2127 C   0  0  0  0  0  0  0  0  0  0  0  0
   26.5137   11.9237   26.5927 C   0  0  0  0  0  0  0  0  0  0  0  0
   20.1631   14.0049   30.3710 O   0  0  0  0  0  0  0  0  0  0  0  0
   27.6079   11.3201   25.7063 C   0  0  0  0  0  0  0  0  0  0  0  0
   31.6022   10.1164   29.8737 C   0  0  0  0  0  0  0  0  0  0  0  0
   34.7741   11.5633   26.1843 C   0  0  0  0  0  0  0  0  0  0  0  0
   33.1904   12.8602   23.8090 C   0  0  0  0  0  0  0  0  0  0  0  0
   32.7132   13.9209   26.0247 C   0  0  0  0  0  0  0  0  0  0  0  0
   27.1381    9.2542   27.3833 H   0  0  0  0  0  0  0  0  0  0  0  0
   29.4353    8.6236   27.5675 H   0  0  0  0  0  0  0  0  0  0  0  0
   24.2988   12.9889   27.6411 H   0  0  0  0  0  0  0  0  0  0  0  0
   25.0190   10.6145   29.4805 H   0  0  0  0  0  0  0  0  0  0  0  0
   31.7275    9.2385   26.4792 H   0  0  0  0  0  0  0  0  0  0  0  0
   32.6896   11.7094   28.0144 H   0  0  0  0  0  0  0  0  0  0  0  0
   27.1844   10.0651   30.3069 H   0  0  0  0  0  0  0  0  0  0  0  0
   26.6125    8.5666   29.5671 H   0  0  0  0  0  0  0  0  0  0  0  0
   28.7762    7.7074   29.5443 H   0  0  0  0  0  0  0  0  0  0  0  0
   29.2053    9.0883   30.5458 H   0  0  0  0  0  0  0  0  0  0  0  0
   21.2236   13.2751   28.3083 H   0  0  0  0  0  0  0  0  0  0  0  0
   22.6037   14.3656   28.3440 H   0  0  0  0  0  0  0  0  0  0  0  0
   31.4313    8.3916   28.7038 H   0  0  0  0  0  0  0  0  0  0  0  0
   23.0327   11.9662   32.3266 H   0  0  0  0  0  0  0  0  0  0  0  0
   21.3070   11.9571   31.9564 H   0  0  0  0  0  0  0  0  0  0  0  0
   22.4821    9.7556   29.1669 H   0  0  0  0  0  0  0  0  0  0  0  0
   21.9797    9.6474   30.9468 H   0  0  0  0  0  0  0  0  0  0  0  0
   33.1880   10.5485   25.1969 H   0  0  0  0  0  0  0  0  0  0  0  0
   29.4371   10.2309   25.8831 H   0  0  0  0  0  0  0  0  0  0  0  0
   29.5696   11.9043   26.3730 H   0  0  0  0  0  0  0  0  0  0  0  0
   28.9615   11.6072   29.8908 H   0  0  0  0  0  0  0  0  0  0  0  0
   30.0088   12.2617   28.6235 H   0  0  0  0  0  0  0  0  0  0  0  0
   28.3074   12.6593   28.6425 H   0  0  0  0  0  0  0  0  0  0  0  0
   21.6557   15.3629   30.1207 H   0  0  0  0  0  0  0  0  0  0  0  0
   21.8566   14.2273   32.3682 H   0  0  0  0  0  0  0  0  0  0  0  0
   23.3459   14.1535   31.4252 H   0  0  0  0  0  0  0  0  0  0  0  0
   31.5541   12.3988   25.0831 H   0  0  0  0  0  0  0  0  0  0  0  0
   25.6042   12.0153   25.9869 H   0  0  0  0  0  0  0  0  0  0  0  0
   26.8161   12.9350   26.8901 H   0  0  0  0  0  0  0  0  0  0  0  0
   19.8582   14.4681   31.1696 H   0  0  0  0  0  0  0  0  0  0  0  0
   27.8104   11.9881   24.8602 H   0  0  0  0  0  0  0  0  0  0  0  0
   27.2311   10.3858   25.2674 H   0  0  0  0  0  0  0  0  0  0  0  0
   31.2062    9.6271   30.7669 H   0  0  0  0  0  0  0  0  0  0  0  0
   31.3497   11.1760   29.9289 H   0  0  0  0  0  0  0  0  0  0  0  0
   32.6944   10.0421   29.9497 H   0  0  0  0  0  0  0  0  0  0  0  0
   35.3367   11.7675   25.2685 H   0  0  0  0  0  0  0  0  0  0  0  0
   35.1904   10.6469   26.6194 H   0  0  0  0  0  0  0  0  0  0  0  0
   34.9659   12.3767   26.8920 H   0  0  0  0  0  0  0  0  0  0  0  0
   33.1469   11.9449   23.2099 H   0  0  0  0  0  0  0  0  0  0  0  0
   34.2301   13.2001   23.8420 H   0  0  0  0  0  0  0  0  0  0  0  0
   32.6103   13.6266   23.2838 H   0  0  0  0  0  0  0  0  0  0  0  0
   32.2533   13.8125   27.0111 H   0  0  0  0  0  0  0  0  0  0  0  0
   33.7508   14.2422   26.1608 H   0  0  0  0  0  0  0  0  0  0  0  0
   32.1839   14.7311   25.5097 H   0  0  0  0  0  0  0  0  0  0  0  0
  2  1  1  0
  3  5  2  0
  4  1  1  0
  5  8  1  0
  6  3  1  0
  7  2  1  0
  8  7  2  0
  9 14  1  0
 10  9  2  0
  2 11  1  0
  4 12  1  0
 13  3  1  0
 14  4  1  0
 15  6  1  0
 16  6  2  0
 17 10  1  0
 18  1  1  0
  1 19  1  6
 20 13  1  0
 21 20  1  0
 22 17  1  0
 23  7  1  0
 20 24  1  0
 25 18  1  0
 14 26  1  0
 17 27  1  0
 28 22  1  0
 29 22  1  0
 23 25  1  0
 12 11  1  0
 15 21  1  0
  2 30  1  1
  4 31  1  1
  5 32  1  0
  8 33  1  0
  9 34  1  0
 10 35  1  0
 11 36  1  0
 11 37  1  0
 12 38  1  0
 12 39  1  0
 13 40  1  0
 13 41  1  0
 14 42  1  1
 15 43  1  0
 15 44  1  0
 16 45  1  0
 16 46  1  0
 17 47  1  1
 18 48  1  0
 18 49  1  0
 19 50  1  0
 19 51  1  0
 19 52  1  0
 20 53  1  6
 21 54  1  0
 21 55  1  0
 22 56  1  0
 23 57  1  0
 23 58  1  0
 24 59  1  0
 25 60  1  0
 25 61  1  0
 26 62  1  0
 26 63  1  0
 26 64  1  0
 27 65  1  0
 27 66  1  0
 27 67  1  0
 28 68  1  0
 28 69  1  0
 28 70  1  0
 29 71  1  0
 29 72  1  0
 29 73  1  0
M  END
> <Uni-Dock RESULT> 
ENERGY=   -3.563  LOWER_BOUND=    7.794  UPPER_BOUND=    9.763
INTER + INTRA:          -3.563
INTER:                  -3.563
INTRA:                   0.000
UNBOUND:                 0.000

$$$$

     RDKit          3D

 73 75  0  0  1  0  0  0  0  0999 V2000
   27.4862   12.1490   26.9545 C   0  0  1  0  0  0  0  0  0  0  0  0
   28.5322   12.5222   25.8634 C   0  0  2  0  0  0  0  0  0  0  0  0
   28.5666   11.6062   20.9242 C   0  0  0  0  0  0  0  0  0  0  0  0
   28.4223   12.0720   28.2036 C   0  0  2  0  0  0  0  0  0  0  0  0
   27.9688   12.0690   22.0421 C   0  0  0  0  0  0  0  0  0  0  0  0
   29.9149   11.0570   20.8399 C   0  0  0  0  0  0  0  0  0  0  0  0
   27.9208   12.5965   24.4775 C   0  0  0  0  0  0  0  0  0  0  0  0
   28.5179   12.0795   23.3852 C   0  0  0  0  0  0  0  0  0  0  0  0
   26.7233   12.2759   30.0854 C   0  0  0  0  0  0  0  0  0  0  0  0
   25.4864   11.8009   30.3092 C   0  0  0  0  0  0  0  0  0  0  0  0
   29.7012   11.5760   26.1427 C   0  0  0  0  0  0  0  0  0  0  0  0
   29.7101   11.3980   27.6661 C   0  0  0  0  0  0  0  0  0  0  0  0
   27.8070   11.5504   19.6082 C   0  0  0  0  0  0  0  0  0  0  0  0
   27.9275   11.5098   29.5694 C   0  0  1  0  0  0  0  0  0  0  0  0
   30.0320    9.6752   20.2402 C   0  0  0  0  0  0  0  0  0  0  0  0
   31.0040   11.7686   21.1733 C   0  0  0  0  0  0  0  0  0  0  0  0
   24.3491   12.6379   30.8598 C   0  0  1  0  0  0  0  0  0  0  0  0
   26.4144   13.2669   27.0206 C   0  0  0  0  0  0  0  0  0  0  0  0
   26.7904   10.7999   26.6632 C   0  0  0  0  0  0  0  0  0  0  0  0
   28.0219   10.2457   18.8132 C   0  0  2  0  0  0  0  0  0  0  0  0
   28.7196    9.1618   19.6352 C   0  0  0  0  0  0  0  0  0  0  0  0
   23.2562   12.8983   29.7856 C   0  0  0  0  0  0  0  0  0  0  0  0
   26.5784   13.3093   24.4479 C   0  0  0  0  0  0  0  0  0  0  0  0
   28.7979   10.5290   17.6448 O   0  0  0  0  0  0  0  0  0  0  0  0
   26.2897   14.0958   25.7307 C   0  0  0  0  0  0  0  0  0  0  0  0
   27.7894    9.9844   29.6826 C   0  0  0  0  0  0  0  0  0  0  0  0
   23.8215   11.9804   32.1398 C   0  0  0  0  0  0  0  0  0  0  0  0
   22.2255   13.9253   30.2683 C   0  0  0  0  0  0  0  0  0  0  0  0
   22.5313   11.6371   29.3027 C   0  0  0  0  0  0  0  0  0  0  0  0
   28.9103   13.5359   26.0765 H   0  0  0  0  0  0  0  0  0  0  0  0
   28.7141   13.1138   28.4201 H   0  0  0  0  0  0  0  0  0  0  0  0
   26.9516   12.4434   21.9478 H   0  0  0  0  0  0  0  0  0  0  0  0
   29.4863   11.5981   23.4973 H   0  0  0  0  0  0  0  0  0  0  0  0
   26.9187   13.3258   30.3037 H   0  0  0  0  0  0  0  0  0  0  0  0
   25.2590   10.7582   30.1012 H   0  0  0  0  0  0  0  0  0  0  0  0
   29.5618   10.6018   25.6596 H   0  0  0  0  0  0  0  0  0  0  0  0
   30.6515   11.9863   25.7847 H   0  0  0  0  0  0  0  0  0  0  0  0
   30.5946   11.8694   28.1092 H   0  0  0  0  0  0  0  0  0  0  0  0
   29.7701   10.3310   27.8909 H   0  0  0  0  0  0  0  0  0  0  0  0
   28.0881   12.4193   18.9996 H   0  0  0  0  0  0  0  0  0  0  0  0
   26.7316   11.6443   19.8086 H   0  0  0  0  0  0  0  0  0  0  0  0
   28.7295   11.7527   30.2844 H   0  0  0  0  0  0  0  0  0  0  0  0
   30.3645    8.9683   21.0101 H   0  0  0  0  0  0  0  0  0  0  0  0
   30.8020    9.6847   19.4575 H   0  0  0  0  0  0  0  0  0  0  0  0
   30.9277   12.7844   21.5514 H   0  0  0  0  0  0  0  0  0  0  0  0
   32.0018   11.3570   21.0608 H   0  0  0  0  0  0  0  0  0  0  0  0
   24.7538   13.6170   31.1533 H   0  0  0  0  0  0  0  0  0  0  0  0
   26.6283   13.9677   27.8361 H   0  0  0  0  0  0  0  0  0  0  0  0
   25.4339   12.8332   27.2497 H   0  0  0  0  0  0  0  0  0  0  0  0
   27.4915    9.9596   26.6649 H   0  0  0  0  0  0  0  0  0  0  0  0
   26.0141   10.5916   27.4059 H   0  0  0  0  0  0  0  0  0  0  0  0
   26.2872   10.7938   25.6919 H   0  0  0  0  0  0  0  0  0  0  0  0
   27.0527    9.8764   18.4591 H   0  0  0  0  0  0  0  0  0  0  0  0
   28.9380    8.2879   19.0101 H   0  0  0  0  0  0  0  0  0  0  0  0
   28.0521    8.8249   20.4382 H   0  0  0  0  0  0  0  0  0  0  0  0
   23.7522   13.3409   28.9112 H   0  0  0  0  0  0  0  0  0  0  0  0
   26.5430   14.0135   23.6080 H   0  0  0  0  0  0  0  0  0  0  0  0
   25.7801   12.5730   24.2961 H   0  0  0  0  0  0  0  0  0  0  0  0
   28.8879    9.7015   17.1426 H   0  0  0  0  0  0  0  0  0  0  0  0
   25.2863   14.5356   25.6781 H   0  0  0  0  0  0  0  0  0  0  0  0
   26.9862   14.9435   25.7893 H   0  0  0  0  0  0  0  0  0  0  0  0
   28.7350    9.4741   29.4836 H   0  0  0  0  0  0  0  0  0  0  0  0
   27.0337    9.5674   29.0160 H   0  0  0  0  0  0  0  0  0  0  0  0
   27.5060    9.7037   30.7049 H   0  0  0  0  0  0  0  0  0  0  0  0
   23.0416   12.5878   32.6084 H   0  0  0  0  0  0  0  0  0  0  0  0
   24.6265   11.8678   32.8757 H   0  0  0  0  0  0  0  0  0  0  0  0
   23.4107   10.9830   31.9505 H   0  0  0  0  0  0  0  0  0  0  0  0
   22.7179   14.8339   30.6297 H   0  0  0  0  0  0  0  0  0  0  0  0
   21.6012   13.5288   31.0749 H   0  0  0  0  0  0  0  0  0  0  0  0
   21.5593   14.2146   29.4484 H   0  0  0  0  0  0  0  0  0  0  0  0
   23.2293   10.9057   28.8853 H   0  0  0  0  0  0  0  0  0  0  0  0
   21.9699   11.1568   30.1105 H   0  0  0  0  0  0  0  0  0  0  0  0
   21.8162   11.8884   28.5108 H   0  0  0  0  0  0  0  0  0  0  0  0
  2  1  1  0
  3  5  2  0
  4  1  1  0
  5  8  1  0
  6  3  1  0
  7  2  1  0
  8  7  2  0
  9 14  1  0
 10  9  2  0
  2 11  1  0
  4 12  1  0
 13  3  1  0
 14  4  1  0
 15  6  1  0
 16  6  2  0
 17 10  1  0
 18  1  1  0
  1 19  1  6
 20 13  1  0
 21 20  1  0
 22 17  1  0
 23  7  1  0
 20 24  1  0
 25 18  1  0
 14 26  1  0
 17 27  1  0
 28 22  1  0
 29 22  1  0
 23 25  1  0
 12 11  1  0
 15 21  1  0
  2 30  1  1
  4 31  1  1
  5 32  1  0
  8 33  1  0
  9 34  1  0
 10 35  1  0
 11 36  1  0
 11 37  1  0
 12 38  1  0
 12 39  1  0
 13 40  1  0
 13 41  1  0
 14 42  1  1
 15 43  1  0
 15 44  1  0
 16 45  1  0
 16 46  1  0
 17 47  1  1
 18 48  1  0
 18 49  1  0
 19 50  1  0
 19 51  1  0
 19 52  1  0
 20 53  1  6
 21 54  1  0
 21 55  1  0
 22 56  1  0
 23 57  1  0
 23 58  1  0
 24 59  1  0
 25 60  1  0
 25 61  1  0
 26 62  1  0
 26 63  1  0
 26 64  1  0
 27 65  1  0
 27 66  1  0
 27 67  1  0
 28 68  1  0
 28 69  1  0
 28 70  1  0
 29 71  1  0
 29 72  1  0
 29 73  1  0
M  END
> <Uni-Dock RESULT> 
ENERGY=   -3.506  LOWER_BOUND=    9.619  UPPER_BOUND=   13.838
INTER + INTRA:          -3.506
INTER:                  -3.506
INTRA:                   0.000
UNBOUND:                 0.000

$$$$
