
     RDKit          3D

 73 75  0  0  1  0  0  0  0  0999 V2000
   31.4318    3.6649   31.0939 C   0  0  1  0  0  0  0  0  0  0  0  0
   30.4683    2.5442   30.6066 C   0  0  2  0  0  0  0  0  0  0  0  0
   25.9056    1.6166   32.4818 C   0  0  0  0  0  0  0  0  0  0  0  0
   32.8039    3.0067   30.7475 C   0  0  2  0  0  0  0  0  0  0  0  0
   26.7637    2.4160   31.8152 C   0  0  0  0  0  0  0  0  0  0  0  0
   26.2020    0.2951   33.0322 C   0  0  0  0  0  0  0  0  0  0  0  0
   29.0100    2.9043   30.8186 C   0  0  0  0  0  0  0  0  0  0  0  0
   28.1652    2.1522   31.5512 C   0  0  0  0  0  0  0  0  0  0  0  0
   35.3029    2.7371   30.9607 C   0  0  0  0  0  0  0  0  0  0  0  0
   36.1622    2.9836   29.9564 C   0  0  0  0  0  0  0  0  0  0  0  0
   31.0754    1.2739   31.1973 C   0  0  0  0  0  0  0  0  0  0  0  0
   32.5885    1.5111   31.1249 C   0  0  0  0  0  0  0  0  0  0  0  0
   24.4890    2.0650   32.7769 C   0  0  0  0  0  0  0  0  0  0  0  0
   34.1054    3.5878   31.3660 C   0  0  1  0  0  0  0  0  0  0  0  0
   25.8920    0.1398   34.5026 C   0  0  0  0  0  0  0  0  0  0  0  0
   26.6371   -0.7249   32.2763 C   0  0  0  0  0  0  0  0  0  0  0  0
   37.3568    2.1440   29.5391 C   0  0  1  0  0  0  0  0  0  0  0  0
   31.0973    4.9424   30.2917 C   0  0  0  0  0  0  0  0  0  0  0  0
   31.3059    3.9427   32.6119 C   0  0  0  0  0  0  0  0  0  0  0  0
   24.1724    1.9753   34.2768 C   0  0  2  0  0  0  0  0  0  0  0  0
   24.4607    0.5735   34.8179 C   0  0  0  0  0  0  0  0  0  0  0  0
   38.7164    2.8713   29.7589 C   0  0  0  0  0  0  0  0  0  0  0  0
   28.6564    4.1829   30.0788 C   0  0  0  0  0  0  0  0  0  0  0  0
   22.7975    2.2764   34.5098 O   0  0  0  0  0  0  0  0  0  0  0  0
   29.6152    5.3333   30.4106 C   0  0  0  0  0  0  0  0  0  0  0  0
   34.3187    5.0723   31.0503 C   0  0  0  0  0  0  0  0  0  0  0  0
   37.3849    0.7327   30.1459 C   0  0  0  0  0  0  0  0  0  0  0  0
   38.9905    3.2335   31.2228 C   0  0  0  0  0  0  0  0  0  0  0  0
   38.8446    4.1271   28.8875 C   0  0  0  0  0  0  0  0  0  0  0  0
   30.5819    2.4405   29.5138 H   0  0  0  0  0  0  0  0  0  0  0  0
   32.9199    3.0426   29.6527 H   0  0  0  0  0  0  0  0  0  0  0  0
   26.3819    3.3710   31.4657 H   0  0  0  0  0  0  0  0  0  0  0  0
   28.5527    1.2499   32.0174 H   0  0  0  0  0  0  0  0  0  0  0  0
   35.4456    1.8502   31.5753 H   0  0  0  0  0  0  0  0  0  0  0  0
   35.9998    3.8649   29.3382 H   0  0  0  0  0  0  0  0  0  0  0  0
   30.7814    0.3806   30.6363 H   0  0  0  0  0  0  0  0  0  0  0  0
   30.7811    1.1186   32.2412 H   0  0  0  0  0  0  0  0  0  0  0  0
   33.0457    0.8604   30.3705 H   0  0  0  0  0  0  0  0  0  0  0  0
   33.0402    1.2607   32.0918 H   0  0  0  0  0  0  0  0  0  0  0  0
   23.7818    1.4448   32.2092 H   0  0  0  0  0  0  0  0  0  0  0  0
   24.3090    3.0925   32.4360 H   0  0  0  0  0  0  0  0  0  0  0  0
   34.0452    3.5105   32.4600 H   0  0  0  0  0  0  0  0  0  0  0  0
   26.5981    0.7492   35.0817 H   0  0  0  0  0  0  0  0  0  0  0  0
   26.0320   -0.8974   34.8300 H   0  0  0  0  0  0  0  0  0  0  0  0
   26.8132   -0.6088   31.2108 H   0  0  0  0  0  0  0  0  0  0  0  0
   26.8199   -1.7068   32.7005 H   0  0  0  0  0  0  0  0  0  0  0  0
   37.2455    1.9915   28.4557 H   0  0  0  0  0  0  0  0  0  0  0  0
   31.3335    4.7870   29.2309 H   0  0  0  0  0  0  0  0  0  0  0  0
   31.7011    5.7917   30.6222 H   0  0  0  0  0  0  0  0  0  0  0  0
   30.2781    4.1708   32.9097 H   0  0  0  0  0  0  0  0  0  0  0  0
   31.9201    4.7994   32.9071 H   0  0  0  0  0  0  0  0  0  0  0  0
   31.6300    3.0914   33.2190 H   0  0  0  0  0  0  0  0  0  0  0  0
   24.7712    2.7088   34.8310 H   0  0  0  0  0  0  0  0  0  0  0  0
   23.7466   -0.1424   34.3889 H   0  0  0  0  0  0  0  0  0  0  0  0
   24.2893    0.5505   35.9008 H   0  0  0  0  0  0  0  0  0  0  0  0
   39.5126    2.1856   29.4379 H   0  0  0  0  0  0  0  0  0  0  0  0
   28.7064    3.9785   29.0012 H   0  0  0  0  0  0  0  0  0  0  0  0
   27.6360    4.5212   30.2745 H   0  0  0  0  0  0  0  0  0  0  0  0
   22.6411    3.1856   34.2018 H   0  0  0  0  0  0  0  0  0  0  0  0
   29.4096    5.6968   31.4246 H   0  0  0  0  0  0  0  0  0  0  0  0
   29.4126    6.1750   29.7376 H   0  0  0  0  0  0  0  0  0  0  0  0
   35.3264    5.3986   31.3330 H   0  0  0  0  0  0  0  0  0  0  0  0
   34.1774    5.2859   29.9855 H   0  0  0  0  0  0  0  0  0  0  0  0
   33.6271    5.6984   31.6194 H   0  0  0  0  0  0  0  0  0  0  0  0
   38.2238    0.1568   29.7400 H   0  0  0  0  0  0  0  0  0  0  0  0
   37.4884    0.7475   31.2352 H   0  0  0  0  0  0  0  0  0  0  0  0
   36.4669    0.1859   29.9023 H   0  0  0  0  0  0  0  0  0  0  0  0
   39.9778    3.6980   31.3227 H   0  0  0  0  0  0  0  0  0  0  0  0
   38.9845    2.3471   31.8634 H   0  0  0  0  0  0  0  0  0  0  0  0
   38.2524    3.9425   31.6115 H   0  0  0  0  0  0  0  0  0  0  0  0
   38.6503    3.8936   27.8354 H   0  0  0  0  0  0  0  0  0  0  0  0
   39.8587    4.5368   28.9535 H   0  0  0  0  0  0  0  0  0  0  0  0
   38.1505    4.9143   29.1991 H   0  0  0  0  0  0  0  0  0  0  0  0
  2  1  1  0
  3  5  2  0
  4  1  1  0
  5  8  1  0
  6  3  1  0
  7  2  1  0
  8  7  2  0
  9 14  1  0
 10  9  2  0
  2 11  1  0
  4 12  1  0
 13  3  1  0
 14  4  1  0
 15  6  1  0
 16  6  2  0
 17 10  1  0
 18  1  1  0
  1 19  1  6
 20 13  1  0
 21 20  1  0
 22 17  1  0
 23  7  1  0
 20 24  1  0
 25 18  1  0
 14 26  1  0
 17 27  1  0
 28 22  1  0
 29 22  1  0
 23 25  1  0
 12 11  1  0
 15 21  1  0
  2 30  1  1
  4 31  1  1
  5 32  1  0
  8 33  1  0
  9 34  1  0
 10 35  1  0
 11 36  1  0
 11 37  1  0
 12 38  1  0
 12 39  1  0
 13 40  1  0
 13 41  1  0
 14 42  1  6
 15 43  1  0
 15 44  1  0
 16 45  1  0
 16 46  1  0
 17 47  1  1
 18 48  1  0
 18 49  1  0
 19 50  1  0
 19 51  1  0
 19 52  1  0
 20 53  1  6
 21 54  1  0
 21 55  1  0
 22 56  1  0
 23 57  1  0
 23 58  1  0
 24 59  1  0
 25 60  1  0
 25 61  1  0
 26 62  1  0
 26 63  1  0
 26 64  1  0
 27 65  1  0
 27 66  1  0
 27 67  1  0
 28 68  1  0
 28 69  1  0
 28 70  1  0
 29 71  1  0
 29 72  1  0
 29 73  1  0
M  END
> <Uni-Dock RESULT> 
ENERGY=   -4.506  LOWER_BOUND=    0.000  UPPER_BOUND=    0.000
INTER + INTRA:          -4.506
INTER:                  -4.506
INTRA:                   0.000
UNBOUND:                 0.000

$$$$

     RDKit          3D

 73 75  0  0  1  0  0  0  0  0999 V2000
   21.9298    7.9981   30.7956 C   0  0  1  0  0  0  0  0  0  0  0  0
   22.9855    7.1276   30.0542 C   0  0  2  0  0  0  0  0  0  0  0  0
   25.0704    2.9304   31.8519 C   0  0  0  0  0  0  0  0  0  0  0  0
   22.2523    9.3939   30.1763 C   0  0  2  0  0  0  0  0  0  0  0  0
   23.9957    3.6127   31.4058 C   0  0  0  0  0  0  0  0  0  0  0  0
   26.4379    3.4373   31.9532 C   0  0  0  0  0  0  0  0  0  0  0  0
   22.9178    5.6676   30.4606 C   0  0  0  0  0  0  0  0  0  0  0  0
   23.9652    4.9997   30.9830 C   0  0  0  0  0  0  0  0  0  0  0  0
   22.2087   11.9157   30.1335 C   0  0  0  0  0  0  0  0  0  0  0  0
   21.5574   12.6289   29.1980 C   0  0  0  0  0  0  0  0  0  0  0  0
   24.2715    7.9395   30.1890 C   0  0  0  0  0  0  0  0  0  0  0  0
   23.8076    9.3977   30.0937 C   0  0  0  0  0  0  0  0  0  0  0  0
   24.9375    1.5099   32.3615 C   0  0  0  0  0  0  0  0  0  0  0  0
   21.6963   10.6758   30.8559 C   0  0  1  0  0  0  0  0  0  0  0  0
   27.0601    3.3050   33.3234 C   0  0  0  0  0  0  0  0  0  0  0  0
   27.1177    3.9074   30.8959 C   0  0  0  0  0  0  0  0  0  0  0  0
   22.0562   13.8634   28.4678 C   0  0  1  0  0  0  0  0  0  0  0  0
   20.5357    7.4322   30.4442 C   0  0  0  0  0  0  0  0  0  0  0  0
   22.1301    8.0016   32.3309 C   0  0  0  0  0  0  0  0  0  0  0  0
   25.5075    1.3666   33.7801 C   0  0  2  0  0  0  0  0  0  0  0  0
   26.9493    1.8740   33.8486 C   0  0  0  0  0  0  0  0  0  0  0  0
   21.2369   15.1431   28.8092 C   0  0  0  0  0  0  0  0  0  0  0  0
   21.5437    5.0893   30.1701 C   0  0  0  0  0  0  0  0  0  0  0  0
   25.4897   -0.0018   34.1831 O   0  0  0  0  0  0  0  0  0  0  0  0
   20.4151    5.9353   30.7731 C   0  0  0  0  0  0  0  0  0  0  0  0
   20.1700   10.6777   30.9940 C   0  0  0  0  0  0  0  0  0  0  0  0
   23.5638   14.1220   28.6128 C   0  0  0  0  0  0  0  0  0  0  0  0
   21.2838   15.5258   30.2927 C   0  0  0  0  0  0  0  0  0  0  0  0
   19.7761   15.0293   28.3552 C   0  0  0  0  0  0  0  0  0  0  0  0
   22.7470    7.1364   28.9768 H   0  0  0  0  0  0  0  0  0  0  0  0
   21.8809    9.3885   29.1393 H   0  0  0  0  0  0  0  0  0  0  0  0
   23.0458    3.0861   31.3895 H   0  0  0  0  0  0  0  0  0  0  0  0
   24.8987    5.5382   31.1259 H   0  0  0  0  0  0  0  0  0  0  0  0
   23.2064   12.2263   30.4381 H   0  0  0  0  0  0  0  0  0  0  0  0
   20.5669   12.2991   28.8896 H   0  0  0  0  0  0  0  0  0  0  0  0
   24.9939    7.6953   29.4032 H   0  0  0  0  0  0  0  0  0  0  0  0
   24.7666    7.7777   31.1529 H   0  0  0  0  0  0  0  0  0  0  0  0
   24.1356    9.8462   29.1487 H   0  0  0  0  0  0  0  0  0  0  0  0
   24.2622    9.9756   30.9066 H   0  0  0  0  0  0  0  0  0  0  0  0
   25.4597    0.8249   31.6794 H   0  0  0  0  0  0  0  0  0  0  0  0
   23.8925    1.1749   32.3622 H   0  0  0  0  0  0  0  0  0  0  0  0
   22.0986   10.7411   31.8759 H   0  0  0  0  0  0  0  0  0  0  0  0
   26.5518    3.9915   34.0132 H   0  0  0  0  0  0  0  0  0  0  0  0
   28.1162    3.6004   33.3096 H   0  0  0  0  0  0  0  0  0  0  0  0
   26.6703    3.9549   29.9072 H   0  0  0  0  0  0  0  0  0  0  0  0
   28.1436    4.2487   30.9880 H   0  0  0  0  0  0  0  0  0  0  0  0
   21.8991   13.6569   27.3990 H   0  0  0  0  0  0  0  0  0  0  0  0
   20.3377    7.5716   29.3734 H   0  0  0  0  0  0  0  0  0  0  0  0
   19.7426    7.9630   30.9773 H   0  0  0  0  0  0  0  0  0  0  0  0
   22.1502    6.9912   32.7505 H   0  0  0  0  0  0  0  0  0  0  0  0
   21.3182    8.5380   32.8321 H   0  0  0  0  0  0  0  0  0  0  0  0
   23.0658    8.4862   32.6274 H   0  0  0  0  0  0  0  0  0  0  0  0
   24.8901    1.9298   34.4910 H   0  0  0  0  0  0  0  0  0  0  0  0
   27.6034    1.2081   33.2697 H   0  0  0  0  0  0  0  0  0  0  0  0
   27.3130    1.8220   34.8819 H   0  0  0  0  0  0  0  0  0  0  0  0
   21.6760   15.9763   28.2433 H   0  0  0  0  0  0  0  0  0  0  0  0
   21.4140    5.0488   29.0806 H   0  0  0  0  0  0  0  0  0  0  0  0
   21.4286    4.0625   30.5257 H   0  0  0  0  0  0  0  0  0  0  0  0
   24.5627   -0.2962   34.1775 H   0  0  0  0  0  0  0  0  0  0  0  0
   20.3982    5.7965   31.8608 H   0  0  0  0  0  0  0  0  0  0  0  0
   19.4517    5.5646   30.4031 H   0  0  0  0  0  0  0  0  0  0  0  0
   19.7988   11.6641   31.2962 H   0  0  0  0  0  0  0  0  0  0  0  0
   19.6765   10.4004   30.0564 H   0  0  0  0  0  0  0  0  0  0  0  0
   19.8448    9.9811   31.7707 H   0  0  0  0  0  0  0  0  0  0  0  0
   23.8681   14.9753   27.9968 H   0  0  0  0  0  0  0  0  0  0  0  0
   23.8540   14.3376   29.6457 H   0  0  0  0  0  0  0  0  0  0  0  0
   24.1419   13.2543   28.2748 H   0  0  0  0  0  0  0  0  0  0  0  0
   20.7314   16.4564   30.4645 H   0  0  0  0  0  0  0  0  0  0  0  0
   22.3101   15.6923   30.6319 H   0  0  0  0  0  0  0  0  0  0  0  0
   20.8341   14.7545   30.9262 H   0  0  0  0  0  0  0  0  0  0  0  0
   19.7167   14.7538   27.2970 H   0  0  0  0  0  0  0  0  0  0  0  0
   19.2618   15.9891   28.4763 H   0  0  0  0  0  0  0  0  0  0  0  0
   19.2237   14.2840   28.9363 H   0  0  0  0  0  0  0  0  0  0  0  0
  2  1  1  0
  3  5  2  0
  4  1  1  0
  5  8  1  0
  6  3  1  0
  7  2  1  0
  8  7  2  0
  9 14  1  0
 10  9  2  0
  2 11  1  0
  4 12  1  0
 13  3  1  0
 14  4  1  0
 15  6  1  0
 16  6  2  0
 17 10  1  0
 18  1  1  0
  1 19  1  6
 20 13  1  0
 21 20  1  0
 22 17  1  0
 23  7  1  0
 20 24  1  0
 25 18  1  0
 14 26  1  0
 17 27  1  0
 28 22  1  0
 29 22  1  0
 23 25  1  0
 12 11  1  0
 15 21  1  0
  2 30  1  1
  4 31  1  1
  5 32  1  0
  8 33  1  0
  9 34  1  0
 10 35  1  0
 11 36  1  0
 11 37  1  0
 12 38  1  0
 12 39  1  0
 13 40  1  0
 13 41  1  0
 14 42  1  6
 15 43  1  0
 15 44  1  0
 16 45  1  0
 16 46  1  0
 17 47  1  1
 18 48  1  0
 18 49  1  0
 19 50  1  0
 19 51  1  0
 19 52  1  0
 20 53  1  6
 21 54  1  0
 21 55  1  0
 22 56  1  0
 23 57  1  0
 23 58  1  0
 24 59  1  0
 25 60  1  0
 25 61  1  0
 26 62  1  0
 26 63  1  0
 26 64  1  0
 27 65  1  0
 27 66  1  0
 27 67  1  0
 28 68  1  0
 28 69  1  0
 28 70  1  0
 29 71  1  0
 29 72  1  0
 29 73  1  0
M  END
> <Uni-Dock RESULT> 
ENERGY=   -4.110  LOWER_BOUND=    7.506  UPPER_BOUND=   12.079
INTER + INTRA:          -4.110
INTER:                  -4.110
INTRA:                   0.000
UNBOUND:                 0.000

$$$$

     RDKit          3D

 73 75  0  0  1  0  0  0  0  0999 V2000
   27.1982    2.4514   32.3221 C   0  0  1  0  0  0  0  0  0  0  0  0
   28.3288    2.3416   31.2584 C   0  0  2  0  0  0  0  0  0  0  0  0
   33.0258    0.8168   32.1573 C   0  0  0  0  0  0  0  0  0  0  0  0
   26.3507    3.6012   31.6931 C   0  0  2  0  0  0  0  0  0  0  0  0
   31.7014    0.5703   32.0890 C   0  0  0  0  0  0  0  0  0  0  0  0
   33.6878    2.0854   31.8581 C   0  0  0  0  0  0  0  0  0  0  0  0
   29.3447    1.2693   31.6044 C   0  0  0  0  0  0  0  0  0  0  0  0
   30.6598    1.5224   31.7542 C   0  0  0  0  0  0  0  0  0  0  0  0
   24.6511    5.4636   31.7715 C   0  0  0  0  0  0  0  0  0  0  0  0
   23.4812    5.4262   31.1098 C   0  0  0  0  0  0  0  0  0  0  0  0
   28.7411    3.7936   31.0287 C   0  0  0  0  0  0  0  0  0  0  0  0
   27.4293    4.5794   31.1406 C   0  0  0  0  0  0  0  0  0  0  0  0
   33.9959   -0.2496   32.6230 C   0  0  0  0  0  0  0  0  0  0  0  0
   25.2879    4.3279   32.5630 C   0  0  1  0  0  0  0  0  0  0  0  0
   34.5665    2.6156   32.9666 C   0  0  0  0  0  0  0  0  0  0  0  0
   33.5899    2.6912   30.6646 C   0  0  0  0  0  0  0  0  0  0  0  0
   22.8362    6.5478   30.3147 C   0  0  1  0  0  0  0  0  0  0  0  0
   26.4922    1.0787   32.3888 C   0  0  0  0  0  0  0  0  0  0  0  0
   27.7310    2.8434   33.7219 C   0  0  0  0  0  0  0  0  0  0  0  0
   34.8573    0.2472   33.7931 C   0  0  2  0  0  0  0  0  0  0  0  0
   35.5631    1.5579   33.4401 C   0  0  0  0  0  0  0  0  0  0  0  0
   21.5018    7.0477   30.9430 C   0  0  0  0  0  0  0  0  0  0  0  0
   28.6765   -0.0896   31.7226 C   0  0  0  0  0  0  0  0  0  0  0  0
   35.8474   -0.7250   34.1245 O   0  0  0  0  0  0  0  0  0  0  0  0
   27.4749   -0.0682   32.6757 C   0  0  0  0  0  0  0  0  0  0  0  0
   24.2402    3.3818   33.1597 C   0  0  0  0  0  0  0  0  0  0  0  0
   23.7719    7.7262   30.0041 C   0  0  0  0  0  0  0  0  0  0  0  0
   21.6632    7.6185   32.3563 C   0  0  0  0  0  0  0  0  0  0  0  0
   20.4250    5.9552   30.9515 C   0  0  0  0  0  0  0  0  0  0  0  0
   27.8781    2.0126   30.3063 H   0  0  0  0  0  0  0  0  0  0  0  0
   25.8255    3.1839   30.8194 H   0  0  0  0  0  0  0  0  0  0  0  0
   31.3702   -0.4331   32.3409 H   0  0  0  0  0  0  0  0  0  0  0  0
   31.0040    2.5457   31.6282 H   0  0  0  0  0  0  0  0  0  0  0  0
   25.2321    6.3840   31.7702 H   0  0  0  0  0  0  0  0  0  0  0  0
   22.9170    4.4952   31.1044 H   0  0  0  0  0  0  0  0  0  0  0  0
   29.2124    3.9354   30.0505 H   0  0  0  0  0  0  0  0  0  0  0  0
   29.4452    4.1513   31.7882 H   0  0  0  0  0  0  0  0  0  0  0  0
   27.1250    4.9643   30.1603 H   0  0  0  0  0  0  0  0  0  0  0  0
   27.5798    5.4421   31.7998 H   0  0  0  0  0  0  0  0  0  0  0  0
   34.6417   -0.5493   31.7861 H   0  0  0  0  0  0  0  0  0  0  0  0
   33.4757   -1.1664   32.9282 H   0  0  0  0  0  0  0  0  0  0  0  0
   25.7913    4.8070   33.4136 H   0  0  0  0  0  0  0  0  0  0  0  0
   33.9317    2.9264   33.8066 H   0  0  0  0  0  0  0  0  0  0  0  0
   35.1173    3.5073   32.6440 H   0  0  0  0  0  0  0  0  0  0  0  0
   32.9884    2.2737   29.8622 H   0  0  0  0  0  0  0  0  0  0  0  0
   34.1162    3.6165   30.4538 H   0  0  0  0  0  0  0  0  0  0  0  0
   22.5870    6.1101   29.3370 H   0  0  0  0  0  0  0  0  0  0  0  0
   25.9861    0.8749   31.4362 H   0  0  0  0  0  0  0  0  0  0  0  0
   25.7176    1.0645   33.1602 H   0  0  0  0  0  0  0  0  0  0  0  0
   28.5168    2.1676   34.0727 H   0  0  0  0  0  0  0  0  0  0  0  0
   26.9312    2.8160   34.4689 H   0  0  0  0  0  0  0  0  0  0  0  0
   28.1515    3.8540   33.7392 H   0  0  0  0  0  0  0  0  0  0  0  0
   34.2315    0.3995   34.6813 H   0  0  0  0  0  0  0  0  0  0  0  0
   36.3163    1.3743   32.6619 H   0  0  0  0  0  0  0  0  0  0  0  0
   36.1197    1.9265   34.3102 H   0  0  0  0  0  0  0  0  0  0  0  0
   21.1203    7.8574   30.3057 H   0  0  0  0  0  0  0  0  0  0  0  0
   28.3323   -0.3884   30.7237 H   0  0  0  0  0  0  0  0  0  0  0  0
   29.3609   -0.8747   32.0529 H   0  0  0  0  0  0  0  0  0  0  0  0
   35.3825   -1.5373   34.3894 H   0  0  0  0  0  0  0  0  0  0  0  0
   27.8326    0.0022   33.7100 H   0  0  0  0  0  0  0  0  0  0  0  0
   26.9410   -1.0232   32.6018 H   0  0  0  0  0  0  0  0  0  0  0  0
   23.4062    3.9394   33.6017 H   0  0  0  0  0  0  0  0  0  0  0  0
   23.8328    2.6992   32.4064 H   0  0  0  0  0  0  0  0  0  0  0  0
   24.6665    2.7833   33.9686 H   0  0  0  0  0  0  0  0  0  0  0  0
   23.2690    8.4568   29.3610 H   0  0  0  0  0  0  0  0  0  0  0  0
   24.1003    8.2493   30.9074 H   0  0  0  0  0  0  0  0  0  0  0  0
   24.6654    7.3835   29.4698 H   0  0  0  0  0  0  0  0  0  0  0  0
   20.7040    7.9966   32.7272 H   0  0  0  0  0  0  0  0  0  0  0  0
   22.3680    8.4546   32.3732 H   0  0  0  0  0  0  0  0  0  0  0  0
   22.0137    6.8602   33.0638 H   0  0  0  0  0  0  0  0  0  0  0  0
   20.2931    5.5295   29.9512 H   0  0  0  0  0  0  0  0  0  0  0  0
   19.4605    6.3709   31.2638 H   0  0  0  0  0  0  0  0  0  0  0  0
   20.6721    5.1421   31.6415 H   0  0  0  0  0  0  0  0  0  0  0  0
  2  1  1  0
  3  5  2  0
  4  1  1  0
  5  8  1  0
  6  3  1  0
  7  2  1  0
  8  7  2  0
  9 14  1  0
 10  9  2  0
  2 11  1  0
  4 12  1  0
 13  3  1  0
 14  4  1  0
 15  6  1  0
 16  6  2  0
 17 10  1  0
 18  1  1  0
  1 19  1  6
 20 13  1  0
 21 20  1  0
 22 17  1  0
 23  7  1  0
 20 24  1  0
 25 18  1  0
 14 26  1  0
 17 27  1  0
 28 22  1  0
 29 22  1  0
 23 25  1  0
 12 11  1  0
 15 21  1  0
  2 30  1  1
  4 31  1  1
  5 32  1  0
  8 33  1  0
  9 34  1  0
 10 35  1  0
 11 36  1  0
 11 37  1  0
 12 38  1  0
 12 39  1  0
 13 40  1  0
 13 41  1  0
 14 42  1  6
 15 43  1  0
 15 44  1  0
 16 45  1  0
 16 46  1  0
 17 47  1  1
 18 48  1  0
 18 49  1  0
 19 50  1  0
 19 51  1  0
 19 52  1  0
 20 53  1  6
 21 54  1  0
 21 55  1  0
 22 56  1  0
 23 57  1  0
 23 58  1  0
 24 59  1  0
 25 60  1  0
 25 61  1  0
 26 62  1  0
 26 63  1  0
 26 64  1  0
 27 65  1  0
 27 66  1  0
 27 67  1  0
 28 68  1  0
 28 69  1  0
 28 70  1  0
 29 71  1  0
 29 72  1  0
 29 73  1  0
M  END
> <Uni-Dock RESULT> 
ENERGY=   -3.953  LOWER_BOUND=    3.940  UPPER_BOUND=   10.126
INTER + INTRA:          -3.953
INTER:                  -3.953
INTRA:                   0.000
UNBOUND:                 0.000

$$$$

     RDKit          3D

 73 75  0  0  1  0  0  0  0  0999 V2000
   25.2825   10.6034   28.9140 C   0  0  1  0  0  0  0  0  0  0  0  0
   24.1127   10.3108   29.8977 C   0  0  2  0  0  0  0  0  0  0  0  0
   21.7073    5.9264   30.3294 C   0  0  0  0  0  0  0  0  0  0  0  0
   25.0717   12.1345   28.6964 C   0  0  2  0  0  0  0  0  0  0  0  0
   22.8225    6.6743   30.4573 C   0  0  0  0  0  0  0  0  0  0  0  0
   20.4029    6.3891   29.8586 C   0  0  0  0  0  0  0  0  0  0  0  0
   24.0540    8.8511   30.3067 C   0  0  0  0  0  0  0  0  0  0  0  0
   22.9708    8.0742   30.1087 C   0  0  0  0  0  0  0  0  0  0  0  0
   25.3629   14.3036   27.4421 C   0  0  0  0  0  0  0  0  0  0  0  0
   26.0378   15.3577   27.9334 C   0  0  0  0  0  0  0  0  0  0  0  0
   22.9211   11.0111   29.2490 C   0  0  0  0  0  0  0  0  0  0  0  0
   23.5223   12.2753   28.6238 C   0  0  0  0  0  0  0  0  0  0  0  0
   21.7220    4.4429   30.6360 C   0  0  0  0  0  0  0  0  0  0  0  0
   25.7827   12.8403   27.5089 C   0  0  1  0  0  0  0  0  0  0  0  0
   19.8345    5.6026   28.7008 C   0  0  0  0  0  0  0  0  0  0  0  0
   19.7250    7.3803   30.4577 C   0  0  0  0  0  0  0  0  0  0  0  0
   25.6306   16.8196   27.8773 C   0  0  1  0  0  0  0  0  0  0  0  0
   26.5959   10.2187   29.6310 C   0  0  0  0  0  0  0  0  0  0  0  0
   25.1545    9.8212   27.5840 C   0  0  0  0  0  0  0  0  0  0  0  0
   21.2068    3.6186   29.4474 C   0  0  2  0  0  0  0  0  0  0  0  0
   19.8271    4.1033   28.9975 C   0  0  0  0  0  0  0  0  0  0  0  0
   26.5876   17.6832   27.0033 C   0  0  0  0  0  0  0  0  0  0  0  0
   25.3492    8.4254   30.9763 C   0  0  0  0  0  0  0  0  0  0  0  0
   21.1074    2.2418   29.8077 O   0  0  0  0  0  0  0  0  0  0  0  0
   26.5826    8.7646   30.1299 C   0  0  0  0  0  0  0  0  0  0  0  0
   27.3065   12.6773   27.5286 C   0  0  0  0  0  0  0  0  0  0  0  0
   24.1644   17.0564   27.4839 C   0  0  0  0  0  0  0  0  0  0  0  0
   26.6474   17.2418   25.5367 C   0  0  0  0  0  0  0  0  0  0  0  0
   28.0074   17.7331   27.5818 C   0  0  0  0  0  0  0  0  0  0  0  0
   24.3009   10.8633   30.8342 H   0  0  0  0  0  0  0  0  0  0  0  0
   25.3925   12.6458   29.6178 H   0  0  0  0  0  0  0  0  0  0  0  0
   23.7138    6.1760   30.8280 H   0  0  0  0  0  0  0  0  0  0  0  0
   22.1029    8.5158   29.6256 H   0  0  0  0  0  0  0  0  0  0  0  0
   24.4160   14.4709   26.9322 H   0  0  0  0  0  0  0  0  0  0  0  0
   26.9755   15.1765   28.4559 H   0  0  0  0  0  0  0  0  0  0  0  0
   22.1425   11.2551   29.9794 H   0  0  0  0  0  0  0  0  0  0  0  0
   22.4574   10.4026   28.4647 H   0  0  0  0  0  0  0  0  0  0  0  0
   23.1971   13.1683   29.1701 H   0  0  0  0  0  0  0  0  0  0  0  0
   23.1652   12.3733   27.5921 H   0  0  0  0  0  0  0  0  0  0  0  0
   21.1037    4.2450   31.5224 H   0  0  0  0  0  0  0  0  0  0  0  0
   22.7276    4.0933   30.9023 H   0  0  0  0  0  0  0  0  0  0  0  0
   25.4364   12.3908   26.5684 H   0  0  0  0  0  0  0  0  0  0  0  0
   20.4395    5.7985   27.8059 H   0  0  0  0  0  0  0  0  0  0  0  0
   18.8134    5.9258   28.4651 H   0  0  0  0  0  0  0  0  0  0  0  0
   20.1287    7.9071   31.3176 H   0  0  0  0  0  0  0  0  0  0  0  0
   18.7432    7.6859   30.1107 H   0  0  0  0  0  0  0  0  0  0  0  0
   25.7171   17.1891   28.9096 H   0  0  0  0  0  0  0  0  0  0  0  0
   26.7572   10.8816   30.4911 H   0  0  0  0  0  0  0  0  0  0  0  0
   27.4615   10.3460   28.9755 H   0  0  0  0  0  0  0  0  0  0  0  0
   25.0538    8.7433   27.7428 H   0  0  0  0  0  0  0  0  0  0  0  0
   26.0379    9.9687   26.9545 H   0  0  0  0  0  0  0  0  0  0  0  0
   24.2862   10.1373   26.9971 H   0  0  0  0  0  0  0  0  0  0  0  0
   21.9091    3.6919   28.6076 H   0  0  0  0  0  0  0  0  0  0  0  0
   19.0841    3.8762   29.7740 H   0  0  0  0  0  0  0  0  0  0  0  0
   19.5080    3.5444   28.1094 H   0  0  0  0  0  0  0  0  0  0  0  0
   26.2076   18.7141   27.0185 H   0  0  0  0  0  0  0  0  0  0  0  0
   25.4238    8.9488   31.9385 H   0  0  0  0  0  0  0  0  0  0  0  0
   25.3783    7.3585   31.2105 H   0  0  0  0  0  0  0  0  0  0  0  0
   21.9995    1.9373   30.0478 H   0  0  0  0  0  0  0  0  0  0  0  0
   26.6359    8.0804   29.2745 H   0  0  0  0  0  0  0  0  0  0  0  0
   27.4865    8.5822   30.7234 H   0  0  0  0  0  0  0  0  0  0  0  0
   27.7871   13.3385   26.7980 H   0  0  0  0  0  0  0  0  0  0  0  0
   27.7262   12.8978   28.5159 H   0  0  0  0  0  0  0  0  0  0  0  0
   27.5965   11.6604   27.2531 H   0  0  0  0  0  0  0  0  0  0  0  0
   23.9181   18.1222   27.5438 H   0  0  0  0  0  0  0  0  0  0  0  0
   23.9450   16.7214   26.4655 H   0  0  0  0  0  0  0  0  0  0  0  0
   23.4882   16.5276   28.1654 H   0  0  0  0  0  0  0  0  0  0  0  0
   27.2966   17.9121   24.9624 H   0  0  0  0  0  0  0  0  0  0  0  0
   25.6594   17.2700   25.0686 H   0  0  0  0  0  0  0  0  0  0  0  0
   27.0472   16.2279   25.4330 H   0  0  0  0  0  0  0  0  0  0  0  0
   27.9903   18.0442   28.6316 H   0  0  0  0  0  0  0  0  0  0  0  0
   28.6194   18.4570   27.0323 H   0  0  0  0  0  0  0  0  0  0  0  0
   28.5096   16.7624   27.5188 H   0  0  0  0  0  0  0  0  0  0  0  0
  2  1  1  0
  3  5  2  0
  4  1  1  0
  5  8  1  0
  6  3  1  0
  7  2  1  0
  8  7  2  0
  9 14  1  0
 10  9  2  0
  2 11  1  0
  4 12  1  0
 13  3  1  0
 14  4  1  0
 15  6  1  0
 16  6  2  0
 17 10  1  0
 18  1  1  0
  1 19  1  6
 20 13  1  0
 21 20  1  0
 22 17  1  0
 23  7  1  0
 20 24  1  0
 25 18  1  0
 14 26  1  0
 17 27  1  0
 28 22  1  0
 29 22  1  0
 23 25  1  0
 12 11  1  0
 15 21  1  0
  2 30  1  1
  4 31  1  1
  5 32  1  0
  8 33  1  0
  9 34  1  0
 10 35  1  0
 11 36  1  0
 11 37  1  0
 12 38  1  0
 12 39  1  0
 13 40  1  0
 13 41  1  0
 14 42  1  6
 15 43  1  0
 15 44  1  0
 16 45  1  0
 16 46  1  0
 17 47  1  1
 18 48  1  0
 18 49  1  0
 19 50  1  0
 19 51  1  0
 19 52  1  0
 20 53  1  6
 21 54  1  0
 21 55  1  0
 22 56  1  0
 23 57  1  0
 23 58  1  0
 24 59  1  0
 25 60  1  0
 25 61  1  0
 26 62  1  0
 26 63  1  0
 26 64  1  0
 27 65  1  0
 27 66  1  0
 27 67  1  0
 28 68  1  0
 28 69  1  0
 28 70  1  0
 29 71  1  0
 29 72  1  0
 29 73  1  0
M  END
> <Uni-Dock RESULT> 
ENERGY=   -3.890  LOWER_BOUND=    8.632  UPPER_BOUND=   12.044
INTER + INTRA:          -3.890
INTER:                  -3.890
INTRA:                   0.000
UNBOUND:                 0.000

$$$$

     RDKit          3D

 73 75  0  0  1  0  0  0  0  0999 V2000
   25.3073    9.1828   30.2245 C   0  0  1  0  0  0  0  0  0  0  0  0
   23.9363    9.3693   29.5122 C   0  0  2  0  0  0  0  0  0  0  0  0
   21.2556   13.6122   29.4352 C   0  0  0  0  0  0  0  0  0  0  0  0
   25.2344    7.6578   30.5489 C   0  0  2  0  0  0  0  0  0  0  0  0
   22.3555   12.9090   29.0961 C   0  0  0  0  0  0  0  0  0  0  0  0
   20.1135   13.1181   30.2024 C   0  0  0  0  0  0  0  0  0  0  0  0
   23.7088   10.8006   29.0640 C   0  0  0  0  0  0  0  0  0  0  0  0
   22.6538   11.5380   29.4631 C   0  0  0  0  0  0  0  0  0  0  0  0
   25.9127    5.5750   31.7997 C   0  0  0  0  0  0  0  0  0  0  0  0
   26.5211    4.5270   31.2171 C   0  0  0  0  0  0  0  0  0  0  0  0
   22.9561    8.6527   30.4379 C   0  0  0  0  0  0  0  0  0  0  0  0
   23.7487    7.4522   30.9684 C   0  0  0  0  0  0  0  0  0  0  0  0
   21.1207   15.0762   29.0695 C   0  0  0  0  0  0  0  0  0  0  0  0
   26.2260    7.0497   31.5789 C   0  0  1  0  0  0  0  0  0  0  0  0
   19.7694   13.9399   31.4223 C   0  0  0  0  0  0  0  0  0  0  0  0
   19.3769   12.0666   29.8112 C   0  0  0  0  0  0  0  0  0  0  0  0
   26.2177    3.0535   31.4247 C   0  0  1  0  0  0  0  0  0  0  0  0
   26.4088    9.5862   29.2188 C   0  0  0  0  0  0  0  0  0  0  0  0
   25.4303   10.0293   31.5149 C   0  0  0  0  0  0  0  0  0  0  0  0
   20.8331   15.9398   30.3061 C   0  0  2  0  0  0  0  0  0  0  0  0
   19.6142   15.4192   31.0705 C   0  0  0  0  0  0  0  0  0  0  0  0
   27.3891    2.2820   32.1017 C   0  0  0  0  0  0  0  0  0  0  0  0
   24.8005   11.2468   28.1068 C   0  0  0  0  0  0  0  0  0  0  0  0
   20.5812   17.2893   29.9179 O   0  0  0  0  0  0  0  0  0  0  0  0
   26.2061   11.0092   28.6732 C   0  0  0  0  0  0  0  0  0  0  0  0
   27.6971    7.2792   31.2156 C   0  0  0  0  0  0  0  0  0  0  0  0
   24.8885    2.7732   32.1425 C   0  0  0  0  0  0  0  0  0  0  0  0
   27.7437    2.8044   33.4983 C   0  0  0  0  0  0  0  0  0  0  0  0
   28.6485    2.2643   31.2260 C   0  0  0  0  0  0  0  0  0  0  0  0
   23.9455    8.7758   28.5820 H   0  0  0  0  0  0  0  0  0  0  0  0
   25.3737    7.1122   29.6022 H   0  0  0  0  0  0  0  0  0  0  0  0
   23.1152   13.4257   28.5164 H   0  0  0  0  0  0  0  0  0  0  0  0
   21.9384   11.0850   30.1448 H   0  0  0  0  0  0  0  0  0  0  0  0
   25.1111    5.3935   32.5132 H   0  0  0  0  0  0  0  0  0  0  0  0
   27.3103    4.7213   30.4929 H   0  0  0  0  0  0  0  0  0  0  0  0
   22.0514    8.3351   29.9090 H   0  0  0  0  0  0  0  0  0  0  0  0
   22.6423    9.2814   31.2785 H   0  0  0  0  0  0  0  0  0  0  0  0
   23.3619    6.5173   30.5465 H   0  0  0  0  0  0  0  0  0  0  0  0
   23.6319    7.3944   32.0568 H   0  0  0  0  0  0  0  0  0  0  0  0
   20.3135   15.1981   28.3342 H   0  0  0  0  0  0  0  0  0  0  0  0
   22.0227   15.4553   28.5726 H   0  0  0  0  0  0  0  0  0  0  0  0
   26.0694    7.5337   32.5525 H   0  0  0  0  0  0  0  0  0  0  0  0
   20.5655   13.8199   32.1688 H   0  0  0  0  0  0  0  0  0  0  0  0
   18.8441   13.5848   31.8918 H   0  0  0  0  0  0  0  0  0  0  0  0
   19.6113   11.5126   28.9068 H   0  0  0  0  0  0  0  0  0  0  0  0
   18.5133   11.7368   30.3796 H   0  0  0  0  0  0  0  0  0  0  0  0
   26.0966    2.6329   30.4157 H   0  0  0  0  0  0  0  0  0  0  0  0
   26.4144    8.8856   28.3736 H   0  0  0  0  0  0  0  0  0  0  0  0
   27.4024    9.5334   29.6714 H   0  0  0  0  0  0  0  0  0  0  0  0
   25.2377   11.0915   31.3361 H   0  0  0  0  0  0  0  0  0  0  0  0
   26.4367    9.9557   31.9391 H   0  0  0  0  0  0  0  0  0  0  0  0
   24.7302    9.7071   32.2924 H   0  0  0  0  0  0  0  0  0  0  0  0
   21.7050   15.9435   30.9720 H   0  0  0  0  0  0  0  0  0  0  0  0
   18.7080   15.5705   30.4685 H   0  0  0  0  0  0  0  0  0  0  0  0
   19.4667   16.0105   31.9822 H   0  0  0  0  0  0  0  0  0  0  0  0
   27.0727    1.2360   32.2152 H   0  0  0  0  0  0  0  0  0  0  0  0
   24.6917   10.6758   27.1753 H   0  0  0  0  0  0  0  0  0  0  0  0
   24.7185   12.2997   27.8264 H   0  0  0  0  0  0  0  0  0  0  0  0
   21.3808   17.6198   29.4735 H   0  0  0  0  0  0  0  0  0  0  0  0
   26.4072   11.7404   29.4653 H   0  0  0  0  0  0  0  0  0  0  0  0
   26.9467   11.1993   27.8871 H   0  0  0  0  0  0  0  0  0  0  0  0
   28.3618    6.6806   31.8495 H   0  0  0  0  0  0  0  0  0  0  0  0
   27.9023    7.0245   30.1704 H   0  0  0  0  0  0  0  0  0  0  0  0
   27.9836    8.3215   31.3762 H   0  0  0  0  0  0  0  0  0  0  0  0
   24.6945    1.6958   32.1845 H   0  0  0  0  0  0  0  0  0  0  0  0
   24.8790    3.1527   33.1688 H   0  0  0  0  0  0  0  0  0  0  0  0
   24.0514    3.2337   31.6054 H   0  0  0  0  0  0  0  0  0  0  0  0
   28.5389    2.1958   33.9430 H   0  0  0  0  0  0  0  0  0  0  0  0
   26.8851    2.7575   34.1741 H   0  0  0  0  0  0  0  0  0  0  0  0
   28.0996    3.8393   33.4673 H   0  0  0  0  0  0  0  0  0  0  0  0
   28.4194    1.8963   30.2204 H   0  0  0  0  0  0  0  0  0  0  0  0
   29.4049    1.5991   31.6572 H   0  0  0  0  0  0  0  0  0  0  0  0
   29.0976    3.2584   31.1347 H   0  0  0  0  0  0  0  0  0  0  0  0
  2  1  1  0
  3  5  2  0
  4  1  1  0
  5  8  1  0
  6  3  1  0
  7  2  1  0
  8  7  2  0
  9 14  1  0
 10  9  2  0
  2 11  1  0
  4 12  1  0
 13  3  1  0
 14  4  1  0
 15  6  1  0
 16  6  2  0
 17 10  1  0
 18  1  1  0
  1 19  1  6
 20 13  1  0
 21 20  1  0
 22 17  1  0
 23  7  1  0
 20 24  1  0
 25 18  1  0
 14 26  1  0
 17 27  1  0
 28 22  1  0
 29 22  1  0
 23 25  1  0
 12 11  1  0
 15 21  1  0
  2 30  1  1
  4 31  1  1
  5 32  1  0
  8 33  1  0
  9 34  1  0
 10 35  1  0
 11 36  1  0
 11 37  1  0
 12 38  1  0
 12 39  1  0
 13 40  1  0
 13 41  1  0
 14 42  1  6
 15 43  1  0
 15 44  1  0
 16 45  1  0
 16 46  1  0
 17 47  1  1
 18 48  1  0
 18 49  1  0
 19 50  1  0
 19 51  1  0
 19 52  1  0
 20 53  1  6
 21 54  1  0
 21 55  1  0
 22 56  1  0
 23 57  1  0
 23 58  1  0
 24 59  1  0
 25 60  1  0
 25 61  1  0
 26 62  1  0
 26 63  1  0
 26 64  1  0
 27 65  1  0
 27 66  1  0
 27 67  1  0
 28 68  1  0
 28 69  1  0
 28 70  1  0
 29 71  1  0
 29 72  1  0
 29 73  1  0
M  END
> <Uni-Dock RESULT> 
ENERGY=   -3.800  LOWER_BOUND=    8.476  UPPER_BOUND=   11.473
INTER + INTRA:          -3.800
INTER:                  -3.800
INTRA:                   0.000
UNBOUND:                 0.000

$$$$

     RDKit          3D

 73 75  0  0  1  0  0  0  0  0999 V2000
   33.3070    9.3397   28.0159 C   0  0  1  0  0  0  0  0  0  0  0  0
   32.1294    9.0191   28.9815 C   0  0  2  0  0  0  0  0  0  0  0  0
   30.9006    4.4465   30.6477 C   0  0  0  0  0  0  0  0  0  0  0  0
   32.7401   10.6154   27.3178 C   0  0  2  0  0  0  0  0  0  0  0  0
   31.7571    5.4871   30.5900 C   0  0  0  0  0  0  0  0  0  0  0  0
   29.5979    4.3589   29.9902 C   0  0  0  0  0  0  0  0  0  0  0  0
   32.3940    7.7864   29.8251 C   0  0  0  0  0  0  0  0  0  0  0  0
   31.5853    6.7084   29.8270 C   0  0  0  0  0  0  0  0  0  0  0  0
   32.6302   12.3200   25.4616 C   0  0  0  0  0  0  0  0  0  0  0  0
   32.9369   13.6183   25.6300 C   0  0  0  0  0  0  0  0  0  0  0  0
   30.8975    9.1299   28.0864 C   0  0  0  0  0  0  0  0  0  0  0  0
   31.2317   10.2779   27.1267 C   0  0  0  0  0  0  0  0  0  0  0  0
   31.2556    3.1836   31.4054 C   0  0  0  0  0  0  0  0  0  0  0  0
   33.4001   11.1230   26.0060 C   0  0  1  0  0  0  0  0  0  0  0  0
   29.4149    3.1440   29.1112 C   0  0  0  0  0  0  0  0  0  0  0  0
   28.6121    5.2420   30.2125 C   0  0  0  0  0  0  0  0  0  0  0  0
   32.1780   14.8207   25.0969 C   0  0  1  0  0  0  0  0  0  0  0  0
   34.5647    9.5720   28.8827 C   0  0  0  0  0  0  0  0  0  0  0  0
   33.5677    8.2058   26.9945 C   0  0  0  0  0  0  0  0  0  0  0  0
   31.1375    1.9405   30.5117 C   0  0  2  0  0  0  0  0  0  0  0  0
   29.7541    1.8575   29.8633 C   0  0  0  0  0  0  0  0  0  0  0  0
   32.9897   15.6333   24.0451 C   0  0  0  0  0  0  0  0  0  0  0  0
   33.6513    7.9622   30.6588 C   0  0  0  0  0  0  0  0  0  0  0  0
   31.3484    0.7578   31.2810 O   0  0  0  0  0  0  0  0  0  0  0  0
   34.8590    8.3832   29.8120 C   0  0  0  0  0  0  0  0  0  0  0  0
   34.8969   11.4176   26.1527 C   0  0  0  0  0  0  0  0  0  0  0  0
   30.7681   14.5026   24.5756 C   0  0  0  0  0  0  0  0  0  0  0  0
   33.3608   14.8254   22.7965 C   0  0  0  0  0  0  0  0  0  0  0  0
   34.2560   16.2533   24.6494 C   0  0  0  0  0  0  0  0  0  0  0  0
   32.0393    9.8474   29.7051 H   0  0  0  0  0  0  0  0  0  0  0  0
   32.7894   11.4398   28.0467 H   0  0  0  0  0  0  0  0  0  0  0  0
   32.6876    5.3946   31.1429 H   0  0  0  0  0  0  0  0  0  0  0  0
   30.7071    6.7234   29.1865 H   0  0  0  0  0  0  0  0  0  0  0  0
   31.7509   12.0540   24.8780 H   0  0  0  0  0  0  0  0  0  0  0  0
   33.8093   13.8724   26.2295 H   0  0  0  0  0  0  0  0  0  0  0  0
   29.9902    9.3392   28.6629 H   0  0  0  0  0  0  0  0  0  0  0  0
   30.7178    8.2152   27.5108 H   0  0  0  0  0  0  0  0  0  0  0  0
   30.6158   11.1574   27.3474 H   0  0  0  0  0  0  0  0  0  0  0  0
   31.0055    9.9680   26.0999 H   0  0  0  0  0  0  0  0  0  0  0  0
   30.5944    3.0800   32.2767 H   0  0  0  0  0  0  0  0  0  0  0  0
   32.2713    3.2298   31.8183 H   0  0  0  0  0  0  0  0  0  0  0  0
   33.3130   10.3422   25.2383 H   0  0  0  0  0  0  0  0  0  0  0  0
   30.0651    3.2395   28.2318 H   0  0  0  0  0  0  0  0  0  0  0  0
   28.3870    3.0781   28.7347 H   0  0  0  0  0  0  0  0  0  0  0  0
   28.7451    6.0867   30.8823 H   0  0  0  0  0  0  0  0  0  0  0  0
   27.6416    5.1393   29.7380 H   0  0  0  0  0  0  0  0  0  0  0  0
   32.0246   15.4801   25.9637 H   0  0  0  0  0  0  0  0  0  0  0  0
   34.4307   10.4713   29.4979 H   0  0  0  0  0  0  0  0  0  0  0  0
   35.4492    9.7484   28.2649 H   0  0  0  0  0  0  0  0  0  0  0  0
   33.7277    7.2377   27.4788 H   0  0  0  0  0  0  0  0  0  0  0  0
   34.4604    8.4133   26.3959 H   0  0  0  0  0  0  0  0  0  0  0  0
   32.7356    8.0762   26.2951 H   0  0  0  0  0  0  0  0  0  0  0  0
   31.9048    1.9678   29.7280 H   0  0  0  0  0  0  0  0  0  0  0  0
   28.9962    1.6599   30.6334 H   0  0  0  0  0  0  0  0  0  0  0  0
   29.7142    0.9997   29.1811 H   0  0  0  0  0  0  0  0  0  0  0  0
   32.3583   16.4703   23.7164 H   0  0  0  0  0  0  0  0  0  0  0  0
   33.4565    8.7387   31.4103 H   0  0  0  0  0  0  0  0  0  0  0  0
   33.9224    7.0632   31.2177 H   0  0  0  0  0  0  0  0  0  0  0  0
   32.2475    0.8050   31.6493 H   0  0  0  0  0  0  0  0  0  0  0  0
   35.2031    7.5273   29.2189 H   0  0  0  0  0  0  0  0  0  0  0  0
   35.6897    8.6470   30.4775 H   0  0  0  0  0  0  0  0  0  0  0  0
   35.2857   11.9497   25.2765 H   0  0  0  0  0  0  0  0  0  0  0  0
   35.1069   12.0237   27.0404 H   0  0  0  0  0  0  0  0  0  0  0  0
   35.4742   10.4926   26.2257 H   0  0  0  0  0  0  0  0  0  0  0  0
   30.2494   15.4227   24.2850 H   0  0  0  0  0  0  0  0  0  0  0  0
   30.7835   13.8406   23.7045 H   0  0  0  0  0  0  0  0  0  0  0  0
   30.1648   14.0212   25.3538 H   0  0  0  0  0  0  0  0  0  0  0  0
   33.8871   15.4591   22.0741 H   0  0  0  0  0  0  0  0  0  0  0  0
   32.4723   14.4326   22.2941 H   0  0  0  0  0  0  0  0  0  0  0  0
   34.0188   13.9841   23.0370 H   0  0  0  0  0  0  0  0  0  0  0  0
   34.0163   16.8346   25.5459 H   0  0  0  0  0  0  0  0  0  0  0  0
   34.7295   16.9325   23.9317 H   0  0  0  0  0  0  0  0  0  0  0  0
   34.9953   15.4926   24.9200 H   0  0  0  0  0  0  0  0  0  0  0  0
  2  1  1  0
  3  5  2  0
  4  1  1  0
  5  8  1  0
  6  3  1  0
  7  2  1  0
  8  7  2  0
  9 14  1  0
 10  9  2  0
  2 11  1  0
  4 12  1  0
 13  3  1  0
 14  4  1  0
 15  6  1  0
 16  6  2  0
 17 10  1  0
 18  1  1  0
  1 19  1  6
 20 13  1  0
 21 20  1  0
 22 17  1  0
 23  7  1  0
 20 24  1  0
 25 18  1  0
 14 26  1  0
 17 27  1  0
 28 22  1  0
 29 22  1  0
 23 25  1  0
 12 11  1  0
 15 21  1  0
  2 30  1  1
  4 31  1  1
  5 32  1  0
  8 33  1  0
  9 34  1  0
 10 35  1  0
 11 36  1  0
 11 37  1  0
 12 38  1  0
 12 39  1  0
 13 40  1  0
 13 41  1  0
 14 42  1  6
 15 43  1  0
 15 44  1  0
 16 45  1  0
 16 46  1  0
 17 47  1  1
 18 48  1  0
 18 49  1  0
 19 50  1  0
 19 51  1  0
 19 52  1  0
 20 53  1  6
 21 54  1  0
 21 55  1  0
 22 56  1  0
 23 57  1  0
 23 58  1  0
 24 59  1  0
 25 60  1  0
 25 61  1  0
 26 62  1  0
 26 63  1  0
 26 64  1  0
 27 65  1  0
 27 66  1  0
 27 67  1  0
 28 68  1  0
 28 69  1  0
 28 70  1  0
 29 71  1  0
 29 72  1  0
 29 73  1  0
M  END
> <Uni-Dock RESULT> 
ENERGY=   -3.787  LOWER_BOUND=    6.862  UPPER_BOUND=    9.409
INTER + INTRA:          -3.787
INTER:                  -3.787
INTRA:                   0.000
UNBOUND:                 0.000

$$$$

     RDKit          3D

 73 75  0  0  1  0  0  0  0  0999 V2000
   34.3382    6.9820   31.2426 C   0  0  1  0  0  0  0  0  0  0  0  0
   34.7913    7.7394   29.9609 C   0  0  2  0  0  0  0  0  0  0  0  0
   36.7239   12.3706   29.8531 C   0  0  0  0  0  0  0  0  0  0  0  0
   33.2247    6.0722   30.6355 C   0  0  2  0  0  0  0  0  0  0  0  0
   36.8031   11.0704   30.2032 C   0  0  0  0  0  0  0  0  0  0  0  0
   35.6310   13.0052   29.1182 C   0  0  0  0  0  0  0  0  0  0  0  0
   35.9040    8.7320   30.2401 C   0  0  0  0  0  0  0  0  0  0  0  0
   35.8020   10.0478   29.9675 C   0  0  0  0  0  0  0  0  0  0  0  0
   31.1741    4.6094   30.7698 C   0  0  0  0  0  0  0  0  0  0  0  0
   31.1805    3.2973   30.4763 C   0  0  0  0  0  0  0  0  0  0  0  0
   33.4742    8.1696   29.3196 C   0  0  0  0  0  0  0  0  0  0  0  0
   32.5164    7.0086   29.6122 C   0  0  0  0  0  0  0  0  0  0  0  0
   37.8026   13.3552   30.2557 C   0  0  0  0  0  0  0  0  0  0  0  0
   32.2159    5.3670   31.5837 C   0  0  1  0  0  0  0  0  0  0  0  0
   35.0234   14.2065   29.8035 C   0  0  0  0  0  0  0  0  0  0  0  0
   35.2506   12.6050   27.8950 C   0  0  0  0  0  0  0  0  0  0  0  0
   30.1519    2.5299   29.6644 C   0  0  1  0  0  0  0  0  0  0  0  0
   35.5699    6.2297   31.7941 C   0  0  0  0  0  0  0  0  0  0  0  0
   33.7655    7.9291   32.3252 C   0  0  0  0  0  0  0  0  0  0  0  0
   37.2137   14.5557   31.0108 C   0  0  2  0  0  0  0  0  0  0  0  0
   36.0956   15.2193   30.2043 C   0  0  0  0  0  0  0  0  0  0  0  0
   29.3733    1.4784   30.5091 C   0  0  0  0  0  0  0  0  0  0  0  0
   37.1177    8.0320   30.8265 C   0  0  0  0  0  0  0  0  0  0  0  0
   38.2283   15.5267   31.2617 O   0  0  0  0  0  0  0  0  0  0  0  0
   36.7619    7.1680   32.0430 C   0  0  0  0  0  0  0  0  0  0  0  0
   32.8887    4.4754   32.6330 C   0  0  0  0  0  0  0  0  0  0  0  0
   29.1849    3.4154   28.8636 C   0  0  0  0  0  0  0  0  0  0  0  0
   28.5754    2.0884   31.6669 C   0  0  0  0  0  0  0  0  0  0  0  0
   30.2945    0.3758   31.0465 C   0  0  0  0  0  0  0  0  0  0  0  0
   35.2299    7.0065   29.2621 H   0  0  0  0  0  0  0  0  0  0  0  0
   33.7250    5.2850   30.0495 H   0  0  0  0  0  0  0  0  0  0  0  0
   37.6899   10.7563   30.7464 H   0  0  0  0  0  0  0  0  0  0  0  0
   34.8741   10.4127   29.5346 H   0  0  0  0  0  0  0  0  0  0  0  0
   30.3542    5.2291   30.4115 H   0  0  0  0  0  0  0  0  0  0  0  0
   32.0141    2.6908   30.8261 H   0  0  0  0  0  0  0  0  0  0  0  0
   33.5801    8.3418   28.2434 H   0  0  0  0  0  0  0  0  0  0  0  0
   33.0767    9.0895   29.7625 H   0  0  0  0  0  0  0  0  0  0  0  0
   32.2843    6.4585   28.6929 H   0  0  0  0  0  0  0  0  0  0  0  0
   31.5733    7.4079   30.0029 H   0  0  0  0  0  0  0  0  0  0  0  0
   38.3348   13.7034   29.3598 H   0  0  0  0  0  0  0  0  0  0  0  0
   38.5703   12.8829   30.8817 H   0  0  0  0  0  0  0  0  0  0  0  0
   31.6568    6.1311   32.1406 H   0  0  0  0  0  0  0  0  0  0  0  0
   34.4811   13.8704   30.6970 H   0  0  0  0  0  0  0  0  0  0  0  0
   34.2873   14.7010   29.1583 H   0  0  0  0  0  0  0  0  0  0  0  0
   35.7278   11.7660   27.3967 H   0  0  0  0  0  0  0  0  0  0  0  0
   34.4578   13.1115   27.3541 H   0  0  0  0  0  0  0  0  0  0  0  0
   30.7276    1.9736   28.9102 H   0  0  0  0  0  0  0  0  0  0  0  0
   35.8795    5.4528   31.0829 H   0  0  0  0  0  0  0  0  0  0  0  0
   35.3386    5.7169   32.7315 H   0  0  0  0  0  0  0  0  0  0  0  0
   34.4611    8.7325   32.5860 H   0  0  0  0  0  0  0  0  0  0  0  0
   33.5483    7.3841   33.2494 H   0  0  0  0  0  0  0  0  0  0  0  0
   32.8333    8.4078   32.0086 H   0  0  0  0  0  0  0  0  0  0  0  0
   36.8180   14.2309   31.9812 H   0  0  0  0  0  0  0  0  0  0  0  0
   36.5180   15.6954   29.3091 H   0  0  0  0  0  0  0  0  0  0  0  0
   35.6475   16.0319   30.7889 H   0  0  0  0  0  0  0  0  0  0  0  0
   28.6537    0.9860   29.8406 H   0  0  0  0  0  0  0  0  0  0  0  0
   37.5496    7.3890   30.0484 H   0  0  0  0  0  0  0  0  0  0  0  0
   37.9103    8.7248   31.1194 H   0  0  0  0  0  0  0  0  0  0  0  0
   38.9090   15.1028   31.8122 H   0  0  0  0  0  0  0  0  0  0  0  0
   36.5476    7.8178   32.9001 H   0  0  0  0  0  0  0  0  0  0  0  0
   37.6357    6.5686   32.3255 H   0  0  0  0  0  0  0  0  0  0  0  0
   32.1542    3.8504   33.1543 H   0  0  0  0  0  0  0  0  0  0  0  0
   33.6403    3.8167   32.1852 H   0  0  0  0  0  0  0  0  0  0  0  0
   33.3767    5.0762   33.4045 H   0  0  0  0  0  0  0  0  0  0  0  0
   28.5274    2.7998   28.2399 H   0  0  0  0  0  0  0  0  0  0  0  0
   28.5503    4.0314   29.5081 H   0  0  0  0  0  0  0  0  0  0  0  0
   29.7351    4.0855   28.1932 H   0  0  0  0  0  0  0  0  0  0  0  0
   28.0125    1.3103   32.1944 H   0  0  0  0  0  0  0  0  0  0  0  0
   27.8504    2.8254   31.3101 H   0  0  0  0  0  0  0  0  0  0  0  0
   29.2280    2.5756   32.3985 H   0  0  0  0  0  0  0  0  0  0  0  0
   30.8780   -0.0744   30.2365 H   0  0  0  0  0  0  0  0  0  0  0  0
   29.7053   -0.4219   31.5123 H   0  0  0  0  0  0  0  0  0  0  0  0
   30.9901    0.7554   31.8017 H   0  0  0  0  0  0  0  0  0  0  0  0
  2  1  1  0
  3  5  2  0
  4  1  1  0
  5  8  1  0
  6  3  1  0
  7  2  1  0
  8  7  2  0
  9 14  1  0
 10  9  2  0
  2 11  1  0
  4 12  1  0
 13  3  1  0
 14  4  1  0
 15  6  1  0
 16  6  2  0
 17 10  1  0
 18  1  1  0
  1 19  1  6
 20 13  1  0
 21 20  1  0
 22 17  1  0
 23  7  1  0
 20 24  1  0
 25 18  1  0
 14 26  1  0
 17 27  1  0
 28 22  1  0
 29 22  1  0
 23 25  1  0
 12 11  1  0
 15 21  1  0
  2 30  1  1
  4 31  1  1
  5 32  1  0
  8 33  1  0
  9 34  1  0
 10 35  1  0
 11 36  1  0
 11 37  1  0
 12 38  1  0
 12 39  1  0
 13 40  1  0
 13 41  1  0
 14 42  1  6
 15 43  1  0
 15 44  1  0
 16 45  1  0
 16 46  1  0
 17 47  1  1
 18 48  1  0
 18 49  1  0
 19 50  1  0
 19 51  1  0
 19 52  1  0
 20 53  1  6
 21 54  1  0
 21 55  1  0
 22 56  1  0
 23 57  1  0
 23 58  1  0
 24 59  1  0
 25 60  1  0
 25 61  1  0
 26 62  1  0
 26 63  1  0
 26 64  1  0
 27 65  1  0
 27 66  1  0
 27 67  1  0
 28 68  1  0
 28 69  1  0
 28 70  1  0
 29 71  1  0
 29 72  1  0
 29 73  1  0
M  END
> <Uni-Dock RESULT> 
ENERGY=   -3.741  LOWER_BOUND=    6.353  UPPER_BOUND=   11.357
INTER + INTRA:          -3.741
INTER:                  -3.741
INTRA:                   0.000
UNBOUND:                 0.000

$$$$

     RDKit          3D

 73 75  0  0  1  0  0  0  0  0999 V2000
   30.6157    8.9997   30.8569 C   0  0  1  0  0  0  0  0  0  0  0  0
   29.9815    8.0695   29.7826 C   0  0  2  0  0  0  0  0  0  0  0  0
   28.4318    3.3600   30.5662 C   0  0  0  0  0  0  0  0  0  0  0  0
   31.5149    9.8893   29.9426 C   0  0  2  0  0  0  0  0  0  0  0  0
   28.3214    4.6866   30.7837 C   0  0  0  0  0  0  0  0  0  0  0  0
   29.4062    2.7024   29.6972 C   0  0  0  0  0  0  0  0  0  0  0  0
   29.0255    7.0582   30.3865 C   0  0  0  0  0  0  0  0  0  0  0  0
   29.1745    5.7267   30.2415 C   0  0  0  0  0  0  0  0  0  0  0  0
   33.4320   11.4680   29.5005 C   0  0  0  0  0  0  0  0  0  0  0  0
   33.2662   12.7328   29.0755 C   0  0  0  0  0  0  0  0  0  0  0  0
   31.1775    7.6381   28.9373 C   0  0  0  0  0  0  0  0  0  0  0  0
   32.0805    8.8767   28.9033 C   0  0  0  0  0  0  0  0  0  0  0  0
   27.5325    2.3734   31.2825 C   0  0  0  0  0  0  0  0  0  0  0  0
   32.6313   10.7580   30.5852 C   0  0  1  0  0  0  0  0  0  0  0  0
   30.2276    1.6277   30.3697 C   0  0  0  0  0  0  0  0  0  0  0  0
   29.5082    2.9724   28.3865 C   0  0  0  0  0  0  0  0  0  0  0  0
   34.0535   13.4520   27.9942 C   0  0  1  0  0  0  0  0  0  0  0  0
   29.4606    9.7443   31.5630 C   0  0  0  0  0  0  0  0  0  0  0  0
   31.4607    8.2229   31.8960 C   0  0  0  0  0  0  0  0  0  0  0  0
   28.3491    1.3069   32.0266 C   0  0  2  0  0  0  0  0  0  0  0  0
   29.3366    0.6133   31.0859 C   0  0  0  0  0  0  0  0  0  0  0  0
   34.8977   14.6389   28.5458 C   0  0  0  0  0  0  0  0  0  0  0  0
   27.8988    7.7562   31.1284 C   0  0  0  0  0  0  0  0  0  0  0  0
   27.4819    0.3190   32.5807 O   0  0  0  0  0  0  0  0  0  0  0  0
   28.4168    8.7787   32.1477 C   0  0  0  0  0  0  0  0  0  0  0  0
   32.1089   11.7314   31.6475 C   0  0  0  0  0  0  0  0  0  0  0  0
   34.9116   12.5308   27.1135 C   0  0  0  0  0  0  0  0  0  0  0  0
   35.9513   14.2177   29.5762 C   0  0  0  0  0  0  0  0  0  0  0  0
   34.0160   15.7460   29.1375 C   0  0  0  0  0  0  0  0  0  0  0  0
   29.3591    8.6875   29.1129 H   0  0  0  0  0  0  0  0  0  0  0  0
   30.8500   10.5715   29.3894 H   0  0  0  0  0  0  0  0  0  0  0  0
   27.5360    5.0148   31.4586 H   0  0  0  0  0  0  0  0  0  0  0  0
   30.0256    5.3638   29.6710 H   0  0  0  0  0  0  0  0  0  0  0  0
   34.2119   10.8556   29.0518 H   0  0  0  0  0  0  0  0  0  0  0  0
   32.4722   13.3304   29.5201 H   0  0  0  0  0  0  0  0  0  0  0  0
   30.8773    7.3317   27.9297 H   0  0  0  0  0  0  0  0  0  0  0  0
   31.7242    6.8015   29.3863 H   0  0  0  0  0  0  0  0  0  0  0  0
   32.0851    9.3238   27.9025 H   0  0  0  0  0  0  0  0  0  0  0  0
   33.1100    8.5798   29.1350 H   0  0  0  0  0  0  0  0  0  0  0  0
   26.8644    1.8910   30.5558 H   0  0  0  0  0  0  0  0  0  0  0  0
   26.8673    2.8749   31.9968 H   0  0  0  0  0  0  0  0  0  0  0  0
   33.3461   10.0985   31.0958 H   0  0  0  0  0  0  0  0  0  0  0  0
   30.9060    2.0983   31.0933 H   0  0  0  0  0  0  0  0  0  0  0  0
   30.8599    1.1001   29.6454 H   0  0  0  0  0  0  0  0  0  0  0  0
   28.8790    3.7177   27.9084 H   0  0  0  0  0  0  0  0  0  0  0  0
   30.2171    2.4486   27.7535 H   0  0  0  0  0  0  0  0  0  0  0  0
   33.3001   13.8808   27.3173 H   0  0  0  0  0  0  0  0  0  0  0  0
   28.9585   10.4115   30.8503 H   0  0  0  0  0  0  0  0  0  0  0  0
   29.8297   10.3783   32.3735 H   0  0  0  0  0  0  0  0  0  0  0  0
   30.8941    7.4199   32.3771 H   0  0  0  0  0  0  0  0  0  0  0  0
   31.8110    8.8864   32.6931 H   0  0  0  0  0  0  0  0  0  0  0  0
   32.3475    7.7614   31.4500 H   0  0  0  0  0  0  0  0  0  0  0  0
   28.9001    1.7676   32.8560 H   0  0  0  0  0  0  0  0  0  0  0  0
   28.7859    0.0102   30.3513 H   0  0  0  0  0  0  0  0  0  0  0  0
   29.9520   -0.0970   31.6510 H   0  0  0  0  0  0  0  0  0  0  0  0
   35.4324   15.0858   27.6963 H   0  0  0  0  0  0  0  0  0  0  0  0
   27.2745    8.2759   30.3898 H   0  0  0  0  0  0  0  0  0  0  0  0
   27.2351    7.0613   31.6486 H   0  0  0  0  0  0  0  0  0  0  0  0
   26.8908    0.7682   33.2092 H   0  0  0  0  0  0  0  0  0  0  0  0
   28.8443    8.2499   33.0080 H   0  0  0  0  0  0  0  0  0  0  0  0
   27.5711    9.3590   32.5357 H   0  0  0  0  0  0  0  0  0  0  0  0
   32.8801   12.4541   31.9389 H   0  0  0  0  0  0  0  0  0  0  0  0
   31.2354   12.2891   31.2935 H   0  0  0  0  0  0  0  0  0  0  0  0
   31.8293   11.2022   32.5618 H   0  0  0  0  0  0  0  0  0  0  0  0
   35.3847   13.1018   26.3071 H   0  0  0  0  0  0  0  0  0  0  0  0
   35.7058   12.0328   27.6781 H   0  0  0  0  0  0  0  0  0  0  0  0
   34.2950   11.7555   26.6445 H   0  0  0  0  0  0  0  0  0  0  0  0
   36.5440   15.0835   29.8920 H   0  0  0  0  0  0  0  0  0  0  0  0
   36.6479   13.4840   29.1608 H   0  0  0  0  0  0  0  0  0  0  0  0
   35.4941   13.7871   30.4729 H   0  0  0  0  0  0  0  0  0  0  0  0
   33.2524   16.0624   28.4193 H   0  0  0  0  0  0  0  0  0  0  0  0
   34.6209   16.6252   29.3859 H   0  0  0  0  0  0  0  0  0  0  0  0
   33.5130   15.4226   30.0545 H   0  0  0  0  0  0  0  0  0  0  0  0
  2  1  1  0
  3  5  2  0
  4  1  1  0
  5  8  1  0
  6  3  1  0
  7  2  1  0
  8  7  2  0
  9 14  1  0
 10  9  2  0
  2 11  1  0
  4 12  1  0
 13  3  1  0
 14  4  1  0
 15  6  1  0
 16  6  2  0
 17 10  1  0
 18  1  1  0
  1 19  1  6
 20 13  1  0
 21 20  1  0
 22 17  1  0
 23  7  1  0
 20 24  1  0
 25 18  1  0
 14 26  1  0
 17 27  1  0
 28 22  1  0
 29 22  1  0
 23 25  1  0
 12 11  1  0
 15 21  1  0
  2 30  1  1
  4 31  1  1
  5 32  1  0
  8 33  1  0
  9 34  1  0
 10 35  1  0
 11 36  1  0
 11 37  1  0
 12 38  1  0
 12 39  1  0
 13 40  1  0
 13 41  1  0
 14 42  1  6
 15 43  1  0
 15 44  1  0
 16 45  1  0
 16 46  1  0
 17 47  1  1
 18 48  1  0
 18 49  1  0
 19 50  1  0
 19 51  1  0
 19 52  1  0
 20 53  1  6
 21 54  1  0
 21 55  1  0
 22 56  1  0
 23 57  1  0
 23 58  1  0
 24 59  1  0
 25 60  1  0
 25 61  1  0
 26 62  1  0
 26 63  1  0
 26 64  1  0
 27 65  1  0
 27 66  1  0
 27 67  1  0
 28 68  1  0
 28 69  1  0
 28 70  1  0
 29 71  1  0
 29 72  1  0
 29 73  1  0
M  END
> <Uni-Dock RESULT> 
ENERGY=   -3.598  LOWER_BOUND=    5.347  UPPER_BOUND=    7.386
INTER + INTRA:          -3.598
INTER:                  -3.598
INTRA:                   0.000
UNBOUND:                 0.000

$$$$
