
     RDKit          3D

 73 75  0  0  1  0  0  0  0  0999 V2000
   28.3451    2.4638   31.8122 C   0  0  1  0  0  0  0  0  0  0  0  0
   29.2655    2.9333   30.6499 C   0  0  2  0  0  0  0  0  0  0  0  0
   34.2767    2.9589   30.8964 C   0  0  0  0  0  0  0  0  0  0  0  0
   27.0885    3.3470   31.5340 C   0  0  2  0  0  0  0  0  0  0  0  0
   33.1119    2.3079   30.6966 C   0  0  0  0  0  0  0  0  0  0  0  0
   34.4266    4.3704   31.2429 C   0  0  0  0  0  0  0  0  0  0  0  0
   30.6086    2.2291   30.6528 C   0  0  0  0  0  0  0  0  0  0  0  0
   31.7826    2.8867   30.7266 C   0  0  0  0  0  0  0  0  0  0  0  0
   24.9027    4.4299   32.1866 C   0  0  0  0  0  0  0  0  0  0  0  0
   24.5207    5.5370   32.8462 C   0  0  0  0  0  0  0  0  0  0  0  0
   29.1572    4.4551   30.7091 C   0  0  0  0  0  0  0  0  0  0  0  0
   27.6953    4.7110   31.0936 C   0  0  0  0  0  0  0  0  0  0  0  0
   35.6092    2.2496   30.7322 C   0  0  0  0  0  0  0  0  0  0  0  0
   26.0249    3.5177   32.6508 C   0  0  1  0  0  0  0  0  0  0  0  0
   35.3249    5.1500   30.3126 C   0  0  0  0  0  0  0  0  0  0  0  0
   33.8736    4.9136   32.3382 C   0  0  0  0  0  0  0  0  0  0  0  0
   23.3840    6.4718   32.4727 C   0  0  1  0  0  0  0  0  0  0  0  0
   28.1252    0.9444   31.6418 C   0  0  0  0  0  0  0  0  0  0  0  0
   28.9455    2.7596   33.2083 C   0  0  0  0  0  0  0  0  0  0  0  0
   36.5699    3.0058   29.7967 C   0  0  2  0  0  0  0  0  0  0  0  0
   36.6964    4.4811   30.1835 C   0  0  0  0  0  0  0  0  0  0  0  0
   23.1766    6.7062   30.9468 C   0  0  0  0  0  0  0  0  0  0  0  0
   30.4358    0.7239   30.5456 C   0  0  0  0  0  0  0  0  0  0  0  0
   36.1366    2.9246   28.4373 O   0  0  0  0  0  0  0  0  0  0  0  0
   29.4511    0.1693   31.5835 C   0  0  0  0  0  0  0  0  0  0  0  0
   25.3928    2.1958   33.0919 C   0  0  0  0  0  0  0  0  0  0  0  0
   22.1153    5.9703   33.1748 C   0  0  0  0  0  0  0  0  0  0  0  0
   21.9757    7.6165   30.6558 C   0  0  0  0  0  0  0  0  0  0  0  0
   24.4228    7.3301   30.3022 C   0  0  0  0  0  0  0  0  0  0  0  0
   28.7936    2.6439   29.6953 H   0  0  0  0  0  0  0  0  0  0  0  0
   26.5782    2.9282   30.6524 H   0  0  0  0  0  0  0  0  0  0  0  0
   33.1669    1.2522   30.4474 H   0  0  0  0  0  0  0  0  0  0  0  0
   31.7634    3.9724   30.7876 H   0  0  0  0  0  0  0  0  0  0  0  0
   24.3804    4.1283   31.2811 H   0  0  0  0  0  0  0  0  0  0  0  0
   25.0398    5.7984   33.7683 H   0  0  0  0  0  0  0  0  0  0  0  0
   29.4081    4.9219   29.7507 H   0  0  0  0  0  0  0  0  0  0  0  0
   29.8162    4.8889   31.4693 H   0  0  0  0  0  0  0  0  0  0  0  0
   27.6528    5.4619   31.8907 H   0  0  0  0  0  0  0  0  0  0  0  0
   27.1402    5.1086   30.2366 H   0  0  0  0  0  0  0  0  0  0  0  0
   36.0733    2.1529   31.7229 H   0  0  0  0  0  0  0  0  0  0  0  0
   35.4589    1.2324   30.3492 H   0  0  0  0  0  0  0  0  0  0  0  0
   26.5016    3.9684   33.5306 H   0  0  0  0  0  0  0  0  0  0  0  0
   34.8471    5.2220   29.3272 H   0  0  0  0  0  0  0  0  0  0  0  0
   35.4628    6.1786   30.6673 H   0  0  0  0  0  0  0  0  0  0  0  0
   34.0216    5.9597   32.5868 H   0  0  0  0  0  0  0  0  0  0  0  0
   33.2604    4.3277   33.0170 H   0  0  0  0  0  0  0  0  0  0  0  0
   23.6343    7.4466   32.9156 H   0  0  0  0  0  0  0  0  0  0  0  0
   27.5658    0.7504   30.7179 H   0  0  0  0  0  0  0  0  0  0  0  0
   27.5258    0.5341   32.4587 H   0  0  0  0  0  0  0  0  0  0  0  0
   28.3271    2.3253   34.0008 H   0  0  0  0  0  0  0  0  0  0  0  0
   29.0196    3.8330   33.4107 H   0  0  0  0  0  0  0  0  0  0  0  0
   29.9512    2.3452   33.3262 H   0  0  0  0  0  0  0  0  0  0  0  0
   37.5590    2.5361   29.8396 H   0  0  0  0  0  0  0  0  0  0  0  0
   37.2822    5.0197   29.4297 H   0  0  0  0  0  0  0  0  0  0  0  0
   37.2313    4.5621   31.1380 H   0  0  0  0  0  0  0  0  0  0  0  0
   22.9811    5.7468   30.4513 H   0  0  0  0  0  0  0  0  0  0  0  0
   30.0604    0.4936   29.5400 H   0  0  0  0  0  0  0  0  0  0  0  0
   31.3784    0.1808   30.6526 H   0  0  0  0  0  0  0  0  0  0  0  0
   35.9077    1.9986   28.2499 H   0  0  0  0  0  0  0  0  0  0  0  0
   29.2409   -0.8821   31.3528 H   0  0  0  0  0  0  0  0  0  0  0  0
   29.9251    0.1750   32.5723 H   0  0  0  0  0  0  0  0  0  0  0  0
   25.0612    1.6018   32.2333 H   0  0  0  0  0  0  0  0  0  0  0  0
   26.0954    1.5978   33.6776 H   0  0  0  0  0  0  0  0  0  0  0  0
   24.5221    2.3668   33.7363 H   0  0  0  0  0  0  0  0  0  0  0  0
   21.3270    6.7295   33.1629 H   0  0  0  0  0  0  0  0  0  0  0  0
   21.7268    5.0654   32.6943 H   0  0  0  0  0  0  0  0  0  0  0  0
   22.3094    5.7342   34.2280 H   0  0  0  0  0  0  0  0  0  0  0  0
   21.0342    7.1398   30.9447 H   0  0  0  0  0  0  0  0  0  0  0  0
   21.9039    7.8373   29.5853 H   0  0  0  0  0  0  0  0  0  0  0  0
   22.0602    8.5681   31.1915 H   0  0  0  0  0  0  0  0  0  0  0  0
   24.6627    8.2958   30.7608 H   0  0  0  0  0  0  0  0  0  0  0  0
   24.2632    7.4973   29.2314 H   0  0  0  0  0  0  0  0  0  0  0  0
   25.2979    6.6834   30.3998 H   0  0  0  0  0  0  0  0  0  0  0  0
  2  1  1  0
  3  5  2  0
  4  1  1  0
  5  8  1  0
  6  3  1  0
  7  2  1  0
  8  7  2  0
  9 14  1  0
 10  9  2  0
  2 11  1  0
  4 12  1  0
 13  3  1  0
 14  4  1  0
 15  6  1  0
 16  6  2  0
 17 10  1  0
 18  1  1  0
  1 19  1  1
 20 13  1  0
 21 20  1  0
 22 17  1  0
 23  7  1  0
 20 24  1  0
 25 18  1  0
 14 26  1  0
 17 27  1  0
 28 22  1  0
 29 22  1  0
 23 25  1  0
 12 11  1  0
 15 21  1  0
  2 30  1  6
  4 31  1  6
  5 32  1  0
  8 33  1  0
  9 34  1  0
 10 35  1  0
 11 36  1  0
 11 37  1  0
 12 38  1  0
 12 39  1  0
 13 40  1  0
 13 41  1  0
 14 42  1  1
 15 43  1  0
 15 44  1  0
 16 45  1  0
 16 46  1  0
 17 47  1  1
 18 48  1  0
 18 49  1  0
 19 50  1  0
 19 51  1  0
 19 52  1  0
 20 53  1  1
 21 54  1  0
 21 55  1  0
 22 56  1  0
 23 57  1  0
 23 58  1  0
 24 59  1  0
 25 60  1  0
 25 61  1  0
 26 62  1  0
 26 63  1  0
 26 64  1  0
 27 65  1  0
 27 66  1  0
 27 67  1  0
 28 68  1  0
 28 69  1  0
 28 70  1  0
 29 71  1  0
 29 72  1  0
 29 73  1  0
M  END
> <Uni-Dock RESULT> 
ENERGY=   -4.225  LOWER_BOUND=    0.000  UPPER_BOUND=    0.000
INTER + INTRA:          -4.225
INTER:                  -4.225
INTRA:                   0.000
UNBOUND:                 0.000

$$$$

     RDKit          3D

 73 75  0  0  1  0  0  0  0  0999 V2000
   23.8473   10.9036   29.6738 C   0  0  1  0  0  0  0  0  0  0  0  0
   23.9494    9.4660   29.0896 C   0  0  2  0  0  0  0  0  0  0  0  0
   24.8577    5.3857   31.8642 C   0  0  0  0  0  0  0  0  0  0  0  0
   24.3356   11.7297   28.4426 C   0  0  2  0  0  0  0  0  0  0  0  0
   24.0072    6.3170   31.3848 C   0  0  0  0  0  0  0  0  0  0  0  0
   26.2940    5.3158   31.6059 C   0  0  0  0  0  0  0  0  0  0  0  0
   23.5257    8.4037   30.0855 C   0  0  0  0  0  0  0  0  0  0  0  0
   24.3331    7.3968   30.4732 C   0  0  0  0  0  0  0  0  0  0  0  0
   25.2316   13.8158   27.3373 C   0  0  0  0  0  0  0  0  0  0  0  0
   26.4354   14.3880   27.1636 C   0  0  0  0  0  0  0  0  0  0  0  0
   25.3295    9.4494   28.4369 C   0  0  0  0  0  0  0  0  0  0  0  0
   25.4852   10.8596   27.8560 C   0  0  0  0  0  0  0  0  0  0  0  0
   24.3609    4.2434   32.7325 C   0  0  0  0  0  0  0  0  0  0  0  0
   24.7706   13.2047   28.6492 C   0  0  1  0  0  0  0  0  0  0  0  0
   26.7656    3.9924   31.0522 C   0  0  0  0  0  0  0  0  0  0  0  0
   27.1369    6.3163   31.9048 C   0  0  0  0  0  0  0  0  0  0  0  0
   26.9510   15.0576   25.9022 C   0  0  1  0  0  0  0  0  0  0  0  0
   22.3732   11.1364   30.0723 C   0  0  0  0  0  0  0  0  0  0  0  0
   24.7684   11.1187   30.8995 C   0  0  0  0  0  0  0  0  0  0  0  0
   24.8189    2.8669   32.2174 C   0  0  2  0  0  0  0  0  0  0  0  0
   26.3253    2.8325   31.9499 C   0  0  0  0  0  0  0  0  0  0  0  0
   26.5179   14.3945   24.5608 C   0  0  0  0  0  0  0  0  0  0  0  0
   22.0971    8.6293   30.5495 C   0  0  0  0  0  0  0  0  0  0  0  0
   24.1323    2.5115   31.0154 O   0  0  0  0  0  0  0  0  0  0  0  0
   21.8583   10.0623   31.0436 C   0  0  0  0  0  0  0  0  0  0  0  0
   23.6554   14.0926   29.2054 C   0  0  0  0  0  0  0  0  0  0  0  0
   26.5807   16.5448   25.9766 C   0  0  0  0  0  0  0  0  0  0  0  0
   27.0343   15.1645   23.3377 C   0  0  0  0  0  0  0  0  0  0  0  0
   27.0181   12.9459   24.4659 C   0  0  0  0  0  0  0  0  0  0  0  0
   23.2312    9.3785   28.2563 H   0  0  0  0  0  0  0  0  0  0  0  0
   23.5240   11.7254   27.6982 H   0  0  0  0  0  0  0  0  0  0  0  0
   22.9631    6.2341   31.6722 H   0  0  0  0  0  0  0  0  0  0  0  0
   25.3343    7.3460   30.0517 H   0  0  0  0  0  0  0  0  0  0  0  0
   24.5143   13.7980   26.5195 H   0  0  0  0  0  0  0  0  0  0  0  0
   27.1226   14.4210   28.0090 H   0  0  0  0  0  0  0  0  0  0  0  0
   25.4058    8.6834   27.6578 H   0  0  0  0  0  0  0  0  0  0  0  0
   26.1293    9.2625   29.1620 H   0  0  0  0  0  0  0  0  0  0  0  0
   26.4760   11.2528   28.1109 H   0  0  0  0  0  0  0  0  0  0  0  0
   25.4133   10.8313   26.7631 H   0  0  0  0  0  0  0  0  0  0  0  0
   24.7437    4.3921   33.7512 H   0  0  0  0  0  0  0  0  0  0  0  0
   23.2656    4.2580   32.7977 H   0  0  0  0  0  0  0  0  0  0  0  0
   25.6051   13.2334   29.3614 H   0  0  0  0  0  0  0  0  0  0  0  0
   26.3603    3.8603   30.0409 H   0  0  0  0  0  0  0  0  0  0  0  0
   27.8577    3.9720   30.9548 H   0  0  0  0  0  0  0  0  0  0  0  0
   28.2039    6.2291   31.7262 H   0  0  0  0  0  0  0  0  0  0  0  0
   26.7841    7.2480   32.3378 H   0  0  0  0  0  0  0  0  0  0  0  0
   28.0476   14.9950   25.9513 H   0  0  0  0  0  0  0  0  0  0  0  0
   21.7397   11.1300   29.1761 H   0  0  0  0  0  0  0  0  0  0  0  0
   22.2365   12.1142   30.5412 H   0  0  0  0  0  0  0  0  0  0  0  0
   24.5972   12.1017   31.3505 H   0  0  0  0  0  0  0  0  0  0  0  0
   25.8300   11.0665   30.6367 H   0  0  0  0  0  0  0  0  0  0  0  0
   24.5995   10.3747   31.6838 H   0  0  0  0  0  0  0  0  0  0  0  0
   24.5674    2.1019   32.9606 H   0  0  0  0  0  0  0  0  0  0  0  0
   26.6010    1.8879   31.4667 H   0  0  0  0  0  0  0  0  0  0  0  0
   26.8652    2.8860   32.9035 H   0  0  0  0  0  0  0  0  0  0  0  0
   25.4226   14.3816   24.4945 H   0  0  0  0  0  0  0  0  0  0  0  0
   21.4271    8.4281   29.7035 H   0  0  0  0  0  0  0  0  0  0  0  0
   21.7978    7.9444   31.3471 H   0  0  0  0  0  0  0  0  0  0  0  0
   23.1856    2.6884   31.1468 H   0  0  0  0  0  0  0  0  0  0  0  0
   20.7839   10.2118   31.2053 H   0  0  0  0  0  0  0  0  0  0  0  0
   22.3345   10.1923   32.0227 H   0  0  0  0  0  0  0  0  0  0  0  0
   22.7229   13.9664   28.6445 H   0  0  0  0  0  0  0  0  0  0  0  0
   23.4609   13.8703   30.2574 H   0  0  0  0  0  0  0  0  0  0  0  0
   23.9315   15.1530   29.1605 H   0  0  0  0  0  0  0  0  0  0  0  0
   27.1375   17.1311   25.2389 H   0  0  0  0  0  0  0  0  0  0  0  0
   25.5104   16.6971   25.7983 H   0  0  0  0  0  0  0  0  0  0  0  0
   26.8206   16.9665   26.9601 H   0  0  0  0  0  0  0  0  0  0  0  0
   26.5722   16.1535   23.2643 H   0  0  0  0  0  0  0  0  0  0  0  0
   26.7929   14.6322   22.4112 H   0  0  0  0  0  0  0  0  0  0  0  0
   28.1213   15.2929   23.3795 H   0  0  0  0  0  0  0  0  0  0  0  0
   28.1111   12.9011   24.5252 H   0  0  0  0  0  0  0  0  0  0  0  0
   26.7144   12.4921   23.5162 H   0  0  0  0  0  0  0  0  0  0  0  0
   26.6108   12.3221   25.2651 H   0  0  0  0  0  0  0  0  0  0  0  0
  2  1  1  0
  3  5  2  0
  4  1  1  0
  5  8  1  0
  6  3  1  0
  7  2  1  0
  8  7  2  0
  9 14  1  0
 10  9  2  0
  2 11  1  0
  4 12  1  0
 13  3  1  0
 14  4  1  0
 15  6  1  0
 16  6  2  0
 17 10  1  0
 18  1  1  0
  1 19  1  1
 20 13  1  0
 21 20  1  0
 22 17  1  0
 23  7  1  0
 20 24  1  0
 25 18  1  0
 14 26  1  0
 17 27  1  0
 28 22  1  0
 29 22  1  0
 23 25  1  0
 12 11  1  0
 15 21  1  0
  2 30  1  6
  4 31  1  6
  5 32  1  0
  8 33  1  0
  9 34  1  0
 10 35  1  0
 11 36  1  0
 11 37  1  0
 12 38  1  0
 12 39  1  0
 13 40  1  0
 13 41  1  0
 14 42  1  1
 15 43  1  0
 15 44  1  0
 16 45  1  0
 16 46  1  0
 17 47  1  1
 18 48  1  0
 18 49  1  0
 19 50  1  0
 19 51  1  0
 19 52  1  0
 20 53  1  1
 21 54  1  0
 21 55  1  0
 22 56  1  0
 23 57  1  0
 23 58  1  0
 24 59  1  0
 25 60  1  0
 25 61  1  0
 26 62  1  0
 26 63  1  0
 26 64  1  0
 27 65  1  0
 27 66  1  0
 27 67  1  0
 28 68  1  0
 28 69  1  0
 28 70  1  0
 29 71  1  0
 29 72  1  0
 29 73  1  0
M  END
> <Uni-Dock RESULT> 
ENERGY=   -4.156  LOWER_BOUND=    5.695  UPPER_BOUND=   10.333
INTER + INTRA:          -4.156
INTER:                  -4.156
INTRA:                   0.000
UNBOUND:                 0.000

$$$$

     RDKit          3D

 73 75  0  0  1  0  0  0  0  0999 V2000
   31.0922    8.2769   28.7742 C   0  0  1  0  0  0  0  0  0  0  0  0
   30.5782    7.4820   30.0080 C   0  0  2  0  0  0  0  0  0  0  0  0
   31.2874    2.5561   30.6453 C   0  0  0  0  0  0  0  0  0  0  0  0
   30.0104    9.4004   28.7082 C   0  0  2  0  0  0  0  0  0  0  0  0
   31.7309    3.8282   30.7212 C   0  0  0  0  0  0  0  0  0  0  0  0
   29.9826    2.1266   30.1476 C   0  0  0  0  0  0  0  0  0  0  0  0
   31.4536    6.2874   30.3341 C   0  0  0  0  0  0  0  0  0  0  0  0
   30.9851    5.0247   30.3819 C   0  0  0  0  0  0  0  0  0  0  0  0
   28.7508   11.2539   27.5445 C   0  0  0  0  0  0  0  0  0  0  0  0
   27.7189   11.3443   26.6879 C   0  0  0  0  0  0  0  0  0  0  0  0
   29.0845    7.3303   29.7306 C   0  0  0  0  0  0  0  0  0  0  0  0
   28.6917    8.6543   29.0648 C   0  0  0  0  0  0  0  0  0  0  0  0
   32.1400    1.3983   31.1332 C   0  0  0  0  0  0  0  0  0  0  0  0
   29.8714   10.2375   27.4092 C   0  0  1  0  0  0  0  0  0  0  0  0
   29.1987    1.2670   31.1103 C   0  0  0  0  0  0  0  0  0  0  0  0
   29.5467    2.4088   28.9102 C   0  0  0  0  0  0  0  0  0  0  0  0
   26.5884   12.3570   26.7292 C   0  0  1  0  0  0  0  0  0  0  0  0
   32.5205    8.7651   29.1020 C   0  0  0  0  0  0  0  0  0  0  0  0
   31.1056    7.4291   27.4788 C   0  0  0  0  0  0  0  0  0  0  0  0
   31.3871    0.4825   32.1151 C   0  0  2  0  0  0  0  0  0  0  0  0
   30.0229    0.0593   31.5655 C   0  0  0  0  0  0  0  0  0  0  0  0
   26.0907   12.7554   28.1505 C   0  0  0  0  0  0  0  0  0  0  0  0
   32.8845    6.7176   30.6068 C   0  0  0  0  0  0  0  0  0  0  0  0
   31.1927    1.1269   33.3759 O   0  0  0  0  0  0  0  0  0  0  0  0
   33.4532    7.6083   29.4942 C   0  0  0  0  0  0  0  0  0  0  0  0
   31.1454   11.0013   27.0419 C   0  0  0  0  0  0  0  0  0  0  0  0
   27.0130   13.5674   25.8873 C   0  0  0  0  0  0  0  0  0  0  0  0
   24.9882   13.8221   28.1031 C   0  0  0  0  0  0  0  0  0  0  0  0
   25.5523   11.5382   28.9161 C   0  0  0  0  0  0  0  0  0  0  0  0
   30.6457    8.1357   30.8945 H   0  0  0  0  0  0  0  0  0  0  0  0
   30.2106   10.1015   29.5337 H   0  0  0  0  0  0  0  0  0  0  0  0
   32.7316    3.9849   31.1132 H   0  0  0  0  0  0  0  0  0  0  0  0
   29.9305    4.8570   30.1760 H   0  0  0  0  0  0  0  0  0  0  0  0
   28.8309   11.9511   28.3758 H   0  0  0  0  0  0  0  0  0  0  0  0
   27.6802   10.6541   25.8452 H   0  0  0  0  0  0  0  0  0  0  0  0
   28.5122    7.1570   30.6482 H   0  0  0  0  0  0  0  0  0  0  0  0
   28.8713    6.5006   29.0477 H   0  0  0  0  0  0  0  0  0  0  0  0
   28.0769    8.4509   28.1807 H   0  0  0  0  0  0  0  0  0  0  0  0
   28.0913    9.2621   29.7508 H   0  0  0  0  0  0  0  0  0  0  0  0
   32.4547    0.8096   30.2611 H   0  0  0  0  0  0  0  0  0  0  0  0
   33.0536    1.7694   31.6145 H   0  0  0  0  0  0  0  0  0  0  0  0
   29.6351    9.5643   26.5753 H   0  0  0  0  0  0  0  0  0  0  0  0
   28.9072    1.8723   31.9781 H   0  0  0  0  0  0  0  0  0  0  0  0
   28.2679    0.9104   30.6529 H   0  0  0  0  0  0  0  0  0  0  0  0
   28.5835    2.0558   28.5558 H   0  0  0  0  0  0  0  0  0  0  0  0
   30.1411    2.9976   28.2174 H   0  0  0  0  0  0  0  0  0  0  0  0
   25.7396   11.8862   26.2126 H   0  0  0  0  0  0  0  0  0  0  0  0
   32.4873    9.4840   29.9306 H   0  0  0  0  0  0  0  0  0  0  0  0
   32.9668    9.2907   28.2538 H   0  0  0  0  0  0  0  0  0  0  0  0
   31.5689    7.9809   26.6542 H   0  0  0  0  0  0  0  0  0  0  0  0
   30.0981    7.1509   27.1528 H   0  0  0  0  0  0  0  0  0  0  0  0
   31.6689    6.4984   27.5953 H   0  0  0  0  0  0  0  0  0  0  0  0
   31.9904   -0.4115   32.3091 H   0  0  0  0  0  0  0  0  0  0  0  0
   29.4591   -0.4837   32.3330 H   0  0  0  0  0  0  0  0  0  0  0  0
   30.1679   -0.6219   30.7178 H   0  0  0  0  0  0  0  0  0  0  0  0
   26.9237   13.1785   28.7260 H   0  0  0  0  0  0  0  0  0  0  0  0
   32.8996    7.2755   31.5521 H   0  0  0  0  0  0  0  0  0  0  0  0
   33.5632    5.8711   30.7397 H   0  0  0  0  0  0  0  0  0  0  0  0
   32.0369    1.5297   33.6404 H   0  0  0  0  0  0  0  0  0  0  0  0
   34.4158    8.0200   29.8209 H   0  0  0  0  0  0  0  0  0  0  0  0
   33.6688    6.9935   28.6122 H   0  0  0  0  0  0  0  0  0  0  0  0
   31.5454   11.5533   27.8996 H   0  0  0  0  0  0  0  0  0  0  0  0
   31.9197   10.3241   26.6730 H   0  0  0  0  0  0  0  0  0  0  0  0
   30.9586   11.7231   26.2377 H   0  0  0  0  0  0  0  0  0  0  0  0
   26.1594   14.2137   25.6603 H   0  0  0  0  0  0  0  0  0  0  0  0
   27.7684   14.1675   26.4071 H   0  0  0  0  0  0  0  0  0  0  0  0
   27.4363   13.2550   24.9251 H   0  0  0  0  0  0  0  0  0  0  0  0
   25.3690   14.7730   27.7186 H   0  0  0  0  0  0  0  0  0  0  0  0
   24.5941   14.0206   29.1058 H   0  0  0  0  0  0  0  0  0  0  0  0
   24.1536   13.5023   27.4700 H   0  0  0  0  0  0  0  0  0  0  0  0
   24.7134   11.0765   28.3837 H   0  0  0  0  0  0  0  0  0  0  0  0
   25.1984   11.8310   29.9107 H   0  0  0  0  0  0  0  0  0  0  0  0
   26.3214   10.7758   29.0601 H   0  0  0  0  0  0  0  0  0  0  0  0
  2  1  1  0
  3  5  2  0
  4  1  1  0
  5  8  1  0
  6  3  1  0
  7  2  1  0
  8  7  2  0
  9 14  1  0
 10  9  2  0
  2 11  1  0
  4 12  1  0
 13  3  1  0
 14  4  1  0
 15  6  1  0
 16  6  2  0
 17 10  1  0
 18  1  1  0
  1 19  1  1
 20 13  1  0
 21 20  1  0
 22 17  1  0
 23  7  1  0
 20 24  1  0
 25 18  1  0
 14 26  1  0
 17 27  1  0
 28 22  1  0
 29 22  1  0
 23 25  1  0
 12 11  1  0
 15 21  1  0
  2 30  1  6
  4 31  1  6
  5 32  1  0
  8 33  1  0
  9 34  1  0
 10 35  1  0
 11 36  1  0
 11 37  1  0
 12 38  1  0
 12 39  1  0
 13 40  1  0
 13 41  1  0
 14 42  1  1
 15 43  1  0
 15 44  1  0
 16 45  1  0
 16 46  1  0
 17 47  1  1
 18 48  1  0
 18 49  1  0
 19 50  1  0
 19 51  1  0
 19 52  1  0
 20 53  1  1
 21 54  1  0
 21 55  1  0
 22 56  1  0
 23 57  1  0
 23 58  1  0
 24 59  1  0
 25 60  1  0
 25 61  1  0
 26 62  1  0
 26 63  1  0
 26 64  1  0
 27 65  1  0
 27 66  1  0
 27 67  1  0
 28 68  1  0
 28 69  1  0
 28 70  1  0
 29 71  1  0
 29 72  1  0
 29 73  1  0
M  END
> <Uni-Dock RESULT> 
ENERGY=   -3.984  LOWER_BOUND=    4.670  UPPER_BOUND=    7.149
INTER + INTRA:          -3.984
INTER:                  -3.984
INTRA:                   0.000
UNBOUND:                 0.000

$$$$

     RDKit          3D

 73 75  0  0  1  0  0  0  0  0999 V2000
   31.0905    8.2786   28.7711 C   0  0  1  0  0  0  0  0  0  0  0  0
   30.5768    7.4837   30.0051 C   0  0  2  0  0  0  0  0  0  0  0  0
   31.2844    2.5575   30.6415 C   0  0  0  0  0  0  0  0  0  0  0  0
   30.0092    9.4025   28.7059 C   0  0  2  0  0  0  0  0  0  0  0  0
   31.7284    3.8293   30.7173 C   0  0  0  0  0  0  0  0  0  0  0  0
   29.9791    2.1286   30.1444 C   0  0  0  0  0  0  0  0  0  0  0  0
   31.4519    6.2887   30.3306 C   0  0  0  0  0  0  0  0  0  0  0  0
   30.9830    5.0262   30.3785 C   0  0  0  0  0  0  0  0  0  0  0  0
   28.7497   11.2567   27.5431 C   0  0  0  0  0  0  0  0  0  0  0  0
   27.7173   11.3477   26.6871 C   0  0  0  0  0  0  0  0  0  0  0  0
   29.0830    7.3328   29.7286 C   0  0  0  0  0  0  0  0  0  0  0  0
   28.6904    8.6570   29.0631 C   0  0  0  0  0  0  0  0  0  0  0  0
   32.1368    1.3993   31.1288 C   0  0  0  0  0  0  0  0  0  0  0  0
   29.8698   10.2399   27.4071 C   0  0  1  0  0  0  0  0  0  0  0  0
   29.1954    1.2692   31.1075 C   0  0  0  0  0  0  0  0  0  0  0  0
   29.5426    2.4111   28.9073 C   0  0  0  0  0  0  0  0  0  0  0  0
   26.5872   12.3608   26.7291 C   0  0  1  0  0  0  0  0  0  0  0  0
   32.5192    8.7662   29.0982 C   0  0  0  0  0  0  0  0  0  0  0  0
   31.1028    7.4309   27.4756 C   0  0  0  0  0  0  0  0  0  0  0  0
   31.3840    0.4836   32.1110 C   0  0  2  0  0  0  0  0  0  0  0  0
   30.0193    0.0611   31.5621 C   0  0  0  0  0  0  0  0  0  0  0  0
   26.0905   12.7593   28.1508 C   0  0  0  0  0  0  0  0  0  0  0  0
   32.8832    6.7183   30.6025 C   0  0  0  0  0  0  0  0  0  0  0  0
   31.1906    1.1280   33.3719 O   0  0  0  0  0  0  0  0  0  0  0  0
   33.4517    7.6089   29.4897 C   0  0  0  0  0  0  0  0  0  0  0  0
   31.1439   11.0031   27.0391 C   0  0  0  0  0  0  0  0  0  0  0  0
   27.0119   13.5712   25.8872 C   0  0  0  0  0  0  0  0  0  0  0  0
   24.9885   13.8264   28.1042 C   0  0  0  0  0  0  0  0  0  0  0  0
   25.5520   11.5422   28.9166 C   0  0  0  0  0  0  0  0  0  0  0  0
   30.6451    8.1373   30.8916 H   0  0  0  0  0  0  0  0  0  0  0  0
   30.2101   10.1034   29.5313 H   0  0  0  0  0  0  0  0  0  0  0  0
   32.7294    3.9856   31.1087 H   0  0  0  0  0  0  0  0  0  0  0  0
   29.9281    4.8590   30.1732 H   0  0  0  0  0  0  0  0  0  0  0  0
   28.8305   11.9538   28.3744 H   0  0  0  0  0  0  0  0  0  0  0  0
   27.6779   10.6575   25.8444 H   0  0  0  0  0  0  0  0  0  0  0  0
   28.5111    7.1595   30.6464 H   0  0  0  0  0  0  0  0  0  0  0  0
   28.8690    6.5032   29.0457 H   0  0  0  0  0  0  0  0  0  0  0  0
   28.0749    8.4539   28.1793 H   0  0  0  0  0  0  0  0  0  0  0  0
   28.0906    9.2649   29.7495 H   0  0  0  0  0  0  0  0  0  0  0  0
   32.4507    0.8105   30.2564 H   0  0  0  0  0  0  0  0  0  0  0  0
   33.0508    1.7700   31.6096 H   0  0  0  0  0  0  0  0  0  0  0  0
   29.6327    9.5668   26.5732 H   0  0  0  0  0  0  0  0  0  0  0  0
   28.9046    1.8745   31.9756 H   0  0  0  0  0  0  0  0  0  0  0  0
   28.2642    0.9130   30.6506 H   0  0  0  0  0  0  0  0  0  0  0  0
   28.5790    2.0586   28.5535 H   0  0  0  0  0  0  0  0  0  0  0  0
   30.1369    2.9997   28.2143 H   0  0  0  0  0  0  0  0  0  0  0  0
   25.7379   11.8904   26.2130 H   0  0  0  0  0  0  0  0  0  0  0  0
   32.4868    9.4849   29.9269 H   0  0  0  0  0  0  0  0  0  0  0  0
   32.9652    9.2917   28.2498 H   0  0  0  0  0  0  0  0  0  0  0  0
   31.5659    7.9826   26.6508 H   0  0  0  0  0  0  0  0  0  0  0  0
   30.0950    7.1531   27.1502 H   0  0  0  0  0  0  0  0  0  0  0  0
   31.6658    6.5000   27.5917 H   0  0  0  0  0  0  0  0  0  0  0  0
   31.9870   -0.4106   32.3045 H   0  0  0  0  0  0  0  0  0  0  0  0
   29.4558   -0.4817   32.3298 H   0  0  0  0  0  0  0  0  0  0  0  0
   30.1636   -0.6200   30.7142 H   0  0  0  0  0  0  0  0  0  0  0  0
   26.9241   13.1819   28.7258 H   0  0  0  0  0  0  0  0  0  0  0  0
   32.8991    7.2761   31.5479 H   0  0  0  0  0  0  0  0  0  0  0  0
   33.5616    5.8715   30.7349 H   0  0  0  0  0  0  0  0  0  0  0  0
   32.0351    1.5304   33.6360 H   0  0  0  0  0  0  0  0  0  0  0  0
   34.4146    8.0202   29.8159 H   0  0  0  0  0  0  0  0  0  0  0  0
   33.6664    6.9941   28.6075 H   0  0  0  0  0  0  0  0  0  0  0  0
   31.5445   11.5548   27.8966 H   0  0  0  0  0  0  0  0  0  0  0  0
   31.9176   10.3257   26.6697 H   0  0  0  0  0  0  0  0  0  0  0  0
   30.9569   11.7251   26.2351 H   0  0  0  0  0  0  0  0  0  0  0  0
   26.1584   14.2179   25.6607 H   0  0  0  0  0  0  0  0  0  0  0  0
   27.7678   14.1708   26.4066 H   0  0  0  0  0  0  0  0  0  0  0  0
   27.4345   13.2586   24.9247 H   0  0  0  0  0  0  0  0  0  0  0  0
   25.3694   14.7772   27.7196 H   0  0  0  0  0  0  0  0  0  0  0  0
   24.5950   14.0249   29.1071 H   0  0  0  0  0  0  0  0  0  0  0  0
   24.1534   13.5071   27.4715 H   0  0  0  0  0  0  0  0  0  0  0  0
   24.7127   11.0809   28.3846 H   0  0  0  0  0  0  0  0  0  0  0  0
   25.1989   11.8350   29.9114 H   0  0  0  0  0  0  0  0  0  0  0  0
   26.3210   10.7794   29.0600 H   0  0  0  0  0  0  0  0  0  0  0  0
  2  1  1  0
  3  5  2  0
  4  1  1  0
  5  8  1  0
  6  3  1  0
  7  2  1  0
  8  7  2  0
  9 14  1  0
 10  9  2  0
  2 11  1  0
  4 12  1  0
 13  3  1  0
 14  4  1  0
 15  6  1  0
 16  6  2  0
 17 10  1  0
 18  1  1  0
  1 19  1  1
 20 13  1  0
 21 20  1  0
 22 17  1  0
 23  7  1  0
 20 24  1  0
 25 18  1  0
 14 26  1  0
 17 27  1  0
 28 22  1  0
 29 22  1  0
 23 25  1  0
 12 11  1  0
 15 21  1  0
  2 30  1  6
  4 31  1  6
  5 32  1  0
  8 33  1  0
  9 34  1  0
 10 35  1  0
 11 36  1  0
 11 37  1  0
 12 38  1  0
 12 39  1  0
 13 40  1  0
 13 41  1  0
 14 42  1  1
 15 43  1  0
 15 44  1  0
 16 45  1  0
 16 46  1  0
 17 47  1  1
 18 48  1  0
 18 49  1  0
 19 50  1  0
 19 51  1  0
 19 52  1  0
 20 53  1  1
 21 54  1  0
 21 55  1  0
 22 56  1  0
 23 57  1  0
 23 58  1  0
 24 59  1  0
 25 60  1  0
 25 61  1  0
 26 62  1  0
 26 63  1  0
 26 64  1  0
 27 65  1  0
 27 66  1  0
 27 67  1  0
 28 68  1  0
 28 69  1  0
 28 70  1  0
 29 71  1  0
 29 72  1  0
 29 73  1  0
M  END
> <Uni-Dock RESULT> 
ENERGY=   -3.983  LOWER_BOUND=    4.672  UPPER_BOUND=    7.150
INTER + INTRA:          -3.983
INTER:                  -3.983
INTRA:                   0.000
UNBOUND:                 0.000

$$$$

     RDKit          3D

 73 75  0  0  1  0  0  0  0  0999 V2000
   24.9277    7.3010   31.1695 C   0  0  1  0  0  0  0  0  0  0  0  0
   23.9994    7.8167   30.0334 C   0  0  2  0  0  0  0  0  0  0  0  0
   21.8526   12.3514   30.0278 C   0  0  0  0  0  0  0  0  0  0  0  0
   24.6459    5.7687   31.0727 C   0  0  2  0  0  0  0  0  0  0  0  0
   22.9174   11.5535   29.8039 C   0  0  0  0  0  0  0  0  0  0  0  0
   20.5537   11.9297   30.5473 C   0  0  0  0  0  0  0  0  0  0  0  0
   24.0567    9.3239   29.8767 C   0  0  0  0  0  0  0  0  0  0  0  0
   22.9699   10.1146   29.9762 C   0  0  0  0  0  0  0  0  0  0  0  0
   24.6728    3.4087   31.9704 C   0  0  0  0  0  0  0  0  0  0  0  0
   23.9055    2.6665   32.7871 C   0  0  0  0  0  0  0  0  0  0  0  0
   22.6844    7.0866   30.2959 C   0  0  0  0  0  0  0  0  0  0  0  0
   23.1181    5.6993   30.7837 C   0  0  0  0  0  0  0  0  0  0  0  0
   21.9029   13.8344   29.7055 C   0  0  0  0  0  0  0  0  0  0  0  0
   25.0561    4.8507   32.2544 C   0  0  1  0  0  0  0  0  0  0  0  0
   19.3787   12.3189   29.6825 C   0  0  0  0  0  0  0  0  0  0  0  0
   20.4083   11.3138   31.7307 C   0  0  0  0  0  0  0  0  0  0  0  0
   23.5168    1.2111   32.5966 C   0  0  1  0  0  0  0  0  0  0  0  0
   26.3704    7.7227   30.8139 C   0  0  0  0  0  0  0  0  0  0  0  0
   24.5393    7.8599   32.5602 C   0  0  0  0  0  0  0  0  0  0  0  0
   20.7217   14.2892   28.8293 C   0  0  2  0  0  0  0  0  0  0  0  0
   19.3794   13.8236   29.3982 C   0  0  0  0  0  0  0  0  0  0  0  0
   23.2480    0.7712   31.1266 C   0  0  0  0  0  0  0  0  0  0  0  0
   25.4726    9.7887   29.5830 C   0  0  0  0  0  0  0  0  0  0  0  0
   20.8492   13.7948   27.4944 O   0  0  0  0  0  0  0  0  0  0  0  0
   26.4930    9.2380   30.5881 C   0  0  0  0  0  0  0  0  0  0  0  0
   26.5570    4.8797   32.5509 C   0  0  0  0  0  0  0  0  0  0  0  0
   24.5788    0.3481   33.2904 C   0  0  0  0  0  0  0  0  0  0  0  0
   22.9169   -0.7234   31.0179 C   0  0  0  0  0  0  0  0  0  0  0  0
   22.0913    1.5684   30.5069 C   0  0  0  0  0  0  0  0  0  0  0  0
   24.3696    7.4158   29.0743 H   0  0  0  0  0  0  0  0  0  0  0  0
   25.1559    5.3948   30.1709 H   0  0  0  0  0  0  0  0  0  0  0  0
   23.8181   12.0208   29.4167 H   0  0  0  0  0  0  0  0  0  0  0  0
   22.0087    9.6481   30.1791 H   0  0  0  0  0  0  0  0  0  0  0  0
   25.0803    2.9724   31.0609 H   0  0  0  0  0  0  0  0  0  0  0  0
   23.5371    3.1185   33.7080 H   0  0  0  0  0  0  0  0  0  0  0  0
   22.0651    7.0200   29.3951 H   0  0  0  0  0  0  0  0  0  0  0  0
   22.0856    7.5760   31.0719 H   0  0  0  0  0  0  0  0  0  0  0  0
   22.5386    5.4267   31.6731 H   0  0  0  0  0  0  0  0  0  0  0  0
   22.9161    4.9451   30.0151 H   0  0  0  0  0  0  0  0  0  0  0  0
   21.8864   14.3940   30.6504 H   0  0  0  0  0  0  0  0  0  0  0  0
   22.8442   14.0868   29.2013 H   0  0  0  0  0  0  0  0  0  0  0  0
   24.5318    5.1807   33.1603 H   0  0  0  0  0  0  0  0  0  0  0  0
   19.4237   11.7579   28.7402 H   0  0  0  0  0  0  0  0  0  0  0  0
   18.4298   12.0477   30.1608 H   0  0  0  0  0  0  0  0  0  0  0  0
   19.4291   11.0336   32.1057 H   0  0  0  0  0  0  0  0  0  0  0  0
   21.2629   11.0751   32.3574 H   0  0  0  0  0  0  0  0  0  0  0  0
   22.5766    1.0728   33.1496 H   0  0  0  0  0  0  0  0  0  0  0  0
   26.6954    7.2059   29.9019 H   0  0  0  0  0  0  0  0  0  0  0  0
   27.0746    7.4368   31.5995 H   0  0  0  0  0  0  0  0  0  0  0  0
   25.2709    7.5643   33.3195 H   0  0  0  0  0  0  0  0  0  0  0  0
   23.5628    7.4968   32.8968 H   0  0  0  0  0  0  0  0  0  0  0  0
   24.4919    8.9529   32.5721 H   0  0  0  0  0  0  0  0  0  0  0  0
   20.7239   15.3829   28.7605 H   0  0  0  0  0  0  0  0  0  0  0  0
   18.5718   14.0498   28.6924 H   0  0  0  0  0  0  0  0  0  0  0  0
   19.1695   14.3688   30.3269 H   0  0  0  0  0  0  0  0  0  0  0  0
   24.1459    0.9472   30.5208 H   0  0  0  0  0  0  0  0  0  0  0  0
   25.7434    9.4448   28.5763 H   0  0  0  0  0  0  0  0  0  0  0  0
   25.5669   10.8776   29.5706 H   0  0  0  0  0  0  0  0  0  0  0  0
   21.7611   13.9577   27.1998 H   0  0  0  0  0  0  0  0  0  0  0  0
   27.5053    9.4661   30.2332 H   0  0  0  0  0  0  0  0  0  0  0  0
   26.3800    9.7633   31.5440 H   0  0  0  0  0  0  0  0  0  0  0  0
   27.1500    4.7428   31.6399 H   0  0  0  0  0  0  0  0  0  0  0  0
   26.8496    5.8235   33.0173 H   0  0  0  0  0  0  0  0  0  0  0  0
   26.8387    4.0876   33.2551 H   0  0  0  0  0  0  0  0  0  0  0  0
   24.2334   -0.6827   33.4174 H   0  0  0  0  0  0  0  0  0  0  0  0
   25.5119    0.3285   32.7163 H   0  0  0  0  0  0  0  0  0  0  0  0
   24.8093    0.7288   34.2927 H   0  0  0  0  0  0  0  0  0  0  0  0
   23.7764   -1.3435   31.2893 H   0  0  0  0  0  0  0  0  0  0  0  0
   22.6461   -0.9892   29.9902 H   0  0  0  0  0  0  0  0  0  0  0  0
   22.0774   -0.9922   31.6681 H   0  0  0  0  0  0  0  0  0  0  0  0
   21.1652    1.4263   31.0747 H   0  0  0  0  0  0  0  0  0  0  0  0
   21.9062    1.2460   29.4764 H   0  0  0  0  0  0  0  0  0  0  0  0
   22.3067    2.6391   30.4750 H   0  0  0  0  0  0  0  0  0  0  0  0
  2  1  1  0
  3  5  2  0
  4  1  1  0
  5  8  1  0
  6  3  1  0
  7  2  1  0
  8  7  2  0
  9 14  1  0
 10  9  2  0
  2 11  1  0
  4 12  1  0
 13  3  1  0
 14  4  1  0
 15  6  1  0
 16  6  2  0
 17 10  1  0
 18  1  1  0
  1 19  1  1
 20 13  1  0
 21 20  1  0
 22 17  1  0
 23  7  1  0
 20 24  1  0
 25 18  1  0
 14 26  1  0
 17 27  1  0
 28 22  1  0
 29 22  1  0
 23 25  1  0
 12 11  1  0
 15 21  1  0
  2 30  1  6
  4 31  1  6
  5 32  1  0
  8 33  1  0
  9 34  1  0
 10 35  1  0
 11 36  1  0
 11 37  1  0
 12 38  1  0
 12 39  1  0
 13 40  1  0
 13 41  1  0
 14 42  1  1
 15 43  1  0
 15 44  1  0
 16 45  1  0
 16 46  1  0
 17 47  1  1
 18 48  1  0
 18 49  1  0
 19 50  1  0
 19 51  1  0
 19 52  1  0
 20 53  1  1
 21 54  1  0
 21 55  1  0
 22 56  1  0
 23 57  1  0
 23 58  1  0
 24 59  1  0
 25 60  1  0
 25 61  1  0
 26 62  1  0
 26 63  1  0
 26 64  1  0
 27 65  1  0
 27 66  1  0
 27 67  1  0
 28 68  1  0
 28 69  1  0
 28 70  1  0
 29 71  1  0
 29 72  1  0
 29 73  1  0
M  END
> <Uni-Dock RESULT> 
ENERGY=   -3.980  LOWER_BOUND=    6.417  UPPER_BOUND=   11.106
INTER + INTRA:          -3.980
INTER:                  -3.980
INTRA:                   0.000
UNBOUND:                 0.000

$$$$

     RDKit          3D

 73 75  0  0  1  0  0  0  0  0999 V2000
   27.4277   11.8040   28.6171 C   0  0  1  0  0  0  0  0  0  0  0  0
   26.9979   10.3852   28.1473 C   0  0  2  0  0  0  0  0  0  0  0  0
   23.7844    7.4677   30.6642 C   0  0  0  0  0  0  0  0  0  0  0  0
   28.8607   11.8687   28.0016 C   0  0  2  0  0  0  0  0  0  0  0  0
   24.0309    8.4832   29.8106 C   0  0  0  0  0  0  0  0  0  0  0  0
   24.7870    6.6562   31.3505 C   0  0  0  0  0  0  0  0  0  0  0  0
   25.5993   10.0209   28.6065 C   0  0  0  0  0  0  0  0  0  0  0  0
   25.3325    8.9343   29.3576 C   0  0  0  0  0  0  0  0  0  0  0  0
   31.1905   12.8225   27.8047 C   0  0  0  0  0  0  0  0  0  0  0  0
   32.3623   12.6766   28.4469 C   0  0  0  0  0  0  0  0  0  0  0  0
   28.2070    9.5195   28.4932 C   0  0  0  0  0  0  0  0  0  0  0  0
   29.4098   10.4274   28.2107 C   0  0  0  0  0  0  0  0  0  0  0  0
   22.3634    7.0315   30.9739 C   0  0  0  0  0  0  0  0  0  0  0  0
   29.8521   12.9478   28.5117 C   0  0  1  0  0  0  0  0  0  0  0  0
   24.6373    5.1684   31.1401 C   0  0  0  0  0  0  0  0  0  0  0  0
   25.7185    7.1820   32.1609 C   0  0  0  0  0  0  0  0  0  0  0  0
   33.7407   12.5899   27.8163 C   0  0  1  0  0  0  0  0  0  0  0  0
   26.4176   12.8118   28.0256 C   0  0  0  0  0  0  0  0  0  0  0  0
   27.4688   11.9373   30.1591 C   0  0  0  0  0  0  0  0  0  0  0  0
   22.1547    5.5183   30.7824 C   0  0  2  0  0  0  0  0  0  0  0  0
   23.2262    4.7004   31.5070 C   0  0  0  0  0  0  0  0  0  0  0  0
   33.8168   11.8219   26.4632 C   0  0  0  0  0  0  0  0  0  0  0  0
   24.5785   11.0222   28.0941 C   0  0  0  0  0  0  0  0  0  0  0  0
   22.1694    5.1669   29.3972 O   0  0  0  0  0  0  0  0  0  0  0  0
   24.9682   12.4727   28.4083 C   0  0  0  0  0  0  0  0  0  0  0  0
   29.3510   14.3782   28.3012 C   0  0  0  0  0  0  0  0  0  0  0  0
   34.3037   14.0142   27.7237 C   0  0  0  0  0  0  0  0  0  0  0  0
   35.2316   11.8297   25.8685 C   0  0  0  0  0  0  0  0  0  0  0  0
   33.3682   10.3621   26.6226 C   0  0  0  0  0  0  0  0  0  0  0  0
   26.9452   10.3861   27.0451 H   0  0  0  0  0  0  0  0  0  0  0  0
   28.7482   12.0101   26.9152 H   0  0  0  0  0  0  0  0  0  0  0  0
   23.1734    8.9942   29.3826 H   0  0  0  0  0  0  0  0  0  0  0  0
   26.1601    8.2908   29.6472 H   0  0  0  0  0  0  0  0  0  0  0  0
   31.1691   12.8854   26.7188 H   0  0  0  0  0  0  0  0  0  0  0  0
   32.3584   12.6490   29.5366 H   0  0  0  0  0  0  0  0  0  0  0  0
   28.2434    8.6057   27.8907 H   0  0  0  0  0  0  0  0  0  0  0  0
   28.2151    9.2198   29.5470 H   0  0  0  0  0  0  0  0  0  0  0  0
   30.1166   10.3687   29.0462 H   0  0  0  0  0  0  0  0  0  0  0  0
   29.9361   10.0928   27.3099 H   0  0  0  0  0  0  0  0  0  0  0  0
   22.1401    7.2965   32.0161 H   0  0  0  0  0  0  0  0  0  0  0  0
   21.6480    7.5767   30.3455 H   0  0  0  0  0  0  0  0  0  0  0  0
   30.0100   12.8058   29.5885 H   0  0  0  0  0  0  0  0  0  0  0  0
   24.8519    4.9299   30.0906 H   0  0  0  0  0  0  0  0  0  0  0  0
   25.3648    4.6098   31.7412 H   0  0  0  0  0  0  0  0  0  0  0  0
   26.4363    6.5543   32.6793 H   0  0  0  0  0  0  0  0  0  0  0  0
   25.7876    8.2528   32.3300 H   0  0  0  0  0  0  0  0  0  0  0  0
   34.3685   12.0404   28.5325 H   0  0  0  0  0  0  0  0  0  0  0  0
   26.4974   12.8202   26.9311 H   0  0  0  0  0  0  0  0  0  0  0  0
   26.6291   13.8309   28.3594 H   0  0  0  0  0  0  0  0  0  0  0  0
   27.6712   12.9711   30.4578 H   0  0  0  0  0  0  0  0  0  0  0  0
   28.2480   11.3144   30.6102 H   0  0  0  0  0  0  0  0  0  0  0  0
   26.5229   11.6498   30.6280 H   0  0  0  0  0  0  0  0  0  0  0  0
   21.1671    5.2391   31.1666 H   0  0  0  0  0  0  0  0  0  0  0  0
   23.1284    3.6392   31.2502 H   0  0  0  0  0  0  0  0  0  0  0  0
   23.0830    4.7929   32.5908 H   0  0  0  0  0  0  0  0  0  0  0  0
   33.1567   12.3029   25.7304 H   0  0  0  0  0  0  0  0  0  0  0  0
   24.4989   10.9027   27.0057 H   0  0  0  0  0  0  0  0  0  0  0  0
   23.5767   10.8487   28.4955 H   0  0  0  0  0  0  0  0  0  0  0  0
   21.6030    5.7975   28.9214 H   0  0  0  0  0  0  0  0  0  0  0  0
   24.2898   13.1500   27.8754 H   0  0  0  0  0  0  0  0  0  0  0  0
   24.8142   12.6662   29.4766 H   0  0  0  0  0  0  0  0  0  0  0  0
   28.9953   14.5335   27.2768 H   0  0  0  0  0  0  0  0  0  0  0  0
   28.5382   14.6178   28.9912 H   0  0  0  0  0  0  0  0  0  0  0  0
   30.1446   15.1101   28.4940 H   0  0  0  0  0  0  0  0  0  0  0  0
   35.3798   14.0048   27.5237 H   0  0  0  0  0  0  0  0  0  0  0  0
   33.8123   14.5846   26.9275 H   0  0  0  0  0  0  0  0  0  0  0  0
   34.1628   14.5604   28.6641 H   0  0  0  0  0  0  0  0  0  0  0  0
   35.5364   12.8392   25.5767 H   0  0  0  0  0  0  0  0  0  0  0  0
   35.2787   11.2109   24.9657 H   0  0  0  0  0  0  0  0  0  0  0  0
   35.9646   11.4401   26.5830 H   0  0  0  0  0  0  0  0  0  0  0  0
   33.9983    9.8322   27.3455 H   0  0  0  0  0  0  0  0  0  0  0  0
   33.4327    9.8299   25.6673 H   0  0  0  0  0  0  0  0  0  0  0  0
   32.3320   10.2900   26.9615 H   0  0  0  0  0  0  0  0  0  0  0  0
  2  1  1  0
  3  5  2  0
  4  1  1  0
  5  8  1  0
  6  3  1  0
  7  2  1  0
  8  7  2  0
  9 14  1  0
 10  9  2  0
  2 11  1  0
  4 12  1  0
 13  3  1  0
 14  4  1  0
 15  6  1  0
 16  6  2  0
 17 10  1  0
 18  1  1  0
  1 19  1  1
 20 13  1  0
 21 20  1  0
 22 17  1  0
 23  7  1  0
 20 24  1  0
 25 18  1  0
 14 26  1  0
 17 27  1  0
 28 22  1  0
 29 22  1  0
 23 25  1  0
 12 11  1  0
 15 21  1  0
  2 30  1  6
  4 31  1  6
  5 32  1  0
  8 33  1  0
  9 34  1  0
 10 35  1  0
 11 36  1  0
 11 37  1  0
 12 38  1  0
 12 39  1  0
 13 40  1  0
 13 41  1  0
 14 42  1  1
 15 43  1  0
 15 44  1  0
 16 45  1  0
 16 46  1  0
 17 47  1  1
 18 48  1  0
 18 49  1  0
 19 50  1  0
 19 51  1  0
 19 52  1  0
 20 53  1  1
 21 54  1  0
 21 55  1  0
 22 56  1  0
 23 57  1  0
 23 58  1  0
 24 59  1  0
 25 60  1  0
 25 61  1  0
 26 62  1  0
 26 63  1  0
 26 64  1  0
 27 65  1  0
 27 66  1  0
 27 67  1  0
 28 68  1  0
 28 69  1  0
 28 70  1  0
 29 71  1  0
 29 72  1  0
 29 73  1  0
M  END
> <Uni-Dock RESULT> 
ENERGY=   -3.949  LOWER_BOUND=    6.235  UPPER_BOUND=   11.553
INTER + INTRA:          -3.949
INTER:                  -3.949
INTRA:                   0.000
UNBOUND:                 0.000

$$$$

     RDKit          3D

 73 75  0  0  1  0  0  0  0  0999 V2000
   22.5105    6.0641   31.4457 C   0  0  1  0  0  0  0  0  0  0  0  0
   23.4381    7.2720   31.7603 C   0  0  2  0  0  0  0  0  0  0  0  0
   23.7396   11.3782   28.8930 C   0  0  0  0  0  0  0  0  0  0  0  0
   23.3395    4.9119   32.0950 C   0  0  2  0  0  0  0  0  0  0  0  0
   23.1228   10.6542   29.8501 C   0  0  0  0  0  0  0  0  0  0  0  0
   24.9341   10.9840   28.1497 C   0  0  0  0  0  0  0  0  0  0  0  0
   22.8820    8.5822   31.2368 C   0  0  0  0  0  0  0  0  0  0  0  0
   23.5516    9.3718   30.3741 C   0  0  0  0  0  0  0  0  0  0  0  0
   23.9459    2.4846   32.4372 C   0  0  0  0  0  0  0  0  0  0  0  0
   24.7046    1.5703   31.8087 C   0  0  0  0  0  0  0  0  0  0  0  0
   24.8208    6.7679   31.3544 C   0  0  0  0  0  0  0  0  0  0  0  0
   24.8108    5.2875   31.7530 C   0  0  0  0  0  0  0  0  0  0  0  0
   23.2390   12.7598   28.5105 C   0  0  0  0  0  0  0  0  0  0  0  0
   23.0122    3.4428   31.7180 C   0  0  1  0  0  0  0  0  0  0  0  0
   26.0632   11.9852   28.2052 C   0  0  0  0  0  0  0  0  0  0  0  0
   24.9979    9.8618   27.4167 C   0  0  0  0  0  0  0  0  0  0  0  0
   25.6252    0.5513   32.4565 C   0  0  1  0  0  0  0  0  0  0  0  0
   21.1464    6.3432   32.1145 C   0  0  0  0  0  0  0  0  0  0  0  0
   22.3194    5.8355   29.9264 C   0  0  0  0  0  0  0  0  0  0  0  0
   24.3528   13.8220   28.5434 C   0  0  2  0  0  0  0  0  0  0  0  0
   25.5901   13.3728   27.7628 C   0  0  0  0  0  0  0  0  0  0  0  0
   26.3845    1.0389   33.7263 C   0  0  0  0  0  0  0  0  0  0  0  0
   21.5114    8.8676   31.8260 C   0  0  0  0  0  0  0  0  0  0  0  0
   24.7418   14.1200   29.8859 O   0  0  0  0  0  0  0  0  0  0  0  0
   20.5456    7.6857   31.6686 C   0  0  0  0  0  0  0  0  0  0  0  0
   21.5780    3.0347   32.0615 C   0  0  0  0  0  0  0  0  0  0  0  0
   24.8103   -0.7247   32.7048 C   0  0  0  0  0  0  0  0  0  0  0  0
   27.2474   -0.0671   34.3488 C   0  0  0  0  0  0  0  0  0  0  0  0
   27.2903    2.2378   33.4104 C   0  0  0  0  0  0  0  0  0  0  0  0
   23.4832    7.3985   32.8556 H   0  0  0  0  0  0  0  0  0  0  0  0
   23.2351    5.0041   33.1876 H   0  0  0  0  0  0  0  0  0  0  0  0
   22.2380   11.0855   30.3092 H   0  0  0  0  0  0  0  0  0  0  0  0
   24.5355    9.0524   30.0386 H   0  0  0  0  0  0  0  0  0  0  0  0
   23.9582    2.5484   33.5232 H   0  0  0  0  0  0  0  0  0  0  0  0
   24.6488    1.5061   30.7220 H   0  0  0  0  0  0  0  0  0  0  0  0
   25.6224    7.3150   31.8620 H   0  0  0  0  0  0  0  0  0  0  0  0
   24.9943    6.8548   30.2761 H   0  0  0  0  0  0  0  0  0  0  0  0
   25.2136    4.6847   30.9311 H   0  0  0  0  0  0  0  0  0  0  0  0
   25.4518    5.1239   32.6263 H   0  0  0  0  0  0  0  0  0  0  0  0
   22.8217   12.7072   27.4959 H   0  0  0  0  0  0  0  0  0  0  0  0
   22.4237   13.0713   29.1755 H   0  0  0  0  0  0  0  0  0  0  0  0
   23.1444    3.3149   30.6361 H   0  0  0  0  0  0  0  0  0  0  0  0
   26.4546   12.0299   29.2295 H   0  0  0  0  0  0  0  0  0  0  0  0
   26.8984   11.6737   27.5663 H   0  0  0  0  0  0  0  0  0  0  0  0
   25.8890    9.6046   26.8529 H   0  0  0  0  0  0  0  0  0  0  0  0
   24.1614    9.1712   27.3584 H   0  0  0  0  0  0  0  0  0  0  0  0
   26.3866    0.3066   31.7020 H   0  0  0  0  0  0  0  0  0  0  0  0
   21.2625    6.3572   33.2056 H   0  0  0  0  0  0  0  0  0  0  0  0
   20.4235    5.5546   31.8901 H   0  0  0  0  0  0  0  0  0  0  0  0
   21.5818    5.0484   29.7383 H   0  0  0  0  0  0  0  0  0  0  0  0
   23.2473    5.5309   29.4313 H   0  0  0  0  0  0  0  0  0  0  0  0
   21.9656    6.7333   29.4108 H   0  0  0  0  0  0  0  0  0  0  0  0
   23.9738   14.7553   28.1119 H   0  0  0  0  0  0  0  0  0  0  0  0
   26.4082   14.0877   27.9088 H   0  0  0  0  0  0  0  0  0  0  0  0
   25.3561   13.3522   26.6911 H   0  0  0  0  0  0  0  0  0  0  0  0
   25.6606    1.3509   34.4897 H   0  0  0  0  0  0  0  0  0  0  0  0
   21.6372    9.0847   32.8948 H   0  0  0  0  0  0  0  0  0  0  0  0
   21.0375    9.7498   31.3878 H   0  0  0  0  0  0  0  0  0  0  0  0
   23.9341   14.2495   30.4109 H   0  0  0  0  0  0  0  0  0  0  0  0
   19.6385    7.8832   32.2527 H   0  0  0  0  0  0  0  0  0  0  0  0
   20.2248    7.6165   30.6223 H   0  0  0  0  0  0  0  0  0  0  0  0
   21.3157    3.3112   33.0886 H   0  0  0  0  0  0  0  0  0  0  0  0
   20.8608    3.5018   31.3821 H   0  0  0  0  0  0  0  0  0  0  0  0
   21.4376    1.9518   31.9608 H   0  0  0  0  0  0  0  0  0  0  0  0
   25.4615   -1.5763   32.9257 H   0  0  0  0  0  0  0  0  0  0  0  0
   24.1173   -0.5966   33.5439 H   0  0  0  0  0  0  0  0  0  0  0  0
   24.2210   -0.9995   31.8217 H   0  0  0  0  0  0  0  0  0  0  0  0
   26.6305   -0.8778   34.7477 H   0  0  0  0  0  0  0  0  0  0  0  0
   27.8378    0.3230   35.1851 H   0  0  0  0  0  0  0  0  0  0  0  0
   27.9413   -0.4898   33.6143 H   0  0  0  0  0  0  0  0  0  0  0  0
   28.0367    1.9793   32.6513 H   0  0  0  0  0  0  0  0  0  0  0  0
   27.8246    2.5675   34.3081 H   0  0  0  0  0  0  0  0  0  0  0  0
   26.7186    3.0938   33.0439 H   0  0  0  0  0  0  0  0  0  0  0  0
  2  1  1  0
  3  5  2  0
  4  1  1  0
  5  8  1  0
  6  3  1  0
  7  2  1  0
  8  7  2  0
  9 14  1  0
 10  9  2  0
  2 11  1  0
  4 12  1  0
 13  3  1  0
 14  4  1  0
 15  6  1  0
 16  6  2  0
 17 10  1  0
 18  1  1  0
  1 19  1  1
 20 13  1  0
 21 20  1  0
 22 17  1  0
 23  7  1  0
 20 24  1  0
 25 18  1  0
 14 26  1  0
 17 27  1  0
 28 22  1  0
 29 22  1  0
 23 25  1  0
 12 11  1  0
 15 21  1  0
  2 30  1  6
  4 31  1  6
  5 32  1  0
  8 33  1  0
  9 34  1  0
 10 35  1  0
 11 36  1  0
 11 37  1  0
 12 38  1  0
 12 39  1  0
 13 40  1  0
 13 41  1  0
 14 42  1  1
 15 43  1  0
 15 44  1  0
 16 45  1  0
 16 46  1  0
 17 47  1  1
 18 48  1  0
 18 49  1  0
 19 50  1  0
 19 51  1  0
 19 52  1  0
 20 53  1  1
 21 54  1  0
 21 55  1  0
 22 56  1  0
 23 57  1  0
 23 58  1  0
 24 59  1  0
 25 60  1  0
 25 61  1  0
 26 62  1  0
 26 63  1  0
 26 64  1  0
 27 65  1  0
 27 66  1  0
 27 67  1  0
 28 68  1  0
 28 69  1  0
 28 70  1  0
 29 71  1  0
 29 72  1  0
 29 73  1  0
M  END
> <Uni-Dock RESULT> 
ENERGY=   -3.783  LOWER_BOUND=    5.808  UPPER_BOUND=    9.979
INTER + INTRA:          -3.783
INTER:                  -3.783
INTRA:                   0.000
UNBOUND:                 0.000

$$$$
