
     RDKit          3D

 49 50  0  0  0  0  0  0  0  0999 V2000
    0.8941   -0.3003   -0.8110 C   0  0  1  0  0  0  0  0  0  0  0  0
    1.8353    0.8717   -0.9754 C   0  0  0  0  0  0  0  0  0  0  0  0
    2.1022   -0.1454    0.0890 C   0  0  2  0  0  0  0  0  0  0  0  0
   -0.4913   -0.0938   -0.2456 C   0  0  0  0  0  0  0  0  0  0  0  0
    3.2371   -1.0533   -0.0742 N   0  0  0  0  0  0  0  0  0  0  0  0
   -0.9732   -0.8932    0.8048 C   0  0  0  0  0  0  0  0  0  0  0  0
   -1.3591    0.8830   -0.7644 C   0  0  0  0  0  0  0  0  0  0  0  0
   -2.6433    1.0672   -0.2447 C   0  0  0  0  0  0  0  0  0  0  0  0
   -2.2565   -0.7137    1.3282 C   0  0  0  0  0  0  0  0  0  0  0  0
   -3.0912    0.2691    0.8031 C   0  0  0  0  0  0  0  0  0  0  0  0
   -0.0689    0.2846    0.3524 S   0  0  0  0  0  0  0  0  0  0  0  0
   -1.1178    1.2672    0.2418 O   0  0  0  0  0  0  0  0  0  0  0  0
    0.7997    0.1638    1.4974 O   0  0  0  0  0  0  0  0  0  0  0  0
    0.8885    0.4204   -0.9285 O   0  0  0  0  0  0  0  0  0  0  0  0
   -0.7495   -1.1427    0.0759 O   0  0  0  0  0  0  0  0  0  0  0  0
    0.9974    0.5310   -0.3447 C   0  0  2  0  0  0  0  0  0  0  0  0
    1.9740   -0.5490   -0.7529 C   0  0  0  0  0  0  0  0  0  0  0  0
    2.0241    0.0049    0.6381 C   0  0  1  0  0  0  0  0  0  0  0  0
   -0.4645    0.1975   -0.1579 C   0  0  0  0  0  0  0  0  0  0  0  0
    3.1485    0.8515    1.0401 N   0  0  0  0  0  0  0  0  0  0  0  0
   -1.2145   -0.4094   -1.1801 C   0  0  0  0  0  0  0  0  0  0  0  0
   -1.1343    0.5096    1.0369 C   0  0  0  0  0  0  0  0  0  0  0  0
   -2.4883    0.2135    1.2121 C   0  0  0  0  0  0  0  0  0  0  0  0
   -2.5695   -0.7076   -1.0105 C   0  0  0  0  0  0  0  0  0  0  0  0
   -3.2061   -0.3947    0.1857 C   0  0  0  0  0  0  0  0  0  0  0  0
    0.9603   -1.0626   -1.5858 H   0  0  0  0  0  0  0  0  0  0  0  0
    1.5133    1.8571   -0.6594 H   0  0  0  0  0  0  0  0  0  0  0  0
    2.4706    0.8802   -1.8526 H   0  0  0  0  0  0  0  0  0  0  0  0
    1.9232    0.1738    1.1141 H   0  0  0  0  0  0  0  0  0  0  0  0
    3.1235   -1.8739    0.5198 H   0  0  0  0  0  0  0  0  0  0  0  0
    4.1001   -0.6055    0.2327 H   0  0  0  0  0  0  0  0  0  0  0  0
   -0.3350   -1.6705    1.2216 H   0  0  0  0  0  0  0  0  0  0  0  0
   -1.0265    1.5123   -1.5892 H   0  0  0  0  0  0  0  0  0  0  0  0
   -3.2913    1.8324   -0.6608 H   0  0  0  0  0  0  0  0  0  0  0  0
   -2.6025   -1.3446    2.1422 H   0  0  0  0  0  0  0  0  0  0  0  0
   -4.0898    0.4102    1.2075 H   0  0  0  0  0  0  0  0  0  0  0  0
    1.7432   -0.0013   -0.6948 H   0  0  0  0  0  0  0  0  0  0  0  0
   -1.4952   -0.9921   -0.5442 H   0  0  0  0  0  0  0  0  0  0  0  0
    1.1839    1.5192   -0.7591 H   0  0  0  0  0  0  0  0  0  0  0  0
    1.6134   -1.5677   -0.8705 H   0  0  0  0  0  0  0  0  0  0  0  0
    2.7531   -0.2782   -1.4560 H   0  0  0  0  0  0  0  0  0  0  0  0
    1.6615   -0.6484    1.4291 H   0  0  0  0  0  0  0  0  0  0  0  0
    3.4503    1.4576    0.2769 H   0  0  0  0  0  0  0  0  0  0  0  0
    3.9577    0.2766    1.2789 H   0  0  0  0  0  0  0  0  0  0  0  0
   -0.7340   -0.6556   -2.1249 H   0  0  0  0  0  0  0  0  0  0  0  0
   -0.5882    0.9958    1.8426 H   0  0  0  0  0  0  0  0  0  0  0  0
   -2.9791    0.4593    2.1524 H   0  0  0  0  0  0  0  0  0  0  0  0
   -3.1256   -1.1815   -1.8168 H   0  0  0  0  0  0  0  0  0  0  0  0
   -4.2598   -0.6245    0.3192 H   0  0  0  0  0  0  0  0  0  0  0  0
  2  1  1  0
  3  1  1  0
  1  4  1  0
  3  5  1  0
  6  4  2  0
  7  4  1  0
  8  7  2  0
  9  6  1  0
 10  9  2  0
  3  2  1  0
  8 10  1  0
 12 11  2  0
 13 11  2  0
 14 11  1  0
 15 11  1  0
 17 16  1  0
 18 16  1  0
 16 19  1  0
 18 20  1  0
 21 19  2  0
 22 19  1  0
 23 22  2  0
 24 21  1  0
 25 24  2  0
 18 17  1  0
 23 25  1  0
  1 26  1  6
  2 27  1  0
  2 28  1  0
  3 29  1  1
  5 30  1  0
  5 31  1  0
  6 32  1  0
  7 33  1  0
  8 34  1  0
  9 35  1  0
 10 36  1  0
 14 37  1  0
 15 38  1  0
 16 39  1  6
 17 40  1  0
 17 41  1  0
 18 42  1  1
 20 43  1  0
 20 44  1  0
 21 45  1  0
 22 46  1  0
 23 47  1  0
 24 48  1  0
 25 49  1  0
M  END
$$$$
