
     RDKit          3D

 49 50  0  0  0  0  0  0  0  0999 V2000
    1.1116   -0.3530   -0.1730 C   0  0  1  0  0  0  0  0  0  0  0  0
    2.0370    0.8372   -0.2605 C   0  0  0  0  0  0  0  0  0  0  0  0
    2.0002    0.0211    0.9917 C   0  0  2  0  0  0  0  0  0  0  0  0
   -0.3815   -0.1232   -0.1262 C   0  0  0  0  0  0  0  0  0  0  0  0
    3.1495   -0.8187    1.3318 N   0  0  0  0  0  0  0  0  0  0  0  0
   -1.1485   -0.4173    1.0112 C   0  0  0  0  0  0  0  0  0  0  0  0
   -1.0634    0.3694   -1.2509 C   0  0  0  0  0  0  0  0  0  0  0  0
   -2.4453    0.5750   -1.2360 C   0  0  0  0  0  0  0  0  0  0  0  0
   -2.5307   -0.2073    1.0367 C   0  0  0  0  0  0  0  0  0  0  0  0
   -3.1789    0.2899   -0.0868 C   0  0  0  0  0  0  0  0  0  0  0  0
    0.0781    0.4522   -0.0225 S   0  0  0  0  0  0  0  0  0  0  0  0
   -0.3496    1.1648   -1.1996 O   0  0  0  0  0  0  0  0  0  0  0  0
    0.7802    1.0661    1.0752 O   0  0  0  0  0  0  0  0  0  0  0  0
    0.9707   -0.7990   -0.4868 O   0  0  0  0  0  0  0  0  0  0  0  0
   -1.2191   -0.2953    0.5576 O   0  0  0  0  0  0  0  0  0  0  0  0
    1.0340    0.6661   -0.0356 C   0  0  2  0  0  0  0  0  0  0  0  0
    1.9550    0.3021   -1.1754 C   0  0  0  0  0  0  0  0  0  0  0  0
    2.0987   -0.3958    0.1401 C   0  0  1  0  0  0  0  0  0  0  0  0
   -0.4208    0.2559   -0.0318 C   0  0  0  0  0  0  0  0  0  0  0  0
    3.2791   -0.1316    0.9619 N   0  0  0  0  0  0  0  0  0  0  0  0
   -1.2055    0.2642   -1.1988 C   0  0  0  0  0  0  0  0  0  0  0  0
   -1.0543   -0.1153    1.1683 C   0  0  0  0  0  0  0  0  0  0  0  0
   -2.4053   -0.4710    1.2012 C   0  0  0  0  0  0  0  0  0  0  0  0
   -2.5550   -0.0993   -1.1730 C   0  0  0  0  0  0  0  0  0  0  0  0
   -3.1555   -0.4649    0.0285 C   0  0  0  0  0  0  0  0  0  0  0  0
    1.4123   -1.2231   -0.7516 H   0  0  0  0  0  0  0  0  0  0  0  0
    1.6146    1.8372   -0.2094 H   0  0  0  0  0  0  0  0  0  0  0  0
    2.9040    0.7654   -0.9078 H   0  0  0  0  0  0  0  0  0  0  0  0
    1.5415    0.5075    1.8442 H   0  0  0  0  0  0  0  0  0  0  0  0
    2.8556   -1.6129    1.8980 H   0  0  0  0  0  0  0  0  0  0  0  0
    3.5877   -1.2114    0.4981 H   0  0  0  0  0  0  0  0  0  0  0  0
   -0.6639   -0.8150    1.8957 H   0  0  0  0  0  0  0  0  0  0  0  0
   -0.5053    0.5972   -2.1559 H   0  0  0  0  0  0  0  0  0  0  0  0
   -2.9440    0.9620   -2.1117 H   0  0  0  0  0  0  0  0  0  0  0  0
   -3.0990   -0.4323    1.9363 H   0  0  0  0  0  0  0  0  0  0  0  0
   -4.2533    0.4525   -0.0683 H   0  0  0  0  0  0  0  0  0  0  0  0
    1.5233   -1.0575    0.2811 H   0  0  0  0  0  0  0  0  0  0  0  0
   -1.7836   -0.5313   -0.2051 H   0  0  0  0  0  0  0  0  0  0  0  0
    1.2263    1.6374    0.4210 H   0  0  0  0  0  0  0  0  0  0  0  0
    1.5795   -0.2870   -2.0063 H   0  0  0  0  0  0  0  0  0  0  0  0
    2.7092    1.0236   -1.4649 H   0  0  0  0  0  0  0  0  0  0  0  0
    1.7721   -1.4361    0.1589 H   0  0  0  0  0  0  0  0  0  0  0  0
    3.4631    0.8615    1.0511 H   0  0  0  0  0  0  0  0  0  0  0  0
    3.1372   -0.4773    1.9102 H   0  0  0  0  0  0  0  0  0  0  0  0
   -0.7599    0.5602   -2.1492 H   0  0  0  0  0  0  0  0  0  0  0  0
   -0.4842   -0.1190    2.0948 H   0  0  0  0  0  0  0  0  0  0  0  0
   -2.8705   -0.7453    2.1427 H   0  0  0  0  0  0  0  0  0  0  0  0
   -3.1369   -0.0875   -2.0937 H   0  0  0  0  0  0  0  0  0  0  0  0
   -4.2061   -0.7409    0.0503 H   0  0  0  0  0  0  0  0  0  0  0  0
  2  1  1  0
  3  1  1  0
  1  4  1  0
  3  5  1  0
  6  4  2  0
  7  4  1  0
  8  7  2  0
  9  6  1  0
 10  9  2  0
  3  2  1  0
  8 10  1  0
 12 11  2  0
 13 11  2  0
 14 11  1  0
 15 11  1  0
 17 16  1  0
 18 16  1  0
 16 19  1  0
 18 20  1  0
 21 19  2  0
 22 19  1  0
 23 22  2  0
 24 21  1  0
 25 24  2  0
 18 17  1  0
 23 25  1  0
  1 26  1  6
  2 27  1  0
  2 28  1  0
  3 29  1  1
  5 30  1  0
  5 31  1  0
  6 32  1  0
  7 33  1  0
  8 34  1  0
  9 35  1  0
 10 36  1  0
 14 37  1  0
 15 38  1  0
 16 39  1  1
 17 40  1  0
 17 41  1  0
 18 42  1  6
 20 43  1  0
 20 44  1  0
 21 45  1  0
 22 46  1  0
 23 47  1  0
 24 48  1  0
 25 49  1  0
M  END
$$$$
