
     RDKit          3D

 49 50  0  0  0  0  0  0  0  0999 V2000
   -1.0466    0.0324   -0.6433 C   0  0  1  0  0  0  0  0  0  0  0  0
   -2.1155   -0.8651   -0.0618 C   0  0  0  0  0  0  0  0  0  0  0  0
   -2.0271    0.5617    0.3849 C   0  0  2  0  0  0  0  0  0  0  0  0
    0.4046   -0.1354   -0.2573 C   0  0  0  0  0  0  0  0  0  0  0  0
   -3.0733    1.5039   -0.0130 N   0  0  0  0  0  0  0  0  0  0  0  0
    1.2064    0.9844    0.0250 C   0  0  0  0  0  0  0  0  0  0  0  0
    1.0153   -1.3996   -0.1908 C   0  0  0  0  0  0  0  0  0  0  0  0
    2.3603   -1.5418    0.1620 C   0  0  0  0  0  0  0  0  0  0  0  0
    2.5528    0.8494    0.3737 C   0  0  0  0  0  0  0  0  0  0  0  0
    3.1289   -0.4157    0.4456 C   0  0  0  0  0  0  0  0  0  0  0  0
   -0.0469    0.3981    0.2200 S   0  0  0  0  0  0  0  0  0  0  0  0
   -0.4602    0.3671    1.6009 O   0  0  0  0  0  0  0  0  0  0  0  0
    0.2227    1.6123   -0.5062 O   0  0  0  0  0  0  0  0  0  0  0  0
    1.2530   -0.5282    0.0580 O   0  0  0  0  0  0  0  0  0  0  0  0
   -1.1349   -0.4502   -0.5987 O   0  0  0  0  0  0  0  0  0  0  0  0
    1.0273    0.6247   -0.3208 C   0  0  2  0  0  0  0  0  0  0  0  0
    1.9712   -0.1786   -1.1861 C   0  0  0  0  0  0  0  0  0  0  0  0
    2.1043   -0.2383    0.3033 C   0  0  1  0  0  0  0  0  0  0  0  0
   -0.4247    0.2206   -0.2195 C   0  0  0  0  0  0  0  0  0  0  0  0
    3.2687    0.3772    0.9398 N   0  0  0  0  0  0  0  0  0  0  0  0
   -1.0246   -0.0565    1.0207 C   0  0  0  0  0  0  0  0  0  0  0  0
   -1.2375    0.1388   -1.3632 C   0  0  0  0  0  0  0  0  0  0  0  0
   -2.5850   -0.2208   -1.2759 C   0  0  0  0  0  0  0  0  0  0  0  0
   -2.3711   -0.4184    1.1148 C   0  0  0  0  0  0  0  0  0  0  0  0
   -3.1509   -0.5016   -0.0353 C   0  0  0  0  0  0  0  0  0  0  0  0
   -1.2043    0.3412   -1.6753 H   0  0  0  0  0  0  0  0  0  0  0  0
   -1.8364   -1.6292    0.6565 H   0  0  0  0  0  0  0  0  0  0  0  0
   -2.9357   -1.1588   -0.7066 H   0  0  0  0  0  0  0  0  0  0  0  0
   -1.6561    0.7180    1.3974 H   0  0  0  0  0  0  0  0  0  0  0  0
   -3.3924    1.3314   -0.9657 H   0  0  0  0  0  0  0  0  0  0  0  0
   -2.7152    2.4585   -0.0066 H   0  0  0  0  0  0  0  0  0  0  0  0
    0.7722    1.9808   -0.0287 H   0  0  0  0  0  0  0  0  0  0  0  0
    0.4337   -2.2917   -0.4161 H   0  0  0  0  0  0  0  0  0  0  0  0
    2.8050   -2.5327    0.2127 H   0  0  0  0  0  0  0  0  0  0  0  0
    3.1488    1.7329    0.5882 H   0  0  0  0  0  0  0  0  0  0  0  0
    4.1748   -0.5245    0.7193 H   0  0  0  0  0  0  0  0  0  0  0  0
    1.6761   -0.2867   -0.7920 H   0  0  0  0  0  0  0  0  0  0  0  0
   -1.5098   -1.1124    0.0179 H   0  0  0  0  0  0  0  0  0  0  0  0
    1.1955    1.6998   -0.3133 H   0  0  0  0  0  0  0  0  0  0  0  0
    2.7200    0.3575   -1.7559 H   0  0  0  0  0  0  0  0  0  0  0  0
    1.6038   -1.0691   -1.6821 H   0  0  0  0  0  0  0  0  0  0  0  0
    1.7981   -1.1762    0.7629 H   0  0  0  0  0  0  0  0  0  0  0  0
    3.4072    1.3374    0.6256 H   0  0  0  0  0  0  0  0  0  0  0  0
    3.1387    0.4266    1.9516 H   0  0  0  0  0  0  0  0  0  0  0  0
   -0.4320    0.0092    1.9310 H   0  0  0  0  0  0  0  0  0  0  0  0
   -0.8120    0.3606   -2.3398 H   0  0  0  0  0  0  0  0  0  0  0  0
   -3.1897   -0.2791   -2.1769 H   0  0  0  0  0  0  0  0  0  0  0  0
   -2.8093   -0.6311    2.0872 H   0  0  0  0  0  0  0  0  0  0  0  0
   -4.1981   -0.7827    0.0355 H   0  0  0  0  0  0  0  0  0  0  0  0
  2  1  1  0
  3  1  1  0
  1  4  1  0
  3  5  1  0
  6  4  2  0
  7  4  1  0
  8  7  2  0
  9  6  1  0
 10  9  2  0
  3  2  1  0
  8 10  1  0
 12 11  2  0
 13 11  2  0
 14 11  1  0
 15 11  1  0
 17 16  1  0
 18 16  1  0
 16 19  1  0
 18 20  1  0
 21 19  2  0
 22 19  1  0
 23 22  2  0
 24 21  1  0
 25 24  2  0
 18 17  1  0
 23 25  1  0
  1 26  1  6
  2 27  1  0
  2 28  1  0
  3 29  1  1
  5 30  1  0
  5 31  1  0
  6 32  1  0
  7 33  1  0
  8 34  1  0
  9 35  1  0
 10 36  1  0
 14 37  1  0
 15 38  1  0
 16 39  1  6
 17 40  1  0
 17 41  1  0
 18 42  1  1
 20 43  1  0
 20 44  1  0
 21 45  1  0
 22 46  1  0
 23 47  1  0
 24 48  1  0
 25 49  1  0
M  END
$$$$
