
     RDKit          3D

 49 50  0  0  0  0  0  0  0  0999 V2000
   -0.9580   -0.6110    0.4486 C   0  0  1  0  0  0  0  0  0  0  0  0
   -1.9266    0.3655    1.0767 C   0  0  0  0  0  0  0  0  0  0  0  0
   -2.0589    0.0246   -0.3747 C   0  0  2  0  0  0  0  0  0  0  0  0
    0.4808   -0.2106    0.2205 C   0  0  0  0  0  0  0  0  0  0  0  0
   -3.1889   -0.7865   -0.8277 N   0  0  0  0  0  0  0  0  0  0  0  0
    1.2897    0.2468    1.2740 C   0  0  0  0  0  0  0  0  0  0  0  0
    1.0718   -0.3131   -1.0499 C   0  0  0  0  0  0  0  0  0  0  0  0
    2.4058    0.0428   -1.2648 C   0  0  0  0  0  0  0  0  0  0  0  0
    2.6247    0.6039    1.0658 C   0  0  0  0  0  0  0  0  0  0  0  0
    3.1819    0.5036   -0.2055 C   0  0  0  0  0  0  0  0  0  0  0  0
    0.1023    0.4350   -0.0898 S   0  0  0  0  0  0  0  0  0  0  0  0
    0.9530    1.1369    0.8370 O   0  0  0  0  0  0  0  0  0  0  0  0
   -0.4445    1.0269   -1.2840 O   0  0  0  0  0  0  0  0  0  0  0  0
    0.8864   -0.9024   -0.5020 O   0  0  0  0  0  0  0  0  0  0  0  0
   -1.1391   -0.1732    0.7242 O   0  0  0  0  0  0  0  0  0  0  0  0
   -0.9918   -0.7233   -0.1750 C   0  0  2  0  0  0  0  0  0  0  0  0
   -2.0468    0.0438   -0.9382 C   0  0  0  0  0  0  0  0  0  0  0  0
   -2.0378    0.0894    0.5574 C   0  0  1  0  0  0  0  0  0  0  0  0
    0.4464   -0.2616   -0.1921 C   0  0  0  0  0  0  0  0  0  0  0  0
   -3.0982   -0.6035    1.2883 N   0  0  0  0  0  0  0  0  0  0  0  0
    1.1281   -0.0320   -1.3990 C   0  0  0  0  0  0  0  0  0  0  0  0
    1.1662   -0.0782    1.0004 C   0  0  0  0  0  0  0  0  0  0  0  0
    2.5016    0.3335    0.9909 C   0  0  0  0  0  0  0  0  0  0  0  0
    2.4633    0.3805   -1.4156 C   0  0  0  0  0  0  0  0  0  0  0  0
    3.1495    0.5648   -0.2188 C   0  0  0  0  0  0  0  0  0  0  0  0
   -1.0965   -1.6567    0.7154 H   0  0  0  0  0  0  0  0  0  0  0  0
   -2.6504   -0.0287    1.7797 H   0  0  0  0  0  0  0  0  0  0  0  0
   -1.5779    1.3622    1.3241 H   0  0  0  0  0  0  0  0  0  0  0  0
   -1.7637    0.7998   -1.0800 H   0  0  0  0  0  0  0  0  0  0  0  0
   -4.0125   -0.2031   -0.9709 H   0  0  0  0  0  0  0  0  0  0  0  0
   -3.4552   -1.4807   -0.1310 H   0  0  0  0  0  0  0  0  0  0  0  0
    0.8719    0.3253    2.2752 H   0  0  0  0  0  0  0  0  0  0  0  0
    0.4793   -0.6784   -1.8869 H   0  0  0  0  0  0  0  0  0  0  0  0
    2.8357   -0.0430   -2.2590 H   0  0  0  0  0  0  0  0  0  0  0  0
    3.2274    0.9574    1.8982 H   0  0  0  0  0  0  0  0  0  0  0  0
    4.2197    0.7800   -0.3700 H   0  0  0  0  0  0  0  0  0  0  0  0
    1.4771   -1.1329    0.2447 H   0  0  0  0  0  0  0  0  0  0  0  0
   -1.8352   -0.3903    0.0700 H   0  0  0  0  0  0  0  0  0  0  0  0
   -1.1212   -1.8039   -0.1547 H   0  0  0  0  0  0  0  0  0  0  0  0
   -2.8204   -0.5311   -1.4344 H   0  0  0  0  0  0  0  0  0  0  0  0
   -1.7628    0.9460   -1.4671 H   0  0  0  0  0  0  0  0  0  0  0  0
   -1.7184    1.0287    1.0052 H   0  0  0  0  0  0  0  0  0  0  0  0
   -3.9267   -0.0136    1.3620 H   0  0  0  0  0  0  0  0  0  0  0  0
   -2.8050   -0.8005    2.2447 H   0  0  0  0  0  0  0  0  0  0  0  0
    0.6089   -0.1795   -2.3437 H   0  0  0  0  0  0  0  0  0  0  0  0
    0.6770   -0.2636    1.9543 H   0  0  0  0  0  0  0  0  0  0  0  0
    3.0345    0.4679    1.9285 H   0  0  0  0  0  0  0  0  0  0  0  0
    2.9651    0.5531   -2.3638 H   0  0  0  0  0  0  0  0  0  0  0  0
    4.1884    0.8829   -0.2294 H   0  0  0  0  0  0  0  0  0  0  0  0
  2  1  1  0
  3  1  1  0
  1  4  1  0
  3  5  1  0
  6  4  2  0
  7  4  1  0
  8  7  2  0
  9  6  1  0
 10  9  2  0
  3  2  1  0
  8 10  1  0
 12 11  2  0
 13 11  2  0
 14 11  1  0
 15 11  1  0
 17 16  1  0
 18 16  1  0
 16 19  1  0
 18 20  1  0
 21 19  2  0
 22 19  1  0
 23 22  2  0
 24 21  1  0
 25 24  2  0
 18 17  1  0
 23 25  1  0
  1 26  1  1
  2 27  1  0
  2 28  1  0
  3 29  1  6
  5 30  1  0
  5 31  1  0
  6 32  1  0
  7 33  1  0
  8 34  1  0
  9 35  1  0
 10 36  1  0
 14 37  1  0
 15 38  1  0
 16 39  1  1
 17 40  1  0
 17 41  1  0
 18 42  1  6
 20 43  1  0
 20 44  1  0
 21 45  1  0
 22 46  1  0
 23 47  1  0
 24 48  1  0
 25 49  1  0
M  END
$$$$
