
     RDKit          2D

 25 26  0  0  0  0  0  0  0  0999 V2000
    3.2126   -3.0161    0.0000 C   0  0  0  0  0  0  0  0  0  0  0  0
    3.6398   -2.3104    0.0000 C   0  0  0  0  0  0  0  0  0  0  0  0
    4.0383   -3.0209    0.0000 C   0  0  0  0  0  0  0  0  0  0  0  0
    2.5788   -3.4242    0.0000 C   0  0  0  0  0  0  0  0  0  0  0  0
    4.7585   -3.4386    0.0000 N   0  0  0  0  0  0  0  0  0  0  0  0
    1.8777   -3.0017    0.0000 C   0  0  0  0  0  0  0  0  0  0  0  0
    2.5595   -4.2501    0.0000 C   0  0  0  0  0  0  0  0  0  0  0  0
    1.8538   -4.6630    0.0000 C   0  0  0  0  0  0  0  0  0  0  0  0
    1.1479   -3.4051    0.0000 C   0  0  0  0  0  0  0  0  0  0  0  0
    1.1479   -4.2406    0.0000 C   0  0  0  0  0  0  0  0  0  0  0  0
    6.2563   -1.1572    0.0000 S   0  0  0  0  0  0  0  0  0  0  0  0
    6.6596   -0.4369    0.0000 O   0  0  0  0  0  0  0  0  0  0  0  0
    5.8386   -0.4369    0.0000 O   0  0  0  0  0  0  0  0  0  0  0  0
    5.5505   -1.5605    0.0000 O   0  0  0  0  0  0  0  0  0  0  0  0
    6.9621   -1.5605    0.0000 O   0  0  0  0  0  0  0  0  0  0  0  0
    2.5832   -0.3937    0.0000 C   0  0  0  0  0  0  0  0  0  0  0  0
    3.0104    0.3120    0.0000 C   0  0  0  0  0  0  0  0  0  0  0  0
    3.4090   -0.3984    0.0000 C   0  0  0  0  0  0  0  0  0  0  0  0
    1.9494   -0.8018    0.0000 C   0  0  0  0  0  0  0  0  0  0  0  0
    4.1291   -0.8162    0.0000 N   0  0  0  0  0  0  0  0  0  0  0  0
    1.2483   -0.3793    0.0000 C   0  0  0  0  0  0  0  0  0  0  0  0
    1.9302   -1.6276    0.0000 C   0  0  0  0  0  0  0  0  0  0  0  0
    1.2244   -2.0406    0.0000 C   0  0  0  0  0  0  0  0  0  0  0  0
    0.5185   -0.7827    0.0000 C   0  0  0  0  0  0  0  0  0  0  0  0
    0.5185   -1.6181    0.0000 C   0  0  0  0  0  0  0  0  0  0  0  0
  2  1  1  0
  3  1  1  0
  1  4  1  1
  3  5  1  6
  6  4  2  0
  7  4  1  0
  8  7  2  0
  9  6  1  0
 10  9  2  0
  3  2  1  0
  8 10  1  0
 12 11  2  0
 13 11  2  0
 14 11  1  0
 15 11  1  0
 17 16  1  0
 18 16  1  0
 16 19  1  6
 18 20  1  1
 21 19  2  0
 22 19  1  0
 23 22  2  0
 24 21  1  0
 25 24  2  0
 18 17  1  0
 23 25  1  0
M  END
> <chembl_id>
CHEMBL3989698

> <chembl_pref_name>
TRANYLCYPROMINE SULFATE
