
     RDKit          3D

 25 26  0  0  0  0  0  0  0  0999 V2000
    1.2547   -0.2082    0.9233 C   0  0  1  0  0  0  0  0  0  0  0  0
    2.0805   -1.3271    0.4167 C   0  0  0  0  0  0  0  0  0  0  0  0
    2.1911    0.0191   -0.2973 C   0  0  2  0  0  0  0  0  0  0  0  0
   -0.1749   -0.0674    0.4928 C   0  0  0  0  0  0  0  0  0  0  0  0
    3.3557    0.8212   -0.0311 N   0  0  0  0  0  0  0  0  0  0  0  0
   -0.7026    1.2021    0.3995 C   0  0  0  0  0  0  0  0  0  0  0  0
   -0.9421   -1.1737    0.1979 C   0  0  0  0  0  0  0  0  0  0  0  0
   -2.2663   -0.9604   -0.1964 C   0  0  0  0  0  0  0  0  0  0  0  0
   -2.0025    1.3809    0.0107 C   0  0  0  0  0  0  0  0  0  0  0  0
   -2.7936    0.3136   -0.2893 C   0  0  0  0  0  0  0  0  0  0  0  0
    0.0085    0.0543   -0.0003 S   0  0  0  0  0  0  0  0  0  0  0  0
   -0.2542    1.2217   -0.9070 O   0  0  0  0  0  0  0  0  0  0  0  0
    0.0784    0.4751    1.4451 O   0  0  0  0  0  0  0  0  0  0  0  0
   -1.2707   -1.0271   -0.1572 O   0  0  0  0  0  0  0  0  0  0  0  0
    1.4379   -0.7240   -0.3806 O   0  0  0  0  0  0  0  0  0  0  0  0
   -1.3235    0.3022   -0.5298 C   0  0  2  0  0  0  0  0  0  0  0  0
   -1.9692    0.8609    0.7642 C   0  0  0  0  0  0  0  0  0  0  0  0
   -2.2610   -0.5548    0.2837 C   0  0  1  0  0  0  0  0  0  0  0  0
    0.1417    0.1363   -0.3891 C   0  0  0  0  0  0  0  0  0  0  0  0
   -3.6013   -0.6368   -0.3101 N   0  0  0  0  0  0  0  0  0  0  0  0
    0.8474    1.0261    0.3954 C   0  0  0  0  0  0  0  0  0  0  0  0
    0.8200   -0.8854   -1.0224 C   0  0  0  0  0  0  0  0  0  0  0  0
    2.2023   -1.0113   -0.8670 C   0  0  0  0  0  0  0  0  0  0  0  0
    2.2273    0.8899    0.5428 C   0  0  0  0  0  0  0  0  0  0  0  0
    2.9164   -0.1271   -0.0851 C   0  0  0  0  0  0  0  0  0  0  0  0
  2  1  1  0
  3  1  1  0
  1  4  1  6
  3  5  1  1
  6  4  2  0
  7  4  1  0
  8  7  2  0
  9  6  1  0
 10  9  2  0
  3  2  1  0
  8 10  1  0
 12 11  2  0
 13 11  2  0
 14 11  1  0
 15 11  1  0
 17 16  1  0
 18 16  1  0
 16 19  1  1
 18 20  1  6
 21 19  2  0
 22 19  1  0
 23 22  2  0
 24 21  1  0
 25 24  2  0
 18 17  1  0
 23 25  1  0
M  END
