
     RDKit          3D

 49 50  0  0  0  0  0  0  0  0999 V2000
    1.0680    0.2153   -0.5603 C   0  0  1  0  0  0  0  0  0  0  0  0
    2.0076    1.0224    0.3083 C   0  0  0  0  0  0  0  0  0  0  0  0
    2.0655   -0.4737    0.3493 C   0  0  2  0  0  0  0  0  0  0  0  0
   -0.4067    0.1534   -0.2363 C   0  0  0  0  0  0  0  0  0  0  0  0
    3.2252   -1.1590   -0.2201 N   0  0  0  0  0  0  0  0  0  0  0  0
   -1.0806   -1.0764   -0.1494 C   0  0  0  0  0  0  0  0  0  0  0  0
   -1.1654    1.3196   -0.0407 C   0  0  0  0  0  0  0  0  0  0  0  0
   -2.5321    1.2617    0.2457 C   0  0  0  0  0  0  0  0  0  0  0  0
   -2.4474   -1.1431    0.1355 C   0  0  0  0  0  0  0  0  0  0  0  0
   -3.1727    0.0284    0.3350 C   0  0  0  0  0  0  0  0  0  0  0  0
   -0.0600    0.4365    0.1213 S   0  0  0  0  0  0  0  0  0  0  0  0
    0.4782    0.8647    1.3876 O   0  0  0  0  0  0  0  0  0  0  0  0
   -0.7572    1.3077   -0.7902 O   0  0  0  0  0  0  0  0  0  0  0  0
   -1.0244   -0.8194    0.3797 O   0  0  0  0  0  0  0  0  0  0  0  0
    1.1479   -0.2605   -0.6710 O   0  0  0  0  0  0  0  0  0  0  0  0
   -0.9727    0.6200   -0.2790 C   0  0  2  0  0  0  0  0  0  0  0  0
   -1.8197    0.7754    0.9635 C   0  0  0  0  0  0  0  0  0  0  0  0
   -2.0884   -0.3578    0.0218 C   0  0  1  0  0  0  0  0  0  0  0  0
    0.4717    0.1939   -0.1615 C   0  0  0  0  0  0  0  0  0  0  0  0
   -3.2976   -0.3457   -0.8014 N   0  0  0  0  0  0  0  0  0  0  0  0
    1.4009    0.9671    0.5530 C   0  0  0  0  0  0  0  0  0  0  0  0
    0.9495   -0.9642   -0.7967 C   0  0  0  0  0  0  0  0  0  0  0  0
    2.2936   -1.3385   -0.7167 C   0  0  0  0  0  0  0  0  0  0  0  0
    2.7469    0.6012    0.6330 C   0  0  0  0  0  0  0  0  0  0  0  0
    3.1932   -0.5531   -0.0050 C   0  0  0  0  0  0  0  0  0  0  0  0
    1.2949    0.2119   -1.6242 H   0  0  0  0  0  0  0  0  0  0  0  0
    1.6149    1.5275    1.1837 H   0  0  0  0  0  0  0  0  0  0  0  0
    2.8129    1.5627   -0.1771 H   0  0  0  0  0  0  0  0  0  0  0  0
    1.6799   -0.9402    1.2578 H   0  0  0  0  0  0  0  0  0  0  0  0
    3.5302   -0.7238   -1.0930 H   0  0  0  0  0  0  0  0  0  0  0  0
    2.9900   -2.1261   -0.4535 H   0  0  0  0  0  0  0  0  0  0  0  0
   -0.5300   -2.0010   -0.3062 H   0  0  0  0  0  0  0  0  0  0  0  0
   -0.6819    2.2915   -0.1103 H   0  0  0  0  0  0  0  0  0  0  0  0
   -3.0936    2.1801    0.3981 H   0  0  0  0  0  0  0  0  0  0  0  0
   -2.9435   -2.1114    0.1999 H   0  0  0  0  0  0  0  0  0  0  0  0
   -4.2351   -0.0200    0.5579 H   0  0  0  0  0  0  0  0  0  0  0  0
   -1.5666   -0.9404   -0.4263 H   0  0  0  0  0  0  0  0  0  0  0  0
    1.7821   -0.5885   -0.0011 H   0  0  0  0  0  0  0  0  0  0  0  0
   -1.1643    1.3293   -1.0822 H   0  0  0  0  0  0  0  0  0  0  0  0
   -2.5085    1.6111    0.9996 H   0  0  0  0  0  0  0  0  0  0  0  0
   -1.3920    0.5197    1.9251 H   0  0  0  0  0  0  0  0  0  0  0  0
   -1.8015   -1.3481    0.3750 H   0  0  0  0  0  0  0  0  0  0  0  0
   -4.0826   -0.7492   -0.2919 H   0  0  0  0  0  0  0  0  0  0  0  0
   -3.5804    0.6012   -1.0421 H   0  0  0  0  0  0  0  0  0  0  0  0
    1.0701    1.8769    1.0522 H   0  0  0  0  0  0  0  0  0  0  0  0
    0.2608   -1.5827   -1.3678 H   0  0  0  0  0  0  0  0  0  0  0  0
    2.6361   -2.2391   -1.2180 H   0  0  0  0  0  0  0  0  0  0  0  0
    3.4446    1.2206    1.1875 H   0  0  0  0  0  0  0  0  0  0  0  0
    4.2402   -0.8381    0.0517 H   0  0  0  0  0  0  0  0  0  0  0  0
  2  1  1  0
  3  1  1  0
  1  4  1  0
  3  5  1  0
  6  4  2  0
  7  4  1  0
  8  7  2  0
  9  6  1  0
 10  9  2  0
  3  2  1  0
  8 10  1  0
 12 11  2  0
 13 11  2  0
 14 11  1  0
 15 11  1  0
 17 16  1  0
 18 16  1  0
 16 19  1  0
 18 20  1  0
 21 19  2  0
 22 19  1  0
 23 22  2  0
 24 21  1  0
 25 24  2  0
 18 17  1  0
 23 25  1  0
  1 26  1  6
  2 27  1  0
  2 28  1  0
  3 29  1  1
  5 30  1  0
  5 31  1  0
  6 32  1  0
  7 33  1  0
  8 34  1  0
  9 35  1  0
 10 36  1  0
 14 37  1  0
 15 38  1  0
 16 39  1  6
 17 40  1  0
 17 41  1  0
 18 42  1  1
 20 43  1  0
 20 44  1  0
 21 45  1  0
 22 46  1  0
 23 47  1  0
 24 48  1  0
 25 49  1  0
M  END
$$$$
