
     RDKit          3D

 51 54  0  0  0  0  0  0  0  0999 V2000
    3.3009    0.8521   -0.5505 N   0  0  0  0  0  0  0  0  0  0  0  0
    3.6532    1.2533    0.7281 C   0  0  0  0  0  0  0  0  0  0  0  0
    4.1812    0.2641   -1.4564 C   0  0  0  0  0  0  0  0  0  0  0  0
    5.5975    0.1862   -1.0493 C   0  0  0  0  0  0  0  0  0  0  0  0
    4.9727    1.1501    1.0638 N   0  0  0  0  0  0  0  0  0  0  0  0
    5.9516    0.6410    0.2157 C   0  0  0  0  0  0  0  0  0  0  0  0
    1.8894    0.9367   -0.9214 C   0  0  0  0  0  0  0  0  0  0  0  0
   -4.1912   -1.2313    0.2380 C   0  0  0  0  0  0  0  0  0  0  0  0
   -0.3319   -0.2864   -0.7918 N   0  0  0  0  0  0  0  0  0  0  0  0
    2.8542    1.6788    1.5619 O   0  0  0  0  0  0  0  0  0  0  0  0
    3.8463   -0.1923   -2.5466 O   0  0  0  0  0  0  0  0  0  0  0  0
   -5.5080   -0.5604    0.4917 C   0  0  0  0  0  0  0  0  0  0  0  0
   -2.8994   -0.6043    0.7691 C   0  0  0  0  0  0  0  0  0  0  0  0
   -4.1835   -2.2748   -0.4154 O   0  0  0  0  0  0  0  0  0  0  0  0
    1.1074   -0.3125   -0.4643 C   0  0  0  0  0  0  0  0  0  0  0  0
   -5.6550    0.5311    1.3591 C   0  0  0  0  0  0  0  0  0  0  0  0
   -6.6417   -1.0631   -0.1714 C   0  0  0  0  0  0  0  0  0  0  0  0
   -1.7506   -1.6303    0.7784 C   0  0  0  0  0  0  0  0  0  0  0  0
   -2.5366    0.6291   -0.0717 C   0  0  0  0  0  0  0  0  0  0  0  0
   -0.9646   -1.5913   -0.5313 C   0  0  0  0  0  0  0  0  0  0  0  0
   -1.0249    0.8375   -0.1470 C   0  0  0  0  0  0  0  0  0  0  0  0
   -8.0205    0.6014    0.8817 C   0  0  0  0  0  0  0  0  0  0  0  0
    6.5697   -0.3388   -1.9067 C   0  0  0  0  0  0  0  0  0  0  0  0
   -7.8965   -0.4817    0.0227 C   0  0  0  0  0  0  0  0  0  0  0  0
   -6.9136    1.1115    1.5509 C   0  0  0  0  0  0  0  0  0  0  0  0
   -9.2216    1.1619    1.0699 F   0  0  0  0  0  0  0  0  0  0  0  0
    7.2791    0.5780    0.6393 C   0  0  0  0  0  0  0  0  0  0  0  0
    7.8992   -0.4017   -1.4871 C   0  0  0  0  0  0  0  0  0  0  0  0
    8.2526    0.0562   -0.2162 C   0  0  0  0  0  0  0  0  0  0  0  0
    5.2098    1.4617    1.9969 H   0  0  0  0  0  0  0  0  0  0  0  0
    1.4717    1.8424   -0.4682 H   0  0  0  0  0  0  0  0  0  0  0  0
    1.8018    1.0501   -2.0085 H   0  0  0  0  0  0  0  0  0  0  0  0
   -3.0615   -0.3254    1.8163 H   0  0  0  0  0  0  0  0  0  0  0  0
    1.5684   -1.1778   -0.9585 H   0  0  0  0  0  0  0  0  0  0  0  0
    1.2446   -0.4659    0.6142 H   0  0  0  0  0  0  0  0  0  0  0  0
   -4.8151    0.9509    1.9041 H   0  0  0  0  0  0  0  0  0  0  0  0
   -6.5512   -1.9129   -0.8467 H   0  0  0  0  0  0  0  0  0  0  0  0
   -2.1223   -2.6454    0.9617 H   0  0  0  0  0  0  0  0  0  0  0  0
   -1.0701   -1.4041    1.6104 H   0  0  0  0  0  0  0  0  0  0  0  0
   -3.0001    1.5224    0.3631 H   0  0  0  0  0  0  0  0  0  0  0  0
   -2.9423    0.5431   -1.0888 H   0  0  0  0  0  0  0  0  0  0  0  0
   -0.2303   -2.4063   -0.5421 H   0  0  0  0  0  0  0  0  0  0  0  0
   -1.6434   -1.8044   -1.3665 H   0  0  0  0  0  0  0  0  0  0  0  0
   -0.8312    1.7536   -0.7166 H   0  0  0  0  0  0  0  0  0  0  0  0
   -0.6473    1.0021    0.8712 H   0  0  0  0  0  0  0  0  0  0  0  0
    6.2945   -0.6977   -2.8963 H   0  0  0  0  0  0  0  0  0  0  0  0
   -8.7720   -0.8684   -0.4898 H   0  0  0  0  0  0  0  0  0  0  0  0
   -7.0379    1.9578    2.2199 H   0  0  0  0  0  0  0  0  0  0  0  0
    7.5700    0.9281    1.6259 H   0  0  0  0  0  0  0  0  0  0  0  0
    8.6588   -0.8089   -2.1507 H   0  0  0  0  0  0  0  0  0  0  0  0
    9.2897    0.0048    0.1082 H   0  0  0  0  0  0  0  0  0  0  0  0
  2  1  1  0
  3  1  1  0
  4  3  1  0
  5  2  1  0
  6  4  2  0
  7  1  1  0
  8 13  1  0
  9 15  1  0
 10  2  2  0
 11  3  2  0
 12  8  1  0
 13 19  1  0
 14  8  2  0
 15  7  1  0
 16 12  2  0
 17 12  1  0
 18 20  1  0
 19 21  1  0
 20  9  1  0
 21  9  1  0
 22 24  1  0
 23  4  1  0
 24 17  2  0
 25 16  1  0
 26 22  1  0
 27  6  1  0
 28 23  2  0
 29 28  1  0
  5  6  1  0
 18 13  1  0
 29 27  2  0
 25 22  2  0
  5 30  1  0
  7 31  1  0
  7 32  1  0
 13 33  1  0
 15 34  1  0
 15 35  1  0
 16 36  1  0
 17 37  1  0
 18 38  1  0
 18 39  1  0
 19 40  1  0
 19 41  1  0
 20 42  1  0
 20 43  1  0
 21 44  1  0
 21 45  1  0
 23 46  1  0
 24 47  1  0
 25 48  1  0
 27 49  1  0
 28 50  1  0
 29 51  1  0
M  END
$$$$
