
     RDKit          3D

 51 54  0  0  0  0  0  0  0  0999 V2000
   -2.9405   -0.6487   -0.0894 N   0  0  0  0  0  0  0  0  0  0  0  0
   -3.5614   -1.1873   -1.2043 C   0  0  0  0  0  0  0  0  0  0  0  0
   -3.6179   -0.1725    1.0316 C   0  0  0  0  0  0  0  0  0  0  0  0
   -5.0806   -0.3642    1.0538 C   0  0  0  0  0  0  0  0  0  0  0  0
   -4.9177   -1.3332   -1.1420 N   0  0  0  0  0  0  0  0  0  0  0  0
   -5.6907   -0.9485   -0.0504 C   0  0  0  0  0  0  0  0  0  0  0  0
   -1.4942   -0.4539   -0.1410 C   0  0  0  0  0  0  0  0  0  0  0  0
    4.6073    1.4675   -0.6253 C   0  0  0  0  0  0  0  0  0  0  0  0
    0.3015    1.2520   -0.8050 N   0  0  0  0  0  0  0  0  0  0  0  0
   -2.9669   -1.5282   -2.2257 O   0  0  0  0  0  0  0  0  0  0  0  0
   -3.0693    0.3936    1.9744 O   0  0  0  0  0  0  0  0  0  0  0  0
    5.2314    0.2838    0.0341 C   0  0  0  0  0  0  0  0  0  0  0  0
    3.0936    1.6529   -0.6854 C   0  0  0  0  0  0  0  0  0  0  0  0
    5.3592    2.3028   -1.1310 O   0  0  0  0  0  0  0  0  0  0  0  0
   -1.1281    0.9168   -0.7494 C   0  0  0  0  0  0  0  0  0  0  0  0
    4.6517   -0.9906    0.0180 C   0  0  0  0  0  0  0  0  0  0  0  0
    6.4753    0.4683    0.6594 C   0  0  0  0  0  0  0  0  0  0  0  0
    2.3643    1.3469    0.6242 C   0  0  0  0  0  0  0  0  0  0  0  0
    2.4687    0.9358   -1.8898 C   0  0  0  0  0  0  0  0  0  0  0  0
    0.8614    1.6245    0.4978 C   0  0  0  0  0  0  0  0  0  0  0  0
    1.1107    0.3067   -1.5636 C   0  0  0  0  0  0  0  0  0  0  0  0
    6.5206   -1.8564    1.2739 C   0  0  0  0  0  0  0  0  0  0  0  0
   -5.8468    0.0358    2.1531 C   0  0  0  0  0  0  0  0  0  0  0  0
    7.1175   -0.6024    1.2845 C   0  0  0  0  0  0  0  0  0  0  0  0
    5.2973   -2.0606    0.6449 C   0  0  0  0  0  0  0  0  0  0  0  0
    7.1340   -2.8856    1.8716 F   0  0  0  0  0  0  0  0  0  0  0  0
   -7.0720   -1.1410   -0.0701 C   0  0  0  0  0  0  0  0  0  0  0  0
   -7.2289   -0.1569    2.1375 C   0  0  0  0  0  0  0  0  0  0  0  0
   -7.8397   -0.7444    1.0277 C   0  0  0  0  0  0  0  0  0  0  0  0
   -5.3493   -1.7385   -1.9627 H   0  0  0  0  0  0  0  0  0  0  0  0
   -1.0895   -0.5452    0.8727 H   0  0  0  0  0  0  0  0  0  0  0  0
   -1.0497   -1.2609   -0.7347 H   0  0  0  0  0  0  0  0  0  0  0  0
    2.9566    2.7334   -0.8495 H   0  0  0  0  0  0  0  0  0  0  0  0
   -1.5287    0.9661   -1.7706 H   0  0  0  0  0  0  0  0  0  0  0  0
   -1.6565    1.7124   -0.2074 H   0  0  0  0  0  0  0  0  0  0  0  0
    3.7101   -1.1812   -0.4852 H   0  0  0  0  0  0  0  0  0  0  0  0
    6.9480    1.4494    0.6586 H   0  0  0  0  0  0  0  0  0  0  0  0
    2.4955    0.2997    0.9152 H   0  0  0  0  0  0  0  0  0  0  0  0
    2.7839    1.9450    1.4423 H   0  0  0  0  0  0  0  0  0  0  0  0
    2.3376    1.6701   -2.6966 H   0  0  0  0  0  0  0  0  0  0  0  0
    3.1343    0.1688   -2.3015 H   0  0  0  0  0  0  0  0  0  0  0  0
    0.3601    1.1092    1.3252 H   0  0  0  0  0  0  0  0  0  0  0  0
    0.6826    2.6964    0.6454 H   0  0  0  0  0  0  0  0  0  0  0  0
    1.2508   -0.6301   -1.0104 H   0  0  0  0  0  0  0  0  0  0  0  0
    0.6205    0.0498   -2.5106 H   0  0  0  0  0  0  0  0  0  0  0  0
   -5.3720    0.4957    3.0172 H   0  0  0  0  0  0  0  0  0  0  0  0
    8.0778   -0.4652    1.7718 H   0  0  0  0  0  0  0  0  0  0  0  0
    4.8583   -3.0538    0.6404 H   0  0  0  0  0  0  0  0  0  0  0  0
   -7.5629   -1.5947   -0.9268 H   0  0  0  0  0  0  0  0  0  0  0  0
   -7.8297    0.1524    2.9900 H   0  0  0  0  0  0  0  0  0  0  0  0
   -8.9175   -0.8919    1.0184 H   0  0  0  0  0  0  0  0  0  0  0  0
  2  1  1  0
  3  1  1  0
  4  3  1  0
  5  2  1  0
  6  4  2  0
  7  1  1  0
  8 13  1  0
  9 15  1  0
 10  2  2  0
 11  3  2  0
 12  8  1  0
 13 19  1  0
 14  8  2  0
 15  7  1  0
 16 12  2  0
 17 12  1  0
 18 20  1  0
 19 21  1  0
 20  9  1  0
 21  9  1  0
 22 24  1  0
 23  4  1  0
 24 17  2  0
 25 16  1  0
 26 22  1  0
 27  6  1  0
 28 23  2  0
 29 28  1  0
  5  6  1  0
 18 13  1  0
 29 27  2  0
 25 22  2  0
  5 30  1  0
  7 31  1  0
  7 32  1  0
 13 33  1  0
 15 34  1  0
 15 35  1  0
 16 36  1  0
 17 37  1  0
 18 38  1  0
 18 39  1  0
 19 40  1  0
 19 41  1  0
 20 42  1  0
 20 43  1  0
 21 44  1  0
 21 45  1  0
 23 46  1  0
 24 47  1  0
 25 48  1  0
 27 49  1  0
 28 50  1  0
 29 51  1  0
M  END
$$$$
