
     RDKit          3D

 51 54  0  0  0  0  0  0  0  0999 V2000
   -3.2143   -0.3507    1.5098 N   0  0  0  0  0  0  0  0  0  0  0  0
   -4.1373   -1.2684    1.0375 C   0  0  0  0  0  0  0  0  0  0  0  0
   -3.0892    0.9533    1.0334 C   0  0  0  0  0  0  0  0  0  0  0  0
   -3.9752    1.3379   -0.0824 C   0  0  0  0  0  0  0  0  0  0  0  0
   -4.9563   -0.8552    0.0259 N   0  0  0  0  0  0  0  0  0  0  0  0
   -4.8941    0.4079   -0.5542 C   0  0  0  0  0  0  0  0  0  0  0  0
   -2.2795   -0.8013    2.5367 C   0  0  0  0  0  0  0  0  0  0  0  0
    2.9928    0.0300   -1.1310 C   0  0  0  0  0  0  0  0  0  0  0  0
   -0.4782   -1.2250    0.7831 N   0  0  0  0  0  0  0  0  0  0  0  0
   -4.2635   -2.4107    1.4794 O   0  0  0  0  0  0  0  0  0  0  0  0
   -2.3166    1.7916    1.4948 O   0  0  0  0  0  0  0  0  0  0  0  0
    4.4330    0.4009   -0.9368 C   0  0  0  0  0  0  0  0  0  0  0  0
    2.3506   -1.0167   -0.2192 C   0  0  0  0  0  0  0  0  0  0  0  0
    2.3607    0.5952   -2.0222 O   0  0  0  0  0  0  0  0  0  0  0  0
   -1.1784   -1.7330    1.9756 C   0  0  0  0  0  0  0  0  0  0  0  0
    5.1903   -0.0296    0.1623 C   0  0  0  0  0  0  0  0  0  0  0  0
    5.0377    1.2237   -1.9027 C   0  0  0  0  0  0  0  0  0  0  0  0
    1.2180   -1.7691   -0.9390 C   0  0  0  0  0  0  0  0  0  0  0  0
    1.8601   -0.3644    1.0826 C   0  0  0  0  0  0  0  0  0  0  0  0
    0.2047   -2.3077    0.0667 C   0  0  0  0  0  0  0  0  0  0  0  0
    0.3643   -0.0499    1.0379 C   0  0  0  0  0  0  0  0  0  0  0  0
    7.1103    1.1624   -0.6839 C   0  0  0  0  0  0  0  0  0  0  0  0
   -3.9035    2.6104   -0.6584 C   0  0  0  0  0  0  0  0  0  0  0  0
    6.3761    1.6028   -1.7768 C   0  0  0  0  0  0  0  0  0  0  0  0
    6.5304    0.3523    0.2854 C   0  0  0  0  0  0  0  0  0  0  0  0
    8.3934    1.5241   -0.5596 F   0  0  0  0  0  0  0  0  0  0  0  0
   -5.7526    0.7371   -1.6035 C   0  0  0  0  0  0  0  0  0  0  0  0
   -4.7594    2.9430   -1.7094 C   0  0  0  0  0  0  0  0  0  0  0  0
   -5.6827    2.0074   -2.1803 C   0  0  0  0  0  0  0  0  0  0  0  0
   -5.6151   -1.5455   -0.3085 H   0  0  0  0  0  0  0  0  0  0  0  0
   -2.8441   -1.3502    3.3008 H   0  0  0  0  0  0  0  0  0  0  0  0
   -1.8263    0.0569    3.0433 H   0  0  0  0  0  0  0  0  0  0  0  0
    3.1137   -1.7653    0.0262 H   0  0  0  0  0  0  0  0  0  0  0  0
   -0.4604   -1.9639    2.7730 H   0  0  0  0  0  0  0  0  0  0  0  0
   -1.6619   -2.6835    1.7154 H   0  0  0  0  0  0  0  0  0  0  0  0
    4.7662   -0.6518    0.9440 H   0  0  0  0  0  0  0  0  0  0  0  0
    4.4662    1.5742   -2.7612 H   0  0  0  0  0  0  0  0  0  0  0  0
    0.6976   -1.1327   -1.6655 H   0  0  0  0  0  0  0  0  0  0  0  0
    1.6449   -2.5977   -1.5175 H   0  0  0  0  0  0  0  0  0  0  0  0
    2.4131    0.5564    1.3022 H   0  0  0  0  0  0  0  0  0  0  0  0
    2.0536   -1.0469    1.9207 H   0  0  0  0  0  0  0  0  0  0  0  0
   -0.5412   -2.9108   -0.4642 H   0  0  0  0  0  0  0  0  0  0  0  0
    0.7234   -2.9764    0.7668 H   0  0  0  0  0  0  0  0  0  0  0  0
    0.0871    0.4626    1.9650 H   0  0  0  0  0  0  0  0  0  0  0  0
    0.1814    0.6743    0.2339 H   0  0  0  0  0  0  0  0  0  0  0  0
   -3.1825    3.3386   -0.2933 H   0  0  0  0  0  0  0  0  0  0  0  0
    6.8446    2.2377   -2.5223 H   0  0  0  0  0  0  0  0  0  0  0  0
    7.1249    0.0258    1.1335 H   0  0  0  0  0  0  0  0  0  0  0  0
   -6.4749    0.0193   -1.9822 H   0  0  0  0  0  0  0  0  0  0  0  0
   -4.7043    3.9305   -2.1617 H   0  0  0  0  0  0  0  0  0  0  0  0
   -6.3475    2.2690   -3.0005 H   0  0  0  0  0  0  0  0  0  0  0  0
  2  1  1  0
  3  1  1  0
  4  3  1  0
  5  2  1  0
  6  4  2  0
  7  1  1  0
  8 13  1  0
  9 15  1  0
 10  2  2  0
 11  3  2  0
 12  8  1  0
 13 19  1  0
 14  8  2  0
 15  7  1  0
 16 12  2  0
 17 12  1  0
 18 20  1  0
 19 21  1  0
 20  9  1  0
 21  9  1  0
 22 24  1  0
 23  4  1  0
 24 17  2  0
 25 16  1  0
 26 22  1  0
 27  6  1  0
 28 23  2  0
 29 28  1  0
  5  6  1  0
 18 13  1  0
 29 27  2  0
 25 22  2  0
  5 30  1  0
  7 31  1  0
  7 32  1  0
 13 33  1  0
 15 34  1  0
 15 35  1  0
 16 36  1  0
 17 37  1  0
 18 38  1  0
 18 39  1  0
 19 40  1  0
 19 41  1  0
 20 42  1  0
 20 43  1  0
 21 44  1  0
 21 45  1  0
 23 46  1  0
 24 47  1  0
 25 48  1  0
 27 49  1  0
 28 50  1  0
 29 51  1  0
M  END
$$$$
