
     RDKit          3D

 51 54  0  0  0  0  0  0  0  0999 V2000
   -3.4261   -0.5040   -0.4597 N   0  0  0  0  0  0  0  0  0  0  0  0
   -4.2844    0.0841   -1.3737 C   0  0  0  0  0  0  0  0  0  0  0  0
   -3.7004   -0.6303    0.9011 C   0  0  0  0  0  0  0  0  0  0  0  0
   -5.0523   -0.2402    1.3446 C   0  0  0  0  0  0  0  0  0  0  0  0
   -5.5174    0.4481   -0.9121 N   0  0  0  0  0  0  0  0  0  0  0  0
   -5.9302    0.2924    0.4076 C   0  0  0  0  0  0  0  0  0  0  0  0
   -2.0945   -0.8946   -0.9191 C   0  0  0  0  0  0  0  0  0  0  0  0
    4.5489   -0.6463   -1.5729 C   0  0  0  0  0  0  0  0  0  0  0  0
    0.2837   -0.0839   -1.2072 N   0  0  0  0  0  0  0  0  0  0  0  0
   -3.9999    0.3017   -2.5500 O   0  0  0  0  0  0  0  0  0  0  0  0
   -2.8849   -1.0252    1.7318 O   0  0  0  0  0  0  0  0  0  0  0  0
    5.3429   -0.1690   -0.4032 C   0  0  0  0  0  0  0  0  0  0  0  0
    3.0426   -0.4226   -1.6725 C   0  0  0  0  0  0  0  0  0  0  0  0
    5.1521   -1.2394   -2.4693 O   0  0  0  0  0  0  0  0  0  0  0  0
   -1.0806    0.2569   -0.7636 C   0  0  0  0  0  0  0  0  0  0  0  0
    4.8347   -0.1363    0.9012 C   0  0  0  0  0  0  0  0  0  0  0  0
    6.6712    0.2235   -0.6360 C   0  0  0  0  0  0  0  0  0  0  0  0
    2.2459   -1.5281   -0.9690 C   0  0  0  0  0  0  0  0  0  0  0  0
    2.5781    0.9755   -1.2660 C   0  0  0  0  0  0  0  0  0  0  0  0
    0.9708   -1.0035   -0.2996 C   0  0  0  0  0  0  0  0  0  0  0  0
    1.0654    1.1386   -1.4625 C   0  0  0  0  0  0  0  0  0  0  0  0
    6.9463    0.7110    1.7030 C   0  0  0  0  0  0  0  0  0  0  0  0
   -5.4496   -0.3909    2.6769 C   0  0  0  0  0  0  0  0  0  0  0  0
    7.4715    0.6689    0.4179 C   0  0  0  0  0  0  0  0  0  0  0  0
    5.6387    0.3104    1.9542 C   0  0  0  0  0  0  0  0  0  0  0  0
    7.7112    1.1371    2.7160 F   0  0  0  0  0  0  0  0  0  0  0  0
   -7.2145    0.6805    0.7887 C   0  0  0  0  0  0  0  0  0  0  0  0
   -6.7347   -0.0058    3.0614 C   0  0  0  0  0  0  0  0  0  0  0  0
   -7.6150    0.5287    2.1184 C   0  0  0  0  0  0  0  0  0  0  0  0
   -6.1337    0.8588   -1.6016 H   0  0  0  0  0  0  0  0  0  0  0  0
   -1.7813   -1.7733   -0.3460 H   0  0  0  0  0  0  0  0  0  0  0  0
   -2.1466   -1.2001   -1.9711 H   0  0  0  0  0  0  0  0  0  0  0  0
    2.8232   -0.5019   -2.7489 H   0  0  0  0  0  0  0  0  0  0  0  0
   -1.0640    0.6144    0.2744 H   0  0  0  0  0  0  0  0  0  0  0  0
   -1.4538    1.0943   -1.3689 H   0  0  0  0  0  0  0  0  0  0  0  0
    3.8260   -0.4643    1.1281 H   0  0  0  0  0  0  0  0  0  0  0  0
    7.0861    0.1805   -1.6420 H   0  0  0  0  0  0  0  0  0  0  0  0
    1.9723   -2.2836   -1.7184 H   0  0  0  0  0  0  0  0  0  0  0  0
    2.8503   -2.0621   -0.2274 H   0  0  0  0  0  0  0  0  0  0  0  0
    2.8076    1.1767   -0.2147 H   0  0  0  0  0  0  0  0  0  0  0  0
    3.1118    1.7391   -1.8448 H   0  0  0  0  0  0  0  0  0  0  0  0
    1.2076   -0.5121    0.6529 H   0  0  0  0  0  0  0  0  0  0  0  0
    0.3513   -1.8733   -0.0587 H   0  0  0  0  0  0  0  0  0  0  0  0
    0.7399    1.9639   -0.8153 H   0  0  0  0  0  0  0  0  0  0  0  0
    0.8699    1.4512   -2.4953 H   0  0  0  0  0  0  0  0  0  0  0  0
   -4.7638   -0.8059    3.4124 H   0  0  0  0  0  0  0  0  0  0  0  0
    8.4979    0.9759    0.2434 H   0  0  0  0  0  0  0  0  0  0  0  0
    5.2562    0.3413    2.9701 H   0  0  0  0  0  0  0  0  0  0  0  0
   -7.9107    1.0997    0.0674 H   0  0  0  0  0  0  0  0  0  0  0  0
   -7.0494   -0.1219    4.0962 H   0  0  0  0  0  0  0  0  0  0  0  0
   -8.6159    0.8285    2.4216 H   0  0  0  0  0  0  0  0  0  0  0  0
  2  1  1  0
  3  1  1  0
  4  3  1  0
  5  2  1  0
  6  4  2  0
  7  1  1  0
  8 13  1  0
  9 15  1  0
 10  2  2  0
 11  3  2  0
 12  8  1  0
 13 19  1  0
 14  8  2  0
 15  7  1  0
 16 12  2  0
 17 12  1  0
 18 20  1  0
 19 21  1  0
 20  9  1  0
 21  9  1  0
 22 24  1  0
 23  4  1  0
 24 17  2  0
 25 16  1  0
 26 22  1  0
 27  6  1  0
 28 23  2  0
 29 28  1  0
  5  6  1  0
 18 13  1  0
 29 27  2  0
 25 22  2  0
  5 30  1  0
  7 31  1  0
  7 32  1  0
 13 33  1  0
 15 34  1  0
 15 35  1  0
 16 36  1  0
 17 37  1  0
 18 38  1  0
 18 39  1  0
 19 40  1  0
 19 41  1  0
 20 42  1  0
 20 43  1  0
 21 44  1  0
 21 45  1  0
 23 46  1  0
 24 47  1  0
 25 48  1  0
 27 49  1  0
 28 50  1  0
 29 51  1  0
M  END
$$$$
