
     RDKit          3D

 51 54  0  0  0  0  0  0  0  0999 V2000
   -3.3414   -0.6221   -0.6005 N   0  0  0  0  0  0  0  0  0  0  0  0
   -3.7769   -1.9237   -0.4148 C   0  0  0  0  0  0  0  0  0  0  0  0
   -4.1464    0.5034   -0.4336 C   0  0  0  0  0  0  0  0  0  0  0  0
   -5.5781    0.2627   -0.1713 C   0  0  0  0  0  0  0  0  0  0  0  0
   -5.1072   -2.0955   -0.1569 N   0  0  0  0  0  0  0  0  0  0  0  0
   -6.0177   -1.0496   -0.0417 C   0  0  0  0  0  0  0  0  0  0  0  0
   -1.9202   -0.4039   -0.8611 C   0  0  0  0  0  0  0  0  0  0  0  0
    4.3963    1.2928    0.3654 C   0  0  0  0  0  0  0  0  0  0  0  0
    0.3251   -0.0307    0.2374 N   0  0  0  0  0  0  0  0  0  0  0  0
   -3.0455   -2.9114   -0.4597 O   0  0  0  0  0  0  0  0  0  0  0  0
   -3.7290    1.6584   -0.4793 O   0  0  0  0  0  0  0  0  0  0  0  0
    5.6220    0.4443    0.2034 C   0  0  0  0  0  0  0  0  0  0  0  0
    3.0200    0.7054    0.0651 C   0  0  0  0  0  0  0  0  0  0  0  0
    4.5310    2.4512    0.7598 O   0  0  0  0  0  0  0  0  0  0  0  0
   -1.1209   -0.2364    0.4474 C   0  0  0  0  0  0  0  0  0  0  0  0
    5.5843   -0.8645   -0.2983 C   0  0  0  0  0  0  0  0  0  0  0  0
    6.8603    0.9982    0.5721 C   0  0  0  0  0  0  0  0  0  0  0  0
    1.9903    1.8160   -0.1691 C   0  0  0  0  0  0  0  0  0  0  0  0
    2.5617   -0.2066    1.2158 C   0  0  0  0  0  0  0  0  0  0  0  0
    0.6032    1.2344   -0.4678 C   0  0  0  0  0  0  0  0  0  0  0  0
    1.0594   -0.1084    1.5017 C   0  0  0  0  0  0  0  0  0  0  0  0
    7.9787   -1.0376   -0.0517 C   0  0  0  0  0  0  0  0  0  0  0  0
   -6.4802    1.3239   -0.0463 C   0  0  0  0  0  0  0  0  0  0  0  0
    8.0376    0.2573    0.4450 C   0  0  0  0  0  0  0  0  0  0  0  0
    6.7653   -1.6039   -0.4241 C   0  0  0  0  0  0  0  0  0  0  0  0
    9.1051   -1.7509   -0.1748 F   0  0  0  0  0  0  0  0  0  0  0  0
   -7.3624   -1.3184    0.2133 C   0  0  0  0  0  0  0  0  0  0  0  0
   -7.8268    1.0587    0.2069 C   0  0  0  0  0  0  0  0  0  0  0  0
   -8.2664   -0.2604    0.3361 C   0  0  0  0  0  0  0  0  0  0  0  0
   -5.4053   -3.0554   -0.0403 H   0  0  0  0  0  0  0  0  0  0  0  0
   -1.8168    0.4857   -1.4925 H   0  0  0  0  0  0  0  0  0  0  0  0
   -1.5208   -1.2511   -1.4316 H   0  0  0  0  0  0  0  0  0  0  0  0
    3.0796    0.1353   -0.8699 H   0  0  0  0  0  0  0  0  0  0  0  0
   -1.5412    0.5836    1.0445 H   0  0  0  0  0  0  0  0  0  0  0  0
   -1.2670   -1.1503    1.0383 H   0  0  0  0  0  0  0  0  0  0  0  0
    4.6563   -1.3382   -0.6021 H   0  0  0  0  0  0  0  0  0  0  0  0
    6.9138    2.0138    0.9620 H   0  0  0  0  0  0  0  0  0  0  0  0
    2.3044    2.4641   -0.9965 H   0  0  0  0  0  0  0  0  0  0  0  0
    1.9278    2.4598    0.7188 H   0  0  0  0  0  0  0  0  0  0  0  0
    3.1092    0.0137    2.1407 H   0  0  0  0  0  0  0  0  0  0  0  0
    2.8078   -1.2448    0.9585 H   0  0  0  0  0  0  0  0  0  0  0  0
    0.5271    1.0459   -1.5453 H   0  0  0  0  0  0  0  0  0  0  0  0
   -0.1392    2.0049   -0.2224 H   0  0  0  0  0  0  0  0  0  0  0  0
    0.7699   -1.0017    2.0689 H   0  0  0  0  0  0  0  0  0  0  0  0
    0.8408    0.7571    2.1408 H   0  0  0  0  0  0  0  0  0  0  0  0
   -6.1380    2.3519   -0.1451 H   0  0  0  0  0  0  0  0  0  0  0  0
    8.9943    0.6838    0.7298 H   0  0  0  0  0  0  0  0  0  0  0  0
    6.7454   -2.6182   -0.8116 H   0  0  0  0  0  0  0  0  0  0  0  0
   -7.7200   -2.3391    0.3185 H   0  0  0  0  0  0  0  0  0  0  0  0
   -8.5328    1.8804    0.3043 H   0  0  0  0  0  0  0  0  0  0  0  0
   -9.3166   -0.4636    0.5344 H   0  0  0  0  0  0  0  0  0  0  0  0
  2  1  1  0
  3  1  1  0
  4  3  1  0
  5  2  1  0
  6  4  2  0
  7  1  1  0
  8 13  1  0
  9 15  1  0
 10  2  2  0
 11  3  2  0
 12  8  1  0
 13 19  1  0
 14  8  2  0
 15  7  1  0
 16 12  2  0
 17 12  1  0
 18 20  1  0
 19 21  1  0
 20  9  1  0
 21  9  1  0
 22 24  1  0
 23  4  1  0
 24 17  2  0
 25 16  1  0
 26 22  1  0
 27  6  1  0
 28 23  2  0
 29 28  1  0
  5  6  1  0
 18 13  1  0
 29 27  2  0
 25 22  2  0
  5 30  1  0
  7 31  1  0
  7 32  1  0
 13 33  1  0
 15 34  1  0
 15 35  1  0
 16 36  1  0
 17 37  1  0
 18 38  1  0
 18 39  1  0
 19 40  1  0
 19 41  1  0
 20 42  1  0
 20 43  1  0
 21 44  1  0
 21 45  1  0
 23 46  1  0
 24 47  1  0
 25 48  1  0
 27 49  1  0
 28 50  1  0
 29 51  1  0
M  END
$$$$
