
     RDKit          3D

 51 54  0  0  0  0  0  0  0  0999 V2000
   -3.3740    0.8738   -0.1224 N   0  0  0  0  0  0  0  0  0  0  0  0
   -4.1666    1.5533    0.7876 C   0  0  0  0  0  0  0  0  0  0  0  0
   -3.7508   -0.3084   -0.7575 C   0  0  0  0  0  0  0  0  0  0  0  0
   -5.1377   -0.7638   -0.5436 C   0  0  0  0  0  0  0  0  0  0  0  0
   -5.4359    1.0822    0.9684 N   0  0  0  0  0  0  0  0  0  0  0  0
   -5.9472   -0.0403    0.3244 C   0  0  0  0  0  0  0  0  0  0  0  0
   -2.0062    1.3456   -0.3303 C   0  0  0  0  0  0  0  0  0  0  0  0
    4.6642    1.3467    0.0298 C   0  0  0  0  0  0  0  0  0  0  0  0
    0.3769    1.1179    0.4856 N   0  0  0  0  0  0  0  0  0  0  0  0
   -3.7950    2.5299    1.4359 O   0  0  0  0  0  0  0  0  0  0  0  0
   -2.9969   -0.9823   -1.4563 O   0  0  0  0  0  0  0  0  0  0  0  0
    5.3596    0.0267    0.0058 C   0  0  0  0  0  0  0  0  0  0  0  0
    3.1674    1.4666    0.3019 C   0  0  0  0  0  0  0  0  0  0  0  0
    5.3421    2.3537   -0.1836 O   0  0  0  0  0  0  0  0  0  0  0  0
   -1.0218    0.6822    0.6542 C   0  0  0  0  0  0  0  0  0  0  0  0
    6.6969   -0.0112    0.4334 C   0  0  0  0  0  0  0  0  0  0  0  0
    4.7520   -1.1470   -0.4567 C   0  0  0  0  0  0  0  0  0  0  0  0
    2.3328    1.3057   -0.9744 C   0  0  0  0  0  0  0  0  0  0  0  0
    2.6556    0.5898    1.4442 C   0  0  0  0  0  0  0  0  0  0  0  0
    1.0034    0.5848   -0.7248 C   0  0  0  0  0  0  0  0  0  0  0  0
    1.1606    0.8226    1.6978 C   0  0  0  0  0  0  0  0  0  0  0  0
    6.7848   -2.3711   -0.0216 C   0  0  0  0  0  0  0  0  0  0  0  0
   -5.6346   -1.9010   -1.1880 C   0  0  0  0  0  0  0  0  0  0  0  0
    5.4668   -2.3486   -0.4642 C   0  0  0  0  0  0  0  0  0  0  0  0
    7.4080   -1.2128    0.4244 C   0  0  0  0  0  0  0  0  0  0  0  0
    7.4639   -3.5250   -0.0321 F   0  0  0  0  0  0  0  0  0  0  0  0
   -7.2619   -0.4427    0.5593 C   0  0  0  0  0  0  0  0  0  0  0  0
   -6.9502   -2.3053   -0.9572 C   0  0  0  0  0  0  0  0  0  0  0  0
   -7.7618   -1.5769   -0.0851 C   0  0  0  0  0  0  0  0  0  0  0  0
   -6.0024    1.6052    1.6239 H   0  0  0  0  0  0  0  0  0  0  0  0
   -1.7271    1.1329   -1.3673 H   0  0  0  0  0  0  0  0  0  0  0  0
   -1.9731    2.4348   -0.2064 H   0  0  0  0  0  0  0  0  0  0  0  0
    3.0327    2.5039    0.6468 H   0  0  0  0  0  0  0  0  0  0  0  0
   -1.0897   -0.4114    0.5844 H   0  0  0  0  0  0  0  0  0  0  0  0
   -1.3576    0.9450    1.6667 H   0  0  0  0  0  0  0  0  0  0  0  0
    7.1887    0.8991    0.7732 H   0  0  0  0  0  0  0  0  0  0  0  0
    3.7330   -1.1528   -0.8284 H   0  0  0  0  0  0  0  0  0  0  0  0
    2.1272    2.3065   -1.3784 H   0  0  0  0  0  0  0  0  0  0  0  0
    2.8849    0.7832   -1.7636 H   0  0  0  0  0  0  0  0  0  0  0  0
    2.8008   -0.4721    1.2212 H   0  0  0  0  0  0  0  0  0  0  0  0
    3.2227    0.7876    2.3619 H   0  0  0  0  0  0  0  0  0  0  0  0
    1.1598   -0.4984   -0.6421 H   0  0  0  0  0  0  0  0  0  0  0  0
    0.3781    0.7452   -1.6089 H   0  0  0  0  0  0  0  0  0  0  0  0
    0.7758   -0.0656    2.2163 H   0  0  0  0  0  0  0  0  0  0  0  0
    1.0413    1.6671    2.3872 H   0  0  0  0  0  0  0  0  0  0  0  0
   -5.0023   -2.4698   -1.8664 H   0  0  0  0  0  0  0  0  0  0  0  0
    5.0068   -3.2659   -0.8196 H   0  0  0  0  0  0  0  0  0  0  0  0
    8.4409   -1.2485    0.7562 H   0  0  0  0  0  0  0  0  0  0  0  0
   -7.9056    0.1123    1.2363 H   0  0  0  0  0  0  0  0  0  0  0  0
   -7.3423   -3.1885   -1.4567 H   0  0  0  0  0  0  0  0  0  0  0  0
   -8.7868   -1.8951    0.0931 H   0  0  0  0  0  0  0  0  0  0  0  0
  2  1  1  0
  3  1  1  0
  4  3  1  0
  5  2  1  0
  6  4  2  0
  7  1  1  0
  8 13  1  0
  9 15  1  0
 10  2  2  0
 11  3  2  0
 12  8  1  0
 13 19  1  0
 14  8  2  0
 15  7  1  0
 16 12  2  0
 17 12  1  0
 18 20  1  0
 19 21  1  0
 20  9  1  0
 21  9  1  0
 22 24  1  0
 23  4  1  0
 24 17  2  0
 25 16  1  0
 26 22  1  0
 27  6  1  0
 28 23  2  0
 29 28  1  0
  5  6  1  0
 18 13  1  0
 29 27  2  0
 25 22  2  0
  5 30  1  0
  7 31  1  0
  7 32  1  0
 13 33  1  0
 15 34  1  0
 15 35  1  0
 16 36  1  0
 17 37  1  0
 18 38  1  0
 18 39  1  0
 19 40  1  0
 19 41  1  0
 20 42  1  0
 20 43  1  0
 21 44  1  0
 21 45  1  0
 23 46  1  0
 24 47  1  0
 25 48  1  0
 27 49  1  0
 28 50  1  0
 29 51  1  0
M  END
$$$$
