
     RDKit          2D

 29 32  0  0  0  0  0  0  0  0999 V2000
   -1.8875   -0.4917    0.0000 N   0  0  0  0  0  0  0  0  0  0  0  0
   -1.8958   -1.2042    0.0000 C   0  0  0  0  0  0  0  0  0  0  0  0
   -2.5000   -0.1292    0.0000 C   0  0  0  0  0  0  0  0  0  0  0  0
   -3.1208   -0.4875    0.0000 C   0  0  0  0  0  0  0  0  0  0  0  0
   -2.5083   -1.5542    0.0000 N   0  0  0  0  0  0  0  0  0  0  0  0
   -3.1208   -1.2000    0.0000 C   0  0  0  0  0  0  0  0  0  0  0  0
   -1.2708   -0.1375    0.0000 C   0  0  0  0  0  0  0  0  0  0  0  0
    1.8375    0.9083    0.0000 C   0  0  0  0  0  0  0  0  0  0  0  0
   -0.0333   -0.1417    0.0000 N   0  0  0  0  0  0  0  0  0  0  0  0
   -1.2833   -1.5667    0.0000 O   0  0  0  0  0  0  0  0  0  0  0  0
   -2.5000    0.5833    0.0000 O   0  0  0  0  0  0  0  0  0  0  0  0
    2.4542    0.5333    0.0000 C   0  0  0  0  0  0  0  0  0  0  0  0
    1.2167    0.5583    0.0000 C   0  0  0  0  0  0  0  0  0  0  0  0
    1.8542    1.6208    0.0000 O   0  0  0  0  0  0  0  0  0  0  0  0
   -0.6583   -0.5000    0.0000 C   0  0  0  0  0  0  0  0  0  0  0  0
    2.4375   -0.1875    0.0000 C   0  0  0  0  0  0  0  0  0  0  0  0
    3.0792    0.8833    0.0000 C   0  0  0  0  0  0  0  0  0  0  0  0
    1.2000   -0.1542    0.0000 C   0  0  0  0  0  0  0  0  0  0  0  0
    0.6000    0.9208    0.0000 C   0  0  0  0  0  0  0  0  0  0  0  0
    0.5792   -0.5042    0.0000 C   0  0  0  0  0  0  0  0  0  0  0  0
   -0.0333    0.5708    0.0000 C   0  0  0  0  0  0  0  0  0  0  0  0
    3.6792   -0.2125    0.0000 C   0  0  0  0  0  0  0  0  0  0  0  0
   -3.7333   -0.1292    0.0000 C   0  0  0  0  0  0  0  0  0  0  0  0
    3.7000    0.5083    0.0000 C   0  0  0  0  0  0  0  0  0  0  0  0
    3.0542   -0.5542    0.0000 C   0  0  0  0  0  0  0  0  0  0  0  0
    4.2917   -0.5792    0.0000 F   0  0  0  0  0  0  0  0  0  0  0  0
   -3.7333   -1.5542    0.0000 C   0  0  0  0  0  0  0  0  0  0  0  0
   -4.3458   -0.4875    0.0000 C   0  0  0  0  0  0  0  0  0  0  0  0
   -4.3458   -1.2000    0.0000 C   0  0  0  0  0  0  0  0  0  0  0  0
  2  1  1  0
  3  1  1  0
  4  3  1  0
  5  2  1  0
  6  4  2  0
  7  1  1  0
  8 13  1  0
  9 15  1  0
 10  2  2  0
 11  3  2  0
 12  8  1  0
 13 19  1  0
 14  8  2  0
 15  7  1  0
 16 12  2  0
 17 12  1  0
 18 20  1  0
 19 21  1  0
 20  9  1  0
 21  9  1  0
 22 24  1  0
 23  4  1  0
 24 17  2  0
 25 16  1  0
 26 22  1  0
 27  6  1  0
 28 23  2  0
 29 28  1  0
  5  6  1  0
 18 13  1  0
 29 27  2  0
 25 22  2  0
M  END
> <chembl_id>
CHEMBL51

> <chembl_pref_name>
KETANSERIN
