
     RDKit          3D

 52 54  0  0  0  0  0  0  0  0999 V2000
   -1.3160   -0.6134   -0.8902 C   0  0  0  0  0  0  0  0  0  0  0  0
   -0.7682   -1.8521   -0.5555 C   0  0  0  0  0  0  0  0  0  0  0  0
    0.7993    0.1063   -1.7361 C   0  0  0  0  0  0  0  0  0  0  0  0
   -0.5226    0.3116   -1.4778 N   0  0  0  0  0  0  0  0  0  0  0  0
    1.3565   -1.1302   -1.4427 N   0  0  0  0  0  0  0  0  0  0  0  0
    0.5817   -2.0853   -0.8232 C   0  0  0  0  0  0  0  0  0  0  0  0
    4.5998    1.8114   -0.0182 C   0  0  0  0  0  0  0  0  0  0  0  0
    5.6701    1.8638   -0.8346 N   0  0  0  0  0  0  0  0  0  0  0  0
    4.9488    1.9777    1.2351 O   0  0  0  0  0  0  0  0  0  0  0  0
    3.2189    1.5956   -0.4687 C   0  0  0  0  0  0  0  0  0  0  0  0
    1.5618    1.2663   -2.4064 C   0  0  0  0  0  0  0  0  0  0  0  0
    6.7213    2.0702   -0.0567 N   0  0  0  0  0  0  0  0  0  0  0  0
   -2.7341   -0.2780   -0.6509 C   0  0  0  0  0  0  0  0  0  0  0  0
    2.9264    1.4101   -1.8664 N   0  0  0  0  0  0  0  0  0  0  0  0
    6.2505    2.1304    1.2031 C   0  0  0  0  0  0  0  0  0  0  0  0
   -1.5478   -2.8606    0.0044 O   0  0  0  0  0  0  0  0  0  0  0  0
   -3.4340   -0.7734    0.4997 N   0  0  0  0  0  0  0  0  0  0  0  0
    1.0760   -3.1983   -0.4885 O   0  0  0  0  0  0  0  0  0  0  0  0
    2.2965    1.5556    0.3892 O   0  0  0  0  0  0  0  0  0  0  0  0
   -3.3209    0.4969   -1.4544 O   0  0  0  0  0  0  0  0  0  0  0  0
    2.7742   -1.4564   -1.6991 C   0  0  0  0  0  0  0  0  0  0  0  0
   -4.8788   -0.5998    0.6426 C   0  0  0  0  0  0  0  0  0  0  0  0
   -6.1923   -2.4870    4.2888 C   0  0  0  0  0  0  0  0  0  0  0  0
   -5.3673   -1.2499    1.9087 C   0  0  0  0  0  0  0  0  0  0  0  0
   -6.5944   -3.0838    5.4378 F   0  0  0  0  0  0  0  0  0  0  0  0
   -6.1130   -3.2287    3.1064 C   0  0  0  0  0  0  0  0  0  0  0  0
   -5.8505   -1.1314    4.2875 C   0  0  0  0  0  0  0  0  0  0  0  0
   -5.6966   -2.6153    1.9206 C   0  0  0  0  0  0  0  0  0  0  0  0
   -5.4334   -0.5146    3.1037 C   0  0  0  0  0  0  0  0  0  0  0  0
    0.8300    2.6149   -2.1903 C   0  0  0  0  0  0  0  0  0  0  0  0
    1.6094    1.0181   -3.9307 C   0  0  0  0  0  0  0  0  0  0  0  0
    7.0992    2.3786    2.4026 C   0  0  0  0  0  0  0  0  0  0  0  0
    3.7286    1.4271   -2.5371 H   0  0  0  0  0  0  0  0  0  0  0  0
   -2.8886   -1.2078    1.2785 H   0  0  0  0  0  0  0  0  0  0  0  0
    3.3884   -1.1871   -0.8148 H   0  0  0  0  0  0  0  0  0  0  0  0
    2.9102   -2.5400   -1.9029 H   0  0  0  0  0  0  0  0  0  0  0  0
    3.1716   -0.9570   -2.5969 H   0  0  0  0  0  0  0  0  0  0  0  0
   -5.3929   -1.0537   -0.2327 H   0  0  0  0  0  0  0  0  0  0  0  0
   -5.1231    0.4849    0.6507 H   0  0  0  0  0  0  0  0  0  0  0  0
   -6.3701   -4.2802    3.1083 H   0  0  0  0  0  0  0  0  0  0  0  0
   -5.9043   -0.5584    5.2043 H   0  0  0  0  0  0  0  0  0  0  0  0
   -5.6291   -3.2033    1.0136 H   0  0  0  0  0  0  0  0  0  0  0  0
   -5.1612    0.5335    3.1186 H   0  0  0  0  0  0  0  0  0  0  0  0
    1.4347    3.4520   -2.6017 H   0  0  0  0  0  0  0  0  0  0  0  0
   -0.1585    2.6241   -2.6994 H   0  0  0  0  0  0  0  0  0  0  0  0
    0.6594    2.8120   -1.1115 H   0  0  0  0  0  0  0  0  0  0  0  0
    0.5804    0.9726   -4.3492 H   0  0  0  0  0  0  0  0  0  0  0  0
    2.1112    0.0661   -4.1882 H   0  0  0  0  0  0  0  0  0  0  0  0
    2.1557    1.8405   -4.4414 H   0  0  0  0  0  0  0  0  0  0  0  0
    8.0801    1.8726    2.2828 H   0  0  0  0  0  0  0  0  0  0  0  0
    6.5962    1.9822    3.3092 H   0  0  0  0  0  0  0  0  0  0  0  0
    7.2608    3.4700    2.5214 H   0  0  0  0  0  0  0  0  0  0  0  0
  2  1  2  0
  3  4  2  0
  4  1  1  0
  5  6  1  0
  6  2  1  0
  7 10  1  0
  8  7  2  0
  9  7  1  0
 10 14  1  0
 11  3  1  0
 12  8  1  0
 13  1  1  0
 14 11  1  0
 15  9  1  0
 16  2  1  0
 17 13  1  0
 18  6  2  0
 19 10  2  0
 20 13  2  0
 21  5  1  0
 22 17  1  0
 23 26  2  0
 24 22  1  0
 25 23  1  0
 26 28  1  0
 27 29  2  0
 28 24  2  0
 29 24  1  0
 30 11  1  0
 31 11  1  0
 32 15  1  0
  5  3  1  0
 27 23  1  0
 12 15  2  0
 14 33  1  0
 17 34  1  0
 21 35  1  0
 21 36  1  0
 21 37  1  0
 22 38  1  0
 22 39  1  0
 26 40  1  0
 27 41  1  0
 28 42  1  0
 29 43  1  0
 30 44  1  0
 30 45  1  0
 30 46  1  0
 31 47  1  0
 31 48  1  0
 31 49  1  0
 32 50  1  0
 32 51  1  0
 32 52  1  0
M  CHG  1  16  -1
M  END
$$$$
