
     RDKit          3D

 52 54  0  0  0  0  0  0  0  0999 V2000
   -1.2098   -0.2400   -0.9378 C   0  0  0  0  0  0  0  0  0  0  0  0
   -1.8970   -0.9258   -1.9376 C   0  0  0  0  0  0  0  0  0  0  0  0
    0.8340   -1.2909   -1.6014 C   0  0  0  0  0  0  0  0  0  0  0  0
    0.1174   -0.4567   -0.7961 N   0  0  0  0  0  0  0  0  0  0  0  0
    0.1565   -2.0325   -2.5618 N   0  0  0  0  0  0  0  0  0  0  0  0
   -1.1903   -1.8089   -2.7548 C   0  0  0  0  0  0  0  0  0  0  0  0
    4.2230    1.2024    0.9753 C   0  0  0  0  0  0  0  0  0  0  0  0
    3.3686    2.2417    1.0456 N   0  0  0  0  0  0  0  0  0  0  0  0
    5.3040    1.4265    1.6835 O   0  0  0  0  0  0  0  0  0  0  0  0
    3.9763   -0.0277    0.2110 C   0  0  0  0  0  0  0  0  0  0  0  0
    2.3483   -1.3996   -1.2850 C   0  0  0  0  0  0  0  0  0  0  0  0
    3.9436    3.1436    1.8259 N   0  0  0  0  0  0  0  0  0  0  0  0
   -1.8757    0.6971   -0.0113 C   0  0  0  0  0  0  0  0  0  0  0  0
    2.7717   -0.1710   -0.5678 N   0  0  0  0  0  0  0  0  0  0  0  0
    5.1271    2.6199    2.1967 C   0  0  0  0  0  0  0  0  0  0  0  0
   -3.2709   -0.7743   -2.1059 O   0  0  0  0  0  0  0  0  0  0  0  0
   -2.9840    1.5047   -0.4365 N   0  0  0  0  0  0  0  0  0  0  0  0
   -1.8206   -2.4070   -3.6713 O   0  0  0  0  0  0  0  0  0  0  0  0
    4.8430   -0.9413    0.2359 O   0  0  0  0  0  0  0  0  0  0  0  0
   -1.4288    0.8151    1.1620 O   0  0  0  0  0  0  0  0  0  0  0  0
    0.8179   -3.0439   -3.4095 C   0  0  0  0  0  0  0  0  0  0  0  0
   -3.8354    2.2200    0.5106 C   0  0  0  0  0  0  0  0  0  0  0  0
   -6.2584   -0.6213    2.6638 C   0  0  0  0  0  0  0  0  0  0  0  0
   -4.6916    1.2462    1.2729 C   0  0  0  0  0  0  0  0  0  0  0  0
   -7.0161   -1.5225    3.3360 F   0  0  0  0  0  0  0  0  0  0  0  0
   -6.5330   -0.3392    1.3224 C   0  0  0  0  0  0  0  0  0  0  0  0
   -5.2001    0.0235    3.3108 C   0  0  0  0  0  0  0  0  0  0  0  0
   -5.7517    0.5890    0.6272 C   0  0  0  0  0  0  0  0  0  0  0  0
   -4.4163    0.9522    2.6189 C   0  0  0  0  0  0  0  0  0  0  0  0
    2.5470   -2.6306   -0.3675 C   0  0  0  0  0  0  0  0  0  0  0  0
    3.2322   -1.4901   -2.5521 C   0  0  0  0  0  0  0  0  0  0  0  0
    6.0932    3.2972    3.1070 C   0  0  0  0  0  0  0  0  0  0  0  0
    2.2698    0.7201   -0.7857 H   0  0  0  0  0  0  0  0  0  0  0  0
   -3.1681    1.6308   -1.4570 H   0  0  0  0  0  0  0  0  0  0  0  0
    1.3491   -2.5501   -4.2490 H   0  0  0  0  0  0  0  0  0  0  0  0
    1.4981   -3.6839   -2.8217 H   0  0  0  0  0  0  0  0  0  0  0  0
    0.0950   -3.7616   -3.8507 H   0  0  0  0  0  0  0  0  0  0  0  0
   -4.4943    2.9230   -0.0441 H   0  0  0  0  0  0  0  0  0  0  0  0
   -3.2080    2.8326    1.1943 H   0  0  0  0  0  0  0  0  0  0  0  0
   -7.3494   -0.8413    0.8194 H   0  0  0  0  0  0  0  0  0  0  0  0
   -4.9844   -0.1978    4.3482 H   0  0  0  0  0  0  0  0  0  0  0  0
   -5.9691    0.7937   -0.4140 H   0  0  0  0  0  0  0  0  0  0  0  0
   -3.5956    1.4384    3.1313 H   0  0  0  0  0  0  0  0  0  0  0  0
    1.9279   -3.4937   -0.6814 H   0  0  0  0  0  0  0  0  0  0  0  0
    3.6024   -2.9731   -0.3642 H   0  0  0  0  0  0  0  0  0  0  0  0
    2.2484   -2.3833    0.6740 H   0  0  0  0  0  0  0  0  0  0  0  0
    4.2617   -1.1317   -2.3422 H   0  0  0  0  0  0  0  0  0  0  0  0
    2.8230   -0.8471   -3.3603 H   0  0  0  0  0  0  0  0  0  0  0  0
    3.3606   -2.5278   -2.9155 H   0  0  0  0  0  0  0  0  0  0  0  0
    5.7937    3.1208    4.1608 H   0  0  0  0  0  0  0  0  0  0  0  0
    6.1012    4.3887    2.9049 H   0  0  0  0  0  0  0  0  0  0  0  0
    7.1135    2.8916    2.9437 H   0  0  0  0  0  0  0  0  0  0  0  0
  2  1  2  0
  3  4  2  0
  4  1  1  0
  5  6  1  0
  6  2  1  0
  7 10  1  0
  8  7  2  0
  9  7  1  0
 10 14  1  0
 11  3  1  0
 12  8  1  0
 13  1  1  0
 14 11  1  0
 15  9  1  0
 16  2  1  0
 17 13  1  0
 18  6  2  0
 19 10  2  0
 20 13  2  0
 21  5  1  0
 22 17  1  0
 23 26  2  0
 24 22  1  0
 25 23  1  0
 26 28  1  0
 27 29  2  0
 28 24  2  0
 29 24  1  0
 30 11  1  0
 31 11  1  0
 32 15  1  0
  5  3  1  0
 27 23  1  0
 12 15  2  0
 14 33  1  0
 17 34  1  0
 21 35  1  0
 21 36  1  0
 21 37  1  0
 22 38  1  0
 22 39  1  0
 26 40  1  0
 27 41  1  0
 28 42  1  0
 29 43  1  0
 30 44  1  0
 30 45  1  0
 30 46  1  0
 31 47  1  0
 31 48  1  0
 31 49  1  0
 32 50  1  0
 32 51  1  0
 32 52  1  0
M  CHG  1  16  -1
M  END
$$$$
