
     RDKit          3D

 52 54  0  0  0  0  0  0  0  0999 V2000
   -1.3699   -0.3434    0.2549 C   0  0  0  0  0  0  0  0  0  0  0  0
   -1.3161   -0.2386   -1.1360 C   0  0  0  0  0  0  0  0  0  0  0  0
    0.8460    0.5294    0.4186 C   0  0  0  0  0  0  0  0  0  0  0  0
   -0.2985    0.0497    0.9810 N   0  0  0  0  0  0  0  0  0  0  0  0
    0.8980    0.6995   -0.9585 N   0  0  0  0  0  0  0  0  0  0  0  0
   -0.1627    0.2773   -1.7265 C   0  0  0  0  0  0  0  0  0  0  0  0
    4.9938   -0.9912   -0.2050 C   0  0  0  0  0  0  0  0  0  0  0  0
    5.4111   -2.1819   -0.6773 N   0  0  0  0  0  0  0  0  0  0  0  0
    5.9197   -0.0735   -0.3425 O   0  0  0  0  0  0  0  0  0  0  0  0
    3.6678   -0.7523    0.3752 C   0  0  0  0  0  0  0  0  0  0  0  0
    1.9842    0.9104    1.3844 C   0  0  0  0  0  0  0  0  0  0  0  0
    6.6424   -1.9927   -1.1254 N   0  0  0  0  0  0  0  0  0  0  0  0
   -2.5656   -0.8367    0.9642 C   0  0  0  0  0  0  0  0  0  0  0  0
    3.3081    0.5642    0.8356 N   0  0  0  0  0  0  0  0  0  0  0  0
    6.9284   -0.6963   -0.9019 C   0  0  0  0  0  0  0  0  0  0  0  0
   -2.3990   -0.6021   -1.9327 O   0  0  0  0  0  0  0  0  0  0  0  0
   -3.3801   -1.8791    0.4075 N   0  0  0  0  0  0  0  0  0  0  0  0
   -0.1187    0.3558   -2.9862 O   0  0  0  0  0  0  0  0  0  0  0  0
    2.8444   -1.7050    0.4428 O   0  0  0  0  0  0  0  0  0  0  0  0
   -2.8505   -0.3525    2.0935 O   0  0  0  0  0  0  0  0  0  0  0  0
    2.0669    1.2659   -1.6607 C   0  0  0  0  0  0  0  0  0  0  0  0
   -4.7391   -2.1380    0.8707 C   0  0  0  0  0  0  0  0  0  0  0  0
   -7.3508    0.8985   -0.7174 C   0  0  0  0  0  0  0  0  0  0  0  0
   -5.6718   -1.0906    0.3300 C   0  0  0  0  0  0  0  0  0  0  0  0
   -8.1654    1.8574   -1.2226 F   0  0  0  0  0  0  0  0  0  0  0  0
   -6.8868    0.9966    0.5981 C   0  0  0  0  0  0  0  0  0  0  0  0
   -6.9705   -0.1849   -1.5134 C   0  0  0  0  0  0  0  0  0  0  0  0
   -6.0444    0.0094    1.1205 C   0  0  0  0  0  0  0  0  0  0  0  0
   -6.1313   -1.1748   -0.9952 C   0  0  0  0  0  0  0  0  0  0  0  0
    1.9027    2.4239    1.6772 C   0  0  0  0  0  0  0  0  0  0  0  0
    1.8350    0.1787    2.7411 C   0  0  0  0  0  0  0  0  0  0  0  0
    8.2122   -0.0427   -1.2832 C   0  0  0  0  0  0  0  0  0  0  0  0
    4.0428    1.3071    0.7955 H   0  0  0  0  0  0  0  0  0  0  0  0
   -2.9871   -2.4909   -0.3419 H   0  0  0  0  0  0  0  0  0  0  0  0
    1.7585    1.8213   -2.5725 H   0  0  0  0  0  0  0  0  0  0  0  0
    2.6096    2.0111   -1.0568 H   0  0  0  0  0  0  0  0  0  0  0  0
    2.7560    0.4503   -1.9639 H   0  0  0  0  0  0  0  0  0  0  0  0
   -5.0642   -3.1371    0.5097 H   0  0  0  0  0  0  0  0  0  0  0  0
   -4.7656   -2.1708    1.9820 H   0  0  0  0  0  0  0  0  0  0  0  0
   -7.1768    1.8388    1.2135 H   0  0  0  0  0  0  0  0  0  0  0  0
   -7.3263   -0.2578   -2.5339 H   0  0  0  0  0  0  0  0  0  0  0  0
   -5.6872    0.1021    2.1381 H   0  0  0  0  0  0  0  0  0  0  0  0
   -5.8386   -2.0061   -1.6241 H   0  0  0  0  0  0  0  0  0  0  0  0
    0.9255    2.6791    2.1430 H   0  0  0  0  0  0  0  0  0  0  0  0
    2.7092    2.7278    2.3764 H   0  0  0  0  0  0  0  0  0  0  0  0
    2.0002    3.0335    0.7614 H   0  0  0  0  0  0  0  0  0  0  0  0
    0.9202    0.5101    3.2800 H   0  0  0  0  0  0  0  0  0  0  0  0
    1.7699   -0.9195    2.6023 H   0  0  0  0  0  0  0  0  0  0  0  0
    2.7103    0.3915    3.3910 H   0  0  0  0  0  0  0  0  0  0  0  0
    8.1481    0.3148   -2.3315 H   0  0  0  0  0  0  0  0  0  0  0  0
    9.0490   -0.7666   -1.1928 H   0  0  0  0  0  0  0  0  0  0  0  0
    8.4073    0.8209   -0.6132 H   0  0  0  0  0  0  0  0  0  0  0  0
  2  1  2  0
  3  4  2  0
  4  1  1  0
  5  6  1  0
  6  2  1  0
  7 10  1  0
  8  7  2  0
  9  7  1  0
 10 14  1  0
 11  3  1  0
 12  8  1  0
 13  1  1  0
 14 11  1  0
 15  9  1  0
 16  2  1  0
 17 13  1  0
 18  6  2  0
 19 10  2  0
 20 13  2  0
 21  5  1  0
 22 17  1  0
 23 26  2  0
 24 22  1  0
 25 23  1  0
 26 28  1  0
 27 29  2  0
 28 24  2  0
 29 24  1  0
 30 11  1  0
 31 11  1  0
 32 15  1  0
  5  3  1  0
 27 23  1  0
 12 15  2  0
 14 33  1  0
 17 34  1  0
 21 35  1  0
 21 36  1  0
 21 37  1  0
 22 38  1  0
 22 39  1  0
 26 40  1  0
 27 41  1  0
 28 42  1  0
 29 43  1  0
 30 44  1  0
 30 45  1  0
 30 46  1  0
 31 47  1  0
 31 48  1  0
 31 49  1  0
 32 50  1  0
 32 51  1  0
 32 52  1  0
M  CHG  1  16  -1
M  END
$$$$
