
     RDKit          3D

 52 54  0  0  0  0  0  0  0  0999 V2000
   -1.4159   -0.9291    0.0588 C   0  0  0  0  0  0  0  0  0  0  0  0
   -1.2255   -1.3720   -1.2498 C   0  0  0  0  0  0  0  0  0  0  0  0
    0.9282   -1.1354    0.4833 C   0  0  0  0  0  0  0  0  0  0  0  0
   -0.3443   -0.8516    0.8819 N   0  0  0  0  0  0  0  0  0  0  0  0
    1.1470   -1.5138   -0.8339 N   0  0  0  0  0  0  0  0  0  0  0  0
    0.0696   -1.6663   -1.6776 C   0  0  0  0  0  0  0  0  0  0  0  0
    5.2599    1.1721    1.1057 C   0  0  0  0  0  0  0  0  0  0  0  0
    5.0277    1.8628   -0.0277 N   0  0  0  0  0  0  0  0  0  0  0  0
    6.4496    1.4399    1.5908 O   0  0  0  0  0  0  0  0  0  0  0  0
    4.3103    0.2307    1.7152 C   0  0  0  0  0  0  0  0  0  0  0  0
    2.0486   -1.0152    1.5431 C   0  0  0  0  0  0  0  0  0  0  0  0
    6.1150    2.5839   -0.2536 N   0  0  0  0  0  0  0  0  0  0  0  0
   -2.7501   -0.5995    0.6012 C   0  0  0  0  0  0  0  0  0  0  0  0
    3.0194    0.0115    1.1166 N   0  0  0  0  0  0  0  0  0  0  0  0
    6.9670    2.3042    0.7508 C   0  0  0  0  0  0  0  0  0  0  0  0
   -2.3008   -1.5621   -2.1134 O   0  0  0  0  0  0  0  0  0  0  0  0
   -3.7708   -0.0271   -0.2286 N   0  0  0  0  0  0  0  0  0  0  0  0
    0.2310   -2.0915   -2.8567 O   0  0  0  0  0  0  0  0  0  0  0  0
    4.6461   -0.3795    2.7650 O   0  0  0  0  0  0  0  0  0  0  0  0
   -2.9760   -0.7942    1.8265 O   0  0  0  0  0  0  0  0  0  0  0  0
    2.4821   -1.8595   -1.3645 C   0  0  0  0  0  0  0  0  0  0  0  0
   -5.1583    0.0611    0.2237 C   0  0  0  0  0  0  0  0  0  0  0  0
   -7.6490    1.4148   -3.0249 C   0  0  0  0  0  0  0  0  0  0  0  0
   -6.0498    0.5317   -0.8941 C   0  0  0  0  0  0  0  0  0  0  0  0
   -8.4204    1.8417   -4.0547 F   0  0  0  0  0  0  0  0  0  0  0  0
   -7.3325    2.2879   -1.9783 C   0  0  0  0  0  0  0  0  0  0  0  0
   -7.1629    0.1044   -3.0122 C   0  0  0  0  0  0  0  0  0  0  0  0
   -6.5310    1.8517   -0.9180 C   0  0  0  0  0  0  0  0  0  0  0  0
   -6.3650   -0.3372   -1.9519 C   0  0  0  0  0  0  0  0  0  0  0  0
    1.4583   -0.5706    2.9045 C   0  0  0  0  0  0  0  0  0  0  0  0
    2.7215   -2.3977    1.7435 C   0  0  0  0  0  0  0  0  0  0  0  0
    8.3208    2.9126    0.8916 C   0  0  0  0  0  0  0  0  0  0  0  0
    2.7342    0.6631    0.3492 H   0  0  0  0  0  0  0  0  0  0  0  0
   -3.5016    0.3863   -1.1505 H   0  0  0  0  0  0  0  0  0  0  0  0
    3.2984   -1.3029   -0.8789 H   0  0  0  0  0  0  0  0  0  0  0  0
    2.6559   -2.9508   -1.2620 H   0  0  0  0  0  0  0  0  0  0  0  0
    2.5683   -1.5865   -2.4378 H   0  0  0  0  0  0  0  0  0  0  0  0
   -5.2193    0.7486    1.0946 H   0  0  0  0  0  0  0  0  0  0  0  0
   -5.5011   -0.9414    0.5591 H   0  0  0  0  0  0  0  0  0  0  0  0
   -7.7049    3.3041   -1.9906 H   0  0  0  0  0  0  0  0  0  0  0  0
   -7.3993   -0.5686   -3.8255 H   0  0  0  0  0  0  0  0  0  0  0  0
   -6.2883    2.5412   -0.1187 H   0  0  0  0  0  0  0  0  0  0  0  0
   -5.9876   -1.3527   -1.9570 H   0  0  0  0  0  0  0  0  0  0  0  0
    2.2486   -0.4801    3.6790 H   0  0  0  0  0  0  0  0  0  0  0  0
    0.9682    0.4223    2.8089 H   0  0  0  0  0  0  0  0  0  0  0  0
    0.7104   -1.3084    3.2691 H   0  0  0  0  0  0  0  0  0  0  0  0
    1.9630   -3.2100    1.7094 H   0  0  0  0  0  0  0  0  0  0  0  0
    3.4974   -2.6024    0.9812 H   0  0  0  0  0  0  0  0  0  0  0  0
    3.2248   -2.4692    2.7308 H   0  0  0  0  0  0  0  0  0  0  0  0
    8.2211    4.0025    1.0768 H   0  0  0  0  0  0  0  0  0  0  0  0
    8.8610    2.4460    1.7414 H   0  0  0  0  0  0  0  0  0  0  0  0
    8.9010    2.7503   -0.0408 H   0  0  0  0  0  0  0  0  0  0  0  0
  2  1  2  0
  3  4  2  0
  4  1  1  0
  5  6  1  0
  6  2  1  0
  7 10  1  0
  8  7  2  0
  9  7  1  0
 10 14  1  0
 11  3  1  0
 12  8  1  0
 13  1  1  0
 14 11  1  0
 15  9  1  0
 16  2  1  0
 17 13  1  0
 18  6  2  0
 19 10  2  0
 20 13  2  0
 21  5  1  0
 22 17  1  0
 23 26  2  0
 24 22  1  0
 25 23  1  0
 26 28  1  0
 27 29  2  0
 28 24  2  0
 29 24  1  0
 30 11  1  0
 31 11  1  0
 32 15  1  0
  5  3  1  0
 27 23  1  0
 12 15  2  0
 14 33  1  0
 17 34  1  0
 21 35  1  0
 21 36  1  0
 21 37  1  0
 22 38  1  0
 22 39  1  0
 26 40  1  0
 27 41  1  0
 28 42  1  0
 29 43  1  0
 30 44  1  0
 30 45  1  0
 30 46  1  0
 31 47  1  0
 31 48  1  0
 31 49  1  0
 32 50  1  0
 32 51  1  0
 32 52  1  0
M  CHG  1  16  -1
M  END
$$$$
