
     RDKit          3D

 52 54  0  0  0  0  0  0  0  0999 V2000
    1.1859   -1.2323    0.2227 C   0  0  0  0  0  0  0  0  0  0  0  0
    1.2442   -1.2049   -1.1710 C   0  0  0  0  0  0  0  0  0  0  0  0
   -1.1798   -1.5533    0.1288 C   0  0  0  0  0  0  0  0  0  0  0  0
   -0.0136   -1.4186    0.8202 N   0  0  0  0  0  0  0  0  0  0  0  0
   -1.1406   -1.5626   -1.2582 N   0  0  0  0  0  0  0  0  0  0  0  0
    0.0612   -1.3527   -1.8969 C   0  0  0  0  0  0  0  0  0  0  0  0
   -4.8193    1.0589   -0.3585 C   0  0  0  0  0  0  0  0  0  0  0  0
   -5.9903    0.4374   -0.5978 N   0  0  0  0  0  0  0  0  0  0  0  0
   -4.8980    2.3408   -0.6247 O   0  0  0  0  0  0  0  0  0  0  0  0
   -3.6084    0.3916    0.1361 C   0  0  0  0  0  0  0  0  0  0  0  0
   -2.4601   -1.7545    0.9636 C   0  0  0  0  0  0  0  0  0  0  0  0
   -6.8252    1.3702   -1.0287 N   0  0  0  0  0  0  0  0  0  0  0  0
    2.3843   -1.0902    1.0739 C   0  0  0  0  0  0  0  0  0  0  0  0
   -3.6075   -1.0255    0.3924 N   0  0  0  0  0  0  0  0  0  0  0  0
   -6.1284    2.5220   -1.0395 C   0  0  0  0  0  0  0  0  0  0  0  0
    2.4563   -1.0679   -1.8421 O   0  0  0  0  0  0  0  0  0  0  0  0
    3.4725   -0.2356    0.6939 N   0  0  0  0  0  0  0  0  0  0  0  0
    0.1197   -1.2952   -3.1573 O   0  0  0  0  0  0  0  0  0  0  0  0
   -2.5646    1.0750    0.3141 O   0  0  0  0  0  0  0  0  0  0  0  0
    2.4239   -1.7005    2.1769 O   0  0  0  0  0  0  0  0  0  0  0  0
   -2.3465   -1.7176   -2.0973 C   0  0  0  0  0  0  0  0  0  0  0  0
    4.7326   -0.2354    1.4356 C   0  0  0  0  0  0  0  0  0  0  0  0
    7.4980    2.4855   -0.4435 C   0  0  0  0  0  0  0  0  0  0  0  0
    5.7198    0.7068    0.8016 C   0  0  0  0  0  0  0  0  0  0  0  0
    8.3597    3.3439   -1.0424 F   0  0  0  0  0  0  0  0  0  0  0  0
    7.4274    1.1555   -0.8684 C   0  0  0  0  0  0  0  0  0  0  0  0
    6.6748    2.9319    0.5947 C   0  0  0  0  0  0  0  0  0  0  0  0
    6.5378    0.2692   -0.2530 C   0  0  0  0  0  0  0  0  0  0  0  0
    5.7838    2.0485    1.2123 C   0  0  0  0  0  0  0  0  0  0  0  0
   -2.2645   -1.2524    2.4164 C   0  0  0  0  0  0  0  0  0  0  0  0
   -2.7699   -3.2659    1.0466 C   0  0  0  0  0  0  0  0  0  0  0  0
   -6.6981    3.8407   -1.4362 C   0  0  0  0  0  0  0  0  0  0  0  0
   -4.4905   -1.5536    0.2055 H   0  0  0  0  0  0  0  0  0  0  0  0
    3.3353    0.4459   -0.0869 H   0  0  0  0  0  0  0  0  0  0  0  0
   -2.7884   -0.7219   -2.3089 H   0  0  0  0  0  0  0  0  0  0  0  0
   -2.1065   -2.2070   -3.0653 H   0  0  0  0  0  0  0  0  0  0  0  0
   -3.1037   -2.3735   -1.6393 H   0  0  0  0  0  0  0  0  0  0  0  0
    5.1534   -1.2646    1.4476 H   0  0  0  0  0  0  0  0  0  0  0  0
    4.5425    0.0623    2.4899 H   0  0  0  0  0  0  0  0  0  0  0  0
    8.0589    0.8112   -1.6773 H   0  0  0  0  0  0  0  0  0  0  0  0
    6.7234    3.9635    0.9189 H   0  0  0  0  0  0  0  0  0  0  0  0
    6.4850   -0.7559   -0.5986 H   0  0  0  0  0  0  0  0  0  0  0  0
    5.1442    2.4097    2.0082 H   0  0  0  0  0  0  0  0  0  0  0  0
   -1.5043   -1.8596    2.9547 H   0  0  0  0  0  0  0  0  0  0  0  0
   -3.2200   -1.3219    2.9803 H   0  0  0  0  0  0  0  0  0  0  0  0
   -1.9307   -0.1941    2.4351 H   0  0  0  0  0  0  0  0  0  0  0  0
   -3.6908   -3.4415    1.6438 H   0  0  0  0  0  0  0  0  0  0  0  0
   -2.9199   -3.7217    0.0495 H   0  0  0  0  0  0  0  0  0  0  0  0
   -1.9310   -3.8082    1.5347 H   0  0  0  0  0  0  0  0  0  0  0  0
   -5.8822    4.5263   -1.7466 H   0  0  0  0  0  0  0  0  0  0  0  0
   -7.2401    4.2832   -0.5750 H   0  0  0  0  0  0  0  0  0  0  0  0
   -7.4016    3.7083   -2.2846 H   0  0  0  0  0  0  0  0  0  0  0  0
  2  1  2  0
  3  4  2  0
  4  1  1  0
  5  6  1  0
  6  2  1  0
  7 10  1  0
  8  7  2  0
  9  7  1  0
 10 14  1  0
 11  3  1  0
 12  8  1  0
 13  1  1  0
 14 11  1  0
 15  9  1  0
 16  2  1  0
 17 13  1  0
 18  6  2  0
 19 10  2  0
 20 13  2  0
 21  5  1  0
 22 17  1  0
 23 26  2  0
 24 22  1  0
 25 23  1  0
 26 28  1  0
 27 29  2  0
 28 24  2  0
 29 24  1  0
 30 11  1  0
 31 11  1  0
 32 15  1  0
  5  3  1  0
 27 23  1  0
 12 15  2  0
 14 33  1  0
 17 34  1  0
 21 35  1  0
 21 36  1  0
 21 37  1  0
 22 38  1  0
 22 39  1  0
 26 40  1  0
 27 41  1  0
 28 42  1  0
 29 43  1  0
 30 44  1  0
 30 45  1  0
 30 46  1  0
 31 47  1  0
 31 48  1  0
 31 49  1  0
 32 50  1  0
 32 51  1  0
 32 52  1  0
M  CHG  1  16  -1
M  END
$$$$
