
     RDKit          3D

 52 54  0  0  0  0  0  0  0  0999 V2000
    1.2704   -0.8917   -0.5634 C   0  0  0  0  0  0  0  0  0  0  0  0
    1.0604   -0.3295   -1.8225 C   0  0  0  0  0  0  0  0  0  0  0  0
   -1.0518   -1.4377   -0.4070 C   0  0  0  0  0  0  0  0  0  0  0  0
    0.2194   -1.4442    0.0853 N   0  0  0  0  0  0  0  0  0  0  0  0
   -1.2943   -0.8163   -1.6233 N   0  0  0  0  0  0  0  0  0  0  0  0
   -0.2359   -0.3017   -2.3386 C   0  0  0  0  0  0  0  0  0  0  0  0
   -5.3096   -0.3156    1.8684 C   0  0  0  0  0  0  0  0  0  0  0  0
   -6.4992   -0.4956    2.4744 N   0  0  0  0  0  0  0  0  0  0  0  0
   -5.0800    0.9552    1.6387 O   0  0  0  0  0  0  0  0  0  0  0  0
   -4.3937   -1.4059    1.5096 C   0  0  0  0  0  0  0  0  0  0  0  0
   -2.1479   -2.1216    0.4449 C   0  0  0  0  0  0  0  0  0  0  0  0
   -7.0252    0.7099    2.6257 N   0  0  0  0  0  0  0  0  0  0  0  0
    2.6037   -0.9543    0.0689 C   0  0  0  0  0  0  0  0  0  0  0  0
   -3.1380   -1.1128    0.8694 N   0  0  0  0  0  0  0  0  0  0  0  0
   -6.1333    1.5767    2.1104 C   0  0  0  0  0  0  0  0  0  0  0  0
    2.1190    0.1648   -2.5800 O   0  0  0  0  0  0  0  0  0  0  0  0
    3.5672    0.0927   -0.1172 N   0  0  0  0  0  0  0  0  0  0  0  0
   -0.4147    0.1982   -3.4846 O   0  0  0  0  0  0  0  0  0  0  0  0
   -4.7235   -2.5935    1.7704 O   0  0  0  0  0  0  0  0  0  0  0  0
    2.8763   -1.9288    0.8216 O   0  0  0  0  0  0  0  0  0  0  0  0
   -2.6349   -0.7596   -2.2393 C   0  0  0  0  0  0  0  0  0  0  0  0
    4.9457   -0.0522    0.3486 C   0  0  0  0  0  0  0  0  0  0  0  0
    7.1924    3.4660   -0.7274 C   0  0  0  0  0  0  0  0  0  0  0  0
    5.7567    1.1626   -0.0132 C   0  0  0  0  0  0  0  0  0  0  0  0
    7.8894    4.5771   -1.0708 F   0  0  0  0  0  0  0  0  0  0  0  0
    7.0927    2.3982   -1.6242 C   0  0  0  0  0  0  0  0  0  0  0  0
    6.5679    3.3904    0.5212 C   0  0  0  0  0  0  0  0  0  0  0  0
    6.3728    1.2520   -1.2724 C   0  0  0  0  0  0  0  0  0  0  0  0
    5.8469    2.2458    0.8764 C   0  0  0  0  0  0  0  0  0  0  0  0
   -2.8075   -3.2642   -0.3706 C   0  0  0  0  0  0  0  0  0  0  0  0
   -1.5276   -2.7427    1.7220 C   0  0  0  0  0  0  0  0  0  0  0  0
   -6.3387    3.0514    2.0488 C   0  0  0  0  0  0  0  0  0  0  0  0
   -2.8855   -0.1034    0.7609 H   0  0  0  0  0  0  0  0  0  0  0  0
    3.2588    0.9987   -0.5377 H   0  0  0  0  0  0  0  0  0  0  0  0
   -2.8033   -1.6686   -2.8541 H   0  0  0  0  0  0  0  0  0  0  0  0
   -2.7434    0.1302   -2.8956 H   0  0  0  0  0  0  0  0  0  0  0  0
   -3.4406   -0.6487   -1.4944 H   0  0  0  0  0  0  0  0  0  0  0  0
    5.3984   -0.9555   -0.1153 H   0  0  0  0  0  0  0  0  0  0  0  0
    4.9513   -0.2013    1.4504 H   0  0  0  0  0  0  0  0  0  0  0  0
    7.5696    2.4591   -2.5940 H   0  0  0  0  0  0  0  0  0  0  0  0
    6.6384    4.2198    1.2132 H   0  0  0  0  0  0  0  0  0  0  0  0
    6.2937    0.4362   -1.9804 H   0  0  0  0  0  0  0  0  0  0  0  0
    5.3591    2.2041    1.8425 H   0  0  0  0  0  0  0  0  0  0  0  0
   -2.0578   -3.7702   -1.0168 H   0  0  0  0  0  0  0  0  0  0  0  0
   -3.6386   -2.8969   -1.0034 H   0  0  0  0  0  0  0  0  0  0  0  0
   -3.2423   -4.0432    0.2909 H   0  0  0  0  0  0  0  0  0  0  0  0
   -1.0574   -1.9541    2.3486 H   0  0  0  0  0  0  0  0  0  0  0  0
   -2.2972   -3.2465    2.3431 H   0  0  0  0  0  0  0  0  0  0  0  0
   -0.7574   -3.4999    1.4577 H   0  0  0  0  0  0  0  0  0  0  0  0
   -5.3571    3.5669    1.9950 H   0  0  0  0  0  0  0  0  0  0  0  0
   -6.9343    3.3041    1.1473 H   0  0  0  0  0  0  0  0  0  0  0  0
   -6.8793    3.3963    2.9551 H   0  0  0  0  0  0  0  0  0  0  0  0
  2  1  2  0
  3  4  2  0
  4  1  1  0
  5  6  1  0
  6  2  1  0
  7 10  1  0
  8  7  2  0
  9  7  1  0
 10 14  1  0
 11  3  1  0
 12  8  1  0
 13  1  1  0
 14 11  1  0
 15  9  1  0
 16  2  1  0
 17 13  1  0
 18  6  2  0
 19 10  2  0
 20 13  2  0
 21  5  1  0
 22 17  1  0
 23 26  2  0
 24 22  1  0
 25 23  1  0
 26 28  1  0
 27 29  2  0
 28 24  2  0
 29 24  1  0
 30 11  1  0
 31 11  1  0
 32 15  1  0
  5  3  1  0
 27 23  1  0
 12 15  2  0
 14 33  1  0
 17 34  1  0
 21 35  1  0
 21 36  1  0
 21 37  1  0
 22 38  1  0
 22 39  1  0
 26 40  1  0
 27 41  1  0
 28 42  1  0
 29 43  1  0
 30 44  1  0
 30 45  1  0
 30 46  1  0
 31 47  1  0
 31 48  1  0
 31 49  1  0
 32 50  1  0
 32 51  1  0
 32 52  1  0
M  CHG  1  16  -1
M  END
$$$$
