
     RDKit          3D

 52 54  0  0  0  0  0  0  0  0999 V2000
    1.5747   -0.0657   -0.0474 C   0  0  0  0  0  0  0  0  0  0  0  0
    1.7716   -1.1835   -0.8580 C   0  0  0  0  0  0  0  0  0  0  0  0
   -0.7604   -0.5597    0.0872 C   0  0  0  0  0  0  0  0  0  0  0  0
    0.3291    0.1916    0.4141 N   0  0  0  0  0  0  0  0  0  0  0  0
   -0.5980   -1.6308   -0.7793 N   0  0  0  0  0  0  0  0  0  0  0  0
    0.6669   -1.9583   -1.2144 C   0  0  0  0  0  0  0  0  0  0  0  0
   -5.2831    0.8902   -1.3492 C   0  0  0  0  0  0  0  0  0  0  0  0
   -4.8329    1.0074   -2.6136 N   0  0  0  0  0  0  0  0  0  0  0  0
   -6.5665    1.1508   -1.2754 O   0  0  0  0  0  0  0  0  0  0  0  0
   -4.4494    0.5151   -0.1994 C   0  0  0  0  0  0  0  0  0  0  0  0
   -2.1187   -0.1491    0.7046 C   0  0  0  0  0  0  0  0  0  0  0  0
   -5.8773    1.3543   -3.3497 N   0  0  0  0  0  0  0  0  0  0  0  0
    2.6811    0.8175    0.3719 C   0  0  0  0  0  0  0  0  0  0  0  0
   -3.0434    0.2553   -0.3723 N   0  0  0  0  0  0  0  0  0  0  0  0
   -6.9213    1.4392   -2.5041 C   0  0  0  0  0  0  0  0  0  0  0  0
    3.0450   -1.5546   -1.2816 O   0  0  0  0  0  0  0  0  0  0  0  0
    3.8016    1.0681   -0.4904 N   0  0  0  0  0  0  0  0  0  0  0  0
    0.8562   -2.9758   -1.9383 O   0  0  0  0  0  0  0  0  0  0  0  0
   -4.9863    0.4264    0.9367 O   0  0  0  0  0  0  0  0  0  0  0  0
    2.6131    1.3910    1.4929 O   0  0  0  0  0  0  0  0  0  0  0  0
   -1.7156   -2.5033   -1.1909 C   0  0  0  0  0  0  0  0  0  0  0  0
    5.0293    1.6971   -0.0099 C   0  0  0  0  0  0  0  0  0  0  0  0
    7.1383   -1.0709    2.5337 C   0  0  0  0  0  0  0  0  0  0  0  0
    5.7826    0.7468    0.8799 C   0  0  0  0  0  0  0  0  0  0  0  0
    7.7942   -1.9483    3.3326 F   0  0  0  0  0  0  0  0  0  0  0  0
    7.1029   -1.2757    1.1513 C   0  0  0  0  0  0  0  0  0  0  0  0
    6.4942    0.0369    3.0927 C   0  0  0  0  0  0  0  0  0  0  0  0
    6.4257   -0.3725    0.3262 C   0  0  0  0  0  0  0  0  0  0  0  0
    5.8157    0.9422    2.2708 C   0  0  0  0  0  0  0  0  0  0  0  0
   -2.6903   -1.3244    1.5397 C   0  0  0  0  0  0  0  0  0  0  0  0
   -1.9346    1.0642    1.6510 C   0  0  0  0  0  0  0  0  0  0  0  0
   -8.3106    1.7800   -2.9219 C   0  0  0  0  0  0  0  0  0  0  0  0
   -2.6393    0.4346   -1.3203 H   0  0  0  0  0  0  0  0  0  0  0  0
    3.7308    0.8384   -1.5069 H   0  0  0  0  0  0  0  0  0  0  0  0
   -1.8376   -3.3271   -0.4570 H   0  0  0  0  0  0  0  0  0  0  0  0
   -2.6642   -1.9529   -1.3070 H   0  0  0  0  0  0  0  0  0  0  0  0
   -1.5340   -2.9513   -2.1911 H   0  0  0  0  0  0  0  0  0  0  0  0
    5.6705    1.9644   -0.8779 H   0  0  0  0  0  0  0  0  0  0  0  0
    4.7861    2.6444    0.5192 H   0  0  0  0  0  0  0  0  0  0  0  0
    7.5976   -2.1355    0.7182 H   0  0  0  0  0  0  0  0  0  0  0  0
    6.5177    0.1936    4.1635 H   0  0  0  0  0  0  0  0  0  0  0  0
    6.3985   -0.5456   -0.7427 H   0  0  0  0  0  0  0  0  0  0  0  0
    5.3156    1.7919    2.7188 H   0  0  0  0  0  0  0  0  0  0  0  0
   -3.2742   -2.0306    0.9181 H   0  0  0  0  0  0  0  0  0  0  0  0
   -1.8728   -1.8808    2.0474 H   0  0  0  0  0  0  0  0  0  0  0  0
   -3.3797   -0.9672    2.3340 H   0  0  0  0  0  0  0  0  0  0  0  0
   -2.8972    1.3691    2.1118 H   0  0  0  0  0  0  0  0  0  0  0  0
   -1.5422    1.9393    1.0891 H   0  0  0  0  0  0  0  0  0  0  0  0
   -1.2286    0.8182    2.4740 H   0  0  0  0  0  0  0  0  0  0  0  0
   -8.2866    2.5575   -3.7139 H   0  0  0  0  0  0  0  0  0  0  0  0
   -8.8821    2.1669   -2.0525 H   0  0  0  0  0  0  0  0  0  0  0  0
   -8.8120    0.8712   -3.3141 H   0  0  0  0  0  0  0  0  0  0  0  0
  2  1  2  0
  3  4  2  0
  4  1  1  0
  5  6  1  0
  6  2  1  0
  7 10  1  0
  8  7  2  0
  9  7  1  0
 10 14  1  0
 11  3  1  0
 12  8  1  0
 13  1  1  0
 14 11  1  0
 15  9  1  0
 16  2  1  0
 17 13  1  0
 18  6  2  0
 19 10  2  0
 20 13  2  0
 21  5  1  0
 22 17  1  0
 23 26  2  0
 24 22  1  0
 25 23  1  0
 26 28  1  0
 27 29  2  0
 28 24  2  0
 29 24  1  0
 30 11  1  0
 31 11  1  0
 32 15  1  0
  5  3  1  0
 27 23  1  0
 12 15  2  0
 14 33  1  0
 17 34  1  0
 21 35  1  0
 21 36  1  0
 21 37  1  0
 22 38  1  0
 22 39  1  0
 26 40  1  0
 27 41  1  0
 28 42  1  0
 29 43  1  0
 30 44  1  0
 30 45  1  0
 30 46  1  0
 31 47  1  0
 31 48  1  0
 31 49  1  0
 32 50  1  0
 32 51  1  0
 32 52  1  0
M  CHG  1  16  -1
M  END
$$$$
