
     RDKit          3D

 26 25  0  0  0  0  0  0  0  0999 V2000
    0.6835    0.0000    0.0000 Cl  0  0  0  0  0  0  0  0  0  0  0  0
   -0.5367    0.2381   -1.1670 C   0  0  1  0  0  0  0  0  0  0  0  0
    0.6756   -0.0006   -0.3658 C   0  0  0  0  0  0  0  0  0  0  0  0
   -1.8110    0.2299   -0.3722 C   0  0  2  0  0  0  0  0  0  0  0  0
   -1.9169    1.3111    0.5598 N   0  0  0  0  0  0  0  0  0  0  0  0
   -0.4815    1.4291   -1.8810 O   0  0  0  0  0  0  0  0  0  0  0  0
    1.2146    1.0404    0.3855 C   0  0  0  0  0  0  0  0  0  0  0  0
    1.3270   -1.2264   -0.3132 C   0  0  0  0  0  0  0  0  0  0  0  0
   -2.1309   -1.1039    0.2459 C   0  0  0  0  0  0  0  0  0  0  0  0
    2.4733   -1.4095    0.4591 C   0  0  0  0  0  0  0  0  0  0  0  0
    2.3486    0.8801    1.1568 C   0  0  0  0  0  0  0  0  0  0  0  0
    2.9898   -0.3459    1.2018 C   0  0  0  0  0  0  0  0  0  0  0  0
   -0.6835    0.0000    0.0000 H   0  0  0  0  0  0  0  0  0  0  0  0
   -0.6154   -0.5841   -1.9097 H   0  0  0  0  0  0  0  0  0  0  0  0
   -2.6246    0.4124   -1.1345 H   0  0  0  0  0  0  0  0  0  0  0  0
   -2.0488    2.2266    0.0785 H   0  0  0  0  0  0  0  0  0  0  0  0
   -2.6142    1.0944    1.2905 H   0  0  0  0  0  0  0  0  0  0  0  0
   -0.6217    1.2885   -2.8691 H   0  0  0  0  0  0  0  0  0  0  0  0
    0.6901    2.0075    0.3364 H   0  0  0  0  0  0  0  0  0  0  0  0
    0.9340   -2.0570   -0.8857 H   0  0  0  0  0  0  0  0  0  0  0  0
   -1.3401   -1.5131    0.8752 H   0  0  0  0  0  0  0  0  0  0  0  0
   -2.4485   -1.8187   -0.5658 H   0  0  0  0  0  0  0  0  0  0  0  0
   -3.0549   -0.9410    0.8569 H   0  0  0  0  0  0  0  0  0  0  0  0
    2.9590   -2.3885    0.4758 H   0  0  0  0  0  0  0  0  0  0  0  0
    2.7447    1.7162    1.7334 H   0  0  0  0  0  0  0  0  0  0  0  0
    3.8885   -0.4858    1.8085 H   0  0  0  0  0  0  0  0  0  0  0  0
  3  2  1  0
  4  2  1  0
  5  4  1  0
  6  2  1  0
  7  3  2  0
  8  3  1  0
  9  4  1  0
 10  8  2  0
 11  7  1  0
 12 11  2  0
 12 10  1  0
  1 13  1  0
  2 14  1  6
  4 15  1  6
  5 16  1  0
  5 17  1  0
  6 18  1  0
  7 19  1  0
  8 20  1  0
  9 21  1  0
  9 22  1  0
  9 23  1  0
 10 24  1  0
 11 25  1  0
 12 26  1  0
M  END
$$$$
