
     RDKit          2D

 12 11  0  0  0  0  0  0  0  0999 V2000
    3.1167   -8.1542    0.0000 Cl  0  0  0  0  0  0  0  0  0  0  0  0
    4.7167   -7.0625    0.0000 C   0  0  0  0  0  0  0  0  0  0  0  0
    5.3292   -7.4167    0.0000 C   0  0  0  0  0  0  0  0  0  0  0  0
    4.1042   -7.4167    0.0000 C   0  0  0  0  0  0  0  0  0  0  0  0
    3.4875   -7.0542    0.0000 N   0  0  0  0  0  0  0  0  0  0  0  0
    4.7167   -6.3542    0.0000 O   0  0  0  0  0  0  0  0  0  0  0  0
    5.9417   -7.0667    0.0000 C   0  0  0  0  0  0  0  0  0  0  0  0
    5.3292   -8.1292    0.0000 C   0  0  0  0  0  0  0  0  0  0  0  0
    4.1042   -8.1292    0.0000 C   0  0  0  0  0  0  0  0  0  0  0  0
    5.9500   -8.4792    0.0000 C   0  0  0  0  0  0  0  0  0  0  0  0
    6.5625   -7.4250    0.0000 C   0  0  0  0  0  0  0  0  0  0  0  0
    6.5667   -8.1292    0.0000 C   0  0  0  0  0  0  0  0  0  0  0  0
  3  2  1  0
  4  2  1  0
  5  4  1  0
  6  2  1  0
  7  3  1  0
  8  3  2  0
  9  4  1  0
 10  8  1  0
 11  7  2  0
 12 11  1  0
 12 10  2  0
M  END
> <chembl_id>
CHEMBL1200695

> <chembl_pref_name>
PHENYLPROPANOLAMINE HYDROCHLORIDE
