
     RDKit          3D

 26 25  0  0  0  0  0  0  0  0999 V2000
    0.6902    0.0000    0.0000 Cl  0  0  0  0  0  0  0  0  0  0  0  0
   -0.8592    0.0067   -0.6143 C   0  0  1  0  0  0  0  0  0  0  0  0
    0.5748   -0.0975   -0.3802 C   0  0  0  0  0  0  0  0  0  0  0  0
   -1.6119    0.4857    0.5710 C   0  0  2  0  0  0  0  0  0  0  0  0
   -1.4017   -0.3333    1.7168 N   0  0  0  0  0  0  0  0  0  0  0  0
   -1.0663    0.7659   -1.7693 O   0  0  0  0  0  0  0  0  0  0  0  0
    1.3666   -0.5301   -1.4546 C   0  0  0  0  0  0  0  0  0  0  0  0
    1.2473    0.1930    0.7760 C   0  0  0  0  0  0  0  0  0  0  0  0
   -3.1228    0.4683    0.3161 C   0  0  0  0  0  0  0  0  0  0  0  0
    2.6271    0.0691    0.8860 C   0  0  0  0  0  0  0  0  0  0  0  0
    2.7352   -0.6529   -1.3458 C   0  0  0  0  0  0  0  0  0  0  0  0
    3.3962   -0.3564   -0.1740 C   0  0  0  0  0  0  0  0  0  0  0  0
   -0.6902    0.0000    0.0000 H   0  0  0  0  0  0  0  0  0  0  0  0
   -1.2203   -1.0424   -0.8207 H   0  0  0  0  0  0  0  0  0  0  0  0
   -1.3932    1.5704    0.7571 H   0  0  0  0  0  0  0  0  0  0  0  0
   -2.0599   -0.1946    2.4871 H   0  0  0  0  0  0  0  0  0  0  0  0
   -1.0612   -1.2794    1.5303 H   0  0  0  0  0  0  0  0  0  0  0  0
   -0.2052    0.8877   -2.2317 H   0  0  0  0  0  0  0  0  0  0  0  0
    0.9363   -0.7862   -2.4131 H   0  0  0  0  0  0  0  0  0  0  0  0
    0.7275    0.5338    1.6344 H   0  0  0  0  0  0  0  0  0  0  0  0
   -3.4447   -0.4989   -0.1097 H   0  0  0  0  0  0  0  0  0  0  0  0
   -3.5969    0.5629    1.3181 H   0  0  0  0  0  0  0  0  0  0  0  0
   -3.4568    1.3401   -0.2774 H   0  0  0  0  0  0  0  0  0  0  0  0
    3.1126    0.3085    1.8149 H   0  0  0  0  0  0  0  0  0  0  0  0
    3.3184   -0.9857   -2.1821 H   0  0  0  0  0  0  0  0  0  0  0  0
    4.4582   -0.4344   -0.0347 H   0  0  0  0  0  0  0  0  0  0  0  0
  3  2  1  0
  4  2  1  0
  5  4  1  0
  6  2  1  0
  7  3  2  0
  8  3  1  0
  9  4  1  0
 10  8  2  0
 11  7  1  0
 12 11  2  0
 12 10  1  0
  1 13  1  0
  2 14  1  6
  4 15  1  1
  5 16  1  0
  5 17  1  0
  6 18  1  0
  7 19  1  0
  8 20  1  0
  9 21  1  0
  9 22  1  0
  9 23  1  0
 10 24  1  0
 11 25  1  0
 12 26  1  0
M  END
$$$$
