
     RDKit          3D

 26 25  0  0  0  0  0  0  0  0999 V2000
    0.6881    0.0000    0.0000 Cl  0  0  0  0  0  0  0  0  0  0  0  0
   -0.6829   -0.5763    0.2063 C   0  0  1  0  0  0  0  0  0  0  0  0
    0.7178   -0.2896   -0.0829 C   0  0  0  0  0  0  0  0  0  0  0  0
   -1.6850    0.4400   -0.2127 C   0  0  2  0  0  0  0  0  0  0  0  0
   -1.5524    1.7148    0.4482 N   0  0  0  0  0  0  0  0  0  0  0  0
   -0.9943   -1.7430   -0.5401 O   0  0  0  0  0  0  0  0  0  0  0  0
    1.2504    0.9351   -0.3988 C   0  0  0  0  0  0  0  0  0  0  0  0
    1.6172   -1.3562   -0.0362 C   0  0  0  0  0  0  0  0  0  0  0  0
   -3.0368   -0.1307    0.2427 C   0  0  0  0  0  0  0  0  0  0  0  0
    2.9553   -1.1728   -0.2943 C   0  0  0  0  0  0  0  0  0  0  0  0
    2.5946    1.1395   -0.6618 C   0  0  0  0  0  0  0  0  0  0  0  0
    3.4713    0.0652   -0.6098 C   0  0  0  0  0  0  0  0  0  0  0  0
   -0.6881    0.0000    0.0000 H   0  0  0  0  0  0  0  0  0  0  0  0
   -0.8307   -0.8066    1.2781 H   0  0  0  0  0  0  0  0  0  0  0  0
   -1.7149    0.5920   -1.3141 H   0  0  0  0  0  0  0  0  0  0  0  0
   -1.6943    1.5503    1.4761 H   0  0  0  0  0  0  0  0  0  0  0  0
   -2.3599    2.3063    0.1170 H   0  0  0  0  0  0  0  0  0  0  0  0
   -1.0908   -1.4266   -1.4732 H   0  0  0  0  0  0  0  0  0  0  0  0
    0.6113    1.7923   -0.4521 H   0  0  0  0  0  0  0  0  0  0  0  0
    1.2592   -2.3557    0.2087 H   0  0  0  0  0  0  0  0  0  0  0  0
   -3.0486   -0.1607    1.3366 H   0  0  0  0  0  0  0  0  0  0  0  0
   -3.0308   -1.1880   -0.1174 H   0  0  0  0  0  0  0  0  0  0  0  0
   -3.8732    0.4199   -0.2284 H   0  0  0  0  0  0  0  0  0  0  0  0
    3.6030   -2.0533   -0.2399 H   0  0  0  0  0  0  0  0  0  0  0  0
    2.9912    2.1266   -0.9108 H   0  0  0  0  0  0  0  0  0  0  0  0
    4.5232    0.1774   -0.8067 H   0  0  0  0  0  0  0  0  0  0  0  0
  3  2  1  0
  4  2  1  0
  5  4  1  0
  6  2  1  0
  7  3  2  0
  8  3  1  0
  9  4  1  0
 10  8  2  0
 11  7  1  0
 12 11  2  0
 12 10  1  0
  1 13  1  0
  2 14  1  1
  4 15  1  6
  5 16  1  0
  5 17  1  0
  6 18  1  0
  7 19  1  0
  8 20  1  0
  9 21  1  0
  9 22  1  0
  9 23  1  0
 10 24  1  0
 11 25  1  0
 12 26  1  0
M  END
$$$$
