
     RDKit          3D

 26 25  0  0  0  0  0  0  0  0999 V2000
    0.6905    0.0000    0.0000 Cl  0  0  0  0  0  0  0  0  0  0  0  0
   -0.6974   -0.5336    0.6156 C   0  0  1  0  0  0  0  0  0  0  0  0
    0.6755   -0.1691    0.2289 C   0  0  0  0  0  0  0  0  0  0  0  0
   -1.7077    0.5455    0.3453 C   0  0  2  0  0  0  0  0  0  0  0  0
   -2.9795    0.0573    0.9057 N   0  0  0  0  0  0  0  0  0  0  0  0
   -1.0813   -1.7115    0.0088 O   0  0  0  0  0  0  0  0  0  0  0  0
    1.0643    1.0949   -0.1398 C   0  0  0  0  0  0  0  0  0  0  0  0
    1.6309   -1.1654    0.2389 C   0  0  0  0  0  0  0  0  0  0  0  0
   -2.0126    0.7327   -1.1167 C   0  0  0  0  0  0  0  0  0  0  0  0
    2.9495   -0.9455   -0.1035 C   0  0  0  0  0  0  0  0  0  0  0  0
    2.3817    1.3334   -0.4861 C   0  0  0  0  0  0  0  0  0  0  0  0
    3.3383    0.3258   -0.4739 C   0  0  0  0  0  0  0  0  0  0  0  0
   -0.6905    0.0000    0.0000 H   0  0  0  0  0  0  0  0  0  0  0  0
   -0.6837   -0.6997    1.7139 H   0  0  0  0  0  0  0  0  0  0  0  0
   -1.4855    1.4808    0.8875 H   0  0  0  0  0  0  0  0  0  0  0  0
   -2.7713   -0.2256    1.8977 H   0  0  0  0  0  0  0  0  0  0  0  0
   -3.1283   -0.8711    0.4067 H   0  0  0  0  0  0  0  0  0  0  0  0
   -1.4892   -2.3470    0.6706 H   0  0  0  0  0  0  0  0  0  0  0  0
    0.3440    1.8871   -0.1564 H   0  0  0  0  0  0  0  0  0  0  0  0
    1.3623   -2.1888    0.5272 H   0  0  0  0  0  0  0  0  0  0  0  0
   -2.7007    1.6205   -1.1655 H   0  0  0  0  0  0  0  0  0  0  0  0
   -1.1581    0.9253   -1.7620 H   0  0  0  0  0  0  0  0  0  0  0  0
   -2.5723   -0.1592   -1.4564 H   0  0  0  0  0  0  0  0  0  0  0  0
    3.6587   -1.7834   -0.0742 H   0  0  0  0  0  0  0  0  0  0  0  0
    2.7006    2.3213   -0.7776 H   0  0  0  0  0  0  0  0  0  0  0  0
    4.3620    0.4753   -0.7349 H   0  0  0  0  0  0  0  0  0  0  0  0
  3  2  1  0
  4  2  1  0
  5  4  1  0
  6  2  1  0
  7  3  2  0
  8  3  1  0
  9  4  1  0
 10  8  2  0
 11  7  1  0
 12 11  2  0
 12 10  1  0
  1 13  1  0
  2 14  1  1
  4 15  1  1
  5 16  1  0
  5 17  1  0
  6 18  1  0
  7 19  1  0
  8 20  1  0
  9 21  1  0
  9 22  1  0
  9 23  1  0
 10 24  1  0
 11 25  1  0
 12 26  1  0
M  END
$$$$
