
     RDKit          3D

 12 11  0  0  0  0  0  0  0  0999 V2000
    0.0000    0.0000    0.0000 Cl  0  0  0  0  0  0  0  0  0  0  0  0
   -1.2442   -0.5838    0.5994 C   0  0  0  0  0  0  0  0  0  0  0  0
    0.1594   -0.2234    0.3768 C   0  0  0  0  0  0  0  0  0  0  0  0
   -2.2099    0.1395   -0.3078 C   0  0  0  0  0  0  0  0  0  0  0  0
   -2.1983   -0.3601   -1.6690 N   0  0  0  0  0  0  0  0  0  0  0  0
   -1.4943   -1.9289    0.7050 O   0  0  0  0  0  0  0  0  0  0  0  0
    0.6744    0.8281    1.1366 C   0  0  0  0  0  0  0  0  0  0  0  0
    0.9990   -0.8386   -0.5170 C   0  0  0  0  0  0  0  0  0  0  0  0
   -1.8258    1.6024   -0.2666 C   0  0  0  0  0  0  0  0  0  0  0  0
    2.3140   -0.4409   -0.6707 C   0  0  0  0  0  0  0  0  0  0  0  0
    1.9868    1.2074    0.9671 C   0  0  0  0  0  0  0  0  0  0  0  0
    2.8390    0.5983    0.0739 C   0  0  0  0  0  0  0  0  0  0  0  0
  3  2  1  0
  4  2  1  0
  5  4  1  0
  6  2  1  0
  7  3  2  0
  8  3  1  0
  9  4  1  0
 10  8  2  0
 11  7  1  0
 12 11  2  0
 12 10  1  0
M  END
