
     RDKit          3D

 26 25  0  0  0  0  0  0  0  0999 V2000
    0.6919    0.0000    0.0000 Cl  0  0  0  0  0  0  0  0  0  0  0  0
   -0.6822    0.4863    0.4022 C   0  0  1  0  0  0  0  0  0  0  0  0
    0.7167    0.1896    0.1210 C   0  0  0  0  0  0  0  0  0  0  0  0
   -1.6923   -0.4825   -0.0852 C   0  0  2  0  0  0  0  0  0  0  0  0
   -1.7760   -0.6489   -1.5060 N   0  0  0  0  0  0  0  0  0  0  0  0
   -0.7934    0.4811    1.8155 O   0  0  0  0  0  0  0  0  0  0  0  0
    1.1950   -0.6905   -0.8044 C   0  0  0  0  0  0  0  0  0  0  0  0
    1.6793    0.8761    0.8752 C   0  0  0  0  0  0  0  0  0  0  0  0
   -3.0634    0.0242    0.3497 C   0  0  0  0  0  0  0  0  0  0  0  0
    3.0246    0.6473    0.6641 C   0  0  0  0  0  0  0  0  0  0  0  0
    2.5484   -0.9237   -1.0200 C   0  0  0  0  0  0  0  0  0  0  0  0
    3.4940   -0.2506   -0.2805 C   0  0  0  0  0  0  0  0  0  0  0  0
   -0.6919    0.0000    0.0000 H   0  0  0  0  0  0  0  0  0  0  0  0
   -0.9801    1.5252    0.0768 H   0  0  0  0  0  0  0  0  0  0  0  0
   -1.5538   -1.4432    0.4595 H   0  0  0  0  0  0  0  0  0  0  0  0
   -2.3930    0.1007   -1.9187 H   0  0  0  0  0  0  0  0  0  0  0  0
   -2.0474   -1.5984   -1.8085 H   0  0  0  0  0  0  0  0  0  0  0  0
   -0.4782   -0.4151    2.0987 H   0  0  0  0  0  0  0  0  0  0  0  0
    0.5095   -1.2363   -1.4011 H   0  0  0  0  0  0  0  0  0  0  0  0
    1.3800    1.5803    1.6177 H   0  0  0  0  0  0  0  0  0  0  0  0
   -3.0846    0.2766    1.4217 H   0  0  0  0  0  0  0  0  0  0  0  0
   -3.8580   -0.7381    0.1074 H   0  0  0  0  0  0  0  0  0  0  0  0
   -3.3021    0.9072   -0.2891 H   0  0  0  0  0  0  0  0  0  0  0  0
    3.7366    1.1981    1.2678 H   0  0  0  0  0  0  0  0  0  0  0  0
    2.8765   -1.6345   -1.7688 H   0  0  0  0  0  0  0  0  0  0  0  0
    4.5441   -0.3823   -0.3952 H   0  0  0  0  0  0  0  0  0  0  0  0
  3  2  1  0
  4  2  1  0
  5  4  1  0
  6  2  1  0
  7  3  2  0
  8  3  1  0
  9  4  1  0
 10  8  2  0
 11  7  1  0
 12 11  2  0
 12 10  1  0
  1 13  1  0
  2 14  1  6
  4 15  1  1
  5 16  1  0
  5 17  1  0
  6 18  1  0
  7 19  1  0
  8 20  1  0
  9 21  1  0
  9 22  1  0
  9 23  1  0
 10 24  1  0
 11 25  1  0
 12 26  1  0
M  END
$$$$
