
     RDKit          3D

 26 25  0  0  0  0  0  0  0  0999 V2000
    0.6889    0.0000    0.0000 Cl  0  0  0  0  0  0  0  0  0  0  0  0
   -0.5615    0.6058    0.7525 C   0  0  1  0  0  0  0  0  0  0  0  0
    0.6883    0.0765    0.1507 C   0  0  0  0  0  0  0  0  0  0  0  0
   -1.7216    0.6334   -0.2289 C   0  0  2  0  0  0  0  0  0  0  0  0
   -2.8209    1.2795    0.4202 N   0  0  0  0  0  0  0  0  0  0  0  0
   -0.9209   -0.0987    1.8994 O   0  0  0  0  0  0  0  0  0  0  0  0
    0.9357   -1.2753   -0.0095 C   0  0  0  0  0  0  0  0  0  0  0  0
    1.6859    0.9327   -0.2886 C   0  0  0  0  0  0  0  0  0  0  0  0
   -2.0418   -0.7668   -0.6787 C   0  0  0  0  0  0  0  0  0  0  0  0
    2.8604    0.4922   -0.8533 C   0  0  0  0  0  0  0  0  0  0  0  0
    2.1045   -1.7547   -0.5727 C   0  0  0  0  0  0  0  0  0  0  0  0
    3.0779   -0.8692   -0.9998 C   0  0  0  0  0  0  0  0  0  0  0  0
   -0.6889    0.0000    0.0000 H   0  0  0  0  0  0  0  0  0  0  0  0
   -0.3317    1.6599    1.0875 H   0  0  0  0  0  0  0  0  0  0  0  0
   -1.4562    1.2643   -1.1019 H   0  0  0  0  0  0  0  0  0  0  0  0
   -2.6799    1.4422    1.4412 H   0  0  0  0  0  0  0  0  0  0  0  0
   -3.2417    2.0665   -0.0973 H   0  0  0  0  0  0  0  0  0  0  0  0
   -0.7048    0.4016    2.7317 H   0  0  0  0  0  0  0  0  0  0  0  0
    0.2019   -1.9981    0.3114 H   0  0  0  0  0  0  0  0  0  0  0  0
    1.5250    2.0051   -0.1782 H   0  0  0  0  0  0  0  0  0  0  0  0
   -2.1212   -1.4136    0.2238 H   0  0  0  0  0  0  0  0  0  0  0  0
   -3.0198   -0.7290   -1.2296 H   0  0  0  0  0  0  0  0  0  0  0  0
   -1.2888   -1.1632   -1.3715 H   0  0  0  0  0  0  0  0  0  0  0  0
    3.5858    1.2378   -1.1687 H   0  0  0  0  0  0  0  0  0  0  0  0
    2.2441   -2.8308   -0.6734 H   0  0  0  0  0  0  0  0  0  0  0  0
    4.0012   -1.1980   -1.4431 H   0  0  0  0  0  0  0  0  0  0  0  0
  3  2  1  0
  4  2  1  0
  5  4  1  0
  6  2  1  0
  7  3  2  0
  8  3  1  0
  9  4  1  0
 10  8  2  0
 11  7  1  0
 12 11  2  0
 12 10  1  0
  1 13  1  0
  2 14  1  1
  4 15  1  6
  5 16  1  0
  5 17  1  0
  6 18  1  0
  7 19  1  0
  8 20  1  0
  9 21  1  0
  9 22  1  0
  9 23  1  0
 10 24  1  0
 11 25  1  0
 12 26  1  0
M  END
$$$$
