
     RDKit          3D

 37 24  0  0  0  0  0  0  0  0999 V2000
    0.0054    0.3978    0.0000 O   0  0  0  0  0  0  0  0  0  0  0  0
    0.0000    0.0000   -0.0000 S   0  0  0  0  0  0  0  0  0  0  0  0
   -0.1998    0.9955   -1.0689 O   0  0  0  0  0  0  0  0  0  0  0  0
   -0.0123    0.6763    1.3099 O   0  0  0  0  0  0  0  0  0  0  0  0
    1.2967   -0.6744   -0.1927 O   0  0  0  0  0  0  0  0  0  0  0  0
   -1.0846   -0.9974   -0.0483 O   0  0  0  0  0  0  0  0  0  0  0  0
    0.0000    0.0000    0.0000 Na  0  0  0  0  0 15  0  0  0  0  0  0
    0.0000    0.0000    0.0000 Na  0  0  0  0  0 15  0  0  0  0  0  0
    0.0066    0.3978    0.0000 O   0  0  0  0  0  0  0  0  0  0  0  0
    0.0022    0.3978    0.0000 O   0  0  0  0  0  0  0  0  0  0  0  0
    0.0108    0.3977    0.0000 O   0  0  0  0  0  0  0  0  0  0  0  0
    0.0128    0.3976    0.0000 O   0  0  0  0  0  0  0  0  0  0  0  0
    0.0217    0.3972    0.0000 O   0  0  0  0  0  0  0  0  0  0  0  0
    0.0075    0.3977    0.0000 O   0  0  0  0  0  0  0  0  0  0  0  0
    0.0071    0.3978    0.0000 O   0  0  0  0  0  0  0  0  0  0  0  0
    0.0005    0.3978    0.0000 O   0  0  0  0  0  0  0  0  0  0  0  0
    0.0077    0.3977    0.0000 O   0  0  0  0  0  0  0  0  0  0  0  0
    0.7607   -0.2093    0.0000 H   0  0  0  0  0  0  0  0  0  0  0  0
   -0.7661   -0.1885    0.0000 H   0  0  0  0  0  0  0  0  0  0  0  0
    0.7601   -0.2115    0.0000 H   0  0  0  0  0  0  0  0  0  0  0  0
   -0.7667   -0.1862    0.0000 H   0  0  0  0  0  0  0  0  0  0  0  0
   -0.7646   -0.1947    0.0000 H   0  0  0  0  0  0  0  0  0  0  0  0
    0.7624   -0.2031    0.0000 H   0  0  0  0  0  0  0  0  0  0  0  0
    0.7578   -0.2196    0.0000 H   0  0  0  0  0  0  0  0  0  0  0  0
   -0.7686   -0.1780    0.0000 H   0  0  0  0  0  0  0  0  0  0  0  0
    0.7566   -0.2235    0.0000 H   0  0  0  0  0  0  0  0  0  0  0  0
   -0.7695   -0.1742    0.0000 H   0  0  0  0  0  0  0  0  0  0  0  0
    0.7515   -0.2402    0.0000 H   0  0  0  0  0  0  0  0  0  0  0  0
   -0.7732   -0.1571    0.0000 H   0  0  0  0  0  0  0  0  0  0  0  0
    0.7596   -0.2133    0.0000 H   0  0  0  0  0  0  0  0  0  0  0  0
   -0.7671   -0.1845    0.0000 H   0  0  0  0  0  0  0  0  0  0  0  0
    0.7598   -0.2125    0.0000 H   0  0  0  0  0  0  0  0  0  0  0  0
   -0.7669   -0.1853    0.0000 H   0  0  0  0  0  0  0  0  0  0  0  0
    0.7632   -0.1998    0.0000 H   0  0  0  0  0  0  0  0  0  0  0  0
   -0.7637   -0.1980    0.0000 H   0  0  0  0  0  0  0  0  0  0  0  0
   -0.7672   -0.1842    0.0000 H   0  0  0  0  0  0  0  0  0  0  0  0
    0.7595   -0.2136    0.0000 H   0  0  0  0  0  0  0  0  0  0  0  0
  2  3  2  0
  2  4  2  0
  2  5  1  0
  2  6  1  0
  1 18  1  0
  1 19  1  0
  9 20  1  0
  9 21  1  0
 10 22  1  0
 10 23  1  0
 11 24  1  0
 11 25  1  0
 12 26  1  0
 12 27  1  0
 13 28  1  0
 13 29  1  0
 14 30  1  0
 14 31  1  0
 15 32  1  0
 15 33  1  0
 16 34  1  0
 16 35  1  0
 17 36  1  0
 17 37  1  0
M  CHG  4   5  -1   6  -1   7   1   8   1
M  END
$$$$
