
     RDKit          3D

 37 24  0  0  0  0  0  0  0  0999 V2000
    0.0374    0.3960    0.0000 O   0  0  0  0  0  0  0  0  0  0  0  0
   -0.0000    0.0000   -0.0000 S   0  0  0  0  0  0  0  0  0  0  0  0
   -0.4542    0.1279    1.3967 O   0  0  0  0  0  0  0  0  0  0  0  0
    1.3745   -0.5326   -0.0229 O   0  0  0  0  0  0  0  0  0  0  0  0
   -0.8954   -0.9192   -0.7257 O   0  0  0  0  0  0  0  0  0  0  0  0
   -0.0249    1.3239   -0.6480 O   0  0  0  0  0  0  0  0  0  0  0  0
    0.0000    0.0000    0.0000 Na  0  0  0  0  0 15  0  0  0  0  0  0
    0.0000    0.0000    0.0000 Na  0  0  0  0  0 15  0  0  0  0  0  0
    0.0168    0.3975    0.0000 O   0  0  0  0  0  0  0  0  0  0  0  0
    0.0018    0.3978    0.0000 O   0  0  0  0  0  0  0  0  0  0  0  0
    0.0209    0.3973    0.0000 O   0  0  0  0  0  0  0  0  0  0  0  0
    0.0220    0.3972    0.0000 O   0  0  0  0  0  0  0  0  0  0  0  0
    0.0039    0.3978    0.0000 O   0  0  0  0  0  0  0  0  0  0  0  0
    0.0109    0.3977    0.0000 O   0  0  0  0  0  0  0  0  0  0  0  0
    0.0276    0.3969    0.0000 O   0  0  0  0  0  0  0  0  0  0  0  0
    0.0027    0.3978    0.0000 O   0  0  0  0  0  0  0  0  0  0  0  0
    0.0159    0.3975    0.0000 O   0  0  0  0  0  0  0  0  0  0  0  0
    0.7414   -0.2699    0.0000 H   0  0  0  0  0  0  0  0  0  0  0  0
   -0.7788   -0.1262    0.0000 H   0  0  0  0  0  0  0  0  0  0  0  0
    0.7544   -0.2309    0.0000 H   0  0  0  0  0  0  0  0  0  0  0  0
   -0.7712   -0.1666    0.0000 H   0  0  0  0  0  0  0  0  0  0  0  0
   -0.7644   -0.1954    0.0000 H   0  0  0  0  0  0  0  0  0  0  0  0
    0.7626   -0.2024    0.0000 H   0  0  0  0  0  0  0  0  0  0  0  0
   -0.7729   -0.1584    0.0000 H   0  0  0  0  0  0  0  0  0  0  0  0
    0.7519   -0.2388    0.0000 H   0  0  0  0  0  0  0  0  0  0  0  0
   -0.7733   -0.1564    0.0000 H   0  0  0  0  0  0  0  0  0  0  0  0
    0.7513   -0.2408    0.0000 H   0  0  0  0  0  0  0  0  0  0  0  0
    0.7615   -0.2063    0.0000 H   0  0  0  0  0  0  0  0  0  0  0  0
   -0.7654   -0.1915    0.0000 H   0  0  0  0  0  0  0  0  0  0  0  0
   -0.7686   -0.1780    0.0000 H   0  0  0  0  0  0  0  0  0  0  0  0
    0.7577   -0.2197    0.0000 H   0  0  0  0  0  0  0  0  0  0  0  0
    0.7478   -0.2513    0.0000 H   0  0  0  0  0  0  0  0  0  0  0  0
   -0.7754   -0.1455    0.0000 H   0  0  0  0  0  0  0  0  0  0  0  0
    0.7621   -0.2040    0.0000 H   0  0  0  0  0  0  0  0  0  0  0  0
   -0.7648   -0.1938    0.0000 H   0  0  0  0  0  0  0  0  0  0  0  0
   -0.7708   -0.1682    0.0000 H   0  0  0  0  0  0  0  0  0  0  0  0
    0.7549   -0.2293    0.0000 H   0  0  0  0  0  0  0  0  0  0  0  0
  2  3  2  0
  2  4  2  0
  2  5  1  0
  2  6  1  0
  1 18  1  0
  1 19  1  0
  9 20  1  0
  9 21  1  0
 10 22  1  0
 10 23  1  0
 11 24  1  0
 11 25  1  0
 12 26  1  0
 12 27  1  0
 13 28  1  0
 13 29  1  0
 14 30  1  0
 14 31  1  0
 15 32  1  0
 15 33  1  0
 16 34  1  0
 16 35  1  0
 17 36  1  0
 17 37  1  0
M  CHG  4   5  -1   6  -1   7   1   8   1
M  END
$$$$
