
     RDKit          3D

 37 24  0  0  0  0  0  0  0  0999 V2000
    0.0068    0.3978    0.0000 O   0  0  0  0  0  0  0  0  0  0  0  0
   -0.0000    0.0000   -0.0000 S   0  0  0  0  0  0  0  0  0  0  0  0
   -0.1075    1.1641   -0.8982 O   0  0  0  0  0  0  0  0  0  0  0  0
   -0.1172    0.4470    1.3999 O   0  0  0  0  0  0  0  0  0  0  0  0
    1.3055   -0.6553   -0.1990 O   0  0  0  0  0  0  0  0  0  0  0  0
   -1.0808   -0.9557   -0.3028 O   0  0  0  0  0  0  0  0  0  0  0  0
    0.0000    0.0000    0.0000 Na  0  0  0  0  0 15  0  0  0  0  0  0
    0.0000    0.0000    0.0000 Na  0  0  0  0  0 15  0  0  0  0  0  0
    0.0249    0.3970    0.0000 O   0  0  0  0  0  0  0  0  0  0  0  0
    0.0243    0.3971    0.0000 O   0  0  0  0  0  0  0  0  0  0  0  0
    0.0202    0.3973    0.0000 O   0  0  0  0  0  0  0  0  0  0  0  0
    0.0397    0.3958    0.0000 O   0  0  0  0  0  0  0  0  0  0  0  0
    0.0378    0.3960    0.0000 O   0  0  0  0  0  0  0  0  0  0  0  0
    0.0091    0.3977    0.0000 O   0  0  0  0  0  0  0  0  0  0  0  0
    0.0019    0.3978    0.0000 O   0  0  0  0  0  0  0  0  0  0  0  0
    0.0181    0.3974    0.0000 O   0  0  0  0  0  0  0  0  0  0  0  0
    0.0307    0.3966    0.0000 O   0  0  0  0  0  0  0  0  0  0  0  0
   -0.7668   -0.1858    0.0000 H   0  0  0  0  0  0  0  0  0  0  0  0
    0.7599   -0.2120    0.0000 H   0  0  0  0  0  0  0  0  0  0  0  0
   -0.7744   -0.1507    0.0000 H   0  0  0  0  0  0  0  0  0  0  0  0
    0.7495   -0.2463    0.0000 H   0  0  0  0  0  0  0  0  0  0  0  0
   -0.7742   -0.1518    0.0000 H   0  0  0  0  0  0  0  0  0  0  0  0
    0.7499   -0.2452    0.0000 H   0  0  0  0  0  0  0  0  0  0  0  0
   -0.7726   -0.1600    0.0000 H   0  0  0  0  0  0  0  0  0  0  0  0
    0.7524   -0.2373    0.0000 H   0  0  0  0  0  0  0  0  0  0  0  0
    0.7398   -0.2741    0.0000 H   0  0  0  0  0  0  0  0  0  0  0  0
   -0.7795   -0.1217    0.0000 H   0  0  0  0  0  0  0  0  0  0  0  0
   -0.7789   -0.1255    0.0000 H   0  0  0  0  0  0  0  0  0  0  0  0
    0.7411   -0.2705    0.0000 H   0  0  0  0  0  0  0  0  0  0  0  0
    0.7587   -0.2163    0.0000 H   0  0  0  0  0  0  0  0  0  0  0  0
   -0.7678   -0.1814    0.0000 H   0  0  0  0  0  0  0  0  0  0  0  0
   -0.7644   -0.1953    0.0000 H   0  0  0  0  0  0  0  0  0  0  0  0
    0.7625   -0.2025    0.0000 H   0  0  0  0  0  0  0  0  0  0  0  0
    0.7536   -0.2334    0.0000 H   0  0  0  0  0  0  0  0  0  0  0  0
   -0.7717   -0.1640    0.0000 H   0  0  0  0  0  0  0  0  0  0  0  0
    0.7458   -0.2572    0.0000 H   0  0  0  0  0  0  0  0  0  0  0  0
   -0.7765   -0.1394    0.0000 H   0  0  0  0  0  0  0  0  0  0  0  0
  2  3  2  0
  2  4  2  0
  2  5  1  0
  2  6  1  0
  1 18  1  0
  1 19  1  0
  9 20  1  0
  9 21  1  0
 10 22  1  0
 10 23  1  0
 11 24  1  0
 11 25  1  0
 12 26  1  0
 12 27  1  0
 13 28  1  0
 13 29  1  0
 14 30  1  0
 14 31  1  0
 15 32  1  0
 15 33  1  0
 16 34  1  0
 16 35  1  0
 17 36  1  0
 17 37  1  0
M  CHG  4   5  -1   6  -1   7   1   8   1
M  END
$$$$
