
     RDKit          3D

 37 24  0  0  0  0  0  0  0  0999 V2000
    0.0145    0.3976    0.0000 O   0  0  0  0  0  0  0  0  0  0  0  0
   -0.0000    0.0000   -0.0000 S   0  0  0  0  0  0  0  0  0  0  0  0
   -0.0579    1.0620   -1.0209 O   0  0  0  0  0  0  0  0  0  0  0  0
    0.0802    0.6101    1.3397 O   0  0  0  0  0  0  0  0  0  0  0  0
   -1.2128   -0.8335   -0.0886 O   0  0  0  0  0  0  0  0  0  0  0  0
    1.1905   -0.8386   -0.2302 O   0  0  0  0  0  0  0  0  0  0  0  0
    0.0000    0.0000    0.0000 Na  0  0  0  0  0 15  0  0  0  0  0  0
    0.0000    0.0000    0.0000 Na  0  0  0  0  0 15  0  0  0  0  0  0
    0.0258    0.3970    0.0000 O   0  0  0  0  0  0  0  0  0  0  0  0
    0.0252    0.3970    0.0000 O   0  0  0  0  0  0  0  0  0  0  0  0
    0.0223    0.3972    0.0000 O   0  0  0  0  0  0  0  0  0  0  0  0
    0.0326    0.3965    0.0000 O   0  0  0  0  0  0  0  0  0  0  0  0
    0.0004    0.3978    0.0000 O   0  0  0  0  0  0  0  0  0  0  0  0
    0.0098    0.3977    0.0000 O   0  0  0  0  0  0  0  0  0  0  0  0
    0.0103    0.3977    0.0000 O   0  0  0  0  0  0  0  0  0  0  0  0
    0.0115    0.3976    0.0000 O   0  0  0  0  0  0  0  0  0  0  0  0
    0.0209    0.3973    0.0000 O   0  0  0  0  0  0  0  0  0  0  0  0
   -0.7702   -0.1710    0.0000 H   0  0  0  0  0  0  0  0  0  0  0  0
    0.7557   -0.2265    0.0000 H   0  0  0  0  0  0  0  0  0  0  0  0
   -0.7748   -0.1489    0.0000 H   0  0  0  0  0  0  0  0  0  0  0  0
    0.7489   -0.2481    0.0000 H   0  0  0  0  0  0  0  0  0  0  0  0
   -0.7746   -0.1501    0.0000 H   0  0  0  0  0  0  0  0  0  0  0  0
    0.7493   -0.2470    0.0000 H   0  0  0  0  0  0  0  0  0  0  0  0
    0.7511   -0.2414    0.0000 H   0  0  0  0  0  0  0  0  0  0  0  0
   -0.7734   -0.1558    0.0000 H   0  0  0  0  0  0  0  0  0  0  0  0
   -0.7772   -0.1357    0.0000 H   0  0  0  0  0  0  0  0  0  0  0  0
    0.7446   -0.2608    0.0000 H   0  0  0  0  0  0  0  0  0  0  0  0
    0.7633   -0.1997    0.0000 H   0  0  0  0  0  0  0  0  0  0  0  0
   -0.7637   -0.1981    0.0000 H   0  0  0  0  0  0  0  0  0  0  0  0
    0.7584   -0.2176    0.0000 H   0  0  0  0  0  0  0  0  0  0  0  0
   -0.7681   -0.1801    0.0000 H   0  0  0  0  0  0  0  0  0  0  0  0
   -0.7683   -0.1791    0.0000 H   0  0  0  0  0  0  0  0  0  0  0  0
    0.7581   -0.2186    0.0000 H   0  0  0  0  0  0  0  0  0  0  0  0
   -0.7689   -0.1768    0.0000 H   0  0  0  0  0  0  0  0  0  0  0  0
    0.7574   -0.2208    0.0000 H   0  0  0  0  0  0  0  0  0  0  0  0
    0.7519   -0.2388    0.0000 H   0  0  0  0  0  0  0  0  0  0  0  0
   -0.7729   -0.1585    0.0000 H   0  0  0  0  0  0  0  0  0  0  0  0
  2  3  2  0
  2  4  2  0
  2  5  1  0
  2  6  1  0
  1 18  1  0
  1 19  1  0
  9 20  1  0
  9 21  1  0
 10 22  1  0
 10 23  1  0
 11 24  1  0
 11 25  1  0
 12 26  1  0
 12 27  1  0
 13 28  1  0
 13 29  1  0
 14 30  1  0
 14 31  1  0
 15 32  1  0
 15 33  1  0
 16 34  1  0
 16 35  1  0
 17 36  1  0
 17 37  1  0
M  CHG  4   5  -1   6  -1   7   1   8   1
M  END
$$$$
