
     RDKit          3D

 37 24  0  0  0  0  0  0  0  0999 V2000
    0.0004    0.3978    0.0000 O   0  0  0  0  0  0  0  0  0  0  0  0
    0.0000   -0.0000   -0.0000 S   0  0  0  0  0  0  0  0  0  0  0  0
   -0.0800   -1.0370    1.0448 O   0  0  0  0  0  0  0  0  0  0  0  0
   -1.0942   -0.1932   -0.9689 O   0  0  0  0  0  0  0  0  0  0  0  0
    1.2959   -0.1020   -0.6954 O   0  0  0  0  0  0  0  0  0  0  0  0
   -0.1217    1.3322    0.6195 O   0  0  0  0  0  0  0  0  0  0  0  0
    0.0000    0.0000    0.0000 Na  0  0  0  0  0 15  0  0  0  0  0  0
    0.0000    0.0000    0.0000 Na  0  0  0  0  0 15  0  0  0  0  0  0
    0.0002    0.3978    0.0000 O   0  0  0  0  0  0  0  0  0  0  0  0
   -0.0000    0.3978    0.0000 O   0  0  0  0  0  0  0  0  0  0  0  0
    0.0000    0.3978    0.0000 O   0  0  0  0  0  0  0  0  0  0  0  0
   -0.0003    0.3978    0.0000 O   0  0  0  0  0  0  0  0  0  0  0  0
   -0.0009    0.3978    0.0000 O   0  0  0  0  0  0  0  0  0  0  0  0
   -0.0000    0.3978    0.0000 O   0  0  0  0  0  0  0  0  0  0  0  0
    0.0004    0.3978    0.0000 O   0  0  0  0  0  0  0  0  0  0  0  0
    0.0001    0.3978    0.0000 O   0  0  0  0  0  0  0  0  0  0  0  0
   -0.0020    0.3978    0.0000 O   0  0  0  0  0  0  0  0  0  0  0  0
   -0.7637   -0.1981    0.0000 H   0  0  0  0  0  0  0  0  0  0  0  0
    0.7632   -0.1998    0.0000 H   0  0  0  0  0  0  0  0  0  0  0  0
   -0.7636   -0.1985    0.0000 H   0  0  0  0  0  0  0  0  0  0  0  0
    0.7634   -0.1993    0.0000 H   0  0  0  0  0  0  0  0  0  0  0  0
   -0.7635   -0.1989    0.0000 H   0  0  0  0  0  0  0  0  0  0  0  0
    0.7635   -0.1989    0.0000 H   0  0  0  0  0  0  0  0  0  0  0  0
   -0.7635   -0.1989    0.0000 H   0  0  0  0  0  0  0  0  0  0  0  0
    0.7635   -0.1989    0.0000 H   0  0  0  0  0  0  0  0  0  0  0  0
    0.7636   -0.1983    0.0000 H   0  0  0  0  0  0  0  0  0  0  0  0
   -0.7633   -0.1995    0.0000 H   0  0  0  0  0  0  0  0  0  0  0  0
    0.7639   -0.1972    0.0000 H   0  0  0  0  0  0  0  0  0  0  0  0
   -0.7630   -0.2006    0.0000 H   0  0  0  0  0  0  0  0  0  0  0  0
    0.7635   -0.1989    0.0000 H   0  0  0  0  0  0  0  0  0  0  0  0
   -0.7635   -0.1989    0.0000 H   0  0  0  0  0  0  0  0  0  0  0  0
   -0.7637   -0.1981    0.0000 H   0  0  0  0  0  0  0  0  0  0  0  0
    0.7633   -0.1997    0.0000 H   0  0  0  0  0  0  0  0  0  0  0  0
    0.7634   -0.1991    0.0000 H   0  0  0  0  0  0  0  0  0  0  0  0
   -0.7635   -0.1987    0.0000 H   0  0  0  0  0  0  0  0  0  0  0  0
    0.7645   -0.1951    0.0000 H   0  0  0  0  0  0  0  0  0  0  0  0
   -0.7625   -0.2027    0.0000 H   0  0  0  0  0  0  0  0  0  0  0  0
  2  3  2  0
  2  4  2  0
  2  5  1  0
  2  6  1  0
  1 18  1  0
  1 19  1  0
  9 20  1  0
  9 21  1  0
 10 22  1  0
 10 23  1  0
 11 24  1  0
 11 25  1  0
 12 26  1  0
 12 27  1  0
 13 28  1  0
 13 29  1  0
 14 30  1  0
 14 31  1  0
 15 32  1  0
 15 33  1  0
 16 34  1  0
 16 35  1  0
 17 36  1  0
 17 37  1  0
M  CHG  4   5  -1   6  -1   7   1   8   1
M  END
$$$$
