
     RDKit          3D

 37 24  0  0  0  0  0  0  0  0999 V2000
    0.0022    0.3978    0.0000 O   0  0  0  0  0  0  0  0  0  0  0  0
    0.0000   -0.0000   -0.0000 S   0  0  0  0  0  0  0  0  0  0  0  0
   -0.2719   -0.8066    1.2037 O   0  0  0  0  0  0  0  0  0  0  0  0
   -0.7954   -0.5174   -1.1283 O   0  0  0  0  0  0  0  0  0  0  0  0
    1.4341   -0.0807   -0.3320 O   0  0  0  0  0  0  0  0  0  0  0  0
   -0.3668    1.4046    0.2566 O   0  0  0  0  0  0  0  0  0  0  0  0
    0.0000    0.0000    0.0000 Na  0  0  0  0  0 15  0  0  0  0  0  0
    0.0000    0.0000    0.0000 Na  0  0  0  0  0 15  0  0  0  0  0  0
    0.0068    0.3978    0.0000 O   0  0  0  0  0  0  0  0  0  0  0  0
    0.0003    0.3978    0.0000 O   0  0  0  0  0  0  0  0  0  0  0  0
   -0.0024    0.3978    0.0000 O   0  0  0  0  0  0  0  0  0  0  0  0
    0.0037    0.3978    0.0000 O   0  0  0  0  0  0  0  0  0  0  0  0
    0.0143    0.3976    0.0000 O   0  0  0  0  0  0  0  0  0  0  0  0
    0.0036    0.3978    0.0000 O   0  0  0  0  0  0  0  0  0  0  0  0
   -0.0017    0.3978    0.0000 O   0  0  0  0  0  0  0  0  0  0  0  0
    0.0089    0.3977    0.0000 O   0  0  0  0  0  0  0  0  0  0  0  0
    0.0044    0.3978    0.0000 O   0  0  0  0  0  0  0  0  0  0  0  0
    0.7624   -0.2031    0.0000 H   0  0  0  0  0  0  0  0  0  0  0  0
   -0.7646   -0.1947    0.0000 H   0  0  0  0  0  0  0  0  0  0  0  0
    0.7599   -0.2120    0.0000 H   0  0  0  0  0  0  0  0  0  0  0  0
   -0.7668   -0.1857    0.0000 H   0  0  0  0  0  0  0  0  0  0  0  0
   -0.7636   -0.1984    0.0000 H   0  0  0  0  0  0  0  0  0  0  0  0
    0.7633   -0.1994    0.0000 H   0  0  0  0  0  0  0  0  0  0  0  0
   -0.7623   -0.2034    0.0000 H   0  0  0  0  0  0  0  0  0  0  0  0
    0.7646   -0.1944    0.0000 H   0  0  0  0  0  0  0  0  0  0  0  0
   -0.7653   -0.1918    0.0000 H   0  0  0  0  0  0  0  0  0  0  0  0
    0.7616   -0.2060    0.0000 H   0  0  0  0  0  0  0  0  0  0  0  0
    0.7558   -0.2263    0.0000 H   0  0  0  0  0  0  0  0  0  0  0  0
   -0.7701   -0.1713    0.0000 H   0  0  0  0  0  0  0  0  0  0  0  0
   -0.7652   -0.1920    0.0000 H   0  0  0  0  0  0  0  0  0  0  0  0
    0.7616   -0.2058    0.0000 H   0  0  0  0  0  0  0  0  0  0  0  0
   -0.7626   -0.2022    0.0000 H   0  0  0  0  0  0  0  0  0  0  0  0
    0.7643   -0.1956    0.0000 H   0  0  0  0  0  0  0  0  0  0  0  0
   -0.7677   -0.1819    0.0000 H   0  0  0  0  0  0  0  0  0  0  0  0
    0.7589   -0.2159    0.0000 H   0  0  0  0  0  0  0  0  0  0  0  0
    0.7612   -0.2074    0.0000 H   0  0  0  0  0  0  0  0  0  0  0  0
   -0.7656   -0.1904    0.0000 H   0  0  0  0  0  0  0  0  0  0  0  0
  2  3  2  0
  2  4  2  0
  2  5  1  0
  2  6  1  0
  1 18  1  0
  1 19  1  0
  9 20  1  0
  9 21  1  0
 10 22  1  0
 10 23  1  0
 11 24  1  0
 11 25  1  0
 12 26  1  0
 12 27  1  0
 13 28  1  0
 13 29  1  0
 14 30  1  0
 14 31  1  0
 15 32  1  0
 15 33  1  0
 16 34  1  0
 16 35  1  0
 17 36  1  0
 17 37  1  0
M  CHG  4   5  -1   6  -1   7   1   8   1
M  END
$$$$
