
     RDKit          3D

 37 24  0  0  0  0  0  0  0  0999 V2000
   -0.0011    0.3978    0.0000 O   0  0  0  0  0  0  0  0  0  0  0  0
    0.0000   -0.0000   -0.0000 S   0  0  0  0  0  0  0  0  0  0  0  0
   -0.0904   -0.8822   -1.1777 O   0  0  0  0  0  0  0  0  0  0  0  0
    0.0364   -0.8186    1.2256 O   0  0  0  0  0  0  0  0  0  0  0  0
    1.2284    0.8105   -0.0862 O   0  0  0  0  0  0  0  0  0  0  0  0
   -1.1744    0.8903    0.0383 O   0  0  0  0  0  0  0  0  0  0  0  0
    0.0000    0.0000    0.0000 Na  0  0  0  0  0 15  0  0  0  0  0  0
    0.0000    0.0000    0.0000 Na  0  0  0  0  0 15  0  0  0  0  0  0
   -0.0001    0.3978    0.0000 O   0  0  0  0  0  0  0  0  0  0  0  0
   -0.0002    0.3978    0.0000 O   0  0  0  0  0  0  0  0  0  0  0  0
   -0.0011    0.3978    0.0000 O   0  0  0  0  0  0  0  0  0  0  0  0
   -0.0004    0.3978    0.0000 O   0  0  0  0  0  0  0  0  0  0  0  0
   -0.0020    0.3978    0.0000 O   0  0  0  0  0  0  0  0  0  0  0  0
   -0.0021    0.3978    0.0000 O   0  0  0  0  0  0  0  0  0  0  0  0
   -0.0021    0.3978    0.0000 O   0  0  0  0  0  0  0  0  0  0  0  0
   -0.0011    0.3978    0.0000 O   0  0  0  0  0  0  0  0  0  0  0  0
   -0.0006    0.3978    0.0000 O   0  0  0  0  0  0  0  0  0  0  0  0
   -0.7629   -0.2010    0.0000 H   0  0  0  0  0  0  0  0  0  0  0  0
    0.7640   -0.1968    0.0000 H   0  0  0  0  0  0  0  0  0  0  0  0
    0.7635   -0.1986    0.0000 H   0  0  0  0  0  0  0  0  0  0  0  0
   -0.7634   -0.1992    0.0000 H   0  0  0  0  0  0  0  0  0  0  0  0
   -0.7634   -0.1992    0.0000 H   0  0  0  0  0  0  0  0  0  0  0  0
    0.7635   -0.1986    0.0000 H   0  0  0  0  0  0  0  0  0  0  0  0
   -0.7629   -0.2011    0.0000 H   0  0  0  0  0  0  0  0  0  0  0  0
    0.7640   -0.1967    0.0000 H   0  0  0  0  0  0  0  0  0  0  0  0
   -0.7633   -0.1997    0.0000 H   0  0  0  0  0  0  0  0  0  0  0  0
    0.7637   -0.1981    0.0000 H   0  0  0  0  0  0  0  0  0  0  0  0
   -0.7625   -0.2027    0.0000 H   0  0  0  0  0  0  0  0  0  0  0  0
    0.7645   -0.1951    0.0000 H   0  0  0  0  0  0  0  0  0  0  0  0
   -0.7624   -0.2030    0.0000 H   0  0  0  0  0  0  0  0  0  0  0  0
    0.7645   -0.1949    0.0000 H   0  0  0  0  0  0  0  0  0  0  0  0
   -0.7624   -0.2030    0.0000 H   0  0  0  0  0  0  0  0  0  0  0  0
    0.7645   -0.1948    0.0000 H   0  0  0  0  0  0  0  0  0  0  0  0
    0.7640   -0.1969    0.0000 H   0  0  0  0  0  0  0  0  0  0  0  0
   -0.7629   -0.2009    0.0000 H   0  0  0  0  0  0  0  0  0  0  0  0
    0.7638   -0.1977    0.0000 H   0  0  0  0  0  0  0  0  0  0  0  0
   -0.7631   -0.2001    0.0000 H   0  0  0  0  0  0  0  0  0  0  0  0
  2  3  2  0
  2  4  2  0
  2  5  1  0
  2  6  1  0
  1 18  1  0
  1 19  1  0
  9 20  1  0
  9 21  1  0
 10 22  1  0
 10 23  1  0
 11 24  1  0
 11 25  1  0
 12 26  1  0
 12 27  1  0
 13 28  1  0
 13 29  1  0
 14 30  1  0
 14 31  1  0
 15 32  1  0
 15 33  1  0
 16 34  1  0
 16 35  1  0
 17 36  1  0
 17 37  1  0
M  CHG  4   5  -1   6  -1   7   1   8   1
M  END
$$$$
