
     RDKit          3D

 37 24  0  0  0  0  0  0  0  0999 V2000
   -0.0006    0.3978    0.0000 O   0  0  0  0  0  0  0  0  0  0  0  0
    0.0000   -0.0000   -0.0000 S   0  0  0  0  0  0  0  0  0  0  0  0
   -0.2828   -0.8198    1.1922 O   0  0  0  0  0  0  0  0  0  0  0  0
   -0.9597   -0.3370   -1.0671 O   0  0  0  0  0  0  0  0  0  0  0  0
    1.3712   -0.2710   -0.4687 O   0  0  0  0  0  0  0  0  0  0  0  0
   -0.1287    1.4278    0.3437 O   0  0  0  0  0  0  0  0  0  0  0  0
    0.0000    0.0000    0.0000 Na  0  0  0  0  0 15  0  0  0  0  0  0
    0.0000    0.0000    0.0000 Na  0  0  0  0  0 15  0  0  0  0  0  0
   -0.0001    0.3978    0.0000 O   0  0  0  0  0  0  0  0  0  0  0  0
   -0.0014    0.3978    0.0000 O   0  0  0  0  0  0  0  0  0  0  0  0
   -0.0000    0.3978    0.0000 O   0  0  0  0  0  0  0  0  0  0  0  0
   -0.0005    0.3978    0.0000 O   0  0  0  0  0  0  0  0  0  0  0  0
   -0.0020    0.3978    0.0000 O   0  0  0  0  0  0  0  0  0  0  0  0
   -0.0013    0.3978    0.0000 O   0  0  0  0  0  0  0  0  0  0  0  0
   -0.0000    0.3978    0.0000 O   0  0  0  0  0  0  0  0  0  0  0  0
   -0.0006    0.3978    0.0000 O   0  0  0  0  0  0  0  0  0  0  0  0
   -0.0000    0.3978    0.0000 O   0  0  0  0  0  0  0  0  0  0  0  0
    0.7637   -0.1978    0.0000 H   0  0  0  0  0  0  0  0  0  0  0  0
   -0.7632   -0.2000    0.0000 H   0  0  0  0  0  0  0  0  0  0  0  0
    0.7635   -0.1987    0.0000 H   0  0  0  0  0  0  0  0  0  0  0  0
   -0.7634   -0.1991    0.0000 H   0  0  0  0  0  0  0  0  0  0  0  0
    0.7642   -0.1962    0.0000 H   0  0  0  0  0  0  0  0  0  0  0  0
   -0.7628   -0.2016    0.0000 H   0  0  0  0  0  0  0  0  0  0  0  0
    0.7635   -0.1988    0.0000 H   0  0  0  0  0  0  0  0  0  0  0  0
   -0.7634   -0.1990    0.0000 H   0  0  0  0  0  0  0  0  0  0  0  0
    0.7637   -0.1979    0.0000 H   0  0  0  0  0  0  0  0  0  0  0  0
   -0.7632   -0.1999    0.0000 H   0  0  0  0  0  0  0  0  0  0  0  0
    0.7645   -0.1951    0.0000 H   0  0  0  0  0  0  0  0  0  0  0  0
   -0.7625   -0.2027    0.0000 H   0  0  0  0  0  0  0  0  0  0  0  0
    0.7641   -0.1965    0.0000 H   0  0  0  0  0  0  0  0  0  0  0  0
   -0.7628   -0.2014    0.0000 H   0  0  0  0  0  0  0  0  0  0  0  0
    0.7635   -0.1988    0.0000 H   0  0  0  0  0  0  0  0  0  0  0  0
   -0.7634   -0.1990    0.0000 H   0  0  0  0  0  0  0  0  0  0  0  0
    0.7638   -0.1977    0.0000 H   0  0  0  0  0  0  0  0  0  0  0  0
   -0.7631   -0.2001    0.0000 H   0  0  0  0  0  0  0  0  0  0  0  0
   -0.7634   -0.1990    0.0000 H   0  0  0  0  0  0  0  0  0  0  0  0
    0.7635   -0.1988    0.0000 H   0  0  0  0  0  0  0  0  0  0  0  0
  2  3  2  0
  2  4  2  0
  2  5  1  0
  2  6  1  0
  1 18  1  0
  1 19  1  0
  9 20  1  0
  9 21  1  0
 10 22  1  0
 10 23  1  0
 11 24  1  0
 11 25  1  0
 12 26  1  0
 12 27  1  0
 13 28  1  0
 13 29  1  0
 14 30  1  0
 14 31  1  0
 15 32  1  0
 15 33  1  0
 16 34  1  0
 16 35  1  0
 17 36  1  0
 17 37  1  0
M  CHG  4   5  -1   6  -1   7   1   8   1
M  END
$$$$
