
     RDKit          3D

102105  0  0  0  0  0  0  0  0999 V2000
    1.1761   -0.2983   -0.6361 N   0  0  0  0  0  0  0  0  0  0  0  0
    3.2548    0.3800    1.6574 S   0  0  0  0  0  0  0  0  0  0  0  0
    1.6677   -1.3906    0.1524 C   0  0  0  0  0  0  0  0  0  0  0  0
    1.6291    1.0547   -0.5448 C   0  0  0  0  0  0  0  0  0  0  0  0
    2.6049   -1.2000    1.1876 C   0  0  0  0  0  0  0  0  0  0  0  0
    2.5632    1.4599    0.4324 C   0  0  0  0  0  0  0  0  0  0  0  0
    0.0731   -0.6114   -1.5811 C   0  0  0  0  0  0  0  0  0  0  0  0
   -1.3020   -0.7492   -0.8800 C   0  0  1  0  0  0  0  0  0  0  0  0
   -1.7772    0.6018   -0.2968 C   0  0  0  0  0  0  0  0  0  0  0  0
   -3.1220    0.5696    0.3158 N   0  0  0  0  0  0  0  0  0  0  0  0
    1.1897    2.0765   -1.4212 C   0  0  0  0  0  0  0  0  0  0  0  0
    1.2575   -2.7300   -0.0582 C   0  0  0  0  0  0  0  0  0  0  0  0
    3.0090    2.7968    0.5166 C   0  0  0  0  0  0  0  0  0  0  0  0
    3.0867   -2.2849    1.9513 C   0  0  0  0  0  0  0  0  0  0  0  0
   -2.3157   -1.3105   -1.8872 C   0  0  0  0  0  0  0  0  0  0  0  0
   -3.5616    1.9353    0.6204 C   0  0  0  0  0  0  0  0  0  0  0  0
   -3.1344   -0.2304    1.5442 C   0  0  0  0  0  0  0  0  0  0  0  0
    1.7372   -3.8053    0.7024 C   0  0  0  0  0  0  0  0  0  0  0  0
    1.6347    3.4039   -1.3346 C   0  0  0  0  0  0  0  0  0  0  0  0
    2.5487    3.7661   -0.3632 C   0  0  0  0  0  0  0  0  0  0  0  0
    2.6558   -3.5823    1.7114 C   0  0  0  0  0  0  0  0  0  0  0  0
   -1.1564   -0.0137    0.2275 N   0  0  0  0  0  0  0  0  0  0  0  0
   -4.3231    0.0377    0.0532 S   0  0  0  0  0  0  0  0  0  0  0  0
   -1.8150    1.1909    0.6230 C   0  0  0  0  0  0  0  0  0  0  0  0
   -1.8081   -1.1840   -0.2820 C   0  0  0  0  0  0  0  0  0  0  0  0
   -3.2192    1.3201    0.5853 C   0  0  0  0  0  0  0  0  0  0  0  0
   -3.2093   -1.2600   -0.4149 C   0  0  0  0  0  0  0  0  0  0  0  0
    0.3077   -0.1244    0.4839 C   0  0  0  0  0  0  0  0  0  0  0  0
    1.1585    0.0896   -0.7901 C   0  0  2  0  0  0  0  0  0  0  0  0
    2.5175   -0.6587   -0.7387 C   0  0  0  0  0  0  0  0  0  0  0  0
    3.6057   -0.0463    0.0475 N   0  0  0  0  0  0  0  0  0  0  0  0
   -1.0925   -2.3345   -0.6944 C   0  0  0  0  0  0  0  0  0  0  0  0
   -1.1140    2.3372    1.0673 C   0  0  0  0  0  0  0  0  0  0  0  0
   -3.8348   -2.4166   -0.9290 C   0  0  0  0  0  0  0  0  0  0  0  0
   -3.8586    2.5128    0.9864 C   0  0  0  0  0  0  0  0  0  0  0  0
    1.3574    1.5640   -1.1511 C   0  0  0  0  0  0  0  0  0  0  0  0
    3.4557   -0.2413    1.4898 C   0  0  0  0  0  0  0  0  0  0  0  0
    4.8960   -0.6084   -0.3742 C   0  0  0  0  0  0  0  0  0  0  0  0
   -1.7511    3.5223    1.4611 C   0  0  0  0  0  0  0  0  0  0  0  0
   -1.7156   -3.4804   -1.2067 C   0  0  0  0  0  0  0  0  0  0  0  0
   -3.0928   -3.5218   -1.3249 C   0  0  0  0  0  0  0  0  0  0  0  0
   -3.1294    3.6100    1.4241 C   0  0  0  0  0  0  0  0  0  0  0  0
   -2.4919    0.8950    1.0829 O   0  0  0  0  0  0  0  0  0  0  0  0
   -2.6353   -0.7075   -0.4638 O   0  0  0  0  0  0  0  0  0  0  0  0
    2.6598   -0.0811   -1.0313 O   0  0  0  0  0  0  0  0  0  0  0  0
    1.6866   -2.0179   -0.4795 O   0  0  0  0  0  0  0  0  0  0  0  0
   -0.0063    0.3115    1.8254 O   0  0  0  0  0  0  0  0  0  0  0  0
    0.6106    1.4401   -0.5078 O   0  0  0  0  0  0  0  0  0  0  0  0
   -1.9587   -0.1144    0.3631 C   0  0  0  0  0  0  0  0  0  0  0  0
   -0.4865   -0.3736    0.6653 C   0  0  1  0  0  0  0  0  0  0  0  0
    0.3223    0.0337   -0.5673 C   0  0  2  0  0  0  0  0  0  0  0  0
    1.5852   -0.8161   -0.6553 C   0  0  0  0  0  0  0  0  0  0  0  0
   -0.0156    0.0991   -2.4052 H   0  0  0  0  0  0  0  0  0  0  0  0
    0.3134   -1.5252   -2.1386 H   0  0  0  0  0  0  0  0  0  0  0  0
   -1.2131   -1.4741   -0.0638 H   0  0  0  0  0  0  0  0  0  0  0  0
   -1.7919    1.3281   -1.1203 H   0  0  0  0  0  0  0  0  0  0  0  0
   -1.0528    0.9696    0.4399 H   0  0  0  0  0  0  0  0  0  0  0  0
    0.4789    1.8974   -2.2184 H   0  0  0  0  0  0  0  0  0  0  0  0
    0.5423   -2.9988   -0.8277 H   0  0  0  0  0  0  0  0  0  0  0  0
    3.7278    3.0876    1.2814 H   0  0  0  0  0  0  0  0  0  0  0  0
    3.8100   -2.1163    2.7478 H   0  0  0  0  0  0  0  0  0  0  0  0
   -2.4781   -0.6128   -2.7161 H   0  0  0  0  0  0  0  0  0  0  0  0
   -1.9595   -2.2583   -2.3056 H   0  0  0  0  0  0  0  0  0  0  0  0
   -3.2830   -1.5073   -1.4136 H   0  0  0  0  0  0  0  0  0  0  0  0
   -4.5736    1.9298    1.0419 H   0  0  0  0  0  0  0  0  0  0  0  0
   -2.8941    2.4375    1.3304 H   0  0  0  0  0  0  0  0  0  0  0  0
   -3.6085    2.5381   -0.2936 H   0  0  0  0  0  0  0  0  0  0  0  0
   -4.1279   -0.2081    2.0067 H   0  0  0  0  0  0  0  0  0  0  0  0
   -2.9254   -1.2839    1.3343 H   0  0  0  0  0  0  0  0  0  0  0  0
   -2.4071    0.1294    2.2812 H   0  0  0  0  0  0  0  0  0  0  0  0
    1.3856   -4.8135    0.4970 H   0  0  0  0  0  0  0  0  0  0  0  0
    1.2616    4.1471   -2.0356 H   0  0  0  0  0  0  0  0  0  0  0  0
    2.9014    4.7901   -0.2869 H   0  0  0  0  0  0  0  0  0  0  0  0
    3.0345   -4.4071    2.3073 H   0  0  0  0  0  0  0  0  0  0  0  0
    0.6321    0.5403    1.2866 H   0  0  0  0  0  0  0  0  0  0  0  0
    0.5173   -1.1087    0.9228 H   0  0  0  0  0  0  0  0  0  0  0  0
    0.6184   -0.3481   -1.6404 H   0  0  0  0  0  0  0  0  0  0  0  0
    2.3628   -1.7029   -0.4341 H   0  0  0  0  0  0  0  0  0  0  0  0
    2.8499   -0.7099   -1.7862 H   0  0  0  0  0  0  0  0  0  0  0  0
   -0.0111   -2.3842   -0.6450 H   0  0  0  0  0  0  0  0  0  0  0  0
   -0.0322    2.3710    1.1119 H   0  0  0  0  0  0  0  0  0  0  0  0
   -4.9188   -2.4566   -1.0241 H   0  0  0  0  0  0  0  0  0  0  0  0
   -4.9443    2.5892    0.9560 H   0  0  0  0  0  0  0  0  0  0  0  0
    1.8362    2.1203   -0.3392 H   0  0  0  0  0  0  0  0  0  0  0  0
    0.4018    2.0433   -1.3830 H   0  0  0  0  0  0  0  0  0  0  0  0
    1.9890    1.6627   -2.0407 H   0  0  0  0  0  0  0  0  0  0  0  0
    2.6250    0.3457    1.8843 H   0  0  0  0  0  0  0  0  0  0  0  0
    4.3433    0.1184    2.0244 H   0  0  0  0  0  0  0  0  0  0  0  0
    3.3054   -1.2947    1.7543 H   0  0  0  0  0  0  0  0  0  0  0  0
    5.7215   -0.1198    0.1569 H   0  0  0  0  0  0  0  0  0  0  0  0
    5.0684   -0.4289   -1.4421 H   0  0  0  0  0  0  0  0  0  0  0  0
    4.9547   -1.6882   -0.1884 H   0  0  0  0  0  0  0  0  0  0  0  0
   -1.1570    4.3728    1.7886 H   0  0  0  0  0  0  0  0  0  0  0  0
   -1.1167   -4.3345   -1.5123 H   0  0  0  0  0  0  0  0  0  0  0  0
   -3.5884   -4.4033   -1.7206 H   0  0  0  0  0  0  0  0  0  0  0  0
   -3.6356    4.5215    1.7271 H   0  0  0  0  0  0  0  0  0  0  0  0
   -3.4252    0.9440    0.7887 H   0  0  0  0  0  0  0  0  0  0  0  0
    3.3964   -0.7315   -1.0445 H   0  0  0  0  0  0  0  0  0  0  0  0
   -0.0920    1.2615    1.6080 H   0  0  0  0  0  0  0  0  0  0  0  0
    1.4708    1.5470   -0.9643 H   0  0  0  0  0  0  0  0  0  0  0  0
   -0.4115   -1.4449    0.8804 H   0  0  0  0  0  0  0  0  0  0  0  0
   -0.2243   -0.1458   -1.5000 H   0  0  0  0  0  0  0  0  0  0  0  0
 10  9  1  0
 11  4  2  0
 12  3  2  0
 13  6  2  0
 14  5  2  0
 15  8  1  0
 16 10  1  0
 17 10  1  0
 18 12  1  0
 19 11  1  0
 20 19  2  0
 21 18  2  0
  5  2  1  0
 13 20  1  0
 14 21  1  0
  2  6  1  0
  3  1  1  0
  4  1  1  0
  5  3  1  0
  6  4  1  0
  7  1  1  0
  8  7  1  0
  9  8  1  0
 31 30  1  0
 32 25  2  0
 33 24  2  0
 34 27  2  0
 35 26  2  0
 36 29  1  0
 37 31  1  0
 38 31  1  0
 39 33  1  0
 40 32  1  0
 41 40  2  0
 42 39  2  0
 26 23  1  0
 34 41  1  0
 35 42  1  0
 23 27  1  0
 24 22  1  0
 25 22  1  0
 26 24  1  0
 27 25  1  0
 28 22  1  0
 29 28  1  0
 30 29  1  0
 49 44  2  0
 50 47  1  0
 51 48  1  0
 49 43  1  0
 51 52  1  0
 50 51  1  0
 52 45  1  0
 49 50  1  0
 52 46  2  0
  7 53  1  0
  7 54  1  0
  8 55  1  1
  9 56  1  0
  9 57  1  0
 11 58  1  0
 12 59  1  0
 13 60  1  0
 14 61  1  0
 15 62  1  0
 15 63  1  0
 15 64  1  0
 16 65  1  0
 16 66  1  0
 16 67  1  0
 17 68  1  0
 17 69  1  0
 17 70  1  0
 18 71  1  0
 19 72  1  0
 20 73  1  0
 21 74  1  0
 28 75  1  0
 28 76  1  0
 29 77  1  6
 30 78  1  0
 30 79  1  0
 32 80  1  0
 33 81  1  0
 34 82  1  0
 35 83  1  0
 36 84  1  0
 36 85  1  0
 36 86  1  0
 37 87  1  0
 37 88  1  0
 37 89  1  0
 38 90  1  0
 38 91  1  0
 38 92  1  0
 39 93  1  0
 40 94  1  0
 41 95  1  0
 42 96  1  0
 43 97  1  0
 45 98  1  0
 47 99  1  0
 48100  1  0
 50101  1  1
 51102  1  6
M  END
$$$$
