
     RDKit          3D

102105  0  0  0  0  0  0  0  0999 V2000
    1.2854    0.0615   -0.3499 N   0  0  0  0  0  0  0  0  0  0  0  0
    4.1180    1.0181    0.7076 S   0  0  0  0  0  0  0  0  0  0  0  0
    2.2582   -0.9495   -0.0782 C   0  0  0  0  0  0  0  0  0  0  0  0
    1.4871    1.4710   -0.1857 C   0  0  0  0  0  0  0  0  0  0  0  0
    3.5515   -0.6317    0.3877 C   0  0  0  0  0  0  0  0  0  0  0  0
    2.7056    2.0005    0.2841 C   0  0  0  0  0  0  0  0  0  0  0  0
   -0.0018   -0.3560   -0.9638 C   0  0  0  0  0  0  0  0  0  0  0  0
   -1.1774   -0.4017    0.0480 C   0  0  1  0  0  0  0  0  0  0  0  0
   -2.5006   -0.4958   -0.7514 C   0  0  0  0  0  0  0  0  0  0  0  0
   -3.7272   -0.5372    0.0633 N   0  0  0  0  0  0  0  0  0  0  0  0
    0.4809    2.4247   -0.4785 C   0  0  0  0  0  0  0  0  0  0  0  0
    1.9971   -2.3307   -0.2423 C   0  0  0  0  0  0  0  0  0  0  0  0
    2.8872    3.3911    0.4439 C   0  0  0  0  0  0  0  0  0  0  0  0
    4.5100   -1.6369    0.6426 C   0  0  0  0  0  0  0  0  0  0  0  0
   -1.0518   -1.5567    1.0461 C   0  0  0  0  0  0  0  0  0  0  0  0
   -3.9508    0.7108    0.7968 C   0  0  0  0  0  0  0  0  0  0  0  0
   -4.8858   -0.8273   -0.7856 C   0  0  0  0  0  0  0  0  0  0  0  0
    2.9500   -3.3269    0.0151 C   0  0  0  0  0  0  0  0  0  0  0  0
    0.6650    3.8045   -0.3187 C   0  0  0  0  0  0  0  0  0  0  0  0
    1.8728    4.2907    0.1448 C   0  0  0  0  0  0  0  0  0  0  0  0
    4.2129   -2.9799    0.4557 C   0  0  0  0  0  0  0  0  0  0  0  0
   -0.9369    0.4473    0.6400 N   0  0  0  0  0  0  0  0  0  0  0  0
   -2.8315   -1.4058   -1.0119 S   0  0  0  0  0  0  0  0  0  0  0  0
   -1.0892    0.7743   -0.7329 C   0  0  0  0  0  0  0  0  0  0  0  0
   -1.9023   -0.2840    1.3844 C   0  0  0  0  0  0  0  0  0  0  0  0
   -1.9440    0.0343   -1.5759 C   0  0  0  0  0  0  0  0  0  0  0  0
   -2.8284   -1.1377    0.7504 C   0  0  0  0  0  0  0  0  0  0  0  0
    0.4172    0.6029    1.2366 C   0  0  0  0  0  0  0  0  0  0  0  0
    1.4155   -0.5466    0.9445 C   0  0  2  0  0  0  0  0  0  0  0  0
    2.0306   -0.5170   -0.4708 C   0  0  0  0  0  0  0  0  0  0  0  0
    2.7495    0.7298   -0.8041 N   0  0  0  0  0  0  0  0  0  0  0  0
   -2.0157   -0.1441    2.7826 C   0  0  0  0  0  0  0  0  0  0  0  0
   -0.4467    1.8923   -1.3002 C   0  0  0  0  0  0  0  0  0  0  0  0
   -3.7765   -1.8554    1.5001 C   0  0  0  0  0  0  0  0  0  0  0  0
   -2.1042    0.3844   -2.9281 C   0  0  0  0  0  0  0  0  0  0  0  0
    0.8509   -1.9406    1.2329 C   0  0  0  0  0  0  0  0  0  0  0  0
    3.0660    0.7430   -2.2366 C   0  0  0  0  0  0  0  0  0  0  0  0
    3.9852    0.8803   -0.0317 C   0  0  0  0  0  0  0  0  0  0  0  0
   -0.6141    2.2414   -2.6452 C   0  0  0  0  0  0  0  0  0  0  0  0
   -2.9655   -0.8556    3.5244 C   0  0  0  0  0  0  0  0  0  0  0  0
   -3.8422   -1.7186    2.8833 C   0  0  0  0  0  0  0  0  0  0  0  0
   -1.4398    1.4841   -3.4622 C   0  0  0  0  0  0  0  0  0  0  0  0
    1.4441    2.0676   -0.7755 O   0  0  0  0  0  0  0  0  0  0  0  0
    2.2055    0.0180   -1.2167 O   0  0  0  0  0  0  0  0  0  0  0  0
   -1.5244    0.7067   -1.2617 O   0  0  0  0  0  0  0  0  0  0  0  0
   -2.7381   -0.6459    0.0363 O   0  0  0  0  0  0  0  0  0  0  0  0
    1.4310   -0.1305    1.7226 O   0  0  0  0  0  0  0  0  0  0  0  0
   -0.5102   -1.7404    1.2357 O   0  0  0  0  0  0  0  0  0  0  0  0
    1.4958    0.7404   -0.5326 C   0  0  0  0  0  0  0  0  0  0  0  0
    0.6119    0.3140    0.6294 C   0  0  1  0  0  0  0  0  0  0  0  0
   -0.3074   -0.8161    0.1455 C   0  0  2  0  0  0  0  0  0  0  0  0
   -1.6395   -0.2511   -0.3257 C   0  0  0  0  0  0  0  0  0  0  0  0
   -0.2406    0.3245   -1.7922 H   0  0  0  0  0  0  0  0  0  0  0  0
    0.0649   -1.3074   -1.5008 H   0  0  0  0  0  0  0  0  0  0  0  0
   -1.1816    0.5247    0.6313 H   0  0  0  0  0  0  0  0  0  0  0  0
   -2.4529   -1.4135   -1.3534 H   0  0  0  0  0  0  0  0  0  0  0  0
   -2.5578    0.3382   -1.4630 H   0  0  0  0  0  0  0  0  0  0  0  0
   -0.4990    2.1332   -0.8393 H   0  0  0  0  0  0  0  0  0  0  0  0
    1.0308   -2.7016   -0.5614 H   0  0  0  0  0  0  0  0  0  0  0  0
    3.8365    3.7813    0.8064 H   0  0  0  0  0  0  0  0  0  0  0  0
    5.5036   -1.3694    0.9980 H   0  0  0  0  0  0  0  0  0  0  0  0
   -1.8748   -1.5465    1.7683 H   0  0  0  0  0  0  0  0  0  0  0  0
   -0.1265   -1.4802    1.6246 H   0  0  0  0  0  0  0  0  0  0  0  0
   -1.0681   -2.5265    0.5380 H   0  0  0  0  0  0  0  0  0  0  0  0
   -3.1672    0.8798    1.5422 H   0  0  0  0  0  0  0  0  0  0  0  0
   -3.9939    1.5801    0.1302 H   0  0  0  0  0  0  0  0  0  0  0  0
   -4.8916    0.6632    1.3581 H   0  0  0  0  0  0  0  0  0  0  0  0
   -4.7590   -1.7879   -1.2972 H   0  0  0  0  0  0  0  0  0  0  0  0
   -5.0466   -0.0513   -1.5428 H   0  0  0  0  0  0  0  0  0  0  0  0
   -5.7957   -0.9150   -0.1813 H   0  0  0  0  0  0  0  0  0  0  0  0
    2.6904   -4.3734   -0.1257 H   0  0  0  0  0  0  0  0  0  0  0  0
   -0.1446    4.4901   -0.5552 H   0  0  0  0  0  0  0  0  0  0  0  0
    2.0282    5.3575    0.2743 H   0  0  0  0  0  0  0  0  0  0  0  0
    4.9591   -3.7426    0.6590 H   0  0  0  0  0  0  0  0  0  0  0  0
    0.3518    0.6821    2.3264 H   0  0  0  0  0  0  0  0  0  0  0  0
    0.8663    1.5637    0.9654 H   0  0  0  0  0  0  0  0  0  0  0  0
    2.2376   -0.4171    1.6608 H   0  0  0  0  0  0  0  0  0  0  0  0
    1.2256   -0.6820   -1.1974 H   0  0  0  0  0  0  0  0  0  0  0  0
    2.7119   -1.3720   -0.5865 H   0  0  0  0  0  0  0  0  0  0  0  0
   -1.3908    0.5570    3.3261 H   0  0  0  0  0  0  0  0  0  0  0  0
    0.1879    2.5356   -0.6992 H   0  0  0  0  0  0  0  0  0  0  0  0
   -4.4747   -2.5255    1.0029 H   0  0  0  0  0  0  0  0  0  0  0  0
   -2.7546   -0.2019   -3.5733 H   0  0  0  0  0  0  0  0  0  0  0  0
    0.0884   -2.2300    0.5049 H   0  0  0  0  0  0  0  0  0  0  0  0
    1.6475   -2.6915    1.1836 H   0  0  0  0  0  0  0  0  0  0  0  0
    0.4208   -1.9919    2.2377 H   0  0  0  0  0  0  0  0  0  0  0  0
    3.5456    1.6876   -2.5159 H   0  0  0  0  0  0  0  0  0  0  0  0
    2.1534    0.6698   -2.8380 H   0  0  0  0  0  0  0  0  0  0  0  0
    3.7314   -0.0806   -2.5206 H   0  0  0  0  0  0  0  0  0  0  0  0
    3.7755    0.9955    1.0358 H   0  0  0  0  0  0  0  0  0  0  0  0
    4.6650    0.0306   -0.1645 H   0  0  0  0  0  0  0  0  0  0  0  0
    4.5159    1.7919   -0.3312 H   0  0  0  0  0  0  0  0  0  0  0  0
   -0.0998    3.1124   -3.0434 H   0  0  0  0  0  0  0  0  0  0  0  0
   -3.0243   -0.7211    4.6012 H   0  0  0  0  0  0  0  0  0  0  0  0
   -4.5836   -2.2728    3.4520 H   0  0  0  0  0  0  0  0  0  0  0  0
   -1.5748    1.7512   -4.5065 H   0  0  0  0  0  0  0  0  0  0  0  0
    2.0884    2.1990   -1.5023 H   0  0  0  0  0  0  0  0  0  0  0  0
   -2.4476    0.9530   -1.4886 H   0  0  0  0  0  0  0  0  0  0  0  0
    1.1229   -1.0399    1.9253 H   0  0  0  0  0  0  0  0  0  0  0  0
   -1.3883   -2.1482    1.0929 H   0  0  0  0  0  0  0  0  0  0  0  0
    0.0361    1.1725    0.9927 H   0  0  0  0  0  0  0  0  0  0  0  0
    0.1198   -1.3990   -0.6772 H   0  0  0  0  0  0  0  0  0  0  0  0
 10  9  1  0
 11  4  2  0
 12  3  2  0
 13  6  2  0
 14  5  2  0
 15  8  1  0
 16 10  1  0
 17 10  1  0
 18 12  1  0
 19 11  1  0
 20 19  2  0
 21 18  2  0
  5  2  1  0
 13 20  1  0
 14 21  1  0
  2  6  1  0
  3  1  1  0
  4  1  1  0
  5  3  1  0
  6  4  1  0
  7  1  1  0
  8  7  1  0
  9  8  1  0
 31 30  1  0
 32 25  2  0
 33 24  2  0
 34 27  2  0
 35 26  2  0
 36 29  1  0
 37 31  1  0
 38 31  1  0
 39 33  1  0
 40 32  1  0
 41 40  2  0
 42 39  2  0
 26 23  1  0
 34 41  1  0
 35 42  1  0
 23 27  1  0
 24 22  1  0
 25 22  1  0
 26 24  1  0
 27 25  1  0
 28 22  1  0
 29 28  1  0
 30 29  1  0
 49 44  2  0
 50 47  1  0
 51 48  1  0
 49 43  1  0
 51 52  1  0
 50 51  1  0
 52 45  1  0
 49 50  1  0
 52 46  2  0
  7 53  1  0
  7 54  1  0
  8 55  1  1
  9 56  1  0
  9 57  1  0
 11 58  1  0
 12 59  1  0
 13 60  1  0
 14 61  1  0
 15 62  1  0
 15 63  1  0
 15 64  1  0
 16 65  1  0
 16 66  1  0
 16 67  1  0
 17 68  1  0
 17 69  1  0
 17 70  1  0
 18 71  1  0
 19 72  1  0
 20 73  1  0
 21 74  1  0
 28 75  1  0
 28 76  1  0
 29 77  1  1
 30 78  1  0
 30 79  1  0
 32 80  1  0
 33 81  1  0
 34 82  1  0
 35 83  1  0
 36 84  1  0
 36 85  1  0
 36 86  1  0
 37 87  1  0
 37 88  1  0
 37 89  1  0
 38 90  1  0
 38 91  1  0
 38 92  1  0
 39 93  1  0
 40 94  1  0
 41 95  1  0
 42 96  1  0
 43 97  1  0
 45 98  1  0
 47 99  1  0
 48100  1  0
 50101  1  1
 51102  1  6
M  END
$$$$
