
     RDKit          3D

102105  0  0  0  0  0  0  0  0999 V2000
   -0.9667   -0.0719   -0.9562 N   0  0  0  0  0  0  0  0  0  0  0  0
   -2.7296    0.7412    1.4844 S   0  0  0  0  0  0  0  0  0  0  0  0
   -1.6620    1.1600   -1.0724 C   0  0  0  0  0  0  0  0  0  0  0  0
   -1.3681   -1.1249   -0.0960 C   0  0  0  0  0  0  0  0  0  0  0  0
   -2.5102    1.6271   -0.0465 C   0  0  0  0  0  0  0  0  0  0  0  0
   -2.1930   -0.8938    1.0207 C   0  0  0  0  0  0  0  0  0  0  0  0
    0.4636   -0.0641   -1.3704 C   0  0  0  0  0  0  0  0  0  0  0  0
    1.3361    0.9096   -0.5380 C   0  0  1  0  0  0  0  0  0  0  0  0
    1.6683    0.3770    0.8761 C   0  0  0  0  0  0  0  0  0  0  0  0
    2.4650   -0.8661    0.9022 N   0  0  0  0  0  0  0  0  0  0  0  0
   -1.0153   -2.4599   -0.3739 C   0  0  0  0  0  0  0  0  0  0  0  0
   -1.5664    1.9360   -2.2442 C   0  0  0  0  0  0  0  0  0  0  0  0
   -2.5928   -1.9585    1.8465 C   0  0  0  0  0  0  0  0  0  0  0  0
   -3.1911    2.8484   -0.1881 C   0  0  0  0  0  0  0  0  0  0  0  0
    2.5878    1.2818   -1.3384 C   0  0  0  0  0  0  0  0  0  0  0  0
    3.8918   -0.5937    1.1044 C   0  0  0  0  0  0  0  0  0  0  0  0
    2.0011   -1.7427    1.9821 C   0  0  0  0  0  0  0  0  0  0  0  0
   -2.2595    3.1423   -2.3841 C   0  0  0  0  0  0  0  0  0  0  0  0
   -1.4281   -3.5195    0.4417 C   0  0  0  0  0  0  0  0  0  0  0  0
   -2.2121   -3.2670    1.5585 C   0  0  0  0  0  0  0  0  0  0  0  0
   -3.0666    3.6027   -1.3513 C   0  0  0  0  0  0  0  0  0  0  0  0
   -1.2428    0.0935   -0.4690 N   0  0  0  0  0  0  0  0  0  0  0  0
   -3.4206    0.1144    1.8328 S   0  0  0  0  0  0  0  0  0  0  0  0
   -1.9124   -1.1431   -0.1813 C   0  0  0  0  0  0  0  0  0  0  0  0
   -1.4940    1.3403    0.1804 C   0  0  0  0  0  0  0  0  0  0  0  0
   -2.9013   -1.2397    0.8183 C   0  0  0  0  0  0  0  0  0  0  0  0
   -2.4451    1.4598    1.2164 C   0  0  0  0  0  0  0  0  0  0  0  0
   -0.2408    0.0534   -1.5660 C   0  0  0  0  0  0  0  0  0  0  0  0
    1.1184   -0.5433   -1.1123 C   0  0  2  0  0  0  0  0  0  0  0  0
    1.9744    0.4931   -0.3519 C   0  0  0  0  0  0  0  0  0  0  0  0
    3.2375   -0.0806    0.1519 N   0  0  0  0  0  0  0  0  0  0  0  0
   -0.8114    2.5341   -0.1532 C   0  0  0  0  0  0  0  0  0  0  0  0
   -1.6306   -2.3449   -0.8776 C   0  0  0  0  0  0  0  0  0  0  0  0
   -2.6894    2.6943    1.8561 C   0  0  0  0  0  0  0  0  0  0  0  0
   -3.5531   -2.4631    1.0875 C   0  0  0  0  0  0  0  0  0  0  0  0
    1.8734   -1.0598   -2.3431 C   0  0  0  0  0  0  0  0  0  0  0  0
    4.2575    0.9631    0.3085 C   0  0  0  0  0  0  0  0  0  0  0  0
    3.0229   -0.7598    1.4365 C   0  0  0  0  0  0  0  0  0  0  0  0
   -2.2801   -3.5557   -0.6083 C   0  0  0  0  0  0  0  0  0  0  0  0
   -1.0513    3.7579    0.4886 C   0  0  0  0  0  0  0  0  0  0  0  0
   -1.9933    3.8387    1.4968 C   0  0  0  0  0  0  0  0  0  0  0  0
   -3.2454   -3.6161    0.3781 C   0  0  0  0  0  0  0  0  0  0  0  0
   -2.5648   -0.0225   -0.9591 O   0  0  0  0  0  0  0  0  0  0  0  0
   -2.4967   -0.3321    1.2555 O   0  0  0  0  0  0  0  0  0  0  0  0
    2.7897   -0.0172    0.2687 O   0  0  0  0  0  0  0  0  0  0  0  0
    1.7721    0.5443    2.1780 O   0  0  0  0  0  0  0  0  0  0  0  0
   -0.2333    1.1295   -1.1650 O   0  0  0  0  0  0  0  0  0  0  0  0
    0.7428   -1.3291   -0.7459 O   0  0  0  0  0  0  0  0  0  0  0  0
   -1.9357    0.0376    0.2388 C   0  0  0  0  0  0  0  0  0  0  0  0
   -0.5127    0.5702    0.1239 C   0  0  1  0  0  0  0  0  0  0  0  0
    0.4587   -0.5679    0.4331 C   0  0  2  0  0  0  0  0  0  0  0  0
    1.7051    0.0310    1.0733 C   0  0  0  0  0  0  0  0  0  0  0  0
    0.5161    0.2124   -2.4298 H   0  0  0  0  0  0  0  0  0  0  0  0
    0.9144   -1.0627   -1.3370 H   0  0  0  0  0  0  0  0  0  0  0  0
    0.7869    1.8481   -0.3853 H   0  0  0  0  0  0  0  0  0  0  0  0
    2.1699    1.1691    1.4480 H   0  0  0  0  0  0  0  0  0  0  0  0
    0.7150    0.2271    1.3941 H   0  0  0  0  0  0  0  0  0  0  0  0
   -0.4362   -2.7062   -1.2598 H   0  0  0  0  0  0  0  0  0  0  0  0
   -0.9747    1.5912   -3.0872 H   0  0  0  0  0  0  0  0  0  0  0  0
   -3.2115   -1.7703    2.7226 H   0  0  0  0  0  0  0  0  0  0  0  0
   -3.8338    3.2121    0.6103 H   0  0  0  0  0  0  0  0  0  0  0  0
    2.3051    1.8148   -2.2545 H   0  0  0  0  0  0  0  0  0  0  0  0
    3.2374    1.9480   -0.7555 H   0  0  0  0  0  0  0  0  0  0  0  0
    3.1580    0.3945   -1.6391 H   0  0  0  0  0  0  0  0  0  0  0  0
    4.3068    0.0264    0.3080 H   0  0  0  0  0  0  0  0  0  0  0  0
    4.4615   -1.5294    1.0874 H   0  0  0  0  0  0  0  0  0  0  0  0
    4.0846   -0.0949    2.0631 H   0  0  0  0  0  0  0  0  0  0  0  0
    2.5767   -2.6763    1.9944 H   0  0  0  0  0  0  0  0  0  0  0  0
    2.0865   -1.2678    2.9649 H   0  0  0  0  0  0  0  0  0  0  0  0
    0.9557   -2.0260    1.8319 H   0  0  0  0  0  0  0  0  0  0  0  0
   -2.1793    3.7122   -3.3076 H   0  0  0  0  0  0  0  0  0  0  0  0
   -1.1423   -4.5392    0.1933 H   0  0  0  0  0  0  0  0  0  0  0  0
   -2.5386   -4.0853    2.1954 H   0  0  0  0  0  0  0  0  0  0  0  0
   -3.6103    4.5382   -1.4555 H   0  0  0  0  0  0  0  0  0  0  0  0
   -0.0823    1.0212   -2.0505 H   0  0  0  0  0  0  0  0  0  0  0  0
   -0.6556   -0.5173   -2.4085 H   0  0  0  0  0  0  0  0  0  0  0  0
    0.9354   -1.4020   -0.4601 H   0  0  0  0  0  0  0  0  0  0  0  0
    1.4142    0.9415    0.4743 H   0  0  0  0  0  0  0  0  0  0  0  0
    2.1975    1.3047   -1.0554 H   0  0  0  0  0  0  0  0  0  0  0  0
   -0.0435    2.5703   -0.9165 H   0  0  0  0  0  0  0  0  0  0  0  0
   -0.8841   -2.3968   -1.6615 H   0  0  0  0  0  0  0  0  0  0  0  0
   -3.4286    2.7626    2.6522 H   0  0  0  0  0  0  0  0  0  0  0  0
   -4.3163   -2.5190    1.8616 H   0  0  0  0  0  0  0  0  0  0  0  0
    2.8059   -1.5623   -2.0617 H   0  0  0  0  0  0  0  0  0  0  0  0
    1.2717   -1.7849   -2.9029 H   0  0  0  0  0  0  0  0  0  0  0  0
    2.1277   -0.2376   -3.0237 H   0  0  0  0  0  0  0  0  0  0  0  0
    5.1897    0.5438    0.7019 H   0  0  0  0  0  0  0  0  0  0  0  0
    4.5053    1.3953   -0.6684 H   0  0  0  0  0  0  0  0  0  0  0  0
    3.9296    1.7742    0.9727 H   0  0  0  0  0  0  0  0  0  0  0  0
    2.7147   -0.0572    2.2234 H   0  0  0  0  0  0  0  0  0  0  0  0
    2.2599   -1.5420    1.3526 H   0  0  0  0  0  0  0  0  0  0  0  0
    3.9417   -1.2590    1.7644 H   0  0  0  0  0  0  0  0  0  0  0  0
   -2.0174   -4.4472   -1.1711 H   0  0  0  0  0  0  0  0  0  0  0  0
   -0.4959    4.6441    0.1914 H   0  0  0  0  0  0  0  0  0  0  0  0
   -2.1855    4.7800    2.0013 H   0  0  0  0  0  0  0  0  0  0  0  0
   -3.7567   -4.5491    0.5956 H   0  0  0  0  0  0  0  0  0  0  0  0
   -3.4508   -0.3846   -0.7458 H   0  0  0  0  0  0  0  0  0  0  0  0
    3.4989    0.4087    0.7982 H   0  0  0  0  0  0  0  0  0  0  0  0
   -0.7788    0.6060   -1.7908 H   0  0  0  0  0  0  0  0  0  0  0  0
    1.3874   -0.7897   -1.2477 H   0  0  0  0  0  0  0  0  0  0  0  0
   -0.4324    1.3868    0.8498 H   0  0  0  0  0  0  0  0  0  0  0  0
    0.0507   -1.2709    1.1671 H   0  0  0  0  0  0  0  0  0  0  0  0
 10  9  1  0
 11  4  2  0
 12  3  2  0
 13  6  2  0
 14  5  2  0
 15  8  1  0
 16 10  1  0
 17 10  1  0
 18 12  1  0
 19 11  1  0
 20 19  2  0
 21 18  2  0
  5  2  1  0
 13 20  1  0
 14 21  1  0
  2  6  1  0
  3  1  1  0
  4  1  1  0
  5  3  1  0
  6  4  1  0
  7  1  1  0
  8  7  1  0
  9  8  1  0
 31 30  1  0
 32 25  2  0
 33 24  2  0
 34 27  2  0
 35 26  2  0
 36 29  1  0
 37 31  1  0
 38 31  1  0
 39 33  1  0
 40 32  1  0
 41 40  2  0
 42 39  2  0
 26 23  1  0
 34 41  1  0
 35 42  1  0
 23 27  1  0
 24 22  1  0
 25 22  1  0
 26 24  1  0
 27 25  1  0
 28 22  1  0
 29 28  1  0
 30 29  1  0
 49 44  2  0
 50 47  1  0
 51 48  1  0
 49 43  1  0
 51 52  1  0
 50 51  1  0
 52 45  1  0
 49 50  1  0
 52 46  2  0
  7 53  1  0
  7 54  1  0
  8 55  1  1
  9 56  1  0
  9 57  1  0
 11 58  1  0
 12 59  1  0
 13 60  1  0
 14 61  1  0
 15 62  1  0
 15 63  1  0
 15 64  1  0
 16 65  1  0
 16 66  1  0
 16 67  1  0
 17 68  1  0
 17 69  1  0
 17 70  1  0
 18 71  1  0
 19 72  1  0
 20 73  1  0
 21 74  1  0
 28 75  1  0
 28 76  1  0
 29 77  1  1
 30 78  1  0
 30 79  1  0
 32 80  1  0
 33 81  1  0
 34 82  1  0
 35 83  1  0
 36 84  1  0
 36 85  1  0
 36 86  1  0
 37 87  1  0
 37 88  1  0
 37 89  1  0
 38 90  1  0
 38 91  1  0
 38 92  1  0
 39 93  1  0
 40 94  1  0
 41 95  1  0
 42 96  1  0
 43 97  1  0
 45 98  1  0
 47 99  1  0
 48100  1  0
 50101  1  1
 51102  1  1
M  END
$$$$
