
     RDKit          3D

102105  0  0  0  0  0  0  0  0999 V2000
   -1.2711    0.0474    0.3868 N   0  0  0  0  0  0  0  0  0  0  0  0
   -4.2248    0.4777   -0.6815 S   0  0  0  0  0  0  0  0  0  0  0  0
   -2.1507   -1.0781    0.4246 C   0  0  0  0  0  0  0  0  0  0  0  0
   -1.6105    1.3492   -0.1071 C   0  0  0  0  0  0  0  0  0  0  0  0
   -3.4848   -0.9952   -0.0269 C   0  0  0  0  0  0  0  0  0  0  0  0
   -2.8919    1.6436   -0.6130 C   0  0  0  0  0  0  0  0  0  0  0  0
    0.0804   -0.0997    0.9848 C   0  0  0  0  0  0  0  0  0  0  0  0
    1.1986   -0.3009   -0.0717 C   0  0  1  0  0  0  0  0  0  0  0  0
    2.5675   -0.0727    0.6174 C   0  0  0  0  0  0  0  0  0  0  0  0
    3.7426   -0.2342   -0.2571 N   0  0  0  0  0  0  0  0  0  0  0  0
   -0.6888    2.4254   -0.1236 C   0  0  0  0  0  0  0  0  0  0  0  0
   -1.7499   -2.3501    0.8985 C   0  0  0  0  0  0  0  0  0  0  0  0
   -3.2096    2.9288   -1.1042 C   0  0  0  0  0  0  0  0  0  0  0  0
   -4.3467   -2.1125    0.0158 C   0  0  0  0  0  0  0  0  0  0  0  0
    1.1369   -1.6771   -0.7387 C   0  0  0  0  0  0  0  0  0  0  0  0
    4.9730   -0.2223    0.5398 C   0  0  0  0  0  0  0  0  0  0  0  0
    3.8132    0.8064   -1.2852 C   0  0  0  0  0  0  0  0  0  0  0  0
   -2.6072   -3.4592    0.9325 C   0  0  0  0  0  0  0  0  0  0  0  0
   -1.0090    3.7012   -0.6075 C   0  0  0  0  0  0  0  0  0  0  0  0
   -2.2748    3.9547   -1.1004 C   0  0  0  0  0  0  0  0  0  0  0  0
   -3.9121   -3.3401    0.4941 C   0  0  0  0  0  0  0  0  0  0  0  0
    1.0096    0.2022   -0.6831 N   0  0  0  0  0  0  0  0  0  0  0  0
    2.8396    0.1530    1.8521 S   0  0  0  0  0  0  0  0  0  0  0  0
    1.3771   -1.0797   -0.2001 C   0  0  0  0  0  0  0  0  0  0  0  0
    1.7319    1.3947   -0.4044 C   0  0  0  0  0  0  0  0  0  0  0  0
    2.2192   -1.2344    0.9191 C   0  0  0  0  0  0  0  0  0  0  0  0
    2.6130    1.4863    0.6908 C   0  0  0  0  0  0  0  0  0  0  0  0
   -0.3984    0.3703   -1.1361 C   0  0  0  0  0  0  0  0  0  0  0  0
   -1.2967    1.0635   -0.0808 C   0  0  2  0  0  0  0  0  0  0  0  0
   -1.7215    0.1151    1.0667 C   0  0  0  0  0  0  0  0  0  0  0  0
   -2.5355   -1.0437    0.6434 N   0  0  0  0  0  0  0  0  0  0  0  0
    1.6218    2.5238   -1.2414 C   0  0  0  0  0  0  0  0  0  0  0  0
    0.9727   -2.2528   -0.8693 C   0  0  0  0  0  0  0  0  0  0  0  0
    3.3181    2.6761    0.9439 C   0  0  0  0  0  0  0  0  0  0  0  0
    2.5816   -2.5152    1.3715 C   0  0  0  0  0  0  0  0  0  0  0  0
   -2.4869    1.7283   -0.7776 C   0  0  0  0  0  0  0  0  0  0  0  0
   -3.9707   -0.7990    0.8330 C   0  0  0  0  0  0  0  0  0  0  0  0
   -2.1635   -2.2350    1.4181 C   0  0  0  0  0  0  0  0  0  0  0  0
    1.3454   -3.5245   -0.4216 C   0  0  0  0  0  0  0  0  0  0  0  0
    2.3276    3.7042   -0.9865 C   0  0  0  0  0  0  0  0  0  0  0  0
    3.1735    3.7810    0.1096 C   0  0  0  0  0  0  0  0  0  0  0  0
    2.1439   -3.6576    0.7057 C   0  0  0  0  0  0  0  0  0  0  0  0
   -1.0039    0.6166   -1.6380 O   0  0  0  0  0  0  0  0  0  0  0  0
   -2.6760    0.1050   -0.2524 O   0  0  0  0  0  0  0  0  0  0  0  0
    2.0740    1.0764   -0.5589 O   0  0  0  0  0  0  0  0  0  0  0  0
    0.4037    2.2018    0.4185 O   0  0  0  0  0  0  0  0  0  0  0  0
   -1.1908   -1.7614    1.0958 O   0  0  0  0  0  0  0  0  0  0  0  0
    1.8123   -1.0520    0.9000 O   0  0  0  0  0  0  0  0  0  0  0  0
   -1.4979   -0.0129   -0.5546 C   0  0  0  0  0  0  0  0  0  0  0  0
   -0.4988   -0.9342    0.1381 C   0  0  1  0  0  0  0  0  0  0  0  0
    0.6432   -0.2082    0.8590 C   0  0  2  0  0  0  0  0  0  0  0  0
    0.9937    1.1469    0.2550 C   0  0  0  0  0  0  0  0  0  0  0  0
    0.2947    0.7811    1.6046 H   0  0  0  0  0  0  0  0  0  0  0  0
    0.1344   -0.8891    1.7401 H   0  0  0  0  0  0  0  0  0  0  0  0
    1.0765    0.4422   -0.8653 H   0  0  0  0  0  0  0  0  0  0  0  0
    2.5823    0.9253    1.0768 H   0  0  0  0  0  0  0  0  0  0  0  0
    2.6422   -0.7963    1.4408 H   0  0  0  0  0  0  0  0  0  0  0  0
    0.3273    2.3163    0.2377 H   0  0  0  0  0  0  0  0  0  0  0  0
   -0.7428   -2.5467    1.2455 H   0  0  0  0  0  0  0  0  0  0  0  0
   -4.2056    3.1365   -1.4917 H   0  0  0  0  0  0  0  0  0  0  0  0
   -5.3744   -2.0258   -0.3317 H   0  0  0  0  0  0  0  0  0  0  0  0
    1.2809   -2.4813   -0.0108 H   0  0  0  0  0  0  0  0  0  0  0  0
    1.9122   -1.7803   -1.5044 H   0  0  0  0  0  0  0  0  0  0  0  0
    0.1790   -1.8293   -1.2433 H   0  0  0  0  0  0  0  0  0  0  0  0
    4.9598   -1.0307    1.2794 H   0  0  0  0  0  0  0  0  0  0  0  0
    5.1141    0.7287    1.0674 H   0  0  0  0  0  0  0  0  0  0  0  0
    5.8472   -0.3989   -0.0982 H   0  0  0  0  0  0  0  0  0  0  0  0
    4.7069    0.6735   -1.9064 H   0  0  0  0  0  0  0  0  0  0  0  0
    2.9615    0.7507   -1.9691 H   0  0  0  0  0  0  0  0  0  0  0  0
    3.8454    1.8121   -0.8512 H   0  0  0  0  0  0  0  0  0  0  0  0
   -2.2429   -4.4146    1.3017 H   0  0  0  0  0  0  0  0  0  0  0  0
   -0.2583    4.4877   -0.5996 H   0  0  0  0  0  0  0  0  0  0  0  0
   -2.5353    4.9388   -1.4784 H   0  0  0  0  0  0  0  0  0  0  0  0
   -4.5851   -4.1921    0.5151 H   0  0  0  0  0  0  0  0  0  0  0  0
   -0.4022    0.9467   -2.0690 H   0  0  0  0  0  0  0  0  0  0  0  0
   -0.8666   -0.5742   -1.4277 H   0  0  0  0  0  0  0  0  0  0  0  0
   -0.7385    1.8795    0.3942 H   0  0  0  0  0  0  0  0  0  0  0  0
   -0.7971   -0.2261    1.5509 H   0  0  0  0  0  0  0  0  0  0  0  0
   -2.2456    0.6931    1.8408 H   0  0  0  0  0  0  0  0  0  0  0  0
    1.0051    2.4959   -2.1352 H   0  0  0  0  0  0  0  0  0  0  0  0
    0.3805   -2.1951   -1.7789 H   0  0  0  0  0  0  0  0  0  0  0  0
    3.9840    2.7450    1.8012 H   0  0  0  0  0  0  0  0  0  0  0  0
    3.2171   -2.6296    2.2456 H   0  0  0  0  0  0  0  0  0  0  0  0
   -3.0476    1.0148   -1.3888 H   0  0  0  0  0  0  0  0  0  0  0  0
   -2.1420    2.5278   -1.4441 H   0  0  0  0  0  0  0  0  0  0  0  0
   -3.1658    2.1802   -0.0476 H   0  0  0  0  0  0  0  0  0  0  0  0
   -4.2266   -0.6245    1.8845 H   0  0  0  0  0  0  0  0  0  0  0  0
   -4.3175    0.0596    0.2534 H   0  0  0  0  0  0  0  0  0  0  0  0
   -4.5497   -1.6600    0.4815 H   0  0  0  0  0  0  0  0  0  0  0  0
   -2.3364   -2.0992    2.4915 H   0  0  0  0  0  0  0  0  0  0  0  0
   -2.7349   -3.1064    1.0812 H   0  0  0  0  0  0  0  0  0  0  0  0
   -1.1090   -2.4849    1.2679 H   0  0  0  0  0  0  0  0  0  0  0  0
    1.0111   -4.4073   -0.9605 H   0  0  0  0  0  0  0  0  0  0  0  0
    2.2203    4.5558   -1.6543 H   0  0  0  0  0  0  0  0  0  0  0  0
    3.7237    4.6950    0.3160 H   0  0  0  0  0  0  0  0  0  0  0  0
    2.4361   -4.6426    1.0589 H   0  0  0  0  0  0  0  0  0  0  0  0
   -1.7551    1.1620   -1.9624 H   0  0  0  0  0  0  0  0  0  0  0  0
    2.1942    1.9975   -0.8755 H   0  0  0  0  0  0  0  0  0  0  0  0
   -2.1101   -1.8622    0.7828 H   0  0  0  0  0  0  0  0  0  0  0  0
    2.3364   -0.8260    0.1049 H   0  0  0  0  0  0  0  0  0  0  0  0
   -0.1074   -1.6215   -0.6206 H   0  0  0  0  0  0  0  0  0  0  0  0
    0.3825   -0.0279    1.9083 H   0  0  0  0  0  0  0  0  0  0  0  0
 10  9  1  0
 11  4  2  0
 12  3  2  0
 13  6  2  0
 14  5  2  0
 15  8  1  0
 16 10  1  0
 17 10  1  0
 18 12  1  0
 19 11  1  0
 20 19  2  0
 21 18  2  0
  5  2  1  0
 13 20  1  0
 14 21  1  0
  2  6  1  0
  3  1  1  0
  4  1  1  0
  5  3  1  0
  6  4  1  0
  7  1  1  0
  8  7  1  0
  9  8  1  0
 31 30  1  0
 32 25  2  0
 33 24  2  0
 34 27  2  0
 35 26  2  0
 36 29  1  0
 37 31  1  0
 38 31  1  0
 39 33  1  0
 40 32  1  0
 41 40  2  0
 42 39  2  0
 26 23  1  0
 34 41  1  0
 35 42  1  0
 23 27  1  0
 24 22  1  0
 25 22  1  0
 26 24  1  0
 27 25  1  0
 28 22  1  0
 29 28  1  0
 30 29  1  0
 49 44  2  0
 50 47  1  0
 51 48  1  0
 49 43  1  0
 51 52  1  0
 50 51  1  0
 52 45  1  0
 49 50  1  0
 52 46  2  0
  7 53  1  0
  7 54  1  0
  8 55  1  6
  9 56  1  0
  9 57  1  0
 11 58  1  0
 12 59  1  0
 13 60  1  0
 14 61  1  0
 15 62  1  0
 15 63  1  0
 15 64  1  0
 16 65  1  0
 16 66  1  0
 16 67  1  0
 17 68  1  0
 17 69  1  0
 17 70  1  0
 18 71  1  0
 19 72  1  0
 20 73  1  0
 21 74  1  0
 28 75  1  0
 28 76  1  0
 29 77  1  1
 30 78  1  0
 30 79  1  0
 32 80  1  0
 33 81  1  0
 34 82  1  0
 35 83  1  0
 36 84  1  0
 36 85  1  0
 36 86  1  0
 37 87  1  0
 37 88  1  0
 37 89  1  0
 38 90  1  0
 38 91  1  0
 38 92  1  0
 39 93  1  0
 40 94  1  0
 41 95  1  0
 42 96  1  0
 43 97  1  0
 45 98  1  0
 47 99  1  0
 48100  1  0
 50101  1  6
 51102  1  1
M  END
$$$$
