
     RDKit          2D

 52 55  0  0  0  0  0  0  0  0999 V2000
   19.7688  -12.8732    0.0000 N   0  0  0  0  0  0  0  0  0  0  0  0
   19.7687  -11.2314    0.0000 S   0  0  0  0  0  0  0  0  0  0  0  0
   20.4807  -12.4664    0.0000 C   0  0  0  0  0  0  0  0  0  0  0  0
   19.0422  -12.4665    0.0000 C   0  0  0  0  0  0  0  0  0  0  0  0
   20.4806  -11.6381    0.0000 C   0  0  0  0  0  0  0  0  0  0  0  0
   19.0421  -11.6382    0.0000 C   0  0  0  0  0  0  0  0  0  0  0  0
   19.7688  -13.7014    0.0000 C   0  0  0  0  0  0  0  0  0  0  0  0
   19.0423  -14.1083    0.0000 C   0  0  0  0  0  0  0  0  0  0  0  0
   19.0424  -14.9365    0.0000 C   0  0  0  0  0  0  0  0  0  0  0  0
   18.3305  -15.3434    0.0000 N   0  0  0  0  0  0  0  0  0  0  0  0
   18.3303  -12.8733    0.0000 C   0  0  0  0  0  0  0  0  0  0  0  0
   21.1927  -12.8731    0.0000 C   0  0  0  0  0  0  0  0  0  0  0  0
   18.3302  -11.2315    0.0000 C   0  0  0  0  0  0  0  0  0  0  0  0
   21.1926  -11.2313    0.0000 C   0  0  0  0  0  0  0  0  0  0  0  0
   18.3304  -13.7015    0.0000 C   0  0  0  0  0  0  0  0  0  0  0  0
   18.3305  -16.1716    0.0000 C   0  0  0  0  0  0  0  0  0  0  0  0
   17.6184  -14.9366    0.0000 C   0  0  0  0  0  0  0  0  0  0  0  0
   21.9046  -12.4663    0.0000 C   0  0  0  0  0  0  0  0  0  0  0  0
   17.6183  -12.4666    0.0000 C   0  0  0  0  0  0  0  0  0  0  0  0
   17.6182  -11.6383    0.0000 C   0  0  0  0  0  0  0  0  0  0  0  0
   21.9045  -11.6380    0.0000 C   0  0  0  0  0  0  0  0  0  0  0  0
   15.6217   -9.7250    0.0000 N   0  0  0  0  0  0  0  0  0  0  0  0
   15.6216   -8.0832    0.0000 S   0  0  0  0  0  0  0  0  0  0  0  0
   16.3336   -9.3182    0.0000 C   0  0  0  0  0  0  0  0  0  0  0  0
   14.8951   -9.3183    0.0000 C   0  0  0  0  0  0  0  0  0  0  0  0
   16.3335   -8.4899    0.0000 C   0  0  0  0  0  0  0  0  0  0  0  0
   14.8950   -8.4900    0.0000 C   0  0  0  0  0  0  0  0  0  0  0  0
   15.6217  -10.5533    0.0000 C   0  0  0  0  0  0  0  0  0  0  0  0
   14.8952  -10.9601    0.0000 C   0  0  0  0  0  0  0  0  0  0  0  0
   14.8953  -11.7884    0.0000 C   0  0  0  0  0  0  0  0  0  0  0  0
   14.1834  -12.1952    0.0000 N   0  0  0  0  0  0  0  0  0  0  0  0
   14.1832   -9.7251    0.0000 C   0  0  0  0  0  0  0  0  0  0  0  0
   17.0456   -9.7249    0.0000 C   0  0  0  0  0  0  0  0  0  0  0  0
   14.1831   -8.0833    0.0000 C   0  0  0  0  0  0  0  0  0  0  0  0
   17.0455   -8.0831    0.0000 C   0  0  0  0  0  0  0  0  0  0  0  0
   14.1833  -10.5534    0.0000 C   0  0  0  0  0  0  0  0  0  0  0  0
   14.1834  -13.0235    0.0000 C   0  0  0  0  0  0  0  0  0  0  0  0
   13.4713  -11.7885    0.0000 C   0  0  0  0  0  0  0  0  0  0  0  0
   17.7575   -9.3181    0.0000 C   0  0  0  0  0  0  0  0  0  0  0  0
   13.4712   -9.3184    0.0000 C   0  0  0  0  0  0  0  0  0  0  0  0
   13.4711   -8.4901    0.0000 C   0  0  0  0  0  0  0  0  0  0  0  0
   17.7574   -8.4898    0.0000 C   0  0  0  0  0  0  0  0  0  0  0  0
    8.2926  -10.2971    0.0000 O   0  0  0  0  0  0  0  0  0  0  0  0
    9.0106  -11.5370    0.0000 O   0  0  0  0  0  0  0  0  0  0  0  0
   11.8773  -10.7086    0.0000 O   0  0  0  0  0  0  0  0  0  0  0  0
   11.1593   -9.4687    0.0000 O   0  0  0  0  0  0  0  0  0  0  0  0
    9.7283   -9.4688    0.0000 O   0  0  0  0  0  0  0  0  0  0  0  0
   10.4415  -11.5369    0.0000 O   0  0  0  0  0  0  0  0  0  0  0  0
    9.0132  -10.7091    0.0000 C   0  0  0  0  0  0  0  0  0  0  0  0
    9.7277  -10.2966    0.0000 C   0  0  0  0  0  0  0  0  0  0  0  0
   10.4422  -10.7091    0.0000 C   0  0  0  0  0  0  0  0  0  0  0  0
   11.1567  -10.2966    0.0000 C   0  0  0  0  0  0  0  0  0  0  0  0
 10  9  1  0
 11  4  2  0
 12  3  1  0
 13  6  2  0
 14  5  1  0
 15  8  1  0
 16 10  1  0
 17 10  1  0
 18 12  2  0
 19 11  1  0
 20 19  2  0
 21 18  1  0
  5  2  1  0
 13 20  1  0
 14 21  2  0
  2  6  1  0
  3  1  1  0
  4  1  1  0
  5  3  2  0
  6  4  1  0
  7  1  1  0
  8  7  1  0
  9  8  1  0
 31 30  1  0
 32 25  2  0
 33 24  1  0
 34 27  2  0
 35 26  1  0
 36 29  1  0
 37 31  1  0
 38 31  1  0
 39 33  2  0
 40 32  1  0
 41 40  2  0
 42 39  1  0
 26 23  1  0
 34 41  1  0
 35 42  2  0
 23 27  1  0
 24 22  1  0
 25 22  1  0
 26 24  2  0
 27 25  1  0
 28 22  1  0
 29 28  1  0
 30 29  1  0
 49 44  2  0
 50 47  1  0
 51 48  1  0
 49 43  1  0
 51 52  1  0
 50 51  1  0
 52 45  1  0
 49 50  1  0
 52 46  2  0
M  END
> <chembl_id>
CHEMBL3989885

> <chembl_pref_name>
TRIMEPRAZINE TARTRATE
