
     RDKit          3D

 52 55  0  0  0  0  0  0  0  0999 V2000
   -0.2816   -0.4570    0.4548 N   0  0  0  0  0  0  0  0  0  0  0  0
   -2.7199    0.7523   -0.9971 S   0  0  0  0  0  0  0  0  0  0  0  0
   -0.9268   -1.2508   -0.5130 C   0  0  0  0  0  0  0  0  0  0  0  0
   -0.6698    0.8488    0.8073 C   0  0  0  0  0  0  0  0  0  0  0  0
   -2.0205   -0.8684   -1.2489 C   0  0  0  0  0  0  0  0  0  0  0  0
   -1.7296    1.5334    0.2597 C   0  0  0  0  0  0  0  0  0  0  0  0
    0.8852   -1.0170    1.1499 C   0  0  0  0  0  0  0  0  0  0  0  0
    1.9782   -1.3556    0.1614 C   0  0  0  0  0  0  0  0  0  0  0  0
    2.3580   -0.1572   -0.6386 C   0  0  0  0  0  0  0  0  0  0  0  0
    2.8482    0.9452    0.1194 N   0  0  0  0  0  0  0  0  0  0  0  0
    0.0545    1.5229    1.7782 C   0  0  0  0  0  0  0  0  0  0  0  0
   -0.4280   -2.5154   -0.7492 C   0  0  0  0  0  0  0  0  0  0  0  0
   -2.0504    2.7979    0.6466 C   0  0  0  0  0  0  0  0  0  0  0  0
   -2.5489   -1.7382   -2.1577 C   0  0  0  0  0  0  0  0  0  0  0  0
    3.1705   -1.9242    0.8848 C   0  0  0  0  0  0  0  0  0  0  0  0
    4.1163    0.7656    0.7494 C   0  0  0  0  0  0  0  0  0  0  0  0
    2.5884    2.2418   -0.4188 C   0  0  0  0  0  0  0  0  0  0  0  0
   -0.9583   -3.3980   -1.6662 C   0  0  0  0  0  0  0  0  0  0  0  0
   -0.2645    2.8038    2.1751 C   0  0  0  0  0  0  0  0  0  0  0  0
   -1.3348    3.4758    1.6122 C   0  0  0  0  0  0  0  0  0  0  0  0
   -2.0661   -3.0055   -2.4093 C   0  0  0  0  0  0  0  0  0  0  0  0
   -0.2940    0.0819    0.3143 N   0  0  0  0  0  0  0  0  0  0  0  0
   -3.3176   -0.0570   -0.2712 S   0  0  0  0  0  0  0  0  0  0  0  0
   -0.8553   -1.1876    0.0891 C   0  0  0  0  0  0  0  0  0  0  0  0
   -1.0077    1.2829    0.2935 C   0  0  0  0  0  0  0  0  0  0  0  0
   -2.1696   -1.4118   -0.1798 C   0  0  0  0  0  0  0  0  0  0  0  0
   -2.3438    1.3985    0.0536 C   0  0  0  0  0  0  0  0  0  0  0  0
    1.1579    0.1228    0.5835 C   0  0  0  0  0  0  0  0  0  0  0  0
    1.8942   -0.4527   -0.6024 C   0  0  0  0  0  0  0  0  0  0  0  0
    3.2443   -0.9726   -0.3346 C   0  0  0  0  0  0  0  0  0  0  0  0
    4.2294   -0.1128    0.1754 N   0  0  0  0  0  0  0  0  0  0  0  0
   -0.2964    2.4559    0.5409 C   0  0  0  0  0  0  0  0  0  0  0  0
   -0.0279   -2.3115    0.1422 C   0  0  0  0  0  0  0  0  0  0  0  0
   -2.9577    2.6013    0.0545 C   0  0  0  0  0  0  0  0  0  0  0  0
   -2.6147   -2.6676   -0.3792 C   0  0  0  0  0  0  0  0  0  0  0  0
    1.6651    0.2669   -1.8785 C   0  0  0  0  0  0  0  0  0  0  0  0
    4.7314    0.9281   -0.6348 C   0  0  0  0  0  0  0  0  0  0  0  0
    4.3950   -0.0182    1.5757 C   0  0  0  0  0  0  0  0  0  0  0  0
   -0.4803   -3.5954   -0.0606 C   0  0  0  0  0  0  0  0  0  0  0  0
   -0.8871    3.7080    0.5517 C   0  0  0  0  0  0  0  0  0  0  0  0
   -2.2381    3.7463    0.3010 C   0  0  0  0  0  0  0  0  0  0  0  0
   -1.8271   -3.8055   -0.3343 C   0  0  0  0  0  0  0  0  0  0  0  0
    3.0092    0.3532   -0.0019 O   0  0  0  0  0  0  0  0  0  0  0  0
    1.7875   -1.4950    0.5479 O   0  0  0  0  0  0  0  0  0  0  0  0
   -1.9445   -1.0145   -1.2800 O   0  0  0  0  0  0  0  0  0  0  0  0
   -2.9291    0.2045    0.3861 O   0  0  0  0  0  0  0  0  0  0  0  0
    0.6784    1.4853   -1.0540 O   0  0  0  0  0  0  0  0  0  0  0  0
   -0.5513    0.7891    1.5737 O   0  0  0  0  0  0  0  0  0  0  0  0
    1.8154   -0.3339    0.0307 C   0  0  0  0  0  0  0  0  0  0  0  0
    0.5550    0.2301   -0.5166 C   0  0  0  0  0  0  0  0  0  0  0  0
   -0.5492    0.0242    0.4445 C   0  0  0  0  0  0  0  0  0  0  0  0
   -1.8712   -0.2430   -0.1305 C   0  0  0  0  0  0  0  0  0  0  0  0
 10  9  1  0
 11  4  2  0
 12  3  2  0
 13  6  2  0
 14  5  2  0
 15  8  1  0
 16 10  1  0
 17 10  1  0
 18 12  1  0
 19 11  1  0
 20 19  2  0
 21 18  2  0
  5  2  1  0
 13 20  1  0
 14 21  1  0
  2  6  1  0
  3  1  1  0
  4  1  1  0
  5  3  1  0
  6  4  1  0
  7  1  1  0
  8  7  1  0
  9  8  1  0
 31 30  1  0
 32 25  2  0
 33 24  2  0
 34 27  2  0
 35 26  2  0
 36 29  1  0
 37 31  1  0
 38 31  1  0
 39 33  1  0
 40 32  1  0
 41 40  2  0
 42 39  2  0
 26 23  1  0
 34 41  1  0
 35 42  1  0
 23 27  1  0
 24 22  1  0
 25 22  1  0
 26 24  1  0
 27 25  1  0
 28 22  1  0
 29 28  1  0
 30 29  1  0
 49 44  2  0
 50 47  1  0
 51 48  1  0
 49 43  1  0
 51 52  1  0
 50 51  1  0
 52 45  1  0
 49 50  1  0
 52 46  2  0
M  END
