
     RDKit          3D

102105  0  0  0  0  0  0  0  0999 V2000
   -0.9556   -0.4377    0.6529 N   0  0  0  0  0  0  0  0  0  0  0  0
   -3.7433    0.5040   -0.4305 S   0  0  0  0  0  0  0  0  0  0  0  0
   -1.8826   -1.4604    0.3217 C   0  0  0  0  0  0  0  0  0  0  0  0
   -1.3091    0.9176    0.9063 C   0  0  0  0  0  0  0  0  0  0  0  0
   -3.1717   -1.1595   -0.1651 C   0  0  0  0  0  0  0  0  0  0  0  0
   -2.5533    1.4423    0.5056 C   0  0  0  0  0  0  0  0  0  0  0  0
    0.4870   -0.7194    0.4343 C   0  0  0  0  0  0  0  0  0  0  0  0
    1.0417   -0.0591   -0.8529 C   0  0  1  0  0  0  0  0  0  0  0  0
    2.5828   -0.1962   -0.9065 C   0  0  0  0  0  0  0  0  0  0  0  0
    3.2699    0.4820    0.2086 N   0  0  0  0  0  0  0  0  0  0  0  0
   -0.4460    1.7877    1.6068 C   0  0  0  0  0  0  0  0  0  0  0  0
   -1.5847   -2.8218    0.5226 C   0  0  0  0  0  0  0  0  0  0  0  0
   -2.8956    2.7799    0.7748 C   0  0  0  0  0  0  0  0  0  0  0  0
   -4.0810   -2.1825   -0.4893 C   0  0  0  0  0  0  0  0  0  0  0  0
    0.4401   -0.6997   -2.1116 C   0  0  0  0  0  0  0  0  0  0  0  0
    4.6483    0.0002    0.3253 C   0  0  0  0  0  0  0  0  0  0  0  0
    3.2783    1.9380    0.0284 C   0  0  0  0  0  0  0  0  0  0  0  0
   -2.4929   -3.8390    0.2057 C   0  0  0  0  0  0  0  0  0  0  0  0
   -0.7909    3.1175    1.8753 C   0  0  0  0  0  0  0  0  0  0  0  0
   -2.0178    3.6143    1.4604 C   0  0  0  0  0  0  0  0  0  0  0  0
   -3.7407   -3.5211   -0.3087 C   0  0  0  0  0  0  0  0  0  0  0  0
    1.2638    0.1300   -0.4415 N   0  0  0  0  0  0  0  0  0  0  0  0
    4.1876   -0.6439    0.5104 S   0  0  0  0  0  0  0  0  0  0  0  0
    1.5807   -1.2665   -0.3468 C   0  0  0  0  0  0  0  0  0  0  0  0
    2.1546    1.2021   -0.1290 C   0  0  0  0  0  0  0  0  0  0  0  0
    2.8531   -1.7174    0.0586 C   0  0  0  0  0  0  0  0  0  0  0  0
    3.4771    0.9686    0.3038 C   0  0  0  0  0  0  0  0  0  0  0  0
   -0.0796    0.4658   -0.9822 C   0  0  0  0  0  0  0  0  0  0  0  0
   -1.2002    0.3678    0.0881 C   0  0  2  0  0  0  0  0  0  0  0  0
   -2.5602    0.1879   -0.6346 C   0  0  0  0  0  0  0  0  0  0  0  0
   -3.7332    0.0666    0.2499 N   0  0  0  0  0  0  0  0  0  0  0  0
    1.7824    2.5646   -0.2225 C   0  0  0  0  0  0  0  0  0  0  0  0
    0.6431   -2.2832   -0.6563 C   0  0  0  0  0  0  0  0  0  0  0  0
    4.3479    2.0335    0.6264 C   0  0  0  0  0  0  0  0  0  0  0  0
    3.1511   -3.0946    0.1351 C   0  0  0  0  0  0  0  0  0  0  0  0
   -1.2218    1.5867    1.0127 C   0  0  0  0  0  0  0  0  0  0  0  0
   -4.9635    0.0672   -0.5405 C   0  0  0  0  0  0  0  0  0  0  0  0
   -3.6781   -1.1336    1.0850 C   0  0  0  0  0  0  0  0  0  0  0  0
    0.9453   -3.6501   -0.5892 C   0  0  0  0  0  0  0  0  0  0  0  0
    2.6510    3.6218    0.0905 C   0  0  0  0  0  0  0  0  0  0  0  0
    3.9366    3.3558    0.5238 C   0  0  0  0  0  0  0  0  0  0  0  0
    2.2034   -4.0568   -0.1894 C   0  0  0  0  0  0  0  0  0  0  0  0
    2.7014    0.7766   -0.5733 O   0  0  0  0  0  0  0  0  0  0  0  0
    2.4638   -1.0481    0.6860 O   0  0  0  0  0  0  0  0  0  0  0  0
   -2.7855    0.0380    0.6555 O   0  0  0  0  0  0  0  0  0  0  0  0
   -1.9366   -1.8338   -0.2276 O   0  0  0  0  0  0  0  0  0  0  0  0
    0.3063    0.6369   -1.7021 O   0  0  0  0  0  0  0  0  0  0  0  0
   -0.5369    1.3662    0.7230 O   0  0  0  0  0  0  0  0  0  0  0  0
    1.9766   -0.2618   -0.1125 C   0  0  0  0  0  0  0  0  0  0  0  0
    0.5506   -0.3022   -0.6511 C   0  0  1  0  0  0  0  0  0  0  0  0
   -0.4026   -0.0499    0.5176 C   0  0  2  0  0  0  0  0  0  0  0  0
   -1.7429   -0.7268    0.2444 C   0  0  0  0  0  0  0  0  0  0  0  0
    0.6996   -1.7901    0.3606 H   0  0  0  0  0  0  0  0  0  0  0  0
    1.0507   -0.4119    1.3204 H   0  0  0  0  0  0  0  0  0  0  0  0
    0.7776    1.0029   -0.8841 H   0  0  0  0  0  0  0  0  0  0  0  0
    2.8179   -1.2709   -0.8770 H   0  0  0  0  0  0  0  0  0  0  0  0
    2.9639    0.1772   -1.8690 H   0  0  0  0  0  0  0  0  0  0  0  0
    0.5150    1.4479    1.9759 H   0  0  0  0  0  0  0  0  0  0  0  0
   -0.6526   -3.1297    0.9830 H   0  0  0  0  0  0  0  0  0  0  0  0
   -3.8558    3.1778    0.4462 H   0  0  0  0  0  0  0  0  0  0  0  0
   -5.0690   -1.9352   -0.8733 H   0  0  0  0  0  0  0  0  0  0  0  0
    0.6125   -1.7820   -2.1325 H   0  0  0  0  0  0  0  0  0  0  0  0
   -0.6393   -0.5258   -2.1690 H   0  0  0  0  0  0  0  0  0  0  0  0
    0.8840   -0.2694   -3.0169 H   0  0  0  0  0  0  0  0  0  0  0  0
    5.1573    0.4882    1.1649 H   0  0  0  0  0  0  0  0  0  0  0  0
    4.6572   -1.0750    0.5367 H   0  0  0  0  0  0  0  0  0  0  0  0
    5.2306    0.1823   -0.5857 H   0  0  0  0  0  0  0  0  0  0  0  0
    3.7856    2.4213    0.8713 H   0  0  0  0  0  0  0  0  0  0  0  0
    3.7891    2.2361   -0.8958 H   0  0  0  0  0  0  0  0  0  0  0  0
    2.2621    2.3446    0.0112 H   0  0  0  0  0  0  0  0  0  0  0  0
   -2.2235   -4.8779    0.3762 H   0  0  0  0  0  0  0  0  0  0  0  0
   -0.0995    3.7588    2.4138 H   0  0  0  0  0  0  0  0  0  0  0  0
   -2.2934    4.6459    1.6609 H   0  0  0  0  0  0  0  0  0  0  0  0
   -4.4526   -4.3020   -0.5621 H   0  0  0  0  0  0  0  0  0  0  0  0
   -0.1163    1.4402   -1.4775 H   0  0  0  0  0  0  0  0  0  0  0  0
   -0.2957   -0.1969   -1.8315 H   0  0  0  0  0  0  0  0  0  0  0  0
   -1.0131   -0.5091    0.7154 H   0  0  0  0  0  0  0  0  0  0  0  0
   -2.7024    1.0616   -1.2853 H   0  0  0  0  0  0  0  0  0  0  0  0
   -2.5064   -0.6880   -1.2961 H   0  0  0  0  0  0  0  0  0  0  0  0
    0.7916    2.8704   -0.5375 H   0  0  0  0  0  0  0  0  0  0  0  0
   -0.3696   -2.0582   -0.9657 H   0  0  0  0  0  0  0  0  0  0  0  0
    5.3652    1.8324    0.9590 H   0  0  0  0  0  0  0  0  0  0  0  0
    4.1396   -3.4248    0.4504 H   0  0  0  0  0  0  0  0  0  0  0  0
   -0.2788    1.6850    1.5582 H   0  0  0  0  0  0  0  0  0  0  0  0
   -2.0124    1.5028    1.7640 H   0  0  0  0  0  0  0  0  0  0  0  0
   -1.3961    2.5090    0.4494 H   0  0  0  0  0  0  0  0  0  0  0  0
   -5.0472    0.9943   -1.1205 H   0  0  0  0  0  0  0  0  0  0  0  0
   -5.0105   -0.7820   -1.2345 H   0  0  0  0  0  0  0  0  0  0  0  0
   -5.8405    0.0313    0.1143 H   0  0  0  0  0  0  0  0  0  0  0  0
   -4.5914   -1.2296    1.6817 H   0  0  0  0  0  0  0  0  0  0  0  0
   -3.5590   -2.0484    0.4962 H   0  0  0  0  0  0  0  0  0  0  0  0
   -2.8620   -1.0775    1.8071 H   0  0  0  0  0  0  0  0  0  0  0  0
    0.1899   -4.3888   -0.8449 H   0  0  0  0  0  0  0  0  0  0  0  0
    2.3028    4.6490    0.0103 H   0  0  0  0  0  0  0  0  0  0  0  0
    4.6169    4.1663    0.7689 H   0  0  0  0  0  0  0  0  0  0  0  0
    2.4542   -5.1114   -0.1338 H   0  0  0  0  0  0  0  0  0  0  0  0
    3.5802    0.6761   -0.1513 H   0  0  0  0  0  0  0  0  0  0  0  0
   -3.5747   -0.4958    0.4156 H   0  0  0  0  0  0  0  0  0  0  0  0
    0.4434    1.5152   -1.2913 H   0  0  0  0  0  0  0  0  0  0  0  0
   -1.4336    1.4908    1.0963 H   0  0  0  0  0  0  0  0  0  0  0  0
    0.4231   -1.3007   -1.0841 H   0  0  0  0  0  0  0  0  0  0  0  0
   -0.0325   -0.4807    1.4551 H   0  0  0  0  0  0  0  0  0  0  0  0
 10  9  1  0
 11  4  2  0
 12  3  2  0
 13  6  2  0
 14  5  2  0
 15  8  1  0
 16 10  1  0
 17 10  1  0
 18 12  1  0
 19 11  1  0
 20 19  2  0
 21 18  2  0
  5  2  1  0
 13 20  1  0
 14 21  1  0
  2  6  1  0
  3  1  1  0
  4  1  1  0
  5  3  1  0
  6  4  1  0
  7  1  1  0
  8  7  1  0
  9  8  1  0
 31 30  1  0
 32 25  2  0
 33 24  2  0
 34 27  2  0
 35 26  2  0
 36 29  1  0
 37 31  1  0
 38 31  1  0
 39 33  1  0
 40 32  1  0
 41 40  2  0
 42 39  2  0
 26 23  1  0
 34 41  1  0
 35 42  1  0
 23 27  1  0
 24 22  1  0
 25 22  1  0
 26 24  1  0
 27 25  1  0
 28 22  1  0
 29 28  1  0
 30 29  1  0
 49 44  2  0
 50 47  1  0
 51 48  1  0
 49 43  1  0
 51 52  1  0
 50 51  1  0
 52 45  1  0
 49 50  1  0
 52 46  2  0
  7 53  1  0
  7 54  1  0
  8 55  1  1
  9 56  1  0
  9 57  1  0
 11 58  1  0
 12 59  1  0
 13 60  1  0
 14 61  1  0
 15 62  1  0
 15 63  1  0
 15 64  1  0
 16 65  1  0
 16 66  1  0
 16 67  1  0
 17 68  1  0
 17 69  1  0
 17 70  1  0
 18 71  1  0
 19 72  1  0
 20 73  1  0
 21 74  1  0
 28 75  1  0
 28 76  1  0
 29 77  1  1
 30 78  1  0
 30 79  1  0
 32 80  1  0
 33 81  1  0
 34 82  1  0
 35 83  1  0
 36 84  1  0
 36 85  1  0
 36 86  1  0
 37 87  1  0
 37 88  1  0
 37 89  1  0
 38 90  1  0
 38 91  1  0
 38 92  1  0
 39 93  1  0
 40 94  1  0
 41 95  1  0
 42 96  1  0
 43 97  1  0
 45 98  1  0
 47 99  1  0
 48100  1  0
 50101  1  6
 51102  1  1
M  END
$$$$
