
     RDKit          3D

102105  0  0  0  0  0  0  0  0999 V2000
    0.8640   -0.6409    0.7393 N   0  0  0  0  0  0  0  0  0  0  0  0
    3.7447    0.1762   -0.2126 S   0  0  0  0  0  0  0  0  0  0  0  0
    1.6225   -1.6409    0.0731 C   0  0  0  0  0  0  0  0  0  0  0  0
    1.4123    0.5358    1.3152 C   0  0  0  0  0  0  0  0  0  0  0  0
    2.9278   -1.3979   -0.3959 C   0  0  0  0  0  0  0  0  0  0  0  0
    2.6945    1.0048    0.9643 C   0  0  0  0  0  0  0  0  0  0  0  0
   -0.5833   -0.5803    0.3962 C   0  0  0  0  0  0  0  0  0  0  0  0
   -0.9431    0.0949   -0.9520 C   0  0  1  0  0  0  0  0  0  0  0  0
   -2.1449    1.0544   -0.7592 C   0  0  0  0  0  0  0  0  0  0  0  0
   -3.3575    0.4090   -0.2218 N   0  0  0  0  0  0  0  0  0  0  0  0
    0.7014    1.2757    2.2875 C   0  0  0  0  0  0  0  0  0  0  0  0
    1.1121   -2.9404   -0.1049 C   0  0  0  0  0  0  0  0  0  0  0  0
    3.1920    2.1996    1.5140 C   0  0  0  0  0  0  0  0  0  0  0  0
    3.6398   -2.3906   -1.0860 C   0  0  0  0  0  0  0  0  0  0  0  0
    0.1719    0.8732   -1.6622 C   0  0  0  0  0  0  0  0  0  0  0  0
   -4.0391   -0.3871   -1.2498 C   0  0  0  0  0  0  0  0  0  0  0  0
   -4.2757    1.4204    0.3020 C   0  0  0  0  0  0  0  0  0  0  0  0
    1.8248   -3.9310   -0.7852 C   0  0  0  0  0  0  0  0  0  0  0  0
    1.2115    2.4530    2.8432 C   0  0  0  0  0  0  0  0  0  0  0  0
    2.4465    2.9318    2.4388 C   0  0  0  0  0  0  0  0  0  0  0  0
    3.0769   -3.6466   -1.2984 C   0  0  0  0  0  0  0  0  0  0  0  0
   -1.1663    0.0808   -0.9481 N   0  0  0  0  0  0  0  0  0  0  0  0
   -2.1546   -0.8026    1.8845 S   0  0  0  0  0  0  0  0  0  0  0  0
   -1.7399    1.0958   -0.1391 C   0  0  0  0  0  0  0  0  0  0  0  0
   -1.4277   -1.3066   -0.7775 C   0  0  0  0  0  0  0  0  0  0  0  0
   -2.2487    0.8169    1.1464 C   0  0  0  0  0  0  0  0  0  0  0  0
   -1.9181   -1.8247    0.4344 C   0  0  0  0  0  0  0  0  0  0  0  0
    0.0760    0.4263   -1.6818 C   0  0  0  0  0  0  0  0  0  0  0  0
    1.3569   -0.0709   -0.9657 C   0  0  2  0  0  0  0  0  0  0  0  0
    1.6741    0.7739    0.2865 C   0  0  0  0  0  0  0  0  0  0  0  0
    2.8649    0.2799    1.0035 N   0  0  0  0  0  0  0  0  0  0  0  0
   -1.2540   -2.2159   -1.8420 C   0  0  0  0  0  0  0  0  0  0  0  0
   -1.8845    2.4112   -0.6254 C   0  0  0  0  0  0  0  0  0  0  0  0
   -2.1793   -3.2001    0.5756 C   0  0  0  0  0  0  0  0  0  0  0  0
   -2.8123    1.8405    1.9241 C   0  0  0  0  0  0  0  0  0  0  0  0
    2.5266   -0.0271   -1.9602 C   0  0  0  0  0  0  0  0  0  0  0  0
    2.5161   -0.8316    1.8918 C   0  0  0  0  0  0  0  0  0  0  0  0
    3.4891    1.3556    1.7804 C   0  0  0  0  0  0  0  0  0  0  0  0
   -2.4612    3.4212    0.1466 C   0  0  0  0  0  0  0  0  0  0  0  0
   -1.5219   -3.5815   -1.6992 C   0  0  0  0  0  0  0  0  0  0  0  0
   -1.9790   -4.0741   -0.4853 C   0  0  0  0  0  0  0  0  0  0  0  0
   -2.9184    3.1387    1.4273 C   0  0  0  0  0  0  0  0  0  0  0  0
    2.0718   -0.7929    1.7729 O   0  0  0  0  0  0  0  0  0  0  0  0
    2.0185    1.3235    1.0396 O   0  0  0  0  0  0  0  0  0  0  0  0
   -2.2758    1.2068   -0.3663 O   0  0  0  0  0  0  0  0  0  0  0  0
   -2.0672   -0.1590   -2.1192 O   0  0  0  0  0  0  0  0  0  0  0  0
   -0.2570   -1.5056    0.8633 O   0  0  0  0  0  0  0  0  0  0  0  0
    0.6081   -0.6261   -1.6490 O   0  0  0  0  0  0  0  0  0  0  0  0
    1.4609    0.2424    1.1471 C   0  0  0  0  0  0  0  0  0  0  0  0
    0.0566   -0.1190    0.6823 C   0  0  1  0  0  0  0  0  0  0  0  0
   -0.0844    0.2934   -0.7836 C   0  0  2  0  0  0  0  0  0  0  0  0
   -1.5553    0.3873   -1.1513 C   0  0  0  0  0  0  0  0  0  0  0  0
   -1.1433   -0.1111    1.2083 H   0  0  0  0  0  0  0  0  0  0  0  0
   -1.0309   -1.5774    0.3748 H   0  0  0  0  0  0  0  0  0  0  0  0
   -1.2414   -0.6940   -1.6506 H   0  0  0  0  0  0  0  0  0  0  0  0
   -1.8156    1.8333   -0.0587 H   0  0  0  0  0  0  0  0  0  0  0  0
   -2.3813    1.5648   -1.7016 H   0  0  0  0  0  0  0  0  0  0  0  0
   -0.2565    0.9327    2.6638 H   0  0  0  0  0  0  0  0  0  0  0  0
    0.1561   -3.2255    0.3169 H   0  0  0  0  0  0  0  0  0  0  0  0
    4.1694    2.5731    1.2317 H   0  0  0  0  0  0  0  0  0  0  0  0
    4.6315   -2.1857   -1.4728 H   0  0  0  0  0  0  0  0  0  0  0  0
   -0.1982    1.2924   -2.6063 H   0  0  0  0  0  0  0  0  0  0  0  0
    0.5291    1.7123   -1.0583 H   0  0  0  0  0  0  0  0  0  0  0  0
    1.0194    0.2339   -1.9242 H   0  0  0  0  0  0  0  0  0  0  0  0
   -3.4003   -1.2029   -1.6102 H   0  0  0  0  0  0  0  0  0  0  0  0
   -4.9412   -0.8565   -0.8426 H   0  0  0  0  0  0  0  0  0  0  0  0
   -4.3380    0.2315   -2.1008 H   0  0  0  0  0  0  0  0  0  0  0  0
   -5.1830    0.9543    0.7048 H   0  0  0  0  0  0  0  0  0  0  0  0
   -3.8051    1.9622    1.1372 H   0  0  0  0  0  0  0  0  0  0  0  0
   -4.5675    2.1532   -0.4598 H   0  0  0  0  0  0  0  0  0  0  0  0
    1.3888   -4.9203   -0.8992 H   0  0  0  0  0  0  0  0  0  0  0  0
    0.6283    3.0053    3.5804 H   0  0  0  0  0  0  0  0  0  0  0  0
    2.8450    3.8516    2.8589 H   0  0  0  0  0  0  0  0  0  0  0  0
    3.6356   -4.4001   -1.8374 H   0  0  0  0  0  0  0  0  0  0  0  0
    0.0269    0.0277   -2.7024 H   0  0  0  0  0  0  0  0  0  0  0  0
    0.1878    1.5029   -1.8435 H   0  0  0  0  0  0  0  0  0  0  0  0
    1.2259   -1.1158   -0.6666 H   0  0  0  0  0  0  0  0  0  0  0  0
    0.8177    0.8202    0.9677 H   0  0  0  0  0  0  0  0  0  0  0  0
    1.8555    1.8011   -0.0517 H   0  0  0  0  0  0  0  0  0  0  0  0
   -0.9424   -1.8699   -2.8263 H   0  0  0  0  0  0  0  0  0  0  0  0
   -1.5819    2.6530   -1.6412 H   0  0  0  0  0  0  0  0  0  0  0  0
   -2.5491   -3.5884    1.5190 H   0  0  0  0  0  0  0  0  0  0  0  0
   -3.1758    1.6316    2.9303 H   0  0  0  0  0  0  0  0  0  0  0  0
    3.4289   -0.4815   -1.5316 H   0  0  0  0  0  0  0  0  0  0  0  0
    2.2959   -0.5699   -2.8866 H   0  0  0  0  0  0  0  0  0  0  0  0
    2.7778    1.0062   -2.2202 H   0  0  0  0  0  0  0  0  0  0  0  0
    1.8616   -0.5007    2.7134 H   0  0  0  0  0  0  0  0  0  0  0  0
    2.0013   -1.6418    1.3633 H   0  0  0  0  0  0  0  0  0  0  0  0
    3.4236   -1.2724    2.3306 H   0  0  0  0  0  0  0  0  0  0  0  0
    2.8031    1.8120    2.5049 H   0  0  0  0  0  0  0  0  0  0  0  0
    4.3716    0.9817    2.3132 H   0  0  0  0  0  0  0  0  0  0  0  0
    3.8477    2.1357    1.1072 H   0  0  0  0  0  0  0  0  0  0  0  0
   -2.5634    4.4267   -0.2565 H   0  0  0  0  0  0  0  0  0  0  0  0
   -1.3916   -4.2528   -2.5448 H   0  0  0  0  0  0  0  0  0  0  0  0
   -2.1955   -5.1354   -0.3782 H   0  0  0  0  0  0  0  0  0  0  0  0
   -3.3635    3.9247    2.0316 H   0  0  0  0  0  0  0  0  0  0  0  0
    2.9698   -0.4401    1.9662 H   0  0  0  0  0  0  0  0  0  0  0  0
   -3.1774    1.1710   -0.7454 H   0  0  0  0  0  0  0  0  0  0  0  0
    0.5014   -1.8772    1.3602 H   0  0  0  0  0  0  0  0  0  0  0  0
   -0.0019   -0.8219   -2.3855 H   0  0  0  0  0  0  0  0  0  0  0  0
   -0.6219    0.4353    1.3400 H   0  0  0  0  0  0  0  0  0  0  0  0
    0.3536    1.2821   -0.9714 H   0  0  0  0  0  0  0  0  0  0  0  0
 10  9  1  0
 11  4  2  0
 12  3  2  0
 13  6  2  0
 14  5  2  0
 15  8  1  0
 16 10  1  0
 17 10  1  0
 18 12  1  0
 19 11  1  0
 20 19  2  0
 21 18  2  0
  5  2  1  0
 13 20  1  0
 14 21  1  0
  2  6  1  0
  3  1  1  0
  4  1  1  0
  5  3  1  0
  6  4  1  0
  7  1  1  0
  8  7  1  0
  9  8  1  0
 31 30  1  0
 32 25  2  0
 33 24  2  0
 34 27  2  0
 35 26  2  0
 36 29  1  0
 37 31  1  0
 38 31  1  0
 39 33  1  0
 40 32  1  0
 41 40  2  0
 42 39  2  0
 26 23  1  0
 34 41  1  0
 35 42  1  0
 23 27  1  0
 24 22  1  0
 25 22  1  0
 26 24  1  0
 27 25  1  0
 28 22  1  0
 29 28  1  0
 30 29  1  0
 49 44  2  0
 50 47  1  0
 51 48  1  0
 49 43  1  0
 51 52  1  0
 50 51  1  0
 52 45  1  0
 49 50  1  0
 52 46  2  0
  7 53  1  0
  7 54  1  0
  8 55  1  6
  9 56  1  0
  9 57  1  0
 11 58  1  0
 12 59  1  0
 13 60  1  0
 14 61  1  0
 15 62  1  0
 15 63  1  0
 15 64  1  0
 16 65  1  0
 16 66  1  0
 16 67  1  0
 17 68  1  0
 17 69  1  0
 17 70  1  0
 18 71  1  0
 19 72  1  0
 20 73  1  0
 21 74  1  0
 28 75  1  0
 28 76  1  0
 29 77  1  1
 30 78  1  0
 30 79  1  0
 32 80  1  0
 33 81  1  0
 34 82  1  0
 35 83  1  0
 36 84  1  0
 36 85  1  0
 36 86  1  0
 37 87  1  0
 37 88  1  0
 37 89  1  0
 38 90  1  0
 38 91  1  0
 38 92  1  0
 39 93  1  0
 40 94  1  0
 41 95  1  0
 42 96  1  0
 43 97  1  0
 45 98  1  0
 47 99  1  0
 48100  1  0
 50101  1  1
 51102  1  1
M  END
$$$$
