
     RDKit          3D

102105  0  0  0  0  0  0  0  0999 V2000
   -1.2204    0.3408   -0.4039 N   0  0  0  0  0  0  0  0  0  0  0  0
   -4.3077   -0.0003    0.2385 S   0  0  0  0  0  0  0  0  0  0  0  0
   -1.9387    1.5086   -0.0025 C   0  0  0  0  0  0  0  0  0  0  0  0
   -1.7758   -0.9761   -0.5160 C   0  0  0  0  0  0  0  0  0  0  0  0
   -3.3155    1.4685    0.3040 C   0  0  0  0  0  0  0  0  0  0  0  0
   -3.1313   -1.2392   -0.2335 C   0  0  0  0  0  0  0  0  0  0  0  0
    0.1788    0.5122   -0.8741 C   0  0  0  0  0  0  0  0  0  0  0  0
    1.2376    0.0940    0.1804 C   0  0  1  0  0  0  0  0  0  0  0  0
    2.5948   -0.0873   -0.5442 C   0  0  0  0  0  0  0  0  0  0  0  0
    3.7196   -0.4872    0.3182 N   0  0  0  0  0  0  0  0  0  0  0  0
   -1.0030   -2.0981   -0.9031 C   0  0  0  0  0  0  0  0  0  0  0  0
   -1.3312    2.7804    0.1190 C   0  0  0  0  0  0  0  0  0  0  0  0
   -3.6618   -2.5427   -0.3403 C   0  0  0  0  0  0  0  0  0  0  0  0
   -4.0192    2.6278    0.6973 C   0  0  0  0  0  0  0  0  0  0  0  0
    1.3542    1.0944    1.3328 C   0  0  0  0  0  0  0  0  0  0  0  0
    4.9758   -0.4319   -0.4320 C   0  0  0  0  0  0  0  0  0  0  0  0
    3.5380   -1.8242    0.8851 C   0  0  0  0  0  0  0  0  0  0  0  0
   -2.0337    3.9322    0.5049 C   0  0  0  0  0  0  0  0  0  0  0  0
   -1.5332   -3.3907   -1.0026 C   0  0  0  0  0  0  0  0  0  0  0  0
   -2.8672   -3.6157   -0.7203 C   0  0  0  0  0  0  0  0  0  0  0  0
   -3.3822    3.8556    0.7930 C   0  0  0  0  0  0  0  0  0  0  0  0
   -1.2166    0.0162   -0.5751 N   0  0  0  0  0  0  0  0  0  0  0  0
   -4.2991    0.2995    0.1140 S   0  0  0  0  0  0  0  0  0  0  0  0
   -2.0478   -1.1197   -0.8201 C   0  0  0  0  0  0  0  0  0  0  0  0
   -1.6572    1.2620   -0.0186 C   0  0  0  0  0  0  0  0  0  0  0  0
   -3.4318   -1.1000   -0.5463 C   0  0  0  0  0  0  0  0  0  0  0  0
   -3.0023    1.4866    0.3374 C   0  0  0  0  0  0  0  0  0  0  0  0
    0.1891   -0.0332   -1.0561 C   0  0  0  0  0  0  0  0  0  0  0  0
    1.2145   -0.2986    0.0790 C   0  0  2  0  0  0  0  0  0  0  0  0
    2.6191    0.1053   -0.4372 C   0  0  0  0  0  0  0  0  0  0  0  0
    3.7247   -0.0836    0.5187 N   0  0  0  0  0  0  0  0  0  0  0  0
   -0.7759    2.3444    0.2210 C   0  0  0  0  0  0  0  0  0  0  0  0
   -1.5501   -2.3374   -1.3400 C   0  0  0  0  0  0  0  0  0  0  0  0
   -3.4215    2.7128    0.8963 C   0  0  0  0  0  0  0  0  0  0  0  0
   -4.2464   -2.2249   -0.7944 C   0  0  0  0  0  0  0  0  0  0  0  0
    1.1952   -1.7507    0.5653 C   0  0  0  0  0  0  0  0  0  0  0  0
    3.5998    0.7883    1.6889 C   0  0  0  0  0  0  0  0  0  0  0  0
    5.0112    0.1505   -0.1449 C   0  0  0  0  0  0  0  0  0  0  0  0
   -2.3640   -3.4542   -1.5783 C   0  0  0  0  0  0  0  0  0  0  0  0
   -1.1987    3.5644    0.7675 C   0  0  0  0  0  0  0  0  0  0  0  0
   -2.5247    3.7490    1.1097 C   0  0  0  0  0  0  0  0  0  0  0  0
   -3.7192   -3.3968   -1.3150 C   0  0  0  0  0  0  0  0  0  0  0  0
    2.2223   -0.1842    1.2967 O   0  0  0  0  0  0  0  0  0  0  0  0
    0.4100    1.0417    1.7250 O   0  0  0  0  0  0  0  0  0  0  0  0
   -0.1298    2.0190   -0.9250 O   0  0  0  0  0  0  0  0  0  0  0  0
   -2.2098    1.4039   -0.3597 O   0  0  0  0  0  0  0  0  0  0  0  0
    1.1433   -1.8887   -0.2750 O   0  0  0  0  0  0  0  0  0  0  0  0
   -1.7582   -1.1730   -1.1556 O   0  0  0  0  0  0  0  0  0  0  0  0
    0.9084    0.0974    1.1377 C   0  0  0  0  0  0  0  0  0  0  0  0
    0.2024   -0.9336    0.2537 C   0  0  1  0  0  0  0  0  0  0  0  0
   -0.6030   -0.3402   -0.9082 C   0  0  2  0  0  0  0  0  0  0  0  0
   -1.0753    1.0892   -0.6906 C   0  0  0  0  0  0  0  0  0  0  0  0
    0.3909    1.5219   -1.2402 H   0  0  0  0  0  0  0  0  0  0  0  0
    0.3133   -0.0669   -1.7967 H   0  0  0  0  0  0  0  0  0  0  0  0
    0.9408   -0.8626    0.6208 H   0  0  0  0  0  0  0  0  0  0  0  0
    2.8433    0.8723   -1.0199 H   0  0  0  0  0  0  0  0  0  0  0  0
    2.4772   -0.8177   -1.3566 H   0  0  0  0  0  0  0  0  0  0  0  0
    0.0518   -2.0158   -1.1390 H   0  0  0  0  0  0  0  0  0  0  0  0
   -0.2769    2.9373   -0.0685 H   0  0  0  0  0  0  0  0  0  0  0  0
   -4.7094   -2.7283   -0.1147 H   0  0  0  0  0  0  0  0  0  0  0  0
   -5.0827    2.5750    0.9269 H   0  0  0  0  0  0  0  0  0  0  0  0
    0.4010    1.2052    1.8580 H   0  0  0  0  0  0  0  0  0  0  0  0
    1.6780    2.0783    0.9794 H   0  0  0  0  0  0  0  0  0  0  0  0
    2.0805    0.7534    2.0774 H   0  0  0  0  0  0  0  0  0  0  0  0
    5.8259   -0.6728    0.2173 H   0  0  0  0  0  0  0  0  0  0  0  0
    5.1514    0.5793   -0.8173 H   0  0  0  0  0  0  0  0  0  0  0  0
    4.9796   -1.1277   -1.2779 H   0  0  0  0  0  0  0  0  0  0  0  0
    4.4019   -2.1030    1.4991 H   0  0  0  0  0  0  0  0  0  0  0  0
    2.6753   -1.8553    1.5563 H   0  0  0  0  0  0  0  0  0  0  0  0
    3.4057   -2.5884    0.1107 H   0  0  0  0  0  0  0  0  0  0  0  0
   -1.5121    4.8824    0.5885 H   0  0  0  0  0  0  0  0  0  0  0  0
   -0.8913   -4.2134   -1.3051 H   0  0  0  0  0  0  0  0  0  0  0  0
   -3.2865   -4.6153   -0.7911 H   0  0  0  0  0  0  0  0  0  0  0  0
   -3.9361    4.7411    1.0919 H   0  0  0  0  0  0  0  0  0  0  0  0
    0.3416   -0.7486   -1.8709 H   0  0  0  0  0  0  0  0  0  0  0  0
    0.4255    0.9103   -1.5671 H   0  0  0  0  0  0  0  0  0  0  0  0
    0.9625    0.3272    0.9404 H   0  0  0  0  0  0  0  0  0  0  0  0
    2.5958    1.1539   -0.7651 H   0  0  0  0  0  0  0  0  0  0  0  0
    2.8250   -0.4984   -1.3321 H   0  0  0  0  0  0  0  0  0  0  0  0
    0.2813    2.2891   -0.0080 H   0  0  0  0  0  0  0  0  0  0  0  0
   -0.4990   -2.4864   -1.5583 H   0  0  0  0  0  0  0  0  0  0  0  0
   -4.4654    2.8616    1.1655 H   0  0  0  0  0  0  0  0  0  0  0  0
   -5.3123   -2.1895   -0.5779 H   0  0  0  0  0  0  0  0  0  0  0  0
    1.4649   -2.4463   -0.2371 H   0  0  0  0  0  0  0  0  0  0  0  0
    1.9049   -1.8999    1.3866 H   0  0  0  0  0  0  0  0  0  0  0  0
    0.2081   -2.0185    0.9527 H   0  0  0  0  0  0  0  0  0  0  0  0
    3.5563    1.8475    1.4113 H   0  0  0  0  0  0  0  0  0  0  0  0
    2.7080    0.5435    2.2748 H   0  0  0  0  0  0  0  0  0  0  0  0
    4.4506    0.6474    2.3660 H   0  0  0  0  0  0  0  0  0  0  0  0
    5.1408   -0.5410   -0.9876 H   0  0  0  0  0  0  0  0  0  0  0  0
    5.8426   -0.0359    0.5463 H   0  0  0  0  0  0  0  0  0  0  0  0
    5.0992    1.1761   -0.5227 H   0  0  0  0  0  0  0  0  0  0  0  0
   -1.9280   -4.3655   -1.9756 H   0  0  0  0  0  0  0  0  0  0  0  0
   -0.4789    4.3610    0.9330 H   0  0  0  0  0  0  0  0  0  0  0  0
   -2.8639    4.6882    1.5362 H   0  0  0  0  0  0  0  0  0  0  0  0
   -4.3576   -4.2555   -1.4994 H   0  0  0  0  0  0  0  0  0  0  0  0
    2.5611    0.5257    1.8902 H   0  0  0  0  0  0  0  0  0  0  0  0
   -0.5787    2.8683   -0.7248 H   0  0  0  0  0  0  0  0  0  0  0  0
    1.8944   -1.9019    0.3534 H   0  0  0  0  0  0  0  0  0  0  0  0
   -2.5135   -0.7488   -0.7044 H   0  0  0  0  0  0  0  0  0  0  0  0
   -0.4524   -1.5099    0.9234 H   0  0  0  0  0  0  0  0  0  0  0  0
   -0.0212   -0.3651   -1.8369 H   0  0  0  0  0  0  0  0  0  0  0  0
 10  9  1  0
 11  4  2  0
 12  3  2  0
 13  6  2  0
 14  5  2  0
 15  8  1  0
 16 10  1  0
 17 10  1  0
 18 12  1  0
 19 11  1  0
 20 19  2  0
 21 18  2  0
  5  2  1  0
 13 20  1  0
 14 21  1  0
  2  6  1  0
  3  1  1  0
  4  1  1  0
  5  3  1  0
  6  4  1  0
  7  1  1  0
  8  7  1  0
  9  8  1  0
 31 30  1  0
 32 25  2  0
 33 24  2  0
 34 27  2  0
 35 26  2  0
 36 29  1  0
 37 31  1  0
 38 31  1  0
 39 33  1  0
 40 32  1  0
 41 40  2  0
 42 39  2  0
 26 23  1  0
 34 41  1  0
 35 42  1  0
 23 27  1  0
 24 22  1  0
 25 22  1  0
 26 24  1  0
 27 25  1  0
 28 22  1  0
 29 28  1  0
 30 29  1  0
 49 44  2  0
 50 47  1  0
 51 48  1  0
 49 43  1  0
 51 52  1  0
 50 51  1  0
 52 45  1  0
 49 50  1  0
 52 46  2  0
  7 53  1  0
  7 54  1  0
  8 55  1  1
  9 56  1  0
  9 57  1  0
 11 58  1  0
 12 59  1  0
 13 60  1  0
 14 61  1  0
 15 62  1  0
 15 63  1  0
 15 64  1  0
 16 65  1  0
 16 66  1  0
 16 67  1  0
 17 68  1  0
 17 69  1  0
 17 70  1  0
 18 71  1  0
 19 72  1  0
 20 73  1  0
 21 74  1  0
 28 75  1  0
 28 76  1  0
 29 77  1  1
 30 78  1  0
 30 79  1  0
 32 80  1  0
 33 81  1  0
 34 82  1  0
 35 83  1  0
 36 84  1  0
 36 85  1  0
 36 86  1  0
 37 87  1  0
 37 88  1  0
 37 89  1  0
 38 90  1  0
 38 91  1  0
 38 92  1  0
 39 93  1  0
 40 94  1  0
 41 95  1  0
 42 96  1  0
 43 97  1  0
 45 98  1  0
 47 99  1  0
 48100  1  0
 50101  1  1
 51102  1  6
M  END
$$$$
