
     RDKit          3D

102105  0  0  0  0  0  0  0  0999 V2000
   -1.2833   -0.0364    0.7907 N   0  0  0  0  0  0  0  0  0  0  0  0
   -2.1403    0.1721   -2.2203 S   0  0  0  0  0  0  0  0  0  0  0  0
   -1.7663   -1.2283    0.1851 C   0  0  0  0  0  0  0  0  0  0  0  0
   -1.5319    1.2702    0.2932 C   0  0  0  0  0  0  0  0  0  0  0  0
   -2.2110   -1.2524   -1.1507 C   0  0  0  0  0  0  0  0  0  0  0  0
   -1.9372    1.4938   -1.0378 C   0  0  0  0  0  0  0  0  0  0  0  0
   -0.0970   -0.1946    1.6706 C   0  0  0  0  0  0  0  0  0  0  0  0
    1.1738   -0.6500    0.9078 C   0  0  1  0  0  0  0  0  0  0  0  0
    1.7457    0.5015    0.0467 C   0  0  0  0  0  0  0  0  0  0  0  0
    3.0325    0.1888   -0.6128 N   0  0  0  0  0  0  0  0  0  0  0  0
   -1.4348    2.3984    1.1357 C   0  0  0  0  0  0  0  0  0  0  0  0
   -1.8651   -2.4254    0.9251 C   0  0  0  0  0  0  0  0  0  0  0  0
   -2.1660    2.7986   -1.5079 C   0  0  0  0  0  0  0  0  0  0  0  0
   -2.6920   -2.4446   -1.7188 C   0  0  0  0  0  0  0  0  0  0  0  0
    2.2068   -1.1389    1.9317 C   0  0  0  0  0  0  0  0  0  0  0  0
    3.6302    1.4212   -1.1343 C   0  0  0  0  0  0  0  0  0  0  0  0
    2.8481   -0.7713   -1.7055 C   0  0  0  0  0  0  0  0  0  0  0  0
   -2.3598   -3.6029    0.3600 C   0  0  0  0  0  0  0  0  0  0  0  0
   -1.6546    3.6966    0.6578 C   0  0  0  0  0  0  0  0  0  0  0  0
   -2.0115    3.8960   -0.6670 C   0  0  0  0  0  0  0  0  0  0  0  0
   -2.7653   -3.6176   -0.9698 C   0  0  0  0  0  0  0  0  0  0  0  0
   -1.1430    0.2564    0.4622 N   0  0  0  0  0  0  0  0  0  0  0  0
   -3.5502    0.2605   -1.5570 S   0  0  0  0  0  0  0  0  0  0  0  0
   -1.8973   -0.9476    0.3632 C   0  0  0  0  0  0  0  0  0  0  0  0
   -1.6032    1.5286    0.0362 C   0  0  0  0  0  0  0  0  0  0  0  0
   -3.0170   -1.0597   -0.4848 C   0  0  0  0  0  0  0  0  0  0  0  0
   -2.6913    1.6590   -0.8494 C   0  0  0  0  0  0  0  0  0  0  0  0
    0.3210    0.0998    0.6666 C   0  0  0  0  0  0  0  0  0  0  0  0
    1.0180   -0.5847   -0.5340 C   0  0  2  0  0  0  0  0  0  0  0  0
    2.3508   -1.2317   -0.0889 C   0  0  0  0  0  0  0  0  0  0  0  0
    3.2663   -0.2833    0.5684 N   0  0  0  0  0  0  0  0  0  0  0  0
   -1.0368    2.7225    0.5320 C   0  0  0  0  0  0  0  0  0  0  0  0
   -1.5735   -2.0760    1.1460 C   0  0  0  0  0  0  0  0  0  0  0  0
   -3.1403    2.9279   -1.2531 C   0  0  0  0  0  0  0  0  0  0  0  0
   -3.7434   -2.2628   -0.5596 C   0  0  0  0  0  0  0  0  0  0  0  0
    1.1991    0.3901   -1.7008 C   0  0  0  0  0  0  0  0  0  0  0  0
    3.8265   -0.8543    1.7978 C   0  0  0  0  0  0  0  0  0  0  0  0
    4.3556    0.1181   -0.3275 C   0  0  0  0  0  0  0  0  0  0  0  0
   -2.2950   -3.2704    1.0659 C   0  0  0  0  0  0  0  0  0  0  0  0
   -1.4903    3.9830    0.1261 C   0  0  0  0  0  0  0  0  0  0  0  0
   -2.5386    4.0882   -0.7717 C   0  0  0  0  0  0  0  0  0  0  0  0
   -3.3814   -3.3649    0.2127 C   0  0  0  0  0  0  0  0  0  0  0  0
   -1.6366    0.8666    1.3285 O   0  0  0  0  0  0  0  0  0  0  0  0
   -2.0979   -1.3134    1.5047 O   0  0  0  0  0  0  0  0  0  0  0  0
    1.7426    2.2063   -0.3895 O   0  0  0  0  0  0  0  0  0  0  0  0
    0.8031    1.1632   -2.1269 O   0  0  0  0  0  0  0  0  0  0  0  0
   -0.3620   -1.9927   -0.5475 O   0  0  0  0  0  0  0  0  0  0  0  0
    1.8757   -0.9462   -0.0219 O   0  0  0  0  0  0  0  0  0  0  0  0
   -1.4735   -0.4176    0.9584 C   0  0  0  0  0  0  0  0  0  0  0  0
   -0.5401   -0.5978   -0.2306 C   0  0  1  0  0  0  0  0  0  0  0  0
    0.8335    0.0340    0.0566 C   0  0  2  0  0  0  0  0  0  0  0  0
    1.0916    1.1535   -0.9401 C   0  0  0  0  0  0  0  0  0  0  0  0
   -0.3218   -0.9131    2.4670 H   0  0  0  0  0  0  0  0  0  0  0  0
    0.1404    0.7199    2.2243 H   0  0  0  0  0  0  0  0  0  0  0  0
    0.9241   -1.4975    0.2592 H   0  0  0  0  0  0  0  0  0  0  0  0
    1.8930    1.3622    0.7160 H   0  0  0  0  0  0  0  0  0  0  0  0
    1.0172    0.8119   -0.7133 H   0  0  0  0  0  0  0  0  0  0  0  0
   -1.2223    2.2809    2.1939 H   0  0  0  0  0  0  0  0  0  0  0  0
   -1.5924   -2.4561    1.9752 H   0  0  0  0  0  0  0  0  0  0  0  0
   -2.4582    2.9616   -2.5451 H   0  0  0  0  0  0  0  0  0  0  0  0
   -3.0221   -2.4640   -2.7543 H   0  0  0  0  0  0  0  0  0  0  0  0
    1.7892   -1.9359    2.5548 H   0  0  0  0  0  0  0  0  0  0  0  0
    2.5290   -0.3245    2.5862 H   0  0  0  0  0  0  0  0  0  0  0  0
    3.0876   -1.5613    1.4429 H   0  0  0  0  0  0  0  0  0  0  0  0
    4.6028    1.2212   -1.5936 H   0  0  0  0  0  0  0  0  0  0  0  0
    3.8141    2.1300   -0.3223 H   0  0  0  0  0  0  0  0  0  0  0  0
    2.9940    1.9153   -1.8760 H   0  0  0  0  0  0  0  0  0  0  0  0
    2.4517   -1.7196   -1.3361 H   0  0  0  0  0  0  0  0  0  0  0  0
    3.8111   -1.0124   -2.1746 H   0  0  0  0  0  0  0  0  0  0  0  0
    2.1754   -0.3927   -2.4830 H   0  0  0  0  0  0  0  0  0  0  0  0
   -2.4280   -4.5065    0.9599 H   0  0  0  0  0  0  0  0  0  0  0  0
   -1.5608    4.5413    1.3337 H   0  0  0  0  0  0  0  0  0  0  0  0
   -2.2014    4.8981   -1.0383 H   0  0  0  0  0  0  0  0  0  0  0  0
   -3.1435   -4.5336   -1.4162 H   0  0  0  0  0  0  0  0  0  0  0  0
    0.8264    1.0506    0.8574 H   0  0  0  0  0  0  0  0  0  0  0  0
    0.4984   -0.4625    1.5886 H   0  0  0  0  0  0  0  0  0  0  0  0
    0.3963   -1.4088   -0.9088 H   0  0  0  0  0  0  0  0  0  0  0  0
    2.8302   -1.7243   -0.9439 H   0  0  0  0  0  0  0  0  0  0  0  0
    2.0948   -2.0498    0.5982 H   0  0  0  0  0  0  0  0  0  0  0  0
   -0.2550    2.6965    1.2866 H   0  0  0  0  0  0  0  0  0  0  0  0
   -0.7617   -2.0449    1.8663 H   0  0  0  0  0  0  0  0  0  0  0  0
   -3.9710    3.0206   -1.9482 H   0  0  0  0  0  0  0  0  0  0  0  0
   -4.6012   -2.3436   -1.2228 H   0  0  0  0  0  0  0  0  0  0  0  0
    0.2309    0.7014   -2.1035 H   0  0  0  0  0  0  0  0  0  0  0  0
    1.7429    1.2911   -1.3998 H   0  0  0  0  0  0  0  0  0  0  0  0
    1.7539   -0.0849   -2.5162 H   0  0  0  0  0  0  0  0  0  0  0  0
    3.0291   -1.0743    2.5161 H   0  0  0  0  0  0  0  0  0  0  0  0
    4.4971   -0.1406    2.2892 H   0  0  0  0  0  0  0  0  0  0  0  0
    4.3860   -1.7801    1.6066 H   0  0  0  0  0  0  0  0  0  0  0  0
    4.9687    0.8963    0.1447 H   0  0  0  0  0  0  0  0  0  0  0  0
    3.9695    0.5449   -1.2584 H   0  0  0  0  0  0  0  0  0  0  0  0
    5.0134   -0.7254   -0.5802 H   0  0  0  0  0  0  0  0  0  0  0  0
   -2.0130   -4.1179    1.6888 H   0  0  0  0  0  0  0  0  0  0  0  0
   -1.0266    4.8805    0.5322 H   0  0  0  0  0  0  0  0  0  0  0  0
   -2.8956    5.0630   -1.0915 H   0  0  0  0  0  0  0  0  0  0  0  0
   -3.9496   -4.2866    0.1481 H   0  0  0  0  0  0  0  0  0  0  0  0
   -2.2774    0.8349    2.0736 H   0  0  0  0  0  0  0  0  0  0  0  0
    1.9110    2.8058   -1.1466 H   0  0  0  0  0  0  0  0  0  0  0  0
   -1.1993   -2.4439   -0.3013 H   0  0  0  0  0  0  0  0  0  0  0  0
    1.5063   -1.6717   -0.5709 H   0  0  0  0  0  0  0  0  0  0  0  0
   -1.0543   -0.1506   -1.0867 H   0  0  0  0  0  0  0  0  0  0  0  0
    0.8772    0.4696    1.0634 H   0  0  0  0  0  0  0  0  0  0  0  0
 10  9  1  0
 11  4  2  0
 12  3  2  0
 13  6  2  0
 14  5  2  0
 15  8  1  0
 16 10  1  0
 17 10  1  0
 18 12  1  0
 19 11  1  0
 20 19  2  0
 21 18  2  0
  5  2  1  0
 13 20  1  0
 14 21  1  0
  2  6  1  0
  3  1  1  0
  4  1  1  0
  5  3  1  0
  6  4  1  0
  7  1  1  0
  8  7  1  0
  9  8  1  0
 31 30  1  0
 32 25  2  0
 33 24  2  0
 34 27  2  0
 35 26  2  0
 36 29  1  0
 37 31  1  0
 38 31  1  0
 39 33  1  0
 40 32  1  0
 41 40  2  0
 42 39  2  0
 26 23  1  0
 34 41  1  0
 35 42  1  0
 23 27  1  0
 24 22  1  0
 25 22  1  0
 26 24  1  0
 27 25  1  0
 28 22  1  0
 29 28  1  0
 30 29  1  0
 49 44  2  0
 50 47  1  0
 51 48  1  0
 49 43  1  0
 51 52  1  0
 50 51  1  0
 52 45  1  0
 49 50  1  0
 52 46  2  0
  7 53  1  0
  7 54  1  0
  8 55  1  6
  9 56  1  0
  9 57  1  0
 11 58  1  0
 12 59  1  0
 13 60  1  0
 14 61  1  0
 15 62  1  0
 15 63  1  0
 15 64  1  0
 16 65  1  0
 16 66  1  0
 16 67  1  0
 17 68  1  0
 17 69  1  0
 17 70  1  0
 18 71  1  0
 19 72  1  0
 20 73  1  0
 21 74  1  0
 28 75  1  0
 28 76  1  0
 29 77  1  6
 30 78  1  0
 30 79  1  0
 32 80  1  0
 33 81  1  0
 34 82  1  0
 35 83  1  0
 36 84  1  0
 36 85  1  0
 36 86  1  0
 37 87  1  0
 37 88  1  0
 37 89  1  0
 38 90  1  0
 38 91  1  0
 38 92  1  0
 39 93  1  0
 40 94  1  0
 41 95  1  0
 42 96  1  0
 43 97  1  0
 45 98  1  0
 47 99  1  0
 48100  1  0
 50101  1  6
 51102  1  1
M  END
$$$$
