
     RDKit          3D

 27 29  0  0  0  0  0  0  0  0999 V2000
   -0.0256    1.1737    0.0972 N   0  0  0  0  0  0  0  0  0  0  0  0
   -1.1724    0.4723    0.0350 C   0  0  0  0  0  0  0  0  0  0  0  0
    1.1507    0.5220    0.0473 C   0  0  0  0  0  0  0  0  0  0  0  0
    1.2315   -0.8768   -0.0709 C   0  0  0  0  0  0  0  0  0  0  0  0
   -1.1920   -0.9291   -0.0786 C   0  0  0  0  0  0  0  0  0  0  0  0
   -2.3886    1.1438    0.0881 C   0  0  0  0  0  0  0  0  0  0  0  0
    2.3364    1.2452    0.1097 C   0  0  0  0  0  0  0  0  0  0  0  0
    0.0349   -1.5990   -0.1324 C   0  0  0  0  0  0  0  0  0  0  0  0
    2.4832   -1.5088   -0.1366 C   0  0  0  0  0  0  0  0  0  0  0  0
   -2.4149   -1.6170   -0.1223 C   0  0  0  0  0  0  0  0  0  0  0  0
   -3.6158    0.4789   -0.0138 C   0  0  0  0  0  0  0  0  0  0  0  0
    3.5917    0.6265    0.1053 C   0  0  0  0  0  0  0  0  0  0  0  0
   -4.8163    1.1784    0.1599 N   0  0  0  0  0  0  0  0  0  0  0  0
    4.7600    1.3964    0.0533 N   0  0  0  0  0  0  0  0  0  0  0  0
   -3.6177   -0.9130   -0.0684 C   0  0  0  0  0  0  0  0  0  0  0  0
    3.6541   -0.7541   -0.0696 C   0  0  0  0  0  0  0  0  0  0  0  0
   -2.3683    2.2241    0.2073 H   0  0  0  0  0  0  0  0  0  0  0  0
    2.2689    2.3285    0.1697 H   0  0  0  0  0  0  0  0  0  0  0  0
    0.0586   -2.6822   -0.2221 H   0  0  0  0  0  0  0  0  0  0  0  0
    2.5545   -2.5873   -0.2535 H   0  0  0  0  0  0  0  0  0  0  0  0
   -2.4390   -2.7021   -0.1845 H   0  0  0  0  0  0  0  0  0  0  0  0
   -4.7635    2.1573   -0.1064 H   0  0  0  0  0  0  0  0  0  0  0  0
   -5.6277    0.7145   -0.2363 H   0  0  0  0  0  0  0  0  0  0  0  0
    4.6658    2.3151    0.4767 H   0  0  0  0  0  0  0  0  0  0  0  0
    5.5922    0.9094    0.3708 H   0  0  0  0  0  0  0  0  0  0  0  0
   -4.5556   -1.4620   -0.0702 H   0  0  0  0  0  0  0  0  0  0  0  0
    4.6149   -1.2546   -0.1548 H   0  0  0  0  0  0  0  0  0  0  0  0
  2  1  2  0
  3  1  1  0
  4  3  2  0
  5  2  1  0
  6  2  1  0
  7  3  1  0
  8  4  1  0
  9  4  1  0
 10  5  1  0
 11  6  2  0
 12  7  2  0
 13 11  1  0
 14 12  1  0
 15 11  1  0
 16 12  1  0
  5  8  2  0
  9 16  2  0
 10 15  2  0
  6 17  1  0
  7 18  1  0
  8 19  1  0
  9 20  1  0
 10 21  1  0
 13 22  1  0
 13 23  1  0
 14 24  1  0
 14 25  1  0
 15 26  1  0
 16 27  1  0
M  END
$$$$
