
     RDKit          3D

 27 29  0  0  0  0  0  0  0  0999 V2000
    0.0034    1.1780    0.1575 N   0  0  0  0  0  0  0  0  0  0  0  0
    1.1616    0.4955    0.0969 C   0  0  0  0  0  0  0  0  0  0  0  0
   -1.1588    0.5024    0.2214 C   0  0  0  0  0  0  0  0  0  0  0  0
   -1.2130   -0.9027    0.2249 C   0  0  0  0  0  0  0  0  0  0  0  0
    1.2078   -0.9099    0.1002 C   0  0  0  0  0  0  0  0  0  0  0  0
    2.3631    1.1918    0.0325 C   0  0  0  0  0  0  0  0  0  0  0  0
   -2.3563    1.2059    0.2823 C   0  0  0  0  0  0  0  0  0  0  0  0
   -0.0046   -1.6048    0.1643 C   0  0  0  0  0  0  0  0  0  0  0  0
   -2.4516   -1.5613    0.2752 C   0  0  0  0  0  0  0  0  0  0  0  0
    2.4427   -1.5758    0.0531 C   0  0  0  0  0  0  0  0  0  0  0  0
    3.5990    0.5439   -0.0747 C   0  0  0  0  0  0  0  0  0  0  0  0
   -3.5958    0.5655    0.3926 C   0  0  0  0  0  0  0  0  0  0  0  0
    4.7901    1.2780   -0.0206 N   0  0  0  0  0  0  0  0  0  0  0  0
   -4.7827    1.3062    0.3349 N   0  0  0  0  0  0  0  0  0  0  0  0
    3.6302   -0.8474   -0.0126 C   0  0  0  0  0  0  0  0  0  0  0  0
   -3.6350   -0.8258    0.3373 C   0  0  0  0  0  0  0  0  0  0  0  0
    2.3239    2.2778    0.0616 H   0  0  0  0  0  0  0  0  0  0  0  0
   -2.3109    2.2915    0.2479 H   0  0  0  0  0  0  0  0  0  0  0  0
   -0.0077   -2.6920    0.1669 H   0  0  0  0  0  0  0  0  0  0  0  0
   -2.5037   -2.6470    0.2528 H   0  0  0  0  0  0  0  0  0  0  0  0
    2.4886   -2.6617    0.0808 H   0  0  0  0  0  0  0  0  0  0  0  0
    5.5918    0.7976   -0.4167 H   0  0  0  0  0  0  0  0  0  0  0  0
    4.7020    2.2297   -0.3649 H   0  0  0  0  0  0  0  0  0  0  0  0
   -5.5871    0.8323    0.7334 H   0  0  0  0  0  0  0  0  0  0  0  0
   -4.6892    2.2590    0.6746 H   0  0  0  0  0  0  0  0  0  0  0  0
    4.5792   -1.3768   -0.0153 H   0  0  0  0  0  0  0  0  0  0  0  0
   -4.5870   -1.3498    0.3427 H   0  0  0  0  0  0  0  0  0  0  0  0
  2  1  2  0
  3  1  1  0
  4  3  2  0
  5  2  1  0
  6  2  1  0
  7  3  1  0
  8  4  1  0
  9  4  1  0
 10  5  1  0
 11  6  2  0
 12  7  2  0
 13 11  1  0
 14 12  1  0
 15 11  1  0
 16 12  1  0
  5  8  2  0
  9 16  2  0
 10 15  2  0
  6 17  1  0
  7 18  1  0
  8 19  1  0
  9 20  1  0
 10 21  1  0
 13 22  1  0
 13 23  1  0
 14 24  1  0
 14 25  1  0
 15 26  1  0
 16 27  1  0
M  END
$$$$
