
     RDKit          3D

 27 29  0  0  0  0  0  0  0  0999 V2000
    0.0983    0.7558    1.0600 N   0  0  0  0  0  0  0  0  0  0  0  0
    1.1991    0.2350    0.4873 C   0  0  0  0  0  0  0  0  0  0  0  0
   -1.1158    0.4053    0.5973 C   0  0  0  0  0  0  0  0  0  0  0  0
   -1.2831   -0.4947   -0.4701 C   0  0  0  0  0  0  0  0  0  0  0  0
    1.1319   -0.6684   -0.5881 C   0  0  0  0  0  0  0  0  0  0  0  0
    2.4541    0.5973    0.9630 C   0  0  0  0  0  0  0  0  0  0  0  0
   -2.2540    0.9412    1.1889 C   0  0  0  0  0  0  0  0  0  0  0  0
   -0.1339   -1.0297   -1.0617 C   0  0  0  0  0  0  0  0  0  0  0  0
   -2.5717   -0.8423   -0.9051 C   0  0  0  0  0  0  0  0  0  0  0  0
    2.3099   -1.1706   -1.1630 C   0  0  0  0  0  0  0  0  0  0  0  0
    3.6363    0.0607    0.4404 C   0  0  0  0  0  0  0  0  0  0  0  0
   -3.5437    0.6512    0.7292 C   0  0  0  0  0  0  0  0  0  0  0  0
    4.8806    0.5382    0.8695 N   0  0  0  0  0  0  0  0  0  0  0  0
   -4.6650    1.1199    1.4246 N   0  0  0  0  0  0  0  0  0  0  0  0
    3.5536   -0.7882   -0.6609 C   0  0  0  0  0  0  0  0  0  0  0  0
   -3.6932   -0.2854   -0.2910 C   0  0  0  0  0  0  0  0  0  0  0  0
    2.5016    1.3197    1.7740 H   0  0  0  0  0  0  0  0  0  0  0  0
   -2.1204    1.6122    2.0337 H   0  0  0  0  0  0  0  0  0  0  0  0
   -0.2246   -1.7273   -1.8906 H   0  0  0  0  0  0  0  0  0  0  0  0
   -2.7104   -1.5566   -1.7129 H   0  0  0  0  0  0  0  0  0  0  0  0
    2.2674   -1.8497   -2.0110 H   0  0  0  0  0  0  0  0  0  0  0  0
    5.6518   -0.0983    0.6950 H   0  0  0  0  0  0  0  0  0  0  0  0
    4.8792    0.8901    1.8225 H   0  0  0  0  0  0  0  0  0  0  0  0
   -4.5047    1.9901    1.9237 H   0  0  0  0  0  0  0  0  0  0  0  0
   -5.5158    1.1441    0.8715 H   0  0  0  0  0  0  0  0  0  0  0  0
    4.4566   -1.1600   -1.1377 H   0  0  0  0  0  0  0  0  0  0  0  0
   -4.6841   -0.5895   -0.6174 H   0  0  0  0  0  0  0  0  0  0  0  0
  2  1  2  0
  3  1  1  0
  4  3  2  0
  5  2  1  0
  6  2  1  0
  7  3  1  0
  8  4  1  0
  9  4  1  0
 10  5  1  0
 11  6  2  0
 12  7  2  0
 13 11  1  0
 14 12  1  0
 15 11  1  0
 16 12  1  0
  5  8  2  0
  9 16  2  0
 10 15  2  0
  6 17  1  0
  7 18  1  0
  8 19  1  0
  9 20  1  0
 10 21  1  0
 13 22  1  0
 13 23  1  0
 14 24  1  0
 14 25  1  0
 15 26  1  0
 16 27  1  0
M  END
$$$$
