
     RDKit          3D

 27 29  0  0  0  0  0  0  0  0999 V2000
   -0.0159    1.1052   -0.3355 N   0  0  0  0  0  0  0  0  0  0  0  0
    1.1513    0.5148   -0.0194 C   0  0  0  0  0  0  0  0  0  0  0  0
   -1.1648    0.4215   -0.1821 C   0  0  0  0  0  0  0  0  0  0  0  0
   -1.1960   -0.8981    0.3027 C   0  0  0  0  0  0  0  0  0  0  0  0
    1.2205   -0.8025    0.4676 C   0  0  0  0  0  0  0  0  0  0  0  0
    2.3392    1.2192   -0.1789 C   0  0  0  0  0  0  0  0  0  0  0  0
   -2.3717    1.0305   -0.5065 C   0  0  0  0  0  0  0  0  0  0  0  0
    0.0217   -1.5057    0.6267 C   0  0  0  0  0  0  0  0  0  0  0  0
   -2.4220   -1.5632    0.4615 C   0  0  0  0  0  0  0  0  0  0  0  0
    2.4644   -1.3802    0.7667 C   0  0  0  0  0  0  0  0  0  0  0  0
    3.5823    0.6792    0.1704 C   0  0  0  0  0  0  0  0  0  0  0  0
   -3.5973    0.3617   -0.4104 C   0  0  0  0  0  0  0  0  0  0  0  0
    4.7622    1.3776   -0.1135 N   0  0  0  0  0  0  0  0  0  0  0  0
   -4.7972    1.0470   -0.6364 N   0  0  0  0  0  0  0  0  0  0  0  0
    3.6378   -0.6457    0.5970 C   0  0  0  0  0  0  0  0  0  0  0  0
   -3.6151   -0.9242    0.1251 C   0  0  0  0  0  0  0  0  0  0  0  0
    2.2830    2.2260   -0.5849 H   0  0  0  0  0  0  0  0  0  0  0  0
   -2.3449    2.0611   -0.8513 H   0  0  0  0  0  0  0  0  0  0  0  0
    0.0364   -2.5257    1.0025 H   0  0  0  0  0  0  0  0  0  0  0  0
   -2.4569   -2.5743    0.8595 H   0  0  0  0  0  0  0  0  0  0  0  0
    2.5288   -2.4065    1.1196 H   0  0  0  0  0  0  0  0  0  0  0  0
    4.6497    2.3872   -0.1237 H   0  0  0  0  0  0  0  0  0  0  0  0
    5.5611    1.0845    0.4400 H   0  0  0  0  0  0  0  0  0  0  0  0
   -5.5831    0.4447   -0.8599 H   0  0  0  0  0  0  0  0  0  0  0  0
   -4.7105    1.8243   -1.2847 H   0  0  0  0  0  0  0  0  0  0  0  0
    4.5949   -1.1178    0.8017 H   0  0  0  0  0  0  0  0  0  0  0  0
   -4.5580   -1.4404    0.2846 H   0  0  0  0  0  0  0  0  0  0  0  0
  2  1  2  0
  3  1  1  0
  4  3  2  0
  5  2  1  0
  6  2  1  0
  7  3  1  0
  8  4  1  0
  9  4  1  0
 10  5  1  0
 11  6  2  0
 12  7  2  0
 13 11  1  0
 14 12  1  0
 15 11  1  0
 16 12  1  0
  5  8  2  0
  9 16  2  0
 10 15  2  0
  6 17  1  0
  7 18  1  0
  8 19  1  0
  9 20  1  0
 10 21  1  0
 13 22  1  0
 13 23  1  0
 14 24  1  0
 14 25  1  0
 15 26  1  0
 16 27  1  0
M  END
$$$$
