
     RDKit          3D

 27 29  0  0  0  0  0  0  0  0999 V2000
   -0.0177    1.0802    0.4696 N   0  0  0  0  0  0  0  0  0  0  0  0
    1.1536    0.4582    0.2411 C   0  0  0  0  0  0  0  0  0  0  0  0
   -1.1686    0.4569    0.1568 C   0  0  0  0  0  0  0  0  0  0  0  0
   -1.1976   -0.8307   -0.4077 C   0  0  0  0  0  0  0  0  0  0  0  0
    1.2247   -0.8314   -0.3149 C   0  0  0  0  0  0  0  0  0  0  0  0
    2.3434    1.1000    0.5653 C   0  0  0  0  0  0  0  0  0  0  0  0
   -2.3794    1.0987    0.3906 C   0  0  0  0  0  0  0  0  0  0  0  0
    0.0241   -1.4716   -0.6398 C   0  0  0  0  0  0  0  0  0  0  0  0
   -2.4238   -1.4317   -0.7327 C   0  0  0  0  0  0  0  0  0  0  0  0
    2.4708   -1.4450   -0.5179 C   0  0  0  0  0  0  0  0  0  0  0  0
    3.5954    0.5269    0.3147 C   0  0  0  0  0  0  0  0  0  0  0  0
   -3.6120    0.4904    0.1275 C   0  0  0  0  0  0  0  0  0  0  0  0
    4.7639    1.1560    0.7612 N   0  0  0  0  0  0  0  0  0  0  0  0
   -4.8027    1.2136    0.2690 N   0  0  0  0  0  0  0  0  0  0  0  0
    3.6462   -0.7730   -0.1833 C   0  0  0  0  0  0  0  0  0  0  0  0
   -3.6211   -0.7612   -0.4837 C   0  0  0  0  0  0  0  0  0  0  0  0
    2.2822    2.0838    1.0235 H   0  0  0  0  0  0  0  0  0  0  0  0
   -2.3507    2.1061    0.7981 H   0  0  0  0  0  0  0  0  0  0  0  0
    0.0404   -2.4685   -1.0732 H   0  0  0  0  0  0  0  0  0  0  0  0
   -2.4542   -2.4163   -1.1927 H   0  0  0  0  0  0  0  0  0  0  0  0
    2.5338   -2.4517   -0.9237 H   0  0  0  0  0  0  0  0  0  0  0  0
    5.6054    0.8601    0.2767 H   0  0  0  0  0  0  0  0  0  0  0  0
    4.6889    2.1674    0.8208 H   0  0  0  0  0  0  0  0  0  0  0  0
   -4.7561    1.9487    0.9687 H   0  0  0  0  0  0  0  0  0  0  0  0
   -5.6299    0.6345    0.3730 H   0  0  0  0  0  0  0  0  0  0  0  0
    4.6013   -1.2742   -0.3159 H   0  0  0  0  0  0  0  0  0  0  0  0
   -4.5605   -1.2260   -0.7711 H   0  0  0  0  0  0  0  0  0  0  0  0
  2  1  2  0
  3  1  1  0
  4  3  2  0
  5  2  1  0
  6  2  1  0
  7  3  1  0
  8  4  1  0
  9  4  1  0
 10  5  1  0
 11  6  2  0
 12  7  2  0
 13 11  1  0
 14 12  1  0
 15 11  1  0
 16 12  1  0
  5  8  2  0
  9 16  2  0
 10 15  2  0
  6 17  1  0
  7 18  1  0
  8 19  1  0
  9 20  1  0
 10 21  1  0
 13 22  1  0
 13 23  1  0
 14 24  1  0
 14 25  1  0
 15 26  1  0
 16 27  1  0
M  END
$$$$
