
     RDKit          3D

 27 29  0  0  0  0  0  0  0  0999 V2000
    0.0044   -0.2312    1.1780 N   0  0  0  0  0  0  0  0  0  0  0  0
    1.1638   -0.2126    0.4950 C   0  0  0  0  0  0  0  0  0  0  0  0
   -1.1599   -0.1987    0.5040 C   0  0  0  0  0  0  0  0  0  0  0  0
   -1.2151   -0.1407   -0.8998 C   0  0  0  0  0  0  0  0  0  0  0  0
    1.2089   -0.1552   -0.9092 C   0  0  0  0  0  0  0  0  0  0  0  0
    2.3675   -0.2471    1.1897 C   0  0  0  0  0  0  0  0  0  0  0  0
   -2.3585   -0.2188    1.2080 C   0  0  0  0  0  0  0  0  0  0  0  0
   -0.0056   -0.1184   -1.6024 C   0  0  0  0  0  0  0  0  0  0  0  0
   -2.4550   -0.0912   -1.5562 C   0  0  0  0  0  0  0  0  0  0  0  0
    2.4441   -0.1205   -1.5752 C   0  0  0  0  0  0  0  0  0  0  0  0
    3.6066   -0.2734    0.5395 C   0  0  0  0  0  0  0  0  0  0  0  0
   -3.6028   -0.2303    0.5674 C   0  0  0  0  0  0  0  0  0  0  0  0
    4.7944   -0.1915    1.2762 N   0  0  0  0  0  0  0  0  0  0  0  0
   -4.7838   -0.1343    1.3133 N   0  0  0  0  0  0  0  0  0  0  0  0
    3.6339   -0.1587   -0.8485 C   0  0  0  0  0  0  0  0  0  0  0  0
   -3.6395   -0.1153   -0.8203 C   0  0  0  0  0  0  0  0  0  0  0  0
    2.3278   -0.2590    2.2760 H   0  0  0  0  0  0  0  0  0  0  0  0
   -2.3105   -0.2313    2.2939 H   0  0  0  0  0  0  0  0  0  0  0  0
   -0.0095   -0.0676   -2.6884 H   0  0  0  0  0  0  0  0  0  0  0  0
   -2.5064   -0.0195   -2.6398 H   0  0  0  0  0  0  0  0  0  0  0  0
    2.4880   -0.0494   -2.6591 H   0  0  0  0  0  0  0  0  0  0  0  0
    5.6137   -0.5312    0.7827 H   0  0  0  0  0  0  0  0  0  0  0  0
    4.7234   -0.5725    2.2152 H   0  0  0  0  0  0  0  0  0  0  0  0
   -4.7101   -0.5161    2.2517 H   0  0  0  0  0  0  0  0  0  0  0  0
   -5.6109   -0.4642    0.8261 H   0  0  0  0  0  0  0  0  0  0  0  0
    4.5817   -0.0977   -1.3766 H   0  0  0  0  0  0  0  0  0  0  0  0
   -4.5905   -0.0430   -1.3412 H   0  0  0  0  0  0  0  0  0  0  0  0
  2  1  2  0
  3  1  1  0
  4  3  2  0
  5  2  1  0
  6  2  1  0
  7  3  1  0
  8  4  1  0
  9  4  1  0
 10  5  1  0
 11  6  2  0
 12  7  2  0
 13 11  1  0
 14 12  1  0
 15 11  1  0
 16 12  1  0
  5  8  2  0
  9 16  2  0
 10 15  2  0
  6 17  1  0
  7 18  1  0
  8 19  1  0
  9 20  1  0
 10 21  1  0
 13 22  1  0
 13 23  1  0
 14 24  1  0
 14 25  1  0
 15 26  1  0
 16 27  1  0
M  END
$$$$
