
     RDKit          3D

 16 18  0  0  0  0  0  0  0  0999 V2000
   -0.1720    0.9598    0.7987 N   0  0  0  0  0  0  0  0  0  0  0  0
   -1.2403    0.2500    0.3888 C   0  0  0  0  0  0  0  0  0  0  0  0
    1.0988    0.5952    0.4834 C   0  0  0  0  0  0  0  0  0  0  0  0
    1.3337   -0.5336   -0.2799 C   0  0  0  0  0  0  0  0  0  0  0  0
   -1.0591   -0.8865   -0.3764 C   0  0  0  0  0  0  0  0  0  0  0  0
   -2.5392    0.6088    0.7019 C   0  0  0  0  0  0  0  0  0  0  0  0
    2.1894    1.3273    0.9068 C   0  0  0  0  0  0  0  0  0  0  0  0
    0.2400   -1.2743   -0.7088 C   0  0  0  0  0  0  0  0  0  0  0  0
    2.6388   -0.9163   -0.6092 C   0  0  0  0  0  0  0  0  0  0  0  0
   -2.1614   -1.6054   -0.7905 C   0  0  0  0  0  0  0  0  0  0  0  0
   -3.6343   -0.1146    0.2845 C   0  0  0  0  0  0  0  0  0  0  0  0
    3.4911    0.9522    0.5827 C   0  0  0  0  0  0  0  0  0  0  0  0
   -4.9755    0.2755    0.6209 N   0  0  0  0  0  0  0  0  0  0  0  0
    4.5275    1.7936    1.0819 N   0  0  0  0  0  0  0  0  0  0  0  0
   -3.4626   -1.2619   -0.4874 C   0  0  0  0  0  0  0  0  0  0  0  0
    3.7251   -0.1700   -0.1760 C   0  0  0  0  0  0  0  0  0  0  0  0
  2  1  2  0
  3  1  1  0
  4  3  2  0
  5  2  1  0
  6  2  1  0
  7  3  1  0
  8  4  1  0
  9  4  1  0
 10  5  1  0
 11  6  2  0
 12  7  2  0
 13 11  1  0
 14 12  1  0
 15 11  1  0
 16 12  1  0
  5  8  2  0
  9 16  2  0
 10 15  2  0
M  END
