
     RDKit          3D

 21 13  0  0  0  0  0  0  0  0999 V2000
   47.4387    1.8434    6.7815 O   0  0  0  0  0  0  0  0  0  0  0  0
   47.9969    1.8465    5.9831 Mg  0  0  0  0  0  2  0  0  0  0  0  0
   47.1305    1.1506    7.3749 O   0  0  0  0  0  0  0  0  0  0  0  0
   48.0010    1.8498    5.9764 Mg  0  0  0  0  0  2  0  0  0  0  0  0
   47.1264    1.1473    7.3815 O   0  0  0  0  0  0  0  0  0  0  0  0
   48.0004    1.8493    5.9774 Mg  0  0  0  0  0  2  0  0  0  0  0  0
   47.1270    1.1478    7.3805 O   0  0  0  0  0  0  0  0  0  0  0  0
   47.5252    1.6003    6.7116 Si  0  0  0  0  0  4  0  0  0  0  0  0
   46.8225    0.8366    7.8843 O   0  0  0  0  0  0  0  0  0  0  0  0
   48.3434    2.0587    5.4410 O   0  0  0  0  0  0  0  0  0  0  0  0
   47.3731    1.8892    6.8653 Si  0  0  0  0  0  4  0  0  0  0  0  0
   47.0151    0.5719    7.6674 O   0  0  0  0  0  0  0  0  0  0  0  0
   48.0768    2.6784    5.6854 O   0  0  0  0  0  0  0  0  0  0  0  0
   47.5259    1.5969    6.7113 Si  0  0  0  0  0  4  0  0  0  0  0  0
   48.3434    2.0607    5.4406 O   0  0  0  0  0  0  0  0  0  0  0  0
   46.8218    0.8380    7.8850 O   0  0  0  0  0  0  0  0  0  0  0  0
   47.4058    1.8071    6.8366 Si  0  0  0  0  0  4  0  0  0  0  0  0
   48.1025    2.6096    5.6639 O   0  0  0  0  0  0  0  0  0  0  0  0
   47.0332    0.5047    7.6563 O   0  0  0  0  0  0  0  0  0  0  0  0
   48.0196    1.6446    5.9951 H   0  0  0  0  0  0  0  0  0  0  0  0
   47.2327    1.0076    7.2603 H   0  0  0  0  0  0  0  0  0  0  0  0
  2  3  2  0
  4  5  2  0
  6  7  2  0
  8  9  2  0
  8 10  2  0
 11 12  2  0
 11 13  2  0
 14 15  2  0
 14 16  2  0
 17 18  2  0
 17 19  2  0
  1 20  1  0
  1 21  1  0
M  END
> <Uni-Dock RESULT> 
ENERGY=   -9.296  LOWER_BOUND=    0.000  UPPER_BOUND=    0.000
INTER + INTRA:          -9.296
INTER:                  -9.296
INTRA:                   0.000
UNBOUND:                 0.000

$$$$

     RDKit          3D

 21 13  0  0  0  0  0  0  0  0999 V2000
   47.5823    2.3267    6.2993 O   0  0  0  0  0  0  0  0  0  0  0  0
   46.9911    3.1004    6.2657 Mg  0  0  0  0  0  2  0  0  0  0  0  0
   47.6981    1.6050    6.9259 O   0  0  0  0  0  0  0  0  0  0  0  0
   46.9877    3.1075    6.2625 Mg  0  0  0  0  0  2  0  0  0  0  0  0
   47.7015    1.5978    6.9290 O   0  0  0  0  0  0  0  0  0  0  0  0
   46.9883    3.1064    6.2630 Mg  0  0  0  0  0  2  0  0  0  0  0  0
   47.7010    1.5989    6.9285 O   0  0  0  0  0  0  0  0  0  0  0  0
   47.4165    2.3427    6.5084 Si  0  0  0  0  0  4  0  0  0  0  0  0
   47.9291    1.0450    7.2192 O   0  0  0  0  0  0  0  0  0  0  0  0
   46.6882    3.6703    6.0597 O   0  0  0  0  0  0  0  0  0  0  0  0
   47.6659    2.2554    6.2626 Si  0  0  0  0  0  4  0  0  0  0  0  0
   47.6442    1.1986    7.4414 O   0  0  0  0  0  0  0  0  0  0  0  0
   47.1599    3.5656    5.5293 O   0  0  0  0  0  0  0  0  0  0  0  0
   47.4147    2.3423    6.5113 Si  0  0  0  0  0  4  0  0  0  0  0  0
   46.6888    3.6711    6.0580 O   0  0  0  0  0  0  0  0  0  0  0  0
   47.9303    1.0447    7.2180 O   0  0  0  0  0  0  0  0  0  0  0  0
   47.6061    2.2657    6.3330 Si  0  0  0  0  0  4  0  0  0  0  0  0
   47.1117    3.5717    5.5884 O   0  0  0  0  0  0  0  0  0  0  0  0
   47.6044    1.1951    7.4996 O   0  0  0  0  0  0  0  0  0  0  0  0
   46.9055    3.0458    6.4420 H   0  0  0  0  0  0  0  0  0  0  0  0
   47.5461    1.6855    7.0461 H   0  0  0  0  0  0  0  0  0  0  0  0
  2  3  2  0
  4  5  2  0
  6  7  2  0
  8  9  2  0
  8 10  2  0
 11 12  2  0
 11 13  2  0
 14 15  2  0
 14 16  2  0
 17 18  2  0
 17 19  2  0
  1 20  1  0
  1 21  1  0
M  END
> <Uni-Dock RESULT> 
ENERGY=   -8.751  LOWER_BOUND=    1.077  UPPER_BOUND=    1.320
INTER + INTRA:          -8.751
INTER:                  -8.751
INTRA:                   0.000
UNBOUND:                 0.000

$$$$

     RDKit          3D

 21 13  0  0  0  0  0  0  0  0999 V2000
   47.1164    2.7631    6.5412 O   0  0  0  0  0  0  0  0  0  0  0  0
   47.1110    3.6541    6.9351 Mg  0  0  0  0  0  2  0  0  0  0  0  0
   47.8140    2.1804    6.2239 O   0  0  0  0  0  0  0  0  0  0  0  0
   47.1076    3.6611    6.9385 Mg  0  0  0  0  0  2  0  0  0  0  0  0
   47.8174    2.1733    6.2205 O   0  0  0  0  0  0  0  0  0  0  0  0
   47.1082    3.6601    6.9379 Mg  0  0  0  0  0  2  0  0  0  0  0  0
   47.8169    2.1744    6.2210 O   0  0  0  0  0  0  0  0  0  0  0  0
   47.3604    2.8691    6.5670 Si  0  0  0  0  0  4  0  0  0  0  0  0
   48.1309    1.6478    5.9614 O   0  0  0  0  0  0  0  0  0  0  0  0
   46.8962    4.2349    7.2100 O   0  0  0  0  0  0  0  0  0  0  0  0
   47.0706    2.6643    6.5016 Si  0  0  0  0  0  4  0  0  0  0  0  0
   48.3962    1.9203    6.0589 O   0  0  0  0  0  0  0  0  0  0  0  0
   46.2743    3.8908    7.1116 O   0  0  0  0  0  0  0  0  0  0  0  0
   47.3638    2.8698    6.5670 Si  0  0  0  0  0  4  0  0  0  0  0  0
   46.8942    4.2351    7.2102 O   0  0  0  0  0  0  0  0  0  0  0  0
   48.1295    1.6469    5.9611 O   0  0  0  0  0  0  0  0  0  0  0  0
   47.1529    2.7058    6.5128 Si  0  0  0  0  0  4  0  0  0  0  0  0
   46.3434    3.9227    7.1198 O   0  0  0  0  0  0  0  0  0  0  0  0
   48.4637    1.9405    6.0620 O   0  0  0  0  0  0  0  0  0  0  0  0
   47.3138    3.6639    6.9219 H   0  0  0  0  0  0  0  0  0  0  0  0
   47.9574    2.3248    6.2752 H   0  0  0  0  0  0  0  0  0  0  0  0
  2  3  2  0
  4  5  2  0
  6  7  2  0
  8  9  2  0
  8 10  2  0
 11 12  2  0
 11 13  2  0
 14 15  2  0
 14 16  2  0
 17 18  2  0
 17 19  2  0
  1 20  1  0
  1 21  1  0
M  END
> <Uni-Dock RESULT> 
ENERGY=   -8.337  LOWER_BOUND=    1.660  UPPER_BOUND=    2.157
INTER + INTRA:          -8.337
INTER:                  -8.337
INTRA:                   0.000
UNBOUND:                 0.000

$$$$

     RDKit          3D

 21 13  0  0  0  0  0  0  0  0999 V2000
   42.9572    5.4582   11.7766 O   0  0  0  0  0  0  0  0  0  0  0  0
   43.2205    4.8946   11.0268 Mg  0  0  0  0  0  2  0  0  0  0  0  0
   42.8254    5.2959   12.7164 O   0  0  0  0  0  0  0  0  0  0  0  0
   43.2224    4.8927   11.0187 Mg  0  0  0  0  0  2  0  0  0  0  0  0
   42.8235    5.2978   12.7245 O   0  0  0  0  0  0  0  0  0  0  0  0
   43.2221    4.8930   11.0200 Mg  0  0  0  0  0  2  0  0  0  0  0  0
   42.8238    5.2975   12.7233 O   0  0  0  0  0  0  0  0  0  0  0  0
   43.0028    5.2040   11.8458 Si  0  0  0  0  0  4  0  0  0  0  0  0
   42.6862    5.3929   13.3677 O   0  0  0  0  0  0  0  0  0  0  0  0
   43.3798    4.6889   10.4013 O   0  0  0  0  0  0  0  0  0  0  0  0
   42.9254    5.5561   11.8297 Si  0  0  0  0  0  4  0  0  0  0  0  0
   42.7823    5.0164   13.3113 O   0  0  0  0  0  0  0  0  0  0  0  0
   43.2419    5.3836   10.2868 O   0  0  0  0  0  0  0  0  0  0  0  0
   43.0032    5.2010   11.8474 Si  0  0  0  0  0  4  0  0  0  0  0  0
   43.3798    4.6903   10.3998 O   0  0  0  0  0  0  0  0  0  0  0  0
   42.6859    5.3946   13.3676 O   0  0  0  0  0  0  0  0  0  0  0  0
   42.9424    5.4667   11.8483 Si  0  0  0  0  0  4  0  0  0  0  0  0
   43.2554    5.3105   10.3048 O   0  0  0  0  0  0  0  0  0  0  0  0
   42.7921    4.9519   13.3381 O   0  0  0  0  0  0  0  0  0  0  0  0
   43.2352    4.7333   11.1499 H   0  0  0  0  0  0  0  0  0  0  0  0
   42.8764    5.0943   12.6883 H   0  0  0  0  0  0  0  0  0  0  0  0
  2  3  2  0
  4  5  2  0
  6  7  2  0
  8  9  2  0
  8 10  2  0
 11 12  2  0
 11 13  2  0
 14 15  2  0
 14 16  2  0
 17 18  2  0
 17 19  2  0
  1 20  1  0
  1 21  1  0
M  END
> <Uni-Dock RESULT> 
ENERGY=   -7.466  LOWER_BOUND=    7.371  UPPER_BOUND=    7.785
INTER + INTRA:          -7.466
INTER:                  -7.466
INTRA:                   0.000
UNBOUND:                 0.000

$$$$

     RDKit          3D

 21 13  0  0  0  0  0  0  0  0999 V2000
   43.2148    5.1546   12.4053 O   0  0  0  0  0  0  0  0  0  0  0  0
   43.1664    4.3822   12.9970 Mg  0  0  0  0  0  2  0  0  0  0  0  0
   42.5528    5.6984   11.9659 O   0  0  0  0  0  0  0  0  0  0  0  0
   43.1693    4.3759   13.0019 Mg  0  0  0  0  0  2  0  0  0  0  0  0
   42.5499    5.7046   11.9610 O   0  0  0  0  0  0  0  0  0  0  0  0
   43.1688    4.3769   13.0012 Mg  0  0  0  0  0  2  0  0  0  0  0  0
   42.5503    5.7037   11.9618 O   0  0  0  0  0  0  0  0  0  0  0  0
   42.9645    5.0763   12.4572 Si  0  0  0  0  0  4  0  0  0  0  0  0
   42.2683    6.1775   11.5885 O   0  0  0  0  0  0  0  0  0  0  0  0
   43.3459    3.8670   13.3986 O   0  0  0  0  0  0  0  0  0  0  0  0
   43.2665    5.2376   12.3432 Si  0  0  0  0  0  4  0  0  0  0  0  0
   41.9867    5.9561   11.7494 O   0  0  0  0  0  0  0  0  0  0  0  0
   43.9882    4.1305   13.2173 O   0  0  0  0  0  0  0  0  0  0  0  0
   42.9611    5.0758   12.4575 Si  0  0  0  0  0  4  0  0  0  0  0  0
   43.3479    3.8667   13.3990 O   0  0  0  0  0  0  0  0  0  0  0  0
   42.2698    6.1782   11.5880 O   0  0  0  0  0  0  0  0  0  0  0  0
   43.1817    5.2063   12.3645 Si  0  0  0  0  0  4  0  0  0  0  0  0
   43.9172    4.1067   13.2333 O   0  0  0  0  0  0  0  0  0  0  0  0
   41.9180    5.9424   11.7577 O   0  0  0  0  0  0  0  0  0  0  0  0
   42.9631    4.3850   12.9882 H   0  0  0  0  0  0  0  0  0  0  0  0
   42.4008    5.5812   12.0509 H   0  0  0  0  0  0  0  0  0  0  0  0
  2  3  2  0
  4  5  2  0
  6  7  2  0
  8  9  2  0
  8 10  2  0
 11 12  2  0
 11 13  2  0
 14 15  2  0
 14 16  2  0
 17 18  2  0
 17 19  2  0
  1 20  1  0
  1 21  1  0
M  END
> <Uni-Dock RESULT> 
ENERGY=   -7.282  LOWER_BOUND=    8.002  UPPER_BOUND=    8.400
INTER + INTRA:          -7.282
INTER:                  -7.282
INTRA:                   0.000
UNBOUND:                 0.000

$$$$

     RDKit          3D

 21 13  0  0  0  0  0  0  0  0999 V2000
   43.1823    5.2076   12.3483 O   0  0  0  0  0  0  0  0  0  0  0  0
   42.3650    5.6429   12.0455 Mg  0  0  0  0  0  2  0  0  0  0  0  0
   43.3636    4.4783   12.9501 O   0  0  0  0  0  0  0  0  0  0  0  0
   42.3603    5.6485   12.0412 Mg  0  0  0  0  0  2  0  0  0  0  0  0
   43.3684    4.4727   12.9545 O   0  0  0  0  0  0  0  0  0  0  0  0
   42.3610    5.6476   12.0418 Mg  0  0  0  0  0  2  0  0  0  0  0  0
   43.3677    4.4736   12.9538 O   0  0  0  0  0  0  0  0  0  0  0  0
   42.9606    5.1027   12.4546 Si  0  0  0  0  0  4  0  0  0  0  0  0
   43.6926    4.0172   13.3136 O   0  0  0  0  0  0  0  0  0  0  0  0
   41.9399    6.0620   11.7252 O   0  0  0  0  0  0  0  0  0  0  0  0
   43.2965    5.1891   12.3549 Si  0  0  0  0  0  4  0  0  0  0  0  0
   43.3068    3.9793   13.3763 O   0  0  0  0  0  0  0  0  0  0  0  0
   42.5728    6.2936   11.4792 O   0  0  0  0  0  0  0  0  0  0  0  0
   42.9582    5.1009   12.4563 Si  0  0  0  0  0  4  0  0  0  0  0  0
   41.9406    6.0634   11.7240 O   0  0  0  0  0  0  0  0  0  0  0  0
   43.6941    4.0176   13.3131 O   0  0  0  0  0  0  0  0  0  0  0  0
   43.2164    5.1564   12.3889 Si  0  0  0  0  0  4  0  0  0  0  0  0
   42.5083    6.2648   11.5087 O   0  0  0  0  0  0  0  0  0  0  0  0
   43.2539    3.9458   13.4087 O   0  0  0  0  0  0  0  0  0  0  0  0
   42.2528    5.5177   12.1602 H   0  0  0  0  0  0  0  0  0  0  0  0
   43.1578    4.4564   12.9850 H   0  0  0  0  0  0  0  0  0  0  0  0
  2  3  2  0
  4  5  2  0
  6  7  2  0
  8  9  2  0
  8 10  2  0
 11 12  2  0
 11 13  2  0
 14 15  2  0
 14 16  2  0
 17 18  2  0
 17 19  2  0
  1 20  1  0
  1 21  1  0
M  END
> <Uni-Dock RESULT> 
ENERGY=   -7.071  LOWER_BOUND=    8.093  UPPER_BOUND=    8.247
INTER + INTRA:          -7.071
INTER:                  -7.071
INTRA:                   0.000
UNBOUND:                 0.000

$$$$

     RDKit          3D

 21 13  0  0  0  0  0  0  0  0999 V2000
   43.0596    4.9357   11.8952 O   0  0  0  0  0  0  0  0  0  0  0  0
   42.8723    5.4253   12.7163 Mg  0  0  0  0  0  2  0  0  0  0  0  0
   43.1686    5.1972   10.9750 O   0  0  0  0  0  0  0  0  0  0  0  0
   42.8708    5.4264   12.7246 Mg  0  0  0  0  0  2  0  0  0  0  0  0
   43.1700    5.1961   10.9667 O   0  0  0  0  0  0  0  0  0  0  0  0
   42.8711    5.4262   12.7233 Mg  0  0  0  0  0  2  0  0  0  0  0  0
   43.1698    5.1963   10.9680 O   0  0  0  0  0  0  0  0  0  0  0  0
   43.0325    5.1990   11.8578 Si  0  0  0  0  0  4  0  0  0  0  0  0
   43.2744    5.1674   10.3110 O   0  0  0  0  0  0  0  0  0  0  0  0
   42.7543    5.5674   13.3681 O   0  0  0  0  0  0  0  0  0  0  0  0
   43.0813    4.8425   11.8297 Si  0  0  0  0  0  4  0  0  0  0  0  0
   43.2119    5.5409   10.4148 O   0  0  0  0  0  0  0  0  0  0  0  0
   42.8388    4.8554   13.3955 O   0  0  0  0  0  0  0  0  0  0  0  0
   43.0323    5.2022   11.8566 Si  0  0  0  0  0  4  0  0  0  0  0  0
   42.7543    5.5658   13.3694 O   0  0  0  0  0  0  0  0  0  0  0  0
   43.2746    5.1657   10.3110 O   0  0  0  0  0  0  0  0  0  0  0  0
   43.0709    4.9346   11.8224 Si  0  0  0  0  0  4  0  0  0  0  0  0
   42.8307    4.9310   13.3866 O   0  0  0  0  0  0  0  0  0  0  0  0
   43.2063    5.6087   10.3961 O   0  0  0  0  0  0  0  0  0  0  0  0
   42.8662    5.6007   12.6133 H   0  0  0  0  0  0  0  0  0  0  0  0
   43.1354    5.3975   11.0284 H   0  0  0  0  0  0  0  0  0  0  0  0
  2  3  2  0
  4  5  2  0
  6  7  2  0
  8  9  2  0
  8 10  2  0
 11 12  2  0
 11 13  2  0
 14 15  2  0
 14 16  2  0
 17 18  2  0
 17 19  2  0
  1 20  1  0
  1 21  1  0
M  END
> <Uni-Dock RESULT> 
ENERGY=   -6.921  LOWER_BOUND=    7.473  UPPER_BOUND=    8.061
INTER + INTRA:          -6.921
INTER:                  -6.921
INTRA:                   0.000
UNBOUND:                 0.000

$$$$

     RDKit          3D

 21 13  0  0  0  0  0  0  0  0999 V2000
   44.9895    3.0570    8.7275 O   0  0  0  0  0  0  0  0  0  0  0  0
   44.3472    3.7881    8.7708 Mg  0  0  0  0  0  2  0  0  0  0  0  0
   44.9360    2.1130    8.9090 O   0  0  0  0  0  0  0  0  0  0  0  0
   44.3444    3.7961    8.7702 Mg  0  0  0  0  0  2  0  0  0  0  0  0
   44.9388    2.1050    8.9097 O   0  0  0  0  0  0  0  0  0  0  0  0
   44.3448    3.7949    8.7703 Mg  0  0  0  0  0  2  0  0  0  0  0  0
   44.9383    2.1062    8.9096 O   0  0  0  0  0  0  0  0  0  0  0  0
   44.7462    2.9798    8.8066 Si  0  0  0  0  0  4  0  0  0  0  0  0
   45.1059    1.4654    8.9780 O   0  0  0  0  0  0  0  0  0  0  0  0
   44.0727    4.4065    8.7352 O   0  0  0  0  0  0  0  0  0  0  0  0
   45.0924    3.0070    8.7086 Si  0  0  0  0  0  4  0  0  0  0  0  0
   44.7272    1.5099    9.0720 O   0  0  0  0  0  0  0  0  0  0  0  0
   44.7465    4.5429    8.5297 O   0  0  0  0  0  0  0  0  0  0  0  0
   44.7433    2.9781    8.8077 Si  0  0  0  0  0  4  0  0  0  0  0  0
   44.0739    4.4080    8.7346 O   0  0  0  0  0  0  0  0  0  0  0  0
   45.1075    1.4656    8.9775 O   0  0  0  0  0  0  0  0  0  0  0  0
   45.0061    2.9856    8.7356 Si  0  0  0  0  0  4  0  0  0  0  0  0
   44.6762    4.5226    8.5522 O   0  0  0  0  0  0  0  0  0  0  0  0
   44.6665    1.4811    9.0934 O   0  0  0  0  0  0  0  0  0  0  0  0
   44.2017    3.6600    8.8327 H   0  0  0  0  0  0  0  0  0  0  0  0
   44.7334    2.1346    8.9597 H   0  0  0  0  0  0  0  0  0  0  0  0
  2  3  2  0
  4  5  2  0
  6  7  2  0
  8  9  2  0
  8 10  2  0
 11 12  2  0
 11 13  2  0
 14 15  2  0
 14 16  2  0
 17 18  2  0
 17 19  2  0
  1 20  1  0
  1 21  1  0
M  END
> <Uni-Dock RESULT> 
ENERGY=   -6.879  LOWER_BOUND=    3.664  UPPER_BOUND=    3.975
INTER + INTRA:          -6.879
INTER:                  -6.879
INTRA:                   0.000
UNBOUND:                 0.000

$$$$

     RDKit          3D

 21 13  0  0  0  0  0  0  0  0999 V2000
   44.8034    3.1469    8.7879 O   0  0  0  0  0  0  0  0  0  0  0  0
   45.1802    2.2486    8.7709 Mg  0  0  0  0  0  2  0  0  0  0  0  0
   45.1234    4.0079    8.4995 O   0  0  0  0  0  0  0  0  0  0  0  0
   45.1804    2.2403    8.7722 Mg  0  0  0  0  0  2  0  0  0  0  0  0
   45.1231    4.0163    8.4982 O   0  0  0  0  0  0  0  0  0  0  0  0
   45.1804    2.2415    8.7720 Mg  0  0  0  0  0  2  0  0  0  0  0  0
   45.1231    4.0150    8.4984 O   0  0  0  0  0  0  0  0  0  0  0  0
   45.0478    3.1364    8.6803 Si  0  0  0  0  0  4  0  0  0  0  0  0
   45.1541    4.6685    8.3743 O   0  0  0  0  0  0  0  0  0  0  0  0
   45.2534    1.5799    8.8509 O   0  0  0  0  0  0  0  0  0  0  0  0
   44.7238    3.2282    8.8098 Si  0  0  0  0  0  4  0  0  0  0  0  0
   45.4872    4.4990    8.2539 O   0  0  0  0  0  0  0  0  0  0  0  0
   44.5987    1.6808    9.1268 O   0  0  0  0  0  0  0  0  0  0  0  0
   45.0509    3.1370    8.6788 Si  0  0  0  0  0  4  0  0  0  0  0  0
   45.2518    1.5789    8.8518 O   0  0  0  0  0  0  0  0  0  0  0  0
   45.1525    4.6688    8.3749 O   0  0  0  0  0  0  0  0  0  0  0  0
   44.8087    3.2189    8.7733 Si  0  0  0  0  0  4  0  0  0  0  0  0
   44.6688    1.6759    9.0963 O   0  0  0  0  0  0  0  0  0  0  0  0
   45.5509    4.5053    8.2243 O   0  0  0  0  0  0  0  0  0  0  0  0
   45.3499    2.3187    8.6831 H   0  0  0  0  0  0  0  0  0  0  0  0
   45.3021    3.9192    8.4345 H   0  0  0  0  0  0  0  0  0  0  0  0
  2  3  2  0
  4  5  2  0
  6  7  2  0
  8  9  2  0
  8 10  2  0
 11 12  2  0
 11 13  2  0
 14 15  2  0
 14 16  2  0
 17 18  2  0
 17 19  2  0
  1 20  1  0
  1 21  1  0
M  END
> <Uni-Dock RESULT> 
ENERGY=   -6.717  LOWER_BOUND=    3.411  UPPER_BOUND=    4.071
INTER + INTRA:          -6.717
INTER:                  -6.717
INTRA:                   0.000
UNBOUND:                 0.000

$$$$
