
     RDKit          3D

 21 13  0  0  0  0  0  0  0  0999 V2000
   47.7002    1.5985    6.7971 O   0  0  0  0  0  0  0  0  0  0  0  0
   47.0142    1.7096    7.4714 Mg  0  0  0  0  0  2  0  0  0  0  0  0
   47.9249    2.0486    5.9722 O   0  0  0  0  0  0  0  0  0  0  0  0
   47.0116    1.7087    7.4757 Mg  0  0  0  0  0  2  0  0  0  0  0  0
   47.9275    2.0495    5.9679 O   0  0  0  0  0  0  0  0  0  0  0  0
   47.0125    1.7090    7.4742 Mg  0  0  0  0  0  2  0  0  0  0  0  0
   47.9266    2.0492    5.9693 O   0  0  0  0  0  0  0  0  0  0  0  0
   47.5451    1.7887    6.7446 Si  0  0  0  0  0  4  0  0  0  0  0  0
   46.6339    1.6273    8.0239 O   0  0  0  0  0  0  0  0  0  0  0  0
   48.2296    2.2213    5.3969 O   0  0  0  0  0  0  0  0  0  0  0  0
   47.5205    1.8204    6.7344 Si  0  0  0  0  0  4  0  0  0  0  0  0
   46.6471    1.6117    8.0277 O   0  0  0  0  0  0  0  0  0  0  0  0
   48.2411    2.2052    5.4032 O   0  0  0  0  0  0  0  0  0  0  0  0
   47.4958    1.8499    6.7269 Si  0  0  0  0  0  4  0  0  0  0  0  0
   46.6577    1.5964    8.0342 O   0  0  0  0  0  0  0  0  0  0  0  0
   48.2552    2.1910    5.4042 O   0  0  0  0  0  0  0  0  0  0  0  0
   47.5241    1.8144    6.7375 Si  0  0  0  0  0  4  0  0  0  0  0  0
   48.2394    2.2083    5.4015 O   0  0  0  0  0  0  0  0  0  0  0  0
   46.6450    1.6147    8.0264 O   0  0  0  0  0  0  0  0  0  0  0  0
   46.9381    1.8642    7.3695 H   0  0  0  0  0  0  0  0  0  0  0  0
   47.7704    2.1746    5.9986 H   0  0  0  0  0  0  0  0  0  0  0  0
  2  3  2  0
  4  5  2  0
  6  7  2  0
  8  9  2  0
  8 10  2  0
 11 12  2  0
 11 13  2  0
 14 15  2  0
 14 16  2  0
 17 18  2  0
 17 19  2  0
  1 20  1  0
  1 21  1  0
M  END
> <Uni-Dock RESULT> 
ENERGY=   -9.093  LOWER_BOUND=    0.000  UPPER_BOUND=    0.000
INTER + INTRA:          -9.093
INTER:                  -9.093
INTRA:                   0.000
UNBOUND:                 0.000

$$$$

     RDKit          3D

 21 13  0  0  0  0  0  0  0  0999 V2000
   47.3781    2.4641    6.3532 O   0  0  0  0  0  0  0  0  0  0  0  0
   46.9834    3.3354    6.5040 Mg  0  0  0  0  0  2  0  0  0  0  0  0
   47.6584    1.7348    6.9217 O   0  0  0  0  0  0  0  0  0  0  0  0
   46.9814    3.3399    6.5028 Mg  0  0  0  0  0  2  0  0  0  0  0  0
   47.6604    1.7303    6.9229 O   0  0  0  0  0  0  0  0  0  0  0  0
   46.9821    3.3384    6.5032 Mg  0  0  0  0  0  2  0  0  0  0  0  0
   47.6597    1.7318    6.9225 O   0  0  0  0  0  0  0  0  0  0  0  0
   47.3401    2.5105    6.5970 Si  0  0  0  0  0  4  0  0  0  0  0  0
   46.7198    3.9497    6.4047 O   0  0  0  0  0  0  0  0  0  0  0  0
   47.9027    1.1452    7.1368 O   0  0  0  0  0  0  0  0  0  0  0  0
   47.3345    2.5165    6.6376 Si  0  0  0  0  0  4  0  0  0  0  0  0
   46.7232    3.9452    6.3848 O   0  0  0  0  0  0  0  0  0  0  0  0
   47.9049    1.1436    7.1163 O   0  0  0  0  0  0  0  0  0  0  0  0
   47.3283    2.5245    6.6754 Si  0  0  0  0  0  4  0  0  0  0  0  0
   46.7251    3.9442    6.3651 O   0  0  0  0  0  0  0  0  0  0  0  0
   47.9093    1.1365    7.0980 O   0  0  0  0  0  0  0  0  0  0  0  0
   47.3349    2.5168    6.6299 Si  0  0  0  0  0  4  0  0  0  0  0  0
   47.9048    1.1432    7.1201 O   0  0  0  0  0  0  0  0  0  0  0  0
   46.7229    3.9454    6.3886 O   0  0  0  0  0  0  0  0  0  0  0  0
   46.9837    3.3022    6.7014 H   0  0  0  0  0  0  0  0  0  0  0  0
   47.6008    1.8389    7.0839 H   0  0  0  0  0  0  0  0  0  0  0  0
  2  3  2  0
  4  5  2  0
  6  7  2  0
  8  9  2  0
  8 10  2  0
 11 12  2  0
 11 13  2  0
 14 15  2  0
 14 16  2  0
 17 18  2  0
 17 19  2  0
  1 20  1  0
  1 21  1  0
M  END
> <Uni-Dock RESULT> 
ENERGY=   -8.797  LOWER_BOUND=    1.371  UPPER_BOUND=    1.872
INTER + INTRA:          -8.797
INTER:                  -8.797
INTRA:                   0.000
UNBOUND:                 0.000

$$$$

     RDKit          3D

 21 13  0  0  0  0  0  0  0  0999 V2000
   47.0647    2.5875    6.5629 O   0  0  0  0  0  0  0  0  0  0  0  0
   47.8184    2.2721    6.0432 Mg  0  0  0  0  0  2  0  0  0  0  0  0
   46.7099    3.4568    6.7913 O   0  0  0  0  0  0  0  0  0  0  0  0
   47.8215    2.2687    6.0411 Mg  0  0  0  0  0  2  0  0  0  0  0  0
   46.7067    3.4601    6.7934 O   0  0  0  0  0  0  0  0  0  0  0  0
   47.8205    2.2698    6.0418 Mg  0  0  0  0  0  2  0  0  0  0  0  0
   46.7077    3.4590    6.7927 O   0  0  0  0  0  0  0  0  0  0  0  0
   47.1985    2.7761    6.4651 Si  0  0  0  0  0  4  0  0  0  0  0  0
   48.2681    1.8705    5.7379 O   0  0  0  0  0  0  0  0  0  0  0  0
   46.3258    3.9465    7.0486 O   0  0  0  0  0  0  0  0  0  0  0  0
   47.2194    2.8084    6.4497 Si  0  0  0  0  0  4  0  0  0  0  0  0
   48.2566    1.8555    5.7463 O   0  0  0  0  0  0  0  0  0  0  0  0
   46.3164    3.9295    7.0556 O   0  0  0  0  0  0  0  0  0  0  0  0
   47.2408    2.8372    6.4341 Si  0  0  0  0  0  4  0  0  0  0  0  0
   48.2481    1.8389    5.7527 O   0  0  0  0  0  0  0  0  0  0  0  0
   46.3035    3.9172    7.0649 O   0  0  0  0  0  0  0  0  0  0  0  0
   47.2166    2.8015    6.4519 Si  0  0  0  0  0  4  0  0  0  0  0  0
   46.3176    3.9330    7.0547 O   0  0  0  0  0  0  0  0  0  0  0  0
   48.2583    1.8587    5.7450 O   0  0  0  0  0  0  0  0  0  0  0  0
   47.8704    2.4610    6.0025 H   0  0  0  0  0  0  0  0  0  0  0  0
   46.8572    3.5447    6.6863 H   0  0  0  0  0  0  0  0  0  0  0  0
  2  3  2  0
  4  5  2  0
  6  7  2  0
  8  9  2  0
  8 10  2  0
 11 12  2  0
 11 13  2  0
 14 15  2  0
 14 16  2  0
 17 18  2  0
 17 19  2  0
  1 20  1  0
  1 21  1  0
M  END
> <Uni-Dock RESULT> 
ENERGY=   -8.232  LOWER_BOUND=    1.674  UPPER_BOUND=    2.256
INTER + INTRA:          -8.232
INTER:                  -8.232
INTRA:                   0.000
UNBOUND:                 0.000

$$$$

     RDKit          3D

 21 13  0  0  0  0  0  0  0  0999 V2000
   42.7559    5.5808   11.7558 O   0  0  0  0  0  0  0  0  0  0  0  0
   43.1473    5.2569   10.9315 Mg  0  0  0  0  0  2  0  0  0  0  0  0
   42.8325    5.3392   12.6882 O   0  0  0  0  0  0  0  0  0  0  0  0
   43.1482    5.2567   10.9264 Mg  0  0  0  0  0  2  0  0  0  0  0  0
   42.8316    5.3394   12.6932 O   0  0  0  0  0  0  0  0  0  0  0  0
   43.1479    5.2567   10.9281 Mg  0  0  0  0  0  2  0  0  0  0  0  0
   42.8319    5.3393   12.6915 O   0  0  0  0  0  0  0  0  0  0  0  0
   42.9139    5.3896   11.7941 Si  0  0  0  0  0  4  0  0  0  0  0  0
   43.3036    5.1802   10.2785 O   0  0  0  0  0  0  0  0  0  0  0  0
   42.7522    5.3243   13.3567 O   0  0  0  0  0  0  0  0  0  0  0  0
   42.9396    5.3581   11.8023 Si  0  0  0  0  0  4  0  0  0  0  0  0
   43.2905    5.1960   10.2760 O   0  0  0  0  0  0  0  0  0  0  0  0
   42.7396    5.3399   13.3512 O   0  0  0  0  0  0  0  0  0  0  0  0
   42.9644    5.3282   11.8074 Si  0  0  0  0  0  4  0  0  0  0  0  0
   43.2787    5.2108   10.2702 O   0  0  0  0  0  0  0  0  0  0  0  0
   42.7265    5.3550   13.3519 O   0  0  0  0  0  0  0  0  0  0  0  0
   42.9352    5.3638   11.7993 Si  0  0  0  0  0  4  0  0  0  0  0  0
   42.7417    5.3371   13.3529 O   0  0  0  0  0  0  0  0  0  0  0  0
   43.2928    5.1932   10.2772 O   0  0  0  0  0  0  0  0  0  0  0  0
   43.2506    5.1193   11.0337 H   0  0  0  0  0  0  0  0  0  0  0  0
   42.9631    5.1940   12.6400 H   0  0  0  0  0  0  0  0  0  0  0  0
  2  3  2  0
  4  5  2  0
  6  7  2  0
  8  9  2  0
  8 10  2  0
 11 12  2  0
 11 13  2  0
 14 15  2  0
 14 16  2  0
 17 18  2  0
 17 19  2  0
  1 20  1  0
  1 21  1  0
M  END
> <Uni-Dock RESULT> 
ENERGY=   -7.800  LOWER_BOUND=    6.858  UPPER_BOUND=    7.933
INTER + INTRA:          -7.800
INTER:                  -7.800
INTRA:                   0.000
UNBOUND:                 0.000

$$$$

     RDKit          3D

 21 13  0  0  0  0  0  0  0  0999 V2000
   42.7447    5.5659   11.7413 O   0  0  0  0  0  0  0  0  0  0  0  0
   42.8189    5.3364   12.6791 Mg  0  0  0  0  0  2  0  0  0  0  0  0
   43.1468    5.2397   10.9255 O   0  0  0  0  0  0  0  0  0  0  0  0
   42.8179    5.3366   12.6841 Mg  0  0  0  0  0  2  0  0  0  0  0  0
   43.1477    5.2394   10.9205 O   0  0  0  0  0  0  0  0  0  0  0  0
   42.8182    5.3365   12.6824 Mg  0  0  0  0  0  2  0  0  0  0  0  0
   43.1474    5.2395   10.9221 O   0  0  0  0  0  0  0  0  0  0  0  0
   42.9061    5.3778   11.7807 Si  0  0  0  0  0  4  0  0  0  0  0  0
   42.7338    5.3279   13.3494 O   0  0  0  0  0  0  0  0  0  0  0  0
   43.3085    5.1583   10.2768 O   0  0  0  0  0  0  0  0  0  0  0  0
   42.9331    5.3467   11.7854 Si  0  0  0  0  0  4  0  0  0  0  0  0
   42.7206    5.3434   13.3455 O   0  0  0  0  0  0  0  0  0  0  0  0
   43.2948    5.1739   10.2759 O   0  0  0  0  0  0  0  0  0  0  0  0
   42.9581    5.3173   11.7925 Si  0  0  0  0  0  4  0  0  0  0  0  0
   42.7075    5.3582   13.3453 O   0  0  0  0  0  0  0  0  0  0  0  0
   43.2828    5.1885   10.2691 O   0  0  0  0  0  0  0  0  0  0  0  0
   42.9279    5.3524   11.7861 Si  0  0  0  0  0  4  0  0  0  0  0  0
   43.2974    5.1711   10.2753 O   0  0  0  0  0  0  0  0  0  0  0  0
   42.7232    5.3405   13.3455 O   0  0  0  0  0  0  0  0  0  0  0  0
   42.9518    5.1935   12.6344 H   0  0  0  0  0  0  0  0  0  0  0  0
   43.2520    5.1046   11.0311 H   0  0  0  0  0  0  0  0  0  0  0  0
  2  3  2  0
  4  5  2  0
  6  7  2  0
  8  9  2  0
  8 10  2  0
 11 12  2  0
 11 13  2  0
 14 15  2  0
 14 16  2  0
 17 18  2  0
 17 19  2  0
  1 20  1  0
  1 21  1  0
M  END
> <Uni-Dock RESULT> 
ENERGY=   -7.581  LOWER_BOUND=    7.045  UPPER_BOUND=    7.628
INTER + INTRA:          -7.581
INTER:                  -7.581
INTRA:                   0.000
UNBOUND:                 0.000

$$$$

     RDKit          3D

 21 13  0  0  0  0  0  0  0  0999 V2000
   43.2576    5.2876   12.5279 O   0  0  0  0  0  0  0  0  0  0  0  0
   43.5211    4.4292   12.8903 Mg  0  0  0  0  0  2  0  0  0  0  0  0
   42.4838    5.6190   12.0535 O   0  0  0  0  0  0  0  0  0  0  0  0
   43.5241    4.4258   12.8927 Mg  0  0  0  0  0  2  0  0  0  0  0  0
   42.4809    5.6224   12.0511 O   0  0  0  0  0  0  0  0  0  0  0  0
   43.5231    4.4270   12.8919 Mg  0  0  0  0  0  2  0  0  0  0  0  0
   42.4818    5.6213   12.0519 O   0  0  0  0  0  0  0  0  0  0  0  0
   43.0839    5.1106   12.4891 Si  0  0  0  0  0  4  0  0  0  0  0  0
   43.8707    3.9386   13.1964 O   0  0  0  0  0  0  0  0  0  0  0  0
   42.0529    6.0232   11.7301 O   0  0  0  0  0  0  0  0  0  0  0  0
   43.0542    5.0826   12.4819 Si  0  0  0  0  0  4  0  0  0  0  0  0
   43.8846    3.9536   13.1993 O   0  0  0  0  0  0  0  0  0  0  0  0
   42.0686    6.0361   11.7344 O   0  0  0  0  0  0  0  0  0  0  0  0
   43.0276    5.0544   12.4762 Si  0  0  0  0  0  4  0  0  0  0  0  0
   43.8998    3.9654   13.2037 O   0  0  0  0  0  0  0  0  0  0  0  0
   42.0800    6.0525   11.7357 O   0  0  0  0  0  0  0  0  0  0  0  0
   43.0605    5.0866   12.4839 Si  0  0  0  0  0  4  0  0  0  0  0  0
   42.0653    6.0343   11.7333 O   0  0  0  0  0  0  0  0  0  0  0  0
   43.8816    3.9513   13.1985 O   0  0  0  0  0  0  0  0  0  0  0  0
   43.3493    4.3487   12.8265 H   0  0  0  0  0  0  0  0  0  0  0  0
   42.4005    5.4361   12.0613 H   0  0  0  0  0  0  0  0  0  0  0  0
  2  3  2  0
  4  5  2  0
  6  7  2  0
  8  9  2  0
  8 10  2  0
 11 12  2  0
 11 13  2  0
 14 15  2  0
 14 16  2  0
 17 18  2  0
 17 19  2  0
  1 20  1  0
  1 21  1  0
M  END
> <Uni-Dock RESULT> 
ENERGY=   -7.163  LOWER_BOUND=    7.846  UPPER_BOUND=    8.067
INTER + INTRA:          -7.163
INTER:                  -7.163
INTRA:                   0.000
UNBOUND:                 0.000

$$$$

     RDKit          3D

 21 13  0  0  0  0  0  0  0  0999 V2000
   45.1591    3.1021    8.8427 O   0  0  0  0  0  0  0  0  0  0  0  0
   45.2284    2.1388    8.7728 Mg  0  0  0  0  0  2  0  0  0  0  0  0
   44.4637    3.7502    8.6694 O   0  0  0  0  0  0  0  0  0  0  0  0
   45.2306    2.1342    8.7731 Mg  0  0  0  0  0  2  0  0  0  0  0  0
   44.4615    3.7548    8.6691 O   0  0  0  0  0  0  0  0  0  0  0  0
   45.2298    2.1357    8.7730 Mg  0  0  0  0  0  2  0  0  0  0  0  0
   44.4623    3.7532    8.6692 O   0  0  0  0  0  0  0  0  0  0  0  0
   44.9465    2.9971    8.7603 Si  0  0  0  0  0  4  0  0  0  0  0  0
   45.4658    1.5064    8.7921 O   0  0  0  0  0  0  0  0  0  0  0  0
   44.1258    4.3298    8.6109 O   0  0  0  0  0  0  0  0  0  0  0  0
   44.9107    2.9814    8.7466 Si  0  0  0  0  0  4  0  0  0  0  0  0
   45.4831    1.5157    8.7989 O   0  0  0  0  0  0  0  0  0  0  0  0
   44.1443    4.3363    8.6178 O   0  0  0  0  0  0  0  0  0  0  0  0
   44.8779    2.9643    8.7338 Si  0  0  0  0  0  4  0  0  0  0  0  0
   45.5008    1.5212    8.8054 O   0  0  0  0  0  0  0  0  0  0  0  0
   44.1594    4.3479    8.6240 O   0  0  0  0  0  0  0  0  0  0  0  0
   44.9178    2.9829    8.7492 Si  0  0  0  0  0  4  0  0  0  0  0  0
   44.1407    4.3358    8.6165 O   0  0  0  0  0  0  0  0  0  0  0  0
   45.4796    1.5146    8.7976 O   0  0  0  0  0  0  0  0  0  0  0  0
   45.0393    2.1292    8.7077 H   0  0  0  0  0  0  0  0  0  0  0  0
   44.3397    3.6022    8.6130 H   0  0  0  0  0  0  0  0  0  0  0  0
  2  3  2  0
  4  5  2  0
  6  7  2  0
  8  9  2  0
  8 10  2  0
 11 12  2  0
 11 13  2  0
 14 15  2  0
 14 16  2  0
 17 18  2  0
 17 19  2  0
  1 20  1  0
  1 21  1  0
M  END
> <Uni-Dock RESULT> 
ENERGY=   -7.103  LOWER_BOUND=    3.253  UPPER_BOUND=    3.825
INTER + INTRA:          -7.103
INTER:                  -7.103
INTRA:                   0.000
UNBOUND:                 0.000

$$$$

     RDKit          3D

 21 13  0  0  0  0  0  0  0  0999 V2000
   39.0354    4.8989    5.3332 O   0  0  0  0  0  0  0  0  0  0  0  0
   39.7408    5.3696    4.8659 Mg  0  0  0  0  0  2  0  0  0  0  0  0
   38.8719    3.9766    5.5705 O   0  0  0  0  0  0  0  0  0  0  0  0
   39.7433    5.3736    4.8638 Mg  0  0  0  0  0  2  0  0  0  0  0  0
   38.8694    3.9727    5.5725 O   0  0  0  0  0  0  0  0  0  0  0  0
   39.7425    5.3723    4.8645 Mg  0  0  0  0  0  2  0  0  0  0  0  0
   38.8703    3.9740    5.5719 O   0  0  0  0  0  0  0  0  0  0  0  0
   39.2178    4.7447    5.2561 Si  0  0  0  0  0  4  0  0  0  0  0  0
   40.1118    5.8578    4.5819 O   0  0  0  0  0  0  0  0  0  0  0  0
   38.5895    3.4169    5.8165 O   0  0  0  0  0  0  0  0  0  0  0  0
   39.2470    4.7179    5.2441 Si  0  0  0  0  0  4  0  0  0  0  0  0
   40.0964    5.8700    4.5885 O   0  0  0  0  0  0  0  0  0  0  0  0
   38.5757    3.4314    5.8219 O   0  0  0  0  0  0  0  0  0  0  0  0
   39.2759    4.6945    5.2317 Si  0  0  0  0  0  4  0  0  0  0  0  0
   40.0837    5.8843    4.5933 O   0  0  0  0  0  0  0  0  0  0  0  0
   38.5595    3.4406    5.8294 O   0  0  0  0  0  0  0  0  0  0  0  0
   39.2425    4.7239    5.2457 Si  0  0  0  0  0  4  0  0  0  0  0  0
   38.5778    3.4282    5.8212 O   0  0  0  0  0  0  0  0  0  0  0  0
   40.0989    5.8672    4.5876 O   0  0  0  0  0  0  0  0  0  0  0  0
   39.8389    5.1972    4.8387 H   0  0  0  0  0  0  0  0  0  0  0  0
   39.0449    3.9232    5.4827 H   0  0  0  0  0  0  0  0  0  0  0  0
  2  3  2  0
  4  5  2  0
  6  7  2  0
  8  9  2  0
  8 10  2  0
 11 12  2  0
 11 13  2  0
 14 15  2  0
 14 16  2  0
 17 18  2  0
 17 19  2  0
  1 20  1  0
  1 21  1  0
M  END
> <Uni-Dock RESULT> 
ENERGY=   -7.080  LOWER_BOUND=    8.751  UPPER_BOUND=    9.042
INTER + INTRA:          -7.080
INTER:                  -7.080
INTRA:                   0.000
UNBOUND:                 0.000

$$$$

     RDKit          3D

 21 13  0  0  0  0  0  0  0  0999 V2000
   39.3672   12.9925   15.7888 O   0  0  0  0  0  0  0  0  0  0  0  0
   38.4043   12.9264   15.7113 Mg  0  0  0  0  0  2  0  0  0  0  0  0
   40.0956   12.3577   15.8003 O   0  0  0  0  0  0  0  0  0  0  0  0
   38.3994   12.9280   15.7110 Mg  0  0  0  0  0  2  0  0  0  0  0  0
   40.1004   12.3561   15.8005 O   0  0  0  0  0  0  0  0  0  0  0  0
   38.4010   12.9275   15.7111 Mg  0  0  0  0  0  2  0  0  0  0  0  0
   40.0988   12.3567   15.8005 O   0  0  0  0  0  0  0  0  0  0  0  0
   39.2896   12.7548   15.7666 Si  0  0  0  0  0  4  0  0  0  0  0  0
   37.7483   13.0840   15.6724 O   0  0  0  0  0  0  0  0  0  0  0  0
   40.7118   12.0874   15.8284 O   0  0  0  0  0  0  0  0  0  0  0  0
   39.2785   12.7151   15.7630 Si  0  0  0  0  0  4  0  0  0  0  0  0
   37.7553   13.1034   15.6743 O   0  0  0  0  0  0  0  0  0  0  0  0
   40.7159   12.1077   15.8301 O   0  0  0  0  0  0  0  0  0  0  0  0
   39.2656   12.6782   15.7595 Si  0  0  0  0  0  4  0  0  0  0  0  0
   37.7586   13.1228   15.6759 O   0  0  0  0  0  0  0  0  0  0  0  0
   40.7256   12.1251   15.8320 O   0  0  0  0  0  0  0  0  0  0  0  0
   39.2791   12.7228   15.7636 Si  0  0  0  0  0  4  0  0  0  0  0  0
   40.7159   12.1038   15.8298 O   0  0  0  0  0  0  0  0  0  0  0  0
   37.7547   13.0996   15.6740 O   0  0  0  0  0  0  0  0  0  0  0  0
   38.4182   12.7271   15.6986 H   0  0  0  0  0  0  0  0  0  0  0  0
   39.9644   12.2066   15.7799 H   0  0  0  0  0  0  0  0  0  0  0  0
  2  3  2  0
  4  5  2  0
  6  7  2  0
  8  9  2  0
  8 10  2  0
 11 12  2  0
 11 13  2  0
 14 15  2  0
 14 16  2  0
 17 18  2  0
 17 19  2  0
  1 20  1  0
  1 21  1  0
M  END
> <Uni-Dock RESULT> 
ENERGY=   -6.134  LOWER_BOUND=   15.793  UPPER_BOUND=   16.353
INTER + INTRA:          -6.134
INTER:                  -6.134
INTRA:                   0.000
UNBOUND:                 0.000

$$$$
