
     RDKit          3D

 21 13  0  0  0  0  0  0  0  0999 V2000
   47.6850    2.2067    6.6247 O   0  0  0  0  0  0  0  0  0  0  0  0
   47.8336    2.4038    5.6824 Mg  0  0  0  0  0  2  0  0  0  0  0  0
   47.4461    1.4068    7.1122 O   0  0  0  0  0  0  0  0  0  0  0  0
   47.8335    2.4034    5.6829 Mg  0  0  0  0  0  2  0  0  0  0  0  0
   47.4462    1.4071    7.1117 O   0  0  0  0  0  0  0  0  0  0  0  0
   47.8337    2.4040    5.6821 Mg  0  0  0  0  0  2  0  0  0  0  0  0
   47.4460    1.4066    7.1125 O   0  0  0  0  0  0  0  0  0  0  0  0
   47.6567    2.0172    6.4808 Si  0  0  0  0  0  4  0  0  0  0  0  0
   47.9706    2.7220    5.1043 O   0  0  0  0  0  0  0  0  0  0  0  0
   47.2923    0.9768    7.6069 O   0  0  0  0  0  0  0  0  0  0  0  0
   47.6494    1.9689    6.4450 Si  0  0  0  0  0  4  0  0  0  0  0  0
   47.9732    2.7435    5.1258 O   0  0  0  0  0  0  0  0  0  0  0  0
   47.2969    1.0034    7.6212 O   0  0  0  0  0  0  0  0  0  0  0  0
   47.6585    2.0303    6.4924 Si  0  0  0  0  0  4  0  0  0  0  0  0
   47.2932    0.9747    7.5943 O   0  0  0  0  0  0  0  0  0  0  0  0
   47.9679    2.7108    5.1052 O   0  0  0  0  0  0  0  0  0  0  0  0
   47.6510    1.9815    6.4570 Si  0  0  0  0  0  4  0  0  0  0  0  0
   47.2955    0.9955    7.6174 O   0  0  0  0  0  0  0  0  0  0  0  0
   47.9731    2.7389    5.1175 O   0  0  0  0  0  0  0  0  0  0  0  0
   47.7935    2.2086    5.6350 H   0  0  0  0  0  0  0  0  0  0  0  0
   47.4411    1.3006    6.9323 H   0  0  0  0  0  0  0  0  0  0  0  0
  2  3  2  0
  4  5  2  0
  6  7  2  0
  8  9  2  0
  8 10  2  0
 11 12  2  0
 11 13  2  0
 14 15  2  0
 14 16  2  0
 17 18  2  0
 17 19  2  0
  1 20  1  0
  1 21  1  0
M  END
> <Uni-Dock RESULT> 
ENERGY=   -9.474  LOWER_BOUND=    0.000  UPPER_BOUND=    0.000
INTER + INTRA:          -9.474
INTER:                  -9.474
INTRA:                   0.000
UNBOUND:                 0.000

$$$$

     RDKit          3D

 21 13  0  0  0  0  0  0  0  0999 V2000
   47.3496    1.8482    6.9760 O   0  0  0  0  0  0  0  0  0  0  0  0
   47.1701    0.9581    7.3286 Mg  0  0  0  0  0  2  0  0  0  0  0  0
   47.8331    2.1792    6.2072 O   0  0  0  0  0  0  0  0  0  0  0  0
   47.1703    0.9585    7.3282 Mg  0  0  0  0  0  2  0  0  0  0  0  0
   47.8329    2.1788    6.2075 O   0  0  0  0  0  0  0  0  0  0  0  0
   47.1699    0.9578    7.3288 Mg  0  0  0  0  0  2  0  0  0  0  0  0
   47.8333    2.1795    6.2069 O   0  0  0  0  0  0  0  0  0  0  0  0
   47.4451    1.6715    6.8453 Si  0  0  0  0  0  4  0  0  0  0  0  0
   46.9495    0.4486    7.7106 O   0  0  0  0  0  0  0  0  0  0  0  0
   48.1101    2.5860    5.7477 O   0  0  0  0  0  0  0  0  0  0  0  0
   47.4695    1.6274    6.8119 Si  0  0  0  0  0  4  0  0  0  0  0  0
   46.9390    0.4737    7.7245 O   0  0  0  0  0  0  0  0  0  0  0  0
   48.0963    2.6050    5.7672 O   0  0  0  0  0  0  0  0  0  0  0  0
   47.4386    1.6854    6.8541 Si  0  0  0  0  0  4  0  0  0  0  0  0
   48.1104    2.5732    5.7484 O   0  0  0  0  0  0  0  0  0  0  0  0
   46.9558    0.4474    7.7011 O   0  0  0  0  0  0  0  0  0  0  0  0
   47.4633    1.6415    6.8201 Si  0  0  0  0  0  4  0  0  0  0  0  0
   48.1005    2.5998    5.7613 O   0  0  0  0  0  0  0  0  0  0  0  0
   46.9410    0.4647    7.7222 O   0  0  0  0  0  0  0  0  0  0  0  0
   47.2758    0.8752    7.1739 H   0  0  0  0  0  0  0  0  0  0  0  0
   47.8794    1.9827    6.1535 H   0  0  0  0  0  0  0  0  0  0  0  0
  2  3  2  0
  4  5  2  0
  6  7  2  0
  8  9  2  0
  8 10  2  0
 11 12  2  0
 11 13  2  0
 14 15  2  0
 14 16  2  0
 17 18  2  0
 17 19  2  0
  1 20  1  0
  1 21  1  0
M  END
> <Uni-Dock RESULT> 
ENERGY=   -9.204  LOWER_BOUND=    1.054  UPPER_BOUND=    2.300
INTER + INTRA:          -9.204
INTER:                  -9.204
INTRA:                   0.000
UNBOUND:                 0.000

$$$$

     RDKit          3D

 21 13  0  0  0  0  0  0  0  0999 V2000
   42.7571    5.5881   11.7594 O   0  0  0  0  0  0  0  0  0  0  0  0
   43.1527    5.2478   10.9370 Mg  0  0  0  0  0  2  0  0  0  0  0  0
   42.8333    5.3423   12.6912 O   0  0  0  0  0  0  0  0  0  0  0  0
   43.1526    5.2478   10.9376 Mg  0  0  0  0  0  2  0  0  0  0  0  0
   42.8334    5.3423   12.6907 O   0  0  0  0  0  0  0  0  0  0  0  0
   43.1528    5.2478   10.9366 Mg  0  0  0  0  0  2  0  0  0  0  0  0
   42.8333    5.3423   12.6916 O   0  0  0  0  0  0  0  0  0  0  0  0
   42.9059    5.4034   11.7931 Si  0  0  0  0  0  4  0  0  0  0  0  0
   43.3161    5.1582   10.2893 O   0  0  0  0  0  0  0  0  0  0  0  0
   42.7571    5.3236   13.3599 O   0  0  0  0  0  0  0  0  0  0  0  0
   42.9434    5.3568   11.8024 Si  0  0  0  0  0  4  0  0  0  0  0  0
   43.2966    5.1818   10.2891 O   0  0  0  0  0  0  0  0  0  0  0  0
   42.7392    5.3466   13.3510 O   0  0  0  0  0  0  0  0  0  0  0  0
   42.8947    5.4170   11.7920 Si  0  0  0  0  0  4  0  0  0  0  0  0
   42.7643    5.3162   13.3524 O   0  0  0  0  0  0  0  0  0  0  0  0
   43.3201    5.1519   10.2980 O   0  0  0  0  0  0  0  0  0  0  0  0
   42.9323    5.3702   11.8019 Si  0  0  0  0  0  4  0  0  0  0  0  0
   42.7442    5.3400   13.3540 O   0  0  0  0  0  0  0  0  0  0  0  0
   43.3026    5.1749   10.2865 O   0  0  0  0  0  0  0  0  0  0  0  0
   43.2552    5.1067   11.0444 H   0  0  0  0  0  0  0  0  0  0  0  0
   42.9668    5.1904   12.6386 H   0  0  0  0  0  0  0  0  0  0  0  0
  2  3  2  0
  4  5  2  0
  6  7  2  0
  8  9  2  0
  8 10  2  0
 11 12  2  0
 11 13  2  0
 14 15  2  0
 14 16  2  0
 17 18  2  0
 17 19  2  0
  1 20  1  0
  1 21  1  0
M  END
> <Uni-Dock RESULT> 
ENERGY=   -7.821  LOWER_BOUND=    7.688  UPPER_BOUND=    7.933
INTER + INTRA:          -7.821
INTER:                  -7.821
INTRA:                   0.000
UNBOUND:                 0.000

$$$$

     RDKit          3D

 21 13  0  0  0  0  0  0  0  0999 V2000
   42.7498    5.5874   11.7534 O   0  0  0  0  0  0  0  0  0  0  0  0
   42.8330    5.3420   12.6923 Mg  0  0  0  0  0  2  0  0  0  0  0  0
   43.1440    5.2535   10.9362 O   0  0  0  0  0  0  0  0  0  0  0  0
   42.8331    5.3419   12.6917 Mg  0  0  0  0  0  2  0  0  0  0  0  0
   43.1439    5.2535   10.9368 O   0  0  0  0  0  0  0  0  0  0  0  0
   42.8329    5.3420   12.6927 Mg  0  0  0  0  0  2  0  0  0  0  0  0
   43.1440    5.2535   10.9359 O   0  0  0  0  0  0  0  0  0  0  0  0
   42.9001    5.4049   11.7925 Si  0  0  0  0  0  4  0  0  0  0  0  0
   42.7605    5.3216   13.3621 O   0  0  0  0  0  0  0  0  0  0  0  0
   43.3048    5.1667   10.2882 O   0  0  0  0  0  0  0  0  0  0  0  0
   42.9382    5.3588   11.8017 Si  0  0  0  0  0  4  0  0  0  0  0  0
   42.7423    5.3444   13.3530 O   0  0  0  0  0  0  0  0  0  0  0  0
   43.2850    5.1900   10.2881 O   0  0  0  0  0  0  0  0  0  0  0  0
   42.8893    5.4182   11.7883 Si  0  0  0  0  0  4  0  0  0  0  0  0
   43.3089    5.1603   10.2985 O   0  0  0  0  0  0  0  0  0  0  0  0
   42.7673    5.3146   13.3560 O   0  0  0  0  0  0  0  0  0  0  0  0
   42.9277    5.3719   11.7969 Si  0  0  0  0  0  4  0  0  0  0  0  0
   43.2908    5.1833   10.2877 O   0  0  0  0  0  0  0  0  0  0  0  0
   42.7470    5.3381   13.3583 O   0  0  0  0  0  0  0  0  0  0  0  0
   42.9657    5.1942   12.6422 H   0  0  0  0  0  0  0  0  0  0  0  0
   43.2500    5.1117   11.0472 H   0  0  0  0  0  0  0  0  0  0  0  0
  2  3  2  0
  4  5  2  0
  6  7  2  0
  8  9  2  0
  8 10  2  0
 11 12  2  0
 11 13  2  0
 14 15  2  0
 14 16  2  0
 17 18  2  0
 17 19  2  0
  1 20  1  0
  1 21  1  0
M  END
> <Uni-Dock RESULT> 
ENERGY=   -7.616  LOWER_BOUND=    7.762  UPPER_BOUND=    8.189
INTER + INTRA:          -7.616
INTER:                  -7.616
INTRA:                   0.000
UNBOUND:                 0.000

$$$$

     RDKit          3D

 21 13  0  0  0  0  0  0  0  0999 V2000
   38.9805    4.8529    5.2664 O   0  0  0  0  0  0  0  0  0  0  0  0
   39.7342    5.3402    4.8879 Mg  0  0  0  0  0  2  0  0  0  0  0  0
   38.8598    3.9484    5.5857 O   0  0  0  0  0  0  0  0  0  0  0  0
   39.7339    5.3397    4.8881 Mg  0  0  0  0  0  2  0  0  0  0  0  0
   38.8601    3.9489    5.5855 O   0  0  0  0  0  0  0  0  0  0  0  0
   39.7343    5.3405    4.8877 Mg  0  0  0  0  0  2  0  0  0  0  0  0
   38.8596    3.9481    5.5858 O   0  0  0  0  0  0  0  0  0  0  0  0
   39.1803    4.7220    5.2474 Si  0  0  0  0  0  4  0  0  0  0  0  0
   40.1204    5.8236    4.6208 O   0  0  0  0  0  0  0  0  0  0  0  0
   38.5901    3.3874    5.8422 O   0  0  0  0  0  0  0  0  0  0  0  0
   39.2304    4.6884    5.2429 Si  0  0  0  0  0  4  0  0  0  0  0  0
   40.0932    5.8368    4.6248 O   0  0  0  0  0  0  0  0  0  0  0  0
   38.5673    3.4076    5.8427 O   0  0  0  0  0  0  0  0  0  0  0  0
   39.1650    4.7306    5.2494 Si  0  0  0  0  0  4  0  0  0  0  0  0
   38.6020    3.3894    5.8380 O   0  0  0  0  0  0  0  0  0  0  0  0
   40.1240    5.8129    4.6231 O   0  0  0  0  0  0  0  0  0  0  0  0
   39.2150    4.6963    5.2451 Si  0  0  0  0  0  4  0  0  0  0  0  0
   38.5737    3.4014    5.8427 O   0  0  0  0  0  0  0  0  0  0  0  0
   40.1023    5.8351    4.6226 O   0  0  0  0  0  0  0  0  0  0  0  0
   39.8513    5.1730    4.9051 H   0  0  0  0  0  0  0  0  0  0  0  0
   39.0592    3.9070    5.5389 H   0  0  0  0  0  0  0  0  0  0  0  0
  2  3  2  0
  4  5  2  0
  6  7  2  0
  8  9  2  0
  8 10  2  0
 11 12  2  0
 11 13  2  0
 14 15  2  0
 14 16  2  0
 17 18  2  0
 17 19  2  0
  1 20  1  0
  1 21  1  0
M  END
> <Uni-Dock RESULT> 
ENERGY=   -7.204  LOWER_BOUND=    8.883  UPPER_BOUND=    8.897
INTER + INTRA:          -7.204
INTER:                  -7.204
INTRA:                   0.000
UNBOUND:                 0.000

$$$$

     RDKit          3D

 21 13  0  0  0  0  0  0  0  0999 V2000
   45.1516    3.1535    8.7791 O   0  0  0  0  0  0  0  0  0  0  0  0
   45.1780    2.1800    8.7992 Mg  0  0  0  0  0  2  0  0  0  0  0  0
   44.4416    3.8026    8.6837 O   0  0  0  0  0  0  0  0  0  0  0  0
   45.1777    2.1805    8.7991 Mg  0  0  0  0  0  2  0  0  0  0  0  0
   44.4419    3.8020    8.6837 O   0  0  0  0  0  0  0  0  0  0  0  0
   45.1781    2.1796    8.7992 Mg  0  0  0  0  0  2  0  0  0  0  0  0
   44.4414    3.8029    8.6836 O   0  0  0  0  0  0  0  0  0  0  0  0
   44.9365    3.0506    8.7554 Si  0  0  0  0  0  4  0  0  0  0  0  0
   45.3910    1.5416    8.8355 O   0  0  0  0  0  0  0  0  0  0  0  0
   44.1020    4.3817    8.6333 O   0  0  0  0  0  0  0  0  0  0  0  0
   44.8819    3.0252    8.7494 Si  0  0  0  0  0  4  0  0  0  0  0  0
   45.4164    1.5584    8.8383 O   0  0  0  0  0  0  0  0  0  0  0  0
   44.1311    4.3903    8.6366 O   0  0  0  0  0  0  0  0  0  0  0  0
   44.9518    3.0594    8.7571 Si  0  0  0  0  0  4  0  0  0  0  0  0
   44.0976    4.3697    8.6330 O   0  0  0  0  0  0  0  0  0  0  0  0
   45.3800    1.5448    8.8342 O   0  0  0  0  0  0  0  0  0  0  0  0
   44.8966    3.0344    8.7510 Si  0  0  0  0  0  4  0  0  0  0  0  0
   44.1225    4.3882    8.6357 O   0  0  0  0  0  0  0  0  0  0  0  0
   45.4103    1.5512    8.8377 O   0  0  0  0  0  0  0  0  0  0  0  0
   44.9746    2.1737    8.7752 H   0  0  0  0  0  0  0  0  0  0  0  0
   44.3031    3.6467    8.6700 H   0  0  0  0  0  0  0  0  0  0  0  0
  2  3  2  0
  4  5  2  0
  6  7  2  0
  8  9  2  0
  8 10  2  0
 11 12  2  0
 11 13  2  0
 14 15  2  0
 14 16  2  0
 17 18  2  0
 17 19  2  0
  1 20  1  0
  1 21  1  0
M  END
> <Uni-Dock RESULT> 
ENERGY=   -7.098  LOWER_BOUND=    3.802  UPPER_BOUND=    4.277
INTER + INTRA:          -7.098
INTER:                  -7.098
INTRA:                   0.000
UNBOUND:                 0.000

$$$$

     RDKit          3D

 21 13  0  0  0  0  0  0  0  0999 V2000
   43.2482    5.2176   12.4070 O   0  0  0  0  0  0  0  0  0  0  0  0
   42.5503    5.7292   11.9599 Mg  0  0  0  0  0  2  0  0  0  0  0  0
   43.2526    4.4026   12.9270 O   0  0  0  0  0  0  0  0  0  0  0  0
   42.5506    5.7288   11.9602 Mg  0  0  0  0  0  2  0  0  0  0  0  0
   43.2524    4.4031   12.9267 O   0  0  0  0  0  0  0  0  0  0  0  0
   42.5502    5.7295   11.9597 Mg  0  0  0  0  0  2  0  0  0  0  0  0
   43.2528    4.4023   12.9272 O   0  0  0  0  0  0  0  0  0  0  0  0
   43.0294    5.1226   12.4296 Si  0  0  0  0  0  4  0  0  0  0  0  0
   42.2230    6.1987   11.6040 O   0  0  0  0  0  0  0  0  0  0  0  0
   43.4521    3.8765   13.2968 O   0  0  0  0  0  0  0  0  0  0  0  0
   42.9744    5.0980   12.4356 Si  0  0  0  0  0  4  0  0  0  0  0  0
   42.2522    6.2075   11.6034 O   0  0  0  0  0  0  0  0  0  0  0  0
   43.4778    3.8921   13.2914 O   0  0  0  0  0  0  0  0  0  0  0  0
   43.0460    5.1285   12.4286 Si  0  0  0  0  0  4  0  0  0  0  0  0
   43.4404    3.8797   13.2928 O   0  0  0  0  0  0  0  0  0  0  0  0
   42.2180    6.1896   11.6089 O   0  0  0  0  0  0  0  0  0  0  0  0
   42.9910    5.1034   12.4351 Si  0  0  0  0  0  4  0  0  0  0  0  0
   43.4706    3.8873   13.2932 O   0  0  0  0  0  0  0  0  0  0  0  0
   42.2428    6.2070   11.6021 O   0  0  0  0  0  0  0  0  0  0  0  0
   42.4104    5.5933   12.0222 H   0  0  0  0  0  0  0  0  0  0  0  0
   43.0458    4.3869   12.9012 H   0  0  0  0  0  0  0  0  0  0  0  0
  2  3  2  0
  4  5  2  0
  6  7  2  0
  8  9  2  0
  8 10  2  0
 11 12  2  0
 11 13  2  0
 14 15  2  0
 14 16  2  0
 17 18  2  0
 17 19  2  0
  1 20  1  0
  1 21  1  0
M  END
> <Uni-Dock RESULT> 
ENERGY=   -7.045  LOWER_BOUND=    8.245  UPPER_BOUND=    8.322
INTER + INTRA:          -7.045
INTER:                  -7.045
INTRA:                   0.000
UNBOUND:                 0.000

$$$$
