
     RDKit          3D

 21 13  0  0  0  0  0  0  0  0999 V2000
   47.6576    2.2156    6.5948 O   0  0  0  0  0  0  0  0  0  0  0  0
   47.8364    2.4268    5.6616 Mg  0  0  0  0  0  2  0  0  0  0  0  0
   47.4664    1.4187    7.0990 O   0  0  0  0  0  0  0  0  0  0  0  0
   47.8352    2.4233    5.6665 Mg  0  0  0  0  0  2  0  0  0  0  0  0
   47.4677    1.4222    7.0941 O   0  0  0  0  0  0  0  0  0  0  0  0
   47.8359    2.4253    5.6638 Mg  0  0  0  0  0  2  0  0  0  0  0  0
   47.4669    1.4203    7.0968 O   0  0  0  0  0  0  0  0  0  0  0  0
   47.6527    1.9951    6.4346 Si  0  0  0  0  0  4  0  0  0  0  0  0
   47.3284    1.0084    7.6051 O   0  0  0  0  0  0  0  0  0  0  0  0
   47.9731    2.7648    5.1011 O   0  0  0  0  0  0  0  0  0  0  0  0
   47.6520    1.9886    6.4334 Si  0  0  0  0  0  4  0  0  0  0  0  0
   47.3285    1.0107    7.6069 O   0  0  0  0  0  0  0  0  0  0  0  0
   47.9738    2.7690    5.1005 O   0  0  0  0  0  0  0  0  0  0  0  0
   47.6543    2.0607    6.4815 Si  0  0  0  0  0  4  0  0  0  0  0  0
   47.9706    2.7274    5.0844 O   0  0  0  0  0  0  0  0  0  0  0  0
   47.3293    0.9802    7.5750 O   0  0  0  0  0  0  0  0  0  0  0  0
   47.6531    2.0135    6.4484 Si  0  0  0  0  0  4  0  0  0  0  0  0
   47.9734    2.7570    5.0924 O   0  0  0  0  0  0  0  0  0  0  0  0
   47.3278    0.9978    7.6001 O   0  0  0  0  0  0  0  0  0  0  0  0
   47.4776    1.3098    6.9348 H   0  0  0  0  0  0  0  0  0  0  0  0
   47.8190    2.2429    5.6113 H   0  0  0  0  0  0  0  0  0  0  0  0
  2  3  2  0
  4  5  2  0
  6  7  2  0
  8  9  2  0
  8 10  2  0
 11 12  2  0
 11 13  2  0
 14 15  2  0
 14 16  2  0
 17 18  2  0
 17 19  2  0
  1 20  1  0
  1 21  1  0
M  END
> <Uni-Dock RESULT> 
ENERGY=   -9.445  LOWER_BOUND=    0.000  UPPER_BOUND=    0.000
INTER + INTRA:          -9.445
INTER:                  -9.445
INTRA:                   0.000
UNBOUND:                 0.000

$$$$

     RDKit          3D

 21 13  0  0  0  0  0  0  0  0999 V2000
   47.6343    2.0936    6.7517 O   0  0  0  0  0  0  0  0  0  0  0  0
   47.2567    1.3471    7.2494 Mg  0  0  0  0  0  2  0  0  0  0  0  0
   47.8626    2.2675    5.8334 O   0  0  0  0  0  0  0  0  0  0  0  0
   47.2588    1.3502    7.2446 Mg  0  0  0  0  0  2  0  0  0  0  0  0
   47.8605    2.2644    5.8382 O   0  0  0  0  0  0  0  0  0  0  0  0
   47.2577    1.3485    7.2472 Mg  0  0  0  0  0  2  0  0  0  0  0  0
   47.8617    2.2661    5.8355 O   0  0  0  0  0  0  0  0  0  0  0  0
   47.5787    1.8792    6.5930 Si  0  0  0  0  0  4  0  0  0  0  0  0
   48.0779    2.5729    5.2821 O   0  0  0  0  0  0  0  0  0  0  0  0
   47.0225    0.9697    7.7491 O   0  0  0  0  0  0  0  0  0  0  0  0
   47.5784    1.8759    6.5871 Si  0  0  0  0  0  4  0  0  0  0  0  0
   48.0785    2.5753    5.2838 O   0  0  0  0  0  0  0  0  0  0  0  0
   47.0221    0.9706    7.7533 O   0  0  0  0  0  0  0  0  0  0  0  0
   47.5949    1.9423    6.6404 Si  0  0  0  0  0  4  0  0  0  0  0  0
   47.0172    0.9425    7.7189 O   0  0  0  0  0  0  0  0  0  0  0  0
   48.0669    2.5371    5.2648 O   0  0  0  0  0  0  0  0  0  0  0  0
   47.5834    1.8974    6.6061 Si  0  0  0  0  0  4  0  0  0  0  0  0
   47.0193    0.9594    7.7445 O   0  0  0  0  0  0  0  0  0  0  0  0
   48.0763    2.5650    5.2737 O   0  0  0  0  0  0  0  0  0  0  0  0
   47.8014    2.0871    5.7819 H   0  0  0  0  0  0  0  0  0  0  0  0
   47.2433    1.2412    7.0904 H   0  0  0  0  0  0  0  0  0  0  0  0
  2  3  2  0
  4  5  2  0
  6  7  2  0
  8  9  2  0
  8 10  2  0
 11 12  2  0
 11 13  2  0
 14 15  2  0
 14 16  2  0
 17 18  2  0
 17 19  2  0
  1 20  1  0
  1 21  1  0
M  END
> <Uni-Dock RESULT> 
ENERGY=   -9.368  LOWER_BOUND=    0.882  UPPER_BOUND=    2.267
INTER + INTRA:          -9.368
INTER:                  -9.368
INTRA:                   0.000
UNBOUND:                 0.000

$$$$

     RDKit          3D

 21 13  0  0  0  0  0  0  0  0999 V2000
   47.7815    2.3573    6.4299 O   0  0  0  0  0  0  0  0  0  0  0  0
   47.3410    2.7826    5.6731 Mg  0  0  0  0  0  2  0  0  0  0  0  0
   47.6452    1.5596    6.9502 O   0  0  0  0  0  0  0  0  0  0  0  0
   47.3421    2.7784    5.6774 Mg  0  0  0  0  0  2  0  0  0  0  0  0
   47.6442    1.5638    6.9459 O   0  0  0  0  0  0  0  0  0  0  0  0
   47.3415    2.7807    5.6750 Mg  0  0  0  0  0  2  0  0  0  0  0  0
   47.6448    1.5614    6.9483 O   0  0  0  0  0  0  0  0  0  0  0  0
   47.5652    2.2168    6.3419 Si  0  0  0  0  0  4  0  0  0  0  0  0
   47.7220    1.0829    7.4089 O   0  0  0  0  0  0  0  0  0  0  0  0
   47.1922    3.2136    5.1841 O   0  0  0  0  0  0  0  0  0  0  0  0
   47.5608    2.2117    6.3420 Si  0  0  0  0  0  4  0  0  0  0  0  0
   47.7244    1.0844    7.4100 O   0  0  0  0  0  0  0  0  0  0  0  0
   47.1942    3.2173    5.1829 O   0  0  0  0  0  0  0  0  0  0  0  0
   47.6291    2.2588    6.3675 Si  0  0  0  0  0  4  0  0  0  0  0  0
   47.1618    3.1870    5.1773 O   0  0  0  0  0  0  0  0  0  0  0  0
   47.6885    1.0675    7.3902 O   0  0  0  0  0  0  0  0  0  0  0  0
   47.5834    2.2284    6.3495 Si  0  0  0  0  0  4  0  0  0  0  0  0
   47.1828    3.2095    5.1786 O   0  0  0  0  0  0  0  0  0  0  0  0
   47.7132    1.0755    7.4068 O   0  0  0  0  0  0  0  0  0  0  0  0
   47.4877    1.5128    6.8409 H   0  0  0  0  0  0  0  0  0  0  0  0
   47.2103    2.6430    5.6642 H   0  0  0  0  0  0  0  0  0  0  0  0
  2  3  2  0
  4  5  2  0
  6  7  2  0
  8  9  2  0
  8 10  2  0
 11 12  2  0
 11 13  2  0
 14 15  2  0
 14 16  2  0
 17 18  2  0
 17 19  2  0
  1 20  1  0
  1 21  1  0
M  END
> <Uni-Dock RESULT> 
ENERGY=   -9.338  LOWER_BOUND=    0.545  UPPER_BOUND=    0.550
INTER + INTRA:          -9.338
INTER:                  -9.338
INTRA:                   0.000
UNBOUND:                 0.000

$$$$

     RDKit          3D

 21 13  0  0  0  0  0  0  0  0999 V2000
   42.7564    5.5712   11.7645 O   0  0  0  0  0  0  0  0  0  0  0  0
   43.1469    5.2527   10.9316 Mg  0  0  0  0  0  2  0  0  0  0  0  0
   42.8271    5.3373   12.6951 O   0  0  0  0  0  0  0  0  0  0  0  0
   43.1458    5.2530   10.9376 Mg  0  0  0  0  0  2  0  0  0  0  0  0
   42.8282    5.3370   12.6891 O   0  0  0  0  0  0  0  0  0  0  0  0
   43.1464    5.2529   10.9343 Mg  0  0  0  0  0  2  0  0  0  0  0  0
   42.8276    5.3372   12.6924 O   0  0  0  0  0  0  0  0  0  0  0  0
   42.9293    5.3639   11.8022 Si  0  0  0  0  0  4  0  0  0  0  0  0
   42.7374    5.3342   13.3550 O   0  0  0  0  0  0  0  0  0  0  0  0
   43.2943    5.1870   10.2828 O   0  0  0  0  0  0  0  0  0  0  0  0
   42.9326    5.3594   11.8059 Si  0  0  0  0  0  4  0  0  0  0  0  0
   42.7354    5.3365   13.3547 O   0  0  0  0  0  0  0  0  0  0  0  0
   43.2928    5.1892   10.2793 O   0  0  0  0  0  0  0  0  0  0  0  0
   42.8783    5.4252   11.7904 Si  0  0  0  0  0  4  0  0  0  0  0  0
   43.3182    5.1568   10.2968 O   0  0  0  0  0  0  0  0  0  0  0  0
   42.7644    5.3031   13.3528 O   0  0  0  0  0  0  0  0  0  0  0  0
   42.9147    5.3814   11.7993 Si  0  0  0  0  0  4  0  0  0  0  0  0
   43.3019    5.1782   10.2818 O   0  0  0  0  0  0  0  0  0  0  0  0
   42.7443    5.3255   13.3587 O   0  0  0  0  0  0  0  0  0  0  0  0
   42.9560    5.1945   12.6514 H   0  0  0  0  0  0  0  0  0  0  0  0
   43.2485    5.1195   11.0242 H   0  0  0  0  0  0  0  0  0  0  0  0
  2  3  2  0
  4  5  2  0
  6  7  2  0
  8  9  2  0
  8 10  2  0
 11 12  2  0
 11 13  2  0
 14 15  2  0
 14 16  2  0
 17 18  2  0
 17 19  2  0
  1 20  1  0
  1 21  1  0
M  END
> <Uni-Dock RESULT> 
ENERGY=   -7.811  LOWER_BOUND=    7.703  UPPER_BOUND=    7.946
INTER + INTRA:          -7.811
INTER:                  -7.811
INTRA:                   0.000
UNBOUND:                 0.000

$$$$

     RDKit          3D

 21 13  0  0  0  0  0  0  0  0999 V2000
   42.7562    5.5726   11.7528 O   0  0  0  0  0  0  0  0  0  0  0  0
   42.8288    5.3394   12.6950 Mg  0  0  0  0  0  2  0  0  0  0  0  0
   43.1418    5.2554   10.9303 O   0  0  0  0  0  0  0  0  0  0  0  0
   42.8299    5.3391   12.6890 Mg  0  0  0  0  0  2  0  0  0  0  0  0
   43.1407    5.2557   10.9363 O   0  0  0  0  0  0  0  0  0  0  0  0
   42.8293    5.3392   12.6924 Mg  0  0  0  0  0  2  0  0  0  0  0  0
   43.1413    5.2555   10.9330 O   0  0  0  0  0  0  0  0  0  0  0  0
   42.9284    5.3660   11.7967 Si  0  0  0  0  0  4  0  0  0  0  0  0
   43.2864    5.1899   10.2835 O   0  0  0  0  0  0  0  0  0  0  0  0
   42.7411    5.3363   13.3579 O   0  0  0  0  0  0  0  0  0  0  0  0
   42.9327    5.3612   11.7948 Si  0  0  0  0  0  4  0  0  0  0  0  0
   43.2846    5.1921   10.2830 O   0  0  0  0  0  0  0  0  0  0  0  0
   42.7386    5.3388   13.3604 O   0  0  0  0  0  0  0  0  0  0  0  0
   42.8773    5.4271   11.7843 Si  0  0  0  0  0  4  0  0  0  0  0  0
   42.7680    5.3054   13.3559 O   0  0  0  0  0  0  0  0  0  0  0  0
   43.3106    5.1596   10.2979 O   0  0  0  0  0  0  0  0  0  0  0  0
   42.9140    5.3833   11.7927 Si  0  0  0  0  0  4  0  0  0  0  0  0
   42.7478    5.3278   13.3622 O   0  0  0  0  0  0  0  0  0  0  0  0
   43.2941    5.1811   10.2832 O   0  0  0  0  0  0  0  0  0  0  0  0
   43.2454    5.1195   11.0290 H   0  0  0  0  0  0  0  0  0  0  0  0
   42.9542    5.2000   12.6562 H   0  0  0  0  0  0  0  0  0  0  0  0
  2  3  2  0
  4  5  2  0
  6  7  2  0
  8  9  2  0
  8 10  2  0
 11 12  2  0
 11 13  2  0
 14 15  2  0
 14 16  2  0
 17 18  2  0
 17 19  2  0
  1 20  1  0
  1 21  1  0
M  END
> <Uni-Dock RESULT> 
ENERGY=   -7.600  LOWER_BOUND=    7.775  UPPER_BOUND=    8.200
INTER + INTRA:          -7.600
INTER:                  -7.600
INTRA:                   0.000
UNBOUND:                 0.000

$$$$

     RDKit          3D

 21 13  0  0  0  0  0  0  0  0999 V2000
   43.2277    5.1749   12.3173 O   0  0  0  0  0  0  0  0  0  0  0  0
   43.4118    4.4435   12.9326 Mg  0  0  0  0  0  2  0  0  0  0  0  0
   42.4443    5.6478   12.0200 O   0  0  0  0  0  0  0  0  0  0  0  0
   43.4085    4.4476   12.9295 Mg  0  0  0  0  0  2  0  0  0  0  0  0
   42.4476    5.6437   12.0231 O   0  0  0  0  0  0  0  0  0  0  0  0
   43.4104    4.4453   12.9313 Mg  0  0  0  0  0  2  0  0  0  0  0  0
   42.4458    5.6460   12.0214 O   0  0  0  0  0  0  0  0  0  0  0  0
   43.0022    5.0786   12.4361 Si  0  0  0  0  0  4  0  0  0  0  0  0
   42.0481    6.0781   11.7015 O   0  0  0  0  0  0  0  0  0  0  0  0
   43.7339    3.9802   13.2913 O   0  0  0  0  0  0  0  0  0  0  0  0
   42.9956    5.0784   12.4373 Si  0  0  0  0  0  4  0  0  0  0  0  0
   42.0506    6.0792   11.7002 O   0  0  0  0  0  0  0  0  0  0  0  0
   43.7381    3.9793   13.2915 O   0  0  0  0  0  0  0  0  0  0  0  0
   43.0692    5.1067   12.4013 Si  0  0  0  0  0  4  0  0  0  0  0  0
   43.6960    3.9718   13.3045 O   0  0  0  0  0  0  0  0  0  0  0  0
   42.0190    6.0585   11.7232 O   0  0  0  0  0  0  0  0  0  0  0  0
   43.0210    5.0869   12.4260 Si  0  0  0  0  0  4  0  0  0  0  0  0
   43.7258    3.9745   13.2976 O   0  0  0  0  0  0  0  0  0  0  0  0
   42.0374    6.0755   11.7055 O   0  0  0  0  0  0  0  0  0  0  0  0
   42.3303    5.5358   12.1358 H   0  0  0  0  0  0  0  0  0  0  0  0
   43.2261    4.4263   12.9759 H   0  0  0  0  0  0  0  0  0  0  0  0
  2  3  2  0
  4  5  2  0
  6  7  2  0
  8  9  2  0
  8 10  2  0
 11 12  2  0
 11 13  2  0
 14 15  2  0
 14 16  2  0
 17 18  2  0
 17 19  2  0
  1 20  1  0
  1 21  1  0
M  END
> <Uni-Dock RESULT> 
ENERGY=   -7.280  LOWER_BOUND=    8.176  UPPER_BOUND=    8.549
INTER + INTRA:          -7.280
INTER:                  -7.280
INTRA:                   0.000
UNBOUND:                 0.000

$$$$

     RDKit          3D

 21 13  0  0  0  0  0  0  0  0999 V2000
   45.1492    3.1557    8.7121 O   0  0  0  0  0  0  0  0  0  0  0  0
   45.2139    2.1869    8.7815 Mg  0  0  0  0  0  2  0  0  0  0  0  0
   44.4358    3.7997    8.6697 O   0  0  0  0  0  0  0  0  0  0  0  0
   45.2112    2.1924    8.7811 Mg  0  0  0  0  0  2  0  0  0  0  0  0
   44.4384    3.7942    8.6701 O   0  0  0  0  0  0  0  0  0  0  0  0
   45.2127    2.1893    8.7813 Mg  0  0  0  0  0  2  0  0  0  0  0  0
   44.4369    3.7973    8.6699 O   0  0  0  0  0  0  0  0  0  0  0  0
   44.9052    3.0348    8.7222 Si  0  0  0  0  0  4  0  0  0  0  0  0
   44.1067    4.3774    8.6299 O   0  0  0  0  0  0  0  0  0  0  0  0
   45.4625    1.5677    8.8247 O   0  0  0  0  0  0  0  0  0  0  0  0
   44.8985    3.0346    8.7222 Si  0  0  0  0  0  4  0  0  0  0  0  0
   44.1093    4.3788    8.6298 O   0  0  0  0  0  0  0  0  0  0  0  0
   45.4666    1.5664    8.8248 O   0  0  0  0  0  0  0  0  0  0  0  0
   44.9777    3.0699    8.7192 Si  0  0  0  0  0  4  0  0  0  0  0  0
   45.4228    1.5576    8.8257 O   0  0  0  0  0  0  0  0  0  0  0  0
   44.0740    4.3523    8.6319 O   0  0  0  0  0  0  0  0  0  0  0  0
   44.9256    3.0452    8.7213 Si  0  0  0  0  0  4  0  0  0  0  0  0
   45.4534    1.5604    8.8253 O   0  0  0  0  0  0  0  0  0  0  0  0
   44.0955    4.3743    8.6302 O   0  0  0  0  0  0  0  0  0  0  0  0
   44.3019    3.6552    8.6809 H   0  0  0  0  0  0  0  0  0  0  0  0
   45.0232    2.1692    8.7839 H   0  0  0  0  0  0  0  0  0  0  0  0
  2  3  2  0
  4  5  2  0
  6  7  2  0
  8  9  2  0
  8 10  2  0
 11 12  2  0
 11 13  2  0
 14 15  2  0
 14 16  2  0
 17 18  2  0
 17 19  2  0
  1 20  1  0
  1 21  1  0
M  END
> <Uni-Dock RESULT> 
ENERGY=   -7.101  LOWER_BOUND=    3.790  UPPER_BOUND=    4.270
INTER + INTRA:          -7.101
INTER:                  -7.101
INTRA:                   0.000
UNBOUND:                 0.000

$$$$

     RDKit          3D

 21 13  0  0  0  0  0  0  0  0999 V2000
   43.2384    5.1988   12.4077 O   0  0  0  0  0  0  0  0  0  0  0  0
   42.4567    5.6464   12.0389 Mg  0  0  0  0  0  2  0  0  0  0  0  0
   43.3974    4.4220   12.9527 O   0  0  0  0  0  0  0  0  0  0  0  0
   42.4599    5.6423   12.0420 Mg  0  0  0  0  0  2  0  0  0  0  0  0
   43.3942    4.4261   12.9495 O   0  0  0  0  0  0  0  0  0  0  0  0
   42.4581    5.6446   12.0403 Mg  0  0  0  0  0  2  0  0  0  0  0  0
   43.3960    4.4238   12.9513 O   0  0  0  0  0  0  0  0  0  0  0  0
   43.0052    5.0745   12.4744 Si  0  0  0  0  0  4  0  0  0  0  0  0
   43.7072    3.9474   13.3025 O   0  0  0  0  0  0  0  0  0  0  0  0
   42.0687    6.0808   11.7105 O   0  0  0  0  0  0  0  0  0  0  0  0
   43.0015    5.0698   12.4773 Si  0  0  0  0  0  4  0  0  0  0  0  0
   43.7098    3.9487   13.3018 O   0  0  0  0  0  0  0  0  0  0  0  0
   42.0697    6.0842   11.7082 O   0  0  0  0  0  0  0  0  0  0  0  0
   43.0739    5.1117   12.4543 Si  0  0  0  0  0  4  0  0  0  0  0  0
   42.0388    6.0565   11.7247 O   0  0  0  0  0  0  0  0  0  0  0  0
   43.6685    3.9344   13.3083 O   0  0  0  0  0  0  0  0  0  0  0  0
   43.0250    5.0847   12.4689 Si  0  0  0  0  0  4  0  0  0  0  0  0
   42.0576    6.0773   11.7120 O   0  0  0  0  0  0  0  0  0  0  0  0
   43.6985    3.9407   13.3064 O   0  0  0  0  0  0  0  0  0  0  0  0
   43.2035    4.3862   12.9618 H   0  0  0  0  0  0  0  0  0  0  0  0
   42.3392    5.5176   12.1179 H   0  0  0  0  0  0  0  0  0  0  0  0
  2  3  2  0
  4  5  2  0
  6  7  2  0
  8  9  2  0
  8 10  2  0
 11 12  2  0
 11 13  2  0
 14 15  2  0
 14 16  2  0
 17 18  2  0
 17 19  2  0
  1 20  1  0
  1 21  1  0
M  END
> <Uni-Dock RESULT> 
ENERGY=   -7.055  LOWER_BOUND=    8.241  UPPER_BOUND=    8.357
INTER + INTRA:          -7.055
INTER:                  -7.055
INTRA:                   0.000
UNBOUND:                 0.000

$$$$

     RDKit          3D

 21 13  0  0  0  0  0  0  0  0999 V2000
   44.6885    3.3685    8.5498 O   0  0  0  0  0  0  0  0  0  0  0  0
   45.2464    4.1652    8.5905 Mg  0  0  0  0  0  2  0  0  0  0  0  0
   44.7326    2.4748    8.9033 O   0  0  0  0  0  0  0  0  0  0  0  0
   45.2446    4.1594    8.5916 Mg  0  0  0  0  0  2  0  0  0  0  0  0
   44.7344    2.4806    8.9023 O   0  0  0  0  0  0  0  0  0  0  0  0
   45.2456    4.1626    8.5910 Mg  0  0  0  0  0  2  0  0  0  0  0  0
   44.7334    2.4774    8.9029 O   0  0  0  0  0  0  0  0  0  0  0  0
   44.9141    3.3311    8.6979 Si  0  0  0  0  0  4  0  0  0  0  0  0
   44.5798    1.8420    9.0440 O   0  0  0  0  0  0  0  0  0  0  0  0
   45.4745    4.7870    8.4988 O   0  0  0  0  0  0  0  0  0  0  0  0
   44.9184    3.3275    8.7018 Si  0  0  0  0  0  4  0  0  0  0  0  0
   44.5773    1.8423    9.0424 O   0  0  0  0  0  0  0  0  0  0  0  0
   45.4728    4.7902    8.4966 O   0  0  0  0  0  0  0  0  0  0  0  0
   44.8476    3.3428    8.6540 Si  0  0  0  0  0  4  0  0  0  0  0  0
   45.5054    4.7733    8.5222 O   0  0  0  0  0  0  0  0  0  0  0  0
   44.6155    1.8440    9.0646 O   0  0  0  0  0  0  0  0  0  0  0  0
   44.8951    3.3339    8.6855 Si  0  0  0  0  0  4  0  0  0  0  0  0
   45.4847    4.7878    8.5046 O   0  0  0  0  0  0  0  0  0  0  0  0
   44.5887    1.8384    9.0506 O   0  0  0  0  0  0  0  0  0  0  0  0
   44.9047    2.5158    8.9909 H   0  0  0  0  0  0  0  0  0  0  0  0
   45.3752    4.0756    8.7001 H   0  0  0  0  0  0  0  0  0  0  0  0
  2  3  2  0
  4  5  2  0
  6  7  2  0
  8  9  2  0
  8 10  2  0
 11 12  2  0
 11 13  2  0
 14 15  2  0
 14 16  2  0
 17 18  2  0
 17 19  2  0
  1 20  1  0
  1 21  1  0
M  END
> <Uni-Dock RESULT> 
ENERGY=   -6.991  LOWER_BOUND=    3.907  UPPER_BOUND=    3.913
INTER + INTRA:          -6.991
INTER:                  -6.991
INTRA:                   0.000
UNBOUND:                 0.000

$$$$
