
     RDKit          3D

 21 13  0  0  0  0  0  0  0  0999 V2000
   47.8607    2.2134    6.0438 O   0  0  0  0  0  0  0  0  0  0  0  0
   47.3066    2.9340    5.6969 Mg  0  0  0  0  0  2  0  0  0  0  0  0
   47.8397    1.6477    6.8347 O   0  0  0  0  0  0  0  0  0  0  0  0
   47.3092    2.9277    5.7025 Mg  0  0  0  0  0  2  0  0  0  0  0  0
   47.8371    1.6540    6.8292 O   0  0  0  0  0  0  0  0  0  0  0  0
   47.3075    2.9319    5.6988 Mg  0  0  0  0  0  2  0  0  0  0  0  0
   47.8388    1.6498    6.8328 O   0  0  0  0  0  0  0  0  0  0  0  0
   47.6184    2.2756    6.2349 Si  0  0  0  0  0  4  0  0  0  0  0  0
   47.0855    3.4208    5.2884 O   0  0  0  0  0  0  0  0  0  0  0  0
   48.0155    1.1762    7.2741 O   0  0  0  0  0  0  0  0  0  0  0  0
   46.9030    2.4736    6.7802 Si  0  0  0  0  0  4  0  0  0  0  0  0
   46.8204    3.4571    5.5406 O   0  0  0  0  0  0  0  0  0  0  0  0
   47.6918    1.2928    7.4842 O   0  0  0  0  0  0  0  0  0  0  0  0
   47.7030    2.2555    6.1661 Si  0  0  0  0  0  4  0  0  0  0  0  0
   47.0468    3.4220    5.3307 O   0  0  0  0  0  0  0  0  0  0  0  0
   47.9696    1.1952    7.3006 O   0  0  0  0  0  0  0  0  0  0  0  0
   47.7541    2.2100    6.1697 Si  0  0  0  0  0  4  0  0  0  0  0  0
   47.6566    1.3262    7.4789 O   0  0  0  0  0  0  0  0  0  0  0  0
   47.2733    3.3459    5.1762 O   0  0  0  0  0  0  0  0  0  0  0  0
   47.6693    1.7505    6.8891 H   0  0  0  0  0  0  0  0  0  0  0  0
   47.1894    2.9087    5.8645 H   0  0  0  0  0  0  0  0  0  0  0  0
  2  3  2  0
  4  5  2  0
  6  7  2  0
  8  9  2  0
  8 10  2  0
 11 12  2  0
 11 13  2  0
 14 15  2  0
 14 16  2  0
 17 18  2  0
 17 19  2  0
  1 20  1  0
  1 21  1  0
M  END
> <Uni-Dock RESULT> 
ENERGY=   -8.710  LOWER_BOUND=    0.000  UPPER_BOUND=    0.000
INTER + INTRA:          -8.710
INTER:                  -8.710
INTRA:                   0.000
UNBOUND:                 0.000

$$$$

     RDKit          3D

 21 13  0  0  0  0  0  0  0  0999 V2000
   42.8097    5.6314   11.7339 O   0  0  0  0  0  0  0  0  0  0  0  0
   43.1561    5.2313   10.9173 Mg  0  0  0  0  0  2  0  0  0  0  0  0
   42.7730    5.3666   12.6690 O   0  0  0  0  0  0  0  0  0  0  0  0
   43.1542    5.2320   10.9259 Mg  0  0  0  0  0  2  0  0  0  0  0  0
   42.7749    5.3659   12.6605 O   0  0  0  0  0  0  0  0  0  0  0  0
   43.1555    5.2315   10.9203 Mg  0  0  0  0  0  2  0  0  0  0  0  0
   42.7737    5.3664   12.6661 O   0  0  0  0  0  0  0  0  0  0  0  0
   42.9399    5.3501   11.7888 Si  0  0  0  0  0  4  0  0  0  0  0  0
   43.3111    5.1555   10.2670 O   0  0  0  0  0  0  0  0  0  0  0  0
   42.6427    5.3913   13.3238 O   0  0  0  0  0  0  0  0  0  0  0  0
   43.3256    4.5253   11.9279 Si  0  0  0  0  0  4  0  0  0  0  0  0
   43.4508    4.8344   10.3789 O   0  0  0  0  0  0  0  0  0  0  0  0
   42.8195    5.0295   13.3427 O   0  0  0  0  0  0  0  0  0  0  0  0
   42.8946    5.4489   11.7670 Si  0  0  0  0  0  4  0  0  0  0  0  0
   43.3311    5.1069   10.2900 O   0  0  0  0  0  0  0  0  0  0  0  0
   42.6680    5.3410   13.3225 O   0  0  0  0  0  0  0  0  0  0  0  0
   42.8644    5.4946   11.8082 Si  0  0  0  0  0  4  0  0  0  0  0  0
   42.8405    4.9989   13.3110 O   0  0  0  0  0  0  0  0  0  0  0  0
   43.2079    5.3625   10.2677 O   0  0  0  0  0  0  0  0  0  0  0  0
   42.8696    5.1936   12.6114 H   0  0  0  0  0  0  0  0  0  0  0  0
   43.2144    5.0720   11.0343 H   0  0  0  0  0  0  0  0  0  0  0  0
  2  3  2  0
  4  5  2  0
  6  7  2  0
  8  9  2  0
  8 10  2  0
 11 12  2  0
 11 13  2  0
 14 15  2  0
 14 16  2  0
 17 18  2  0
 17 19  2  0
  1 20  1  0
  1 21  1  0
M  END
> <Uni-Dock RESULT> 
ENERGY=   -7.552  LOWER_BOUND=    7.422  UPPER_BOUND=    7.781
INTER + INTRA:          -7.552
INTER:                  -7.552
INTRA:                   0.000
UNBOUND:                 0.000

$$$$

     RDKit          3D

 21 13  0  0  0  0  0  0  0  0999 V2000
   42.7898    5.6337   11.8063 O   0  0  0  0  0  0  0  0  0  0  0  0
   42.8160    5.2621   12.7051 Mg  0  0  0  0  0  2  0  0  0  0  0  0
   43.0947    5.3405   10.9304 O   0  0  0  0  0  0  0  0  0  0  0  0
   42.8174    5.2625   12.6965 Mg  0  0  0  0  0  2  0  0  0  0  0  0
   43.0934    5.3402   10.9391 O   0  0  0  0  0  0  0  0  0  0  0  0
   42.8165    5.2622   12.7022 Mg  0  0  0  0  0  2  0  0  0  0  0  0
   43.0943    5.3404   10.9334 O   0  0  0  0  0  0  0  0  0  0  0  0
   42.9309    5.3523   11.8113 Si  0  0  0  0  0  4  0  0  0  0  0  0
   42.7244    5.2075   13.3694 O   0  0  0  0  0  0  0  0  0  0  0  0
   43.2109    5.3442   10.2726 O   0  0  0  0  0  0  0  0  0  0  0  0
   43.3400    4.5279   11.8479 Si  0  0  0  0  0  4  0  0  0  0  0  0
   42.8950    4.8847   13.3262 O   0  0  0  0  0  0  0  0  0  0  0  0
   43.3821    4.9839   10.3306 O   0  0  0  0  0  0  0  0  0  0  0  0
   42.8808    5.4512   11.8120 Si  0  0  0  0  0  4  0  0  0  0  0  0
   42.7514    5.1585   13.3569 O   0  0  0  0  0  0  0  0  0  0  0  0
   43.2339    5.2942   10.2845 O   0  0  0  0  0  0  0  0  0  0  0  0
   42.8677    5.4953   11.7612 Si  0  0  0  0  0  4  0  0  0  0  0  0
   43.3902    4.9545   10.3687 O   0  0  0  0  0  0  0  0  0  0  0  0
   42.6287    5.4133   13.3248 O   0  0  0  0  0  0  0  0  0  0  0  0
   43.1636    5.1704   11.0246 H   0  0  0  0  0  0  0  0  0  0  0  0
   42.9126    5.0999   12.6225 H   0  0  0  0  0  0  0  0  0  0  0  0
  2  3  2  0
  4  5  2  0
  6  7  2  0
  8  9  2  0
  8 10  2  0
 11 12  2  0
 11 13  2  0
 14 15  2  0
 14 16  2  0
 17 18  2  0
 17 19  2  0
  1 20  1  0
  1 21  1  0
M  END
> <Uni-Dock RESULT> 
ENERGY=   -7.341  LOWER_BOUND=    7.474  UPPER_BOUND=    7.984
INTER + INTRA:          -7.341
INTER:                  -7.341
INTRA:                   0.000
UNBOUND:                 0.000

$$$$

     RDKit          3D

 21 13  0  0  0  0  0  0  0  0999 V2000
   44.6618    2.8394    9.1439 O   0  0  0  0  0  0  0  0  0  0  0  0
   44.4465    3.7253    8.8037 Mg  0  0  0  0  0  2  0  0  0  0  0  0
   45.2875    2.1384    8.8930 O   0  0  0  0  0  0  0  0  0  0  0  0
   44.4506    3.7175    8.8041 Mg  0  0  0  0  0  2  0  0  0  0  0  0
   45.2834    2.1461    8.8926 O   0  0  0  0  0  0  0  0  0  0  0  0
   44.4479    3.7226    8.8038 Mg  0  0  0  0  0  2  0  0  0  0  0  0
   45.2861    2.1410    8.8929 O   0  0  0  0  0  0  0  0  0  0  0  0
   44.8379    2.9135    8.8937 Si  0  0  0  0  0  4  0  0  0  0  0  0
   44.1477    4.3255    8.7478 O   0  0  0  0  0  0  0  0  0  0  0  0
   45.6154    1.5565    8.9035 O   0  0  0  0  0  0  0  0  0  0  0  0
   45.3429    3.1497    8.1605 Si  0  0  0  0  0  4  0  0  0  0  0  0
   44.3744    4.3671    8.4614 O   0  0  0  0  0  0  0  0  0  0  0  0
   45.8150    1.6968    8.5827 O   0  0  0  0  0  0  0  0  0  0  0  0
   44.7748    2.8896    8.9816 Si  0  0  0  0  0  4  0  0  0  0  0  0
   44.1851    4.3265    8.7044 O   0  0  0  0  0  0  0  0  0  0  0  0
   45.6411    1.5794    8.8590 O   0  0  0  0  0  0  0  0  0  0  0  0
   44.7722    2.8339    9.0214 Si  0  0  0  0  0  4  0  0  0  0  0  0
   45.8146    1.7377    8.5560 O   0  0  0  0  0  0  0  0  0  0  0  0
   44.0395    4.2351    8.9312 O   0  0  0  0  0  0  0  0  0  0  0  0
   45.3483    2.2636    8.7407 H   0  0  0  0  0  0  0  0  0  0  0  0
   44.5910    3.6923    8.6605 H   0  0  0  0  0  0  0  0  0  0  0  0
  2  3  2  0
  4  5  2  0
  6  7  2  0
  8  9  2  0
  8 10  2  0
 11 12  2  0
 11 13  2  0
 14 15  2  0
 14 16  2  0
 17 18  2  0
 17 19  2  0
  1 20  1  0
  1 21  1  0
M  END
> <Uni-Dock RESULT> 
ENERGY=   -6.893  LOWER_BOUND=    3.403  UPPER_BOUND=    3.781
INTER + INTRA:          -6.893
INTER:                  -6.893
INTRA:                   0.000
UNBOUND:                 0.000

$$$$

     RDKit          3D

 21 13  0  0  0  0  0  0  0  0999 V2000
   44.6986    2.8131    9.0921 O   0  0  0  0  0  0  0  0  0  0  0  0
   45.3779    2.1861    8.7886 Mg  0  0  0  0  0  2  0  0  0  0  0  0
   44.4169    3.7054    8.8268 O   0  0  0  0  0  0  0  0  0  0  0  0
   45.3732    2.1935    8.7887 Mg  0  0  0  0  0  2  0  0  0  0  0  0
   44.4216    3.6980    8.8266 O   0  0  0  0  0  0  0  0  0  0  0  0
   45.3763    2.1886    8.7886 Mg  0  0  0  0  0  2  0  0  0  0  0  0
   44.4185    3.7029    8.8267 O   0  0  0  0  0  0  0  0  0  0  0  0
   44.8645    2.9295    8.8512 Si  0  0  0  0  0  4  0  0  0  0  0  0
   45.7523    1.6282    8.7527 O   0  0  0  0  0  0  0  0  0  0  0  0
   44.0755    4.2795    8.8191 O   0  0  0  0  0  0  0  0  0  0  0  0
   45.3618    3.2515    8.1459 Si  0  0  0  0  0  4  0  0  0  0  0  0
   45.9173    1.8046    8.4756 O   0  0  0  0  0  0  0  0  0  0  0  0
   44.3144    4.3835    8.5116 O   0  0  0  0  0  0  0  0  0  0  0  0
   44.8075    2.8864    8.9359 Si  0  0  0  0  0  4  0  0  0  0  0  0
   45.7743    1.6602    8.7105 O   0  0  0  0  0  0  0  0  0  0  0  0
   44.1106    4.2905    8.7766 O   0  0  0  0  0  0  0  0  0  0  0  0
   44.7557    2.9119    8.9729 Si  0  0  0  0  0  4  0  0  0  0  0  0
   44.3512    4.3628    8.4870 O   0  0  0  0  0  0  0  0  0  0  0  0
   45.6099    1.5789    8.9281 O   0  0  0  0  0  0  0  0  0  0  0  0
   44.5642    3.6961    8.6826 H   0  0  0  0  0  0  0  0  0  0  0  0
   45.4294    2.3280    8.6484 H   0  0  0  0  0  0  0  0  0  0  0  0
  2  3  2  0
  4  5  2  0
  6  7  2  0
  8  9  2  0
  8 10  2  0
 11 12  2  0
 11 13  2  0
 14 15  2  0
 14 16  2  0
 17 18  2  0
 17 19  2  0
  1 20  1  0
  1 21  1  0
M  END
> <Uni-Dock RESULT> 
ENERGY=   -6.876  LOWER_BOUND=    3.459  UPPER_BOUND=    4.211
INTER + INTRA:          -6.876
INTER:                  -6.876
INTRA:                   0.000
UNBOUND:                 0.000

$$$$

     RDKit          3D

 21 13  0  0  0  0  0  0  0  0999 V2000
   44.9931    3.0604    8.4060 O   0  0  0  0  0  0  0  0  0  0  0  0
   44.7247    2.3369    8.9987 Mg  0  0  0  0  0  2  0  0  0  0  0  0
   45.0590    4.0275    8.4854 O   0  0  0  0  0  0  0  0  0  0  0  0
   44.7263    2.3452    8.9962 Mg  0  0  0  0  0  2  0  0  0  0  0  0
   45.0574    4.0193    8.4879 O   0  0  0  0  0  0  0  0  0  0  0  0
   44.7252    2.3397    8.9979 Mg  0  0  0  0  0  2  0  0  0  0  0  0
   45.0585    4.0247    8.4862 O   0  0  0  0  0  0  0  0  0  0  0  0
   44.9082    3.1681    8.6894 Si  0  0  0  0  0  4  0  0  0  0  0  0
   44.5920    1.7142    9.2161 O   0  0  0  0  0  0  0  0  0  0  0  0
   45.1753    4.6644    8.3206 O   0  0  0  0  0  0  0  0  0  0  0  0
   44.6557    3.4625    9.5248 Si  0  0  0  0  0  4  0  0  0  0  0  0
   44.5032    1.8853    9.5292 O   0  0  0  0  0  0  0  0  0  0  0  0
   45.0576    4.7523    8.6960 O   0  0  0  0  0  0  0  0  0  0  0  0
   44.9376    3.1279    8.5904 Si  0  0  0  0  0  4  0  0  0  0  0  0
   44.5796    1.7460    9.2622 O   0  0  0  0  0  0  0  0  0  0  0  0
   45.1583    4.6728    8.3736 O   0  0  0  0  0  0  0  0  0  0  0  0
   44.9597    3.1595    8.5337 Si  0  0  0  0  0  4  0  0  0  0  0  0
   45.0422    4.7270    8.7349 O   0  0  0  0  0  0  0  0  0  0  0  0
   44.6612    1.6752    8.9989 O   0  0  0  0  0  0  0  0  0  0  0  0
   44.9917    4.0042    8.6790 H   0  0  0  0  0  0  0  0  0  0  0  0
   44.6907    2.4820    9.1410 H   0  0  0  0  0  0  0  0  0  0  0  0
  2  3  2  0
  4  5  2  0
  6  7  2  0
  8  9  2  0
  8 10  2  0
 11 12  2  0
 11 13  2  0
 14 15  2  0
 14 16  2  0
 17 18  2  0
 17 19  2  0
  1 20  1  0
  1 21  1  0
M  END
> <Uni-Dock RESULT> 
ENERGY=   -6.643  LOWER_BOUND=    3.697  UPPER_BOUND=    4.307
INTER + INTRA:          -6.643
INTER:                  -6.643
INTRA:                   0.000
UNBOUND:                 0.000

$$$$
