
     RDKit          3D

 21 13  0  0  0  0  0  0  0  0999 V2000
   47.7004    2.2076    6.6039 O   0  0  0  0  0  0  0  0  0  0  0  0
   47.4323    1.4230    7.1155 Mg  0  0  0  0  0  2  0  0  0  0  0  0
   47.8685    2.3898    5.6651 O   0  0  0  0  0  0  0  0  0  0  0  0
   47.4337    1.4262    7.1108 Mg  0  0  0  0  0  2  0  0  0  0  0  0
   47.8671    2.3867    5.6698 O   0  0  0  0  0  0  0  0  0  0  0  0
   47.4329    1.4243    7.1135 Mg  0  0  0  0  0  2  0  0  0  0  0  0
   47.8679    2.3885    5.6670 O   0  0  0  0  0  0  0  0  0  0  0  0
   47.6741    2.0483    6.4896 Si  0  0  0  0  0  4  0  0  0  0  0  0
   47.2613    0.9996    7.5950 O   0  0  0  0  0  0  0  0  0  0  0  0
   48.0157    2.6714    5.0862 O   0  0  0  0  0  0  0  0  0  0  0  0
   47.6659    1.9962    6.4494 Si  0  0  0  0  0  4  0  0  0  0  0  0
   47.2642    1.0228    7.6195 O   0  0  0  0  0  0  0  0  0  0  0  0
   48.0212    2.7003    5.1019 O   0  0  0  0  0  0  0  0  0  0  0  0
   47.6714    2.0304    6.4747 Si  0  0  0  0  0  4  0  0  0  0  0  0
   47.2633    1.0099    7.6007 O   0  0  0  0  0  0  0  0  0  0  0  0
   48.0165    2.6790    5.0955 O   0  0  0  0  0  0  0  0  0  0  0  0
   47.6674    2.0081    6.4613 Si  0  0  0  0  0  4  0  0  0  0  0  0
   47.2633    1.0166    7.6136 O   0  0  0  0  0  0  0  0  0  0  0  0
   48.0204    2.6945    5.0960 O   0  0  0  0  0  0  0  0  0  0  0  0
   47.8216    2.1902    5.6305 H   0  0  0  0  0  0  0  0  0  0  0  0
   47.4292    1.3213    6.9364 H   0  0  0  0  0  0  0  0  0  0  0  0
  2  3  2  0
  4  5  2  0
  6  7  2  0
  8  9  2  0
  8 10  2  0
 11 12  2  0
 11 13  2  0
 14 15  2  0
 14 16  2  0
 17 18  2  0
 17 19  2  0
  1 20  1  0
  1 21  1  0
M  END
> <Uni-Dock RESULT> 
ENERGY=   -9.490  LOWER_BOUND=    0.000  UPPER_BOUND=    0.000
INTER + INTRA:          -9.490
INTER:                  -9.490
INTRA:                   0.000
UNBOUND:                 0.000

$$$$

     RDKit          3D

 21 13  0  0  0  0  0  0  0  0999 V2000
   47.7834    2.3511    6.4288 O   0  0  0  0  0  0  0  0  0  0  0  0
   47.3433    2.7740    5.6694 Mg  0  0  0  0  0  2  0  0  0  0  0  0
   47.6310    1.5452    6.9483 O   0  0  0  0  0  0  0  0  0  0  0  0
   47.3442    2.7700    5.6735 Mg  0  0  0  0  0  2  0  0  0  0  0  0
   47.6301    1.5491    6.9442 O   0  0  0  0  0  0  0  0  0  0  0  0
   47.3436    2.7723    5.6711 Mg  0  0  0  0  0  2  0  0  0  0  0  0
   47.6306    1.5468    6.9466 O   0  0  0  0  0  0  0  0  0  0  0  0
   47.6263    2.2487    6.3659 Si  0  0  0  0  0  4  0  0  0  0  0  0
   47.1689    3.1778    5.1744 O   0  0  0  0  0  0  0  0  0  0  0  0
   47.6662    1.0522    7.3863 O   0  0  0  0  0  0  0  0  0  0  0  0
   47.5740    2.2128    6.3465 Si  0  0  0  0  0  4  0  0  0  0  0  0
   47.1942    3.1995    5.1803 O   0  0  0  0  0  0  0  0  0  0  0  0
   47.6932    1.0665    7.3998 O   0  0  0  0  0  0  0  0  0  0  0  0
   47.6080    2.2354    6.3597 Si  0  0  0  0  0  4  0  0  0  0  0  0
   47.1785    3.1829    5.1792 O   0  0  0  0  0  0  0  0  0  0  0  0
   47.6749    1.0604    7.3877 O   0  0  0  0  0  0  0  0  0  0  0  0
   47.5868    2.2233    6.3498 Si  0  0  0  0  0  4  0  0  0  0  0  0
   47.1876    3.1942    5.1784 O   0  0  0  0  0  0  0  0  0  0  0  0
   47.6869    1.0612    7.3983 O   0  0  0  0  0  0  0  0  0  0  0  0
   47.4679    1.5106    6.8241 H   0  0  0  0  0  0  0  0  0  0  0  0
   47.2100    2.6170    5.6737 H   0  0  0  0  0  0  0  0  0  0  0  0
  2  3  2  0
  4  5  2  0
  6  7  2  0
  8  9  2  0
  8 10  2  0
 11 12  2  0
 11 13  2  0
 14 15  2  0
 14 16  2  0
 17 18  2  0
 17 19  2  0
  1 20  1  0
  1 21  1  0
M  END
> <Uni-Dock RESULT> 
ENERGY=   -9.410  LOWER_BOUND=    0.984  UPPER_BOUND=    2.224
INTER + INTRA:          -9.410
INTER:                  -9.410
INTRA:                   0.000
UNBOUND:                 0.000

$$$$

     RDKit          3D

 21 13  0  0  0  0  0  0  0  0999 V2000
   47.2218    2.4970    6.3962 O   0  0  0  0  0  0  0  0  0  0  0  0
   47.6855    1.8177    6.9184 Mg  0  0  0  0  0  2  0  0  0  0  0  0
   46.9356    3.4105    6.5588 O   0  0  0  0  0  0  0  0  0  0  0  0
   47.6831    1.8228    6.9172 Mg  0  0  0  0  0  2  0  0  0  0  0  0
   46.9381    3.4053    6.5599 O   0  0  0  0  0  0  0  0  0  0  0  0
   47.6845    1.8198    6.9179 Mg  0  0  0  0  0  2  0  0  0  0  0  0
   46.9366    3.4083    6.5593 O   0  0  0  0  0  0  0  0  0  0  0  0
   47.2685    2.5601    6.5777 Si  0  0  0  0  0  4  0  0  0  0  0  0
   47.9800    1.2636    7.1298 O   0  0  0  0  0  0  0  0  0  0  0  0
   46.6832    4.0185    6.5082 O   0  0  0  0  0  0  0  0  0  0  0  0
   47.2831    2.5833    6.6381 Si  0  0  0  0  0  4  0  0  0  0  0  0
   47.9749    1.2472    7.1006 O   0  0  0  0  0  0  0  0  0  0  0  0
   46.6736    4.0117    6.4770 O   0  0  0  0  0  0  0  0  0  0  0  0
   47.2732    2.5691    6.5988 Si  0  0  0  0  0  4  0  0  0  0  0  0
   47.9766    1.2611    7.1186 O   0  0  0  0  0  0  0  0  0  0  0  0
   46.6818    4.0120    6.4982 O   0  0  0  0  0  0  0  0  0  0  0  0
   47.2803    2.5755    6.6233 Si  0  0  0  0  0  4  0  0  0  0  0  0
   47.9764    1.2509    7.1082 O   0  0  0  0  0  0  0  0  0  0  0  0
   46.6749    4.0157    6.4842 O   0  0  0  0  0  0  0  0  0  0  0  0
   47.0178    3.3894    6.7486 H   0  0  0  0  0  0  0  0  0  0  0  0
   47.6922    1.9558    7.0710 H   0  0  0  0  0  0  0  0  0  0  0  0
  2  3  2  0
  4  5  2  0
  6  7  2  0
  8  9  2  0
  8 10  2  0
 11 12  2  0
 11 13  2  0
 14 15  2  0
 14 16  2  0
 17 18  2  0
 17 19  2  0
  1 20  1  0
  1 21  1  0
M  END
> <Uni-Dock RESULT> 
ENERGY=   -8.654  LOWER_BOUND=    1.246  UPPER_BOUND=    1.385
INTER + INTRA:          -8.654
INTER:                  -8.654
INTRA:                   0.000
UNBOUND:                 0.000

$$$$

     RDKit          3D

 21 13  0  0  0  0  0  0  0  0999 V2000
   42.7696    5.5946   11.7567 O   0  0  0  0  0  0  0  0  0  0  0  0
   43.1479    5.2519   10.9269 Mg  0  0  0  0  0  2  0  0  0  0  0  0
   42.8174    5.3349   12.6911 O   0  0  0  0  0  0  0  0  0  0  0  0
   43.1468    5.2522   10.9326 Mg  0  0  0  0  0  2  0  0  0  0  0  0
   42.8185    5.3347   12.6854 O   0  0  0  0  0  0  0  0  0  0  0  0
   43.1474    5.2520   10.9292 Mg  0  0  0  0  0  2  0  0  0  0  0  0
   42.8179    5.3348   12.6887 O   0  0  0  0  0  0  0  0  0  0  0  0
   42.8825    5.4348   11.7855 Si  0  0  0  0  0  4  0  0  0  0  0  0
   43.3183    5.1511   10.2950 O   0  0  0  0  0  0  0  0  0  0  0  0
   42.7471    5.2944   13.3464 O   0  0  0  0  0  0  0  0  0  0  0  0
   42.9199    5.3813   11.7975 Si  0  0  0  0  0  4  0  0  0  0  0  0
   43.3006    5.1776   10.2837 O   0  0  0  0  0  0  0  0  0  0  0  0
   42.7274    5.3213   13.3457 O   0  0  0  0  0  0  0  0  0  0  0  0
   42.8955    5.4159   11.7906 Si  0  0  0  0  0  4  0  0  0  0  0  0
   43.3114    5.1607   10.2947 O   0  0  0  0  0  0  0  0  0  0  0  0
   42.7411    5.3036   13.3416 O   0  0  0  0  0  0  0  0  0  0  0  0
   42.9109    5.3947   11.7923 Si  0  0  0  0  0  4  0  0  0  0  0  0
   43.3052    5.1708   10.2861 O   0  0  0  0  0  0  0  0  0  0  0  0
   42.7318    5.3148   13.3484 O   0  0  0  0  0  0  0  0  0  0  0  0
   42.9409    5.1796   12.6289 H   0  0  0  0  0  0  0  0  0  0  0  0
   43.2375    5.1060   11.0413 H   0  0  0  0  0  0  0  0  0  0  0  0
  2  3  2  0
  4  5  2  0
  6  7  2  0
  8  9  2  0
  8 10  2  0
 11 12  2  0
 11 13  2  0
 14 15  2  0
 14 16  2  0
 17 18  2  0
 17 19  2  0
  1 20  1  0
  1 21  1  0
M  END
> <Uni-Dock RESULT> 
ENERGY=   -7.836  LOWER_BOUND=    7.568  UPPER_BOUND=    8.199
INTER + INTRA:          -7.836
INTER:                  -7.836
INTRA:                   0.000
UNBOUND:                 0.000

$$$$

     RDKit          3D

 21 13  0  0  0  0  0  0  0  0999 V2000
   42.8833    5.6777   11.7367 O   0  0  0  0  0  0  0  0  0  0  0  0
   42.8193    5.3810   12.6625 Mg  0  0  0  0  0  2  0  0  0  0  0  0
   43.1646    5.2677   10.9028 O   0  0  0  0  0  0  0  0  0  0  0  0
   42.8204    5.3806   12.6568 Mg  0  0  0  0  0  2  0  0  0  0  0  0
   43.1635    5.2680   10.9085 O   0  0  0  0  0  0  0  0  0  0  0  0
   42.8197    5.3808   12.6601 Mg  0  0  0  0  0  2  0  0  0  0  0  0
   43.1641    5.2678   10.9052 O   0  0  0  0  0  0  0  0  0  0  0  0
   42.9411    5.4901   11.7601 Si  0  0  0  0  0  4  0  0  0  0  0  0
   42.7186    5.3396   13.3156 O   0  0  0  0  0  0  0  0  0  0  0  0
   43.3160    5.1433   10.2722 O   0  0  0  0  0  0  0  0  0  0  0  0
   42.9610    5.4270   11.7656 Si  0  0  0  0  0  4  0  0  0  0  0  0
   42.7076    5.3715   13.3182 O   0  0  0  0  0  0  0  0  0  0  0  0
   43.3071    5.1744   10.2642 O   0  0  0  0  0  0  0  0  0  0  0  0
   42.9483    5.4677   11.7611 Si  0  0  0  0  0  4  0  0  0  0  0  0
   42.7154    5.3507   13.3129 O   0  0  0  0  0  0  0  0  0  0  0  0
   43.3120    5.1545   10.2740 O   0  0  0  0  0  0  0  0  0  0  0  0
   42.9556    5.4430   11.7663 Si  0  0  0  0  0  4  0  0  0  0  0  0
   42.7103    5.3634   13.3180 O   0  0  0  0  0  0  0  0  0  0  0  0
   43.3098    5.1665   10.2637 O   0  0  0  0  0  0  0  0  0  0  0  0
   43.2018    5.0959   11.0140 H   0  0  0  0  0  0  0  0  0  0  0  0
   42.8907    5.1991   12.5972 H   0  0  0  0  0  0  0  0  0  0  0  0
  2  3  2  0
  4  5  2  0
  6  7  2  0
  8  9  2  0
  8 10  2  0
 11 12  2  0
 11 13  2  0
 14 15  2  0
 14 16  2  0
 17 18  2  0
 17 19  2  0
  1 20  1  0
  1 21  1  0
M  END
> <Uni-Dock RESULT> 
ENERGY=   -7.587  LOWER_BOUND=    7.579  UPPER_BOUND=    7.932
INTER + INTRA:          -7.587
INTER:                  -7.587
INTRA:                   0.000
UNBOUND:                 0.000

$$$$

     RDKit          3D

 21 13  0  0  0  0  0  0  0  0999 V2000
   43.2295    5.2311   12.4710 O   0  0  0  0  0  0  0  0  0  0  0  0
   43.4023    4.3956   12.9415 Mg  0  0  0  0  0  2  0  0  0  0  0  0
   42.4550    5.6287   12.0412 O   0  0  0  0  0  0  0  0  0  0  0  0
   43.3992    4.3996   12.9386 Mg  0  0  0  0  0  2  0  0  0  0  0  0
   42.4580    5.6247   12.0441 O   0  0  0  0  0  0  0  0  0  0  0  0
   43.4010    4.3973   12.9403 Mg  0  0  0  0  0  2  0  0  0  0  0  0
   42.4562    5.6271   12.0424 O   0  0  0  0  0  0  0  0  0  0  0  0
   43.0692    5.1156   12.4812 Si  0  0  0  0  0  4  0  0  0  0  0  0
   43.6777    3.8942   13.2749 O   0  0  0  0  0  0  0  0  0  0  0  0
   42.0390    6.0267   11.7178 O   0  0  0  0  0  0  0  0  0  0  0  0
   43.0142    5.0785   12.4835 Si  0  0  0  0  0  4  0  0  0  0  0  0
   43.7081    3.9091   13.2765 O   0  0  0  0  0  0  0  0  0  0  0  0
   42.0636    6.0489   11.7140 O   0  0  0  0  0  0  0  0  0  0  0  0
   43.0493    5.1032   12.4816 Si  0  0  0  0  0  4  0  0  0  0  0  0
   43.6865    3.9021   13.2736 O   0  0  0  0  0  0  0  0  0  0  0  0
   42.0500    6.0313   11.7188 O   0  0  0  0  0  0  0  0  0  0  0  0
   43.0293    5.0863   12.4840 Si  0  0  0  0  0  4  0  0  0  0  0  0
   43.7006    3.9050   13.2764 O   0  0  0  0  0  0  0  0  0  0  0  0
   42.0561    6.0452   11.7136 O   0  0  0  0  0  0  0  0  0  0  0  0
   42.3514    5.4571   12.0965 H   0  0  0  0  0  0  0  0  0  0  0  0
   43.2049    4.3483   12.9065 H   0  0  0  0  0  0  0  0  0  0  0  0
  2  3  2  0
  4  5  2  0
  6  7  2  0
  8  9  2  0
  8 10  2  0
 11 12  2  0
 11 13  2  0
 14 15  2  0
 14 16  2  0
 17 18  2  0
 17 19  2  0
  1 20  1  0
  1 21  1  0
M  END
> <Uni-Dock RESULT> 
ENERGY=   -7.360  LOWER_BOUND=    8.220  UPPER_BOUND=    8.353
INTER + INTRA:          -7.360
INTER:                  -7.360
INTRA:                   0.000
UNBOUND:                 0.000

$$$$

     RDKit          3D

 21 13  0  0  0  0  0  0  0  0999 V2000
   44.8534    2.9273    9.1274 O   0  0  0  0  0  0  0  0  0  0  0  0
   44.4424    3.6998    8.6990 Mg  0  0  0  0  0  2  0  0  0  0  0  0
   45.2179    2.0832    8.8156 O   0  0  0  0  0  0  0  0  0  0  0  0
   44.4449    3.6946    8.6994 Mg  0  0  0  0  0  2  0  0  0  0  0  0
   45.2154    2.0884    8.8152 O   0  0  0  0  0  0  0  0  0  0  0  0
   44.4435    3.6976    8.6992 Mg  0  0  0  0  0  2  0  0  0  0  0  0
   45.2169    2.0853    8.8154 O   0  0  0  0  0  0  0  0  0  0  0  0
   44.8415    2.9074    8.9310 Si  0  0  0  0  0  4  0  0  0  0  0  0
   44.1539    4.2816    8.5698 O   0  0  0  0  0  0  0  0  0  0  0  0
   45.4951    1.4855    8.7711 O   0  0  0  0  0  0  0  0  0  0  0  0
   44.8386    2.8985    8.8653 Si  0  0  0  0  0  4  0  0  0  0  0  0
   44.1530    4.2909    8.6024 O   0  0  0  0  0  0  0  0  0  0  0  0
   45.4989    1.4850    8.8042 O   0  0  0  0  0  0  0  0  0  0  0  0
   44.8409    2.9034    8.9079 Si  0  0  0  0  0  4  0  0  0  0  0  0
   44.1552    4.2816    8.5816 O   0  0  0  0  0  0  0  0  0  0  0  0
   45.4944    1.4895    8.7824 O   0  0  0  0  0  0  0  0  0  0  0  0
   44.8384    2.9027    8.8817 Si  0  0  0  0  0  4  0  0  0  0  0  0
   44.1530    4.2890    8.5940 O   0  0  0  0  0  0  0  0  0  0  0  0
   45.4991    1.4829    8.7962 O   0  0  0  0  0  0  0  0  0  0  0  0
   45.1674    2.1461    8.6240 H   0  0  0  0  0  0  0  0  0  0  0  0
   44.4697    3.6010    8.5204 H   0  0  0  0  0  0  0  0  0  0  0  0
  2  3  2  0
  4  5  2  0
  6  7  2  0
  8  9  2  0
  8 10  2  0
 11 12  2  0
 11 13  2  0
 14 15  2  0
 14 16  2  0
 17 18  2  0
 17 19  2  0
  1 20  1  0
  1 21  1  0
M  END
> <Uni-Dock RESULT> 
ENERGY=   -7.223  LOWER_BOUND=    3.772  UPPER_BOUND=    4.266
INTER + INTRA:          -7.223
INTER:                  -7.223
INTRA:                   0.000
UNBOUND:                 0.000

$$$$

     RDKit          3D

 21 13  0  0  0  0  0  0  0  0999 V2000
   44.9825    3.0713    9.0780 O   0  0  0  0  0  0  0  0  0  0  0  0
   45.1695    2.1436    8.8466 Mg  0  0  0  0  0  2  0  0  0  0  0  0
   44.4246    3.7725    8.7040 O   0  0  0  0  0  0  0  0  0  0  0  0
   45.1670    2.1488    8.8461 Mg  0  0  0  0  0  2  0  0  0  0  0  0
   44.4270    3.7672    8.7045 O   0  0  0  0  0  0  0  0  0  0  0  0
   45.1685    2.1457    8.8464 Mg  0  0  0  0  0  2  0  0  0  0  0  0
   44.4256    3.7703    8.7042 O   0  0  0  0  0  0  0  0  0  0  0  0
   44.8836    3.0121    8.9172 Si  0  0  0  0  0  4  0  0  0  0  0  0
   45.3980    1.5224    8.8278 O   0  0  0  0  0  0  0  0  0  0  0  0
   44.1095    4.3396    8.5809 O   0  0  0  0  0  0  0  0  0  0  0  0
   44.8495    2.9944    8.8631 Si  0  0  0  0  0  4  0  0  0  0  0  0
   45.4173    1.5263    8.8553 O   0  0  0  0  0  0  0  0  0  0  0  0
   44.1243    4.3533    8.6074 O   0  0  0  0  0  0  0  0  0  0  0  0
   44.8711    3.0067    8.8980 Si  0  0  0  0  0  4  0  0  0  0  0  0
   45.4033    1.5272    8.8373 O   0  0  0  0  0  0  0  0  0  0  0  0
   44.1166    4.3402    8.5906 O   0  0  0  0  0  0  0  0  0  0  0  0
   44.8590    2.9969    8.8769 Si  0  0  0  0  0  4  0  0  0  0  0  0
   45.4126    1.5249    8.8483 O   0  0  0  0  0  0  0  0  0  0  0  0
   44.1196    4.3522    8.6007 O   0  0  0  0  0  0  0  0  0  0  0  0
   44.3689    3.6341    8.5592 H   0  0  0  0  0  0  0  0  0  0  0  0
   45.0397    2.1687    8.6886 H   0  0  0  0  0  0  0  0  0  0  0  0
  2  3  2  0
  4  5  2  0
  6  7  2  0
  8  9  2  0
  8 10  2  0
 11 12  2  0
 11 13  2  0
 14 15  2  0
 14 16  2  0
 17 18  2  0
 17 19  2  0
  1 20  1  0
  1 21  1  0
M  END
> <Uni-Dock RESULT> 
ENERGY=   -7.166  LOWER_BOUND=    3.665  UPPER_BOUND=    4.037
INTER + INTRA:          -7.166
INTER:                  -7.166
INTRA:                   0.000
UNBOUND:                 0.000

$$$$

     RDKit          3D

 21 13  0  0  0  0  0  0  0  0999 V2000
   43.1292    5.0130   12.4798 O   0  0  0  0  0  0  0  0  0  0  0  0
   43.9741    5.1200   12.9529 Mg  0  0  0  0  0  2  0  0  0  0  0  0
   42.4951    5.6187   12.0628 O   0  0  0  0  0  0  0  0  0  0  0  0
   43.9694    5.1216   12.9501 Mg  0  0  0  0  0  2  0  0  0  0  0  0
   42.4999    5.6170   12.0656 O   0  0  0  0  0  0  0  0  0  0  0  0
   43.9722    5.1207   12.9518 Mg  0  0  0  0  0  2  0  0  0  0  0  0
   42.4971    5.6180   12.0640 O   0  0  0  0  0  0  0  0  0  0  0  0
   43.1843    5.2025   12.4942 Si  0  0  0  0  0  4  0  0  0  0  0  0
   44.5388    5.0213   13.2845 O   0  0  0  0  0  0  0  0  0  0  0  0
   41.9808    5.8842   11.7449 O   0  0  0  0  0  0  0  0  0  0  0  0
   43.2008    5.2666   12.4978 Si  0  0  0  0  0  4  0  0  0  0  0  0
   44.5349    4.9877   13.2853 O   0  0  0  0  0  0  0  0  0  0  0  0
   41.9682    5.8537   11.7404 O   0  0  0  0  0  0  0  0  0  0  0  0
   43.1894    5.2254   12.4950 Si  0  0  0  0  0  4  0  0  0  0  0  0
   44.5343    5.0104   13.2829 O   0  0  0  0  0  0  0  0  0  0  0  0
   41.9802    5.8722   11.7456 O   0  0  0  0  0  0  0  0  0  0  0  0
   43.1985    5.2499   12.4980 Si  0  0  0  0  0  4  0  0  0  0  0  0
   44.5363    4.9962   13.2854 O   0  0  0  0  0  0  0  0  0  0  0  0
   41.9692    5.8619   11.7403 O   0  0  0  0  0  0  0  0  0  0  0  0
   42.6221    5.7725   12.1214 H   0  0  0  0  0  0  0  0  0  0  0  0
   43.9526    5.3225   12.9224 H   0  0  0  0  0  0  0  0  0  0  0  0
  2  3  2  0
  4  5  2  0
  6  7  2  0
  8  9  2  0
  8 10  2  0
 11 12  2  0
 11 13  2  0
 14 15  2  0
 14 16  2  0
 17 18  2  0
 17 19  2  0
  1 20  1  0
  1 21  1  0
M  END
> <Uni-Dock RESULT> 
ENERGY=   -7.086  LOWER_BOUND=    8.247  UPPER_BOUND=    8.384
INTER + INTRA:          -7.086
INTER:                  -7.086
INTRA:                   0.000
UNBOUND:                 0.000

$$$$
