
     RDKit          3D

 21 13  0  0  0  0  0  0  0  0999 V2000
   47.4012    2.0070    6.8520 O   0  0  0  0  0  0  0  0  0  0  0  0
   47.9395    1.9304    6.0409 Mg  0  0  0  0  0  2  0  0  0  0  0  0
   47.0175    1.3693    7.4737 O   0  0  0  0  0  0  0  0  0  0  0  0
   47.9383    1.9296    6.0428 Mg  0  0  0  0  0  2  0  0  0  0  0  0
   47.0188    1.3700    7.4718 O   0  0  0  0  0  0  0  0  0  0  0  0
   47.9376    1.9292    6.0439 Mg  0  0  0  0  0  2  0  0  0  0  0  0
   47.0194    1.3704    7.4707 O   0  0  0  0  0  0  0  0  0  0  0  0
   47.4687    1.6915    6.7696 Si  0  0  0  0  0  4  0  0  0  0  0  0
   46.6754    1.1372    8.0069 O   0  0  0  0  0  0  0  0  0  0  0  0
   48.2915    2.1208    5.4954 O   0  0  0  0  0  0  0  0  0  0  0  0
   47.4563    1.6663    6.7900 Si  0  0  0  0  0  4  0  0  0  0  0  0
   48.2562    2.2179    5.5427 O   0  0  0  0  0  0  0  0  0  0  0  0
   46.8038    0.6818    7.8410 O   0  0  0  0  0  0  0  0  0  0  0  0
   47.4537    1.7643    6.7877 Si  0  0  0  0  0  4  0  0  0  0  0  0
   46.6926    1.1066    7.9829 O   0  0  0  0  0  0  0  0  0  0  0  0
   48.2893    2.0786    5.5014 O   0  0  0  0  0  0  0  0  0  0  0  0
   47.4418    1.8417    6.8009 Si  0  0  0  0  0  4  0  0  0  0  0  0
   46.6205    1.4141    8.0727 O   0  0  0  0  0  0  0  0  0  0  0  0
   48.1803    2.6103    5.6331 O   0  0  0  0  0  0  0  0  0  0  0  0
   47.1027    1.2176    7.3542 H   0  0  0  0  0  0  0  0  0  0  0  0
   47.9316    1.7248    6.0659 H   0  0  0  0  0  0  0  0  0  0  0  0
  2  3  2  0
  4  5  2  0
  6  7  2  0
  8  9  2  0
  8 10  2  0
 11 12  2  0
 11 13  2  0
 14 15  2  0
 14 16  2  0
 17 18  2  0
 17 19  2  0
  1 20  1  0
  1 21  1  0
M  END
> <Uni-Dock RESULT> 
ENERGY=   -9.089  LOWER_BOUND=    0.000  UPPER_BOUND=    0.000
INTER + INTRA:          -9.089
INTER:                  -9.089
INTRA:                   0.000
UNBOUND:                 0.000

$$$$

     RDKit          3D

 21 13  0  0  0  0  0  0  0  0999 V2000
   47.3678    2.0058    6.8907 O   0  0  0  0  0  0  0  0  0  0  0  0
   47.0780    1.2234    7.3979 Mg  0  0  0  0  0  2  0  0  0  0  0  0
   47.9043    2.1364    6.0935 O   0  0  0  0  0  0  0  0  0  0  0  0
   47.0791    1.2246    7.3961 Mg  0  0  0  0  0  2  0  0  0  0  0  0
   47.9032    2.1351    6.0953 O   0  0  0  0  0  0  0  0  0  0  0  0
   47.0797    1.2252    7.3952 Mg  0  0  0  0  0  2  0  0  0  0  0  0
   47.9026    2.1345    6.0962 O   0  0  0  0  0  0  0  0  0  0  0  0
   47.4773    1.7190    6.7617 Si  0  0  0  0  0  4  0  0  0  0  0  0
   48.2223    2.4604    5.5945 O   0  0  0  0  0  0  0  0  0  0  0  0
   46.7739    0.8601    7.8809 O   0  0  0  0  0  0  0  0  0  0  0  0
   47.4968    1.7204    6.7331 Si  0  0  0  0  0  4  0  0  0  0  0  0
   46.7490    0.9682    7.9057 O   0  0  0  0  0  0  0  0  0  0  0  0
   48.3616    2.0041    5.4403 O   0  0  0  0  0  0  0  0  0  0  0  0
   47.4516    1.7844    6.7922 Si  0  0  0  0  0  4  0  0  0  0  0  0
   48.2265    2.4182    5.5929 O   0  0  0  0  0  0  0  0  0  0  0  0
   46.7954    0.8371    7.8521 O   0  0  0  0  0  0  0  0  0  0  0  0
   47.4220    1.8485    6.8285 Si  0  0  0  0  0  4  0  0  0  0  0  0
   48.1236    2.7063    5.7120 O   0  0  0  0  0  0  0  0  0  0  0  0
   46.6080    1.3140    8.0742 O   0  0  0  0  0  0  0  0  0  0  0  0
   47.9250    1.9265    6.0859 H   0  0  0  0  0  0  0  0  0  0  0  0
   47.1808    1.1073    7.2603 H   0  0  0  0  0  0  0  0  0  0  0  0
  2  3  2  0
  4  5  2  0
  6  7  2  0
  8  9  2  0
  8 10  2  0
 11 12  2  0
 11 13  2  0
 14 15  2  0
 14 16  2  0
 17 18  2  0
 17 19  2  0
  1 20  1  0
  1 21  1  0
M  END
> <Uni-Dock RESULT> 
ENERGY=   -9.011  LOWER_BOUND=    0.751  UPPER_BOUND=    2.255
INTER + INTRA:          -9.011
INTER:                  -9.011
INTRA:                   0.000
UNBOUND:                 0.000

$$$$

     RDKit          3D

 21 13  0  0  0  0  0  0  0  0999 V2000
   42.9818    5.5807   11.8172 O   0  0  0  0  0  0  0  0  0  0  0  0
   43.1767    5.1482   10.9638 Mg  0  0  0  0  0  2  0  0  0  0  0  0
   42.8503    5.2628   12.7239 O   0  0  0  0  0  0  0  0  0  0  0  0
   43.1762    5.1483   10.9661 Mg  0  0  0  0  0  2  0  0  0  0  0  0
   42.8508    5.2627   12.7215 O   0  0  0  0  0  0  0  0  0  0  0  0
   43.1760    5.1484   10.9674 Mg  0  0  0  0  0  2  0  0  0  0  0  0
   42.8510    5.2626   12.7203 O   0  0  0  0  0  0  0  0  0  0  0  0
   43.0095    5.2498   11.8421 Si  0  0  0  0  0  4  0  0  0  0  0  0
   42.7295    5.2838   13.3873 O   0  0  0  0  0  0  0  0  0  0  0  0
   43.3015    5.0829   10.3020 O   0  0  0  0  0  0  0  0  0  0  0  0
   43.0053    5.2354   11.8734 Si  0  0  0  0  0  4  0  0  0  0  0  0
   43.2878    5.1945   10.3182 O   0  0  0  0  0  0  0  0  0  0  0  0
   42.7807    4.7853   13.3722 O   0  0  0  0  0  0  0  0  0  0  0  0
   43.0033    5.3258   11.8353 Si  0  0  0  0  0  4  0  0  0  0  0  0
   42.7360    5.2446   13.3723 O   0  0  0  0  0  0  0  0  0  0  0  0
   43.3012    5.0462   10.3238 O   0  0  0  0  0  0  0  0  0  0  0  0
   42.9982    5.4039   11.8217 Si  0  0  0  0  0  4  0  0  0  0  0  0
   42.7067    5.5713   13.3585 O   0  0  0  0  0  0  0  0  0  0  0  0
   43.2561    5.6007   10.2742 O   0  0  0  0  0  0  0  0  0  0  0  0
   42.8827    5.0682   12.6490 H   0  0  0  0  0  0  0  0  0  0  0  0
   43.1760    4.9676   11.0654 H   0  0  0  0  0  0  0  0  0  0  0  0
  2  3  2  0
  4  5  2  0
  6  7  2  0
  8  9  2  0
  8 10  2  0
 11 12  2  0
 11 13  2  0
 14 15  2  0
 14 16  2  0
 17 18  2  0
 17 19  2  0
  1 20  1  0
  1 21  1  0
M  END
> <Uni-Dock RESULT> 
ENERGY=   -7.425  LOWER_BOUND=    7.073  UPPER_BOUND=    7.656
INTER + INTRA:          -7.425
INTER:                  -7.425
INTRA:                   0.000
UNBOUND:                 0.000

$$$$

     RDKit          3D

 21 13  0  0  0  0  0  0  0  0999 V2000
   43.0039    4.9420   11.8749 O   0  0  0  0  0  0  0  0  0  0  0  0
   42.8646    5.3746   12.7391 Mg  0  0  0  0  0  2  0  0  0  0  0  0
   43.1523    5.2634   10.9720 O   0  0  0  0  0  0  0  0  0  0  0  0
   42.8650    5.3745   12.7368 Mg  0  0  0  0  0  2  0  0  0  0  0  0
   43.1519    5.2636   10.9744 O   0  0  0  0  0  0  0  0  0  0  0  0
   42.8652    5.3744   12.7355 Mg  0  0  0  0  0  2  0  0  0  0  0  0
   43.1517    5.2636   10.9757 O   0  0  0  0  0  0  0  0  0  0  0  0
   43.0082    5.2745   11.8564 Si  0  0  0  0  0  4  0  0  0  0  0  0
   43.2607    5.2439   10.3064 O   0  0  0  0  0  0  0  0  0  0  0  0
   42.7565    5.4387   13.4039 O   0  0  0  0  0  0  0  0  0  0  0  0
   43.0133    5.2891   11.8254 Si  0  0  0  0  0  4  0  0  0  0  0  0
   42.7591    5.3266   13.3855 O   0  0  0  0  0  0  0  0  0  0  0  0
   43.2586    5.7446   10.3314 O   0  0  0  0  0  0  0  0  0  0  0  0
   43.0070    5.1982   11.8617 Si  0  0  0  0  0  4  0  0  0  0  0  0
   43.2583    5.2832   10.3222 O   0  0  0  0  0  0  0  0  0  0  0  0
   42.7601    5.4756   13.3828 O   0  0  0  0  0  0  0  0  0  0  0  0
   43.0047    5.1197   11.8739 Si  0  0  0  0  0  4  0  0  0  0  0  0
   43.2558    4.9550   10.3297 O   0  0  0  0  0  0  0  0  0  0  0  0
   42.7516    4.9185   13.4216 O   0  0  0  0  0  0  0  0  0  0  0  0
   43.1402    5.4587   11.0510 H   0  0  0  0  0  0  0  0  0  0  0  0
   42.8814    5.5563   12.6408 H   0  0  0  0  0  0  0  0  0  0  0  0
  2  3  2  0
  4  5  2  0
  6  7  2  0
  8  9  2  0
  8 10  2  0
 11 12  2  0
 11 13  2  0
 14 15  2  0
 14 16  2  0
 17 18  2  0
 17 19  2  0
  1 20  1  0
  1 21  1  0
M  END
> <Uni-Dock RESULT> 
ENERGY=   -7.129  LOWER_BOUND=    7.179  UPPER_BOUND=    7.964
INTER + INTRA:          -7.129
INTER:                  -7.129
INTRA:                   0.000
UNBOUND:                 0.000

$$$$

     RDKit          3D

 21 13  0  0  0  0  0  0  0  0999 V2000
   43.2784    5.1506   12.2833 O   0  0  0  0  0  0  0  0  0  0  0  0
   43.2320    4.4257   12.9358 Mg  0  0  0  0  0  2  0  0  0  0  0  0
   42.6267    5.7518   11.8904 O   0  0  0  0  0  0  0  0  0  0  0  0
   43.2312    4.4275   12.9344 Mg  0  0  0  0  0  2  0  0  0  0  0  0
   42.6275    5.7500   11.8918 O   0  0  0  0  0  0  0  0  0  0  0  0
   43.2307    4.4285   12.9337 Mg  0  0  0  0  0  2  0  0  0  0  0  0
   42.6280    5.7491   11.8926 O   0  0  0  0  0  0  0  0  0  0  0  0
   42.9700    5.0972   12.3970 Si  0  0  0  0  0  4  0  0  0  0  0  0
   42.3785    6.2468   11.5050 O   0  0  0  0  0  0  0  0  0  0  0  0
   43.4395    3.9224   13.3374 O   0  0  0  0  0  0  0  0  0  0  0  0
   42.9444    5.1171   12.3848 Si  0  0  0  0  0  4  0  0  0  0  0  0
   43.5336    3.9586   13.2851 O   0  0  0  0  0  0  0  0  0  0  0  0
   41.9351    6.1273   11.7061 O   0  0  0  0  0  0  0  0  0  0  0  0
   43.0412    5.1086   12.3715 Si  0  0  0  0  0  4  0  0  0  0  0  0
   42.3492    6.2272   11.5287 O   0  0  0  0  0  0  0  0  0  0  0  0
   43.3976    3.9305   13.3392 O   0  0  0  0  0  0  0  0  0  0  0  0
   43.1171    5.1155   12.3491 Si  0  0  0  0  0  4  0  0  0  0  0  0
   42.6493    6.2880   11.4103 O   0  0  0  0  0  0  0  0  0  0  0  0
   43.9176    4.0143   13.1532 O   0  0  0  0  0  0  0  0  0  0  0  0
   42.4814    5.6542   12.0082 H   0  0  0  0  0  0  0  0  0  0  0  0
   43.0282    4.4616   12.9478 H   0  0  0  0  0  0  0  0  0  0  0  0
  2  3  2  0
  4  5  2  0
  6  7  2  0
  8  9  2  0
  8 10  2  0
 11 12  2  0
 11 13  2  0
 14 15  2  0
 14 16  2  0
 17 18  2  0
 17 19  2  0
  1 20  1  0
  1 21  1  0
M  END
> <Uni-Dock RESULT> 
ENERGY=   -6.960  LOWER_BOUND=    7.820  UPPER_BOUND=    8.207
INTER + INTRA:          -6.960
INTER:                  -6.960
INTRA:                   0.000
UNBOUND:                 0.000

$$$$

     RDKit          3D

 21 13  0  0  0  0  0  0  0  0999 V2000
   44.7044    2.8930    9.0614 O   0  0  0  0  0  0  0  0  0  0  0  0
   44.4975    3.7666    8.6774 Mg  0  0  0  0  0  2  0  0  0  0  0  0
   45.2840    2.1594    8.8038 O   0  0  0  0  0  0  0  0  0  0  0  0
   44.4985    3.7645    8.6776 Mg  0  0  0  0  0  2  0  0  0  0  0  0
   45.2830    2.1616    8.8036 O   0  0  0  0  0  0  0  0  0  0  0  0
   44.4991    3.7633    8.6777 Mg  0  0  0  0  0  2  0  0  0  0  0  0
   45.2824    2.1627    8.8036 O   0  0  0  0  0  0  0  0  0  0  0  0
   44.8694    2.9534    8.7785 Si  0  0  0  0  0  4  0  0  0  0  0  0
   45.5908    1.5592    8.8324 O   0  0  0  0  0  0  0  0  0  0  0  0
   44.2120    4.3764    8.6110 O   0  0  0  0  0  0  0  0  0  0  0  0
   44.8910    2.9290    8.7667 Si  0  0  0  0  0  4  0  0  0  0  0  0
   44.1681    4.3340    8.7067 O   0  0  0  0  0  0  0  0  0  0  0  0
   45.8143    1.6975    8.4055 O   0  0  0  0  0  0  0  0  0  0  0  0
   44.8310    2.9405    8.8434 Si  0  0  0  0  0  4  0  0  0  0  0  0
   45.6018    1.5825    8.7986 O   0  0  0  0  0  0  0  0  0  0  0  0
   44.2394    4.3660    8.5799 O   0  0  0  0  0  0  0  0  0  0  0  0
   44.7883    2.9332    8.9101 Si  0  0  0  0  0  4  0  0  0  0  0  0
   45.4439    1.5131    9.0780 O   0  0  0  0  0  0  0  0  0  0  0  0
   43.9591    4.2718    9.0537 O   0  0  0  0  0  0  0  0  0  0  0  0
   45.3384    2.2753    8.6360 H   0  0  0  0  0  0  0  0  0  0  0  0
   44.6296    3.7207    8.5245 H   0  0  0  0  0  0  0  0  0  0  0  0
  2  3  2  0
  4  5  2  0
  6  7  2  0
  8  9  2  0
  8 10  2  0
 11 12  2  0
 11 13  2  0
 14 15  2  0
 14 16  2  0
 17 18  2  0
 17 19  2  0
  1 20  1  0
  1 21  1  0
M  END
> <Uni-Dock RESULT> 
ENERGY=   -6.898  LOWER_BOUND=    3.222  UPPER_BOUND=    3.840
INTER + INTRA:          -6.898
INTER:                  -6.898
INTRA:                   0.000
UNBOUND:                 0.000

$$$$

     RDKit          3D

 21 13  0  0  0  0  0  0  0  0999 V2000
   44.6473    2.8635    8.8373 O   0  0  0  0  0  0  0  0  0  0  0  0
   45.3726    2.2160    8.7474 Mg  0  0  0  0  0  2  0  0  0  0  0  0
   44.5677    3.8178    8.6843 O   0  0  0  0  0  0  0  0  0  0  0  0
   45.3715    2.2182    8.7473 Mg  0  0  0  0  0  2  0  0  0  0  0  0
   44.5687    3.8157    8.6844 O   0  0  0  0  0  0  0  0  0  0  0  0
   45.3710    2.2193    8.7472 Mg  0  0  0  0  0  2  0  0  0  0  0  0
   44.5693    3.8145    8.6844 O   0  0  0  0  0  0  0  0  0  0  0  0
   44.9314    3.0002    8.7301 Si  0  0  0  0  0  4  0  0  0  0  0  0
   44.2840    4.4292    8.6534 O   0  0  0  0  0  0  0  0  0  0  0  0
   45.6949    1.6214    8.7640 O   0  0  0  0  0  0  0  0  0  0  0  0
   44.9318    3.0342    8.7237 Si  0  0  0  0  0  4  0  0  0  0  0  0
   45.5893    1.5982    8.7987 O   0  0  0  0  0  0  0  0  0  0  0  0
   44.7331    4.5859    8.4950 O   0  0  0  0  0  0  0  0  0  0  0  0
   44.8666    2.9678    8.7547 Si  0  0  0  0  0  4  0  0  0  0  0  0
   44.3249    4.4287    8.6417 O   0  0  0  0  0  0  0  0  0  0  0  0
   45.7189    1.6543    8.7510 O   0  0  0  0  0  0  0  0  0  0  0  0
   44.8027    2.9283    8.7805 Si  0  0  0  0  0  4  0  0  0  0  0  0
   44.0400    4.3038    8.7469 O   0  0  0  0  0  0  0  0  0  0  0  0
   45.2459    1.4180    8.9310 O   0  0  0  0  0  0  0  0  0  0  0  0
   44.7705    3.8147    8.6263 H   0  0  0  0  0  0  0  0  0  0  0  0
   45.4925    2.3727    8.6839 H   0  0  0  0  0  0  0  0  0  0  0  0
  2  3  2  0
  4  5  2  0
  6  7  2  0
  8  9  2  0
  8 10  2  0
 11 12  2  0
 11 13  2  0
 14 15  2  0
 14 16  2  0
 17 18  2  0
 17 19  2  0
  1 20  1  0
  1 21  1  0
M  END
> <Uni-Dock RESULT> 
ENERGY=   -6.889  LOWER_BOUND=    3.178  UPPER_BOUND=    3.881
INTER + INTRA:          -6.889
INTER:                  -6.889
INTRA:                   0.000
UNBOUND:                 0.000

$$$$

     RDKit          3D

 21 13  0  0  0  0  0  0  0  0999 V2000
   43.2671    5.2519   12.3896 O   0  0  0  0  0  0  0  0  0  0  0  0
   42.4394    5.6301   12.0358 Mg  0  0  0  0  0  2  0  0  0  0  0  0
   43.4791    4.4871   12.9469 O   0  0  0  0  0  0  0  0  0  0  0  0
   42.4407    5.6285   12.0370 Mg  0  0  0  0  0  2  0  0  0  0  0  0
   43.4777    4.4886   12.9457 O   0  0  0  0  0  0  0  0  0  0  0  0
   42.4415    5.6277   12.0376 Mg  0  0  0  0  0  2  0  0  0  0  0  0
   43.4770    4.4894   12.9450 O   0  0  0  0  0  0  0  0  0  0  0  0
   42.9964    5.0804   12.4801 Si  0  0  0  0  0  4  0  0  0  0  0  0
   43.8519    4.0459   13.2955 O   0  0  0  0  0  0  0  0  0  0  0  0
   42.0294    6.0494   11.6984 O   0  0  0  0  0  0  0  0  0  0  0  0
   43.0007    5.0524   12.5001 Si  0  0  0  0  0  4  0  0  0  0  0  0
   42.1339    6.0905   11.6810 O   0  0  0  0  0  0  0  0  0  0  0  0
   43.4159    3.8234   13.4038 O   0  0  0  0  0  0  0  0  0  0  0  0
   43.0579    5.1205   12.4587 Si  0  0  0  0  0  4  0  0  0  0  0  0
   43.8102    4.0377   13.2967 O   0  0  0  0  0  0  0  0  0  0  0  0
   42.0095    6.0175   11.7186 O   0  0  0  0  0  0  0  0  0  0  0  0
   43.1177    5.1663   12.4332 Si  0  0  0  0  0  4  0  0  0  0  0  0
   44.0833    4.1997   13.2131 O   0  0  0  0  0  0  0  0  0  0  0  0
   42.4590    6.3101   11.5627 O   0  0  0  0  0  0  0  0  0  0  0  0
   43.2720    4.4471   12.9524 H   0  0  0  0  0  0  0  0  0  0  0  0
   42.3386    5.4766   12.1321 H   0  0  0  0  0  0  0  0  0  0  0  0
  2  3  2  0
  4  5  2  0
  6  7  2  0
  8  9  2  0
  8 10  2  0
 11 12  2  0
 11 13  2  0
 14 15  2  0
 14 16  2  0
 17 18  2  0
 17 19  2  0
  1 20  1  0
  1 21  1  0
M  END
> <Uni-Dock RESULT> 
ENERGY=   -6.848  LOWER_BOUND=    7.916  UPPER_BOUND=    8.103
INTER + INTRA:          -6.848
INTER:                  -6.848
INTRA:                   0.000
UNBOUND:                 0.000

$$$$
