
     RDKit          3D

 21 13  0  0  0  0  0  0  0  0999 V2000
   47.7469    1.9876    6.2903 O   0  0  0  0  0  0  0  0  0  0  0  0
   47.5373    2.7176    5.6872 Mg  0  0  0  0  0  2  0  0  0  0  0  0
   47.4119    1.6903    7.1503 O   0  0  0  0  0  0  0  0  0  0  0  0
   47.5373    2.7174    5.6874 Mg  0  0  0  0  0  2  0  0  0  0  0  0
   47.4119    1.6904    7.1501 O   0  0  0  0  0  0  0  0  0  0  0  0
   47.5375    2.7194    5.6846 Mg  0  0  0  0  0  2  0  0  0  0  0  0
   47.4117    1.6885    7.1529 O   0  0  0  0  0  0  0  0  0  0  0  0
   46.9187    2.6851    6.6316 Si  0  0  0  0  0  4  0  0  0  0  0  0
   47.5867    3.0205    5.2376 O   0  0  0  0  0  0  0  0  0  0  0  0
   46.6519    1.9119    7.9847 O   0  0  0  0  0  0  0  0  0  0  0  0
   47.7075    2.0839    6.2278 Si  0  0  0  0  0  4  0  0  0  0  0  0
   47.7630    1.0548    7.4290 O   0  0  0  0  0  0  0  0  0  0  0  0
   47.0873    3.3667    5.5361 O   0  0  0  0  0  0  0  0  0  0  0  0
   47.6179    2.0952    6.3449 Si  0  0  0  0  0  4  0  0  0  0  0  0
   48.0361    2.7218    4.9531 O   0  0  0  0  0  0  0  0  0  0  0  0
   47.6512    1.0950    7.5423 O   0  0  0  0  0  0  0  0  0  0  0  0
   47.5610    2.1325    6.3815 Si  0  0  0  0  0  4  0  0  0  0  0  0
   47.5408    3.1348    5.1623 O   0  0  0  0  0  0  0  0  0  0  0  0
   47.3219    1.3446    7.7124 O   0  0  0  0  0  0  0  0  0  0  0  0
   47.3964    2.7869    5.8066 H   0  0  0  0  0  0  0  0  0  0  0  0
   47.2804    1.8372    7.1593 H   0  0  0  0  0  0  0  0  0  0  0  0
  2  3  2  0
  4  5  2  0
  6  7  2  0
  8  9  2  0
  8 10  2  0
 11 12  2  0
 11 13  2  0
 14 15  2  0
 14 16  2  0
 17 18  2  0
 17 19  2  0
  1 20  1  0
  1 21  1  0
M  END
> <Uni-Dock RESULT> 
ENERGY=   -8.420  LOWER_BOUND=    0.000  UPPER_BOUND=    0.000
INTER + INTRA:          -8.420
INTER:                  -8.420
INTRA:                   0.000
UNBOUND:                 0.000

$$$$

     RDKit          3D

 21 13  0  0  0  0  0  0  0  0999 V2000
   47.7445    1.9098    6.3865 O   0  0  0  0  0  0  0  0  0  0  0  0
   47.2870    1.7782    7.2315 Mg  0  0  0  0  0  2  0  0  0  0  0  0
   47.6971    2.5676    5.6757 O   0  0  0  0  0  0  0  0  0  0  0  0
   47.2871    1.7783    7.2312 Mg  0  0  0  0  0  2  0  0  0  0  0  0
   47.6971    2.5675    5.6759 O   0  0  0  0  0  0  0  0  0  0  0  0
   47.2863    1.7768    7.2342 Mg  0  0  0  0  0  2  0  0  0  0  0  0
   47.6978    2.5690    5.6730 O   0  0  0  0  0  0  0  0  0  0  0  0
   46.9583    2.6865    6.6463 Si  0  0  0  0  0  4  0  0  0  0  0  0
   47.1731    1.5275    7.7010 O   0  0  0  0  0  0  0  0  0  0  0  0
   47.1711    3.5284    5.3249 O   0  0  0  0  0  0  0  0  0  0  0  0
   47.6776    1.9092    6.4878 Si  0  0  0  0  0  4  0  0  0  0  0  0
   48.1891    2.4398    5.0871 O   0  0  0  0  0  0  0  0  0  0  0  0
   46.7337    2.0400    7.7529 O   0  0  0  0  0  0  0  0  0  0  0  0
   47.6225    2.0314    6.4254 Si  0  0  0  0  0  4  0  0  0  0  0  0
   47.5624    1.0588    7.6724 O   0  0  0  0  0  0  0  0  0  0  0  0
   48.1082    2.5766    5.0462 O   0  0  0  0  0  0  0  0  0  0  0  0
   47.5735    2.0910    6.4283 Si  0  0  0  0  0  4  0  0  0  0  0  0
   47.0942    1.5257    7.8219 O   0  0  0  0  0  0  0  0  0  0  0  0
   47.8085    2.9018    5.1106 O   0  0  0  0  0  0  0  0  0  0  0  0
   47.1763    1.9395    7.2063 H   0  0  0  0  0  0  0  0  0  0  0  0
   47.5554    2.6694    5.7679 H   0  0  0  0  0  0  0  0  0  0  0  0
  2  3  2  0
  4  5  2  0
  6  7  2  0
  8  9  2  0
  8 10  2  0
 11 12  2  0
 11 13  2  0
 14 15  2  0
 14 16  2  0
 17 18  2  0
 17 19  2  0
  1 20  1  0
  1 21  1  0
M  END
> <Uni-Dock RESULT> 
ENERGY=   -8.379  LOWER_BOUND=    0.791  UPPER_BOUND=    2.181
INTER + INTRA:          -8.379
INTER:                  -8.379
INTRA:                   0.000
UNBOUND:                 0.000

$$$$

     RDKit          3D

 21 13  0  0  0  0  0  0  0  0999 V2000
   47.1382    2.5860    6.9468 O   0  0  0  0  0  0  0  0  0  0  0  0
   47.6163    1.7494    6.8360 Mg  0  0  0  0  0  2  0  0  0  0  0  0
   46.9404    3.3442    6.3757 O   0  0  0  0  0  0  0  0  0  0  0  0
   47.6162    1.7497    6.8359 Mg  0  0  0  0  0  2  0  0  0  0  0  0
   46.9405    3.3440    6.3758 O   0  0  0  0  0  0  0  0  0  0  0  0
   47.6175    1.7467    6.8368 Mg  0  0  0  0  0  2  0  0  0  0  0  0
   46.9392    3.3470    6.3750 O   0  0  0  0  0  0  0  0  0  0  0  0
   47.5904    2.4103    5.9204 Si  0  0  0  0  0  4  0  0  0  0  0  0
   47.8156    1.2669    6.9900 O   0  0  0  0  0  0  0  0  0  0  0  0
   47.0804    3.7817    5.3214 O   0  0  0  0  0  0  0  0  0  0  0  0
   47.2012    2.4872    6.9151 Si  0  0  0  0  0  4  0  0  0  0  0  0
   46.5255    3.9050    6.7195 O   0  0  0  0  0  0  0  0  0  0  0  0
   48.0394    1.2675    6.3509 O   0  0  0  0  0  0  0  0  0  0  0  0
   47.2079    2.5602    6.7867 Si  0  0  0  0  0  4  0  0  0  0  0  0
   47.6227    1.2481    7.5683 O   0  0  0  0  0  0  0  0  0  0  0  0
   46.5510    3.9585    6.5664 O   0  0  0  0  0  0  0  0  0  0  0  0
   47.2320    2.5633    6.7133 Si  0  0  0  0  0  4  0  0  0  0  0  0
   47.8904    1.1489    6.9534 O   0  0  0  0  0  0  0  0  0  0  0  0
   46.7126    3.9282    6.1509 O   0  0  0  0  0  0  0  0  0  0  0  0
   47.6608    1.7901    6.6482 H   0  0  0  0  0  0  0  0  0  0  0  0
   47.0360    3.2645    6.2226 H   0  0  0  0  0  0  0  0  0  0  0  0
  2  3  2  0
  4  5  2  0
  6  7  2  0
  8  9  2  0
  8 10  2  0
 11 12  2  0
 11 13  2  0
 14 15  2  0
 14 16  2  0
 17 18  2  0
 17 19  2  0
  1 20  1  0
  1 21  1  0
M  END
> <Uni-Dock RESULT> 
ENERGY=   -7.729  LOWER_BOUND=    0.930  UPPER_BOUND=    2.188
INTER + INTRA:          -7.729
INTER:                  -7.729
INTRA:                   0.000
UNBOUND:                 0.000

$$$$

     RDKit          3D

 21 13  0  0  0  0  0  0  0  0999 V2000
   42.9175    5.4948   11.9315 O   0  0  0  0  0  0  0  0  0  0  0  0
   43.1444    5.2617   11.0178 Mg  0  0  0  0  0  2  0  0  0  0  0  0
   42.9313    5.0295   12.7821 O   0  0  0  0  0  0  0  0  0  0  0  0
   43.1443    5.2617   11.0181 Mg  0  0  0  0  0  2  0  0  0  0  0  0
   42.9314    5.0296   12.7818 O   0  0  0  0  0  0  0  0  0  0  0  0
   43.1447    5.2621   11.0147 Mg  0  0  0  0  0  2  0  0  0  0  0  0
   42.9310    5.0291   12.7851 O   0  0  0  0  0  0  0  0  0  0  0  0
   43.2930    4.4352   11.7731 Si  0  0  0  0  0  4  0  0  0  0  0  0
   43.2040    5.3468   10.4835 O   0  0  0  0  0  0  0  0  0  0  0  0
   43.1762    4.0308   13.2971 O   0  0  0  0  0  0  0  0  0  0  0  0
   42.9504    5.4485   11.8242 Si  0  0  0  0  0  4  0  0  0  0  0  0
   42.6912    5.4572   13.3855 O   0  0  0  0  0  0  0  0  0  0  0  0
   43.4127    4.7031   10.5054 O   0  0  0  0  0  0  0  0  0  0  0  0
   42.9757    5.3297   11.9085 Si  0  0  0  0  0  4  0  0  0  0  0  0
   43.0193    5.9268   10.4435 O   0  0  0  0  0  0  0  0  0  0  0  0
   42.7290    5.3108   13.4494 O   0  0  0  0  0  0  0  0  0  0  0  0
   42.9990    5.2563   11.9144 Si  0  0  0  0  0  4  0  0  0  0  0  0
   43.2429    5.2929   10.3553 O   0  0  0  0  0  0  0  0  0  0  0  0
   42.8717    4.8877   13.4300 O   0  0  0  0  0  0  0  0  0  0  0  0
   43.1965    5.0784   11.0686 H   0  0  0  0  0  0  0  0  0  0  0  0
   42.9995    4.8637   12.6997 H   0  0  0  0  0  0  0  0  0  0  0  0
  2  3  2  0
  4  5  2  0
  6  7  2  0
  8  9  2  0
  8 10  2  0
 11 12  2  0
 11 13  2  0
 14 15  2  0
 14 16  2  0
 17 18  2  0
 17 19  2  0
  1 20  1  0
  1 21  1  0
M  END
> <Uni-Dock RESULT> 
ENERGY=   -6.948  LOWER_BOUND=    6.760  UPPER_BOUND=    7.698
INTER + INTRA:          -6.948
INTER:                  -6.948
INTRA:                   0.000
UNBOUND:                 0.000

$$$$

     RDKit          3D

 21 13  0  0  0  0  0  0  0  0999 V2000
   42.9496    5.4316   11.8584 O   0  0  0  0  0  0  0  0  0  0  0  0
   42.9133    5.0606   12.7538 Mg  0  0  0  0  0  2  0  0  0  0  0  0
   43.2096    5.0961   10.9866 O   0  0  0  0  0  0  0  0  0  0  0  0
   42.9134    5.0606   12.7535 Mg  0  0  0  0  0  2  0  0  0  0  0  0
   43.2096    5.0961   10.9869 O   0  0  0  0  0  0  0  0  0  0  0  0
   42.9128    5.0605   12.7568 Mg  0  0  0  0  0  2  0  0  0  0  0  0
   43.2101    5.0962   10.9835 O   0  0  0  0  0  0  0  0  0  0  0  0
   43.2812    4.3503   11.9565 Si  0  0  0  0  0  4  0  0  0  0  0  0
   42.8187    5.0646   13.2898 O   0  0  0  0  0  0  0  0  0  0  0  0
   43.6047    4.1775   10.4185 O   0  0  0  0  0  0  0  0  0  0  0  0
   42.9517    5.3691   11.9625 Si  0  0  0  0  0  4  0  0  0  0  0  0
   43.1429    5.6143   10.4106 O   0  0  0  0  0  0  0  0  0  0  0  0
   43.0348    4.4256   13.2318 O   0  0  0  0  0  0  0  0  0  0  0  0
   43.0015    5.2633   11.8720 Si  0  0  0  0  0  4  0  0  0  0  0  0
   42.6215    5.6372   13.3620 O   0  0  0  0  0  0  0  0  0  0  0  0
   43.1993    5.4778   10.3389 O   0  0  0  0  0  0  0  0  0  0  0  0
   43.0266    5.1910   11.8620 Si  0  0  0  0  0  4  0  0  0  0  0  0
   42.8207    4.9913   13.4142 O   0  0  0  0  0  0  0  0  0  0  0  0
   43.3372    5.0527   10.3344 O   0  0  0  0  0  0  0  0  0  0  0  0
   42.9804    4.8854   12.6929 H   0  0  0  0  0  0  0  0  0  0  0  0
   43.2544    4.9181   11.0592 H   0  0  0  0  0  0  0  0  0  0  0  0
  2  3  2  0
  4  5  2  0
  6  7  2  0
  8  9  2  0
  8 10  2  0
 11 12  2  0
 11 13  2  0
 14 15  2  0
 14 16  2  0
 17 18  2  0
 17 19  2  0
  1 20  1  0
  1 21  1  0
M  END
> <Uni-Dock RESULT> 
ENERGY=   -6.704  LOWER_BOUND=    6.804  UPPER_BOUND=    7.902
INTER + INTRA:          -6.704
INTER:                  -6.704
INTRA:                   0.000
UNBOUND:                 0.000

$$$$

     RDKit          3D

 21 13  0  0  0  0  0  0  0  0999 V2000
   43.2318    4.5617   11.7801 O   0  0  0  0  0  0  0  0  0  0  0  0
   43.2479    5.0174   10.9241 Mg  0  0  0  0  0  2  0  0  0  0  0  0
   43.0261    4.8206   12.6916 O   0  0  0  0  0  0  0  0  0  0  0  0
   43.2479    5.0173   10.9244 Mg  0  0  0  0  0  2  0  0  0  0  0  0
   43.0261    4.8206   12.6913 O   0  0  0  0  0  0  0  0  0  0  0  0
   43.2483    5.0177   10.9211 Mg  0  0  0  0  0  2  0  0  0  0  0  0
   43.0257    4.8203   12.6947 O   0  0  0  0  0  0  0  0  0  0  0  0
   42.9499    5.6611   11.8029 Si  0  0  0  0  0  4  0  0  0  0  0  0
   43.3193    5.0622   10.3864 O   0  0  0  0  0  0  0  0  0  0  0  0
   42.7013    5.6953   13.3640 O   0  0  0  0  0  0  0  0  0  0  0  0
   43.2284    4.6341   11.6828 Si  0  0  0  0  0  4  0  0  0  0  0  0
   43.0918    4.2456   13.2110 O   0  0  0  0  0  0  0  0  0  0  0  0
   43.1375    5.7014   10.5160 O   0  0  0  0  0  0  0  0  0  0  0  0
   43.1877    4.7326   11.7854 Si  0  0  0  0  0  4  0  0  0  0  0  0
   43.4848    4.4912   10.2498 O   0  0  0  0  0  0  0  0  0  0  0  0
   43.0453    4.3766   13.2981 O   0  0  0  0  0  0  0  0  0  0  0  0
   43.1666    4.8047   11.8034 Si  0  0  0  0  0  4  0  0  0  0  0  0
   43.3156    5.1474   10.2699 O   0  0  0  0  0  0  0  0  0  0  0  0
   42.9288    4.8049   13.3503 O   0  0  0  0  0  0  0  0  0  0  0  0
   43.1922    5.1885   11.0048 H   0  0  0  0  0  0  0  0  0  0  0  0
   42.9871    5.0067   12.6388 H   0  0  0  0  0  0  0  0  0  0  0  0
  2  3  2  0
  4  5  2  0
  6  7  2  0
  8  9  2  0
  8 10  2  0
 11 12  2  0
 11 13  2  0
 14 15  2  0
 14 16  2  0
 17 18  2  0
 17 19  2  0
  1 20  1  0
  1 21  1  0
M  END
> <Uni-Dock RESULT> 
ENERGY=   -6.405  LOWER_BOUND=    6.542  UPPER_BOUND=    7.457
INTER + INTRA:          -6.405
INTER:                  -6.405
INTRA:                   0.000
UNBOUND:                 0.000

$$$$

     RDKit          3D

 21 13  0  0  0  0  0  0  0  0999 V2000
   42.9209    5.0331   12.5118 O   0  0  0  0  0  0  0  0  0  0  0  0
   43.7605    4.7364   12.8961 Mg  0  0  0  0  0  2  0  0  0  0  0  0
   42.6511    5.7620   11.9320 O   0  0  0  0  0  0  0  0  0  0  0  0
   43.7603    4.7366   12.8959 Mg  0  0  0  0  0  2  0  0  0  0  0  0
   42.6513    5.7618   11.9322 O   0  0  0  0  0  0  0  0  0  0  0  0
   43.7624    4.7346   12.8977 Mg  0  0  0  0  0  2  0  0  0  0  0  0
   42.6492    5.7638   11.9303 O   0  0  0  0  0  0  0  0  0  0  0  0
   43.8310    5.6579   12.2468 Si  0  0  0  0  0  4  0  0  0  0  0  0
   44.0854    4.4160   13.1928 O   0  0  0  0  0  0  0  0  0  0  0  0
   43.0256    6.6791   11.3477 O   0  0  0  0  0  0  0  0  0  0  0  0
   43.0337    5.0108   12.5507 Si  0  0  0  0  0  4  0  0  0  0  0  0
   41.8912    5.7763   11.7672 O   0  0  0  0  0  0  0  0  0  0  0  0
   44.5523    4.8540   12.9724 O   0  0  0  0  0  0  0  0  0  0  0  0
   43.0615    5.1313   12.4696 Si  0  0  0  0  0  4  0  0  0  0  0  0
   43.6794    4.0115   13.4016 O   0  0  0  0  0  0  0  0  0  0  0  0
   41.9547    5.9050   11.6875 O   0  0  0  0  0  0  0  0  0  0  0  0
   43.1123    5.1829   12.4428 Si  0  0  0  0  0  4  0  0  0  0  0  0
   44.2191    4.3885   13.2398 O   0  0  0  0  0  0  0  0  0  0  0  0
   42.2861    6.1761   11.5596 O   0  0  0  0  0  0  0  0  0  0  0  0
   43.8610    4.8832   12.8108 H   0  0  0  0  0  0  0  0  0  0  0  0
   42.8355    5.8314   11.9195 H   0  0  0  0  0  0  0  0  0  0  0  0
  2  3  2  0
  4  5  2  0
  6  7  2  0
  8  9  2  0
  8 10  2  0
 11 12  2  0
 11 13  2  0
 14 15  2  0
 14 16  2  0
 17 18  2  0
 17 19  2  0
  1 20  1  0
  1 21  1  0
M  END
> <Uni-Dock RESULT> 
ENERGY=   -6.320  LOWER_BOUND=    7.766  UPPER_BOUND=    8.248
INTER + INTRA:          -6.320
INTER:                  -6.320
INTRA:                   0.000
UNBOUND:                 0.000

$$$$

     RDKit          3D

 21 13  0  0  0  0  0  0  0  0999 V2000
   43.1015    4.5317   11.5551 O   0  0  0  0  0  0  0  0  0  0  0  0
   43.7244    3.7897   11.5992 Mg  0  0  0  0  0  2  0  0  0  0  0  0
   42.7544    5.1752   12.1921 O   0  0  0  0  0  0  0  0  0  0  0  0
   43.7243    3.7899   11.5993 Mg  0  0  0  0  0  2  0  0  0  0  0  0
   42.7546    5.1749   12.1920 O   0  0  0  0  0  0  0  0  0  0  0  0
   43.7261    3.7873   11.5982 Mg  0  0  0  0  0  2  0  0  0  0  0  0
   42.7527    5.1776   12.1931 O   0  0  0  0  0  0  0  0  0  0  0  0
   43.5573    4.3323   12.5756 Si  0  0  0  0  0  4  0  0  0  0  0  0
   44.0131    3.3711   11.4050 O   0  0  0  0  0  0  0  0  0  0  0  0
   42.7889    5.5150   13.2903 O   0  0  0  0  0  0  0  0  0  0  0  0
   43.1811    4.4433   11.5791 Si  0  0  0  0  0  4  0  0  0  0  0  0
   42.2496    5.6843   11.8909 O   0  0  0  0  0  0  0  0  0  0  0  0
   44.2197    3.3439   12.0492 O   0  0  0  0  0  0  0  0  0  0  0  0
   43.1715    4.5020   11.7145 Si  0  0  0  0  0  4  0  0  0  0  0  0
   43.8390    3.3796   10.8205 O   0  0  0  0  0  0  0  0  0  0  0  0
   42.2616    5.7248   12.0495 O   0  0  0  0  0  0  0  0  0  0  0  0
   43.1931    4.5016   11.7886 Si  0  0  0  0  0  4  0  0  0  0  0  0
   44.1078    3.2655   11.4323 O   0  0  0  0  0  0  0  0  0  0  0  0
   42.4174    5.6801   12.4659 O   0  0  0  0  0  0  0  0  0  0  0  0
   43.7567    3.8173   11.7919 H   0  0  0  0  0  0  0  0  0  0  0  0
   42.8600    5.0982   12.3400 H   0  0  0  0  0  0  0  0  0  0  0  0
  2  3  2  0
  4  5  2  0
  6  7  2  0
  8  9  2  0
  8 10  2  0
 11 12  2  0
 11 13  2  0
 14 15  2  0
 14 16  2  0
 17 18  2  0
 17 19  2  0
  1 20  1  0
  1 21  1  0
M  END
> <Uni-Dock RESULT> 
ENERGY=   -5.796  LOWER_BOUND=    6.422  UPPER_BOUND=    7.494
INTER + INTRA:          -5.796
INTER:                  -5.796
INTRA:                   0.000
UNBOUND:                 0.000

$$$$

     RDKit          3D

 21 13  0  0  0  0  0  0  0  0999 V2000
   43.6923    4.1417   12.7905 O   0  0  0  0  0  0  0  0  0  0  0  0
   43.0285    4.8314   12.6351 Mg  0  0  0  0  0  2  0  0  0  0  0  0
   44.1135    3.4592   12.2455 O   0  0  0  0  0  0  0  0  0  0  0  0
   43.0286    4.8311   12.6350 Mg  0  0  0  0  0  2  0  0  0  0  0  0
   44.1134    3.4594   12.2455 O   0  0  0  0  0  0  0  0  0  0  0  0
   43.0266    4.8337   12.6358 Mg  0  0  0  0  0  2  0  0  0  0  0  0
   44.1154    3.4568   12.2448 O   0  0  0  0  0  0  0  0  0  0  0  0
   43.2832    4.2010   11.7332 Si  0  0  0  0  0  4  0  0  0  0  0  0
   42.7041    5.2478   12.7680 O   0  0  0  0  0  0  0  0  0  0  0  0
   44.1617    3.0036   11.1906 O   0  0  0  0  0  0  0  0  0  0  0  0
   43.6089    4.2215   12.7531 Si  0  0  0  0  0  4  0  0  0  0  0  0
   44.6310    3.0199   12.6249 O   0  0  0  0  0  0  0  0  0  0  0  0
   42.5327    5.1928   12.1153 O   0  0  0  0  0  0  0  0  0  0  0  0
   43.6297    4.1495   12.6256 Si  0  0  0  0  0  4  0  0  0  0  0  0
   42.8453    5.3128   13.3578 O   0  0  0  0  0  0  0  0  0  0  0  0
   44.6304    2.9621   12.4712 O   0  0  0  0  0  0  0  0  0  0  0  0
   43.6124    4.1407   12.5509 Si  0  0  0  0  0  4  0  0  0  0  0  0
   42.6048    5.3433   12.7247 O   0  0  0  0  0  0  0  0  0  0  0  0
   44.4957    2.9520   12.0452 O   0  0  0  0  0  0  0  0  0  0  0  0
   43.0088    4.7814   12.4453 H   0  0  0  0  0  0  0  0  0  0  0  0
   44.0119    3.5128   12.0850 H   0  0  0  0  0  0  0  0  0  0  0  0
  2  3  2  0
  4  5  2  0
  6  7  2  0
  8  9  2  0
  8 10  2  0
 11 12  2  0
 11 13  2  0
 14 15  2  0
 14 16  2  0
 17 18  2  0
 17 19  2  0
  1 20  1  0
  1 21  1  0
M  END
> <Uni-Dock RESULT> 
ENERGY=   -5.581  LOWER_BOUND=    6.627  UPPER_BOUND=    7.586
INTER + INTRA:          -5.581
INTER:                  -5.581
INTRA:                   0.000
UNBOUND:                 0.000

$$$$
