
     RDKit          3D

 21 13  0  0  0  0  0  0  0  0999 V2000
   47.4152    2.2337    6.4699 O   0  0  0  0  0  0  0  0  0  0  0  0
   47.7956    2.4803    5.6119 Mg  0  0  0  0  0  2  0  0  0  0  0  0
   47.5687    1.5099    7.0879 O   0  0  0  0  0  0  0  0  0  0  0  0
   47.7964    2.4836    5.6068 Mg  0  0  0  0  0  2  0  0  0  0  0  0
   47.5680    1.5066    7.0930 O   0  0  0  0  0  0  0  0  0  0  0  0
   47.7966    2.4847    5.6051 Mg  0  0  0  0  0  2  0  0  0  0  0  0
   47.5677    1.5055    7.0947 O   0  0  0  0  0  0  0  0  0  0  0  0
   47.6229    2.0472    6.3776 Si  0  0  0  0  0  4  0  0  0  0  0  0
   47.9113    2.8230    5.0373 O   0  0  0  0  0  0  0  0  0  0  0  0
   47.5123    1.1151    7.6349 O   0  0  0  0  0  0  0  0  0  0  0  0
   47.1797    2.3919    6.6370 Si  0  0  0  0  0  4  0  0  0  0  0  0
   47.2737    3.3464    5.3784 O   0  0  0  0  0  0  0  0  0  0  0  0
   47.6319    1.1143    7.4568 O   0  0  0  0  0  0  0  0  0  0  0  0
   47.7308    1.8891    6.4012 Si  0  0  0  0  0  4  0  0  0  0  0  0
   48.0926    2.5952    5.0328 O   0  0  0  0  0  0  0  0  0  0  0  0
   46.9108    1.7827    7.7530 O   0  0  0  0  0  0  0  0  0  0  0  0
   47.5760    2.0902    6.3974 Si  0  0  0  0  0  4  0  0  0  0  0  0
   47.5362    1.0957    7.6218 O   0  0  0  0  0  0  0  0  0  0  0  0
   47.9343    2.7995    5.0305 O   0  0  0  0  0  0  0  0  0  0  0  0
   47.7134    1.4337    6.9608 H   0  0  0  0  0  0  0  0  0  0  0  0
   47.9179    2.3179    5.6190 H   0  0  0  0  0  0  0  0  0  0  0  0
  2  3  2  0
  4  5  2  0
  6  7  2  0
  8  9  2  0
  8 10  2  0
 11 12  2  0
 11 13  2  0
 14 15  2  0
 14 16  2  0
 17 18  2  0
 17 19  2  0
  1 20  1  0
  1 21  1  0
M  END
> <Uni-Dock RESULT> 
ENERGY=   -8.841  LOWER_BOUND=    0.000  UPPER_BOUND=    0.000
INTER + INTRA:          -8.841
INTER:                  -8.841
INTRA:                   0.000
UNBOUND:                 0.000

$$$$

     RDKit          3D

 21 13  0  0  0  0  0  0  0  0999 V2000
   47.4203    2.2428    6.4615 O   0  0  0  0  0  0  0  0  0  0  0  0
   47.4934    1.5301    7.1161 Mg  0  0  0  0  0  2  0  0  0  0  0  0
   47.8537    2.4273    5.6204 O   0  0  0  0  0  0  0  0  0  0  0  0
   47.4922    1.5270    7.1212 Mg  0  0  0  0  0  2  0  0  0  0  0  0
   47.8549    2.4304    5.6153 O   0  0  0  0  0  0  0  0  0  0  0  0
   47.4918    1.5260    7.1229 Mg  0  0  0  0  0  2  0  0  0  0  0  0
   47.8553    2.4314    5.6136 O   0  0  0  0  0  0  0  0  0  0  0  0
   47.6177    2.0378    6.3878 Si  0  0  0  0  0  4  0  0  0  0  0  0
   47.3843    1.1597    7.6746 O   0  0  0  0  0  0  0  0  0  0  0  0
   48.0186    2.7385    5.0423 O   0  0  0  0  0  0  0  0  0  0  0  0
   47.2225    2.5058    6.4737 Si  0  0  0  0  0  4  0  0  0  0  0  0
   46.8023    1.8173    7.8350 O   0  0  0  0  0  0  0  0  0  0  0  0
   48.0800    2.5593    5.1430 O   0  0  0  0  0  0  0  0  0  0  0  0
   47.7504    1.9664    6.2673 Si  0  0  0  0  0  4  0  0  0  0  0  0
   47.5886    1.0182    7.5229 O   0  0  0  0  0  0  0  0  0  0  0  0
   47.3842    3.2590    5.4271 O   0  0  0  0  0  0  0  0  0  0  0  0
   47.5728    2.0836    6.4056 Si  0  0  0  0  0  4  0  0  0  0  0  0
   48.0403    2.7137    5.0366 O   0  0  0  0  0  0  0  0  0  0  0  0
   47.4076    1.1388    7.6625 O   0  0  0  0  0  0  0  0  0  0  0  0
   47.9649    2.2537    5.6411 H   0  0  0  0  0  0  0  0  0  0  0  0
   47.6355    1.4395    7.0021 H   0  0  0  0  0  0  0  0  0  0  0  0
  2  3  2  0
  4  5  2  0
  6  7  2  0
  8  9  2  0
  8 10  2  0
 11 12  2  0
 11 13  2  0
 14 15  2  0
 14 16  2  0
 17 18  2  0
 17 19  2  0
  1 20  1  0
  1 21  1  0
M  END
> <Uni-Dock RESULT> 
ENERGY=   -8.775  LOWER_BOUND=    0.771  UPPER_BOUND=    2.193
INTER + INTRA:          -8.775
INTER:                  -8.775
INTRA:                   0.000
UNBOUND:                 0.000

$$$$

     RDKit          3D

 21 13  0  0  0  0  0  0  0  0999 V2000
   47.3216    2.5829    6.4122 O   0  0  0  0  0  0  0  0  0  0  0  0
   47.5933    1.8139    6.9382 Mg  0  0  0  0  0  2  0  0  0  0  0  0
   46.8919    3.4201    6.6216 O   0  0  0  0  0  0  0  0  0  0  0  0
   47.5957    1.8084    6.9393 Mg  0  0  0  0  0  2  0  0  0  0  0  0
   46.8895    3.4256    6.6206 O   0  0  0  0  0  0  0  0  0  0  0  0
   47.5965    1.8066    6.9397 Mg  0  0  0  0  0  2  0  0  0  0  0  0
   46.8887    3.4274    6.6202 O   0  0  0  0  0  0  0  0  0  0  0  0
   47.2596    2.6106    6.6983 Si  0  0  0  0  0  4  0  0  0  0  0  0
   47.8514    1.2069    7.0992 O   0  0  0  0  0  0  0  0  0  0  0  0
   46.6169    4.0335    6.5423 O   0  0  0  0  0  0  0  0  0  0  0  0
   47.3570    2.6256    6.0877 Si  0  0  0  0  0  4  0  0  0  0  0  0
   48.0095    1.1902    6.2208 O   0  0  0  0  0  0  0  0  0  0  0  0
   46.6511    3.9009    6.7074 O   0  0  0  0  0  0  0  0  0  0  0  0
   47.1873    2.7103    6.8467 Si  0  0  0  0  0  4  0  0  0  0  0  0
   47.7546    1.3218    7.3487 O   0  0  0  0  0  0  0  0  0  0  0  0
   46.8801    3.7753    5.7143 O   0  0  0  0  0  0  0  0  0  0  0  0
   47.2742    2.6032    6.6337 Si  0  0  0  0  0  4  0  0  0  0  0  0
   46.6111    4.0338    6.5752 O   0  0  0  0  0  0  0  0  0  0  0  0
   47.8426    1.2140    7.1308 O   0  0  0  0  0  0  0  0  0  0  0  0
   46.8839    3.3646    6.8211 H   0  0  0  0  0  0  0  0  0  0  0  0
   47.5224    1.9035    7.1066 H   0  0  0  0  0  0  0  0  0  0  0  0
  2  3  2  0
  4  5  2  0
  6  7  2  0
  8  9  2  0
  8 10  2  0
 11 12  2  0
 11 13  2  0
 14 15  2  0
 14 16  2  0
 17 18  2  0
 17 19  2  0
  1 20  1  0
  1 21  1  0
M  END
> <Uni-Dock RESULT> 
ENERGY=   -8.020  LOWER_BOUND=    1.066  UPPER_BOUND=    2.150
INTER + INTRA:          -8.020
INTER:                  -8.020
INTRA:                   0.000
UNBOUND:                 0.000

$$$$

     RDKit          3D

 21 13  0  0  0  0  0  0  0  0999 V2000
   43.1221    4.9143   11.8888 O   0  0  0  0  0  0  0  0  0  0  0  0
   43.1526    5.2529   10.9799 Mg  0  0  0  0  0  2  0  0  0  0  0  0
   42.8611    5.2923   12.7364 O   0  0  0  0  0  0  0  0  0  0  0  0
   43.1536    5.2527   10.9738 Mg  0  0  0  0  0  2  0  0  0  0  0  0
   42.8601    5.2924   12.7424 O   0  0  0  0  0  0  0  0  0  0  0  0
   43.1539    5.2527   10.9719 Mg  0  0  0  0  0  2  0  0  0  0  0  0
   42.8598    5.2924   12.7444 O   0  0  0  0  0  0  0  0  0  0  0  0
   43.0321    5.1933   11.8662 Si  0  0  0  0  0  4  0  0  0  0  0  0
   43.2507    5.2775   10.3085 O   0  0  0  0  0  0  0  0  0  0  0  0
   42.7377    5.3470   13.3997 O   0  0  0  0  0  0  0  0  0  0  0  0
   43.2064    4.6135   11.9929 Si  0  0  0  0  0  4  0  0  0  0  0  0
   43.5105    4.4353   10.4503 O   0  0  0  0  0  0  0  0  0  0  0  0
   42.7212    5.4764   13.2294 O   0  0  0  0  0  0  0  0  0  0  0  0
   42.9651    5.3562   11.9447 Si  0  0  0  0  0  4  0  0  0  0  0  0
   43.1506    5.5400   10.3847 O   0  0  0  0  0  0  0  0  0  0  0  0
   43.0405    4.5016   13.2770 O   0  0  0  0  0  0  0  0  0  0  0  0
   43.0527    5.1300   11.8701 Si  0  0  0  0  0  4  0  0  0  0  0  0
   42.7280    5.3785   13.3940 O   0  0  0  0  0  0  0  0  0  0  0  0
   43.2398    5.3092   10.3103 O   0  0  0  0  0  0  0  0  0  0  0  0
   42.8163    5.4709   12.6415 H   0  0  0  0  0  0  0  0  0  0  0  0
   43.0821    5.4327   11.0440 H   0  0  0  0  0  0  0  0  0  0  0  0
  2  3  2  0
  4  5  2  0
  6  7  2  0
  8  9  2  0
  8 10  2  0
 11 12  2  0
 11 13  2  0
 14 15  2  0
 14 16  2  0
 17 18  2  0
 17 19  2  0
  1 20  1  0
  1 21  1  0
M  END
> <Uni-Dock RESULT> 
ENERGY=   -7.193  LOWER_BOUND=    7.066  UPPER_BOUND=    7.822
INTER + INTRA:          -7.193
INTER:                  -7.193
INTRA:                   0.000
UNBOUND:                 0.000

$$$$

     RDKit          3D

 21 13  0  0  0  0  0  0  0  0999 V2000
   43.1047    4.9227   11.8743 O   0  0  0  0  0  0  0  0  0  0  0  0
   42.8703    5.2517   12.7567 Mg  0  0  0  0  0  2  0  0  0  0  0  0
   43.1207    5.3167   10.9946 O   0  0  0  0  0  0  0  0  0  0  0  0
   42.8694    5.2514   12.7628 Mg  0  0  0  0  0  2  0  0  0  0  0  0
   43.1215    5.3169   10.9886 O   0  0  0  0  0  0  0  0  0  0  0  0
   42.8692    5.2514   12.7648 Mg  0  0  0  0  0  2  0  0  0  0  0  0
   43.1218    5.3170   10.9866 O   0  0  0  0  0  0  0  0  0  0  0  0
   43.0199    5.2042   11.8741 Si  0  0  0  0  0  4  0  0  0  0  0  0
   42.7630    5.2668   13.4270 O   0  0  0  0  0  0  0  0  0  0  0  0
   43.2036    5.3815   10.3260 O   0  0  0  0  0  0  0  0  0  0  0  0
   43.2081    4.6204   11.7948 Si  0  0  0  0  0  4  0  0  0  0  0  0
   43.0302    4.4182   13.3540 O   0  0  0  0  0  0  0  0  0  0  0  0
   43.1404    5.5098   10.4859 O   0  0  0  0  0  0  0  0  0  0  0  0
   42.9840    5.3699   11.7821 Si  0  0  0  0  0  4  0  0  0  0  0  0
   42.6977    5.5332   13.3291 O   0  0  0  0  0  0  0  0  0  0  0  0
   43.4322    4.5259   10.5182 O   0  0  0  0  0  0  0  0  0  0  0  0
   43.0389    5.1404   11.8754 Si  0  0  0  0  0  4  0  0  0  0  0  0
   43.1935    5.4133   10.3290 O   0  0  0  0  0  0  0  0  0  0  0  0
   42.7540    5.2989   13.4226 O   0  0  0  0  0  0  0  0  0  0  0  0
   43.0544    5.4957   11.0750 H   0  0  0  0  0  0  0  0  0  0  0  0
   42.8273    5.4342   12.6777 H   0  0  0  0  0  0  0  0  0  0  0  0
  2  3  2  0
  4  5  2  0
  6  7  2  0
  8  9  2  0
  8 10  2  0
 11 12  2  0
 11 13  2  0
 14 15  2  0
 14 16  2  0
 17 18  2  0
 17 19  2  0
  1 20  1  0
  1 21  1  0
M  END
> <Uni-Dock RESULT> 
ENERGY=   -6.959  LOWER_BOUND=    7.171  UPPER_BOUND=    8.096
INTER + INTRA:          -6.959
INTER:                  -6.959
INTRA:                   0.000
UNBOUND:                 0.000

$$$$

     RDKit          3D

 21 13  0  0  0  0  0  0  0  0999 V2000
   43.2761    5.2386   12.3589 O   0  0  0  0  0  0  0  0  0  0  0  0
   43.4618    4.4704   12.9221 Mg  0  0  0  0  0  2  0  0  0  0  0  0
   42.4695    5.6326   12.0075 O   0  0  0  0  0  0  0  0  0  0  0  0
   43.4652    4.4664   12.9252 Mg  0  0  0  0  0  2  0  0  0  0  0  0
   42.4661    5.6366   12.0043 O   0  0  0  0  0  0  0  0  0  0  0  0
   43.4663    4.4651   12.9262 Mg  0  0  0  0  0  2  0  0  0  0  0  0
   42.4650    5.6379   12.0033 O   0  0  0  0  0  0  0  0  0  0  0  0
   43.0336    5.0938   12.4407 Si  0  0  0  0  0  4  0  0  0  0  0  0
   43.8049    4.0077   13.2816 O   0  0  0  0  0  0  0  0  0  0  0  0
   42.0584    6.0530   11.6721 O   0  0  0  0  0  0  0  0  0  0  0  0
   43.4940    5.4483   12.2288 Si  0  0  0  0  0  4  0  0  0  0  0  0
   44.4966    4.4944   12.9960 O   0  0  0  0  0  0  0  0  0  0  0  0
   42.0329    5.8784   11.7941 O   0  0  0  0  0  0  0  0  0  0  0  0
   42.8421    5.0709   12.4401 Si  0  0  0  0  0  4  0  0  0  0  0  0
   43.5236    3.9370   13.3072 O   0  0  0  0  0  0  0  0  0  0  0  0
   42.8971    6.3632   11.5250 O   0  0  0  0  0  0  0  0  0  0  0  0
   43.0893    5.1257   12.4228 Si  0  0  0  0  0  4  0  0  0  0  0  0
   42.0327    6.0345   11.6830 O   0  0  0  0  0  0  0  0  0  0  0  0
   43.7749    3.9942   13.2886 O   0  0  0  0  0  0  0  0  0  0  0  0
   42.3581    5.4859   12.1021 H   0  0  0  0  0  0  0  0  0  0  0  0
   43.2627    4.4300   12.9333 H   0  0  0  0  0  0  0  0  0  0  0  0
  2  3  2  0
  4  5  2  0
  6  7  2  0
  8  9  2  0
  8 10  2  0
 11 12  2  0
 11 13  2  0
 14 15  2  0
 14 16  2  0
 17 18  2  0
 17 19  2  0
  1 20  1  0
  1 21  1  0
M  END
> <Uni-Dock RESULT> 
ENERGY=   -6.737  LOWER_BOUND=    7.886  UPPER_BOUND=    8.416
INTER + INTRA:          -6.737
INTER:                  -6.737
INTRA:                   0.000
UNBOUND:                 0.000

$$$$

     RDKit          3D

 21 13  0  0  0  0  0  0  0  0999 V2000
   45.0579    3.0618    8.6633 O   0  0  0  0  0  0  0  0  0  0  0  0
   44.4555    3.8044    8.8291 Mg  0  0  0  0  0  2  0  0  0  0  0  0
   45.0549    2.1291    8.9069 O   0  0  0  0  0  0  0  0  0  0  0  0
   44.4534    3.8101    8.8288 Mg  0  0  0  0  0  2  0  0  0  0  0  0
   45.0569    2.1233    8.9072 O   0  0  0  0  0  0  0  0  0  0  0  0
   44.4527    3.8120    8.8287 Mg  0  0  0  0  0  2  0  0  0  0  0  0
   45.0576    2.1214    8.9073 O   0  0  0  0  0  0  0  0  0  0  0  0
   44.8227    2.9865    8.8227 Si  0  0  0  0  0  4  0  0  0  0  0  0
   44.1941    4.4310    8.8221 O   0  0  0  0  0  0  0  0  0  0  0  0
   45.2488    1.4826    8.9592 O   0  0  0  0  0  0  0  0  0  0  0  0
   45.3402    3.0675    8.4939 Si  0  0  0  0  0  4  0  0  0  0  0  0
   44.9307    4.5885    8.3430 O   0  0  0  0  0  0  0  0  0  0  0  0
   45.0822    1.5989    9.0281 O   0  0  0  0  0  0  0  0  0  0  0  0
   44.7183    2.8558    8.9187 Si  0  0  0  0  0  4  0  0  0  0  0  0
   44.0077    4.2679    8.9752 O   0  0  0  0  0  0  0  0  0  0  0  0
   45.8929    1.8916    8.4700 O   0  0  0  0  0  0  0  0  0  0  0  0
   44.8755    3.0048    8.7865 Si  0  0  0  0  0  4  0  0  0  0  0  0
   45.2211    1.4771    8.9771 O   0  0  0  0  0  0  0  0  0  0  0  0
   44.1689    4.4182    8.8403 O   0  0  0  0  0  0  0  0  0  0  0  0
   44.8754    2.1570    9.0064 H   0  0  0  0  0  0  0  0  0  0  0  0
   44.3322    3.6814    8.9343 H   0  0  0  0  0  0  0  0  0  0  0  0
  2  3  2  0
  4  5  2  0
  6  7  2  0
  8  9  2  0
  8 10  2  0
 11 12  2  0
 11 13  2  0
 14 15  2  0
 14 16  2  0
 17 18  2  0
 17 19  2  0
  1 20  1  0
  1 21  1  0
M  END
> <Uni-Dock RESULT> 
ENERGY=   -6.662  LOWER_BOUND=    3.318  UPPER_BOUND=    3.981
INTER + INTRA:          -6.662
INTER:                  -6.662
INTRA:                   0.000
UNBOUND:                 0.000

$$$$

     RDKit          3D

 21 13  0  0  0  0  0  0  0  0999 V2000
   43.2691    5.2478   12.4170 O   0  0  0  0  0  0  0  0  0  0  0  0
   42.5379    5.7138   11.9812 Mg  0  0  0  0  0  2  0  0  0  0  0  0
   43.3257    4.4671   12.9798 O   0  0  0  0  0  0  0  0  0  0  0  0
   42.5352    5.7180   11.9778 Mg  0  0  0  0  0  2  0  0  0  0  0  0
   43.3284    4.4628   12.9832 O   0  0  0  0  0  0  0  0  0  0  0  0
   42.5343    5.7194   11.9767 Mg  0  0  0  0  0  2  0  0  0  0  0  0
   43.3293    4.4614   12.9843 O   0  0  0  0  0  0  0  0  0  0  0  0
   43.0071    5.1243   12.4672 Si  0  0  0  0  0  4  0  0  0  0  0  0
   42.2010    6.1705   11.6085 O   0  0  0  0  0  0  0  0  0  0  0  0
   43.5873    3.9765   13.3658 O   0  0  0  0  0  0  0  0  0  0  0  0
   43.5890    5.3252   12.4079 Si  0  0  0  0  0  4  0  0  0  0  0  0
   43.0266    6.4917   11.4986 O   0  0  0  0  0  0  0  0  0  0  0  0
   43.3908    4.0308   13.2991 O   0  0  0  0  0  0  0  0  0  0  0  0
   42.8970    4.9882   12.5481 Si  0  0  0  0  0  4  0  0  0  0  0  0
   42.0001    5.9862   11.7106 O   0  0  0  0  0  0  0  0  0  0  0  0
   44.2918    4.4841   13.1061 O   0  0  0  0  0  0  0  0  0  0  0  0
   43.0658    5.1532   12.4551 Si  0  0  0  0  0  4  0  0  0  0  0  0
   43.5562    3.9647   13.3697 O   0  0  0  0  0  0  0  0  0  0  0  0
   42.1733    6.1534   11.6166 O   0  0  0  0  0  0  0  0  0  0  0  0
   43.1202    4.4443   12.9666 H   0  0  0  0  0  0  0  0  0  0  0  0
   42.4059    5.5792   12.0579 H   0  0  0  0  0  0  0  0  0  0  0  0
  2  3  2  0
  4  5  2  0
  6  7  2  0
  8  9  2  0
  8 10  2  0
 11 12  2  0
 11 13  2  0
 14 15  2  0
 14 16  2  0
 17 18  2  0
 17 19  2  0
  1 20  1  0
  1 21  1  0
M  END
> <Uni-Dock RESULT> 
ENERGY=   -6.531  LOWER_BOUND=    7.999  UPPER_BOUND=    8.247
INTER + INTRA:          -6.531
INTER:                  -6.531
INTRA:                   0.000
UNBOUND:                 0.000

$$$$

     RDKit          3D

 21 13  0  0  0  0  0  0  0  0999 V2000
   43.8069    4.2885   12.7304 O   0  0  0  0  0  0  0  0  0  0  0  0
   43.7605    3.3493   12.4906 Mg  0  0  0  0  0  2  0  0  0  0  0  0
   43.1522    4.9476   12.9879 O   0  0  0  0  0  0  0  0  0  0  0  0
   43.7626    3.3438   12.4889 Mg  0  0  0  0  0  2  0  0  0  0  0  0
   43.1501    4.9531   12.9896 O   0  0  0  0  0  0  0  0  0  0  0  0
   43.7633    3.3420   12.4884 Mg  0  0  0  0  0  2  0  0  0  0  0  0
   43.1494    4.9549   12.9901 O   0  0  0  0  0  0  0  0  0  0  0  0
   43.5335    4.1806   12.7377 Si  0  0  0  0  0  4  0  0  0  0  0  0
   43.9531    2.7260   12.3025 O   0  0  0  0  0  0  0  0  0  0  0  0
   42.8824    5.5387   13.1776 O   0  0  0  0  0  0  0  0  0  0  0  0
   44.0758    4.4779   12.7452 Si  0  0  0  0  0  4  0  0  0  0  0  0
   44.7546    3.1191   12.3015 O   0  0  0  0  0  0  0  0  0  0  0  0
   42.8072    5.3421   13.1358 O   0  0  0  0  0  0  0  0  0  0  0  0
   43.3442    4.2017   12.7677 Si  0  0  0  0  0  4  0  0  0  0  0  0
   43.6642    2.7139   12.3368 O   0  0  0  0  0  0  0  0  0  0  0  0
   43.7727    5.6902   13.1018 O   0  0  0  0  0  0  0  0  0  0  0  0
   43.5959    4.2039   12.7357 Si  0  0  0  0  0  4  0  0  0  0  0  0
   42.8525    5.5237   13.1775 O   0  0  0  0  0  0  0  0  0  0  0  0
   43.9206    2.7177   12.3046 O   0  0  0  0  0  0  0  0  0  0  0  0
   43.0032    4.8048   12.9698 H   0  0  0  0  0  0  0  0  0  0  0  0
   43.5588    3.3520   12.5175 H   0  0  0  0  0  0  0  0  0  0  0  0
  2  3  2  0
  4  5  2  0
  6  7  2  0
  8  9  2  0
  8 10  2  0
 11 12  2  0
 11 13  2  0
 14 15  2  0
 14 16  2  0
 17 18  2  0
 17 19  2  0
  1 20  1  0
  1 21  1  0
M  END
> <Uni-Dock RESULT> 
ENERGY=   -5.976  LOWER_BOUND=    7.088  UPPER_BOUND=    8.022
INTER + INTRA:          -5.976
INTER:                  -5.976
INTRA:                   0.000
UNBOUND:                 0.000

$$$$
