
     RDKit          3D

 21 13  0  0  0  0  0  0  0  0999 V2000
   47.6976    2.2220    6.6378 O   0  0  0  0  0  0  0  0  0  0  0  0
   47.8332    2.4020    5.6866 Mg  0  0  0  0  0  2  0  0  0  0  0  0
   47.4438    1.4115    7.1129 O   0  0  0  0  0  0  0  0  0  0  0  0
   47.8347    2.4056    5.6814 Mg  0  0  0  0  0  2  0  0  0  0  0  0
   47.4423    1.4079    7.1181 O   0  0  0  0  0  0  0  0  0  0  0  0
   47.8338    2.4035    5.6844 Mg  0  0  0  0  0  2  0  0  0  0  0  0
   47.4432    1.4100    7.1150 O   0  0  0  0  0  0  0  0  0  0  0  0
   47.6553    1.9969    6.4684 Si  0  0  0  0  0  4  0  0  0  0  0  0
   47.9717    2.7306    5.1144 O   0  0  0  0  0  0  0  0  0  0  0  0
   47.2885    0.9929    7.6164 O   0  0  0  0  0  0  0  0  0  0  0  0
   47.6594    2.0178    6.4828 Si  0  0  0  0  0  4  0  0  0  0  0  0
   47.2876    0.9855    7.6049 O   0  0  0  0  0  0  0  0  0  0  0  0
   47.9685    2.7170    5.1116 O   0  0  0  0  0  0  0  0  0  0  0  0
   47.6560    2.0027    6.4774 Si  0  0  0  0  0  4  0  0  0  0  0  0
   47.9707    2.7259    5.1128 O   0  0  0  0  0  0  0  0  0  0  0  0
   47.2888    0.9917    7.6090 O   0  0  0  0  0  0  0  0  0  0  0  0
   47.6528    1.9839    6.4596 Si  0  0  0  0  0  4  0  0  0  0  0  0
   47.9726    2.7362    5.1201 O   0  0  0  0  0  0  0  0  0  0  0  0
   47.2901    1.0003    7.6195 O   0  0  0  0  0  0  0  0  0  0  0  0
   47.4354    1.3072    6.9154 H   0  0  0  0  0  0  0  0  0  0  0  0
   47.7826    2.1909    5.6461 H   0  0  0  0  0  0  0  0  0  0  0  0
  2  3  2  0
  4  5  2  0
  6  7  2  0
  8  9  2  0
  8 10  2  0
 11 12  2  0
 11 13  2  0
 14 15  2  0
 14 16  2  0
 17 18  2  0
 17 19  2  0
  1 20  1  0
  1 21  1  0
M  END
> <Uni-Dock RESULT> 
ENERGY=   -9.482  LOWER_BOUND=    0.000  UPPER_BOUND=    0.000
INTER + INTRA:          -9.482
INTER:                  -9.482
INTRA:                   0.000
UNBOUND:                 0.000

$$$$

     RDKit          3D

 21 13  0  0  0  0  0  0  0  0999 V2000
   47.1874    1.7330    6.9064 O   0  0  0  0  0  0  0  0  0  0  0  0
   47.0717    0.8863    7.3810 Mg  0  0  0  0  0  2  0  0  0  0  0  0
   47.9653    2.1355    6.4823 O   0  0  0  0  0  0  0  0  0  0  0  0
   47.0684    0.8817    7.3843 Mg  0  0  0  0  0  2  0  0  0  0  0  0
   47.9685    2.1401    6.4790 O   0  0  0  0  0  0  0  0  0  0  0  0
   47.0703    0.8844    7.3824 Mg  0  0  0  0  0  2  0  0  0  0  0  0
   47.9666    2.1374    6.4809 O   0  0  0  0  0  0  0  0  0  0  0  0
   47.4238    1.5749    6.9241 Si  0  0  0  0  0  4  0  0  0  0  0  0
   46.7819    0.3831    7.7238 O   0  0  0  0  0  0  0  0  0  0  0  0
   48.3496    2.5746    6.1471 O   0  0  0  0  0  0  0  0  0  0  0  0
   47.4019    1.5884    6.9231 Si  0  0  0  0  0  4  0  0  0  0  0  0
   48.3578    2.5641    6.1503 O   0  0  0  0  0  0  0  0  0  0  0  0
   46.7957    0.3802    7.7215 O   0  0  0  0  0  0  0  0  0  0  0  0
   47.4173    1.5832    6.9216 Si  0  0  0  0  0  4  0  0  0  0  0  0
   46.7867    0.3816    7.7232 O   0  0  0  0  0  0  0  0  0  0  0  0
   48.3514    2.5680    6.1501 O   0  0  0  0  0  0  0  0  0  0  0  0
   47.4373    1.5667    6.9247 Si  0  0  0  0  0  4  0  0  0  0  0  0
   46.7759    0.3885    7.7226 O   0  0  0  0  0  0  0  0  0  0  0  0
   48.3421    2.5776    6.1476 O   0  0  0  0  0  0  0  0  0  0  0  0
   48.0828    1.9557    6.5440 H   0  0  0  0  0  0  0  0  0  0  0  0
   47.2853    0.8441    7.3445 H   0  0  0  0  0  0  0  0  0  0  0  0
  2  3  2  0
  4  5  2  0
  6  7  2  0
  8  9  2  0
  8 10  2  0
 11 12  2  0
 11 13  2  0
 14 15  2  0
 14 16  2  0
 17 18  2  0
 17 19  2  0
  1 20  1  0
  1 21  1  0
M  END
> <Uni-Dock RESULT> 
ENERGY=   -9.208  LOWER_BOUND=    1.196  UPPER_BOUND=    2.307
INTER + INTRA:          -9.208
INTER:                  -9.208
INTRA:                   0.000
UNBOUND:                 0.000

$$$$

     RDKit          3D

 21 13  0  0  0  0  0  0  0  0999 V2000
   47.7680    2.3684    6.4766 O   0  0  0  0  0  0  0  0  0  0  0  0
   47.6073    1.5345    6.9608 Mg  0  0  0  0  0  2  0  0  0  0  0  0
   47.3876    2.7220    5.6536 O   0  0  0  0  0  0  0  0  0  0  0  0
   47.6081    1.5302    6.9655 Mg  0  0  0  0  0  2  0  0  0  0  0  0
   47.3868    2.7263    5.6488 O   0  0  0  0  0  0  0  0  0  0  0  0
   47.6077    1.5327    6.9627 Mg  0  0  0  0  0  2  0  0  0  0  0  0
   47.3873    2.7238    5.6516 O   0  0  0  0  0  0  0  0  0  0  0  0
   47.5750    2.1974    6.3554 Si  0  0  0  0  0  4  0  0  0  0  0  0
   47.6515    1.0521    7.4297 O   0  0  0  0  0  0  0  0  0  0  0  0
   47.2660    3.1351    5.1365 O   0  0  0  0  0  0  0  0  0  0  0  0
   47.5925    2.2121    6.3671 Si  0  0  0  0  0  4  0  0  0  0  0  0
   47.2579    3.1242    5.1346 O   0  0  0  0  0  0  0  0  0  0  0  0
   47.6420    1.0484    7.4198 O   0  0  0  0  0  0  0  0  0  0  0  0
   47.5813    2.2060    6.3569 Si  0  0  0  0  0  4  0  0  0  0  0  0
   47.6480    1.0503    7.4265 O   0  0  0  0  0  0  0  0  0  0  0  0
   47.2631    3.1284    5.1381 O   0  0  0  0  0  0  0  0  0  0  0  0
   47.5642    2.1884    6.3481 Si  0  0  0  0  0  4  0  0  0  0  0  0
   47.6567    1.0578    7.4322 O   0  0  0  0  0  0  0  0  0  0  0  0
   47.2716    3.1386    5.1413 O   0  0  0  0  0  0  0  0  0  0  0  0
   47.2637    2.5364    5.6399 H   0  0  0  0  0  0  0  0  0  0  0  0
   47.4607    1.4799    6.8050 H   0  0  0  0  0  0  0  0  0  0  0  0
  2  3  2  0
  4  5  2  0
  6  7  2  0
  8  9  2  0
  8 10  2  0
 11 12  2  0
 11 13  2  0
 14 15  2  0
 14 16  2  0
 17 18  2  0
 17 19  2  0
  1 20  1  0
  1 21  1  0
M  END
> <Uni-Dock RESULT> 
ENERGY=   -9.148  LOWER_BOUND=    0.820  UPPER_BOUND=    2.237
INTER + INTRA:          -9.148
INTER:                  -9.148
INTRA:                   0.000
UNBOUND:                 0.000

$$$$

     RDKit          3D

 21 13  0  0  0  0  0  0  0  0999 V2000
   47.4158    2.4731    6.3219 O   0  0  0  0  0  0  0  0  0  0  0  0
   47.6536    1.7356    6.9178 Mg  0  0  0  0  0  2  0  0  0  0  0  0
   46.9798    3.3266    6.4911 O   0  0  0  0  0  0  0  0  0  0  0  0
   47.6560    1.7298    6.9193 Mg  0  0  0  0  0  2  0  0  0  0  0  0
   46.9774    3.3324    6.4895 O   0  0  0  0  0  0  0  0  0  0  0  0
   47.6546    1.7332    6.9184 Mg  0  0  0  0  0  2  0  0  0  0  0  0
   46.9788    3.3290    6.4904 O   0  0  0  0  0  0  0  0  0  0  0  0
   47.3449    2.5149    6.5946 Si  0  0  0  0  0  4  0  0  0  0  0  0
   47.8936    1.1437    7.1335 O   0  0  0  0  0  0  0  0  0  0  0  0
   46.7116    3.9346    6.3851 O   0  0  0  0  0  0  0  0  0  0  0  0
   47.3517    2.5102    6.5703 Si  0  0  0  0  0  4  0  0  0  0  0  0
   46.7103    3.9321    6.3985 O   0  0  0  0  0  0  0  0  0  0  0  0
   47.8881    1.1510    7.1444 O   0  0  0  0  0  0  0  0  0  0  0  0
   47.3460    2.5168    6.5841 Si  0  0  0  0  0  4  0  0  0  0  0  0
   47.8918    1.1458    7.1377 O   0  0  0  0  0  0  0  0  0  0  0  0
   46.7123    3.9307    6.3915 O   0  0  0  0  0  0  0  0  0  0  0  0
   47.3407    2.5179    6.6096 Si  0  0  0  0  0  4  0  0  0  0  0  0
   47.8951    1.1436    7.1256 O   0  0  0  0  0  0  0  0  0  0  0  0
   46.7143    3.9317    6.3780 O   0  0  0  0  0  0  0  0  0  0  0  0
   46.9668    3.2688    6.7066 H   0  0  0  0  0  0  0  0  0  0  0  0
   47.5674    1.8515    7.0848 H   0  0  0  0  0  0  0  0  0  0  0  0
  2  3  2  0
  4  5  2  0
  6  7  2  0
  8  9  2  0
  8 10  2  0
 11 12  2  0
 11 13  2  0
 14 15  2  0
 14 16  2  0
 17 18  2  0
 17 19  2  0
  1 20  1  0
  1 21  1  0
M  END
> <Uni-Dock RESULT> 
ENERGY=   -8.669  LOWER_BOUND=    1.254  UPPER_BOUND=    2.163
INTER + INTRA:          -8.669
INTER:                  -8.669
INTRA:                   0.000
UNBOUND:                 0.000

$$$$

     RDKit          3D

 21 13  0  0  0  0  0  0  0  0999 V2000
   42.7340    5.5821   11.7672 O   0  0  0  0  0  0  0  0  0  0  0  0
   43.1438    5.2499   10.9443 Mg  0  0  0  0  0  2  0  0  0  0  0  0
   42.8192    5.2960   12.6934 O   0  0  0  0  0  0  0  0  0  0  0  0
   43.1450    5.2497   10.9379 Mg  0  0  0  0  0  2  0  0  0  0  0  0
   42.8181    5.2961   12.6998 O   0  0  0  0  0  0  0  0  0  0  0  0
   43.1443    5.2498   10.9416 Mg  0  0  0  0  0  2  0  0  0  0  0  0
   42.8187    5.2960   12.6961 O   0  0  0  0  0  0  0  0  0  0  0  0
   42.9105    5.3616   11.8045 Si  0  0  0  0  0  4  0  0  0  0  0  0
   43.3017    5.1882   10.2917 O   0  0  0  0  0  0  0  0  0  0  0  0
   42.7324    5.2690   13.3602 O   0  0  0  0  0  0  0  0  0  0  0  0
   42.8948    5.3814   11.8001 Si  0  0  0  0  0  4  0  0  0  0  0  0
   42.7412    5.2590   13.3571 O   0  0  0  0  0  0  0  0  0  0  0  0
   43.3086    5.1783   10.2993 O   0  0  0  0  0  0  0  0  0  0  0  0
   42.9035    5.3695   11.8069 Si  0  0  0  0  0  4  0  0  0  0  0  0
   43.3044    5.1845   10.2939 O   0  0  0  0  0  0  0  0  0  0  0  0
   42.7366    5.2648   13.3557 O   0  0  0  0  0  0  0  0  0  0  0  0
   42.9201    5.3494   11.8074 Si  0  0  0  0  0  4  0  0  0  0  0  0
   43.2965    5.1944   10.2919 O   0  0  0  0  0  0  0  0  0  0  0  0
   42.7279    5.2751   13.3572 O   0  0  0  0  0  0  0  0  0  0  0  0
   42.9613    5.1381   12.6238 H   0  0  0  0  0  0  0  0  0  0  0  0
   43.2492    5.0985   11.0656 H   0  0  0  0  0  0  0  0  0  0  0  0
  2  3  2  0
  4  5  2  0
  6  7  2  0
  8  9  2  0
  8 10  2  0
 11 12  2  0
 11 13  2  0
 14 15  2  0
 14 16  2  0
 17 18  2  0
 17 19  2  0
  1 20  1  0
  1 21  1  0
M  END
> <Uni-Dock RESULT> 
ENERGY=   -7.821  LOWER_BOUND=    7.688  UPPER_BOUND=    7.928
INTER + INTRA:          -7.821
INTER:                  -7.821
INTRA:                   0.000
UNBOUND:                 0.000

$$$$

     RDKit          3D

 21 13  0  0  0  0  0  0  0  0999 V2000
   42.7524    5.6220   11.7571 O   0  0  0  0  0  0  0  0  0  0  0  0
   42.8322    5.3538   12.6938 Mg  0  0  0  0  0  2  0  0  0  0  0  0
   43.1410    5.2549   10.9439 O   0  0  0  0  0  0  0  0  0  0  0  0
   42.8311    5.3542   12.7001 Mg  0  0  0  0  0  2  0  0  0  0  0  0
   43.1421    5.2546   10.9375 O   0  0  0  0  0  0  0  0  0  0  0  0
   42.8317    5.3540   12.6964 Mg  0  0  0  0  0  2  0  0  0  0  0  0
   43.1415    5.2548   10.9413 O   0  0  0  0  0  0  0  0  0  0  0  0
   42.9195    5.3954   11.8006 Si  0  0  0  0  0  4  0  0  0  0  0  0
   42.7492    5.3456   13.3628 O   0  0  0  0  0  0  0  0  0  0  0  0
   43.2910    5.1721   10.2932 O   0  0  0  0  0  0  0  0  0  0  0  0
   42.9043    5.4159   11.7978 Si  0  0  0  0  0  4  0  0  0  0  0  0
   43.2977    5.1622   10.2999 O   0  0  0  0  0  0  0  0  0  0  0  0
   42.7578    5.3350   13.3588 O   0  0  0  0  0  0  0  0  0  0  0  0
   42.9143    5.4032   11.7954 Si  0  0  0  0  0  4  0  0  0  0  0  0
   42.7523    5.3417   13.3619 O   0  0  0  0  0  0  0  0  0  0  0  0
   43.2932    5.1682   10.2992 O   0  0  0  0  0  0  0  0  0  0  0  0
   42.9289    5.3828   11.8023 Si  0  0  0  0  0  4  0  0  0  0  0  0
   42.7448    5.3519   13.3603 O   0  0  0  0  0  0  0  0  0  0  0  0
   43.2860    5.1785   10.2939 O   0  0  0  0  0  0  0  0  0  0  0  0
   43.2418    5.1007   11.0705 H   0  0  0  0  0  0  0  0  0  0  0  0
   42.9657    5.1903   12.6288 H   0  0  0  0  0  0  0  0  0  0  0  0
  2  3  2  0
  4  5  2  0
  6  7  2  0
  8  9  2  0
  8 10  2  0
 11 12  2  0
 11 13  2  0
 14 15  2  0
 14 16  2  0
 17 18  2  0
 17 19  2  0
  1 20  1  0
  1 21  1  0
M  END
> <Uni-Dock RESULT> 
ENERGY=   -7.616  LOWER_BOUND=    7.771  UPPER_BOUND=    8.192
INTER + INTRA:          -7.616
INTER:                  -7.616
INTRA:                   0.000
UNBOUND:                 0.000

$$$$

     RDKit          3D

 21 13  0  0  0  0  0  0  0  0999 V2000
   44.8754    2.9765    9.1326 O   0  0  0  0  0  0  0  0  0  0  0  0
   45.2588    2.1448    8.7908 Mg  0  0  0  0  0  2  0  0  0  0  0  0
   44.4481    3.7252    8.6811 O   0  0  0  0  0  0  0  0  0  0  0  0
   45.2618    2.1390    8.7912 Mg  0  0  0  0  0  2  0  0  0  0  0  0
   44.4451    3.7309    8.6807 O   0  0  0  0  0  0  0  0  0  0  0  0
   45.2601    2.1424    8.7910 Mg  0  0  0  0  0  2  0  0  0  0  0  0
   44.4468    3.7276    8.6809 O   0  0  0  0  0  0  0  0  0  0  0  0
   44.8595    2.9473    8.8496 Si  0  0  0  0  0  4  0  0  0  0  0  0
   45.5616    1.5426    8.7754 O   0  0  0  0  0  0  0  0  0  0  0  0
   44.1393    4.3149    8.5828 O   0  0  0  0  0  0  0  0  0  0  0  0
   44.8614    2.9490    8.8752 Si  0  0  0  0  0  4  0  0  0  0  0  0
   44.1408    4.3093    8.5704 O   0  0  0  0  0  0  0  0  0  0  0  0
   45.5581    1.5466    8.7622 O   0  0  0  0  0  0  0  0  0  0  0  0
   44.8584    2.9517    8.8594 Si  0  0  0  0  0  4  0  0  0  0  0  0
   45.5606    1.5435    8.7706 O   0  0  0  0  0  0  0  0  0  0  0  0
   44.1414    4.3097    8.5779 O   0  0  0  0  0  0  0  0  0  0  0  0
   44.8583    2.9464    8.8339 Si  0  0  0  0  0  4  0  0  0  0  0  0
   45.5615    1.5445    8.7833 O   0  0  0  0  0  0  0  0  0  0  0  0
   44.1406    4.3140    8.5908 O   0  0  0  0  0  0  0  0  0  0  0  0
   44.4813    3.6180    8.4878 H   0  0  0  0  0  0  0  0  0  0  0  0
   45.2036    2.2105    8.5874 H   0  0  0  0  0  0  0  0  0  0  0  0
  2  3  2  0
  4  5  2  0
  6  7  2  0
  8  9  2  0
  8 10  2  0
 11 12  2  0
 11 13  2  0
 14 15  2  0
 14 16  2  0
 17 18  2  0
 17 19  2  0
  1 20  1  0
  1 21  1  0
M  END
> <Uni-Dock RESULT> 
ENERGY=   -7.190  LOWER_BOUND=    3.769  UPPER_BOUND=    4.240
INTER + INTRA:          -7.190
INTER:                  -7.190
INTRA:                   0.000
UNBOUND:                 0.000

$$$$

     RDKit          3D

 21 13  0  0  0  0  0  0  0  0999 V2000
   42.9138    5.2415   11.8680 O   0  0  0  0  0  0  0  0  0  0  0  0
   42.8665    6.1578   11.5307 Mg  0  0  0  0  0  2  0  0  0  0  0  0
   42.9734    4.8876   12.7726 O   0  0  0  0  0  0  0  0  0  0  0  0
   42.8661    6.1624   11.5261 Mg  0  0  0  0  0  2  0  0  0  0  0  0
   42.9738    4.8830   12.7771 O   0  0  0  0  0  0  0  0  0  0  0  0
   42.8663    6.1597   11.5288 Mg  0  0  0  0  0  2  0  0  0  0  0  0
   42.9736    4.8857   12.7745 O   0  0  0  0  0  0  0  0  0  0  0  0
   42.9182    5.4417   12.0707 Si  0  0  0  0  0  4  0  0  0  0  0  0
   42.8270    6.6773   11.1027 O   0  0  0  0  0  0  0  0  0  0  0  0
   43.0146    4.4492   13.2814 O   0  0  0  0  0  0  0  0  0  0  0  0
   42.9178    5.4245   12.0516 Si  0  0  0  0  0  4  0  0  0  0  0  0
   43.0145    4.4617   13.2872 O   0  0  0  0  0  0  0  0  0  0  0  0
   42.8276    6.6820   11.1161 O   0  0  0  0  0  0  0  0  0  0  0  0
   42.9183    5.4320   12.0661 Si  0  0  0  0  0  4  0  0  0  0  0  0
   42.8272    6.6795   11.1073 O   0  0  0  0  0  0  0  0  0  0  0  0
   43.0144    4.4567   13.2815 O   0  0  0  0  0  0  0  0  0  0  0  0
   42.9185    5.4523   12.0825 Si  0  0  0  0  0  4  0  0  0  0  0  0
   42.8269    6.6707   11.0979 O   0  0  0  0  0  0  0  0  0  0  0  0
   43.0144    4.4450   13.2745 O   0  0  0  0  0  0  0  0  0  0  0  0
   42.9707    5.0983   12.8473 H   0  0  0  0  0  0  0  0  0  0  0  0
   42.8754    6.2283   11.7397 H   0  0  0  0  0  0  0  0  0  0  0  0
  2  3  2  0
  4  5  2  0
  6  7  2  0
  8  9  2  0
  8 10  2  0
 11 12  2  0
 11 13  2  0
 14 15  2  0
 14 16  2  0
 17 18  2  0
 17 19  2  0
  1 20  1  0
  1 21  1  0
M  END
> <Uni-Dock RESULT> 
ENERGY=   -7.177  LOWER_BOUND=    8.091  UPPER_BOUND=    8.253
INTER + INTRA:          -7.177
INTER:                  -7.177
INTRA:                   0.000
UNBOUND:                 0.000

$$$$

     RDKit          3D

 21 13  0  0  0  0  0  0  0  0999 V2000
   45.1731    3.1003    8.7691 O   0  0  0  0  0  0  0  0  0  0  0  0
   44.4574    3.7627    8.7022 Mg  0  0  0  0  0  2  0  0  0  0  0  0
   45.1527    2.1284    8.8135 O   0  0  0  0  0  0  0  0  0  0  0  0
   44.4548    3.7687    8.7018 Mg  0  0  0  0  0  2  0  0  0  0  0  0
   45.1552    2.1224    8.8139 O   0  0  0  0  0  0  0  0  0  0  0  0
   44.4563    3.7652    8.7021 Mg  0  0  0  0  0  2  0  0  0  0  0  0
   45.1537    2.1259    8.8137 O   0  0  0  0  0  0  0  0  0  0  0  0
   44.9107    2.9894    8.7611 Si  0  0  0  0  0  4  0  0  0  0  0  0
   44.1423    4.3572    8.6586 O   0  0  0  0  0  0  0  0  0  0  0  0
   45.3620    1.4901    8.8539 O   0  0  0  0  0  0  0  0  0  0  0  0
   44.9340    3.0004    8.7618 Si  0  0  0  0  0  4  0  0  0  0  0  0
   45.3483    1.4895    8.8532 O   0  0  0  0  0  0  0  0  0  0  0  0
   44.1328    4.3466    8.6586 O   0  0  0  0  0  0  0  0  0  0  0  0
   44.9215    2.9899    8.7616 Si  0  0  0  0  0  4  0  0  0  0  0  0
   44.1385    4.3539    8.6586 O   0  0  0  0  0  0  0  0  0  0  0  0
   45.3550    1.4928    8.8534 O   0  0  0  0  0  0  0  0  0  0  0  0
   44.8965    2.9826    8.7607 Si  0  0  0  0  0  4  0  0  0  0  0  0
   44.1502    4.3592    8.6589 O   0  0  0  0  0  0  0  0  0  0  0  0
   45.3685    1.4949    8.8540 O   0  0  0  0  0  0  0  0  0  0  0  0
   44.9297    2.1399    8.8018 H   0  0  0  0  0  0  0  0  0  0  0  0
   44.3122    3.5964    8.7027 H   0  0  0  0  0  0  0  0  0  0  0  0
  2  3  2  0
  4  5  2  0
  6  7  2  0
  8  9  2  0
  8 10  2  0
 11 12  2  0
 11 13  2  0
 14 15  2  0
 14 16  2  0
 17 18  2  0
 17 19  2  0
  1 20  1  0
  1 21  1  0
M  END
> <Uni-Dock RESULT> 
ENERGY=   -7.091  LOWER_BOUND=    3.712  UPPER_BOUND=    3.982
INTER + INTRA:          -7.091
INTER:                  -7.091
INTRA:                   0.000
UNBOUND:                 0.000

$$$$
