
     RDKit          3D

 69 69  0  0  0  0  0  0  0  0999 V2000
   43.0322    4.6974   11.2654 C   0  0  0  0  0  0  0  0  0  0  0  0
   44.1317    4.0288   13.4161 N   0  0  0  0  0  0  0  0  0  0  0  0
   44.0514    4.1328   10.3006 C   0  0  0  0  0  0  0  0  0  0  0  0
   43.5741    5.1458   12.6430 C   0  0  1  0  0  0  0  0  0  0  0  0
   44.6907    4.9616    9.3683 C   0  0  0  0  0  0  0  0  0  0  0  0
   44.3714    2.7681   10.3243 C   0  0  0  0  0  0  0  0  0  0  0  0
   44.6002    6.2746   12.5408 C   0  0  0  0  0  0  0  0  0  0  0  0
   45.6351    4.4370    8.4843 C   0  0  0  0  0  0  0  0  0  0  0  0
   45.3157    2.2449    9.4400 C   0  0  0  0  0  0  0  0  0  0  0  0
   45.9481    3.0796    8.5209 C   0  0  0  0  0  0  0  0  0  0  0  0
   43.4646    5.4317   11.0245 C   0  0  0  0  0  0  0  0  0  0  0  0
   43.2977    4.3238   13.2716 N   0  0  0  0  0  0  0  0  0  0  0  0
   44.2203    4.4287   10.1822 C   0  0  0  0  0  0  0  0  0  0  0  0
   43.8151    5.4804   12.5307 C   0  0  1  0  0  0  0  0  0  0  0  0
   43.9646    3.0561   10.2955 C   0  0  0  0  0  0  0  0  0  0  0  0
   45.1879    4.8606    9.2631 C   0  0  0  0  0  0  0  0  0  0  0  0
   45.3132    5.6330   12.7897 C   0  0  0  0  0  0  0  0  0  0  0  0
   45.8843    3.9393    8.4784 C   0  0  0  0  0  0  0  0  0  0  0  0
   44.6620    2.1354    9.5112 C   0  0  0  0  0  0  0  0  0  0  0  0
   45.6213    2.5769    8.6026 C   0  0  0  0  0  0  0  0  0  0  0  0
   45.4569    4.3004   12.0588 C   0  0  0  0  0  0  0  0  0  0  0  0
   44.6302    6.6633   12.2528 N   0  0  0  0  0  0  0  0  0  0  0  0
   45.0769    3.8997   10.6510 C   0  0  0  0  0  0  0  0  0  0  0  0
   44.5161    5.2969   12.7767 C   0  0  1  0  0  0  0  0  0  0  0  0
   44.5938    2.6096   10.3869 C   0  0  0  0  0  0  0  0  0  0  0  0
   45.2071    4.8009    9.5865 C   0  0  0  0  0  0  0  0  0  0  0  0
   43.0533    4.8558   12.7575 C   0  0  0  0  0  0  0  0  0  0  0  0
   44.2472    2.2324    9.0880 C   0  0  0  0  0  0  0  0  0  0  0  0
   44.8595    4.4233    8.2882 C   0  0  0  0  0  0  0  0  0  0  0  0
   44.3802    3.1393    8.0389 C   0  0  0  0  0  0  0  0  0  0  0  0
   42.2419    3.9487   11.4151 H   0  0  0  0  0  0  0  0  0  0  0  0
   42.5284    5.5482   10.7871 H   0  0  0  0  0  0  0  0  0  0  0  0
   44.4988    4.3774   14.3009 H   0  0  0  0  0  0  0  0  0  0  0  0
   44.9381    3.6523   12.9145 H   0  0  0  0  0  0  0  0  0  0  0  0
   42.7178    5.5297   13.2113 H   0  0  0  0  0  0  0  0  0  0  0  0
   44.4567    6.0228    9.3246 H   0  0  0  0  0  0  0  0  0  0  0  0
   43.8826    2.1055   11.0364 H   0  0  0  0  0  0  0  0  0  0  0  0
   44.8547    6.6580   13.5355 H   0  0  0  0  0  0  0  0  0  0  0  0
   45.5310    5.9435   12.0681 H   0  0  0  0  0  0  0  0  0  0  0  0
   44.1996    7.1112   11.9583 H   0  0  0  0  0  0  0  0  0  0  0  0
   46.1255    5.0879    7.7653 H   0  0  0  0  0  0  0  0  0  0  0  0
   45.5554    1.1852    9.4678 H   0  0  0  0  0  0  0  0  0  0  0  0
   46.6821    2.6716    7.8313 H   0  0  0  0  0  0  0  0  0  0  0  0
   42.3888    5.2466   10.9000 H   0  0  0  0  0  0  0  0  0  0  0  0
   43.6271    6.4352   10.6077 H   0  0  0  0  0  0  0  0  0  0  0  0
   42.2821    4.2966   13.1982 H   0  0  0  0  0  0  0  0  0  0  0  0
   43.5163    4.4244   14.2617 H   0  0  0  0  0  0  0  0  0  0  0  0
   43.3163    6.3662   12.9446 H   0  0  0  0  0  0  0  0  0  0  0  0
   43.2239    2.6946   11.0050 H   0  0  0  0  0  0  0  0  0  0  0  0
   45.4085    5.9197    9.1528 H   0  0  0  0  0  0  0  0  0  0  0  0
   45.5083    5.7980   13.8555 H   0  0  0  0  0  0  0  0  0  0  0  0
   45.8759    4.7438   12.4854 H   0  0  0  0  0  0  0  0  0  0  0  0
   45.7145    6.4939   12.2446 H   0  0  0  0  0  0  0  0  0  0  0  0
   46.6331    4.2853    7.7711 H   0  0  0  0  0  0  0  0  0  0  0  0
   44.4572    1.0733    9.6140 H   0  0  0  0  0  0  0  0  0  0  0  0
   46.1644    1.8594    7.9938 H   0  0  0  0  0  0  0  0  0  0  0  0
   45.5241    3.3945   12.6768 H   0  0  0  0  0  0  0  0  0  0  0  0
   46.4787    4.7036   12.0393 H   0  0  0  0  0  0  0  0  0  0  0  0
   45.5827    7.0009   12.3811 H   0  0  0  0  0  0  0  0  0  0  0  0
   44.0253    7.2870   12.7853 H   0  0  0  0  0  0  0  0  0  0  0  0
   44.8357    5.3361   13.8260 H   0  0  0  0  0  0  0  0  0  0  0  0
   44.4815    1.8881   11.1928 H   0  0  0  0  0  0  0  0  0  0  0  0
   45.5731    5.8094    9.7653 H   0  0  0  0  0  0  0  0  0  0  0  0
   42.9511    3.8374   13.1475 H   0  0  0  0  0  0  0  0  0  0  0  0
   42.4412    5.5122   13.3864 H   0  0  0  0  0  0  0  0  0  0  0  0
   42.6303    4.8785   11.7473 H   0  0  0  0  0  0  0  0  0  0  0  0
   43.8723    1.2309    8.8957 H   0  0  0  0  0  0  0  0  0  0  0  0
   44.9604    5.1349    7.4732 H   0  0  0  0  0  0  0  0  0  0  0  0
   44.1086    2.8470    7.0285 H   0  0  0  0  0  0  0  0  0  0  0  0
  4  2  1  0
  3  1  1  0
  4  1  1  0
  5  3  2  0
  6  3  1  0
  4  7  1  0
  8  5  1  0
  9  6  2  0
 10  8  2  0
  9 10  1  0
 12 14  1  0
 13 11  1  0
 14 11  1  0
 15 13  2  0
 16 13  1  0
 17 14  1  0
 18 16  2  0
 19 15  1  0
 20 18  1  0
 19 20  2  0
 24 22  1  0
 23 21  1  0
 24 21  1  0
 25 23  2  0
 26 23  1  0
 24 27  1  0
 28 25  1  0
 29 26  2  0
 30 28  2  0
 29 30  1  0
  1 31  1  0
  1 32  1  0
  2 33  1  0
  2 34  1  0
  4 35  1  6
  5 36  1  0
  6 37  1  0
  7 38  1  0
  7 39  1  0
  7 40  1  0
  8 41  1  0
  9 42  1  0
 10 43  1  0
 11 44  1  0
 11 45  1  0
 12 46  1  0
 12 47  1  0
 14 48  1  1
 15 49  1  0
 16 50  1  0
 17 51  1  0
 17 52  1  0
 17 53  1  0
 18 54  1  0
 19 55  1  0
 20 56  1  0
 21 57  1  0
 21 58  1  0
 22 59  1  0
 22 60  1  0
 24 61  1  6
 25 62  1  0
 26 63  1  0
 27 64  1  0
 27 65  1  0
 27 66  1  0
 28 67  1  0
 29 68  1  0
 30 69  1  0
M  END
> <Uni-Dock RESULT> 
ENERGY=   -9.352  LOWER_BOUND=    0.000  UPPER_BOUND=    0.000
INTER + INTRA:          -9.352
INTER:                  -9.352
INTRA:                   0.000
UNBOUND:                 0.000

$$$$

     RDKit          3D

 69 69  0  0  0  0  0  0  0  0999 V2000
   45.4800    5.0310   11.9065 C   0  0  0  0  0  0  0  0  0  0  0  0
   43.8581    6.9297   11.6926 N   0  0  0  0  0  0  0  0  0  0  0  0
   45.1292    4.2845   10.6384 C   0  0  0  0  0  0  0  0  0  0  0  0
   44.3358    5.8432   12.5572 C   0  0  1  0  0  0  0  0  0  0  0  0
   44.7044    2.9496   10.6877 C   0  0  0  0  0  0  0  0  0  0  0  0
   45.2250    4.9186    9.3918 C   0  0  0  0  0  0  0  0  0  0  0  0
   43.1605    4.9697   12.9968 C   0  0  0  0  0  0  0  0  0  0  0  0
   44.3757    2.2670    9.5152 C   0  0  0  0  0  0  0  0  0  0  0  0
   44.8961    4.2352    8.2205 C   0  0  0  0  0  0  0  0  0  0  0  0
   44.4706    2.9098    8.2825 C   0  0  0  0  0  0  0  0  0  0  0  0
   44.9899    4.3676   12.2288 C   0  0  0  0  0  0  0  0  0  0  0  0
   44.5612    6.8416   12.2416 N   0  0  0  0  0  0  0  0  0  0  0  0
   44.9447    4.0005   10.7626 C   0  0  0  0  0  0  0  0  0  0  0  0
   44.0750    5.5293   12.6841 C   0  0  1  0  0  0  0  0  0  0  0  0
   45.5108    4.8384    9.7932 C   0  0  0  0  0  0  0  0  0  0  0  0
   44.3397    2.8043   10.3495 C   0  0  0  0  0  0  0  0  0  0  0  0
   42.6198    5.3452   12.2561 C   0  0  0  0  0  0  0  0  0  0  0  0
   44.3006    2.4574    8.9976 C   0  0  0  0  0  0  0  0  0  0  0  0
   45.4704    4.4913    8.4415 C   0  0  0  0  0  0  0  0  0  0  0  0
   44.8659    3.3009    8.0438 C   0  0  0  0  0  0  0  0  0  0  0  0
   43.1587    5.3691   10.8278 C   0  0  0  0  0  0  0  0  0  0  0  0
   43.1383    4.5272   13.1933 N   0  0  0  0  0  0  0  0  0  0  0  0
   44.1599    4.4727   10.1345 C   0  0  0  0  0  0  0  0  0  0  0  0
   43.4167    5.6754   12.3223 C   0  0  1  0  0  0  0  0  0  0  0  0
   45.0505    5.0023    9.1891 C   0  0  0  0  0  0  0  0  0  0  0  0
   44.2121    3.1010   10.4142 C   0  0  0  0  0  0  0  0  0  0  0  0
   44.8278    6.1973   12.5892 C   0  0  0  0  0  0  0  0  0  0  0  0
   45.9728    4.1780    8.5415 C   0  0  0  0  0  0  0  0  0  0  0  0
   45.1352    2.2776    9.7668 C   0  0  0  0  0  0  0  0  0  0  0  0
   46.0150    2.8159    8.8305 C   0  0  0  0  0  0  0  0  0  0  0  0
   46.3232    5.7027   11.6935 H   0  0  0  0  0  0  0  0  0  0  0  0
   45.8694    4.3133   12.6411 H   0  0  0  0  0  0  0  0  0  0  0  0
   43.0895    7.4169   12.1518 H   0  0  0  0  0  0  0  0  0  0  0  0
   43.4573    6.5232   10.8453 H   0  0  0  0  0  0  0  0  0  0  0  0
   44.7518    6.3127   13.4573 H   0  0  0  0  0  0  0  0  0  0  0  0
   44.6269    2.4321   11.6410 H   0  0  0  0  0  0  0  0  0  0  0  0
   45.5581    5.9532    9.3303 H   0  0  0  0  0  0  0  0  0  0  0  0
   42.4371    5.5559   13.5749 H   0  0  0  0  0  0  0  0  0  0  0  0
   42.6267    4.5378   12.1437 H   0  0  0  0  0  0  0  0  0  0  0  0
   43.5048    4.1494   13.6357 H   0  0  0  0  0  0  0  0  0  0  0  0
   44.0472    1.2322    9.5638 H   0  0  0  0  0  0  0  0  0  0  0  0
   44.9746    4.7373    7.2598 H   0  0  0  0  0  0  0  0  0  0  0  0
   44.2162    2.3773    7.3701 H   0  0  0  0  0  0  0  0  0  0  0  0
   46.0319    4.5892   12.4975 H   0  0  0  0  0  0  0  0  0  0  0  0
   44.7293    3.4804   12.8222 H   0  0  0  0  0  0  0  0  0  0  0  0
   45.4859    7.0139   12.6326 H   0  0  0  0  0  0  0  0  0  0  0  0
   43.9507    7.5735   12.6021 H   0  0  0  0  0  0  0  0  0  0  0  0
   44.0979    5.5404   13.7814 H   0  0  0  0  0  0  0  0  0  0  0  0
   45.9803    5.7746   10.0864 H   0  0  0  0  0  0  0  0  0  0  0  0
   43.8916    2.1335   11.0786 H   0  0  0  0  0  0  0  0  0  0  0  0
   41.9819    6.1132   12.7080 H   0  0  0  0  0  0  0  0  0  0  0  0
   42.4989    5.4137   11.1696 H   0  0  0  0  0  0  0  0  0  0  0  0
   42.2413    4.3701   12.5808 H   0  0  0  0  0  0  0  0  0  0  0  0
   43.8275    1.5291    8.6890 H   0  0  0  0  0  0  0  0  0  0  0  0
   45.9086    5.1539    7.7002 H   0  0  0  0  0  0  0  0  0  0  0  0
   44.8338    3.0325    6.9916 H   0  0  0  0  0  0  0  0  0  0  0  0
   43.1115    6.3262   10.2904 H   0  0  0  0  0  0  0  0  0  0  0  0
   42.1592    4.9294   10.7068 H   0  0  0  0  0  0  0  0  0  0  0  0
   42.1595    4.2592   13.1043 H   0  0  0  0  0  0  0  0  0  0  0  0
   43.2810    4.7921   14.1669 H   0  0  0  0  0  0  0  0  0  0  0  0
   42.7119    6.4657   12.6110 H   0  0  0  0  0  0  0  0  0  0  0  0
   45.0341    6.0633    8.9512 H   0  0  0  0  0  0  0  0  0  0  0  0
   43.5369    2.6663   11.1478 H   0  0  0  0  0  0  0  0  0  0  0  0
   45.0505    7.0564   11.9473 H   0  0  0  0  0  0  0  0  0  0  0  0
   44.9294    6.5281   13.6291 H   0  0  0  0  0  0  0  0  0  0  0  0
   45.5901    5.4312   12.4108 H   0  0  0  0  0  0  0  0  0  0  0  0
   46.6592    4.5998    7.8123 H   0  0  0  0  0  0  0  0  0  0  0  0
   45.1680    1.2165    9.9981 H   0  0  0  0  0  0  0  0  0  0  0  0
   46.7339    2.1745    8.3284 H   0  0  0  0  0  0  0  0  0  0  0  0
  4  2  1  0
  3  1  1  0
  4  1  1  0
  5  3  2  0
  6  3  1  0
  4  7  1  0
  8  5  1  0
  9  6  2  0
 10  8  2  0
  9 10  1  0
 12 14  1  0
 13 11  1  0
 14 11  1  0
 15 13  2  0
 16 13  1  0
 17 14  1  0
 18 16  2  0
 19 15  1  0
 20 18  1  0
 19 20  2  0
 24 22  1  0
 23 21  1  0
 24 21  1  0
 25 23  2  0
 26 23  1  0
 24 27  1  0
 28 25  1  0
 29 26  2  0
 30 28  2  0
 29 30  1  0
  1 31  1  0
  1 32  1  0
  2 33  1  0
  2 34  1  0
  4 35  1  6
  5 36  1  0
  6 37  1  0
  7 38  1  0
  7 39  1  0
  7 40  1  0
  8 41  1  0
  9 42  1  0
 10 43  1  0
 11 44  1  0
 11 45  1  0
 12 46  1  0
 12 47  1  0
 14 48  1  1
 15 49  1  0
 16 50  1  0
 17 51  1  0
 17 52  1  0
 17 53  1  0
 18 54  1  0
 19 55  1  0
 20 56  1  0
 21 57  1  0
 21 58  1  0
 22 59  1  0
 22 60  1  0
 24 61  1  6
 25 62  1  0
 26 63  1  0
 27 64  1  0
 27 65  1  0
 27 66  1  0
 28 67  1  0
 29 68  1  0
 30 69  1  0
M  END
> <Uni-Dock RESULT> 
ENERGY=   -9.241  LOWER_BOUND=    0.427  UPPER_BOUND=    2.257
INTER + INTRA:          -9.241
INTER:                  -9.241
INTRA:                   0.000
UNBOUND:                 0.000

$$$$

     RDKit          3D

 69 69  0  0  0  0  0  0  0  0999 V2000
   43.6076    5.6780   12.8924 C   0  0  0  0  0  0  0  0  0  0  0  0
   43.1968    5.3307   10.4446 N   0  0  0  0  0  0  0  0  0  0  0  0
   45.1020    5.9081   12.8448 C   0  0  0  0  0  0  0  0  0  0  0  0
   43.0236    4.7653   11.7887 C   0  0  1  0  0  0  0  0  0  0  0  0
   45.9760    5.0890   13.5726 C   0  0  0  0  0  0  0  0  0  0  0  0
   45.6357    6.9477   12.0705 C   0  0  0  0  0  0  0  0  0  0  0  0
   43.5833    3.3432   11.8337 C   0  0  0  0  0  0  0  0  0  0  0  0
   47.3548    5.3014   13.5203 C   0  0  0  0  0  0  0  0  0  0  0  0
   47.0141    7.1590   12.0190 C   0  0  0  0  0  0  0  0  0  0  0  0
   47.8734    6.3352   12.7432 C   0  0  0  0  0  0  0  0  0  0  0  0
   43.9102    4.8937   13.1709 C   0  0  0  0  0  0  0  0  0  0  0  0
   42.6084    5.4773   11.1047 N   0  0  0  0  0  0  0  0  0  0  0  0
   45.2336    5.5988   12.9756 C   0  0  0  0  0  0  0  0  0  0  0  0
   43.1954    4.3887   11.8951 C   0  0  1  0  0  0  0  0  0  0  0  0
   45.2889    6.8853   12.4242 C   0  0  0  0  0  0  0  0  0  0  0  0
   46.4317    4.9753   13.3538 C   0  0  0  0  0  0  0  0  0  0  0  0
   44.0959    3.5315   11.0068 C   0  0  0  0  0  0  0  0  0  0  0  0
   47.6561    5.6241   13.1813 C   0  0  0  0  0  0  0  0  0  0  0  0
   46.5136    7.5330   12.2512 C   0  0  0  0  0  0  0  0  0  0  0  0
   47.6968    6.9028   12.6300 C   0  0  0  0  0  0  0  0  0  0  0  0
   44.9743    4.7753   10.8967 C   0  0  0  0  0  0  0  0  0  0  0  0
   43.6997    3.0498   12.2015 N   0  0  0  0  0  0  0  0  0  0  0  0
   45.6855    5.5801   11.9612 C   0  0  0  0  0  0  0  0  0  0  0  0
   43.5958    4.1842   11.2758 C   0  0  1  0  0  0  0  0  0  0  0  0
   45.7956    6.9733   11.8418 C   0  0  0  0  0  0  0  0  0  0  0  0
   46.2532    4.9530   13.0778 C   0  0  0  0  0  0  0  0  0  0  0  0
   42.6345    5.2281   11.8425 C   0  0  0  0  0  0  0  0  0  0  0  0
   46.4565    7.7204   12.8188 C   0  0  0  0  0  0  0  0  0  0  0  0
   46.9132    5.7009   14.0547 C   0  0  0  0  0  0  0  0  0  0  0  0
   47.0151    7.0842   13.9250 C   0  0  0  0  0  0  0  0  0  0  0  0
   43.1035    6.6538   12.8577 H   0  0  0  0  0  0  0  0  0  0  0  0
   43.3469    5.2604   13.8744 H   0  0  0  0  0  0  0  0  0  0  0  0
   42.8218    4.6833    9.7523 H   0  0  0  0  0  0  0  0  0  0  0  0
   44.1960    5.3986   10.2430 H   0  0  0  0  0  0  0  0  0  0  0  0
   41.9435    4.6998   11.9694 H   0  0  0  0  0  0  0  0  0  0  0  0
   45.5881    4.2791   14.1860 H   0  0  0  0  0  0  0  0  0  0  0  0
   44.9745    7.5993   11.5019 H   0  0  0  0  0  0  0  0  0  0  0  0
   43.0475    2.6936   11.1323 H   0  0  0  0  0  0  0  0  0  0  0  0
   44.6450    3.3099   11.5671 H   0  0  0  0  0  0  0  0  0  0  0  0
   43.4683    2.9128   12.8343 H   0  0  0  0  0  0  0  0  0  0  0  0
   48.0243    4.6607   14.0881 H   0  0  0  0  0  0  0  0  0  0  0  0
   47.4162    7.9683   11.4154 H   0  0  0  0  0  0  0  0  0  0  0  0
   48.9467    6.5011   12.7044 H   0  0  0  0  0  0  0  0  0  0  0  0
   43.2417    5.5626   13.7303 H   0  0  0  0  0  0  0  0  0  0  0  0
   44.0649    4.0318   13.8346 H   0  0  0  0  0  0  0  0  0  0  0  0
   41.9151    5.9714   11.6641 H   0  0  0  0  0  0  0  0  0  0  0  0
   42.1140    5.0909   10.3018 H   0  0  0  0  0  0  0  0  0  0  0  0
   42.3611    3.7574   12.2270 H   0  0  0  0  0  0  0  0  0  0  0  0
   44.3750    7.3883   12.1168 H   0  0  0  0  0  0  0  0  0  0  0  0
   46.4208    3.9768   13.7844 H   0  0  0  0  0  0  0  0  0  0  0  0
   43.5213    3.0842   10.1878 H   0  0  0  0  0  0  0  0  0  0  0  0
   44.9080    4.1149   10.5595 H   0  0  0  0  0  0  0  0  0  0  0  0
   44.5407    2.7127   11.5822 H   0  0  0  0  0  0  0  0  0  0  0  0
   48.5780    5.1305   13.4762 H   0  0  0  0  0  0  0  0  0  0  0  0
   46.5416    8.5286   11.8168 H   0  0  0  0  0  0  0  0  0  0  0  0
   48.6492    7.4073   12.4936 H   0  0  0  0  0  0  0  0  0  0  0  0
   44.8375    5.4084   10.0092 H   0  0  0  0  0  0  0  0  0  0  0  0
   45.6448    3.9700   10.5666 H   0  0  0  0  0  0  0  0  0  0  0  0
   44.2402    2.3028   11.7684 H   0  0  0  0  0  0  0  0  0  0  0  0
   42.7721    2.6702   12.3852 H   0  0  0  0  0  0  0  0  0  0  0  0
   43.1520    3.7940   10.3509 H   0  0  0  0  0  0  0  0  0  0  0  0
   45.3648    7.4882   10.9864 H   0  0  0  0  0  0  0  0  0  0  0  0
   46.1762    3.8748   13.1977 H   0  0  0  0  0  0  0  0  0  0  0  0
   42.5447    6.0813   11.1616 H   0  0  0  0  0  0  0  0  0  0  0  0
   41.6326    4.8036   11.9724 H   0  0  0  0  0  0  0  0  0  0  0  0
   42.9630    5.6029   12.8179 H   0  0  0  0  0  0  0  0  0  0  0  0
   46.5340    8.7995   12.7166 H   0  0  0  0  0  0  0  0  0  0  0  0
   47.3437    5.2015   14.9184 H   0  0  0  0  0  0  0  0  0  0  0  0
   47.5276    7.6653   14.6865 H   0  0  0  0  0  0  0  0  0  0  0  0
  4  2  1  0
  3  1  1  0
  4  1  1  0
  5  3  2  0
  6  3  1  0
  4  7  1  0
  8  5  1  0
  9  6  2  0
 10  8  2  0
  9 10  1  0
 12 14  1  0
 13 11  1  0
 14 11  1  0
 15 13  2  0
 16 13  1  0
 17 14  1  0
 18 16  2  0
 19 15  1  0
 20 18  1  0
 19 20  2  0
 24 22  1  0
 23 21  1  0
 24 21  1  0
 25 23  2  0
 26 23  1  0
 24 27  1  0
 28 25  1  0
 29 26  2  0
 30 28  2  0
 29 30  1  0
  1 31  1  0
  1 32  1  0
  2 33  1  0
  2 34  1  0
  4 35  1  6
  5 36  1  0
  6 37  1  0
  7 38  1  0
  7 39  1  0
  7 40  1  0
  8 41  1  0
  9 42  1  0
 10 43  1  0
 11 44  1  0
 11 45  1  0
 12 46  1  0
 12 47  1  0
 14 48  1  1
 15 49  1  0
 16 50  1  0
 17 51  1  0
 17 52  1  0
 17 53  1  0
 18 54  1  0
 19 55  1  0
 20 56  1  0
 21 57  1  0
 21 58  1  0
 22 59  1  0
 22 60  1  0
 24 61  1  6
 25 62  1  0
 26 63  1  0
 27 64  1  0
 27 65  1  0
 27 66  1  0
 28 67  1  0
 29 68  1  0
 30 69  1  0
M  END
> <Uni-Dock RESULT> 
ENERGY=   -8.662  LOWER_BOUND=    1.781  UPPER_BOUND=    4.322
INTER + INTRA:          -8.662
INTER:                  -8.662
INTRA:                   0.000
UNBOUND:                 0.000

$$$$

     RDKit          3D

 69 69  0  0  0  0  0  0  0  0999 V2000
   44.9273    5.7323   10.6451 C   0  0  0  0  0  0  0  0  0  0  0  0
   44.3013    3.8250   12.1457 N   0  0  0  0  0  0  0  0  0  0  0  0
   45.6067    6.6164   11.6675 C   0  0  0  0  0  0  0  0  0  0  0  0
   43.8043    4.8125   11.1791 C   0  0  1  0  0  0  0  0  0  0  0  0
   45.1521    7.9218   11.9000 C   0  0  0  0  0  0  0  0  0  0  0  0
   46.7046    6.1417   12.3986 C   0  0  0  0  0  0  0  0  0  0  0  0
   42.6333    5.5898   11.7810 C   0  0  0  0  0  0  0  0  0  0  0  0
   45.7785    8.7315   12.8492 C   0  0  0  0  0  0  0  0  0  0  0  0
   47.3298    6.9521   13.3471 C   0  0  0  0  0  0  0  0  0  0  0  0
   46.8660    8.2464   13.5729 C   0  0  0  0  0  0  0  0  0  0  0  0
   44.2971    6.3363   10.7944 C   0  0  0  0  0  0  0  0  0  0  0  0
   44.3029    3.8672   11.2503 N   0  0  0  0  0  0  0  0  0  0  0  0
   45.3634    6.8775   11.7201 C   0  0  0  0  0  0  0  0  0  0  0  0
   43.5081    5.1006   11.2883 C   0  0  1  0  0  0  0  0  0  0  0  0
   46.5620    6.1812   11.9218 C   0  0  0  0  0  0  0  0  0  0  0  0
   45.1709    8.0959   12.3877 C   0  0  0  0  0  0  0  0  0  0  0  0
   42.9141    5.2908   12.6831 C   0  0  0  0  0  0  0  0  0  0  0  0
   46.1546    8.6032   13.2389 C   0  0  0  0  0  0  0  0  0  0  0  0
   47.5448    6.6887   12.7738 C   0  0  0  0  0  0  0  0  0  0  0  0
   47.3414    7.8995   13.4318 C   0  0  0  0  0  0  0  0  0  0  0  0
   44.3586    5.4571   13.1485 C   0  0  0  0  0  0  0  0  0  0  0  0
   42.4168    6.0042   11.6535 N   0  0  0  0  0  0  0  0  0  0  0  0
   45.4160    6.4613   12.7484 C   0  0  0  0  0  0  0  0  0  0  0  0
   43.3959    4.9795   12.0355 C   0  0  1  0  0  0  0  0  0  0  0  0
   46.7627    6.0780   12.6652 C   0  0  0  0  0  0  0  0  0  0  0  0
   45.0753    7.7898   12.4629 C   0  0  0  0  0  0  0  0  0  0  0  0
   44.1258    4.4723   10.7926 C   0  0  0  0  0  0  0  0  0  0  0  0
   47.7439    7.0027   12.3023 C   0  0  0  0  0  0  0  0  0  0  0  0
   46.0568    8.7136   12.0992 C   0  0  0  0  0  0  0  0  0  0  0  0
   47.3908    8.3202   12.0194 C   0  0  0  0  0  0  0  0  0  0  0  0
   45.6932    5.1176   10.1522 H   0  0  0  0  0  0  0  0  0  0  0  0
   44.5182    6.3670    9.8474 H   0  0  0  0  0  0  0  0  0  0  0  0
   43.5232    3.2624   12.4877 H   0  0  0  0  0  0  0  0  0  0  0  0
   44.6623    4.3191   12.9638 H   0  0  0  0  0  0  0  0  0  0  0  0
   43.4190    4.2500   10.3196 H   0  0  0  0  0  0  0  0  0  0  0  0
   44.3062    8.3170   11.3426 H   0  0  0  0  0  0  0  0  0  0  0  0
   47.0774    5.1329   12.2298 H   0  0  0  0  0  0  0  0  0  0  0  0
   41.8026    4.9158   12.0191 H   0  0  0  0  0  0  0  0  0  0  0  0
   42.9133    6.1057   12.7055 H   0  0  0  0  0  0  0  0  0  0  0  0
   42.2587    6.3365   11.0727 H   0  0  0  0  0  0  0  0  0  0  0  0
   45.4185    9.7422   13.0224 H   0  0  0  0  0  0  0  0  0  0  0  0
   48.1803    6.5731   13.9076 H   0  0  0  0  0  0  0  0  0  0  0  0
   47.3542    8.8780   14.3103 H   0  0  0  0  0  0  0  0  0  0  0  0
   44.7620    6.1157    9.8236 H   0  0  0  0  0  0  0  0  0  0  0  0
   43.5741    7.1365   10.5842 H   0  0  0  0  0  0  0  0  0  0  0  0
   44.5945    3.6770   10.2930 H   0  0  0  0  0  0  0  0  0  0  0  0
   43.7276    3.0786   11.5425 H   0  0  0  0  0  0  0  0  0  0  0  0
   42.6733    4.9568   10.5903 H   0  0  0  0  0  0  0  0  0  0  0  0
   46.7336    5.2311   11.4210 H   0  0  0  0  0  0  0  0  0  0  0  0
   44.2508    8.6591   12.2513 H   0  0  0  0  0  0  0  0  0  0  0  0
   42.2549    4.4544   12.9420 H   0  0  0  0  0  0  0  0  0  0  0  0
   43.6886    5.3512   13.4553 H   0  0  0  0  0  0  0  0  0  0  0  0
   42.3159    6.2071   12.7273 H   0  0  0  0  0  0  0  0  0  0  0  0
   45.9937    9.5472   13.7524 H   0  0  0  0  0  0  0  0  0  0  0  0
   48.4672    6.1348   12.9251 H   0  0  0  0  0  0  0  0  0  0  0  0
   48.1062    8.2928   14.0957 H   0  0  0  0  0  0  0  0  0  0  0  0
   44.8549    4.5714   13.5684 H   0  0  0  0  0  0  0  0  0  0  0  0
   43.7809    5.8776   13.9830 H   0  0  0  0  0  0  0  0  0  0  0  0
   41.8468    6.2511   12.4609 H   0  0  0  0  0  0  0  0  0  0  0  0
   41.7813    5.6275   10.9517 H   0  0  0  0  0  0  0  0  0  0  0  0
   42.8242    4.1388   12.4491 H   0  0  0  0  0  0  0  0  0  0  0  0
   47.0579    5.0538   12.8807 H   0  0  0  0  0  0  0  0  0  0  0  0
   44.0375    8.1112   12.5137 H   0  0  0  0  0  0  0  0  0  0  0  0
   44.8597    3.7048   11.0611 H   0  0  0  0  0  0  0  0  0  0  0  0
   43.4209    4.0208   10.0852 H   0  0  0  0  0  0  0  0  0  0  0  0
   44.6506    5.2773   10.2669 H   0  0  0  0  0  0  0  0  0  0  0  0
   48.7838    6.6938   12.2393 H   0  0  0  0  0  0  0  0  0  0  0  0
   45.7769    9.7392   11.8750 H   0  0  0  0  0  0  0  0  0  0  0  0
   48.1536    9.0395   11.7348 H   0  0  0  0  0  0  0  0  0  0  0  0
  4  2  1  0
  3  1  1  0
  4  1  1  0
  5  3  2  0
  6  3  1  0
  4  7  1  0
  8  5  1  0
  9  6  2  0
 10  8  2  0
  9 10  1  0
 12 14  1  0
 13 11  1  0
 14 11  1  0
 15 13  2  0
 16 13  1  0
 17 14  1  0
 18 16  2  0
 19 15  1  0
 20 18  1  0
 19 20  2  0
 24 22  1  0
 23 21  1  0
 24 21  1  0
 25 23  2  0
 26 23  1  0
 24 27  1  0
 28 25  1  0
 29 26  2  0
 30 28  2  0
 29 30  1  0
  1 31  1  0
  1 32  1  0
  2 33  1  0
  2 34  1  0
  4 35  1  6
  5 36  1  0
  6 37  1  0
  7 38  1  0
  7 39  1  0
  7 40  1  0
  8 41  1  0
  9 42  1  0
 10 43  1  0
 11 44  1  0
 11 45  1  0
 12 46  1  0
 12 47  1  0
 14 48  1  1
 15 49  1  0
 16 50  1  0
 17 51  1  0
 17 52  1  0
 17 53  1  0
 18 54  1  0
 19 55  1  0
 20 56  1  0
 21 57  1  0
 21 58  1  0
 22 59  1  0
 22 60  1  0
 24 61  1  6
 25 62  1  0
 26 63  1  0
 27 64  1  0
 27 65  1  0
 27 66  1  0
 28 67  1  0
 29 68  1  0
 30 69  1  0
M  END
> <Uni-Dock RESULT> 
ENERGY=   -8.517  LOWER_BOUND=    1.966  UPPER_BOUND=    4.448
INTER + INTRA:          -8.517
INTER:                  -8.517
INTRA:                   0.000
UNBOUND:                 0.000

$$$$

     RDKit          3D

 69 69  0  0  0  0  0  0  0  0999 V2000
   44.2283    2.9924    8.3547 C   0  0  0  0  0  0  0  0  0  0  0  0
   44.8935    2.8051   10.7638 N   0  0  0  0  0  0  0  0  0  0  0  0
   45.5843    2.7668    7.7231 C   0  0  0  0  0  0  0  0  0  0  0  0
   44.2304    3.6440    9.7574 C   0  0  1  0  0  0  0  0  0  0  0  0
   46.1466    3.7282    6.8721 C   0  0  0  0  0  0  0  0  0  0  0  0
   46.2998    1.5889    7.9799 C   0  0  0  0  0  0  0  0  0  0  0  0
   44.8397    5.0463    9.7619 C   0  0  0  0  0  0  0  0  0  0  0  0
   47.4011    3.5181    6.2968 C   0  0  0  0  0  0  0  0  0  0  0  0
   47.5537    1.3801    7.4042 C   0  0  0  0  0  0  0  0  0  0  0  0
   48.1045    2.3452    6.5636 C   0  0  0  0  0  0  0  0  0  0  0  0
   44.4544    3.8200    8.1351 C   0  0  0  0  0  0  0  0  0  0  0  0
   44.0753    2.7996   10.3977 N   0  0  0  0  0  0  0  0  0  0  0  0
   45.6760    3.0978    7.6128 C   0  0  0  0  0  0  0  0  0  0  0  0
   44.3743    4.0358    9.6650 C   0  0  1  0  0  0  0  0  0  0  0  0
   45.8447    1.7234    7.8248 C   0  0  0  0  0  0  0  0  0  0  0  0
   46.6598    3.7953    6.8966 C   0  0  0  0  0  0  0  0  0  0  0  0
   45.6296    4.6886   10.2418 C   0  0  0  0  0  0  0  0  0  0  0  0
   47.7868    3.1323    6.4069 C   0  0  0  0  0  0  0  0  0  0  0  0
   46.9723    1.0614    7.3355 C   0  0  0  0  0  0  0  0  0  0  0  0
   47.9429    1.7654    6.6264 C   0  0  0  0  0  0  0  0  0  0  0  0
   46.3668    3.4555    9.7251 C   0  0  0  0  0  0  0  0  0  0  0  0
   44.8186    5.4123    9.4450 N   0  0  0  0  0  0  0  0  0  0  0  0
   46.5055    2.9018    8.3249 C   0  0  0  0  0  0  0  0  0  0  0  0
   45.0099    4.1055   10.0854 C   0  0  1  0  0  0  0  0  0  0  0  0
   46.5369    1.5160    8.1102 C   0  0  0  0  0  0  0  0  0  0  0  0
   46.6134    3.7568    7.2205 C   0  0  0  0  0  0  0  0  0  0  0  0
   43.8162    3.2011    9.7824 C   0  0  0  0  0  0  0  0  0  0  0  0
   46.6709    0.9994    6.8200 C   0  0  0  0  0  0  0  0  0  0  0  0
   46.7465    3.2395    5.9306 C   0  0  0  0  0  0  0  0  0  0  0  0
   46.7756    1.8612    5.7305 C   0  0  0  0  0  0  0  0  0  0  0  0
   43.7029    2.0286    8.4055 H   0  0  0  0  0  0  0  0  0  0  0  0
   43.6225    3.6088    7.6768 H   0  0  0  0  0  0  0  0  0  0  0  0
   44.8932    3.2871   11.6620 H   0  0  0  0  0  0  0  0  0  0  0  0
   45.8774    2.7020   10.5088 H   0  0  0  0  0  0  0  0  0  0  0  0
   43.1815    3.7399   10.0645 H   0  0  0  0  0  0  0  0  0  0  0  0
   45.6103    4.6481    6.6514 H   0  0  0  0  0  0  0  0  0  0  0  0
   45.8791    0.8266    8.6335 H   0  0  0  0  0  0  0  0  0  0  0  0
   44.6974    5.5273   10.7364 H   0  0  0  0  0  0  0  0  0  0  0  0
   45.9156    5.0285    9.5582 H   0  0  0  0  0  0  0  0  0  0  0  0
   44.3595    5.6802    9.0088 H   0  0  0  0  0  0  0  0  0  0  0  0
   47.8287    4.2697    5.6384 H   0  0  0  0  0  0  0  0  0  0  0  0
   48.0988    0.4629    7.6106 H   0  0  0  0  0  0  0  0  0  0  0  0
   49.0802    2.1816    6.1140 H   0  0  0  0  0  0  0  0  0  0  0  0
   43.5609    3.2822    7.7893 H   0  0  0  0  0  0  0  0  0  0  0  0
   44.3941    4.8049    7.6518 H   0  0  0  0  0  0  0  0  0  0  0  0
   43.1742    2.4323   10.0966 H   0  0  0  0  0  0  0  0  0  0  0  0
   43.9903    3.0021   11.3927 H   0  0  0  0  0  0  0  0  0  0  0  0
   43.5339    4.7182    9.8461 H   0  0  0  0  0  0  0  0  0  0  0  0
   45.0997    1.1605    8.3824 H   0  0  0  0  0  0  0  0  0  0  0  0
   46.5568    4.8627    6.7163 H   0  0  0  0  0  0  0  0  0  0  0  0
   45.4835    4.9466   11.2968 H   0  0  0  0  0  0  0  0  0  0  0  0
   46.5013    4.0281   10.1816 H   0  0  0  0  0  0  0  0  0  0  0  0
   45.8652    5.6144    9.7062 H   0  0  0  0  0  0  0  0  0  0  0  0
   48.5435    3.6833    5.8550 H   0  0  0  0  0  0  0  0  0  0  0  0
   47.0927   -0.0039    7.5126 H   0  0  0  0  0  0  0  0  0  0  0  0
   48.8206    1.2495    6.2474 H   0  0  0  0  0  0  0  0  0  0  0  0
   46.5550    2.6463   10.4441 H   0  0  0  0  0  0  0  0  0  0  0  0
   47.1792    4.1757    9.8939 H   0  0  0  0  0  0  0  0  0  0  0  0
   45.5505    6.0527    9.7483 H   0  0  0  0  0  0  0  0  0  0  0  0
   43.9334    5.8167    9.7471 H   0  0  0  0  0  0  0  0  0  0  0  0
   45.0213    4.2859   11.1680 H   0  0  0  0  0  0  0  0  0  0  0  0
   46.4550    0.8272    8.9477 H   0  0  0  0  0  0  0  0  0  0  0  0
   46.5853    4.8352    7.3589 H   0  0  0  0  0  0  0  0  0  0  0  0
   43.9432    2.2213   10.2553 H   0  0  0  0  0  0  0  0  0  0  0  0
   42.8894    3.6372   10.1722 H   0  0  0  0  0  0  0  0  0  0  0  0
   43.6806    3.0458    8.7066 H   0  0  0  0  0  0  0  0  0  0  0  0
   46.6922   -0.0760    6.6656 H   0  0  0  0  0  0  0  0  0  0  0  0
   46.8234    3.9148    5.0829 H   0  0  0  0  0  0  0  0  0  0  0  0
   46.8777    1.4597    4.7262 H   0  0  0  0  0  0  0  0  0  0  0  0
  4  2  1  0
  3  1  1  0
  4  1  1  0
  5  3  2  0
  6  3  1  0
  4  7  1  0
  8  5  1  0
  9  6  2  0
 10  8  2  0
  9 10  1  0
 12 14  1  0
 13 11  1  0
 14 11  1  0
 15 13  2  0
 16 13  1  0
 17 14  1  0
 18 16  2  0
 19 15  1  0
 20 18  1  0
 19 20  2  0
 24 22  1  0
 23 21  1  0
 24 21  1  0
 25 23  2  0
 26 23  1  0
 24 27  1  0
 28 25  1  0
 29 26  2  0
 30 28  2  0
 29 30  1  0
  1 31  1  0
  1 32  1  0
  2 33  1  0
  2 34  1  0
  4 35  1  6
  5 36  1  0
  6 37  1  0
  7 38  1  0
  7 39  1  0
  7 40  1  0
  8 41  1  0
  9 42  1  0
 10 43  1  0
 11 44  1  0
 11 45  1  0
 12 46  1  0
 12 47  1  0
 14 48  1  1
 15 49  1  0
 16 50  1  0
 17 51  1  0
 17 52  1  0
 17 53  1  0
 18 54  1  0
 19 55  1  0
 20 56  1  0
 21 57  1  0
 21 58  1  0
 22 59  1  0
 22 60  1  0
 24 61  1  6
 25 62  1  0
 26 63  1  0
 27 64  1  0
 27 65  1  0
 27 66  1  0
 28 67  1  0
 29 68  1  0
 30 69  1  0
M  END
> <Uni-Dock RESULT> 
ENERGY=   -7.622  LOWER_BOUND=    1.995  UPPER_BOUND=    3.181
INTER + INTRA:          -7.622
INTER:                  -7.622
INTRA:                   0.000
UNBOUND:                 0.000

$$$$

     RDKit          3D

 69 69  0  0  0  0  0  0  0  0999 V2000
   46.8826    5.8238   12.6733 C   0  0  0  0  0  0  0  0  0  0  0  0
   47.4459    7.7313   11.1484 N   0  0  0  0  0  0  0  0  0  0  0  0
   45.4749    5.5514   12.1911 C   0  0  0  0  0  0  0  0  0  0  0  0
   47.3756    7.2842   12.5454 C   0  0  1  0  0  0  0  0  0  0  0  0
   44.3909    5.6073   13.0779 C   0  0  0  0  0  0  0  0  0  0  0  0
   45.2337    5.2370   10.8464 C   0  0  0  0  0  0  0  0  0  0  0  0
   46.5431    8.2682   13.3680 C   0  0  0  0  0  0  0  0  0  0  0  0
   43.0929    5.3614   12.6267 C   0  0  0  0  0  0  0  0  0  0  0  0
   43.9357    4.9914   10.3965 C   0  0  0  0  0  0  0  0  0  0  0  0
   42.8655    5.0546   11.2865 C   0  0  0  0  0  0  0  0  0  0  0  0
   46.4054    6.2000   13.3176 C   0  0  0  0  0  0  0  0  0  0  0  0
   47.9865    7.2390   11.6669 N   0  0  0  0  0  0  0  0  0  0  0  0
   45.2727    5.6849   12.4583 C   0  0  0  0  0  0  0  0  0  0  0  0
   47.1231    7.4805   12.8290 C   0  0  1  0  0  0  0  0  0  0  0  0
   45.5261    5.0814   11.2198 C   0  0  0  0  0  0  0  0  0  0  0  0
   43.9444    5.7962   12.8949 C   0  0  0  0  0  0  0  0  0  0  0  0
   46.1586    8.6267   12.5279 C   0  0  0  0  0  0  0  0  0  0  0  0
   42.8951    5.3168   12.1083 C   0  0  0  0  0  0  0  0  0  0  0  0
   44.4763    4.6032   10.4335 C   0  0  0  0  0  0  0  0  0  0  0  0
   43.1612    4.7204   10.8777 C   0  0  0  0  0  0  0  0  0  0  0  0
   45.5589    7.6920   11.4803 C   0  0  0  0  0  0  0  0  0  0  0  0
   46.3366    8.2351   13.8051 N   0  0  0  0  0  0  0  0  0  0  0  0
   44.9241    6.3269   11.6218 C   0  0  0  0  0  0  0  0  0  0  0  0
   46.7506    8.0059   12.4157 C   0  0  1  0  0  0  0  0  0  0  0  0
   45.1043    5.3545   10.6272 C   0  0  0  0  0  0  0  0  0  0  0  0
   44.1402    6.0103   12.7388 C   0  0  0  0  0  0  0  0  0  0  0  0
   47.8418    6.9373   12.3705 C   0  0  0  0  0  0  0  0  0  0  0  0
   44.5155    4.0944   10.7500 C   0  0  0  0  0  0  0  0  0  0  0  0
   43.5525    4.7498   12.8613 C   0  0  0  0  0  0  0  0  0  0  0  0
   43.7397    3.7923   11.8669 C   0  0  0  0  0  0  0  0  0  0  0  0
   47.5712    5.1618   12.1302 H   0  0  0  0  0  0  0  0  0  0  0  0
   46.9612    5.5124   13.7238 H   0  0  0  0  0  0  0  0  0  0  0  0
   47.7487    8.7042   11.1175 H   0  0  0  0  0  0  0  0  0  0  0  0
   46.5036    7.7252   10.7537 H   0  0  0  0  0  0  0  0  0  0  0  0
   48.3992    7.3095   12.9392 H   0  0  0  0  0  0  0  0  0  0  0  0
   44.5507    5.8431   14.1274 H   0  0  0  0  0  0  0  0  0  0  0  0
   46.0618    5.1828   10.1418 H   0  0  0  0  0  0  0  0  0  0  0  0
   47.0033    9.2628   13.3639 H   0  0  0  0  0  0  0  0  0  0  0  0
   45.5260    8.3750   12.9763 H   0  0  0  0  0  0  0  0  0  0  0  0
   46.4753    7.9412   14.4111 H   0  0  0  0  0  0  0  0  0  0  0  0
   42.2590    5.4073   13.3220 H   0  0  0  0  0  0  0  0  0  0  0  0
   43.7611    4.7485    9.3517 H   0  0  0  0  0  0  0  0  0  0  0  0
   41.8551    4.8615   10.9363 H   0  0  0  0  0  0  0  0  0  0  0  0
   47.1374    5.3907   13.4457 H   0  0  0  0  0  0  0  0  0  0  0  0
   46.0208    6.3936   14.3284 H   0  0  0  0  0  0  0  0  0  0  0  0
   48.7080    6.5626   11.9109 H   0  0  0  0  0  0  0  0  0  0  0  0
   48.4680    8.1001   11.4118 H   0  0  0  0  0  0  0  0  0  0  0  0
   47.7804    7.8074   13.6450 H   0  0  0  0  0  0  0  0  0  0  0  0
   46.5466    4.9885   10.8553 H   0  0  0  0  0  0  0  0  0  0  0  0
   43.7163    6.2599   13.8516 H   0  0  0  0  0  0  0  0  0  0  0  0
   46.7079    9.5510   12.3156 H   0  0  0  0  0  0  0  0  0  0  0  0
   45.5244    8.4135   11.6607 H   0  0  0  0  0  0  0  0  0  0  0  0
   45.5078    8.8207   13.3872 H   0  0  0  0  0  0  0  0  0  0  0  0
   41.8698    5.4102   12.4558 H   0  0  0  0  0  0  0  0  0  0  0  0
   44.6875    4.1426    9.4723 H   0  0  0  0  0  0  0  0  0  0  0  0
   42.3450    4.3492   10.2644 H   0  0  0  0  0  0  0  0  0  0  0  0
   45.9018    7.8153   10.4438 H   0  0  0  0  0  0  0  0  0  0  0  0
   44.7761    8.4521   11.6095 H   0  0  0  0  0  0  0  0  0  0  0  0
   45.7021    9.0309   13.8466 H   0  0  0  0  0  0  0  0  0  0  0  0
   47.1488    8.4797   14.3697 H   0  0  0  0  0  0  0  0  0  0  0  0
   47.1935    8.9457   12.0618 H   0  0  0  0  0  0  0  0  0  0  0  0
   45.7077    5.5708    9.7487 H   0  0  0  0  0  0  0  0  0  0  0  0
   43.9901    6.7441   13.5274 H   0  0  0  0  0  0  0  0  0  0  0  0
   48.1631    6.7557   11.3392 H   0  0  0  0  0  0  0  0  0  0  0  0
   48.7228    7.2573   12.9383 H   0  0  0  0  0  0  0  0  0  0  0  0
   47.5035    5.9859   12.7950 H   0  0  0  0  0  0  0  0  0  0  0  0
   44.6636    3.3484    9.9739 H   0  0  0  0  0  0  0  0  0  0  0  0
   42.9517    4.5165   13.7361 H   0  0  0  0  0  0  0  0  0  0  0  0
   43.2831    2.8113   11.9639 H   0  0  0  0  0  0  0  0  0  0  0  0
  4  2  1  0
  3  1  1  0
  4  1  1  0
  5  3  2  0
  6  3  1  0
  4  7  1  0
  8  5  1  0
  9  6  2  0
 10  8  2  0
  9 10  1  0
 12 14  1  0
 13 11  1  0
 14 11  1  0
 15 13  2  0
 16 13  1  0
 17 14  1  0
 18 16  2  0
 19 15  1  0
 20 18  1  0
 19 20  2  0
 24 22  1  0
 23 21  1  0
 24 21  1  0
 25 23  2  0
 26 23  1  0
 24 27  1  0
 28 25  1  0
 29 26  2  0
 30 28  2  0
 29 30  1  0
  1 31  1  0
  1 32  1  0
  2 33  1  0
  2 34  1  0
  4 35  1  6
  5 36  1  0
  6 37  1  0
  7 38  1  0
  7 39  1  0
  7 40  1  0
  8 41  1  0
  9 42  1  0
 10 43  1  0
 11 44  1  0
 11 45  1  0
 12 46  1  0
 12 47  1  0
 14 48  1  1
 15 49  1  0
 16 50  1  0
 17 51  1  0
 17 52  1  0
 17 53  1  0
 18 54  1  0
 19 55  1  0
 20 56  1  0
 21 57  1  0
 21 58  1  0
 22 59  1  0
 22 60  1  0
 24 61  1  6
 25 62  1  0
 26 63  1  0
 27 64  1  0
 27 65  1  0
 27 66  1  0
 28 67  1  0
 29 68  1  0
 30 69  1  0
M  END
> <Uni-Dock RESULT> 
ENERGY=   -7.328  LOWER_BOUND=    2.064  UPPER_BOUND=    3.836
INTER + INTRA:          -7.328
INTER:                  -7.328
INTRA:                   0.000
UNBOUND:                 0.000

$$$$

     RDKit          3D

 69 69  0  0  0  0  0  0  0  0999 V2000
   49.3387    5.1461   17.8634 C   0  0  0  0  0  0  0  0  0  0  0  0
   49.3922    2.6416   17.7869 N   0  0  0  0  0  0  0  0  0  0  0  0
   48.8434    5.3227   19.2818 C   0  0  0  0  0  0  0  0  0  0  0  0
   48.8842    3.8575   17.1388 C   0  0  1  0  0  0  0  0  0  0  0  0
   47.6625    6.0306   19.5449 C   0  0  0  0  0  0  0  0  0  0  0  0
   49.5610    4.7801   20.3569 C   0  0  0  0  0  0  0  0  0  0  0  0
   47.3663    3.7686   16.9774 C   0  0  0  0  0  0  0  0  0  0  0  0
   47.2062    6.1853   20.8551 C   0  0  0  0  0  0  0  0  0  0  0  0
   49.1038    4.9355   21.6662 C   0  0  0  0  0  0  0  0  0  0  0  0
   47.9261    5.6372   21.9149 C   0  0  0  0  0  0  0  0  0  0  0  0
   48.4872    5.3453   17.7235 C   0  0  0  0  0  0  0  0  0  0  0  0
   49.7524    3.2356   17.2204 N   0  0  0  0  0  0  0  0  0  0  0  0
   48.5003    5.4234   19.2336 C   0  0  0  0  0  0  0  0  0  0  0  0
   48.4647    3.9296   17.0997 C   0  0  1  0  0  0  0  0  0  0  0  0
   49.6447    5.0741   19.9622 C   0  0  0  0  0  0  0  0  0  0  0  0
   47.3635    5.8575   19.9310 C   0  0  0  0  0  0  0  0  0  0  0  0
   47.3479    3.0493   17.6588 C   0  0  0  0  0  0  0  0  0  0  0  0
   47.3721    5.9374   21.3250 C   0  0  0  0  0  0  0  0  0  0  0  0
   49.6522    5.1533   21.3560 C   0  0  0  0  0  0  0  0  0  0  0  0
   48.5164    5.5852   22.0373 C   0  0  0  0  0  0  0  0  0  0  0  0
   48.0384    3.2318   19.0082 C   0  0  0  0  0  0  0  0  0  0  0  0
   47.0284    4.1021   16.8805 N   0  0  0  0  0  0  0  0  0  0  0  0
   48.3409    4.4827   19.8021 C   0  0  0  0  0  0  0  0  0  0  0  0
   48.1389    3.3434   17.4683 C   0  0  1  0  0  0  0  0  0  0  0  0
   49.5240    4.5797   20.5492 C   0  0  0  0  0  0  0  0  0  0  0  0
   47.4464    5.5608   19.8145 C   0  0  0  0  0  0  0  0  0  0  0  0
   49.4705    3.9272   16.9982 C   0  0  0  0  0  0  0  0  0  0  0  0
   49.8053    5.7300   21.2889 C   0  0  0  0  0  0  0  0  0  0  0  0
   47.7289    6.7110   20.5537 C   0  0  0  0  0  0  0  0  0  0  0  0
   48.9078    6.7954   21.2911 C   0  0  0  0  0  0  0  0  0  0  0  0
   50.4367    5.1880   17.8699 H   0  0  0  0  0  0  0  0  0  0  0  0
   49.0264    6.0166   17.2706 H   0  0  0  0  0  0  0  0  0  0  0  0
   49.0452    1.8215   17.2909 H   0  0  0  0  0  0  0  0  0  0  0  0
   48.9968    2.5807   18.7269 H   0  0  0  0  0  0  0  0  0  0  0  0
   49.3210    3.8879   16.1329 H   0  0  0  0  0  0  0  0  0  0  0  0
   47.0897    6.4668   18.7299 H   0  0  0  0  0  0  0  0  0  0  0  0
   50.4836    4.2315   20.1755 H   0  0  0  0  0  0  0  0  0  0  0  0
   47.0936    2.9186   16.3415 H   0  0  0  0  0  0  0  0  0  0  0  0
   46.8570    3.6373   17.9379 H   0  0  0  0  0  0  0  0  0  0  0  0
   46.9733    4.6740   16.5028 H   0  0  0  0  0  0  0  0  0  0  0  0
   46.2894    6.7357   21.0488 H   0  0  0  0  0  0  0  0  0  0  0  0
   49.6689    4.5105   22.4915 H   0  0  0  0  0  0  0  0  0  0  0  0
   47.5712    5.7596   22.9347 H   0  0  0  0  0  0  0  0  0  0  0  0
   49.3517    5.9052   17.3411 H   0  0  0  0  0  0  0  0  0  0  0  0
   47.6106    5.8925   17.3502 H   0  0  0  0  0  0  0  0  0  0  0  0
   50.4746    3.7674   16.7374 H   0  0  0  0  0  0  0  0  0  0  0  0
   49.6987    2.3292   16.7580 H   0  0  0  0  0  0  0  0  0  0  0  0
   48.2777    4.0584   16.0259 H   0  0  0  0  0  0  0  0  0  0  0  0
   50.5373    4.7283   19.4460 H   0  0  0  0  0  0  0  0  0  0  0  0
   46.4602    6.1353   19.3931 H   0  0  0  0  0  0  0  0  0  0  0  0
   47.2794    2.1081   17.1016 H   0  0  0  0  0  0  0  0  0  0  0  0
   47.5110    2.7976   18.7123 H   0  0  0  0  0  0  0  0  0  0  0  0
   46.3791    3.5530   17.5743 H   0  0  0  0  0  0  0  0  0  0  0  0
   46.4848    6.2732   21.8548 H   0  0  0  0  0  0  0  0  0  0  0  0
   50.5451    4.8737   21.9083 H   0  0  0  0  0  0  0  0  0  0  0  0
   48.5229    5.6451   23.1220 H   0  0  0  0  0  0  0  0  0  0  0  0
   48.7204    2.4343   19.3340 H   0  0  0  0  0  0  0  0  0  0  0  0
   47.0372    2.8776   19.2895 H   0  0  0  0  0  0  0  0  0  0  0  0
   46.1465    3.6386   17.0931 H   0  0  0  0  0  0  0  0  0  0  0  0
   47.1168    4.1098   15.8654 H   0  0  0  0  0  0  0  0  0  0  0  0
   48.0665    2.3231   17.0703 H   0  0  0  0  0  0  0  0  0  0  0  0
   50.2378    3.7594   20.5589 H   0  0  0  0  0  0  0  0  0  0  0  0
   46.5250    5.5136   19.2386 H   0  0  0  0  0  0  0  0  0  0  0  0
   50.3102    3.3701   17.4275 H   0  0  0  0  0  0  0  0  0  0  0  0
   49.5580    3.8662   15.9075 H   0  0  0  0  0  0  0  0  0  0  0  0
   49.5800    4.9801   17.2796 H   0  0  0  0  0  0  0  0  0  0  0  0
   50.7260    5.7946   21.8625 H   0  0  0  0  0  0  0  0  0  0  0  0
   47.0284    7.5416   20.5493 H   0  0  0  0  0  0  0  0  0  0  0  0
   49.1272    7.6915   21.8647 H   0  0  0  0  0  0  0  0  0  0  0  0
  4  2  1  0
  3  1  1  0
  4  1  1  0
  5  3  2  0
  6  3  1  0
  4  7  1  0
  8  5  1  0
  9  6  2  0
 10  8  2  0
  9 10  1  0
 12 14  1  0
 13 11  1  0
 14 11  1  0
 15 13  2  0
 16 13  1  0
 17 14  1  0
 18 16  2  0
 19 15  1  0
 20 18  1  0
 19 20  2  0
 24 22  1  0
 23 21  1  0
 24 21  1  0
 25 23  2  0
 26 23  1  0
 24 27  1  0
 28 25  1  0
 29 26  2  0
 30 28  2  0
 29 30  1  0
  1 31  1  0
  1 32  1  0
  2 33  1  0
  2 34  1  0
  4 35  1  6
  5 36  1  0
  6 37  1  0
  7 38  1  0
  7 39  1  0
  7 40  1  0
  8 41  1  0
  9 42  1  0
 10 43  1  0
 11 44  1  0
 11 45  1  0
 12 46  1  0
 12 47  1  0
 14 48  1  1
 15 49  1  0
 16 50  1  0
 17 51  1  0
 17 52  1  0
 17 53  1  0
 18 54  1  0
 19 55  1  0
 20 56  1  0
 21 57  1  0
 21 58  1  0
 22 59  1  0
 22 60  1  0
 24 61  1  6
 25 62  1  0
 26 63  1  0
 27 64  1  0
 27 65  1  0
 27 66  1  0
 28 67  1  0
 29 68  1  0
 30 69  1  0
M  END
> <Uni-Dock RESULT> 
ENERGY=   -6.807  LOWER_BOUND=    7.659  UPPER_BOUND=   10.453
INTER + INTRA:          -6.807
INTER:                  -6.807
INTRA:                   0.000
UNBOUND:                 0.000

$$$$

     RDKit          3D

 69 69  0  0  0  0  0  0  0  0999 V2000
   48.3111    6.4432   19.2941 C   0  0  0  0  0  0  0  0  0  0  0  0
   47.0728    5.5894   21.2988 N   0  0  0  0  0  0  0  0  0  0  0  0
   48.4670    5.1374   18.5464 C   0  0  0  0  0  0  0  0  0  0  0  0
   48.2462    6.3414   20.8361 C   0  0  1  0  0  0  0  0  0  0  0  0
   49.7378    4.6575   18.2010 C   0  0  0  0  0  0  0  0  0  0  0  0
   47.3391    4.3869   18.1861 C   0  0  0  0  0  0  0  0  0  0  0  0
   49.5182    5.7542   21.4484 C   0  0  0  0  0  0  0  0  0  0  0  0
   49.8767    3.4487   17.5166 C   0  0  0  0  0  0  0  0  0  0  0  0
   47.4792    3.1787   17.5019 C   0  0  0  0  0  0  0  0  0  0  0  0
   48.7480    2.7094   17.1682 C   0  0  0  0  0  0  0  0  0  0  0  0
   49.1572    6.2472   19.4671 C   0  0  0  0  0  0  0  0  0  0  0  0
   47.1957    6.4335   21.0233 N   0  0  0  0  0  0  0  0  0  0  0  0
   48.8157    5.0595   18.5955 C   0  0  0  0  0  0  0  0  0  0  0  0
   48.6432    6.2109   20.9259 C   0  0  1  0  0  0  0  0  0  0  0  0
   47.5073    4.8546   18.1392 C   0  0  0  0  0  0  0  0  0  0  0  0
   49.8112    4.1450   18.2216 C   0  0  0  0  0  0  0  0  0  0  0  0
   49.0194    4.9242   21.6589 C   0  0  0  0  0  0  0  0  0  0  0  0
   49.5027    3.0499   17.4120 C   0  0  0  0  0  0  0  0  0  0  0  0
   47.1994    3.7589   17.3304 C   0  0  0  0  0  0  0  0  0  0  0  0
   48.1969    2.8571   16.9666 C   0  0  0  0  0  0  0  0  0  0  0  0
   48.1984    4.2114   20.5872 C   0  0  0  0  0  0  0  0  0  0  0  0
   49.9873    5.8054   21.3379 N   0  0  0  0  0  0  0  0  0  0  0  0
   48.3559    4.1743   19.0837 C   0  0  0  0  0  0  0  0  0  0  0  0
   48.5434    5.5455   21.2905 C   0  0  1  0  0  0  0  0  0  0  0  0
   47.2263    4.1392   18.2530 C   0  0  0  0  0  0  0  0  0  0  0  0
   49.6263    4.1653   18.4935 C   0  0  0  0  0  0  0  0  0  0  0  0
   47.8214    6.7458   20.6799 C   0  0  0  0  0  0  0  0  0  0  0  0
   47.3661    4.0987   16.8643 C   0  0  0  0  0  0  0  0  0  0  0  0
   49.7653    4.1257   17.1048 C   0  0  0  0  0  0  0  0  0  0  0  0
   48.6355    4.0920   16.2906 C   0  0  0  0  0  0  0  0  0  0  0  0
   47.4069    6.9488   18.9277 H   0  0  0  0  0  0  0  0  0  0  0  0
   49.1393    7.1090   19.0160 H   0  0  0  0  0  0  0  0  0  0  0  0
   47.0885    5.5268   22.3161 H   0  0  0  0  0  0  0  0  0  0  0  0
   47.1464    4.6270   20.9641 H   0  0  0  0  0  0  0  0  0  0  0  0
   48.1390    7.3644   21.2176 H   0  0  0  0  0  0  0  0  0  0  0  0
   50.6290    5.2228   18.4632 H   0  0  0  0  0  0  0  0  0  0  0  0
   46.3424    4.7440   18.4395 H   0  0  0  0  0  0  0  0  0  0  0  0
   49.4912    5.8271   22.5416 H   0  0  0  0  0  0  0  0  0  0  0  0
   49.6485    4.6974   21.1926 H   0  0  0  0  0  0  0  0  0  0  0  0
   50.4024    6.3010   21.1039 H   0  0  0  0  0  0  0  0  0  0  0  0
   50.8664    3.0849   17.2534 H   0  0  0  0  0  0  0  0  0  0  0  0
   46.5975    2.6057   17.2277 H   0  0  0  0  0  0  0  0  0  0  0  0
   48.8568    1.7695   16.6338 H   0  0  0  0  0  0  0  0  0  0  0  0
   48.7948    7.1569   18.9688 H   0  0  0  0  0  0  0  0  0  0  0  0
   50.2498    6.3595   19.4970 H   0  0  0  0  0  0  0  0  0  0  0  0
   46.9638    7.3499   20.6438 H   0  0  0  0  0  0  0  0  0  0  0  0
   46.9149    6.4437   22.0028 H   0  0  0  0  0  0  0  0  0  0  0  0
   49.1245    7.0445   21.4532 H   0  0  0  0  0  0  0  0  0  0  0  0
   46.7156    5.5454   18.4199 H   0  0  0  0  0  0  0  0  0  0  0  0
   50.8360    4.2774   18.5604 H   0  0  0  0  0  0  0  0  0  0  0  0
   48.7574    4.9913   22.7209 H   0  0  0  0  0  0  0  0  0  0  0  0
   48.5037    4.0501   21.2467 H   0  0  0  0  0  0  0  0  0  0  0  0
   50.0981    4.7447   21.5968 H   0  0  0  0  0  0  0  0  0  0  0  0
   50.2817    2.3468   17.1303 H   0  0  0  0  0  0  0  0  0  0  0  0
   46.1789    3.6095   16.9886 H   0  0  0  0  0  0  0  0  0  0  0  0
   47.9558    2.0041   16.3385 H   0  0  0  0  0  0  0  0  0  0  0  0
   47.1599    3.9558   20.8389 H   0  0  0  0  0  0  0  0  0  0  0  0
   48.7998    3.3990   21.0178 H   0  0  0  0  0  0  0  0  0  0  0  0
   50.4523    5.0616   21.8558 H   0  0  0  0  0  0  0  0  0  0  0  0
   50.1642    6.6702   21.8469 H   0  0  0  0  0  0  0  0  0  0  0  0
   48.2076    5.4523   22.3312 H   0  0  0  0  0  0  0  0  0  0  0  0
   46.2271    4.1454   18.6820 H   0  0  0  0  0  0  0  0  0  0  0  0
   50.5184    4.1985   19.1148 H   0  0  0  0  0  0  0  0  0  0  0  0
   46.7414    6.5679   20.6390 H   0  0  0  0  0  0  0  0  0  0  0  0
   47.9843    7.6456   21.2838 H   0  0  0  0  0  0  0  0  0  0  0  0
   48.1703    6.9625   19.6644 H   0  0  0  0  0  0  0  0  0  0  0  0
   46.4837    4.0737   16.2307 H   0  0  0  0  0  0  0  0  0  0  0  0
   50.7570    4.1251   16.6609 H   0  0  0  0  0  0  0  0  0  0  0  0
   48.7448    4.0627   15.2101 H   0  0  0  0  0  0  0  0  0  0  0  0
  4  2  1  0
  3  1  1  0
  4  1  1  0
  5  3  2  0
  6  3  1  0
  4  7  1  0
  8  5  1  0
  9  6  2  0
 10  8  2  0
  9 10  1  0
 12 14  1  0
 13 11  1  0
 14 11  1  0
 15 13  2  0
 16 13  1  0
 17 14  1  0
 18 16  2  0
 19 15  1  0
 20 18  1  0
 19 20  2  0
 24 22  1  0
 23 21  1  0
 24 21  1  0
 25 23  2  0
 26 23  1  0
 24 27  1  0
 28 25  1  0
 29 26  2  0
 30 28  2  0
 29 30  1  0
  1 31  1  0
  1 32  1  0
  2 33  1  0
  2 34  1  0
  4 35  1  6
  5 36  1  0
  6 37  1  0
  7 38  1  0
  7 39  1  0
  7 40  1  0
  8 41  1  0
  9 42  1  0
 10 43  1  0
 11 44  1  0
 11 45  1  0
 12 46  1  0
 12 47  1  0
 14 48  1  1
 15 49  1  0
 16 50  1  0
 17 51  1  0
 17 52  1  0
 17 53  1  0
 18 54  1  0
 19 55  1  0
 20 56  1  0
 21 57  1  0
 21 58  1  0
 22 59  1  0
 22 60  1  0
 24 61  1  6
 25 62  1  0
 26 63  1  0
 27 64  1  0
 27 65  1  0
 27 66  1  0
 28 67  1  0
 29 68  1  0
 30 69  1  0
M  END
> <Uni-Dock RESULT> 
ENERGY=   -6.622  LOWER_BOUND=    7.502  UPPER_BOUND=    9.400
INTER + INTRA:          -6.622
INTER:                  -6.622
INTRA:                   0.000
UNBOUND:                 0.000

$$$$

     RDKit          3D

 69 69  0  0  0  0  0  0  0  0999 V2000
   47.5109    3.5883   18.2255 C   0  0  0  0  0  0  0  0  0  0  0  0
   48.6598    4.4904   16.1890 N   0  0  0  0  0  0  0  0  0  0  0  0
   47.9740    4.6220   19.2282 C   0  0  0  0  0  0  0  0  0  0  0  0
   48.4675    3.3108   17.0423 C   0  0  1  0  0  0  0  0  0  0  0  0
   48.6872    4.2400   20.3728 C   0  0  0  0  0  0  0  0  0  0  0  0
   47.6948    5.9810   19.0269 C   0  0  0  0  0  0  0  0  0  0  0  0
   49.8229    2.7616   17.4882 C   0  0  0  0  0  0  0  0  0  0  0  0
   49.1179    5.1984   21.2918 C   0  0  0  0  0  0  0  0  0  0  0  0
   48.1260    6.9381   19.9463 C   0  0  0  0  0  0  0  0  0  0  0  0
   48.8383    6.5467   21.0781 C   0  0  0  0  0  0  0  0  0  0  0  0
   48.1477    3.1421   18.6492 C   0  0  0  0  0  0  0  0  0  0  0  0
   48.0141    3.8717   16.2504 N   0  0  0  0  0  0  0  0  0  0  0  0
   48.2214    4.4416   19.4188 C   0  0  0  0  0  0  0  0  0  0  0  0
   48.7961    3.1271   17.2446 C   0  0  1  0  0  0  0  0  0  0  0  0
   47.4486    5.5469   19.0402 C   0  0  0  0  0  0  0  0  0  0  0  0
   49.0628    4.5579   20.5350 C   0  0  0  0  0  0  0  0  0  0  0  0
   50.2395    3.6282   17.2487 C   0  0  0  0  0  0  0  0  0  0  0  0
   49.1303    5.7536   21.2530 C   0  0  0  0  0  0  0  0  0  0  0  0
   47.5173    6.7424   19.7580 C   0  0  0  0  0  0  0  0  0  0  0  0
   48.3575    6.8456   20.8644 C   0  0  0  0  0  0  0  0  0  0  0  0
   49.6584    4.9439   17.7605 C   0  0  0  0  0  0  0  0  0  0  0  0
   49.9502    2.4513   17.8380 N   0  0  0  0  0  0  0  0  0  0  0  0
   48.8583    5.2524   19.0061 C   0  0  0  0  0  0  0  0  0  0  0  0
   49.3920    3.5791   17.0825 C   0  0  1  0  0  0  0  0  0  0  0  0
   47.8390    6.2154   18.9737 C   0  0  0  0  0  0  0  0  0  0  0  0
   49.1233    4.5928   20.2131 C   0  0  0  0  0  0  0  0  0  0  0  0
   47.9105    3.3314   16.8021 C   0  0  0  0  0  0  0  0  0  0  0  0
   47.1012    6.5085   20.1224 C   0  0  0  0  0  0  0  0  0  0  0  0
   48.3847    4.8858   21.3610 C   0  0  0  0  0  0  0  0  0  0  0  0
   47.3742    5.8437   21.3157 C   0  0  0  0  0  0  0  0  0  0  0  0
   46.5321    3.8974   17.8332 H   0  0  0  0  0  0  0  0  0  0  0  0
   47.3177    2.6458   18.7555 H   0  0  0  0  0  0  0  0  0  0  0  0
   49.3163    4.2664   15.4420 H   0  0  0  0  0  0  0  0  0  0  0  0
   49.1108    5.2237   16.7391 H   0  0  0  0  0  0  0  0  0  0  0  0
   47.9896    2.5434   16.4208 H   0  0  0  0  0  0  0  0  0  0  0  0
   48.9120    3.1920   20.5563 H   0  0  0  0  0  0  0  0  0  0  0  0
   47.1375    6.2990   18.1475 H   0  0  0  0  0  0  0  0  0  0  0  0
   50.4175    2.4478   16.6227 H   0  0  0  0  0  0  0  0  0  0  0  0
   50.4089    3.5066   18.0368 H   0  0  0  0  0  0  0  0  0  0  0  0
   49.6932    1.8859   18.1332 H   0  0  0  0  0  0  0  0  0  0  0  0
   49.6704    4.8923   22.1762 H   0  0  0  0  0  0  0  0  0  0  0  0
   47.9034    7.9887   19.7796 H   0  0  0  0  0  0  0  0  0  0  0  0
   49.1724    7.2921   21.7948 H   0  0  0  0  0  0  0  0  0  0  0  0
   47.0928    2.8446   18.5738 H   0  0  0  0  0  0  0  0  0  0  0  0
   48.6206    2.3511   19.2476 H   0  0  0  0  0  0  0  0  0  0  0  0
   47.0888    3.4553   16.1607 H   0  0  0  0  0  0  0  0  0  0  0  0
   48.4584    3.7954   15.3366 H   0  0  0  0  0  0  0  0  0  0  0  0
   48.8104    2.0811   16.9123 H   0  0  0  0  0  0  0  0  0  0  0  0
   46.7929    5.4850   18.1747 H   0  0  0  0  0  0  0  0  0  0  0  0
   49.6749    3.7173   20.8531 H   0  0  0  0  0  0  0  0  0  0  0  0
   50.7058    3.4776   16.2684 H   0  0  0  0  0  0  0  0  0  0  0  0
   50.3035    4.6962   17.4835 H   0  0  0  0  0  0  0  0  0  0  0  0
   50.8373    3.0805   17.9850 H   0  0  0  0  0  0  0  0  0  0  0  0
   49.7871    5.8327   22.1149 H   0  0  0  0  0  0  0  0  0  0  0  0
   46.9163    7.5933   19.4492 H   0  0  0  0  0  0  0  0  0  0  0  0
   48.4111    7.7768   21.4213 H   0  0  0  0  0  0  0  0  0  0  0  0
   49.4718    5.7319   17.0179 H   0  0  0  0  0  0  0  0  0  0  0  0
   50.7258    5.0346   18.0042 H   0  0  0  0  0  0  0  0  0  0  0  0
   50.9603    2.5579   17.9162 H   0  0  0  0  0  0  0  0  0  0  0  0
   49.7868    1.5831   17.3302 H   0  0  0  0  0  0  0  0  0  0  0  0
   49.9126    3.5971   16.1164 H   0  0  0  0  0  0  0  0  0  0  0  0
   47.6099    6.7438   18.0513 H   0  0  0  0  0  0  0  0  0  0  0  0
   49.9041    3.8372   20.2636 H   0  0  0  0  0  0  0  0  0  0  0  0
   47.4791    4.1645   16.2368 H   0  0  0  0  0  0  0  0  0  0  0  0
   47.7747    2.4227   16.2047 H   0  0  0  0  0  0  0  0  0  0  0  0
   47.3323    3.2092   17.7244 H   0  0  0  0  0  0  0  0  0  0  0  0
   46.3126    7.2550   20.0849 H   0  0  0  0  0  0  0  0  0  0  0  0
   48.5976    4.3619   22.2889 H   0  0  0  0  0  0  0  0  0  0  0  0
   46.7990    6.0698   22.2092 H   0  0  0  0  0  0  0  0  0  0  0  0
  4  2  1  0
  3  1  1  0
  4  1  1  0
  5  3  2  0
  6  3  1  0
  4  7  1  0
  8  5  1  0
  9  6  2  0
 10  8  2  0
  9 10  1  0
 12 14  1  0
 13 11  1  0
 14 11  1  0
 15 13  2  0
 16 13  1  0
 17 14  1  0
 18 16  2  0
 19 15  1  0
 20 18  1  0
 19 20  2  0
 24 22  1  0
 23 21  1  0
 24 21  1  0
 25 23  2  0
 26 23  1  0
 24 27  1  0
 28 25  1  0
 29 26  2  0
 30 28  2  0
 29 30  1  0
  1 31  1  0
  1 32  1  0
  2 33  1  0
  2 34  1  0
  4 35  1  6
  5 36  1  0
  6 37  1  0
  7 38  1  0
  7 39  1  0
  7 40  1  0
  8 41  1  0
  9 42  1  0
 10 43  1  0
 11 44  1  0
 11 45  1  0
 12 46  1  0
 12 47  1  0
 14 48  1  1
 15 49  1  0
 16 50  1  0
 17 51  1  0
 17 52  1  0
 17 53  1  0
 18 54  1  0
 19 55  1  0
 20 56  1  0
 21 57  1  0
 21 58  1  0
 22 59  1  0
 22 60  1  0
 24 61  1  6
 25 62  1  0
 26 63  1  0
 27 64  1  0
 27 65  1  0
 27 66  1  0
 28 67  1  0
 29 68  1  0
 30 69  1  0
M  END
> <Uni-Dock RESULT> 
ENERGY=   -6.599  LOWER_BOUND=    7.407  UPPER_BOUND=   10.212
INTER + INTRA:          -6.599
INTER:                  -6.599
INTRA:                   0.000
UNBOUND:                 0.000

$$$$
