
     RDKit          3D

 69 69  0  0  0  0  0  0  0  0999 V2000
   44.4434    3.9186    8.9211 C   0  0  0  0  0  0  0  0  0  0  0  0
   45.7960    1.8229    8.8452 N   0  0  0  0  0  0  0  0  0  0  0  0
   44.2113    4.1414   10.3985 C   0  0  0  0  0  0  0  0  0  0  0  0
   45.8084    3.2717    8.5986 C   0  0  1  0  0  0  0  0  0  0  0  0
   44.4314    5.4025   10.9701 C   0  0  0  0  0  0  0  0  0  0  0  0
   43.7846    3.0909   11.2211 C   0  0  0  0  0  0  0  0  0  0  0  0
   46.1815    3.5172    7.1351 C   0  0  0  0  0  0  0  0  0  0  0  0
   44.2198    5.6089   12.3347 C   0  0  0  0  0  0  0  0  0  0  0  0
   43.5742    3.2981   12.5853 C   0  0  0  0  0  0  0  0  0  0  0  0
   43.7902    4.5573   13.1417 C   0  0  0  0  0  0  0  0  0  0  0  0
   43.3556    4.0912   10.1369 C   0  0  0  0  0  0  0  0  0  0  0  0
   44.1178    2.9192   12.2170 N   0  0  0  0  0  0  0  0  0  0  0  0
   44.4549    3.6386    9.2015 C   0  0  0  0  0  0  0  0  0  0  0  0
   43.7387    4.2110   11.6306 C   0  0  1  0  0  0  0  0  0  0  0  0
   44.6815    2.2728    8.9810 C   0  0  0  0  0  0  0  0  0  0  0  0
   45.2628    4.5740    8.5405 C   0  0  0  0  0  0  0  0  0  0  0  0
   44.8390    5.2425   11.8826 C   0  0  0  0  0  0  0  0  0  0  0  0
   46.2801    4.1511    7.6832 C   0  0  0  0  0  0  0  0  0  0  0  0
   45.6988    1.8513    8.1238 C   0  0  0  0  0  0  0  0  0  0  0  0
   46.4986    2.7905    7.4759 C   0  0  0  0  0  0  0  0  0  0  0  0
   46.2128    4.1076    9.2968 C   0  0  0  0  0  0  0  0  0  0  0  0
   45.8015    1.6886    8.7641 N   0  0  0  0  0  0  0  0  0  0  0  0
   45.2828    4.3854   10.4563 C   0  0  0  0  0  0  0  0  0  0  0  0
   45.7375    3.0647    8.2576 C   0  0  1  0  0  0  0  0  0  0  0  0
   45.1007    3.4409   11.4749 C   0  0  0  0  0  0  0  0  0  0  0  0
   44.5911    5.6031   10.5346 C   0  0  0  0  0  0  0  0  0  0  0  0
   44.3366    3.3538    7.7202 C   0  0  0  0  0  0  0  0  0  0  0  0
   44.2446    3.7054   12.5454 C   0  0  0  0  0  0  0  0  0  0  0  0
   43.7357    5.8672   11.6061 C   0  0  0  0  0  0  0  0  0  0  0  0
   43.5626    4.9183   12.6114 C   0  0  0  0  0  0  0  0  0  0  0  0
   44.3684    4.8893    8.4124 H   0  0  0  0  0  0  0  0  0  0  0  0
   43.6205    3.3173    8.5110 H   0  0  0  0  0  0  0  0  0  0  0  0
   46.7144    1.4342    8.6343 H   0  0  0  0  0  0  0  0  0  0  0  0
   45.1413    1.3689    8.2102 H   0  0  0  0  0  0  0  0  0  0  0  0
   46.5850    3.7193    9.2307 H   0  0  0  0  0  0  0  0  0  0  0  0
   44.7694    6.2337   10.3561 H   0  0  0  0  0  0  0  0  0  0  0  0
   43.6246    2.1001   10.8016 H   0  0  0  0  0  0  0  0  0  0  0  0
   45.4351    3.0940    6.4534 H   0  0  0  0  0  0  0  0  0  0  0  0
   47.1527    3.0701    6.8954 H   0  0  0  0  0  0  0  0  0  0  0  0
   46.2547    4.5908    6.9302 H   0  0  0  0  0  0  0  0  0  0  0  0
   44.3921    6.5903   12.7682 H   0  0  0  0  0  0  0  0  0  0  0  0
   43.2470    2.4740   13.2133 H   0  0  0  0  0  0  0  0  0  0  0  0
   43.6279    4.7171   14.2040 H   0  0  0  0  0  0  0  0  0  0  0  0
   42.9740    5.0606    9.7885 H   0  0  0  0  0  0  0  0  0  0  0  0
   42.5065    3.4010   10.0366 H   0  0  0  0  0  0  0  0  0  0  0  0
   44.3868    3.0535   13.1910 H   0  0  0  0  0  0  0  0  0  0  0  0
   44.9576    2.5783   11.7455 H   0  0  0  0  0  0  0  0  0  0  0  0
   42.8413    4.5504   12.1625 H   0  0  0  0  0  0  0  0  0  0  0  0
   44.0622    1.5295    9.4799 H   0  0  0  0  0  0  0  0  0  0  0  0
   45.1045    5.6396    8.6890 H   0  0  0  0  0  0  0  0  0  0  0  0
   45.8009    4.9292   11.4631 H   0  0  0  0  0  0  0  0  0  0  0  0
   44.9842    5.3992   12.9575 H   0  0  0  0  0  0  0  0  0  0  0  0
   44.5723    6.2091   11.4421 H   0  0  0  0  0  0  0  0  0  0  0  0
   46.9014    4.8840    7.1753 H   0  0  0  0  0  0  0  0  0  0  0  0
   45.8649    0.7898    7.9606 H   0  0  0  0  0  0  0  0  0  0  0  0
   47.2896    2.4621    6.8072 H   0  0  0  0  0  0  0  0  0  0  0  0
   47.1897    3.8092    9.7013 H   0  0  0  0  0  0  0  0  0  0  0  0
   46.4047    5.0501    8.7657 H   0  0  0  0  0  0  0  0  0  0  0  0
   45.5211    1.0391    8.0307 H   0  0  0  0  0  0  0  0  0  0  0  0
   46.7635    1.4572    9.0065 H   0  0  0  0  0  0  0  0  0  0  0  0
   46.4340    3.1195    7.4110 H   0  0  0  0  0  0  0  0  0  0  0  0
   45.6202    2.4863   11.4348 H   0  0  0  0  0  0  0  0  0  0  0  0
   44.7118    6.3557    9.7591 H   0  0  0  0  0  0  0  0  0  0  0  0
   44.2730    4.3776    7.3364 H   0  0  0  0  0  0  0  0  0  0  0  0
   44.0899    2.6767    6.8946 H   0  0  0  0  0  0  0  0  0  0  0  0
   43.5673    3.2294    8.4899 H   0  0  0  0  0  0  0  0  0  0  0  0
   44.1087    2.9610   13.3253 H   0  0  0  0  0  0  0  0  0  0  0  0
   43.2037    6.8134   11.6553 H   0  0  0  0  0  0  0  0  0  0  0  0
   42.8955    5.1225   13.4442 H   0  0  0  0  0  0  0  0  0  0  0  0
  4  2  1  0
  3  1  1  0
  4  1  1  0
  5  3  2  0
  6  3  1  0
  4  7  1  0
  8  5  1  0
  9  6  2  0
 10  8  2  0
  9 10  1  0
 12 14  1  0
 13 11  1  0
 14 11  1  0
 15 13  2  0
 16 13  1  0
 17 14  1  0
 18 16  2  0
 19 15  1  0
 20 18  1  0
 19 20  2  0
 24 22  1  0
 23 21  1  0
 24 21  1  0
 25 23  2  0
 26 23  1  0
 24 27  1  0
 28 25  1  0
 29 26  2  0
 30 28  2  0
 29 30  1  0
  1 31  1  0
  1 32  1  0
  2 33  1  0
  2 34  1  0
  4 35  1  1
  5 36  1  0
  6 37  1  0
  7 38  1  0
  7 39  1  0
  7 40  1  0
  8 41  1  0
  9 42  1  0
 10 43  1  0
 11 44  1  0
 11 45  1  0
 12 46  1  0
 12 47  1  0
 14 48  1  6
 15 49  1  0
 16 50  1  0
 17 51  1  0
 17 52  1  0
 17 53  1  0
 18 54  1  0
 19 55  1  0
 20 56  1  0
 21 57  1  0
 21 58  1  0
 22 59  1  0
 22 60  1  0
 24 61  1  1
 25 62  1  0
 26 63  1  0
 27 64  1  0
 27 65  1  0
 27 66  1  0
 28 67  1  0
 29 68  1  0
 30 69  1  0
M  END
> <Uni-Dock RESULT> 
ENERGY=   -7.748  LOWER_BOUND=    0.000  UPPER_BOUND=    0.000
INTER + INTRA:          -7.748
INTER:                  -7.748
INTRA:                   0.000
UNBOUND:                 0.000

$$$$

     RDKit          3D

 69 69  0  0  0  0  0  0  0  0999 V2000
   45.1696    5.3124   11.2816 C   0  0  0  0  0  0  0  0  0  0  0  0
   42.8094    5.3046   12.0921 N   0  0  0  0  0  0  0  0  0  0  0  0
   45.7347    6.5998   11.8381 C   0  0  0  0  0  0  0  0  0  0  0  0
   44.1199    4.6482   12.1997 C   0  0  1  0  0  0  0  0  0  0  0  0
   46.9727    6.6065   12.4961 C   0  0  0  0  0  0  0  0  0  0  0  0
   45.0271    7.8025   11.7158 C   0  0  0  0  0  0  0  0  0  0  0  0
   43.9590    3.1693   11.8416 C   0  0  0  0  0  0  0  0  0  0  0  0
   47.4945    7.7941   13.0125 C   0  0  0  0  0  0  0  0  0  0  0  0
   45.5492    8.9890   12.2333 C   0  0  0  0  0  0  0  0  0  0  0  0
   46.7835    8.9851   12.8800 C   0  0  0  0  0  0  0  0  0  0  0  0
   45.8726    6.7610   10.9673 C   0  0  0  0  0  0  0  0  0  0  0  0
   44.9698    8.5576   12.4633 N   0  0  0  0  0  0  0  0  0  0  0  0
   44.9584    5.6311   11.3866 C   0  0  0  0  0  0  0  0  0  0  0  0
   46.1739    7.8288   12.0449 C   0  0  1  0  0  0  0  0  0  0  0  0
   43.5676    5.7624   11.2684 C   0  0  0  0  0  0  0  0  0  0  0  0
   45.4842    4.4367   11.8980 C   0  0  0  0  0  0  0  0  0  0  0  0
   46.8895    7.2552   13.2685 C   0  0  0  0  0  0  0  0  0  0  0  0
   44.6360    3.3995   12.2895 C   0  0  0  0  0  0  0  0  0  0  0  0
   42.7207    4.7248   11.6601 C   0  0  0  0  0  0  0  0  0  0  0  0
   43.2550    3.5440   12.1715 C   0  0  0  0  0  0  0  0  0  0  0  0
   44.9320    4.8128   13.0141 C   0  0  0  0  0  0  0  0  0  0  0  0
   42.6656    5.2743   12.0370 N   0  0  0  0  0  0  0  0  0  0  0  0
   45.6792    6.1135   12.8237 C   0  0  0  0  0  0  0  0  0  0  0  0
   43.8777    4.4520   11.9410 C   0  0  1  0  0  0  0  0  0  0  0  0
   45.0422    7.3451   13.0234 C   0  0  0  0  0  0  0  0  0  0  0  0
   47.0313    6.1065   12.4505 C   0  0  0  0  0  0  0  0  0  0  0  0
   44.4310    4.5101   10.5179 C   0  0  0  0  0  0  0  0  0  0  0  0
   45.7390    8.5426   12.8509 C   0  0  0  0  0  0  0  0  0  0  0  0
   47.7276    7.3045   12.2791 C   0  0  0  0  0  0  0  0  0  0  0  0
   47.0814    8.5224   12.4793 C   0  0  0  0  0  0  0  0  0  0  0  0
   46.0029    4.6167   11.1142 H   0  0  0  0  0  0  0  0  0  0  0  0
   44.7508    5.5013   10.2837 H   0  0  0  0  0  0  0  0  0  0  0  0
   42.1482    4.8488   12.7197 H   0  0  0  0  0  0  0  0  0  0  0  0
   42.4382    5.1851   11.1508 H   0  0  0  0  0  0  0  0  0  0  0  0
   44.4508    4.7148   13.2433 H   0  0  0  0  0  0  0  0  0  0  0  0
   47.5398    5.6859   12.6111 H   0  0  0  0  0  0  0  0  0  0  0  0
   44.0566    7.8167   11.2245 H   0  0  0  0  0  0  0  0  0  0  0  0
   43.6330    3.0403   10.8033 H   0  0  0  0  0  0  0  0  0  0  0  0
   43.2225    2.6840   12.4917 H   0  0  0  0  0  0  0  0  0  0  0  0
   44.9080    2.6366   11.9655 H   0  0  0  0  0  0  0  0  0  0  0  0
   48.4554    7.7892   13.5199 H   0  0  0  0  0  0  0  0  0  0  0  0
   44.9885    9.9146   12.1354 H   0  0  0  0  0  0  0  0  0  0  0  0
   47.1882    9.9089   13.2840 H   0  0  0  0  0  0  0  0  0  0  0  0
   46.8212    6.3337   10.6147 H   0  0  0  0  0  0  0  0  0  0  0  0
   45.4386    7.2514   10.0850 H   0  0  0  0  0  0  0  0  0  0  0  0
   45.2138    9.2286   13.1909 H   0  0  0  0  0  0  0  0  0  0  0  0
   44.3238    7.8996   12.9032 H   0  0  0  0  0  0  0  0  0  0  0  0
   46.8464    8.5634   11.5848 H   0  0  0  0  0  0  0  0  0  0  0  0
   43.1383    6.6793   10.8685 H   0  0  0  0  0  0  0  0  0  0  0  0
   46.5595    4.3063   11.9947 H   0  0  0  0  0  0  0  0  0  0  0  0
   46.2460    6.5803   13.8429 H   0  0  0  0  0  0  0  0  0  0  0  0
   47.2087    8.0583   13.9423 H   0  0  0  0  0  0  0  0  0  0  0  0
   47.7855    6.7011   12.9691 H   0  0  0  0  0  0  0  0  0  0  0  0
   45.0533    2.4773   12.6851 H   0  0  0  0  0  0  0  0  0  0  0  0
   41.6442    4.8382   11.5635 H   0  0  0  0  0  0  0  0  0  0  0  0
   42.5954    2.7355   12.4749 H   0  0  0  0  0  0  0  0  0  0  0  0
   44.4609    4.8271   14.0065 H   0  0  0  0  0  0  0  0  0  0  0  0
   45.6606    3.9918   13.0609 H   0  0  0  0  0  0  0  0  0  0  0  0
   41.9876    4.9697   11.3398 H   0  0  0  0  0  0  0  0  0  0  0  0
   42.2297    5.1369   12.9473 H   0  0  0  0  0  0  0  0  0  0  0  0
   43.5695    3.4164   12.1337 H   0  0  0  0  0  0  0  0  0  0  0  0
   43.9928    7.3785   13.3068 H   0  0  0  0  0  0  0  0  0  0  0  0
   47.5527    5.1663   12.2881 H   0  0  0  0  0  0  0  0  0  0  0  0
   45.3358    3.8993   10.4293 H   0  0  0  0  0  0  0  0  0  0  0  0
   43.6996    4.1210    9.8005 H   0  0  0  0  0  0  0  0  0  0  0  0
   44.6787    5.5330   10.2145 H   0  0  0  0  0  0  0  0  0  0  0  0
   45.2303    9.4905   13.0037 H   0  0  0  0  0  0  0  0  0  0  0  0
   48.7744    7.2869   11.9881 H   0  0  0  0  0  0  0  0  0  0  0  0
   47.6223    9.4548   12.3440 H   0  0  0  0  0  0  0  0  0  0  0  0
  4  2  1  0
  3  1  1  0
  4  1  1  0
  5  3  2  0
  6  3  1  0
  4  7  1  0
  8  5  1  0
  9  6  2  0
 10  8  2  0
  9 10  1  0
 12 14  1  0
 13 11  1  0
 14 11  1  0
 15 13  2  0
 16 13  1  0
 17 14  1  0
 18 16  2  0
 19 15  1  0
 20 18  1  0
 19 20  2  0
 24 22  1  0
 23 21  1  0
 24 21  1  0
 25 23  2  0
 26 23  1  0
 24 27  1  0
 28 25  1  0
 29 26  2  0
 30 28  2  0
 29 30  1  0
  1 31  1  0
  1 32  1  0
  2 33  1  0
  2 34  1  0
  4 35  1  1
  5 36  1  0
  6 37  1  0
  7 38  1  0
  7 39  1  0
  7 40  1  0
  8 41  1  0
  9 42  1  0
 10 43  1  0
 11 44  1  0
 11 45  1  0
 12 46  1  0
 12 47  1  0
 14 48  1  6
 15 49  1  0
 16 50  1  0
 17 51  1  0
 17 52  1  0
 17 53  1  0
 18 54  1  0
 19 55  1  0
 20 56  1  0
 21 57  1  0
 21 58  1  0
 22 59  1  0
 22 60  1  0
 24 61  1  1
 25 62  1  0
 26 63  1  0
 27 64  1  0
 27 65  1  0
 27 66  1  0
 28 67  1  0
 29 68  1  0
 30 69  1  0
M  END
> <Uni-Dock RESULT> 
ENERGY=   -7.646  LOWER_BOUND=    2.516  UPPER_BOUND=    4.457
INTER + INTRA:          -7.646
INTER:                  -7.646
INTRA:                   0.000
UNBOUND:                 0.000

$$$$

     RDKit          3D

 69 69  0  0  0  0  0  0  0  0999 V2000
   46.1947    6.7621   11.7223 C   0  0  0  0  0  0  0  0  0  0  0  0
   47.3786    6.6467   13.9160 N   0  0  0  0  0  0  0  0  0  0  0  0
   45.1754    5.6484   11.8068 C   0  0  0  0  0  0  0  0  0  0  0  0
   46.4767    7.4484   13.0770 C   0  0  1  0  0  0  0  0  0  0  0  0
   43.8391    5.8797   11.4514 C   0  0  0  0  0  0  0  0  0  0  0  0
   45.5461    4.3728   12.2516 C   0  0  0  0  0  0  0  0  0  0  0  0
   47.1068    8.8250   12.8555 C   0  0  0  0  0  0  0  0  0  0  0  0
   42.8965    4.8527   11.5313 C   0  0  0  0  0  0  0  0  0  0  0  0
   44.6028    3.3472   12.3319 C   0  0  0  0  0  0  0  0  0  0  0  0
   43.2786    3.5867   11.9702 C   0  0  0  0  0  0  0  0  0  0  0  0
   45.6196    5.3656   11.0815 C   0  0  0  0  0  0  0  0  0  0  0  0
   44.9533    3.7453   12.8736 N   0  0  0  0  0  0  0  0  0  0  0  0
   46.2195    6.4436   11.9571 C   0  0  0  0  0  0  0  0  0  0  0  0
   44.4895    4.5225   11.7173 C   0  0  1  0  0  0  0  0  0  0  0  0
   47.2849    6.1468   12.8185 C   0  0  0  0  0  0  0  0  0  0  0  0
   45.7226    7.7537   11.9216 C   0  0  0  0  0  0  0  0  0  0  0  0
   43.2686    5.3578   12.1044 C   0  0  0  0  0  0  0  0  0  0  0  0
   46.2755    8.7434   12.7362 C   0  0  0  0  0  0  0  0  0  0  0  0
   47.8367    7.1370   13.6324 C   0  0  0  0  0  0  0  0  0  0  0  0
   47.3312    8.4348   13.5918 C   0  0  0  0  0  0  0  0  0  0  0  0
   45.3176    7.5042   13.1322 C   0  0  0  0  0  0  0  0  0  0  0  0
   47.5254    6.6523   13.9716 N   0  0  0  0  0  0  0  0  0  0  0  0
   44.6563    6.2773   12.5456 C   0  0  0  0  0  0  0  0  0  0  0  0
   46.8605    7.5735   13.0423 C   0  0  1  0  0  0  0  0  0  0  0  0
   44.7577    5.0324   13.1802 C   0  0  0  0  0  0  0  0  0  0  0  0
   43.9200    6.3692   11.3553 C   0  0  0  0  0  0  0  0  0  0  0  0
   47.3862    7.3482   11.6253 C   0  0  0  0  0  0  0  0  0  0  0  0
   44.1406    3.9045   12.6363 C   0  0  0  0  0  0  0  0  0  0  0  0
   43.3024    5.2408   10.8125 C   0  0  0  0  0  0  0  0  0  0  0  0
   43.4128    4.0085   11.4531 C   0  0  0  0  0  0  0  0  0  0  0  0
   45.8288    7.5073   11.0030 H   0  0  0  0  0  0  0  0  0  0  0  0
   47.1226    6.3723   11.2822 H   0  0  0  0  0  0  0  0  0  0  0  0
   47.5309    7.1236   14.8038 H   0  0  0  0  0  0  0  0  0  0  0  0
   48.2923    6.5736   13.4710 H   0  0  0  0  0  0  0  0  0  0  0  0
   45.5349    7.5855   13.6220 H   0  0  0  0  0  0  0  0  0  0  0  0
   43.5226    6.8621   11.1095 H   0  0  0  0  0  0  0  0  0  0  0  0
   46.5739    4.1763   12.5490 H   0  0  0  0  0  0  0  0  0  0  0  0
   48.0534    8.7507   12.3084 H   0  0  0  0  0  0  0  0  0  0  0  0
   47.3044    9.3264   13.8095 H   0  0  0  0  0  0  0  0  0  0  0  0
   46.4341    9.4693   12.2791 H   0  0  0  0  0  0  0  0  0  0  0  0
   41.8633    5.0417   11.2525 H   0  0  0  0  0  0  0  0  0  0  0  0
   44.9023    2.3633   12.6823 H   0  0  0  0  0  0  0  0  0  0  0  0
   42.5447    2.7882   12.0348 H   0  0  0  0  0  0  0  0  0  0  0  0
   45.2420    5.8301   10.1605 H   0  0  0  0  0  0  0  0  0  0  0  0
   46.4260    4.6967   10.7504 H   0  0  0  0  0  0  0  0  0  0  0  0
   44.1701    3.2294   13.2730 H   0  0  0  0  0  0  0  0  0  0  0  0
   45.2561    4.3922   13.6041 H   0  0  0  0  0  0  0  0  0  0  0  0
   44.1665    3.8000   10.9575 H   0  0  0  0  0  0  0  0  0  0  0  0
   47.6898    5.1371   12.8578 H   0  0  0  0  0  0  0  0  0  0  0  0
   44.9008    8.0124   11.2580 H   0  0  0  0  0  0  0  0  0  0  0  0
   43.4840    6.0430   12.9312 H   0  0  0  0  0  0  0  0  0  0  0  0
   42.4414    4.7117   12.4195 H   0  0  0  0  0  0  0  0  0  0  0  0
   42.9179    5.9495   11.2522 H   0  0  0  0  0  0  0  0  0  0  0  0
   45.8832    9.7563   12.7016 H   0  0  0  0  0  0  0  0  0  0  0  0
   48.6626    6.8951   14.2961 H   0  0  0  0  0  0  0  0  0  0  0  0
   47.7622    9.2061   14.2244 H   0  0  0  0  0  0  0  0  0  0  0  0
   45.0028    7.5984   14.1806 H   0  0  0  0  0  0  0  0  0  0  0  0
   44.9101    8.3953   12.6353 H   0  0  0  0  0  0  0  0  0  0  0  0
   48.5357    6.7670   13.9052 H   0  0  0  0  0  0  0  0  0  0  0  0
   47.2674    6.8860   14.9289 H   0  0  0  0  0  0  0  0  0  0  0  0
   47.1512    8.5877   13.3451 H   0  0  0  0  0  0  0  0  0  0  0  0
   45.3280    4.9327   14.1008 H   0  0  0  0  0  0  0  0  0  0  0  0
   43.8237    7.3217   10.8398 H   0  0  0  0  0  0  0  0  0  0  0  0
   46.9004    8.0302   10.9194 H   0  0  0  0  0  0  0  0  0  0  0  0
   48.4646    7.5368   11.5764 H   0  0  0  0  0  0  0  0  0  0  0  0
   47.2148    6.3223   11.2816 H   0  0  0  0  0  0  0  0  0  0  0  0
   44.2326    2.9442   13.1365 H   0  0  0  0  0  0  0  0  0  0  0  0
   42.7361    5.3236    9.8889 H   0  0  0  0  0  0  0  0  0  0  0  0
   42.9341    3.1298   11.0300 H   0  0  0  0  0  0  0  0  0  0  0  0
  4  2  1  0
  3  1  1  0
  4  1  1  0
  5  3  2  0
  6  3  1  0
  4  7  1  0
  8  5  1  0
  9  6  2  0
 10  8  2  0
  9 10  1  0
 12 14  1  0
 13 11  1  0
 14 11  1  0
 15 13  2  0
 16 13  1  0
 17 14  1  0
 18 16  2  0
 19 15  1  0
 20 18  1  0
 19 20  2  0
 24 22  1  0
 23 21  1  0
 24 21  1  0
 25 23  2  0
 26 23  1  0
 24 27  1  0
 28 25  1  0
 29 26  2  0
 30 28  2  0
 29 30  1  0
  1 31  1  0
  1 32  1  0
  2 33  1  0
  2 34  1  0
  4 35  1  1
  5 36  1  0
  6 37  1  0
  7 38  1  0
  7 39  1  0
  7 40  1  0
  8 41  1  0
  9 42  1  0
 10 43  1  0
 11 44  1  0
 11 45  1  0
 12 46  1  0
 12 47  1  0
 14 48  1  6
 15 49  1  0
 16 50  1  0
 17 51  1  0
 17 52  1  0
 17 53  1  0
 18 54  1  0
 19 55  1  0
 20 56  1  0
 21 57  1  0
 21 58  1  0
 22 59  1  0
 22 60  1  0
 24 61  1  1
 25 62  1  0
 26 63  1  0
 27 64  1  0
 27 65  1  0
 27 66  1  0
 28 67  1  0
 29 68  1  0
 30 69  1  0
M  END
> <Uni-Dock RESULT> 
ENERGY=   -7.291  LOWER_BOUND=    2.613  UPPER_BOUND=    4.631
INTER + INTRA:          -7.291
INTER:                  -7.291
INTRA:                   0.000
UNBOUND:                 0.000

$$$$

     RDKit          3D

 69 69  0  0  0  0  0  0  0  0999 V2000
   43.5880    4.2753   10.6969 C   0  0  0  0  0  0  0  0  0  0  0  0
   44.9226    5.9892   11.9252 N   0  0  0  0  0  0  0  0  0  0  0  0
   44.5006    3.8532    9.5674 C   0  0  0  0  0  0  0  0  0  0  0  0
   44.3385    4.6424   11.9960 C   0  0  1  0  0  0  0  0  0  0  0  0
   44.7090    2.4944    9.2924 C   0  0  0  0  0  0  0  0  0  0  0  0
   45.1604    4.8106    8.7863 C   0  0  0  0  0  0  0  0  0  0  0  0
   43.3892    4.5815   13.1946 C   0  0  0  0  0  0  0  0  0  0  0  0
   45.5533    2.1033    8.2514 C   0  0  0  0  0  0  0  0  0  0  0  0
   46.0050    4.4186    7.7464 C   0  0  0  0  0  0  0  0  0  0  0  0
   46.2000    3.0652    7.4780 C   0  0  0  0  0  0  0  0  0  0  0  0
   43.8084    4.1416    9.0766 C   0  0  0  0  0  0  0  0  0  0  0  0
   46.1570    4.7234    8.4237 N   0  0  0  0  0  0  0  0  0  0  0  0
   43.8845    4.4913   10.5465 C   0  0  0  0  0  0  0  0  0  0  0  0
   45.1280    3.6758    8.4181 C   0  0  1  0  0  0  0  0  0  0  0  0
   44.2357    5.7870   10.9504 C   0  0  0  0  0  0  0  0  0  0  0  0
   43.6054    3.5291   11.5267 C   0  0  0  0  0  0  0  0  0  0  0  0
   45.6838    2.3938    9.0392 C   0  0  0  0  0  0  0  0  0  0  0  0
   43.6834    3.8551   12.8819 C   0  0  0  0  0  0  0  0  0  0  0  0
   44.3133    6.1116   12.3054 C   0  0  0  0  0  0  0  0  0  0  0  0
   44.0382    5.1453   13.2708 C   0  0  0  0  0  0  0  0  0  0  0  0
   44.8711    3.6266   11.8107 C   0  0  0  0  0  0  0  0  0  0  0  0
   44.9023    6.1309   11.9897 N   0  0  0  0  0  0  0  0  0  0  0  0
   45.1134    3.3664   10.3410 C   0  0  0  0  0  0  0  0  0  0  0  0
   44.0973    4.9170   12.1709 C   0  0  1  0  0  0  0  0  0  0  0  0
   46.0368    4.1321    9.6174 C   0  0  0  0  0  0  0  0  0  0  0  0
   44.4198    2.3430    9.6782 C   0  0  0  0  0  0  0  0  0  0  0  0
   42.7780    5.0529   11.4122 C   0  0  0  0  0  0  0  0  0  0  0  0
   46.2597    3.8835    8.2618 C   0  0  0  0  0  0  0  0  0  0  0  0
   44.6441    2.0946    8.3227 C   0  0  0  0  0  0  0  0  0  0  0  0
   45.5640    2.8648    7.6147 C   0  0  0  0  0  0  0  0  0  0  0  0
   42.8884    3.4526   10.8975 H   0  0  0  0  0  0  0  0  0  0  0  0
   42.9578    5.1103   10.3615 H   0  0  0  0  0  0  0  0  0  0  0  0
   45.4190    6.1906   12.7924 H   0  0  0  0  0  0  0  0  0  0  0  0
   44.1817    6.6848   11.8525 H   0  0  0  0  0  0  0  0  0  0  0  0
   45.1514    3.9258   12.1650 H   0  0  0  0  0  0  0  0  0  0  0  0
   44.2148    1.7302    9.8875 H   0  0  0  0  0  0  0  0  0  0  0  0
   45.0266    5.8701    8.9937 H   0  0  0  0  0  0  0  0  0  0  0  0
   42.5501    5.2766   13.0786 H   0  0  0  0  0  0  0  0  0  0  0  0
   43.9117    4.8319   14.1245 H   0  0  0  0  0  0  0  0  0  0  0  0
   42.9778    3.5730   13.3104 H   0  0  0  0  0  0  0  0  0  0  0  0
   45.7076    1.0476    8.0453 H   0  0  0  0  0  0  0  0  0  0  0  0
   46.5141    5.1710    7.1504 H   0  0  0  0  0  0  0  0  0  0  0  0
   46.8590    2.7611    6.6694 H   0  0  0  0  0  0  0  0  0  0  0  0
   43.0474    3.3613    8.9396 H   0  0  0  0  0  0  0  0  0  0  0  0
   43.4208    5.0129    8.5307 H   0  0  0  0  0  0  0  0  0  0  0  0
   47.0132    4.3615    8.0053 H   0  0  0  0  0  0  0  0  0  0  0  0
   46.3971    4.9429    9.3922 H   0  0  0  0  0  0  0  0  0  0  0  0
   44.8996    3.4601    7.3670 H   0  0  0  0  0  0  0  0  0  0  0  0
   44.4511    6.5511   10.2056 H   0  0  0  0  0  0  0  0  0  0  0  0
   43.3248    2.5182   11.2408 H   0  0  0  0  0  0  0  0  0  0  0  0
   46.0279    2.5499   10.0671 H   0  0  0  0  0  0  0  0  0  0  0  0
   46.5360    2.0207    8.4600 H   0  0  0  0  0  0  0  0  0  0  0  0
   44.9226    1.6064    9.0492 H   0  0  0  0  0  0  0  0  0  0  0  0
   43.4652    3.1021   13.6345 H   0  0  0  0  0  0  0  0  0  0  0  0
   44.5864    7.1195   12.6064 H   0  0  0  0  0  0  0  0  0  0  0  0
   44.0970    5.3988   14.3258 H   0  0  0  0  0  0  0  0  0  0  0  0
   45.8406    3.6194   12.3273 H   0  0  0  0  0  0  0  0  0  0  0  0
   44.3213    2.7744   12.2332 H   0  0  0  0  0  0  0  0  0  0  0  0
   44.3648    6.9463   12.2806 H   0  0  0  0  0  0  0  0  0  0  0  0
   45.7222    6.0915   12.5930 H   0  0  0  0  0  0  0  0  0  0  0  0
   43.8587    4.8563   13.2405 H   0  0  0  0  0  0  0  0  0  0  0  0
   46.5830    4.9356   10.1059 H   0  0  0  0  0  0  0  0  0  0  0  0
   43.6967    1.7321   10.2132 H   0  0  0  0  0  0  0  0  0  0  0  0
   42.1643    4.1546   11.5392 H   0  0  0  0  0  0  0  0  0  0  0  0
   42.1987    5.9033   11.7893 H   0  0  0  0  0  0  0  0  0  0  0  0
   42.9348    5.2103   10.3396 H   0  0  0  0  0  0  0  0  0  0  0  0
   46.9748    4.4893    7.7119 H   0  0  0  0  0  0  0  0  0  0  0  0
   44.0996    1.3003    7.8193 H   0  0  0  0  0  0  0  0  0  0  0  0
   45.7373    2.6732    6.5594 H   0  0  0  0  0  0  0  0  0  0  0  0
  4  2  1  0
  3  1  1  0
  4  1  1  0
  5  3  2  0
  6  3  1  0
  4  7  1  0
  8  5  1  0
  9  6  2  0
 10  8  2  0
  9 10  1  0
 12 14  1  0
 13 11  1  0
 14 11  1  0
 15 13  2  0
 16 13  1  0
 17 14  1  0
 18 16  2  0
 19 15  1  0
 20 18  1  0
 19 20  2  0
 24 22  1  0
 23 21  1  0
 24 21  1  0
 25 23  2  0
 26 23  1  0
 24 27  1  0
 28 25  1  0
 29 26  2  0
 30 28  2  0
 29 30  1  0
  1 31  1  0
  1 32  1  0
  2 33  1  0
  2 34  1  0
  4 35  1  1
  5 36  1  0
  6 37  1  0
  7 38  1  0
  7 39  1  0
  7 40  1  0
  8 41  1  0
  9 42  1  0
 10 43  1  0
 11 44  1  0
 11 45  1  0
 12 46  1  0
 12 47  1  0
 14 48  1  6
 15 49  1  0
 16 50  1  0
 17 51  1  0
 17 52  1  0
 17 53  1  0
 18 54  1  0
 19 55  1  0
 20 56  1  0
 21 57  1  0
 21 58  1  0
 22 59  1  0
 22 60  1  0
 24 61  1  1
 25 62  1  0
 26 63  1  0
 27 64  1  0
 27 65  1  0
 27 66  1  0
 28 67  1  0
 29 68  1  0
 30 69  1  0
M  END
> <Uni-Dock RESULT> 
ENERGY=   -7.006  LOWER_BOUND=    1.174  UPPER_BOUND=    4.461
INTER + INTRA:          -7.006
INTER:                  -7.006
INTRA:                   0.000
UNBOUND:                 0.000

$$$$

     RDKit          3D

 69 69  0  0  0  0  0  0  0  0999 V2000
   48.8063    5.6998   19.5440 C   0  0  0  0  0  0  0  0  0  0  0  0
   50.2287    4.6645   21.3137 N   0  0  0  0  0  0  0  0  0  0  0  0
   48.7306    4.6323   18.4757 C   0  0  0  0  0  0  0  0  0  0  0  0
   48.8772    5.1358   20.9801 C   0  0  1  0  0  0  0  0  0  0  0  0
   47.4972    4.2788   17.9106 C   0  0  0  0  0  0  0  0  0  0  0  0
   49.8875    3.9722   18.0421 C   0  0  0  0  0  0  0  0  0  0  0  0
   48.4667    6.2062   21.9934 C   0  0  0  0  0  0  0  0  0  0  0  0
   47.4257    3.2916   16.9258 C   0  0  0  0  0  0  0  0  0  0  0  0
   49.8148    2.9847   17.0583 C   0  0  0  0  0  0  0  0  0  0  0  0
   48.5843    2.6457   16.4991 C   0  0  0  0  0  0  0  0  0  0  0  0
   49.0944    5.2864   17.9827 C   0  0  0  0  0  0  0  0  0  0  0  0
   49.9484    2.9371   17.8031 N   0  0  0  0  0  0  0  0  0  0  0  0
   49.0689    5.4077   19.4903 C   0  0  0  0  0  0  0  0  0  0  0  0
   48.8809    3.8656   17.4100 C   0  0  1  0  0  0  0  0  0  0  0  0
   50.2396    5.2165   20.2375 C   0  0  0  0  0  0  0  0  0  0  0  0
   47.8784    5.7132   20.1641 C   0  0  0  0  0  0  0  0  0  0  0  0
   47.5166    3.2767   17.7706 C   0  0  0  0  0  0  0  0  0  0  0  0
   47.8588    5.8176   21.5560 C   0  0  0  0  0  0  0  0  0  0  0  0
   50.2187    5.3212   21.6289 C   0  0  0  0  0  0  0  0  0  0  0  0
   49.0281    5.6207   22.2879 C   0  0  0  0  0  0  0  0  0  0  0  0
   47.9707    4.5009   20.6265 C   0  0  0  0  0  0  0  0  0  0  0  0
   50.3485    4.7039   21.4072 N   0  0  0  0  0  0  0  0  0  0  0  0
   48.1000    4.0720   19.1823 C   0  0  0  0  0  0  0  0  0  0  0  0
   49.0857    5.4177   21.1830 C   0  0  1  0  0  0  0  0  0  0  0  0
   49.0716    3.1412   18.7924 C   0  0  0  0  0  0  0  0  0  0  0  0
   47.2386    4.5960   18.2071 C   0  0  0  0  0  0  0  0  0  0  0  0
   49.3347    6.6492   20.3133 C   0  0  0  0  0  0  0  0  0  0  0  0
   49.1826    2.7454   17.4582 C   0  0  0  0  0  0  0  0  0  0  0  0
   47.3498    4.1990   16.8732 C   0  0  0  0  0  0  0  0  0  0  0  0
   48.3217    3.2737   16.4988 C   0  0  0  0  0  0  0  0  0  0  0  0
   47.9226    6.3450   19.4466 H   0  0  0  0  0  0  0  0  0  0  0  0
   49.6629    6.3568   19.3405 H   0  0  0  0  0  0  0  0  0  0  0  0
   50.2336    4.2887   22.2612 H   0  0  0  0  0  0  0  0  0  0  0  0
   50.8789    5.4489   21.3145 H   0  0  0  0  0  0  0  0  0  0  0  0
   48.1866    4.2891   21.0762 H   0  0  0  0  0  0  0  0  0  0  0  0
   46.5827    4.7704   18.2336 H   0  0  0  0  0  0  0  0  0  0  0  0
   50.8525    4.2185   18.4798 H   0  0  0  0  0  0  0  0  0  0  0  0
   49.1218    7.0830   21.9397 H   0  0  0  0  0  0  0  0  0  0  0  0
   48.5047    5.8160   23.0166 H   0  0  0  0  0  0  0  0  0  0  0  0
   47.4403    6.5406   21.8075 H   0  0  0  0  0  0  0  0  0  0  0  0
   46.4652    3.0254   16.4931 H   0  0  0  0  0  0  0  0  0  0  0  0
   50.7191    2.4773   16.7336 H   0  0  0  0  0  0  0  0  0  0  0  0
   48.5285    1.8757   15.7346 H   0  0  0  0  0  0  0  0  0  0  0  0
   48.3327    5.9575   17.5628 H   0  0  0  0  0  0  0  0  0  0  0  0
   50.0519    5.6824   17.6173 H   0  0  0  0  0  0  0  0  0  0  0  0
   49.7500    2.0112   17.4256 H   0  0  0  0  0  0  0  0  0  0  0  0
   49.9314    2.8281   18.8188 H   0  0  0  0  0  0  0  0  0  0  0  0
   48.9228    3.9540   16.3173 H   0  0  0  0  0  0  0  0  0  0  0  0
   51.1762    4.9839   19.7341 H   0  0  0  0  0  0  0  0  0  0  0  0
   46.9573    5.8723   19.6083 H   0  0  0  0  0  0  0  0  0  0  0  0
   47.4292    3.0660   18.8418 H   0  0  0  0  0  0  0  0  0  0  0  0
   47.3473    2.3355   17.2353 H   0  0  0  0  0  0  0  0  0  0  0  0
   46.7114    3.9641   17.4904 H   0  0  0  0  0  0  0  0  0  0  0  0
   46.9307    6.0547   22.0693 H   0  0  0  0  0  0  0  0  0  0  0  0
   51.1326    5.1710   22.1975 H   0  0  0  0  0  0  0  0  0  0  0  0
   49.0125    5.7038   23.3713 H   0  0  0  0  0  0  0  0  0  0  0  0
   47.8875    3.5991   21.2486 H   0  0  0  0  0  0  0  0  0  0  0  0
   47.0112    5.0203   20.7551 H   0  0  0  0  0  0  0  0  0  0  0  0
   51.0346    5.3386   21.8133 H   0  0  0  0  0  0  0  0  0  0  0  0
   50.2043    3.9575   22.0853 H   0  0  0  0  0  0  0  0  0  0  0  0
   48.7465    5.7702   22.1655 H   0  0  0  0  0  0  0  0  0  0  0  0
   49.7561    2.7245   19.5277 H   0  0  0  0  0  0  0  0  0  0  0  0
   46.4747    5.3204   18.4793 H   0  0  0  0  0  0  0  0  0  0  0  0
   48.4011    7.1944   20.1381 H   0  0  0  0  0  0  0  0  0  0  0  0
   50.0309    7.3379   20.8053 H   0  0  0  0  0  0  0  0  0  0  0  0
   49.7637    6.3856   19.3405 H   0  0  0  0  0  0  0  0  0  0  0  0
   49.9448    2.0268   17.1693 H   0  0  0  0  0  0  0  0  0  0  0  0
   46.6781    4.6130   16.1261 H   0  0  0  0  0  0  0  0  0  0  0  0
   48.4099    2.9661   15.4606 H   0  0  0  0  0  0  0  0  0  0  0  0
  4  2  1  0
  3  1  1  0
  4  1  1  0
  5  3  2  0
  6  3  1  0
  4  7  1  0
  8  5  1  0
  9  6  2  0
 10  8  2  0
  9 10  1  0
 12 14  1  0
 13 11  1  0
 14 11  1  0
 15 13  2  0
 16 13  1  0
 17 14  1  0
 18 16  2  0
 19 15  1  0
 20 18  1  0
 19 20  2  0
 24 22  1  0
 23 21  1  0
 24 21  1  0
 25 23  2  0
 26 23  1  0
 24 27  1  0
 28 25  1  0
 29 26  2  0
 30 28  2  0
 29 30  1  0
  1 31  1  0
  1 32  1  0
  2 33  1  0
  2 34  1  0
  4 35  1  1
  5 36  1  0
  6 37  1  0
  7 38  1  0
  7 39  1  0
  7 40  1  0
  8 41  1  0
  9 42  1  0
 10 43  1  0
 11 44  1  0
 11 45  1  0
 12 46  1  0
 12 47  1  0
 14 48  1  6
 15 49  1  0
 16 50  1  0
 17 51  1  0
 17 52  1  0
 17 53  1  0
 18 54  1  0
 19 55  1  0
 20 56  1  0
 21 57  1  0
 21 58  1  0
 22 59  1  0
 22 60  1  0
 24 61  1  1
 25 62  1  0
 26 63  1  0
 27 64  1  0
 27 65  1  0
 27 66  1  0
 28 67  1  0
 29 68  1  0
 30 69  1  0
M  END
> <Uni-Dock RESULT> 
ENERGY=   -6.719  LOWER_BOUND=    8.235  UPPER_BOUND=   10.781
INTER + INTRA:          -6.719
INTER:                  -6.719
INTRA:                   0.000
UNBOUND:                 0.000

$$$$

     RDKit          3D

 69 69  0  0  0  0  0  0  0  0999 V2000
   49.0515    4.9427   18.3892 C   0  0  0  0  0  0  0  0  0  0  0  0
   46.9098    3.8414   17.7353 N   0  0  0  0  0  0  0  0  0  0  0  0
   48.8057    5.3855   19.8140 C   0  0  0  0  0  0  0  0  0  0  0  0
   48.3359    3.6254   18.0172 C   0  0  1  0  0  0  0  0  0  0  0  0
   49.7521    5.1202   20.8138 C   0  0  0  0  0  0  0  0  0  0  0  0
   47.6258    6.0564   20.1602 C   0  0  0  0  0  0  0  0  0  0  0  0
   48.9893    2.9938   16.7862 C   0  0  0  0  0  0  0  0  0  0  0  0
   49.5253    5.5263   22.1302 C   0  0  0  0  0  0  0  0  0  0  0  0
   47.3996    6.4611   21.4768 C   0  0  0  0  0  0  0  0  0  0  0  0
   48.3499    6.1976   22.4612 C   0  0  0  0  0  0  0  0  0  0  0  0
   48.9847    6.1873   19.4560 C   0  0  0  0  0  0  0  0  0  0  0  0
   47.0815    5.9112   21.0630 N   0  0  0  0  0  0  0  0  0  0  0  0
   48.6963    5.0087   18.5526 C   0  0  0  0  0  0  0  0  0  0  0  0
   48.5381    6.0413   20.9295 C   0  0  1  0  0  0  0  0  0  0  0  0
   47.4636    4.9051   17.8930 C   0  0  0  0  0  0  0  0  0  0  0  0
   49.6539    4.0035   18.3593 C   0  0  0  0  0  0  0  0  0  0  0  0
   49.2344    4.8873   21.6516 C   0  0  0  0  0  0  0  0  0  0  0  0
   49.3804    2.9147   17.5297 C   0  0  0  0  0  0  0  0  0  0  0  0
   47.1914    3.8161   17.0639 C   0  0  0  0  0  0  0  0  0  0  0  0
   48.1494    2.8206   16.8833 C   0  0  0  0  0  0  0  0  0  0  0  0
   48.8153    3.2482   19.0060 C   0  0  0  0  0  0  0  0  0  0  0  0
   46.8111    3.8380   17.6133 N   0  0  0  0  0  0  0  0  0  0  0  0
   48.8394    4.3171   20.0753 C   0  0  0  0  0  0  0  0  0  0  0  0
   48.2683    3.6628   17.6195 C   0  0  1  0  0  0  0  0  0  0  0  0
   47.6532    4.7680   20.6688 C   0  0  0  0  0  0  0  0  0  0  0  0
   50.0572    4.8701   20.4979 C   0  0  0  0  0  0  0  0  0  0  0  0
   48.9426    4.9158   17.0626 C   0  0  0  0  0  0  0  0  0  0  0  0
   47.6825    5.7515   21.6592 C   0  0  0  0  0  0  0  0  0  0  0  0
   50.0857    5.8530   21.4890 C   0  0  0  0  0  0  0  0  0  0  0  0
   48.8984    6.2936   22.0696 C   0  0  0  0  0  0  0  0  0  0  0  0
   50.1345    4.8238   18.2495 H   0  0  0  0  0  0  0  0  0  0  0  0
   48.7624    5.7505   17.7032 H   0  0  0  0  0  0  0  0  0  0  0  0
   46.4695    2.9509   17.5070 H   0  0  0  0  0  0  0  0  0  0  0  0
   46.8049    4.4311   16.9111 H   0  0  0  0  0  0  0  0  0  0  0  0
   48.4160    2.9165   18.8503 H   0  0  0  0  0  0  0  0  0  0  0  0
   50.6735    4.5950   20.5740 H   0  0  0  0  0  0  0  0  0  0  0  0
   46.8703    6.2568   19.4036 H   0  0  0  0  0  0  0  0  0  0  0  0
   48.9435    3.6623   15.9191 H   0  0  0  0  0  0  0  0  0  0  0  0
   48.4959    2.0534   16.5166 H   0  0  0  0  0  0  0  0  0  0  0  0
   50.0430    2.7674   16.9818 H   0  0  0  0  0  0  0  0  0  0  0  0
   50.2654    5.3170   22.8978 H   0  0  0  0  0  0  0  0  0  0  0  0
   46.4784    6.9772   21.7331 H   0  0  0  0  0  0  0  0  0  0  0  0
   48.1721    6.5116   23.4860 H   0  0  0  0  0  0  0  0  0  0  0  0
   50.0632    6.3950   19.4299 H   0  0  0  0  0  0  0  0  0  0  0  0
   48.5145    7.0813   19.0234 H   0  0  0  0  0  0  0  0  0  0  0  0
   46.8394    5.7909   22.0458 H   0  0  0  0  0  0  0  0  0  0  0  0
   46.7850    5.0498   20.6005 H   0  0  0  0  0  0  0  0  0  0  0  0
   48.8226    6.9692   21.4411 H   0  0  0  0  0  0  0  0  0  0  0  0
   46.7078    5.6774   18.0247 H   0  0  0  0  0  0  0  0  0  0  0  0
   50.6204    4.0624   18.8542 H   0  0  0  0  0  0  0  0  0  0  0  0
   48.9265    3.9115   21.2610 H   0  0  0  0  0  0  0  0  0  0  0  0
   48.9997    4.9022   22.7220 H   0  0  0  0  0  0  0  0  0  0  0  0
   50.3221    4.9678   21.5521 H   0  0  0  0  0  0  0  0  0  0  0  0
   50.1293    2.1402   17.3863 H   0  0  0  0  0  0  0  0  0  0  0  0
   46.2323    3.7467   16.5577 H   0  0  0  0  0  0  0  0  0  0  0  0
   47.9379    1.9736   16.2363 H   0  0  0  0  0  0  0  0  0  0  0  0
   48.2452    2.3902   19.3879 H   0  0  0  0  0  0  0  0  0  0  0  0
   49.8362    2.8672   18.8659 H   0  0  0  0  0  0  0  0  0  0  0  0
   46.4965    4.0670   16.6715 H   0  0  0  0  0  0  0  0  0  0  0  0
   46.3594    2.9608   17.8665 H   0  0  0  0  0  0  0  0  0  0  0  0
   48.4872    2.8362   16.9314 H   0  0  0  0  0  0  0  0  0  0  0  0
   46.6952    4.3602   20.3548 H   0  0  0  0  0  0  0  0  0  0  0  0
   50.9944    4.5405   20.0557 H   0  0  0  0  0  0  0  0  0  0  0  0
   50.0317    4.7999   17.0589 H   0  0  0  0  0  0  0  0  0  0  0  0
   48.6276    5.0998   16.0292 H   0  0  0  0  0  0  0  0  0  0  0  0
   48.6964    5.8092   17.6465 H   0  0  0  0  0  0  0  0  0  0  0  0
   46.7540    6.0958   22.1065 H   0  0  0  0  0  0  0  0  0  0  0  0
   51.0349    6.2756   21.8071 H   0  0  0  0  0  0  0  0  0  0  0  0
   48.9199    7.0599   22.8394 H   0  0  0  0  0  0  0  0  0  0  0  0
  4  2  1  0
  3  1  1  0
  4  1  1  0
  5  3  2  0
  6  3  1  0
  4  7  1  0
  8  5  1  0
  9  6  2  0
 10  8  2  0
  9 10  1  0
 12 14  1  0
 13 11  1  0
 14 11  1  0
 15 13  2  0
 16 13  1  0
 17 14  1  0
 18 16  2  0
 19 15  1  0
 20 18  1  0
 19 20  2  0
 24 22  1  0
 23 21  1  0
 24 21  1  0
 25 23  2  0
 26 23  1  0
 24 27  1  0
 28 25  1  0
 29 26  2  0
 30 28  2  0
 29 30  1  0
  1 31  1  0
  1 32  1  0
  2 33  1  0
  2 34  1  0
  4 35  1  1
  5 36  1  0
  6 37  1  0
  7 38  1  0
  7 39  1  0
  7 40  1  0
  8 41  1  0
  9 42  1  0
 10 43  1  0
 11 44  1  0
 11 45  1  0
 12 46  1  0
 12 47  1  0
 14 48  1  6
 15 49  1  0
 16 50  1  0
 17 51  1  0
 17 52  1  0
 17 53  1  0
 18 54  1  0
 19 55  1  0
 20 56  1  0
 21 57  1  0
 21 58  1  0
 22 59  1  0
 22 60  1  0
 24 61  1  1
 25 62  1  0
 26 63  1  0
 27 64  1  0
 27 65  1  0
 27 66  1  0
 28 67  1  0
 29 68  1  0
 30 69  1  0
M  END
> <Uni-Dock RESULT> 
ENERGY=   -6.486  LOWER_BOUND=    8.309  UPPER_BOUND=   10.322
INTER + INTRA:          -6.486
INTER:                  -6.486
INTRA:                   0.000
UNBOUND:                 0.000

$$$$

     RDKit          3D

 69 69  0  0  0  0  0  0  0  0999 V2000
   44.6318    5.6003   12.8869 C   0  0  0  0  0  0  0  0  0  0  0  0
   45.2516    3.7133   11.3762 N   0  0  0  0  0  0  0  0  0  0  0  0
   45.7997    6.5532   12.7669 C   0  0  0  0  0  0  0  0  0  0  0  0
   44.3217    4.8324   11.5831 C   0  0  1  0  0  0  0  0  0  0  0  0
   45.5814    7.9210   12.5499 C   0  0  0  0  0  0  0  0  0  0  0  0
   47.1166    6.0845   12.8588 C   0  0  0  0  0  0  0  0  0  0  0  0
   42.8935    4.2843   11.6149 C   0  0  0  0  0  0  0  0  0  0  0  0
   46.6590    8.8015   12.4365 C   0  0  0  0  0  0  0  0  0  0  0  0
   48.1932    6.9655   12.7443 C   0  0  0  0  0  0  0  0  0  0  0  0
   47.9643    8.3239   12.5349 C   0  0  0  0  0  0  0  0  0  0  0  0
   45.8398    6.4063   13.6501 C   0  0  0  0  0  0  0  0  0  0  0  0
   47.9327    6.4330   12.2716 N   0  0  0  0  0  0  0  0  0  0  0  0
   44.9995    5.5022   12.7756 C   0  0  0  0  0  0  0  0  0  0  0  0
   46.9068    7.2576   12.9227 C   0  0  1  0  0  0  0  0  0  0  0  0
   45.4389    4.2079   12.4640 C   0  0  0  0  0  0  0  0  0  0  0  0
   43.7705    5.9411   12.2642 C   0  0  0  0  0  0  0  0  0  0  0  0
   46.3029    8.2345   11.9132 C   0  0  0  0  0  0  0  0  0  0  0  0
   43.0018    5.1051   11.4524 C   0  0  0  0  0  0  0  0  0  0  0  0
   44.6696    3.3732   11.6523 C   0  0  0  0  0  0  0  0  0  0  0  0
   43.4517    3.8224   11.1459 C   0  0  0  0  0  0  0  0  0  0  0  0
   44.3704    5.8929   11.1110 C   0  0  0  0  0  0  0  0  0  0  0  0
   45.2504    3.5563   11.3765 N   0  0  0  0  0  0  0  0  0  0  0  0
   45.4369    6.7551   11.7478 C   0  0  0  0  0  0  0  0  0  0  0  0
   44.1633    4.4831   11.7137 C   0  0  1  0  0  0  0  0  0  0  0  0
   46.7963    6.4690   11.5670 C   0  0  0  0  0  0  0  0  0  0  0  0
   45.0796    7.8658   12.5264 C   0  0  0  0  0  0  0  0  0  0  0  0
   43.9537    4.5062   13.2271 C   0  0  0  0  0  0  0  0  0  0  0  0
   47.7764    7.2719   12.1533 C   0  0  0  0  0  0  0  0  0  0  0  0
   46.0604    8.6688   13.1117 C   0  0  0  0  0  0  0  0  0  0  0  0
   47.4087    8.3718   12.9251 C   0  0  0  0  0  0  0  0  0  0  0  0
   43.7484    6.1779   13.1912 H   0  0  0  0  0  0  0  0  0  0  0  0
   44.8160    4.9030   13.7156 H   0  0  0  0  0  0  0  0  0  0  0  0
   45.0248    3.2397   10.5026 H   0  0  0  0  0  0  0  0  0  0  0  0
   45.1317    3.0219   12.1150 H   0  0  0  0  0  0  0  0  0  0  0  0
   44.4096    5.5124   10.7271 H   0  0  0  0  0  0  0  0  0  0  0  0
   44.5696    8.3106   12.4677 H   0  0  0  0  0  0  0  0  0  0  0  0
   47.3090    5.0244   13.0093 H   0  0  0  0  0  0  0  0  0  0  0  0
   42.7445    3.5989   12.4568 H   0  0  0  0  0  0  0  0  0  0  0  0
   42.6578    3.7440   10.6912 H   0  0  0  0  0  0  0  0  0  0  0  0
   42.1690    5.1000   11.7121 H   0  0  0  0  0  0  0  0  0  0  0  0
   46.4795    9.8601   12.2694 H   0  0  0  0  0  0  0  0  0  0  0  0
   49.2100    6.5886   12.8134 H   0  0  0  0  0  0  0  0  0  0  0  0
   48.8031    9.0086   12.4441 H   0  0  0  0  0  0  0  0  0  0  0  0
   45.1716    7.0752   14.2094 H   0  0  0  0  0  0  0  0  0  0  0  0
   46.3305    5.7915   14.4172 H   0  0  0  0  0  0  0  0  0  0  0  0
   48.5953    7.0358   11.7850 H   0  0  0  0  0  0  0  0  0  0  0  0
   47.4885    5.8704   11.5436 H   0  0  0  0  0  0  0  0  0  0  0  0
   47.4170    7.8518   13.6910 H   0  0  0  0  0  0  0  0  0  0  0  0
   46.3877    3.8449   12.8551 H   0  0  0  0  0  0  0  0  0  0  0  0
   43.4033    6.9382   12.4954 H   0  0  0  0  0  0  0  0  0  0  0  0
   45.8549    7.7179   11.0577 H   0  0  0  0  0  0  0  0  0  0  0  0
   47.0707    8.9122   11.5231 H   0  0  0  0  0  0  0  0  0  0  0  0
   45.5293    8.8500   12.3846 H   0  0  0  0  0  0  0  0  0  0  0  0
   42.0502    5.4546   11.0606 H   0  0  0  0  0  0  0  0  0  0  0  0
   45.0205    2.3718   11.4177 H   0  0  0  0  0  0  0  0  0  0  0  0
   42.8520    3.1716   10.5153 H   0  0  0  0  0  0  0  0  0  0  0  0
   44.5894    5.8087   10.0378 H   0  0  0  0  0  0  0  0  0  0  0  0
   43.4108    6.4255   11.1610 H   0  0  0  0  0  0  0  0  0  0  0  0
   45.0463    2.6338   11.7583 H   0  0  0  0  0  0  0  0  0  0  0  0
   45.3066    3.4476   10.3652 H   0  0  0  0  0  0  0  0  0  0  0  0
   43.2513    4.0744   11.2600 H   0  0  0  0  0  0  0  0  0  0  0  0
   47.1001    5.6100   10.9732 H   0  0  0  0  0  0  0  0  0  0  0  0
   44.0326    8.1130   12.6850 H   0  0  0  0  0  0  0  0  0  0  0  0
   43.1435    5.1928   13.4950 H   0  0  0  0  0  0  0  0  0  0  0  0
   43.6784    3.5119   13.5964 H   0  0  0  0  0  0  0  0  0  0  0  0
   44.8568    4.8185   13.7625 H   0  0  0  0  0  0  0  0  0  0  0  0
   48.8269    7.0344   12.0092 H   0  0  0  0  0  0  0  0  0  0  0  0
   45.7717    9.5256   13.7144 H   0  0  0  0  0  0  0  0  0  0  0  0
   48.1722    8.9951   13.3821 H   0  0  0  0  0  0  0  0  0  0  0  0
  4  2  1  0
  3  1  1  0
  4  1  1  0
  5  3  2  0
  6  3  1  0
  4  7  1  0
  8  5  1  0
  9  6  2  0
 10  8  2  0
  9 10  1  0
 12 14  1  0
 13 11  1  0
 14 11  1  0
 15 13  2  0
 16 13  1  0
 17 14  1  0
 18 16  2  0
 19 15  1  0
 20 18  1  0
 19 20  2  0
 24 22  1  0
 23 21  1  0
 24 21  1  0
 25 23  2  0
 26 23  1  0
 24 27  1  0
 28 25  1  0
 29 26  2  0
 30 28  2  0
 29 30  1  0
  1 31  1  0
  1 32  1  0
  2 33  1  0
  2 34  1  0
  4 35  1  1
  5 36  1  0
  6 37  1  0
  7 38  1  0
  7 39  1  0
  7 40  1  0
  8 41  1  0
  9 42  1  0
 10 43  1  0
 11 44  1  0
 11 45  1  0
 12 46  1  0
 12 47  1  0
 14 48  1  6
 15 49  1  0
 16 50  1  0
 17 51  1  0
 17 52  1  0
 17 53  1  0
 18 54  1  0
 19 55  1  0
 20 56  1  0
 21 57  1  0
 21 58  1  0
 22 59  1  0
 22 60  1  0
 24 61  1  1
 25 62  1  0
 26 63  1  0
 27 64  1  0
 27 65  1  0
 27 66  1  0
 28 67  1  0
 29 68  1  0
 30 69  1  0
M  END
> <Uni-Dock RESULT> 
ENERGY=   -6.390  LOWER_BOUND=    2.519  UPPER_BOUND=    4.352
INTER + INTRA:          -6.390
INTER:                  -6.390
INTRA:                   0.000
UNBOUND:                 0.000

$$$$

     RDKit          3D

 69 69  0  0  0  0  0  0  0  0999 V2000
   48.3636    6.4541   18.4453 C   0  0  0  0  0  0  0  0  0  0  0  0
   49.9139    6.5717   20.3972 N   0  0  0  0  0  0  0  0  0  0  0  0
   48.5542    5.0486   17.9212 C   0  0  0  0  0  0  0  0  0  0  0  0
   48.5049    6.5682   19.9792 C   0  0  1  0  0  0  0  0  0  0  0  0
   47.4447    4.2434   17.6272 C   0  0  0  0  0  0  0  0  0  0  0  0
   49.8395    4.5248   17.7320 C   0  0  0  0  0  0  0  0  0  0  0  0
   47.8409    7.8521   20.4810 C   0  0  0  0  0  0  0  0  0  0  0  0
   47.6194    2.9446   17.1455 C   0  0  0  0  0  0  0  0  0  0  0  0
   50.0129    3.2259   17.2513 C   0  0  0  0  0  0  0  0  0  0  0  0
   48.9031    2.4366   16.9565 C   0  0  0  0  0  0  0  0  0  0  0  0
   48.7860    5.4977   17.1811 C   0  0  0  0  0  0  0  0  0  0  0  0
   50.1284    3.5219   17.9396 N   0  0  0  0  0  0  0  0  0  0  0  0
   48.6842    6.2279   18.5020 C   0  0  0  0  0  0  0  0  0  0  0  0
   48.9009    3.9574   17.2615 C   0  0  1  0  0  0  0  0  0  0  0  0
   49.8428    6.6140   19.1905 C   0  0  0  0  0  0  0  0  0  0  0  0
   47.4339    6.5310   19.0581 C   0  0  0  0  0  0  0  0  0  0  0  0
   47.6828    3.3023   17.9136 C   0  0  0  0  0  0  0  0  0  0  0  0
   47.3454    7.1993   20.2805 C   0  0  0  0  0  0  0  0  0  0  0  0
   49.7530    7.2820   20.4124 C   0  0  0  0  0  0  0  0  0  0  0  0
   48.5044    7.5737   20.9576 C   0  0  0  0  0  0  0  0  0  0  0  0
   47.7677    5.6702   19.9745 C   0  0  0  0  0  0  0  0  0  0  0  0
   50.0193    6.6705   20.4587 N   0  0  0  0  0  0  0  0  0  0  0  0
   48.0345    4.7159   18.8323 C   0  0  0  0  0  0  0  0  0  0  0  0
   48.6413    6.9457   20.0344 C   0  0  1  0  0  0  0  0  0  0  0  0
   49.1953    3.9321   18.8058 C   0  0  0  0  0  0  0  0  0  0  0  0
   47.1144    4.5937   17.7806 C   0  0  0  0  0  0  0  0  0  0  0  0
   48.6504    7.7248   18.7200 C   0  0  0  0  0  0  0  0  0  0  0  0
   49.4334    3.0491   17.7510 C   0  0  0  0  0  0  0  0  0  0  0  0
   47.3529    3.7097   16.7266 C   0  0  0  0  0  0  0  0  0  0  0  0
   48.5123    2.9375   16.7119 C   0  0  0  0  0  0  0  0  0  0  0  0
   47.3661    6.8003   18.1423 H   0  0  0  0  0  0  0  0  0  0  0  0
   49.0662    7.1291   17.9378 H   0  0  0  0  0  0  0  0  0  0  0  0
   49.9671    6.6350   21.4131 H   0  0  0  0  0  0  0  0  0  0  0  0
   50.3808    7.4016   20.0348 H   0  0  0  0  0  0  0  0  0  0  0  0
   48.0086    5.7152   20.4578 H   0  0  0  0  0  0  0  0  0  0  0  0
   46.4359    4.6224   17.7714 H   0  0  0  0  0  0  0  0  0  0  0  0
   50.7141    5.1262   17.9705 H   0  0  0  0  0  0  0  0  0  0  0  0
   48.2948    8.7421   20.0306 H   0  0  0  0  0  0  0  0  0  0  0  0
   47.9270    7.9411   21.5697 H   0  0  0  0  0  0  0  0  0  0  0  0
   46.7737    7.8567   20.2345 H   0  0  0  0  0  0  0  0  0  0  0  0
   46.7532    2.3286   16.9195 H   0  0  0  0  0  0  0  0  0  0  0  0
   51.0153    2.8300   17.1127 H   0  0  0  0  0  0  0  0  0  0  0  0
   49.0392    1.4251   16.5840 H   0  0  0  0  0  0  0  0  0  0  0  0
   47.9130    5.7579   16.5670 H   0  0  0  0  0  0  0  0  0  0  0  0
   49.6485    5.8953   16.6285 H   0  0  0  0  0  0  0  0  0  0  0  0
   50.1455    2.5041   17.9917 H   0  0  0  0  0  0  0  0  0  0  0  0
   50.1008    3.8453   18.9084 H   0  0  0  0  0  0  0  0  0  0  0  0
   48.9598    3.5890   16.2298 H   0  0  0  0  0  0  0  0  0  0  0  0
   50.8240    6.3935   18.7739 H   0  0  0  0  0  0  0  0  0  0  0  0
   46.5194    6.2483   18.5420 H   0  0  0  0  0  0  0  0  0  0  0  0
   47.6063    3.5441   18.9791 H   0  0  0  0  0  0  0  0  0  0  0  0
   47.7370    2.2112   17.8269 H   0  0  0  0  0  0  0  0  0  0  0  0
   46.7591    3.6261   17.4223 H   0  0  0  0  0  0  0  0  0  0  0  0
   46.3712    7.4297   20.7036 H   0  0  0  0  0  0  0  0  0  0  0  0
   50.6582    7.5765   20.9369 H   0  0  0  0  0  0  0  0  0  0  0  0
   48.4347    8.0954   21.9083 H   0  0  0  0  0  0  0  0  0  0  0  0
   47.8584    5.1142   20.9177 H   0  0  0  0  0  0  0  0  0  0  0  0
   46.7155    5.9836   19.9331 H   0  0  0  0  0  0  0  0  0  0  0  0
   50.5396    7.5442   20.5243 H   0  0  0  0  0  0  0  0  0  0  0  0
   50.0153    6.2626   21.3921 H   0  0  0  0  0  0  0  0  0  0  0  0
   48.2016    7.5963   20.8012 H   0  0  0  0  0  0  0  0  0  0  0  0
   49.9278    4.0124   19.6056 H   0  0  0  0  0  0  0  0  0  0  0  0
   46.2045    5.1890   17.7733 H   0  0  0  0  0  0  0  0  0  0  0  0
   47.6282    7.9397   18.3906 H   0  0  0  0  0  0  0  0  0  0  0  0
   49.1660    8.6843   18.8407 H   0  0  0  0  0  0  0  0  0  0  0  0
   49.1585    7.1756   17.9200 H   0  0  0  0  0  0  0  0  0  0  0  0
   50.3410    2.4517   17.7408 H   0  0  0  0  0  0  0  0  0  0  0  0
   46.6339    3.6248   15.9164 H   0  0  0  0  0  0  0  0  0  0  0  0
   48.6993    2.2510   15.8909 H   0  0  0  0  0  0  0  0  0  0  0  0
  4  2  1  0
  3  1  1  0
  4  1  1  0
  5  3  2  0
  6  3  1  0
  4  7  1  0
  8  5  1  0
  9  6  2  0
 10  8  2  0
  9 10  1  0
 12 14  1  0
 13 11  1  0
 14 11  1  0
 15 13  2  0
 16 13  1  0
 17 14  1  0
 18 16  2  0
 19 15  1  0
 20 18  1  0
 19 20  2  0
 24 22  1  0
 23 21  1  0
 24 21  1  0
 25 23  2  0
 26 23  1  0
 24 27  1  0
 28 25  1  0
 29 26  2  0
 30 28  2  0
 29 30  1  0
  1 31  1  0
  1 32  1  0
  2 33  1  0
  2 34  1  0
  4 35  1  1
  5 36  1  0
  6 37  1  0
  7 38  1  0
  7 39  1  0
  7 40  1  0
  8 41  1  0
  9 42  1  0
 10 43  1  0
 11 44  1  0
 11 45  1  0
 12 46  1  0
 12 47  1  0
 14 48  1  6
 15 49  1  0
 16 50  1  0
 17 51  1  0
 17 52  1  0
 17 53  1  0
 18 54  1  0
 19 55  1  0
 20 56  1  0
 21 57  1  0
 21 58  1  0
 22 59  1  0
 22 60  1  0
 24 61  1  1
 25 62  1  0
 26 63  1  0
 27 64  1  0
 27 65  1  0
 27 66  1  0
 28 67  1  0
 29 68  1  0
 30 69  1  0
M  END
> <Uni-Dock RESULT> 
ENERGY=   -6.277  LOWER_BOUND=    7.770  UPPER_BOUND=   10.292
INTER + INTRA:          -6.277
INTER:                  -6.277
INTRA:                   0.000
UNBOUND:                 0.000

$$$$

     RDKit          3D

 69 69  0  0  0  0  0  0  0  0999 V2000
   49.1098    4.5009   18.5275 C   0  0  0  0  0  0  0  0  0  0  0  0
   47.7797    5.3233   16.5828 N   0  0  0  0  0  0  0  0  0  0  0  0
   48.7067    5.4262   19.6536 C   0  0  0  0  0  0  0  0  0  0  0  0
   47.9708    4.2117   17.5251 C   0  0  1  0  0  0  0  0  0  0  0  0
   48.3501    4.9075   20.9063 C   0  0  0  0  0  0  0  0  0  0  0  0
   48.6719    6.8132   19.4608 C   0  0  0  0  0  0  0  0  0  0  0  0
   48.2721    2.9400   16.7293 C   0  0  0  0  0  0  0  0  0  0  0  0
   47.9755    5.7607   21.9461 C   0  0  0  0  0  0  0  0  0  0  0  0
   48.2963    7.6652   20.5007 C   0  0  0  0  0  0  0  0  0  0  0  0
   47.9498    7.1391   21.7436 C   0  0  0  0  0  0  0  0  0  0  0  0
   49.5870    5.5945   19.6536 C   0  0  0  0  0  0  0  0  0  0  0  0
   47.9365    7.4688   19.8629 N   0  0  0  0  0  0  0  0  0  0  0  0
   48.9614    4.8661   18.4846 C   0  0  0  0  0  0  0  0  0  0  0  0
   48.6147    6.3745   20.5692 C   0  0  1  0  0  0  0  0  0  0  0  0
   48.7585    5.5252   17.2641 C   0  0  0  0  0  0  0  0  0  0  0  0
   48.5757    3.5236   18.6010 C   0  0  0  0  0  0  0  0  0  0  0  0
   47.5838    5.4728   21.2491 C   0  0  0  0  0  0  0  0  0  0  0  0
   47.9929    2.8578   17.5213 C   0  0  0  0  0  0  0  0  0  0  0  0
   48.1758    4.8586   16.1855 C   0  0  0  0  0  0  0  0  0  0  0  0
   47.7922    3.5253   16.3146 C   0  0  0  0  0  0  0  0  0  0  0  0
   47.3654    3.9873   18.4910 C   0  0  0  0  0  0  0  0  0  0  0  0
   47.8002    5.3545   16.4303 N   0  0  0  0  0  0  0  0  0  0  0  0
   47.7313    4.9177   19.6256 C   0  0  0  0  0  0  0  0  0  0  0  0
   48.1657    4.1445   17.1763 C   0  0  1  0  0  0  0  0  0  0  0  0
   47.3995    6.2778   19.5763 C   0  0  0  0  0  0  0  0  0  0  0  0
   48.4044    4.4285   20.7548 C   0  0  0  0  0  0  0  0  0  0  0  0
   49.6782    4.1056   17.3904 C   0  0  0  0  0  0  0  0  0  0  0  0
   47.7355    7.1306   20.6293 C   0  0  0  0  0  0  0  0  0  0  0  0
   48.7393    5.2819   21.8078 C   0  0  0  0  0  0  0  0  0  0  0  0
   48.4048    6.6328   21.7450 C   0  0  0  0  0  0  0  0  0  0  0  0
   49.4589    3.5572   18.9681 H   0  0  0  0  0  0  0  0  0  0  0  0
   49.9863    4.9167   18.0123 H   0  0  0  0  0  0  0  0  0  0  0  0
   47.0140    5.1025   15.9473 H   0  0  0  0  0  0  0  0  0  0  0  0
   48.6100    5.4321   16.0023 H   0  0  0  0  0  0  0  0  0  0  0  0
   47.0314    4.0609   18.0707 H   0  0  0  0  0  0  0  0  0  0  0  0
   48.3617    3.8344   21.0813 H   0  0  0  0  0  0  0  0  0  0  0  0
   48.9278    7.2358   18.4916 H   0  0  0  0  0  0  0  0  0  0  0  0
   49.2070    3.0310   16.1649 H   0  0  0  0  0  0  0  0  0  0  0  0
   47.4671    2.7188   16.0197 H   0  0  0  0  0  0  0  0  0  0  0  0
   48.3654    2.0784   17.3991 H   0  0  0  0  0  0  0  0  0  0  0  0
   47.7018    5.3491   22.9138 H   0  0  0  0  0  0  0  0  0  0  0  0
   48.2695    8.7390   20.3371 H   0  0  0  0  0  0  0  0  0  0  0  0
   47.6559    7.8029   22.5519 H   0  0  0  0  0  0  0  0  0  0  0  0
   50.1447    4.8696   20.2621 H   0  0  0  0  0  0  0  0  0  0  0  0
   50.3497    6.2843   19.2666 H   0  0  0  0  0  0  0  0  0  0  0  0
   47.2890    7.9340   20.4981 H   0  0  0  0  0  0  0  0  0  0  0  0
   47.3556    7.0715   19.1223 H   0  0  0  0  0  0  0  0  0  0  0  0
   49.2219    6.8340   21.3590 H   0  0  0  0  0  0  0  0  0  0  0  0
   49.0557    6.5662   17.1503 H   0  0  0  0  0  0  0  0  0  0  0  0
   48.7273    2.9869   19.5345 H   0  0  0  0  0  0  0  0  0  0  0  0
   46.8724    5.0480   20.5330 H   0  0  0  0  0  0  0  0  0  0  0  0
   47.0068    6.0356   21.9916 H   0  0  0  0  0  0  0  0  0  0  0  0
   48.0768    4.6467   21.7726 H   0  0  0  0  0  0  0  0  0  0  0  0
   47.6971    1.8168   17.6213 H   0  0  0  0  0  0  0  0  0  0  0  0
   48.0237    5.3800   15.2442 H   0  0  0  0  0  0  0  0  0  0  0  0
   47.3400    3.0059   15.4741 H   0  0  0  0  0  0  0  0  0  0  0  0
   46.2916    4.0973   18.2866 H   0  0  0  0  0  0  0  0  0  0  0  0
   47.4812    2.9503   18.8347 H   0  0  0  0  0  0  0  0  0  0  0  0
   48.3212    5.3892   15.5553 H   0  0  0  0  0  0  0  0  0  0  0  0
   46.8132    5.3182   16.1810 H   0  0  0  0  0  0  0  0  0  0  0  0
   47.9002    3.2914   16.5388 H   0  0  0  0  0  0  0  0  0  0  0  0
   46.8832    6.6837   18.7094 H   0  0  0  0  0  0  0  0  0  0  0  0
   48.6755    3.3775   20.8217 H   0  0  0  0  0  0  0  0  0  0  0  0
   49.9675    3.2065   17.9449 H   0  0  0  0  0  0  0  0  0  0  0  0
   50.2060    4.0845   16.4303 H   0  0  0  0  0  0  0  0  0  0  0  0
   50.0375    4.9791   17.9452 H   0  0  0  0  0  0  0  0  0  0  0  0
   47.4768    8.1845   20.5747 H   0  0  0  0  0  0  0  0  0  0  0  0
   49.2625    4.8920   22.6768 H   0  0  0  0  0  0  0  0  0  0  0  0
   48.6671    7.2976   22.5633 H   0  0  0  0  0  0  0  0  0  0  0  0
  4  2  1  0
  3  1  1  0
  4  1  1  0
  5  3  2  0
  6  3  1  0
  4  7  1  0
  8  5  1  0
  9  6  2  0
 10  8  2  0
  9 10  1  0
 12 14  1  0
 13 11  1  0
 14 11  1  0
 15 13  2  0
 16 13  1  0
 17 14  1  0
 18 16  2  0
 19 15  1  0
 20 18  1  0
 19 20  2  0
 24 22  1  0
 23 21  1  0
 24 21  1  0
 25 23  2  0
 26 23  1  0
 24 27  1  0
 28 25  1  0
 29 26  2  0
 30 28  2  0
 29 30  1  0
  1 31  1  0
  1 32  1  0
  2 33  1  0
  2 34  1  0
  4 35  1  1
  5 36  1  0
  6 37  1  0
  7 38  1  0
  7 39  1  0
  7 40  1  0
  8 41  1  0
  9 42  1  0
 10 43  1  0
 11 44  1  0
 11 45  1  0
 12 46  1  0
 12 47  1  0
 14 48  1  6
 15 49  1  0
 16 50  1  0
 17 51  1  0
 17 52  1  0
 17 53  1  0
 18 54  1  0
 19 55  1  0
 20 56  1  0
 21 57  1  0
 21 58  1  0
 22 59  1  0
 22 60  1  0
 24 61  1  1
 25 62  1  0
 26 63  1  0
 27 64  1  0
 27 65  1  0
 27 66  1  0
 28 67  1  0
 29 68  1  0
 30 69  1  0
M  END
> <Uni-Dock RESULT> 
ENERGY=   -6.173  LOWER_BOUND=    7.922  UPPER_BOUND=   10.010
INTER + INTRA:          -6.173
INTER:                  -6.173
INTRA:                   0.000
UNBOUND:                 0.000

$$$$
