
     RDKit          3D

 69 69  0  0  0  0  0  0  0  0999 V2000
   44.9162    4.6194    8.9067 C   0  0  0  0  0  0  0  0  0  0  0  0
   44.6560    3.0164    7.0372 N   0  0  0  0  0  0  0  0  0  0  0  0
   44.6478    4.9285   10.3609 C   0  0  0  0  0  0  0  0  0  0  0  0
   44.5360    3.1813    8.4933 C   0  0  1  0  0  0  0  0  0  0  0  0
   43.3340    5.0915   10.8222 C   0  0  0  0  0  0  0  0  0  0  0  0
   45.7067    5.0530   11.2704 C   0  0  0  0  0  0  0  0  0  0  0  0
   45.4192    2.1306    9.1670 C   0  0  0  0  0  0  0  0  0  0  0  0
   43.0854    5.3710   12.1668 C   0  0  0  0  0  0  0  0  0  0  0  0
   45.4558    5.3325   12.6148 C   0  0  0  0  0  0  0  0  0  0  0  0
   44.1459    5.4911   13.0626 C   0  0  0  0  0  0  0  0  0  0  0  0
   44.3589    4.3029    8.9623 C   0  0  0  0  0  0  0  0  0  0  0  0
   45.6960    2.2290    9.4029 N   0  0  0  0  0  0  0  0  0  0  0  0
   44.1817    4.7046   10.4092 C   0  0  0  0  0  0  0  0  0  0  0  0
   45.6572    3.5117    8.6884 C   0  0  1  0  0  0  0  0  0  0  0  0
   44.9915    5.6985   10.9760 C   0  0  0  0  0  0  0  0  0  0  0  0
   43.2100    4.0843   11.2065 C   0  0  0  0  0  0  0  0  0  0  0  0
   45.8045    3.2364    7.1926 C   0  0  0  0  0  0  0  0  0  0  0  0
   43.0545    4.4491   12.5447 C   0  0  0  0  0  0  0  0  0  0  0  0
   44.8342    6.0617   12.3144 C   0  0  0  0  0  0  0  0  0  0  0  0
   43.8666    5.4369   13.0984 C   0  0  0  0  0  0  0  0  0  0  0  0
   44.5657    2.7748    9.7479 C   0  0  0  0  0  0  0  0  0  0  0  0
   44.0546    3.9211    7.5732 N   0  0  0  0  0  0  0  0  0  0  0  0
   44.3798    3.8625   10.7818 C   0  0  0  0  0  0  0  0  0  0  0  0
   45.0771    3.2172    8.3563 C   0  0  1  0  0  0  0  0  0  0  0  0
   43.3277    4.7815   10.6782 C   0  0  0  0  0  0  0  0  0  0  0  0
   45.2578    3.9628   11.8712 C   0  0  0  0  0  0  0  0  0  0  0  0
   46.3470    4.0638    8.4292 C   0  0  0  0  0  0  0  0  0  0  0  0
   43.1581    5.7802   11.6389 C   0  0  0  0  0  0  0  0  0  0  0  0
   45.0871    4.9615   12.8320 C   0  0  0  0  0  0  0  0  0  0  0  0
   44.0373    5.8699   12.7157 C   0  0  0  0  0  0  0  0  0  0  0  0
   45.9727    4.8100    8.6746 H   0  0  0  0  0  0  0  0  0  0  0  0
   44.3481    5.3421    8.3045 H   0  0  0  0  0  0  0  0  0  0  0  0
   45.6180    3.1908    6.7478 H   0  0  0  0  0  0  0  0  0  0  0  0
   44.0851    3.7163    6.5646 H   0  0  0  0  0  0  0  0  0  0  0  0
   43.4927    2.9801    8.7631 H   0  0  0  0  0  0  0  0  0  0  0  0
   42.4950    5.0024   10.1356 H   0  0  0  0  0  0  0  0  0  0  0  0
   46.7353    4.9296   10.9392 H   0  0  0  0  0  0  0  0  0  0  0  0
   46.4806    2.2993    8.9526 H   0  0  0  0  0  0  0  0  0  0  0  0
   45.1616    1.1229    8.8212 H   0  0  0  0  0  0  0  0  0  0  0  0
   45.2873    2.1411   10.2538 H   0  0  0  0  0  0  0  0  0  0  0  0
   42.0634    5.4952   12.5153 H   0  0  0  0  0  0  0  0  0  0  0  0
   46.2833    5.4257   13.3132 H   0  0  0  0  0  0  0  0  0  0  0  0
   43.9516    5.7083   14.1095 H   0  0  0  0  0  0  0  0  0  0  0  0
   44.3486    5.2171    8.3540 H   0  0  0  0  0  0  0  0  0  0  0  0
   43.4893    3.7192    8.6315 H   0  0  0  0  0  0  0  0  0  0  0  0
   45.6249    2.4128   10.4058 H   0  0  0  0  0  0  0  0  0  0  0  0
   44.8701    1.6802    9.1681 H   0  0  0  0  0  0  0  0  0  0  0  0
   46.5230    4.1012    9.0128 H   0  0  0  0  0  0  0  0  0  0  0  0
   45.7512    6.1966   10.3778 H   0  0  0  0  0  0  0  0  0  0  0  0
   42.5672    3.3116   10.7912 H   0  0  0  0  0  0  0  0  0  0  0  0
   44.9710    2.6374    6.8087 H   0  0  0  0  0  0  0  0  0  0  0  0
   46.7346    2.6966    6.9820 H   0  0  0  0  0  0  0  0  0  0  0  0
   45.8325    4.1748    6.6284 H   0  0  0  0  0  0  0  0  0  0  0  0
   42.2984    3.9628   13.1557 H   0  0  0  0  0  0  0  0  0  0  0  0
   45.4673    6.8329   12.7452 H   0  0  0  0  0  0  0  0  0  0  0  0
   43.7446    5.7206   14.1404 H   0  0  0  0  0  0  0  0  0  0  0  0
   45.2681    2.0286   10.1441 H   0  0  0  0  0  0  0  0  0  0  0  0
   43.6148    2.2354    9.6391 H   0  0  0  0  0  0  0  0  0  0  0  0
   43.2567    3.3064    7.4207 H   0  0  0  0  0  0  0  0  0  0  0  0
   44.4253    4.1519    6.6526 H   0  0  0  0  0  0  0  0  0  0  0  0
   45.3213    2.3020    7.8019 H   0  0  0  0  0  0  0  0  0  0  0  0
   42.6368    4.7296    9.8399 H   0  0  0  0  0  0  0  0  0  0  0  0
   46.0839    3.2640   11.9785 H   0  0  0  0  0  0  0  0  0  0  0  0
   47.1213    3.5508    9.0096 H   0  0  0  0  0  0  0  0  0  0  0  0
   46.7519    4.2438    7.4268 H   0  0  0  0  0  0  0  0  0  0  0  0
   46.1645    5.0400    8.8912 H   0  0  0  0  0  0  0  0  0  0  0  0
   42.3409    6.4897   11.5423 H   0  0  0  0  0  0  0  0  0  0  0  0
   45.7745    5.0307   13.6706 H   0  0  0  0  0  0  0  0  0  0  0  0
   43.9054    6.6484   13.4620 H   0  0  0  0  0  0  0  0  0  0  0  0
  4  2  1  0
  3  1  1  0
  4  1  1  0
  5  3  2  0
  6  3  1  0
  4  7  1  0
  8  5  1  0
  9  6  2  0
 10  8  2  0
  9 10  1  0
 12 14  1  0
 13 11  1  0
 14 11  1  0
 15 13  2  0
 16 13  1  0
 17 14  1  0
 18 16  2  0
 19 15  1  0
 20 18  1  0
 19 20  2  0
 24 22  1  0
 23 21  1  0
 24 21  1  0
 25 23  2  0
 26 23  1  0
 24 27  1  0
 28 25  1  0
 29 26  2  0
 30 28  2  0
 29 30  1  0
  1 31  1  0
  1 32  1  0
  2 33  1  0
  2 34  1  0
  4 35  1  1
  5 36  1  0
  6 37  1  0
  7 38  1  0
  7 39  1  0
  7 40  1  0
  8 41  1  0
  9 42  1  0
 10 43  1  0
 11 44  1  0
 11 45  1  0
 12 46  1  0
 12 47  1  0
 14 48  1  1
 15 49  1  0
 16 50  1  0
 17 51  1  0
 17 52  1  0
 17 53  1  0
 18 54  1  0
 19 55  1  0
 20 56  1  0
 21 57  1  0
 21 58  1  0
 22 59  1  0
 22 60  1  0
 24 61  1  1
 25 62  1  0
 26 63  1  0
 27 64  1  0
 27 65  1  0
 27 66  1  0
 28 67  1  0
 29 68  1  0
 30 69  1  0
M  END
> <Uni-Dock RESULT> 
ENERGY=   -7.986  LOWER_BOUND=    0.000  UPPER_BOUND=    0.000
INTER + INTRA:          -7.986
INTER:                  -7.986
INTRA:                   0.000
UNBOUND:                 0.000

$$$$

     RDKit          3D

 69 69  0  0  0  0  0  0  0  0999 V2000
   46.2625    7.2444   11.9350 C   0  0  0  0  0  0  0  0  0  0  0  0
   48.6900    7.5815   12.2903 N   0  0  0  0  0  0  0  0  0  0  0  0
   45.1176    6.2636   11.8389 C   0  0  0  0  0  0  0  0  0  0  0  0
   47.5922    6.6091   12.3954 C   0  0  1  0  0  0  0  0  0  0  0  0
   45.0781    5.3160   10.8065 C   0  0  0  0  0  0  0  0  0  0  0  0
   44.0807    6.2837   12.7815 C   0  0  0  0  0  0  0  0  0  0  0  0
   47.5298    6.1142   13.8408 C   0  0  0  0  0  0  0  0  0  0  0  0
   44.0237    4.4057   10.7209 C   0  0  0  0  0  0  0  0  0  0  0  0
   43.0270    5.3724   12.6941 C   0  0  0  0  0  0  0  0  0  0  0  0
   42.9988    4.4338   11.6646 C   0  0  0  0  0  0  0  0  0  0  0  0
   46.5927    6.7473   11.6946 C   0  0  0  0  0  0  0  0  0  0  0  0
   47.2177    6.1533   14.0482 N   0  0  0  0  0  0  0  0  0  0  0  0
   45.3662    5.8668   11.6142 C   0  0  0  0  0  0  0  0  0  0  0  0
   46.9085    7.2496   13.1211 C   0  0  1  0  0  0  0  0  0  0  0  0
   44.0861    6.4127   11.7823 C   0  0  0  0  0  0  0  0  0  0  0  0
   45.4916    4.4910   11.3775 C   0  0  0  0  0  0  0  0  0  0  0  0
   48.0971    8.2094   13.0939 C   0  0  0  0  0  0  0  0  0  0  0  0
   44.3590    3.6778   11.3136 C   0  0  0  0  0  0  0  0  0  0  0  0
   42.9549    5.5977   11.7181 C   0  0  0  0  0  0  0  0  0  0  0  0
   43.0915    4.2308   11.4845 C   0  0  0  0  0  0  0  0  0  0  0  0
   46.9596    5.5732   12.9118 C   0  0  0  0  0  0  0  0  0  0  0  0
   47.9090    7.3365   11.3973 N   0  0  0  0  0  0  0  0  0  0  0  0
   45.5858    5.3064   12.3388 C   0  0  0  0  0  0  0  0  0  0  0  0
   47.5048    7.0142   12.7710 C   0  0  1  0  0  0  0  0  0  0  0  0
   45.3810    5.2574   10.9539 C   0  0  0  0  0  0  0  0  0  0  0  0
   44.4915    5.0941   13.1901 C   0  0  0  0  0  0  0  0  0  0  0  0
   46.5311    8.0732   13.2860 C   0  0  0  0  0  0  0  0  0  0  0  0
   44.1113    5.0055   10.4310 C   0  0  0  0  0  0  0  0  0  0  0  0
   43.2220    4.8413   12.6663 C   0  0  0  0  0  0  0  0  0  0  0  0
   43.0322    4.7970   11.2870 C   0  0  0  0  0  0  0  0  0  0  0  0
   45.9894    8.0708   12.6051 H   0  0  0  0  0  0  0  0  0  0  0  0
   46.3917    7.7004   10.9436 H   0  0  0  0  0  0  0  0  0  0  0  0
   48.4958    8.3874   12.8839 H   0  0  0  0  0  0  0  0  0  0  0  0
   48.7433    7.9368   11.3363 H   0  0  0  0  0  0  0  0  0  0  0  0
   47.8417    5.7591   11.7497 H   0  0  0  0  0  0  0  0  0  0  0  0
   45.8696    5.2816   10.0610 H   0  0  0  0  0  0  0  0  0  0  0  0
   44.0877    7.0074   13.5934 H   0  0  0  0  0  0  0  0  0  0  0  0
   47.2568    6.9205   14.5310 H   0  0  0  0  0  0  0  0  0  0  0  0
   48.4986    5.7120   14.1588 H   0  0  0  0  0  0  0  0  0  0  0  0
   46.7955    5.3099   13.9520 H   0  0  0  0  0  0  0  0  0  0  0  0
   44.0020    3.6743    9.9173 H   0  0  0  0  0  0  0  0  0  0  0  0
   42.2280    5.3944   13.4306 H   0  0  0  0  0  0  0  0  0  0  0  0
   42.1782    3.7245   11.5976 H   0  0  0  0  0  0  0  0  0  0  0  0
   46.4370    7.6055   11.0273 H   0  0  0  0  0  0  0  0  0  0  0  0
   47.4602    6.2109   11.2872 H   0  0  0  0  0  0  0  0  0  0  0  0
   46.4130    5.5243   14.0885 H   0  0  0  0  0  0  0  0  0  0  0  0
   47.9821    5.5927   13.6742 H   0  0  0  0  0  0  0  0  0  0  0  0
   46.0429    7.7911   13.5207 H   0  0  0  0  0  0  0  0  0  0  0  0
   43.9618    7.4777   11.9649 H   0  0  0  0  0  0  0  0  0  0  0  0
   46.4729    4.0421   11.2415 H   0  0  0  0  0  0  0  0  0  0  0  0
   49.0013    7.7212   12.7130 H   0  0  0  0  0  0  0  0  0  0  0  0
   48.3161    8.5923   14.0970 H   0  0  0  0  0  0  0  0  0  0  0  0
   47.8834    9.0704   12.4514 H   0  0  0  0  0  0  0  0  0  0  0  0
   44.4657    2.6119   11.1296 H   0  0  0  0  0  0  0  0  0  0  0  0
   41.9666    6.0299   11.8505 H   0  0  0  0  0  0  0  0  0  0  0  0
   42.2101    3.5970   11.4344 H   0  0  0  0  0  0  0  0  0  0  0  0
   46.9509    5.3185   13.9805 H   0  0  0  0  0  0  0  0  0  0  0  0
   47.6662    4.8637   12.4598 H   0  0  0  0  0  0  0  0  0  0  0  0
   48.6493    6.7028   11.1005 H   0  0  0  0  0  0  0  0  0  0  0  0
   48.2998    8.2770   11.3658 H   0  0  0  0  0  0  0  0  0  0  0  0
   48.4119    7.0722   13.3862 H   0  0  0  0  0  0  0  0  0  0  0  0
   46.2115    5.4250   10.2719 H   0  0  0  0  0  0  0  0  0  0  0  0
   44.6193    5.1261   14.2695 H   0  0  0  0  0  0  0  0  0  0  0  0
   46.2210    7.8475   14.3119 H   0  0  0  0  0  0  0  0  0  0  0  0
   47.0022    9.0626   13.2944 H   0  0  0  0  0  0  0  0  0  0  0  0
   45.6316    8.1415   12.6647 H   0  0  0  0  0  0  0  0  0  0  0  0
   43.9663    4.9761    9.3546 H   0  0  0  0  0  0  0  0  0  0  0  0
   42.3813    4.6802   13.3355 H   0  0  0  0  0  0  0  0  0  0  0  0
   42.0442    4.6025   10.8790 H   0  0  0  0  0  0  0  0  0  0  0  0
  4  2  1  0
  3  1  1  0
  4  1  1  0
  5  3  2  0
  6  3  1  0
  4  7  1  0
  8  5  1  0
  9  6  2  0
 10  8  2  0
  9 10  1  0
 12 14  1  0
 13 11  1  0
 14 11  1  0
 15 13  2  0
 16 13  1  0
 17 14  1  0
 18 16  2  0
 19 15  1  0
 20 18  1  0
 19 20  2  0
 24 22  1  0
 23 21  1  0
 24 21  1  0
 25 23  2  0
 26 23  1  0
 24 27  1  0
 28 25  1  0
 29 26  2  0
 30 28  2  0
 29 30  1  0
  1 31  1  0
  1 32  1  0
  2 33  1  0
  2 34  1  0
  4 35  1  1
  5 36  1  0
  6 37  1  0
  7 38  1  0
  7 39  1  0
  7 40  1  0
  8 41  1  0
  9 42  1  0
 10 43  1  0
 11 44  1  0
 11 45  1  0
 12 46  1  0
 12 47  1  0
 14 48  1  1
 15 49  1  0
 16 50  1  0
 17 51  1  0
 17 52  1  0
 17 53  1  0
 18 54  1  0
 19 55  1  0
 20 56  1  0
 21 57  1  0
 21 58  1  0
 22 59  1  0
 22 60  1  0
 24 61  1  1
 25 62  1  0
 26 63  1  0
 27 64  1  0
 27 65  1  0
 27 66  1  0
 28 67  1  0
 29 68  1  0
 30 69  1  0
M  END
> <Uni-Dock RESULT> 
ENERGY=   -7.789  LOWER_BOUND=    2.546  UPPER_BOUND=    4.242
INTER + INTRA:          -7.789
INTER:                  -7.789
INTRA:                   0.000
UNBOUND:                 0.000

$$$$

     RDKit          3D

 69 69  0  0  0  0  0  0  0  0999 V2000
   46.8369    6.2279   12.5393 C   0  0  0  0  0  0  0  0  0  0  0  0
   47.7424    8.1254   13.8478 N   0  0  0  0  0  0  0  0  0  0  0  0
   45.6117    5.4773   12.0726 C   0  0  0  0  0  0  0  0  0  0  0  0
   46.5187    7.5497   13.2707 C   0  0  1  0  0  0  0  0  0  0  0  0
   44.7842    4.8232   12.9961 C   0  0  0  0  0  0  0  0  0  0  0  0
   45.2822    5.4268   10.7115 C   0  0  0  0  0  0  0  0  0  0  0  0
   45.8931    8.5913   12.3424 C   0  0  0  0  0  0  0  0  0  0  0  0
   43.6489    4.1349   12.5660 C   0  0  0  0  0  0  0  0  0  0  0  0
   44.1462    4.7377   10.2834 C   0  0  0  0  0  0  0  0  0  0  0  0
   43.3300    4.0925   11.2103 C   0  0  0  0  0  0  0  0  0  0  0  0
   46.4638    6.3423   13.0507 C   0  0  0  0  0  0  0  0  0  0  0  0
   45.8327    8.5180   11.9778 N   0  0  0  0  0  0  0  0  0  0  0  0
   45.3131    5.5350   12.4936 C   0  0  0  0  0  0  0  0  0  0  0  0
   46.8959    7.5191   12.1477 C   0  0  1  0  0  0  0  0  0  0  0  0
   45.4999    4.7049   11.3797 C   0  0  0  0  0  0  0  0  0  0  0  0
   44.0416    5.6102   13.0785 C   0  0  0  0  0  0  0  0  0  0  0  0
   48.1232    8.2146   12.7349 C   0  0  0  0  0  0  0  0  0  0  0  0
   42.9780    4.8720   12.5569 C   0  0  0  0  0  0  0  0  0  0  0  0
   44.4349    3.9677   10.8597 C   0  0  0  0  0  0  0  0  0  0  0  0
   43.1745    4.0518   11.4477 C   0  0  0  0  0  0  0  0  0  0  0  0
   45.3135    7.5965   12.7366 C   0  0  0  0  0  0  0  0  0  0  0  0
   47.3913    6.9764   14.0025 N   0  0  0  0  0  0  0  0  0  0  0  0
   44.7622    6.2667   12.2737 C   0  0  0  0  0  0  0  0  0  0  0  0
   46.8521    7.7103   12.8514 C   0  0  1  0  0  0  0  0  0  0  0  0
   44.7908    5.1448   13.1121 C   0  0  0  0  0  0  0  0  0  0  0  0
   44.2026    6.1378   10.9940 C   0  0  0  0  0  0  0  0  0  0  0  0
   47.5785    7.2809   11.5775 C   0  0  0  0  0  0  0  0  0  0  0  0
   44.2754    3.9211   12.6810 C   0  0  0  0  0  0  0  0  0  0  0  0
   43.6866    4.9137   10.5637 C   0  0  0  0  0  0  0  0  0  0  0  0
   43.7230    3.8057   11.4073 C   0  0  0  0  0  0  0  0  0  0  0  0
   47.5021    6.4211   11.6868 H   0  0  0  0  0  0  0  0  0  0  0  0
   47.4001    5.5601   13.2059 H   0  0  0  0  0  0  0  0  0  0  0  0
   48.4148    8.3213   13.1068 H   0  0  0  0  0  0  0  0  0  0  0  0
   48.1860    7.4430   14.4617 H   0  0  0  0  0  0  0  0  0  0  0  0
   45.8225    7.3600   14.0961 H   0  0  0  0  0  0  0  0  0  0  0  0
   45.0198    4.8455   14.0579 H   0  0  0  0  0  0  0  0  0  0  0  0
   45.9062    5.9269    9.9742 H   0  0  0  0  0  0  0  0  0  0  0  0
   46.5370    8.8013   11.4809 H   0  0  0  0  0  0  0  0  0  0  0  0
   45.7212    9.5351   12.8726 H   0  0  0  0  0  0  0  0  0  0  0  0
   44.9226    8.2528   11.9654 H   0  0  0  0  0  0  0  0  0  0  0  0
   43.0130    3.6314   13.2894 H   0  0  0  0  0  0  0  0  0  0  0  0
   43.8977    4.7053    9.2259 H   0  0  0  0  0  0  0  0  0  0  0  0
   42.4456    3.5567   10.8761 H   0  0  0  0  0  0  0  0  0  0  0  0
   47.3125    5.6618   13.2014 H   0  0  0  0  0  0  0  0  0  0  0  0
   46.2040    6.7150   14.0507 H   0  0  0  0  0  0  0  0  0  0  0  0
   45.0199    8.0603   11.5599 H   0  0  0  0  0  0  0  0  0  0  0  0
   45.5204    8.8457   12.8908 H   0  0  0  0  0  0  0  0  0  0  0  0
   47.1619    7.1416   11.1533 H   0  0  0  0  0  0  0  0  0  0  0  0
   46.4774    4.6273   10.9091 H   0  0  0  0  0  0  0  0  0  0  0  0
   43.8698    6.2449   13.9448 H   0  0  0  0  0  0  0  0  0  0  0  0
   47.9166    8.6260   13.7293 H   0  0  0  0  0  0  0  0  0  0  0  0
   48.4550    9.0366   12.0906 H   0  0  0  0  0  0  0  0  0  0  0  0
   48.9577    7.5112   12.8284 H   0  0  0  0  0  0  0  0  0  0  0  0
   41.9952    4.9364   13.0168 H   0  0  0  0  0  0  0  0  0  0  0  0
   44.5892    3.3274    9.9952 H   0  0  0  0  0  0  0  0  0  0  0  0
   42.3459    3.4772   11.0423 H   0  0  0  0  0  0  0  0  0  0  0  0
   44.9675    8.3799   12.0484 H   0  0  0  0  0  0  0  0  0  0  0  0
   44.8503    7.8456   13.7012 H   0  0  0  0  0  0  0  0  0  0  0  0
   46.9954    7.3506   14.8632 H   0  0  0  0  0  0  0  0  0  0  0  0
   48.3988    7.1178   14.0589 H   0  0  0  0  0  0  0  0  0  0  0  0
   47.0806    8.7703   13.0209 H   0  0  0  0  0  0  0  0  0  0  0  0
   45.2249    5.2163   14.1068 H   0  0  0  0  0  0  0  0  0  0  0  0
   44.1663    6.9908   10.3206 H   0  0  0  0  0  0  0  0  0  0  0  0
   47.1883    7.8216   10.7086 H   0  0  0  0  0  0  0  0  0  0  0  0
   48.6498    7.5009   11.6483 H   0  0  0  0  0  0  0  0  0  0  0  0
   47.4743    6.2074   11.3866 H   0  0  0  0  0  0  0  0  0  0  0  0
   44.3097    3.0580   13.3401 H   0  0  0  0  0  0  0  0  0  0  0  0
   43.2573    4.8253    9.5696 H   0  0  0  0  0  0  0  0  0  0  0  0
   43.3236    2.8525   11.0722 H   0  0  0  0  0  0  0  0  0  0  0  0
  4  2  1  0
  3  1  1  0
  4  1  1  0
  5  3  2  0
  6  3  1  0
  4  7  1  0
  8  5  1  0
  9  6  2  0
 10  8  2  0
  9 10  1  0
 12 14  1  0
 13 11  1  0
 14 11  1  0
 15 13  2  0
 16 13  1  0
 17 14  1  0
 18 16  2  0
 19 15  1  0
 20 18  1  0
 19 20  2  0
 24 22  1  0
 23 21  1  0
 24 21  1  0
 25 23  2  0
 26 23  1  0
 24 27  1  0
 28 25  1  0
 29 26  2  0
 30 28  2  0
 29 30  1  0
  1 31  1  0
  1 32  1  0
  2 33  1  0
  2 34  1  0
  4 35  1  1
  5 36  1  0
  6 37  1  0
  7 38  1  0
  7 39  1  0
  7 40  1  0
  8 41  1  0
  9 42  1  0
 10 43  1  0
 11 44  1  0
 11 45  1  0
 12 46  1  0
 12 47  1  0
 14 48  1  1
 15 49  1  0
 16 50  1  0
 17 51  1  0
 17 52  1  0
 17 53  1  0
 18 54  1  0
 19 55  1  0
 20 56  1  0
 21 57  1  0
 21 58  1  0
 22 59  1  0
 22 60  1  0
 24 61  1  1
 25 62  1  0
 26 63  1  0
 27 64  1  0
 27 65  1  0
 27 66  1  0
 28 67  1  0
 29 68  1  0
 30 69  1  0
M  END
> <Uni-Dock RESULT> 
ENERGY=   -7.516  LOWER_BOUND=    2.662  UPPER_BOUND=    4.534
INTER + INTRA:          -7.516
INTER:                  -7.516
INTRA:                   0.000
UNBOUND:                 0.000

$$$$

     RDKit          3D

 69 69  0  0  0  0  0  0  0  0999 V2000
   45.9207    4.0348    9.5434 C   0  0  0  0  0  0  0  0  0  0  0  0
   46.2133    4.1103    7.0855 N   0  0  0  0  0  0  0  0  0  0  0  0
   45.0127    4.2945   10.7225 C   0  0  0  0  0  0  0  0  0  0  0  0
   45.2285    4.2010    8.1735 C   0  0  1  0  0  0  0  0  0  0  0  0
   44.6057    5.5998   11.0323 C   0  0  0  0  0  0  0  0  0  0  0  0
   44.5610    3.2353   11.5212 C   0  0  0  0  0  0  0  0  0  0  0  0
   44.1532    3.1407    7.9335 C   0  0  0  0  0  0  0  0  0  0  0  0
   43.7619    5.8395   12.1178 C   0  0  0  0  0  0  0  0  0  0  0  0
   43.7171    3.4773   12.6065 C   0  0  0  0  0  0  0  0  0  0  0  0
   43.3176    4.7786   12.9043 C   0  0  0  0  0  0  0  0  0  0  0  0
   45.5974    4.5336    9.2971 C   0  0  0  0  0  0  0  0  0  0  0  0
   44.0800    2.8741    8.1894 N   0  0  0  0  0  0  0  0  0  0  0  0
   44.7680    4.7180   10.5477 C   0  0  0  0  0  0  0  0  0  0  0  0
   45.4494    3.1386    8.6497 C   0  0  1  0  0  0  0  0  0  0  0  0
   45.1103    4.0528   11.7331 C   0  0  0  0  0  0  0  0  0  0  0  0
   43.6408    5.5511   10.5382 C   0  0  0  0  0  0  0  0  0  0  0  0
   46.3946    3.0053    7.4564 C   0  0  0  0  0  0  0  0  0  0  0  0
   42.8703    5.7124   11.6907 C   0  0  0  0  0  0  0  0  0  0  0  0
   44.3384    4.2156   12.8845 C   0  0  0  0  0  0  0  0  0  0  0  0
   43.2186    5.0445   12.8630 C   0  0  0  0  0  0  0  0  0  0  0  0
   44.0357    4.0623    8.7194 C   0  0  0  0  0  0  0  0  0  0  0  0
   46.3339    4.8254    8.0559 N   0  0  0  0  0  0  0  0  0  0  0  0
   43.9630    4.3774   10.1966 C   0  0  0  0  0  0  0  0  0  0  0  0
   45.4247    3.6776    8.1572 C   0  0  1  0  0  0  0  0  0  0  0  0
   44.5071    5.5631   10.7070 C   0  0  0  0  0  0  0  0  0  0  0  0
   43.3383    3.4865   11.0818 C   0  0  0  0  0  0  0  0  0  0  0  0
   46.0963    2.5534    8.9447 C   0  0  0  0  0  0  0  0  0  0  0  0
   44.4321    5.8509   12.0710 C   0  0  0  0  0  0  0  0  0  0  0  0
   43.2631    3.7754   12.4459 C   0  0  0  0  0  0  0  0  0  0  0  0
   43.8099    4.9575   12.9401 C   0  0  0  0  0  0  0  0  0  0  0  0
   46.3573    3.0302    9.6241 H   0  0  0  0  0  0  0  0  0  0  0  0
   46.7681    4.7303    9.6188 H   0  0  0  0  0  0  0  0  0  0  0  0
   46.6693    3.1986    7.1073 H   0  0  0  0  0  0  0  0  0  0  0  0
   46.9495    4.8003    7.2309 H   0  0  0  0  0  0  0  0  0  0  0  0
   44.7587    5.1896    8.1114 H   0  0  0  0  0  0  0  0  0  0  0  0
   44.9447    6.4393   10.4292 H   0  0  0  0  0  0  0  0  0  0  0  0
   44.8602    2.2129   11.3020 H   0  0  0  0  0  0  0  0  0  0  0  0
   44.5629    2.1272    8.0104 H   0  0  0  0  0  0  0  0  0  0  0  0
   43.7109    3.2506    6.9366 H   0  0  0  0  0  0  0  0  0  0  0  0
   43.3384    3.2326    8.6588 H   0  0  0  0  0  0  0  0  0  0  0  0
   43.4512    6.8548   12.3499 H   0  0  0  0  0  0  0  0  0  0  0  0
   43.3704    2.6494   13.2194 H   0  0  0  0  0  0  0  0  0  0  0  0
   42.6603    4.9658   13.7491 H   0  0  0  0  0  0  0  0  0  0  0  0
   46.6492    4.7085    9.5602 H   0  0  0  0  0  0  0  0  0  0  0  0
   45.3430    5.3131    8.5664 H   0  0  0  0  0  0  0  0  0  0  0  0
   43.4494    2.9362    8.9915 H   0  0  0  0  0  0  0  0  0  0  0  0
   43.7832    3.6124    7.5528 H   0  0  0  0  0  0  0  0  0  0  0  0
   45.7121    2.3641    9.3800 H   0  0  0  0  0  0  0  0  0  0  0  0
   45.9815    3.4026   11.7672 H   0  0  0  0  0  0  0  0  0  0  0  0
   43.3541    6.0804    9.6324 H   0  0  0  0  0  0  0  0  0  0  0  0
   46.1741    3.7487    6.6821 H   0  0  0  0  0  0  0  0  0  0  0  0
   46.3171    2.0108    7.0029 H   0  0  0  0  0  0  0  0  0  0  0  0
   47.4347    3.1446    7.7704 H   0  0  0  0  0  0  0  0  0  0  0  0
   41.9978    6.3605   11.6742 H   0  0  0  0  0  0  0  0  0  0  0  0
   44.6113    3.6950   13.7987 H   0  0  0  0  0  0  0  0  0  0  0  0
   42.6183    5.1708   13.7600 H   0  0  0  0  0  0  0  0  0  0  0  0
   43.3429    3.2381    8.5007 H   0  0  0  0  0  0  0  0  0  0  0  0
   43.6353    4.9208    8.1629 H   0  0  0  0  0  0  0  0  0  0  0  0
   45.9365    5.5227    7.4286 H   0  0  0  0  0  0  0  0  0  0  0  0
   47.2164    4.5292    7.6414 H   0  0  0  0  0  0  0  0  0  0  0  0
   45.2639    3.3141    7.1341 H   0  0  0  0  0  0  0  0  0  0  0  0
   45.0025    6.2678   10.0430 H   0  0  0  0  0  0  0  0  0  0  0  0
   42.9069    2.5581   10.7153 H   0  0  0  0  0  0  0  0  0  0  0  0
   45.4303    1.6878    9.0277 H   0  0  0  0  0  0  0  0  0  0  0  0
   47.0102    2.2186    8.4410 H   0  0  0  0  0  0  0  0  0  0  0  0
   46.3739    2.8688    9.9562 H   0  0  0  0  0  0  0  0  0  0  0  0
   44.8637    6.7717   12.4535 H   0  0  0  0  0  0  0  0  0  0  0  0
   42.7785    3.0769   13.1224 H   0  0  0  0  0  0  0  0  0  0  0  0
   43.7534    5.1817   14.0017 H   0  0  0  0  0  0  0  0  0  0  0  0
  4  2  1  0
  3  1  1  0
  4  1  1  0
  5  3  2  0
  6  3  1  0
  4  7  1  0
  8  5  1  0
  9  6  2  0
 10  8  2  0
  9 10  1  0
 12 14  1  0
 13 11  1  0
 14 11  1  0
 15 13  2  0
 16 13  1  0
 17 14  1  0
 18 16  2  0
 19 15  1  0
 20 18  1  0
 19 20  2  0
 24 22  1  0
 23 21  1  0
 24 21  1  0
 25 23  2  0
 26 23  1  0
 24 27  1  0
 28 25  1  0
 29 26  2  0
 30 28  2  0
 29 30  1  0
  1 31  1  0
  1 32  1  0
  2 33  1  0
  2 34  1  0
  4 35  1  1
  5 36  1  0
  6 37  1  0
  7 38  1  0
  7 39  1  0
  7 40  1  0
  8 41  1  0
  9 42  1  0
 10 43  1  0
 11 44  1  0
 11 45  1  0
 12 46  1  0
 12 47  1  0
 14 48  1  1
 15 49  1  0
 16 50  1  0
 17 51  1  0
 17 52  1  0
 17 53  1  0
 18 54  1  0
 19 55  1  0
 20 56  1  0
 21 57  1  0
 21 58  1  0
 22 59  1  0
 22 60  1  0
 24 61  1  1
 25 62  1  0
 26 63  1  0
 27 64  1  0
 27 65  1  0
 27 66  1  0
 28 67  1  0
 29 68  1  0
 30 69  1  0
M  END
> <Uni-Dock RESULT> 
ENERGY=   -6.837  LOWER_BOUND=    0.899  UPPER_BOUND=    1.573
INTER + INTRA:          -6.837
INTER:                  -6.837
INTRA:                   0.000
UNBOUND:                 0.000

$$$$

     RDKit          3D

 69 69  0  0  0  0  0  0  0  0999 V2000
   48.0317    5.5531   19.9942 C   0  0  0  0  0  0  0  0  0  0  0  0
   47.4655    7.8592   20.6970 N   0  0  0  0  0  0  0  0  0  0  0  0
   48.2644    4.5958   18.8490 C   0  0  0  0  0  0  0  0  0  0  0  0
   47.8653    7.0238   19.5550 C   0  0  1  0  0  0  0  0  0  0  0  0
   47.2196    4.2668   17.9741 C   0  0  0  0  0  0  0  0  0  0  0  0
   49.5278    4.0258   18.6419 C   0  0  0  0  0  0  0  0  0  0  0  0
   49.1522    7.6036   18.9669 C   0  0  0  0  0  0  0  0  0  0  0  0
   47.4357    3.3872   16.9123 C   0  0  0  0  0  0  0  0  0  0  0  0
   49.7418    3.1463   17.5793 C   0  0  0  0  0  0  0  0  0  0  0  0
   48.6964    2.8275   16.7149 C   0  0  0  0  0  0  0  0  0  0  0  0
   47.6245    5.8193   19.5732 C   0  0  0  0  0  0  0  0  0  0  0  0
   49.4667    7.3976   18.9419 N   0  0  0  0  0  0  0  0  0  0  0  0
   47.9151    4.7816   18.5126 C   0  0  0  0  0  0  0  0  0  0  0  0
   48.8699    6.6115   20.0296 C   0  0  1  0  0  0  0  0  0  0  0  0
   48.6269    3.6172   18.8324 C   0  0  0  0  0  0  0  0  0  0  0  0
   47.4832    4.9722   17.1928 C   0  0  0  0  0  0  0  0  0  0  0  0
   48.5050    7.5621   21.1689 C   0  0  0  0  0  0  0  0  0  0  0  0
   47.7610    4.0182   16.2126 C   0  0  0  0  0  0  0  0  0  0  0  0
   48.9036    2.6645   17.8507 C   0  0  0  0  0  0  0  0  0  0  0  0
   48.4714    2.8653   16.5413 C   0  0  0  0  0  0  0  0  0  0  0  0
   48.4552    6.7828   18.4000 C   0  0  0  0  0  0  0  0  0  0  0  0
   46.9184    6.8244   20.3852 N   0  0  0  0  0  0  0  0  0  0  0  0
   48.4260    5.3391   17.9509 C   0  0  0  0  0  0  0  0  0  0  0  0
   48.2918    7.0435   19.9162 C   0  0  1  0  0  0  0  0  0  0  0  0
   47.2310    4.6080   17.9562 C   0  0  0  0  0  0  0  0  0  0  0  0
   49.5997    4.7094   17.5112 C   0  0  0  0  0  0  0  0  0  0  0  0
   49.2657    6.2319   20.7692 C   0  0  0  0  0  0  0  0  0  0  0  0
   47.2094    3.2771   17.5353 C   0  0  0  0  0  0  0  0  0  0  0  0
   49.5771    3.3784   17.0896 C   0  0  0  0  0  0  0  0  0  0  0  0
   48.3820    2.6626   17.1017 C   0  0  0  0  0  0  0  0  0  0  0  0
   48.8502    5.4688   20.7219 H   0  0  0  0  0  0  0  0  0  0  0  0
   47.1300    5.2195   20.5264 H   0  0  0  0  0  0  0  0  0  0  0  0
   48.1813    7.8188   21.4220 H   0  0  0  0  0  0  0  0  0  0  0  0
   46.6150    7.4840   21.1153 H   0  0  0  0  0  0  0  0  0  0  0  0
   47.0753    7.0992   18.7987 H   0  0  0  0  0  0  0  0  0  0  0  0
   46.2291    4.6939   18.1151 H   0  0  0  0  0  0  0  0  0  0  0  0
   50.3561    4.2653   19.3048 H   0  0  0  0  0  0  0  0  0  0  0  0
   49.9867    7.5300   19.6735 H   0  0  0  0  0  0  0  0  0  0  0  0
   49.0224    8.6606   18.7077 H   0  0  0  0  0  0  0  0  0  0  0  0
   49.4384    7.0801   18.0490 H   0  0  0  0  0  0  0  0  0  0  0  0
   46.6197    3.1385   16.2388 H   0  0  0  0  0  0  0  0  0  0  0  0
   50.7255    2.7103   17.4255 H   0  0  0  0  0  0  0  0  0  0  0  0
   48.8642    2.1430   15.8877 H   0  0  0  0  0  0  0  0  0  0  0  0
   47.1777    5.3057   20.4350 H   0  0  0  0  0  0  0  0  0  0  0  0
   46.8533    6.5123   19.2110 H   0  0  0  0  0  0  0  0  0  0  0  0
   49.7363    6.7601   18.1897 H   0  0  0  0  0  0  0  0  0  0  0  0
   48.7627    8.0131   18.5370 H   0  0  0  0  0  0  0  0  0  0  0  0
   49.6338    5.9165   20.3978 H   0  0  0  0  0  0  0  0  0  0  0  0
   48.9710    3.4446   19.8497 H   0  0  0  0  0  0  0  0  0  0  0  0
   46.9275    5.8658   16.9181 H   0  0  0  0  0  0  0  0  0  0  0  0
   47.7499    8.2930   20.8584 H   0  0  0  0  0  0  0  0  0  0  0  0
   49.3855    8.1128   21.5187 H   0  0  0  0  0  0  0  0  0  0  0  0
   48.1035    7.0053   22.0226 H   0  0  0  0  0  0  0  0  0  0  0  0
   47.4223    4.1742   15.1916 H   0  0  0  0  0  0  0  0  0  0  0  0
   49.4568    1.7651   18.1080 H   0  0  0  0  0  0  0  0  0  0  0  0
   48.6870    2.1228   15.7776 H   0  0  0  0  0  0  0  0  0  0  0  0
   49.4058    7.2317   18.0808 H   0  0  0  0  0  0  0  0  0  0  0  0
   47.6840    7.3333   17.8440 H   0  0  0  0  0  0  0  0  0  0  0  0
   46.2855    7.4579   19.8996 H   0  0  0  0  0  0  0  0  0  0  0  0
   46.8537    7.0504   21.3766 H   0  0  0  0  0  0  0  0  0  0  0  0
   48.5136    8.1057   20.0817 H   0  0  0  0  0  0  0  0  0  0  0  0
   46.3082    5.0708   18.2984 H   0  0  0  0  0  0  0  0  0  0  0  0
   50.5424    5.2510   17.4958 H   0  0  0  0  0  0  0  0  0  0  0  0
   50.2964    6.3862   20.4325 H   0  0  0  0  0  0  0  0  0  0  0  0
   49.2126    6.5407   21.8194 H   0  0  0  0  0  0  0  0  0  0  0  0
   49.0508    5.1586   20.7299 H   0  0  0  0  0  0  0  0  0  0  0  0
   46.2763    2.7207   17.5504 H   0  0  0  0  0  0  0  0  0  0  0  0
   50.4929    2.9004   16.7529 H   0  0  0  0  0  0  0  0  0  0  0  0
   48.3645    1.6263   16.7758 H   0  0  0  0  0  0  0  0  0  0  0  0
  4  2  1  0
  3  1  1  0
  4  1  1  0
  5  3  2  0
  6  3  1  0
  4  7  1  0
  8  5  1  0
  9  6  2  0
 10  8  2  0
  9 10  1  0
 12 14  1  0
 13 11  1  0
 14 11  1  0
 15 13  2  0
 16 13  1  0
 17 14  1  0
 18 16  2  0
 19 15  1  0
 20 18  1  0
 19 20  2  0
 24 22  1  0
 23 21  1  0
 24 21  1  0
 25 23  2  0
 26 23  1  0
 24 27  1  0
 28 25  1  0
 29 26  2  0
 30 28  2  0
 29 30  1  0
  1 31  1  0
  1 32  1  0
  2 33  1  0
  2 34  1  0
  4 35  1  1
  5 36  1  0
  6 37  1  0
  7 38  1  0
  7 39  1  0
  7 40  1  0
  8 41  1  0
  9 42  1  0
 10 43  1  0
 11 44  1  0
 11 45  1  0
 12 46  1  0
 12 47  1  0
 14 48  1  1
 15 49  1  0
 16 50  1  0
 17 51  1  0
 17 52  1  0
 17 53  1  0
 18 54  1  0
 19 55  1  0
 20 56  1  0
 21 57  1  0
 21 58  1  0
 22 59  1  0
 22 60  1  0
 24 61  1  1
 25 62  1  0
 26 63  1  0
 27 64  1  0
 27 65  1  0
 27 66  1  0
 28 67  1  0
 29 68  1  0
 30 69  1  0
M  END
> <Uni-Dock RESULT> 
ENERGY=   -6.834  LOWER_BOUND=    7.565  UPPER_BOUND=    9.863
INTER + INTRA:          -6.834
INTER:                  -6.834
INTRA:                   0.000
UNBOUND:                 0.000

$$$$

     RDKit          3D

 69 69  0  0  0  0  0  0  0  0999 V2000
   44.5872    4.9709   12.6143 C   0  0  0  0  0  0  0  0  0  0  0  0
   44.3182    2.7252   11.6058 N   0  0  0  0  0  0  0  0  0  0  0  0
   45.2923    6.3062   12.5705 C   0  0  0  0  0  0  0  0  0  0  0  0
   44.8915    4.0638   11.4027 C   0  0  1  0  0  0  0  0  0  0  0  0
   46.6737    6.3883   12.7948 C   0  0  0  0  0  0  0  0  0  0  0  0
   44.5775    7.4813   12.3015 C   0  0  0  0  0  0  0  0  0  0  0  0
   44.3308    4.6301   10.0977 C   0  0  0  0  0  0  0  0  0  0  0  0
   47.3265    7.6209   12.7483 C   0  0  0  0  0  0  0  0  0  0  0  0
   45.2324    8.7131   12.2555 C   0  0  0  0  0  0  0  0  0  0  0  0
   46.6061    8.7827   12.4785 C   0  0  0  0  0  0  0  0  0  0  0  0
   45.1490    4.7658   12.3774 C   0  0  0  0  0  0  0  0  0  0  0  0
   44.1398    4.9547   10.0908 N   0  0  0  0  0  0  0  0  0  0  0  0
   45.7606    6.1482   12.4110 C   0  0  0  0  0  0  0  0  0  0  0  0
   43.8767    4.6667   11.5067 C   0  0  1  0  0  0  0  0  0  0  0  0
   45.1237    7.1915   13.0970 C   0  0  0  0  0  0  0  0  0  0  0  0
   46.9694    6.4082   11.7509 C   0  0  0  0  0  0  0  0  0  0  0  0
   43.2708    3.2678   11.6110 C   0  0  0  0  0  0  0  0  0  0  0  0
   47.5276    7.6873   11.7743 C   0  0  0  0  0  0  0  0  0  0  0  0
   45.6835    8.4698   13.1190 C   0  0  0  0  0  0  0  0  0  0  0  0
   46.8846    8.7176   12.4575 C   0  0  0  0  0  0  0  0  0  0  0  0
   45.2896    5.0962   10.6845 C   0  0  0  0  0  0  0  0  0  0  0  0
   45.0101    3.3004   12.4169 N   0  0  0  0  0  0  0  0  0  0  0  0
   45.7390    6.3001   11.4816 C   0  0  0  0  0  0  0  0  0  0  0  0
   44.3341    4.1083   11.3949 C   0  0  1  0  0  0  0  0  0  0  0  0
   46.6502    6.1649   12.5370 C   0  0  0  0  0  0  0  0  0  0  0  0
   45.2546    7.5788   11.1688 C   0  0  0  0  0  0  0  0  0  0  0  0
   43.1112    4.7940   12.0025 C   0  0  0  0  0  0  0  0  0  0  0  0
   47.0655    7.2809   13.2658 C   0  0  0  0  0  0  0  0  0  0  0  0
   45.6711    8.6946   11.8977 C   0  0  0  0  0  0  0  0  0  0  0  0
   46.5764    8.5455   12.9459 C   0  0  0  0  0  0  0  0  0  0  0  0
   43.5034    5.1252   12.7050 H   0  0  0  0  0  0  0  0  0  0  0  0
   44.8909    4.4666   13.5421 H   0  0  0  0  0  0  0  0  0  0  0  0
   43.3063    2.7949   11.7097 H   0  0  0  0  0  0  0  0  0  0  0  0
   44.6676    2.3314   12.4788 H   0  0  0  0  0  0  0  0  0  0  0  0
   45.9755    3.9446   11.2900 H   0  0  0  0  0  0  0  0  0  0  0  0
   47.2505    5.4910   13.0082 H   0  0  0  0  0  0  0  0  0  0  0  0
   43.5054    7.4456   12.1222 H   0  0  0  0  0  0  0  0  0  0  0  0
   43.2494    4.7955   10.1623 H   0  0  0  0  0  0  0  0  0  0  0  0
   44.5178    3.9459    9.2620 H   0  0  0  0  0  0  0  0  0  0  0  0
   44.8049    5.5839    9.8445 H   0  0  0  0  0  0  0  0  0  0  0  0
   48.3979    7.6746   12.9230 H   0  0  0  0  0  0  0  0  0  0  0  0
   44.6702    9.6190   12.0446 H   0  0  0  0  0  0  0  0  0  0  0  0
   47.1151    9.7422   12.4421 H   0  0  0  0  0  0  0  0  0  0  0  0
   44.9131    4.4753   13.4099 H   0  0  0  0  0  0  0  0  0  0  0  0
   45.8962    4.0393   12.0305 H   0  0  0  0  0  0  0  0  0  0  0  0
   44.5200    5.9006   10.0162 H   0  0  0  0  0  0  0  0  0  0  0  0
   44.8746    4.3386    9.7460 H   0  0  0  0  0  0  0  0  0  0  0  0
   43.1308    5.3879   11.8615 H   0  0  0  0  0  0  0  0  0  0  0  0
   44.1859    7.0150   13.6190 H   0  0  0  0  0  0  0  0  0  0  0  0
   47.4853    5.6162   11.2129 H   0  0  0  0  0  0  0  0  0  0  0  0
   43.9675    2.4991   11.2580 H   0  0  0  0  0  0  0  0  0  0  0  0
   42.3532    3.1916   11.0168 H   0  0  0  0  0  0  0  0  0  0  0  0
   43.0116    3.0359   12.6496 H   0  0  0  0  0  0  0  0  0  0  0  0
   48.4653    7.8800   11.2596 H   0  0  0  0  0  0  0  0  0  0  0  0
   45.1819    9.2726   13.6529 H   0  0  0  0  0  0  0  0  0  0  0  0
   47.3199    9.7132   12.4755 H   0  0  0  0  0  0  0  0  0  0  0  0
   44.7938    5.4456    9.7684 H   0  0  0  0  0  0  0  0  0  0  0  0
   46.1826    4.5610   10.3339 H   0  0  0  0  0  0  0  0  0  0  0  0
   45.7485    2.7483   11.9839 H   0  0  0  0  0  0  0  0  0  0  0  0
   44.3507    2.6383   12.8232 H   0  0  0  0  0  0  0  0  0  0  0  0
   43.9744    3.4084   10.6297 H   0  0  0  0  0  0  0  0  0  0  0  0
   47.0361    5.1838   12.8041 H   0  0  0  0  0  0  0  0  0  0  0  0
   44.5463    7.7153   10.3551 H   0  0  0  0  0  0  0  0  0  0  0  0
   42.5942    5.4002   11.2509 H   0  0  0  0  0  0  0  0  0  0  0  0
   42.3960    4.0526   12.3765 H   0  0  0  0  0  0  0  0  0  0  0  0
   43.3794    5.4456   12.8410 H   0  0  0  0  0  0  0  0  0  0  0  0
   47.7683    7.1600   14.0855 H   0  0  0  0  0  0  0  0  0  0  0  0
   45.2876    9.6800   11.6475 H   0  0  0  0  0  0  0  0  0  0  0  0
   46.8991    9.4131   13.5146 H   0  0  0  0  0  0  0  0  0  0  0  0
  4  2  1  0
  3  1  1  0
  4  1  1  0
  5  3  2  0
  6  3  1  0
  4  7  1  0
  8  5  1  0
  9  6  2  0
 10  8  2  0
  9 10  1  0
 12 14  1  0
 13 11  1  0
 14 11  1  0
 15 13  2  0
 16 13  1  0
 17 14  1  0
 18 16  2  0
 19 15  1  0
 20 18  1  0
 19 20  2  0
 24 22  1  0
 23 21  1  0
 24 21  1  0
 25 23  2  0
 26 23  1  0
 24 27  1  0
 28 25  1  0
 29 26  2  0
 30 28  2  0
 29 30  1  0
  1 31  1  0
  1 32  1  0
  2 33  1  0
  2 34  1  0
  4 35  1  1
  5 36  1  0
  6 37  1  0
  7 38  1  0
  7 39  1  0
  7 40  1  0
  8 41  1  0
  9 42  1  0
 10 43  1  0
 11 44  1  0
 11 45  1  0
 12 46  1  0
 12 47  1  0
 14 48  1  1
 15 49  1  0
 16 50  1  0
 17 51  1  0
 17 52  1  0
 17 53  1  0
 18 54  1  0
 19 55  1  0
 20 56  1  0
 21 57  1  0
 21 58  1  0
 22 59  1  0
 22 60  1  0
 24 61  1  1
 25 62  1  0
 26 63  1  0
 27 64  1  0
 27 65  1  0
 27 66  1  0
 28 67  1  0
 29 68  1  0
 30 69  1  0
M  END
> <Uni-Dock RESULT> 
ENERGY=   -6.715  LOWER_BOUND=    2.057  UPPER_BOUND=    3.852
INTER + INTRA:          -6.715
INTER:                  -6.715
INTRA:                   0.000
UNBOUND:                 0.000

$$$$

     RDKit          3D

 69 69  0  0  0  0  0  0  0  0999 V2000
   46.9515    9.5504   20.6995 C   0  0  0  0  0  0  0  0  0  0  0  0
   47.4637    7.7718   22.3447 N   0  0  0  0  0  0  0  0  0  0  0  0
   47.2875   10.9246   20.1694 C   0  0  0  0  0  0  0  0  0  0  0  0
   47.9534    9.0239   21.7495 C   0  0  1  0  0  0  0  0  0  0  0  0
   47.1141   12.0591   20.9746 C   0  0  0  0  0  0  0  0  0  0  0  0
   47.7806   11.0854   18.8675 C   0  0  0  0  0  0  0  0  0  0  0  0
   49.3359    8.7595   21.1519 C   0  0  0  0  0  0  0  0  0  0  0  0
   47.4301   13.3281   20.4873 C   0  0  0  0  0  0  0  0  0  0  0  0
   48.0961   12.3556   18.3821 C   0  0  0  0  0  0  0  0  0  0  0  0
   47.9212   13.4761   19.1917 C   0  0  0  0  0  0  0  0  0  0  0  0
   47.1520    9.8112   21.2524 C   0  0  0  0  0  0  0  0  0  0  0  0
   49.4063    8.8190   20.7866 N   0  0  0  0  0  0  0  0  0  0  0  0
   47.4202   11.1558   20.6151 C   0  0  0  0  0  0  0  0  0  0  0  0
   47.9562    8.6510   20.6247 C   0  0  1  0  0  0  0  0  0  0  0  0
   46.9538   11.4368   19.3234 C   0  0  0  0  0  0  0  0  0  0  0  0
   48.1451   12.1382   21.3036 C   0  0  0  0  0  0  0  0  0  0  0  0
   47.5500    7.3211   21.2580 C   0  0  0  0  0  0  0  0  0  0  0  0
   48.4006   13.3754   20.7100 C   0  0  0  0  0  0  0  0  0  0  0  0
   47.2104   12.6745   18.7317 C   0  0  0  0  0  0  0  0  0  0  0  0
   47.9340   13.6430   19.4245 C   0  0  0  0  0  0  0  0  0  0  0  0
   48.8792    9.8711   21.3431 C   0  0  0  0  0  0  0  0  0  0  0  0
   46.8050    8.7838   22.2485 N   0  0  0  0  0  0  0  0  0  0  0  0
   48.3602   11.0952   20.6226 C   0  0  0  0  0  0  0  0  0  0  0  0
   47.9587    8.6277   21.3548 C   0  0  1  0  0  0  0  0  0  0  0  0
   47.3191   11.8608   21.1632 C   0  0  0  0  0  0  0  0  0  0  0  0
   48.9226   11.4898   19.3998 C   0  0  0  0  0  0  0  0  0  0  0  0
   47.4821    8.2255   19.9598 C   0  0  0  0  0  0  0  0  0  0  0  0
   46.8478   12.9929   20.4958 C   0  0  0  0  0  0  0  0  0  0  0  0
   48.4513   12.6227   18.7333 C   0  0  0  0  0  0  0  0  0  0  0  0
   47.4141   13.3740   19.2815 C   0  0  0  0  0  0  0  0  0  0  0  0
   46.8724    8.8392   19.8663 H   0  0  0  0  0  0  0  0  0  0  0  0
   45.9454    9.6019   21.1384 H   0  0  0  0  0  0  0  0  0  0  0  0
   47.3556    7.0635   21.6193 H   0  0  0  0  0  0  0  0  0  0  0  0
   46.5353    7.9196   22.7389 H   0  0  0  0  0  0  0  0  0  0  0  0
   48.0613    9.7542   22.5600 H   0  0  0  0  0  0  0  0  0  0  0  0
   46.7303   11.9609   21.9877 H   0  0  0  0  0  0  0  0  0  0  0  0
   47.9262   10.2219   18.2225 H   0  0  0  0  0  0  0  0  0  0  0  0
   49.2846    8.0531   20.3157 H   0  0  0  0  0  0  0  0  0  0  0  0
   50.0142    8.3418   21.9048 H   0  0  0  0  0  0  0  0  0  0  0  0
   49.7921    9.6850   20.7861 H   0  0  0  0  0  0  0  0  0  0  0  0
   47.2929   14.2017   21.1191 H   0  0  0  0  0  0  0  0  0  0  0  0
   48.4795   12.4705   17.3717 H   0  0  0  0  0  0  0  0  0  0  0  0
   48.1675   14.4644   18.8131 H   0  0  0  0  0  0  0  0  0  0  0  0
   46.0770    9.6044   21.1656 H   0  0  0  0  0  0  0  0  0  0  0  0
   47.3553    9.8659   22.3304 H   0  0  0  0  0  0  0  0  0  0  0  0
   49.6844    9.6952   20.3398 H   0  0  0  0  0  0  0  0  0  0  0  0
   49.6303    8.9345   21.7741 H   0  0  0  0  0  0  0  0  0  0  0  0
   47.7442    8.5951   19.5504 H   0  0  0  0  0  0  0  0  0  0  0  0
   46.3870   10.6921   18.7691 H   0  0  0  0  0  0  0  0  0  0  0  0
   48.5168   11.9470   22.3076 H   0  0  0  0  0  0  0  0  0  0  0  0
   47.7493    7.3098   22.3355 H   0  0  0  0  0  0  0  0  0  0  0  0
   48.0959    6.4865   20.8040 H   0  0  0  0  0  0  0  0  0  0  0  0
   46.4806    7.1345   21.1115 H   0  0  0  0  0  0  0  0  0  0  0  0
   48.9635   14.1314   21.2512 H   0  0  0  0  0  0  0  0  0  0  0  0
   46.8454   12.8828   17.7295 H   0  0  0  0  0  0  0  0  0  0  0  0
   48.1331   14.6066   18.9631 H   0  0  0  0  0  0  0  0  0  0  0  0
   49.8375    9.5775   20.8931 H   0  0  0  0  0  0  0  0  0  0  0  0
   49.1290   10.1571   22.3741 H   0  0  0  0  0  0  0  0  0  0  0  0
   47.1287    8.9293   23.2034 H   0  0  0  0  0  0  0  0  0  0  0  0
   46.2559    7.9255   22.2540 H   0  0  0  0  0  0  0  0  0  0  0  0
   48.5534    7.7959   21.7534 H   0  0  0  0  0  0  0  0  0  0  0  0
   46.8614   11.5728   22.1068 H   0  0  0  0  0  0  0  0  0  0  0  0
   49.7319   10.9156   18.9552 H   0  0  0  0  0  0  0  0  0  0  0  0
   48.3326    8.1032   19.2806 H   0  0  0  0  0  0  0  0  0  0  0  0
   46.9469    7.2697   19.9928 H   0  0  0  0  0  0  0  0  0  0  0  0
   46.8036    8.9686   19.5270 H   0  0  0  0  0  0  0  0  0  0  0  0
   46.0357   13.5737   20.9243 H   0  0  0  0  0  0  0  0  0  0  0  0
   48.8934   12.9177   17.7856 H   0  0  0  0  0  0  0  0  0  0  0  0
   47.0457   14.2543   18.7621 H   0  0  0  0  0  0  0  0  0  0  0  0
  4  2  1  0
  3  1  1  0
  4  1  1  0
  5  3  2  0
  6  3  1  0
  4  7  1  0
  8  5  1  0
  9  6  2  0
 10  8  2  0
  9 10  1  0
 12 14  1  0
 13 11  1  0
 14 11  1  0
 15 13  2  0
 16 13  1  0
 17 14  1  0
 18 16  2  0
 19 15  1  0
 20 18  1  0
 19 20  2  0
 24 22  1  0
 23 21  1  0
 24 21  1  0
 25 23  2  0
 26 23  1  0
 24 27  1  0
 28 25  1  0
 29 26  2  0
 30 28  2  0
 29 30  1  0
  1 31  1  0
  1 32  1  0
  2 33  1  0
  2 34  1  0
  4 35  1  1
  5 36  1  0
  6 37  1  0
  7 38  1  0
  7 39  1  0
  7 40  1  0
  8 41  1  0
  9 42  1  0
 10 43  1  0
 11 44  1  0
 11 45  1  0
 12 46  1  0
 12 47  1  0
 14 48  1  1
 15 49  1  0
 16 50  1  0
 17 51  1  0
 17 52  1  0
 17 53  1  0
 18 54  1  0
 19 55  1  0
 20 56  1  0
 21 57  1  0
 21 58  1  0
 22 59  1  0
 22 60  1  0
 24 61  1  1
 25 62  1  0
 26 63  1  0
 27 64  1  0
 27 65  1  0
 27 66  1  0
 28 67  1  0
 29 68  1  0
 30 69  1  0
M  END
> <Uni-Dock RESULT> 
ENERGY=   -6.463  LOWER_BOUND=   11.104  UPPER_BOUND=   12.732
INTER + INTRA:          -6.463
INTER:                  -6.463
INTRA:                   0.000
UNBOUND:                 0.000

$$$$

     RDKit          3D

 69 69  0  0  0  0  0  0  0  0999 V2000
   45.0340    6.4629   11.0986 C   0  0  0  0  0  0  0  0  0  0  0  0
   42.6955    5.6641   11.2594 N   0  0  0  0  0  0  0  0  0  0  0  0
   46.2039    7.1149   11.7976 C   0  0  0  0  0  0  0  0  0  0  0  0
   43.8553    6.1249   12.0367 C   0  0  1  0  0  0  0  0  0  0  0  0
   46.1160    8.4409   12.2441 C   0  0  0  0  0  0  0  0  0  0  0  0
   47.3919    6.4036   12.0132 C   0  0  0  0  0  0  0  0  0  0  0  0
   44.2131    5.0375   13.0504 C   0  0  0  0  0  0  0  0  0  0  0  0
   47.1944    9.0416   12.8953 C   0  0  0  0  0  0  0  0  0  0  0  0
   48.4693    7.0063   12.6648 C   0  0  0  0  0  0  0  0  0  0  0  0
   48.3703    8.3244   13.1057 C   0  0  0  0  0  0  0  0  0  0  0  0
   44.6988    6.8384   11.4993 C   0  0  0  0  0  0  0  0  0  0  0  0
   44.5545    4.8784   13.0551 N   0  0  0  0  0  0  0  0  0  0  0  0
   45.9450    7.4462   12.1024 C   0  0  0  0  0  0  0  0  0  0  0  0
   44.6167    5.3031   11.6505 C   0  0  1  0  0  0  0  0  0  0  0  0
   47.1956    7.2487   11.5011 C   0  0  0  0  0  0  0  0  0  0  0  0
   45.8687    8.2100   13.2751 C   0  0  0  0  0  0  0  0  0  0  0  0
   43.3828    4.7646   10.9277 C   0  0  0  0  0  0  0  0  0  0  0  0
   47.0213    8.7620   13.8363 C   0  0  0  0  0  0  0  0  0  0  0  0
   48.3469    7.8015   12.0639 C   0  0  0  0  0  0  0  0  0  0  0  0
   48.2598    8.5573   13.2313 C   0  0  0  0  0  0  0  0  0  0  0  0
   44.6381    6.1768   13.0972 C   0  0  0  0  0  0  0  0  0  0  0  0
   43.3146    6.6782   11.0233 N   0  0  0  0  0  0  0  0  0  0  0  0
   45.8985    6.9949   12.9279 C   0  0  0  0  0  0  0  0  0  0  0  0
   43.9832    5.6319   11.8058 C   0  0  1  0  0  0  0  0  0  0  0  0
   45.8496    8.2901   12.3964 C   0  0  0  0  0  0  0  0  0  0  0  0
   47.1415    6.4698   13.3109 C   0  0  0  0  0  0  0  0  0  0  0  0
   44.9631    4.8673   10.9170 C   0  0  0  0  0  0  0  0  0  0  0  0
   47.0161    9.0425   12.2474 C   0  0  0  0  0  0  0  0  0  0  0  0
   48.3077    7.2233   13.1624 C   0  0  0  0  0  0  0  0  0  0  0  0
   48.2447    8.5094   12.6308 C   0  0  0  0  0  0  0  0  0  0  0  0
   45.3703    5.5569   10.5767 H   0  0  0  0  0  0  0  0  0  0  0  0
   44.6963    7.1486   10.3091 H   0  0  0  0  0  0  0  0  0  0  0  0
   42.9418    4.8242   10.7364 H   0  0  0  0  0  0  0  0  0  0  0  0
   42.4457    6.3683   10.5660 H   0  0  0  0  0  0  0  0  0  0  0  0
   43.5483    7.0222   12.5866 H   0  0  0  0  0  0  0  0  0  0  0  0
   45.2057    9.0151   12.0864 H   0  0  0  0  0  0  0  0  0  0  0  0
   47.4861    5.3731   11.6784 H   0  0  0  0  0  0  0  0  0  0  0  0
   44.5542    4.1215   12.5547 H   0  0  0  0  0  0  0  0  0  0  0  0
   43.3472    4.7818   13.6719 H   0  0  0  0  0  0  0  0  0  0  0  0
   45.0064    5.3725   13.7263 H   0  0  0  0  0  0  0  0  0  0  0  0
   47.1168   10.0699   13.2384 H   0  0  0  0  0  0  0  0  0  0  0  0
   49.3862    6.4463   12.8291 H   0  0  0  0  0  0  0  0  0  0  0  0
   49.2095    8.7925   13.6132 H   0  0  0  0  0  0  0  0  0  0  0  0
   44.6733    7.1062   10.4345 H   0  0  0  0  0  0  0  0  0  0  0  0
   43.8084    7.3051   11.9417 H   0  0  0  0  0  0  0  0  0  0  0  0
   45.3925    5.2146   13.5342 H   0  0  0  0  0  0  0  0  0  0  0  0
   43.7731    5.3395   13.5189 H   0  0  0  0  0  0  0  0  0  0  0  0
   45.5034    4.8409   11.2005 H   0  0  0  0  0  0  0  0  0  0  0  0
   47.2812    6.6618   10.5893 H   0  0  0  0  0  0  0  0  0  0  0  0
   44.9107    8.3804   13.7609 H   0  0  0  0  0  0  0  0  0  0  0  0
   42.4583    5.1824   11.3418 H   0  0  0  0  0  0  0  0  0  0  0  0
   43.3262    3.6731   11.0066 H   0  0  0  0  0  0  0  0  0  0  0  0
   43.4187    5.0170    9.8624 H   0  0  0  0  0  0  0  0  0  0  0  0
   46.9530    9.3530   14.7460 H   0  0  0  0  0  0  0  0  0  0  0  0
   49.3124    7.6422   11.5909 H   0  0  0  0  0  0  0  0  0  0  0  0
   49.1568    8.9876   13.6686 H   0  0  0  0  0  0  0  0  0  0  0  0
   44.8586    5.3215   13.7507 H   0  0  0  0  0  0  0  0  0  0  0  0
   43.9088    6.7777   13.6576 H   0  0  0  0  0  0  0  0  0  0  0  0
   42.5756    7.1034   11.5808 H   0  0  0  0  0  0  0  0  0  0  0  0
   42.8639    6.2633   10.2091 H   0  0  0  0  0  0  0  0  0  0  0  0
   43.2019    4.9273   12.1187 H   0  0  0  0  0  0  0  0  0  0  0  0
   44.8994    8.7182   12.0856 H   0  0  0  0  0  0  0  0  0  0  0  0
   47.2112    5.4674   13.7264 H   0  0  0  0  0  0  0  0  0  0  0  0
   45.4695    4.0808   11.4867 H   0  0  0  0  0  0  0  0  0  0  0  0
   44.4378    4.3850   10.0849 H   0  0  0  0  0  0  0  0  0  0  0  0
   45.7275    5.5241   10.4880 H   0  0  0  0  0  0  0  0  0  0  0  0
   46.9636   10.0435   11.8283 H   0  0  0  0  0  0  0  0  0  0  0  0
   49.2653    6.8054   13.4608 H   0  0  0  0  0  0  0  0  0  0  0  0
   49.1522    9.0953   12.5131 H   0  0  0  0  0  0  0  0  0  0  0  0
  4  2  1  0
  3  1  1  0
  4  1  1  0
  5  3  2  0
  6  3  1  0
  4  7  1  0
  8  5  1  0
  9  6  2  0
 10  8  2  0
  9 10  1  0
 12 14  1  0
 13 11  1  0
 14 11  1  0
 15 13  2  0
 16 13  1  0
 17 14  1  0
 18 16  2  0
 19 15  1  0
 20 18  1  0
 19 20  2  0
 24 22  1  0
 23 21  1  0
 24 21  1  0
 25 23  2  0
 26 23  1  0
 24 27  1  0
 28 25  1  0
 29 26  2  0
 30 28  2  0
 29 30  1  0
  1 31  1  0
  1 32  1  0
  2 33  1  0
  2 34  1  0
  4 35  1  1
  5 36  1  0
  6 37  1  0
  7 38  1  0
  7 39  1  0
  7 40  1  0
  8 41  1  0
  9 42  1  0
 10 43  1  0
 11 44  1  0
 11 45  1  0
 12 46  1  0
 12 47  1  0
 14 48  1  1
 15 49  1  0
 16 50  1  0
 17 51  1  0
 17 52  1  0
 17 53  1  0
 18 54  1  0
 19 55  1  0
 20 56  1  0
 21 57  1  0
 21 58  1  0
 22 59  1  0
 22 60  1  0
 24 61  1  1
 25 62  1  0
 26 63  1  0
 27 64  1  0
 27 65  1  0
 27 66  1  0
 28 67  1  0
 29 68  1  0
 30 69  1  0
M  END
> <Uni-Dock RESULT> 
ENERGY=   -6.433  LOWER_BOUND=    2.867  UPPER_BOUND=    4.376
INTER + INTRA:          -6.433
INTER:                  -6.433
INTRA:                   0.000
UNBOUND:                 0.000

$$$$

     RDKit          3D

 69 69  0  0  0  0  0  0  0  0999 V2000
   47.5084    9.2091   18.4620 C   0  0  0  0  0  0  0  0  0  0  0  0
   47.8734    6.7945   18.8729 N   0  0  0  0  0  0  0  0  0  0  0  0
   47.5367   10.6112   19.0239 C   0  0  0  0  0  0  0  0  0  0  0  0
   48.1003    8.1442   19.4102 C   0  0  1  0  0  0  0  0  0  0  0  0
   46.6664   10.9797   20.0594 C   0  0  0  0  0  0  0  0  0  0  0  0
   48.4349   11.5624   18.5216 C   0  0  0  0  0  0  0  0  0  0  0  0
   49.6035    8.3268   19.6227 C   0  0  0  0  0  0  0  0  0  0  0  0
   46.6965   12.2730   20.5829 C   0  0  0  0  0  0  0  0  0  0  0  0
   48.4634   12.8554   19.0467 C   0  0  0  0  0  0  0  0  0  0  0  0
   47.5949   13.2103   20.0769 C   0  0  0  0  0  0  0  0  0  0  0  0
   47.3589    9.0629   19.0704 C   0  0  0  0  0  0  0  0  0  0  0  0
   49.7933    8.6043   19.4528 N   0  0  0  0  0  0  0  0  0  0  0  0
   47.3846   10.5094   19.5099 C   0  0  0  0  0  0  0  0  0  0  0  0
   48.6962    8.5667   18.4771 C   0  0  1  0  0  0  0  0  0  0  0  0
   47.4285   11.5406   18.5615 C   0  0  0  0  0  0  0  0  0  0  0  0
   47.3720   10.8401   20.8720 C   0  0  0  0  0  0  0  0  0  0  0  0
   48.5508    7.1332   17.9685 C   0  0  0  0  0  0  0  0  0  0  0  0
   47.4060   12.1755   21.2763 C   0  0  0  0  0  0  0  0  0  0  0  0
   47.4625   12.8753   18.9680 C   0  0  0  0  0  0  0  0  0  0  0  0
   47.4518   13.1925   20.3248 C   0  0  0  0  0  0  0  0  0  0  0  0
   48.7562    9.0639   20.0914 C   0  0  0  0  0  0  0  0  0  0  0  0
   47.0090    7.6348   18.9917 N   0  0  0  0  0  0  0  0  0  0  0  0
   48.1945   10.4641   19.9888 C   0  0  0  0  0  0  0  0  0  0  0  0
   48.4045    8.0869   18.9444 C   0  0  1  0  0  0  0  0  0  0  0  0
   46.8296   10.7082   20.1883 C   0  0  0  0  0  0  0  0  0  0  0  0
   49.0378   11.5469   19.6994 C   0  0  0  0  0  0  0  0  0  0  0  0
   48.7182    8.6542   17.5607 C   0  0  0  0  0  0  0  0  0  0  0  0
   46.3179   12.0040   20.0974 C   0  0  0  0  0  0  0  0  0  0  0  0
   48.5254   12.8428   19.6095 C   0  0  0  0  0  0  0  0  0  0  0  0
   47.1657   13.0710   19.8086 C   0  0  0  0  0  0  0  0  0  0  0  0
   48.0314    9.1846   17.4965 H   0  0  0  0  0  0  0  0  0  0  0  0
   46.4613    8.9646   18.2353 H   0  0  0  0  0  0  0  0  0  0  0  0
   48.3264    6.7038   17.9640 H   0  0  0  0  0  0  0  0  0  0  0  0
   46.8771    6.6534   18.7098 H   0  0  0  0  0  0  0  0  0  0  0  0
   47.6043    8.1982   20.3863 H   0  0  0  0  0  0  0  0  0  0  0  0
   45.9581   10.2604   20.4647 H   0  0  0  0  0  0  0  0  0  0  0  0
   49.1220   11.3023   17.7196 H   0  0  0  0  0  0  0  0  0  0  0  0
   50.1496    8.3080   18.6728 H   0  0  0  0  0  0  0  0  0  0  0  0
   50.0080    7.5318   20.2597 H   0  0  0  0  0  0  0  0  0  0  0  0
   49.8200    9.2782   20.1192 H   0  0  0  0  0  0  0  0  0  0  0  0
   46.0184   12.5493   21.3861 H   0  0  0  0  0  0  0  0  0  0  0  0
   49.1645   13.5861   18.6519 H   0  0  0  0  0  0  0  0  0  0  0  0
   47.6181   14.2171   20.4853 H   0  0  0  0  0  0  0  0  0  0  0  0
   46.5601    8.9502   18.3252 H   0  0  0  0  0  0  0  0  0  0  0  0
   47.0658    8.4250   19.9151 H   0  0  0  0  0  0  0  0  0  0  0  0
   49.9101    9.5676   19.7742 H   0  0  0  0  0  0  0  0  0  0  0  0
   49.5341    8.0710   20.2816 H   0  0  0  0  0  0  0  0  0  0  0  0
   48.9809    9.2013   17.6294 H   0  0  0  0  0  0  0  0  0  0  0  0
   47.4368   11.3104   17.4985 H   0  0  0  0  0  0  0  0  0  0  0  0
   47.3361   10.0596   21.6285 H   0  0  0  0  0  0  0  0  0  0  0  0
   48.2772    6.4444   18.7757 H   0  0  0  0  0  0  0  0  0  0  0  0
   49.4864    6.7775   17.5224 H   0  0  0  0  0  0  0  0  0  0  0  0
   47.7745    7.0739   17.1979 H   0  0  0  0  0  0  0  0  0  0  0  0
   47.3959   12.4228   22.3347 H   0  0  0  0  0  0  0  0  0  0  0  0
   47.4972   13.6680   18.2253 H   0  0  0  0  0  0  0  0  0  0  0  0
   47.4780   14.2321   20.6404 H   0  0  0  0  0  0  0  0  0  0  0  0
   49.8511    9.1276   20.1568 H   0  0  0  0  0  0  0  0  0  0  0  0
   48.4420    8.6352   21.0529 H   0  0  0  0  0  0  0  0  0  0  0  0
   46.8369    7.1459   19.8686 H   0  0  0  0  0  0  0  0  0  0  0  0
   46.8401    6.9626   18.2447 H   0  0  0  0  0  0  0  0  0  0  0  0
   49.0278    7.1945   19.0848 H   0  0  0  0  0  0  0  0  0  0  0  0
   46.1532    9.8853   20.4075 H   0  0  0  0  0  0  0  0  0  0  0  0
   50.1017   11.3888   19.5394 H   0  0  0  0  0  0  0  0  0  0  0  0
   49.7579    8.9948   17.5087 H   0  0  0  0  0  0  0  0  0  0  0  0
   48.5832    7.8893   16.7876 H   0  0  0  0  0  0  0  0  0  0  0  0
   48.0691    9.4989   17.3058 H   0  0  0  0  0  0  0  0  0  0  0  0
   45.2561   12.1774   20.2488 H   0  0  0  0  0  0  0  0  0  0  0  0
   49.1879   13.6736   19.3830 H   0  0  0  0  0  0  0  0  0  0  0  0
   46.7662   14.0788   19.7366 H   0  0  0  0  0  0  0  0  0  0  0  0
  4  2  1  0
  3  1  1  0
  4  1  1  0
  5  3  2  0
  6  3  1  0
  4  7  1  0
  8  5  1  0
  9  6  2  0
 10  8  2  0
  9 10  1  0
 12 14  1  0
 13 11  1  0
 14 11  1  0
 15 13  2  0
 16 13  1  0
 17 14  1  0
 18 16  2  0
 19 15  1  0
 20 18  1  0
 19 20  2  0
 24 22  1  0
 23 21  1  0
 24 21  1  0
 25 23  2  0
 26 23  1  0
 24 27  1  0
 28 25  1  0
 29 26  2  0
 30 28  2  0
 29 30  1  0
  1 31  1  0
  1 32  1  0
  2 33  1  0
  2 34  1  0
  4 35  1  1
  5 36  1  0
  6 37  1  0
  7 38  1  0
  7 39  1  0
  7 40  1  0
  8 41  1  0
  9 42  1  0
 10 43  1  0
 11 44  1  0
 11 45  1  0
 12 46  1  0
 12 47  1  0
 14 48  1  1
 15 49  1  0
 16 50  1  0
 17 51  1  0
 17 52  1  0
 17 53  1  0
 18 54  1  0
 19 55  1  0
 20 56  1  0
 21 57  1  0
 21 58  1  0
 22 59  1  0
 22 60  1  0
 24 61  1  1
 25 62  1  0
 26 63  1  0
 27 64  1  0
 27 65  1  0
 27 66  1  0
 28 67  1  0
 29 68  1  0
 30 69  1  0
M  END
> <Uni-Dock RESULT> 
ENERGY=   -6.287  LOWER_BOUND=    9.467  UPPER_BOUND=   11.509
INTER + INTRA:          -6.287
INTER:                  -6.287
INTRA:                   0.000
UNBOUND:                 0.000

$$$$
