
     RDKit          3D

 69 69  0  0  0  0  0  0  0  0999 V2000
   44.5978    3.6849    8.3946 C   0  0  0  0  0  0  0  0  0  0  0  0
   45.6652    5.6563    9.4909 N   0  0  0  0  0  0  0  0  0  0  0  0
   45.7497    2.9951    7.6993 C   0  0  0  0  0  0  0  0  0  0  0  0
   44.9947    4.3690    9.7215 C   0  0  1  0  0  0  0  0  0  0  0  0
   45.9330    1.6113    7.8305 C   0  0  0  0  0  0  0  0  0  0  0  0
   46.6576    3.7272    6.9234 C   0  0  0  0  0  0  0  0  0  0  0  0
   43.7566    4.6088   10.5879 C   0  0  0  0  0  0  0  0  0  0  0  0
   46.9975    0.9735    7.1907 C   0  0  0  0  0  0  0  0  0  0  0  0
   47.7222    3.0886    6.2850 C   0  0  0  0  0  0  0  0  0  0  0  0
   47.8910    1.7119    6.4173 C   0  0  0  0  0  0  0  0  0  0  0  0
   44.7097    3.4162    8.8357 C   0  0  0  0  0  0  0  0  0  0  0  0
   45.6589    5.6689    9.3903 N   0  0  0  0  0  0  0  0  0  0  0  0
   45.8200    2.9854    7.9039 C   0  0  0  0  0  0  0  0  0  0  0  0
   45.1652    4.3984    9.9377 C   0  0  1  0  0  0  0  0  0  0  0  0
   46.8315    2.1250    8.3522 C   0  0  0  0  0  0  0  0  0  0  0  0
   45.8574    3.4458    6.5805 C   0  0  0  0  0  0  0  0  0  0  0  0
   44.0087    4.6996   10.8900 C   0  0  0  0  0  0  0  0  0  0  0  0
   46.8885    3.0553    5.7245 C   0  0  0  0  0  0  0  0  0  0  0  0
   47.8617    1.7361    7.4946 C   0  0  0  0  0  0  0  0  0  0  0  0
   47.8903    2.2014    6.1816 C   0  0  0  0  0  0  0  0  0  0  0  0
   44.6134    3.8059    8.3793 C   0  0  0  0  0  0  0  0  0  0  0  0
   45.9036    5.6432    9.4687 N   0  0  0  0  0  0  0  0  0  0  0  0
   45.6785    2.9759    7.6991 C   0  0  0  0  0  0  0  0  0  0  0  0
   45.0803    4.4488    9.7039 C   0  0  1  0  0  0  0  0  0  0  0  0
   46.6727    3.5860    6.9234 C   0  0  0  0  0  0  0  0  0  0  0  0
   45.6937    1.5814    7.8444 C   0  0  0  0  0  0  0  0  0  0  0  0
   43.8740    4.8446   10.5578 C   0  0  0  0  0  0  0  0  0  0  0  0
   47.6572    2.8181    6.2992 C   0  0  0  0  0  0  0  0  0  0  0  0
   46.6782    0.8142    7.2186 C   0  0  0  0  0  0  0  0  0  0  0  0
   47.6588    1.4325    6.4454 C   0  0  0  0  0  0  0  0  0  0  0  0
   44.1382    4.4070    7.7061 H   0  0  0  0  0  0  0  0  0  0  0  0
   43.8166    2.9371    8.5870 H   0  0  0  0  0  0  0  0  0  0  0  0
   45.0195    6.3092    9.0495 H   0  0  0  0  0  0  0  0  0  0  0  0
   45.9229    6.0707   10.3857 H   0  0  0  0  0  0  0  0  0  0  0  0
   45.6824    3.7202   10.2772 H   0  0  0  0  0  0  0  0  0  0  0  0
   45.2471    1.0199    8.4322 H   0  0  0  0  0  0  0  0  0  0  0  0
   46.5442    4.8044    6.8225 H   0  0  0  0  0  0  0  0  0  0  0  0
   44.0258    5.0865   11.5367 H   0  0  0  0  0  0  0  0  0  0  0  0
   43.2626    3.6607   10.8264 H   0  0  0  0  0  0  0  0  0  0  0  0
   43.0279    5.2501   10.0794 H   0  0  0  0  0  0  0  0  0  0  0  0
   47.1304   -0.0996    7.2976 H   0  0  0  0  0  0  0  0  0  0  0  0
   48.4218    3.6685    5.6893 H   0  0  0  0  0  0  0  0  0  0  0  0
   48.7209    1.2159    5.9216 H   0  0  0  0  0  0  0  0  0  0  0  0
   44.2869    2.5138    9.2975 H   0  0  0  0  0  0  0  0  0  0  0  0
   43.8908    3.8609    8.2544 H   0  0  0  0  0  0  0  0  0  0  0  0
   46.4501    5.4719    8.7739 H   0  0  0  0  0  0  0  0  0  0  0  0
   44.9462    6.0853    8.7929 H   0  0  0  0  0  0  0  0  0  0  0  0
   45.9771    3.9474   10.5203 H   0  0  0  0  0  0  0  0  0  0  0  0
   46.8238    1.7520    9.3741 H   0  0  0  0  0  0  0  0  0  0  0  0
   45.0839    4.1126    6.2065 H   0  0  0  0  0  0  0  0  0  0  0  0
   43.1660    5.1653   10.3667 H   0  0  0  0  0  0  0  0  0  0  0  0
   43.6459    3.7790   11.3598 H   0  0  0  0  0  0  0  0  0  0  0  0
   44.3255    5.3765   11.6913 H   0  0  0  0  0  0  0  0  0  0  0  0
   46.9097    3.4171    4.6998 H   0  0  0  0  0  0  0  0  0  0  0  0
   48.6422    1.0692    7.8516 H   0  0  0  0  0  0  0  0  0  0  0  0
   48.6926    1.8977    5.5144 H   0  0  0  0  0  0  0  0  0  0  0  0
   43.7463    3.1595    8.5712 H   0  0  0  0  0  0  0  0  0  0  0  0
   44.2492    4.5719    7.6813 H   0  0  0  0  0  0  0  0  0  0  0  0
   46.2029    6.0314   10.3622 H   0  0  0  0  0  0  0  0  0  0  0  0
   45.3451    6.3656    9.0164 H   0  0  0  0  0  0  0  0  0  0  0  0
   45.6803    3.7265   10.2707 H   0  0  0  0  0  0  0  0  0  0  0  0
   46.6902    4.6680    6.8118 H   0  0  0  0  0  0  0  0  0  0  0  0
   44.9380    1.0826    8.4463 H   0  0  0  0  0  0  0  0  0  0  0  0
   43.2322    5.5649   10.0379 H   0  0  0  0  0  0  0  0  0  0  0  0
   44.1919    5.2947   11.5050 H   0  0  0  0  0  0  0  0  0  0  0  0
   43.2669    3.9654   10.7995 H   0  0  0  0  0  0  0  0  0  0  0  0
   48.4251    3.3040    5.7035 H   0  0  0  0  0  0  0  0  0  0  0  0
   46.6808   -0.2659    7.3364 H   0  0  0  0  0  0  0  0  0  0  0  0
   48.4264    0.8357    5.9605 H   0  0  0  0  0  0  0  0  0  0  0  0
  4  2  1  0
  3  1  1  0
  4  1  1  0
  5  3  2  0
  6  3  1  0
  4  7  1  0
  8  5  1  0
  9  6  2  0
 10  8  2  0
  9 10  1  0
 12 14  1  0
 13 11  1  0
 14 11  1  0
 15 13  2  0
 16 13  1  0
 17 14  1  0
 18 16  2  0
 19 15  1  0
 20 18  1  0
 19 20  2  0
 24 22  1  0
 23 21  1  0
 24 21  1  0
 25 23  2  0
 26 23  1  0
 24 27  1  0
 28 25  1  0
 29 26  2  0
 30 28  2  0
 29 30  1  0
  1 31  1  0
  1 32  1  0
  2 33  1  0
  2 34  1  0
  4 35  1  1
  5 36  1  0
  6 37  1  0
  7 38  1  0
  7 39  1  0
  7 40  1  0
  8 41  1  0
  9 42  1  0
 10 43  1  0
 11 44  1  0
 11 45  1  0
 12 46  1  0
 12 47  1  0
 14 48  1  1
 15 49  1  0
 16 50  1  0
 17 51  1  0
 17 52  1  0
 17 53  1  0
 18 54  1  0
 19 55  1  0
 20 56  1  0
 21 57  1  0
 21 58  1  0
 22 59  1  0
 22 60  1  0
 24 61  1  1
 25 62  1  0
 26 63  1  0
 27 64  1  0
 27 65  1  0
 27 66  1  0
 28 67  1  0
 29 68  1  0
 30 69  1  0
M  END
> <Uni-Dock RESULT> 
ENERGY=  -13.105  LOWER_BOUND=    0.000  UPPER_BOUND=    0.000
INTER + INTRA:         -13.105
INTER:                 -13.105
INTRA:                   0.000
UNBOUND:                 0.000

$$$$

     RDKit          3D

 69 69  0  0  0  0  0  0  0  0999 V2000
   45.7497    2.9135    6.9840 C   0  0  0  0  0  0  0  0  0  0  0  0
   47.4216    1.0903    7.3132 N   0  0  0  0  0  0  0  0  0  0  0  0
   45.3050    3.2492    8.3897 C   0  0  0  0  0  0  0  0  0  0  0  0
   47.2304    2.4841    6.8881 C   0  0  1  0  0  0  0  0  0  0  0  0
   45.2469    4.5832    8.8172 C   0  0  0  0  0  0  0  0  0  0  0  0
   44.9553    2.2344    9.2899 C   0  0  0  0  0  0  0  0  0  0  0  0
   47.7358    2.6329    5.4517 C   0  0  0  0  0  0  0  0  0  0  0  0
   44.8385    4.8942   10.1156 C   0  0  0  0  0  0  0  0  0  0  0  0
   44.5482    2.5466   10.5882 C   0  0  0  0  0  0  0  0  0  0  0  0
   44.4883    3.8762   11.0003 C   0  0  0  0  0  0  0  0  0  0  0  0
   46.1522    3.2520    7.0360 C   0  0  0  0  0  0  0  0  0  0  0  0
   47.3270    1.0572    7.3296 N   0  0  0  0  0  0  0  0  0  0  0  0
   45.5165    3.2925    8.4073 C   0  0  0  0  0  0  0  0  0  0  0  0
   47.4879    2.4770    6.9896 C   0  0  1  0  0  0  0  0  0  0  0  0
   46.0820    4.0646    9.4313 C   0  0  0  0  0  0  0  0  0  0  0  0
   44.3563    2.5533    8.6763 C   0  0  0  0  0  0  0  0  0  0  0  0
   48.1080    2.5729    5.5963 C   0  0  0  0  0  0  0  0  0  0  0  0
   43.7763    2.5837    9.9455 C   0  0  0  0  0  0  0  0  0  0  0  0
   45.5005    4.0934   10.6997 C   0  0  0  0  0  0  0  0  0  0  0  0
   44.3485    3.3529   10.9567 C   0  0  0  0  0  0  0  0  0  0  0  0
   45.7601    2.7912    6.9775 C   0  0  0  0  0  0  0  0  0  0  0  0
   47.4662    1.0615    7.5470 N   0  0  0  0  0  0  0  0  0  0  0  0
   45.2813    3.2785    8.3264 C   0  0  0  0  0  0  0  0  0  0  0  0
   47.2517    2.3903    6.9569 C   0  0  1  0  0  0  0  0  0  0  0  0
   44.9358    2.3681    9.3335 C   0  0  0  0  0  0  0  0  0  0  0  0
   45.1868    4.6517    8.5935 C   0  0  0  0  0  0  0  0  0  0  0  0
   47.7807    2.3811    5.5213 C   0  0  0  0  0  0  0  0  0  0  0  0
   44.4973    2.8203   10.5791 C   0  0  0  0  0  0  0  0  0  0  0  0
   44.7470    5.1028    9.8395 C   0  0  0  0  0  0  0  0  0  0  0  0
   44.4013    4.1872   10.8315 C   0  0  0  0  0  0  0  0  0  0  0  0
   45.0912    2.1374    6.5706 H   0  0  0  0  0  0  0  0  0  0  0  0
   45.5821    3.7961    6.3520 H   0  0  0  0  0  0  0  0  0  0  0  0
   46.9316    0.4636    6.6766 H   0  0  0  0  0  0  0  0  0  0  0  0
   48.4093    0.8475    7.2488 H   0  0  0  0  0  0  0  0  0  0  0  0
   47.8409    3.1255    7.5352 H   0  0  0  0  0  0  0  0  0  0  0  0
   45.5192    5.3900    8.1412 H   0  0  0  0  0  0  0  0  0  0  0  0
   45.0100    1.1918    8.9845 H   0  0  0  0  0  0  0  0  0  0  0  0
   48.7885    2.3391    5.3716 H   0  0  0  0  0  0  0  0  0  0  0  0
   47.6597    3.6745    5.1214 H   0  0  0  0  0  0  0  0  0  0  0  0
   47.1569    2.0154    4.7556 H   0  0  0  0  0  0  0  0  0  0  0  0
   44.7957    5.9312   10.4371 H   0  0  0  0  0  0  0  0  0  0  0  0
   44.2835    1.7499   11.2780 H   0  0  0  0  0  0  0  0  0  0  0  0
   44.1730    4.1181   12.0115 H   0  0  0  0  0  0  0  0  0  0  0  0
   46.3148    4.2875    6.7081 H   0  0  0  0  0  0  0  0  0  0  0  0
   45.4457    2.8217    6.3134 H   0  0  0  0  0  0  0  0  0  0  0  0
   46.9374    0.9905    8.2722 H   0  0  0  0  0  0  0  0  0  0  0  0
   46.6307    0.6344    6.7174 H   0  0  0  0  0  0  0  0  0  0  0  0
   48.1926    2.9146    7.7065 H   0  0  0  0  0  0  0  0  0  0  0  0
   46.9809    4.6490    9.2474 H   0  0  0  0  0  0  0  0  0  0  0  0
   43.8959    1.9475    7.8992 H   0  0  0  0  0  0  0  0  0  0  0  0
   47.4529    2.1388    4.8325 H   0  0  0  0  0  0  0  0  0  0  0  0
   48.2922    3.6185    5.3269 H   0  0  0  0  0  0  0  0  0  0  0  0
   49.0688    2.0475    5.5566 H   0  0  0  0  0  0  0  0  0  0  0  0
   42.8767    2.0074   10.1452 H   0  0  0  0  0  0  0  0  0  0  0  0
   45.9468    4.6944   11.4878 H   0  0  0  0  0  0  0  0  0  0  0  0
   43.8961    3.3763   11.9446 H   0  0  0  0  0  0  0  0  0  0  0  0
   45.5848    3.5892    6.2433 H   0  0  0  0  0  0  0  0  0  0  0  0
   45.1274    1.9560    6.6477 H   0  0  0  0  0  0  0  0  0  0  0  0
   48.4603    0.8373    7.5278 H   0  0  0  0  0  0  0  0  0  0  0  0
   47.0026    0.3521    6.9812 H   0  0  0  0  0  0  0  0  0  0  0  0
   47.8352    3.1183    7.5334 H   0  0  0  0  0  0  0  0  0  0  0  0
   45.0185    1.2984    9.1536 H   0  0  0  0  0  0  0  0  0  0  0  0
   45.4550    5.3801    7.8322 H   0  0  0  0  0  0  0  0  0  0  0  0
   47.2292    1.6716    4.8941 H   0  0  0  0  0  0  0  0  0  0  0  0
   48.8411    2.1061    5.4935 H   0  0  0  0  0  0  0  0  0  0  0  0
   47.6871    3.3743    5.0689 H   0  0  0  0  0  0  0  0  0  0  0  0
   44.2362    2.1037   11.3531 H   0  0  0  0  0  0  0  0  0  0  0  0
   44.6761    6.1690   10.0365 H   0  0  0  0  0  0  0  0  0  0  0  0
   44.0616    4.5382   11.8019 H   0  0  0  0  0  0  0  0  0  0  0  0
  4  2  1  0
  3  1  1  0
  4  1  1  0
  5  3  2  0
  6  3  1  0
  4  7  1  0
  8  5  1  0
  9  6  2  0
 10  8  2  0
  9 10  1  0
 12 14  1  0
 13 11  1  0
 14 11  1  0
 15 13  2  0
 16 13  1  0
 17 14  1  0
 18 16  2  0
 19 15  1  0
 20 18  1  0
 19 20  2  0
 24 22  1  0
 23 21  1  0
 24 21  1  0
 25 23  2  0
 26 23  1  0
 24 27  1  0
 28 25  1  0
 29 26  2  0
 30 28  2  0
 29 30  1  0
  1 31  1  0
  1 32  1  0
  2 33  1  0
  2 34  1  0
  4 35  1  1
  5 36  1  0
  6 37  1  0
  7 38  1  0
  7 39  1  0
  7 40  1  0
  8 41  1  0
  9 42  1  0
 10 43  1  0
 11 44  1  0
 11 45  1  0
 12 46  1  0
 12 47  1  0
 14 48  1  1
 15 49  1  0
 16 50  1  0
 17 51  1  0
 17 52  1  0
 17 53  1  0
 18 54  1  0
 19 55  1  0
 20 56  1  0
 21 57  1  0
 21 58  1  0
 22 59  1  0
 22 60  1  0
 24 61  1  1
 25 62  1  0
 26 63  1  0
 27 64  1  0
 27 65  1  0
 27 66  1  0
 28 67  1  0
 29 68  1  0
 30 69  1  0
M  END
> <Uni-Dock RESULT> 
ENERGY=  -12.341  LOWER_BOUND=    1.926  UPPER_BOUND=    4.554
INTER + INTRA:         -12.341
INTER:                 -12.341
INTRA:                   0.000
UNBOUND:                 0.000

$$$$
