
     RDKit          3D

 69 69  0  0  0  0  0  0  0  0999 V2000
   43.5825    4.4839   10.3142 C   0  0  0  0  0  0  0  0  0  0  0  0
   43.4138    5.7488   12.4364 N   0  0  0  0  0  0  0  0  0  0  0  0
   44.4852    3.8410    9.2876 C   0  0  0  0  0  0  0  0  0  0  0  0
   44.3237    4.9803   11.5743 C   0  0  1  0  0  0  0  0  0  0  0  0
   44.4623    2.4541    9.0872 C   0  0  0  0  0  0  0  0  0  0  0  0
   45.3622    4.6228    8.5229 C   0  0  0  0  0  0  0  0  0  0  0  0
   44.9036    3.8299   12.3981 C   0  0  0  0  0  0  0  0  0  0  0  0
   45.3019    1.8616    8.1424 C   0  0  0  0  0  0  0  0  0  0  0  0
   46.2008    4.0285    7.5787 C   0  0  0  0  0  0  0  0  0  0  0  0
   46.1708    2.6484    7.3889 C   0  0  0  0  0  0  0  0  0  0  0  0
   43.6454    4.3079   10.2551 C   0  0  0  0  0  0  0  0  0  0  0  0
   45.2564    5.7617   11.4827 N   0  0  0  0  0  0  0  0  0  0  0  0
   44.6214    3.6572    9.3001 C   0  0  0  0  0  0  0  0  0  0  0  0
   44.2729    4.6793   11.6155 C   0  0  1  0  0  0  0  0  0  0  0  0
   44.9639    2.3056    9.4434 C   0  0  0  0  0  0  0  0  0  0  0  0
   45.2098    4.4019    8.2690 C   0  0  0  0  0  0  0  0  0  0  0  0
   43.1905    5.1257   12.5969 C   0  0  0  0  0  0  0  0  0  0  0  0
   46.1213    3.8056    7.3967 C   0  0  0  0  0  0  0  0  0  0  0  0
   45.8753    1.7109    8.5695 C   0  0  0  0  0  0  0  0  0  0  0  0
   46.4537    2.4606    7.5468 C   0  0  0  0  0  0  0  0  0  0  0  0
   45.7853    4.6682    9.3412 C   0  0  0  0  0  0  0  0  0  0  0  0
   44.3698    3.0617    8.0594 N   0  0  0  0  0  0  0  0  0  0  0  0
   45.0267    4.8599   10.6351 C   0  0  0  0  0  0  0  0  0  0  0  0
   45.6538    3.2472    8.7500 C   0  0  1  0  0  0  0  0  0  0  0  0
   45.6908    4.7778   11.8672 C   0  0  0  0  0  0  0  0  0  0  0  0
   43.6484    5.1106   10.6247 C   0  0  0  0  0  0  0  0  0  0  0  0
   46.7876    2.9758    7.7591 C   0  0  0  0  0  0  0  0  0  0  0  0
   44.9908    4.9523   13.0626 C   0  0  0  0  0  0  0  0  0  0  0  0
   42.9496    5.2839   11.8205 C   0  0  0  0  0  0  0  0  0  0  0  0
   43.6209    5.2064   13.0390 C   0  0  0  0  0  0  0  0  0  0  0  0
   43.0736    5.3265    9.8258 H   0  0  0  0  0  0  0  0  0  0  0  0
   42.7851    3.7843   10.5987 H   0  0  0  0  0  0  0  0  0  0  0  0
   43.0034    6.5156   11.9046 H   0  0  0  0  0  0  0  0  0  0  0  0
   42.6366    5.1587   12.7315 H   0  0  0  0  0  0  0  0  0  0  0  0
   45.1450    5.6462   11.2849 H   0  0  0  0  0  0  0  0  0  0  0  0
   43.7926    1.8241    9.6682 H   0  0  0  0  0  0  0  0  0  0  0  0
   45.3971    5.7017    8.6578 H   0  0  0  0  0  0  0  0  0  0  0  0
   44.1273    3.1151   12.6937 H   0  0  0  0  0  0  0  0  0  0  0  0
   45.3821    4.2043   13.3103 H   0  0  0  0  0  0  0  0  0  0  0  0
   45.6680    3.2858   11.8340 H   0  0  0  0  0  0  0  0  0  0  0  0
   45.2784    0.7851    7.9950 H   0  0  0  0  0  0  0  0  0  0  0  0
   46.8778    4.6428    6.9911 H   0  0  0  0  0  0  0  0  0  0  0  0
   46.8242    2.1862    6.6539 H   0  0  0  0  0  0  0  0  0  0  0  0
   42.8095    3.6126   10.4103 H   0  0  0  0  0  0  0  0  0  0  0  0
   43.2024    5.1964    9.7852 H   0  0  0  0  0  0  0  0  0  0  0  0
   45.7106    5.9201   12.3812 H   0  0  0  0  0  0  0  0  0  0  0  0
   45.9943    5.4576   10.8451 H   0  0  0  0  0  0  0  0  0  0  0  0
   44.7812    3.8033   12.0369 H   0  0  0  0  0  0  0  0  0  0  0  0
   44.5203    1.7074   10.2359 H   0  0  0  0  0  0  0  0  0  0  0  0
   44.9621    5.4542    8.1440 H   0  0  0  0  0  0  0  0  0  0  0  0
   42.6551    6.0090   12.2309 H   0  0  0  0  0  0  0  0  0  0  0  0
   42.4567    4.3274   12.7519 H   0  0  0  0  0  0  0  0  0  0  0  0
   43.6212    5.3714   13.5742 H   0  0  0  0  0  0  0  0  0  0  0  0
   46.5715    4.3915    6.5996 H   0  0  0  0  0  0  0  0  0  0  0  0
   46.1336    0.6617    8.6860 H   0  0  0  0  0  0  0  0  0  0  0  0
   47.1625    1.9967    6.8662 H   0  0  0  0  0  0  0  0  0  0  0  0
   46.8445    4.8904    9.5293 H   0  0  0  0  0  0  0  0  0  0  0  0
   45.4599    5.4245    8.6141 H   0  0  0  0  0  0  0  0  0  0  0  0
   44.3180    3.6808    7.2518 H   0  0  0  0  0  0  0  0  0  0  0  0
   44.3139    2.1116    7.6947 H   0  0  0  0  0  0  0  0  0  0  0  0
   45.7181    2.5069    9.5566 H   0  0  0  0  0  0  0  0  0  0  0  0
   46.7588    4.5775   11.9044 H   0  0  0  0  0  0  0  0  0  0  0  0
   43.1104    5.1609    9.6806 H   0  0  0  0  0  0  0  0  0  0  0  0
   47.7609    3.0508    8.2560 H   0  0  0  0  0  0  0  0  0  0  0  0
   46.7107    1.9671    7.3383 H   0  0  0  0  0  0  0  0  0  0  0  0
   46.7767    3.6918    6.9295 H   0  0  0  0  0  0  0  0  0  0  0  0
   45.5146    4.8880   14.0124 H   0  0  0  0  0  0  0  0  0  0  0  0
   41.8801    5.4738   11.7989 H   0  0  0  0  0  0  0  0  0  0  0  0
   43.0757    5.3396   13.9693 H   0  0  0  0  0  0  0  0  0  0  0  0
  4  2  1  0
  3  1  1  0
  4  1  1  0
  5  3  2  0
  6  3  1  0
  4  7  1  0
  8  5  1  0
  9  6  2  0
 10  8  2  0
  9 10  1  0
 12 14  1  0
 13 11  1  0
 14 11  1  0
 15 13  2  0
 16 13  1  0
 17 14  1  0
 18 16  2  0
 19 15  1  0
 20 18  1  0
 19 20  2  0
 24 22  1  0
 23 21  1  0
 24 21  1  0
 25 23  2  0
 26 23  1  0
 24 27  1  0
 28 25  1  0
 29 26  2  0
 30 28  2  0
 29 30  1  0
  1 31  1  0
  1 32  1  0
  2 33  1  0
  2 34  1  0
  4 35  1  6
  5 36  1  0
  6 37  1  0
  7 38  1  0
  7 39  1  0
  7 40  1  0
  8 41  1  0
  9 42  1  0
 10 43  1  0
 11 44  1  0
 11 45  1  0
 12 46  1  0
 12 47  1  0
 14 48  1  6
 15 49  1  0
 16 50  1  0
 17 51  1  0
 17 52  1  0
 17 53  1  0
 18 54  1  0
 19 55  1  0
 20 56  1  0
 21 57  1  0
 21 58  1  0
 22 59  1  0
 22 60  1  0
 24 61  1  1
 25 62  1  0
 26 63  1  0
 27 64  1  0
 27 65  1  0
 27 66  1  0
 28 67  1  0
 29 68  1  0
 30 69  1  0
M  END
> <Uni-Dock RESULT> 
ENERGY=  -10.221  LOWER_BOUND=    0.000  UPPER_BOUND=    0.000
INTER + INTRA:         -10.221
INTER:                 -10.221
INTRA:                   0.000
UNBOUND:                 0.000

$$$$

     RDKit          3D

 69 69  0  0  0  0  0  0  0  0999 V2000
   45.6038    4.9530    9.2275 C   0  0  0  0  0  0  0  0  0  0  0  0
   45.9322    3.6834    7.1268 N   0  0  0  0  0  0  0  0  0  0  0  0
   44.8453    5.0823   10.5275 C   0  0  0  0  0  0  0  0  0  0  0  0
   45.3007    3.6516    8.4542 C   0  0  1  0  0  0  0  0  0  0  0  0
   45.5050    4.9352   11.7553 C   0  0  0  0  0  0  0  0  0  0  0  0
   43.4688    5.3477   10.5241 C   0  0  0  0  0  0  0  0  0  0  0  0
   45.8008    2.4083    9.1908 C   0  0  0  0  0  0  0  0  0  0  0  0
   44.8007    5.0490   12.9551 C   0  0  0  0  0  0  0  0  0  0  0  0
   42.7666    5.4611   11.7249 C   0  0  0  0  0  0  0  0  0  0  0  0
   43.4323    5.3114   12.9398 C   0  0  0  0  0  0  0  0  0  0  0  0
   45.6245    4.9224    9.4200 C   0  0  0  0  0  0  0  0  0  0  0  0
   44.1561    3.3589    8.1490 N   0  0  0  0  0  0  0  0  0  0  0  0
   44.8441    4.9513   10.7154 C   0  0  0  0  0  0  0  0  0  0  0  0
   45.5126    3.5802    8.6660 C   0  0  1  0  0  0  0  0  0  0  0  0
   45.3510    4.3315   11.8658 C   0  0  0  0  0  0  0  0  0  0  0  0
   43.5953    5.5842   10.7783 C   0  0  0  0  0  0  0  0  0  0  0  0
   46.4901    3.5457    7.4924 C   0  0  0  0  0  0  0  0  0  0  0  0
   42.8686    5.5986   11.9695 C   0  0  0  0  0  0  0  0  0  0  0  0
   44.6227    4.3476   13.0565 C   0  0  0  0  0  0  0  0  0  0  0  0
   43.3822    4.9807   13.1081 C   0  0  0  0  0  0  0  0  0  0  0  0
   43.4602    4.4732   10.2312 C   0  0  0  0  0  0  0  0  0  0  0  0
   44.8398    5.9302   11.7150 N   0  0  0  0  0  0  0  0  0  0  0  0
   44.4548    3.9483    9.2205 C   0  0  0  0  0  0  0  0  0  0  0  0
   44.0604    4.6866   11.6385 C   0  0  1  0  0  0  0  0  0  0  0  0
   44.5000    2.5814    8.9116 C   0  0  0  0  0  0  0  0  0  0  0  0
   45.3534    4.8155    8.5856 C   0  0  0  0  0  0  0  0  0  0  0  0
   42.9491    4.7385   12.6890 C   0  0  0  0  0  0  0  0  0  0  0  0
   45.4195    2.0953    7.9802 C   0  0  0  0  0  0  0  0  0  0  0  0
   46.2729    4.3281    7.6554 C   0  0  0  0  0  0  0  0  0  0  0  0
   46.3048    2.9687    7.3516 C   0  0  0  0  0  0  0  0  0  0  0  0
   45.3473    5.8228    8.6068 H   0  0  0  0  0  0  0  0  0  0  0  0
   46.6826    5.0349    9.4164 H   0  0  0  0  0  0  0  0  0  0  0  0
   45.6238    4.5125    6.6202 H   0  0  0  0  0  0  0  0  0  0  0  0
   46.9431    3.7705    7.2271 H   0  0  0  0  0  0  0  0  0  0  0  0
   44.2195    3.5518    8.3028 H   0  0  0  0  0  0  0  0  0  0  0  0
   46.5721    4.7274   11.7863 H   0  0  0  0  0  0  0  0  0  0  0  0
   42.9343    5.4686    9.5844 H   0  0  0  0  0  0  0  0  0  0  0  0
   46.8762    2.4659    9.3935 H   0  0  0  0  0  0  0  0  0  0  0  0
   45.6171    1.5034    8.6003 H   0  0  0  0  0  0  0  0  0  0  0  0
   45.2823    2.2796   10.1463 H   0  0  0  0  0  0  0  0  0  0  0  0
   45.3204    4.9318   13.9024 H   0  0  0  0  0  0  0  0  0  0  0  0
   41.6994    5.6664   11.7122 H   0  0  0  0  0  0  0  0  0  0  0  0
   42.8849    5.3995   13.8744 H   0  0  0  0  0  0  0  0  0  0  0  0
   46.6775    5.1286    9.6547 H   0  0  0  0  0  0  0  0  0  0  0  0
   45.3022    5.7499    8.7735 H   0  0  0  0  0  0  0  0  0  0  0  0
   44.0977    2.4296    7.7349 H   0  0  0  0  0  0  0  0  0  0  0  0
   43.5023    3.3580    8.9340 H   0  0  0  0  0  0  0  0  0  0  0  0
   45.7598    2.7554    9.3457 H   0  0  0  0  0  0  0  0  0  0  0  0
   46.3178    3.8343   11.8415 H   0  0  0  0  0  0  0  0  0  0  0  0
   43.1811    6.0662    9.8950 H   0  0  0  0  0  0  0  0  0  0  0  0
   46.2820    4.3447    6.7719 H   0  0  0  0  0  0  0  0  0  0  0  0
   47.5202    3.6693    7.8439 H   0  0  0  0  0  0  0  0  0  0  0  0
   46.4358    2.5884    6.9618 H   0  0  0  0  0  0  0  0  0  0  0  0
   41.9013    6.0927   12.0083 H   0  0  0  0  0  0  0  0  0  0  0  0
   45.0240    3.8667   13.9447 H   0  0  0  0  0  0  0  0  0  0  0  0
   42.8162    4.9937   14.0357 H   0  0  0  0  0  0  0  0  0  0  0  0
   42.6262    3.7610   10.2926 H   0  0  0  0  0  0  0  0  0  0  0  0
   43.0142    5.4029    9.8527 H   0  0  0  0  0  0  0  0  0  0  0  0
   44.2274    6.7322   11.5736 H   0  0  0  0  0  0  0  0  0  0  0  0
   45.2294    6.0304   12.6515 H   0  0  0  0  0  0  0  0  0  0  0  0
   44.7262    3.8503   11.8840 H   0  0  0  0  0  0  0  0  0  0  0  0
   43.8186    1.8852    9.3946 H   0  0  0  0  0  0  0  0  0  0  0  0
   45.3472    5.8769    8.8235 H   0  0  0  0  0  0  0  0  0  0  0  0
   42.3818    3.8015   12.6975 H   0  0  0  0  0  0  0  0  0  0  0  0
   43.3624    4.8812   13.6937 H   0  0  0  0  0  0  0  0  0  0  0  0
   42.2466    5.5560   12.4912 H   0  0  0  0  0  0  0  0  0  0  0  0
   45.4460    1.0345    7.7466 H   0  0  0  0  0  0  0  0  0  0  0  0
   46.9672    5.0105    7.1730 H   0  0  0  0  0  0  0  0  0  0  0  0
   47.0220    2.5901    6.6286 H   0  0  0  0  0  0  0  0  0  0  0  0
  4  2  1  0
  3  1  1  0
  4  1  1  0
  5  3  2  0
  6  3  1  0
  4  7  1  0
  8  5  1  0
  9  6  2  0
 10  8  2  0
  9 10  1  0
 12 14  1  0
 13 11  1  0
 14 11  1  0
 15 13  2  0
 16 13  1  0
 17 14  1  0
 18 16  2  0
 19 15  1  0
 20 18  1  0
 19 20  2  0
 24 22  1  0
 23 21  1  0
 24 21  1  0
 25 23  2  0
 26 23  1  0
 24 27  1  0
 28 25  1  0
 29 26  2  0
 30 28  2  0
 29 30  1  0
  1 31  1  0
  1 32  1  0
  2 33  1  0
  2 34  1  0
  4 35  1  6
  5 36  1  0
  6 37  1  0
  7 38  1  0
  7 39  1  0
  7 40  1  0
  8 41  1  0
  9 42  1  0
 10 43  1  0
 11 44  1  0
 11 45  1  0
 12 46  1  0
 12 47  1  0
 14 48  1  6
 15 49  1  0
 16 50  1  0
 17 51  1  0
 17 52  1  0
 17 53  1  0
 18 54  1  0
 19 55  1  0
 20 56  1  0
 21 57  1  0
 21 58  1  0
 22 59  1  0
 22 60  1  0
 24 61  1  1
 25 62  1  0
 26 63  1  0
 27 64  1  0
 27 65  1  0
 27 66  1  0
 28 67  1  0
 29 68  1  0
 30 69  1  0
M  END
> <Uni-Dock RESULT> 
ENERGY=   -9.582  LOWER_BOUND=    0.527  UPPER_BOUND=    4.583
INTER + INTRA:          -9.582
INTER:                  -9.582
INTRA:                   0.000
UNBOUND:                 0.000

$$$$

     RDKit          3D

 69 69  0  0  0  0  0  0  0  0999 V2000
   44.4080    6.9579   11.6311 C   0  0  0  0  0  0  0  0  0  0  0  0
   45.9478    8.7750   12.3092 N   0  0  0  0  0  0  0  0  0  0  0  0
   44.2565    5.5235   11.1819 C   0  0  0  0  0  0  0  0  0  0  0  0
   45.8434    7.3295   12.0613 C   0  0  1  0  0  0  0  0  0  0  0  0
   43.5890    4.5911   11.9877 C   0  0  0  0  0  0  0  0  0  0  0  0
   44.7854    5.1035    9.9535 C   0  0  0  0  0  0  0  0  0  0  0  0
   46.2778    6.5952   13.3304 C   0  0  0  0  0  0  0  0  0  0  0  0
   43.4558    3.2647   11.5733 C   0  0  0  0  0  0  0  0  0  0  0  0
   44.6510    3.7770    9.5410 C   0  0  0  0  0  0  0  0  0  0  0  0
   43.9868    2.8580   10.3509 C   0  0  0  0  0  0  0  0  0  0  0  0
   44.3532    6.7819   11.6979 C   0  0  0  0  0  0  0  0  0  0  0  0
   46.7848    7.1653   11.3025 N   0  0  0  0  0  0  0  0  0  0  0  0
   44.2923    5.3260   11.2924 C   0  0  0  0  0  0  0  0  0  0  0  0
   45.7115    7.1938   12.3044 C   0  0  1  0  0  0  0  0  0  0  0  0
   44.0977    4.3263   12.2553 C   0  0  0  0  0  0  0  0  0  0  0  0
   44.4468    4.9557    9.9496 C   0  0  0  0  0  0  0  0  0  0  0  0
   45.6291    8.6040   12.8864 C   0  0  0  0  0  0  0  0  0  0  0  0
   44.4051    3.6115    9.5770 C   0  0  0  0  0  0  0  0  0  0  0  0
   44.0557    2.9824   11.8805 C   0  0  0  0  0  0  0  0  0  0  0  0
   44.2094    2.6254   10.5421 C   0  0  0  0  0  0  0  0  0  0  0  0
   45.5667    5.2110   10.4316 C   0  0  0  0  0  0  0  0  0  0  0  0
   43.1899    4.5817   10.8586 N   0  0  0  0  0  0  0  0  0  0  0  0
   45.7963    6.3876   11.3532 C   0  0  0  0  0  0  0  0  0  0  0  0
   44.5901    4.1585   11.0012 C   0  0  1  0  0  0  0  0  0  0  0  0
   46.9342    6.4385   12.1707 C   0  0  0  0  0  0  0  0  0  0  0  0
   44.8720    7.4386   11.4139 C   0  0  0  0  0  0  0  0  0  0  0  0
   44.7734    2.8192   10.2844 C   0  0  0  0  0  0  0  0  0  0  0  0
   47.1460    7.5233   13.0238 C   0  0  0  0  0  0  0  0  0  0  0  0
   45.0844    8.5220   12.2679 C   0  0  0  0  0  0  0  0  0  0  0  0
   46.2219    8.5651   13.0714 C   0  0  0  0  0  0  0  0  0  0  0  0
   44.0913    7.6006   10.7980 H   0  0  0  0  0  0  0  0  0  0  0  0
   43.7048    7.1682   12.4480 H   0  0  0  0  0  0  0  0  0  0  0  0
   45.6501    9.2874   11.4798 H   0  0  0  0  0  0  0  0  0  0  0  0
   45.3078    9.0447   13.0556 H   0  0  0  0  0  0  0  0  0  0  0  0
   46.5485    7.0805   11.2596 H   0  0  0  0  0  0  0  0  0  0  0  0
   43.1707    4.8900   12.9461 H   0  0  0  0  0  0  0  0  0  0  0  0
   45.3056    5.8086    9.3088 H   0  0  0  0  0  0  0  0  0  0  0  0
   45.5904    6.7871   14.1619 H   0  0  0  0  0  0  0  0  0  0  0  0
   47.2801    6.9115   13.6417 H   0  0  0  0  0  0  0  0  0  0  0  0
   46.3183    5.5135   13.1670 H   0  0  0  0  0  0  0  0  0  0  0  0
   42.9379    2.5482   12.2055 H   0  0  0  0  0  0  0  0  0  0  0  0
   45.0649    3.4606    8.5873 H   0  0  0  0  0  0  0  0  0  0  0  0
   43.8828    1.8252   10.0293 H   0  0  0  0  0  0  0  0  0  0  0  0
   43.5519    6.9639   12.4267 H   0  0  0  0  0  0  0  0  0  0  0  0
   44.1131    7.4182   10.8354 H   0  0  0  0  0  0  0  0  0  0  0  0
   47.6774    7.3575   11.7553 H   0  0  0  0  0  0  0  0  0  0  0  0
   46.8584    6.2178   10.9280 H   0  0  0  0  0  0  0  0  0  0  0  0
   45.9779    6.5016   13.1127 H   0  0  0  0  0  0  0  0  0  0  0  0
   43.9752    4.5892   13.3034 H   0  0  0  0  0  0  0  0  0  0  0  0
   44.6048    5.7158    9.1871 H   0  0  0  0  0  0  0  0  0  0  0  0
   45.3762    9.3424   12.1172 H   0  0  0  0  0  0  0  0  0  0  0  0
   44.8628    8.6553   13.6673 H   0  0  0  0  0  0  0  0  0  0  0  0
   46.5818    8.8999   13.3398 H   0  0  0  0  0  0  0  0  0  0  0  0
   44.5251    3.3346    8.5329 H   0  0  0  0  0  0  0  0  0  0  0  0
   43.9019    2.2136   12.6331 H   0  0  0  0  0  0  0  0  0  0  0  0
   44.1757    1.5790   10.2508 H   0  0  0  0  0  0  0  0  0  0  0  0
   46.5380    4.7390   10.2306 H   0  0  0  0  0  0  0  0  0  0  0  0
   45.2199    5.5767    9.4556 H   0  0  0  0  0  0  0  0  0  0  0  0
   42.9469    4.6486    9.8713 H   0  0  0  0  0  0  0  0  0  0  0  0
   42.5775    3.8703   11.2557 H   0  0  0  0  0  0  0  0  0  0  0  0
   44.7947    4.0079   12.0681 H   0  0  0  0  0  0  0  0  0  0  0  0
   47.6643    5.6330   12.1486 H   0  0  0  0  0  0  0  0  0  0  0  0
   43.9737    7.4108   10.8011 H   0  0  0  0  0  0  0  0  0  0  0  0
   45.7946    2.4462   10.4184 H   0  0  0  0  0  0  0  0  0  0  0  0
   44.0916    2.0608   10.6852 H   0  0  0  0  0  0  0  0  0  0  0  0
   44.5861    2.9099    9.2085 H   0  0  0  0  0  0  0  0  0  0  0  0
   48.0316    7.5542   13.6527 H   0  0  0  0  0  0  0  0  0  0  0  0
   44.3579    9.3288   12.3085 H   0  0  0  0  0  0  0  0  0  0  0  0
   46.3854    9.4080   13.7371 H   0  0  0  0  0  0  0  0  0  0  0  0
  4  2  1  0
  3  1  1  0
  4  1  1  0
  5  3  2  0
  6  3  1  0
  4  7  1  0
  8  5  1  0
  9  6  2  0
 10  8  2  0
  9 10  1  0
 12 14  1  0
 13 11  1  0
 14 11  1  0
 15 13  2  0
 16 13  1  0
 17 14  1  0
 18 16  2  0
 19 15  1  0
 20 18  1  0
 19 20  2  0
 24 22  1  0
 23 21  1  0
 24 21  1  0
 25 23  2  0
 26 23  1  0
 24 27  1  0
 28 25  1  0
 29 26  2  0
 30 28  2  0
 29 30  1  0
  1 31  1  0
  1 32  1  0
  2 33  1  0
  2 34  1  0
  4 35  1  6
  5 36  1  0
  6 37  1  0
  7 38  1  0
  7 39  1  0
  7 40  1  0
  8 41  1  0
  9 42  1  0
 10 43  1  0
 11 44  1  0
 11 45  1  0
 12 46  1  0
 12 47  1  0
 14 48  1  6
 15 49  1  0
 16 50  1  0
 17 51  1  0
 17 52  1  0
 17 53  1  0
 18 54  1  0
 19 55  1  0
 20 56  1  0
 21 57  1  0
 21 58  1  0
 22 59  1  0
 22 60  1  0
 24 61  1  1
 25 62  1  0
 26 63  1  0
 27 64  1  0
 27 65  1  0
 27 66  1  0
 28 67  1  0
 29 68  1  0
 30 69  1  0
M  END
> <Uni-Dock RESULT> 
ENERGY=   -8.725  LOWER_BOUND=    2.024  UPPER_BOUND=    3.130
INTER + INTRA:          -8.725
INTER:                  -8.725
INTRA:                   0.000
UNBOUND:                 0.000

$$$$

     RDKit          3D

 69 69  0  0  0  0  0  0  0  0999 V2000
   45.1360    5.2044   10.5162 C   0  0  0  0  0  0  0  0  0  0  0  0
   43.6554    3.2233   10.3903 N   0  0  0  0  0  0  0  0  0  0  0  0
   45.5508    6.4322   11.2924 C   0  0  0  0  0  0  0  0  0  0  0  0
   44.1475    4.2912   11.2730 C   0  0  1  0  0  0  0  0  0  0  0  0
   46.8404    6.5324   11.8319 C   0  0  0  0  0  0  0  0  0  0  0  0
   44.6495    7.4879   11.4877 C   0  0  0  0  0  0  0  0  0  0  0  0
   44.7831    3.6396   12.5018 C   0  0  0  0  0  0  0  0  0  0  0  0
   47.2193    7.6652   12.5541 C   0  0  0  0  0  0  0  0  0  0  0  0
   45.0303    8.6198   12.2101 C   0  0  0  0  0  0  0  0  0  0  0  0
   46.3146    8.7081   12.7433 C   0  0  0  0  0  0  0  0  0  0  0  0
   45.2799    5.2706   10.6317 C   0  0  0  0  0  0  0  0  0  0  0  0
   43.0923    4.7313   11.6994 N   0  0  0  0  0  0  0  0  0  0  0  0
   45.6581    6.4547   11.4935 C   0  0  0  0  0  0  0  0  0  0  0  0
   44.4292    4.2180   11.3740 C   0  0  1  0  0  0  0  0  0  0  0  0
   46.7023    6.3539   12.4231 C   0  0  0  0  0  0  0  0  0  0  0  0
   44.9581    7.6639   11.3860 C   0  0  0  0  0  0  0  0  0  0  0  0
   44.2711    2.9619   10.5189 C   0  0  0  0  0  0  0  0  0  0  0  0
   45.2974    8.7520   12.1911 C   0  0  0  0  0  0  0  0  0  0  0  0
   47.0405    7.4436   13.2271 C   0  0  0  0  0  0  0  0  0  0  0  0
   46.3383    8.6419   13.1111 C   0  0  0  0  0  0  0  0  0  0  0  0
   44.2788    6.8596   12.0519 C   0  0  0  0  0  0  0  0  0  0  0  0
   46.5353    7.5055   11.2041 N   0  0  0  0  0  0  0  0  0  0  0  0
   44.1577    5.4012   11.6712 C   0  0  0  0  0  0  0  0  0  0  0  0
   45.7191    7.2901   12.4072 C   0  0  1  0  0  0  0  0  0  0  0  0
   43.7233    4.4552   12.6105 C   0  0  0  0  0  0  0  0  0  0  0  0
   44.4878    4.9702   10.3798 C   0  0  0  0  0  0  0  0  0  0  0  0
   45.7018    8.5823   13.2263 C   0  0  0  0  0  0  0  0  0  0  0  0
   43.6133    3.1080   12.2607 C   0  0  0  0  0  0  0  0  0  0  0  0
   44.3784    3.6230   10.0316 C   0  0  0  0  0  0  0  0  0  0  0  0
   43.9398    2.6924   10.9713 C   0  0  0  0  0  0  0  0  0  0  0  0
   44.6816    5.5455    9.5756 H   0  0  0  0  0  0  0  0  0  0  0  0
   46.0259    4.6320   10.2218 H   0  0  0  0  0  0  0  0  0  0  0  0
   43.2381    3.6334    9.5556 H   0  0  0  0  0  0  0  0  0  0  0  0
   44.4373    2.6540   10.0676 H   0  0  0  0  0  0  0  0  0  0  0  0
   43.2791    4.8741   11.6013 H   0  0  0  0  0  0  0  0  0  0  0  0
   47.5587    5.7270   11.6966 H   0  0  0  0  0  0  0  0  0  0  0  0
   43.6436    7.4355   11.0769 H   0  0  0  0  0  0  0  0  0  0  0  0
   45.6759    3.0629   12.2352 H   0  0  0  0  0  0  0  0  0  0  0  0
   44.0773    2.9602   12.9934 H   0  0  0  0  0  0  0  0  0  0  0  0
   45.0741    4.3918   13.2421 H   0  0  0  0  0  0  0  0  0  0  0  0
   48.2210    7.7335   12.9701 H   0  0  0  0  0  0  0  0  0  0  0  0
   44.3244    9.4329   12.3567 H   0  0  0  0  0  0  0  0  0  0  0  0
   46.6105    9.5895   13.3060 H   0  0  0  0  0  0  0  0  0  0  0  0
   46.2068    4.8075   10.2673 H   0  0  0  0  0  0  0  0  0  0  0  0
   44.7544    5.6186    9.7321 H   0  0  0  0  0  0  0  0  0  0  0  0
   42.5923    4.0442   12.2620 H   0  0  0  0  0  0  0  0  0  0  0  0
   43.1937    5.5581   12.2908 H   0  0  0  0  0  0  0  0  0  0  0  0
   44.9268    3.9379   12.3106 H   0  0  0  0  0  0  0  0  0  0  0  0
   47.2601    5.4259   12.5245 H   0  0  0  0  0  0  0  0  0  0  0  0
   44.1402    7.7613   10.6748 H   0  0  0  0  0  0  0  0  0  0  0  0
   43.7671    3.1814    9.5709 H   0  0  0  0  0  0  0  0  0  0  0  0
   45.2493    2.5268   10.2872 H   0  0  0  0  0  0  0  0  0  0  0  0
   43.6870    2.1980   11.0443 H   0  0  0  0  0  0  0  0  0  0  0  0
   44.7489    9.6858   12.0996 H   0  0  0  0  0  0  0  0  0  0  0  0
   47.8531    7.3579   13.9436 H   0  0  0  0  0  0  0  0  0  0  0  0
   46.6028    9.4902   13.7367 H   0  0  0  0  0  0  0  0  0  0  0  0
   43.6185    7.0454   12.9099 H   0  0  0  0  0  0  0  0  0  0  0  0
   43.8750    7.4811   11.2413 H   0  0  0  0  0  0  0  0  0  0  0  0
   46.1604    8.2853   10.6661 H   0  0  0  0  0  0  0  0  0  0  0  0
   47.4794    7.7752   11.4774 H   0  0  0  0  0  0  0  0  0  0  0  0
   46.1976    6.5082   13.0093 H   0  0  0  0  0  0  0  0  0  0  0  0
   43.4672    4.7614   13.6218 H   0  0  0  0  0  0  0  0  0  0  0  0
   44.8436    5.6847    9.6407 H   0  0  0  0  0  0  0  0  0  0  0  0
   45.1470    8.4402   14.1601 H   0  0  0  0  0  0  0  0  0  0  0  0
   46.7179    8.8944   13.4923 H   0  0  0  0  0  0  0  0  0  0  0  0
   45.2281    9.4020   12.6743 H   0  0  0  0  0  0  0  0  0  0  0  0
   43.2746    2.3826   12.9953 H   0  0  0  0  0  0  0  0  0  0  0  0
   44.6414    3.3010    9.0278 H   0  0  0  0  0  0  0  0  0  0  0  0
   43.8567    1.6437   10.6998 H   0  0  0  0  0  0  0  0  0  0  0  0
  4  2  1  0
  3  1  1  0
  4  1  1  0
  5  3  2  0
  6  3  1  0
  4  7  1  0
  8  5  1  0
  9  6  2  0
 10  8  2  0
  9 10  1  0
 12 14  1  0
 13 11  1  0
 14 11  1  0
 15 13  2  0
 16 13  1  0
 17 14  1  0
 18 16  2  0
 19 15  1  0
 20 18  1  0
 19 20  2  0
 24 22  1  0
 23 21  1  0
 24 21  1  0
 25 23  2  0
 26 23  1  0
 24 27  1  0
 28 25  1  0
 29 26  2  0
 30 28  2  0
 29 30  1  0
  1 31  1  0
  1 32  1  0
  2 33  1  0
  2 34  1  0
  4 35  1  6
  5 36  1  0
  6 37  1  0
  7 38  1  0
  7 39  1  0
  7 40  1  0
  8 41  1  0
  9 42  1  0
 10 43  1  0
 11 44  1  0
 11 45  1  0
 12 46  1  0
 12 47  1  0
 14 48  1  6
 15 49  1  0
 16 50  1  0
 17 51  1  0
 17 52  1  0
 17 53  1  0
 18 54  1  0
 19 55  1  0
 20 56  1  0
 21 57  1  0
 21 58  1  0
 22 59  1  0
 22 60  1  0
 24 61  1  1
 25 62  1  0
 26 63  1  0
 27 64  1  0
 27 65  1  0
 27 66  1  0
 28 67  1  0
 29 68  1  0
 30 69  1  0
M  END
> <Uni-Dock RESULT> 
ENERGY=   -8.213  LOWER_BOUND=    2.291  UPPER_BOUND=    4.720
INTER + INTRA:          -8.213
INTER:                  -8.213
INTRA:                   0.000
UNBOUND:                 0.000

$$$$
