
     RDKit          3D

 69 69  0  0  0  0  0  0  0  0999 V2000
   45.8983    3.5519    9.7583 C   0  0  0  0  0  0  0  0  0  0  0  0
   46.7757    3.3619    7.4503 N   0  0  0  0  0  0  0  0  0  0  0  0
   44.8838    4.1827   10.6830 C   0  0  0  0  0  0  0  0  0  0  0  0
   45.6544    3.8542    8.2640 C   0  0  1  0  0  0  0  0  0  0  0  0
   43.9163    3.3960   11.3226 C   0  0  0  0  0  0  0  0  0  0  0  0
   44.8937    5.5657   10.9117 C   0  0  0  0  0  0  0  0  0  0  0  0
   44.3685    3.2110    7.7436 C   0  0  0  0  0  0  0  0  0  0  0  0
   42.9762    3.9821   12.1718 C   0  0  0  0  0  0  0  0  0  0  0  0
   43.9529    6.1496   11.7613 C   0  0  0  0  0  0  0  0  0  0  0  0
   42.9944    5.3580   12.3908 C   0  0  0  0  0  0  0  0  0  0  0  0
   45.5237    4.5994    9.1522 C   0  0  0  0  0  0  0  0  0  0  0  0
   44.0421    2.8624    8.1175 N   0  0  0  0  0  0  0  0  0  0  0  0
   44.8140    4.6598   10.4859 C   0  0  0  0  0  0  0  0  0  0  0  0
   45.4251    3.2248    8.4540 C   0  0  1  0  0  0  0  0  0  0  0  0
   45.3292    3.9789   11.5975 C   0  0  0  0  0  0  0  0  0  0  0  0
   43.6270    5.3915   10.6283 C   0  0  0  0  0  0  0  0  0  0  0  0
   46.2514    3.2229    7.1686 C   0  0  0  0  0  0  0  0  0  0  0  0
   42.9674    5.4379   11.8576 C   0  0  0  0  0  0  0  0  0  0  0  0
   44.6680    4.0266   12.8257 C   0  0  0  0  0  0  0  0  0  0  0  0
   43.4874    4.7553   12.9553 C   0  0  0  0  0  0  0  0  0  0  0  0
   43.4731    4.3987    9.9861 C   0  0  0  0  0  0  0  0  0  0  0  0
   42.8327    5.7402   11.9669 N   0  0  0  0  0  0  0  0  0  0  0  0
   44.5919    3.8502    9.1319 C   0  0  0  0  0  0  0  0  0  0  0  0
   43.9553    5.0785   11.2858 C   0  0  1  0  0  0  0  0  0  0  0  0
   44.8055    2.4682    9.0386 C   0  0  0  0  0  0  0  0  0  0  0  0
   45.4354    4.7167    8.4229 C   0  0  0  0  0  0  0  0  0  0  0  0
   44.5864    4.0845   12.2615 C   0  0  0  0  0  0  0  0  0  0  0  0
   45.8438    1.9640    8.2536 C   0  0  0  0  0  0  0  0  0  0  0  0
   46.4728    4.2106    7.6385 C   0  0  0  0  0  0  0  0  0  0  0  0
   46.6770    2.8349    7.5542 C   0  0  0  0  0  0  0  0  0  0  0  0
   45.9265    2.4661    9.9219 H   0  0  0  0  0  0  0  0  0  0  0  0
   46.8903    3.9196   10.0551 H   0  0  0  0  0  0  0  0  0  0  0  0
   47.6480    3.7673    7.7874 H   0  0  0  0  0  0  0  0  0  0  0  0
   46.8679    2.3529    7.5636 H   0  0  0  0  0  0  0  0  0  0  0  0
   45.5859    4.9375    8.1100 H   0  0  0  0  0  0  0  0  0  0  0  0
   43.8853    2.3209   11.1613 H   0  0  0  0  0  0  0  0  0  0  0  0
   45.6361    6.1977   10.4292 H   0  0  0  0  0  0  0  0  0  0  0  0
   44.2429    3.3998    6.6711 H   0  0  0  0  0  0  0  0  0  0  0  0
   44.3704    2.1260    7.8968 H   0  0  0  0  0  0  0  0  0  0  0  0
   43.4884    3.6229    8.2478 H   0  0  0  0  0  0  0  0  0  0  0  0
   42.2285    3.3642   12.6623 H   0  0  0  0  0  0  0  0  0  0  0  0
   43.9680    7.2229   11.9320 H   0  0  0  0  0  0  0  0  0  0  0  0
   42.2619    5.8134   13.0518 H   0  0  0  0  0  0  0  0  0  0  0  0
   46.5791    4.8536    9.3190 H   0  0  0  0  0  0  0  0  0  0  0  0
   45.1331    5.3836    8.4896 H   0  0  0  0  0  0  0  0  0  0  0  0
   43.4935    2.8366    8.9796 H   0  0  0  0  0  0  0  0  0  0  0  0
   43.6227    3.5981    7.5506 H   0  0  0  0  0  0  0  0  0  0  0  0
   45.8232    2.4464    9.1156 H   0  0  0  0  0  0  0  0  0  0  0  0
   46.2499    3.4059   11.5137 H   0  0  0  0  0  0  0  0  0  0  0  0
   43.2067    5.9305    9.7824 H   0  0  0  0  0  0  0  0  0  0  0  0
   46.2097    2.2450    6.6759 H   0  0  0  0  0  0  0  0  0  0  0  0
   47.3032    3.4386    7.3857 H   0  0  0  0  0  0  0  0  0  0  0  0
   45.8931    3.9758    6.4575 H   0  0  0  0  0  0  0  0  0  0  0  0
   42.0475    6.0079   11.9589 H   0  0  0  0  0  0  0  0  0  0  0  0
   45.0747    3.4946   13.6819 H   0  0  0  0  0  0  0  0  0  0  0  0
   42.9735    4.7921   13.9123 H   0  0  0  0  0  0  0  0  0  0  0  0
   42.9132    5.1200    9.3748 H   0  0  0  0  0  0  0  0  0  0  0  0
   42.7594    3.5983   10.2234 H   0  0  0  0  0  0  0  0  0  0  0  0
   42.1210    5.0515   12.2087 H   0  0  0  0  0  0  0  0  0  0  0  0
   42.3863    6.3996   11.3306 H   0  0  0  0  0  0  0  0  0  0  0  0
   44.6981    5.8493   11.0492 H   0  0  0  0  0  0  0  0  0  0  0  0
   44.1666    1.7739    9.5796 H   0  0  0  0  0  0  0  0  0  0  0  0
   45.2888    5.7933    8.4769 H   0  0  0  0  0  0  0  0  0  0  0  0
   45.4927    3.6380   11.8400 H   0  0  0  0  0  0  0  0  0  0  0  0
   44.8764    4.5821   13.1941 H   0  0  0  0  0  0  0  0  0  0  0  0
   43.8944    3.2731   12.5136 H   0  0  0  0  0  0  0  0  0  0  0  0
   46.0028    0.8908    8.1884 H   0  0  0  0  0  0  0  0  0  0  0  0
   47.1220    4.8903    7.0929 H   0  0  0  0  0  0  0  0  0  0  0  0
   47.4852    2.4413    6.9436 H   0  0  0  0  0  0  0  0  0  0  0  0
  4  2  1  0
  3  1  1  0
  4  1  1  0
  5  3  2  0
  6  3  1  0
  4  7  1  0
  8  5  1  0
  9  6  2  0
 10  8  2  0
  9 10  1  0
 12 14  1  0
 13 11  1  0
 14 11  1  0
 15 13  2  0
 16 13  1  0
 17 14  1  0
 18 16  2  0
 19 15  1  0
 20 18  1  0
 19 20  2  0
 24 22  1  0
 23 21  1  0
 24 21  1  0
 25 23  2  0
 26 23  1  0
 24 27  1  0
 28 25  1  0
 29 26  2  0
 30 28  2  0
 29 30  1  0
  1 31  1  0
  1 32  1  0
  2 33  1  0
  2 34  1  0
  4 35  1  6
  5 36  1  0
  6 37  1  0
  7 38  1  0
  7 39  1  0
  7 40  1  0
  8 41  1  0
  9 42  1  0
 10 43  1  0
 11 44  1  0
 11 45  1  0
 12 46  1  0
 12 47  1  0
 14 48  1  1
 15 49  1  0
 16 50  1  0
 17 51  1  0
 17 52  1  0
 17 53  1  0
 18 54  1  0
 19 55  1  0
 20 56  1  0
 21 57  1  0
 21 58  1  0
 22 59  1  0
 22 60  1  0
 24 61  1  6
 25 62  1  0
 26 63  1  0
 27 64  1  0
 27 65  1  0
 27 66  1  0
 28 67  1  0
 29 68  1  0
 30 69  1  0
M  END
> <Uni-Dock RESULT> 
ENERGY=   -7.592  LOWER_BOUND=    0.000  UPPER_BOUND=    0.000
INTER + INTRA:          -7.592
INTER:                  -7.592
INTRA:                   0.000
UNBOUND:                 0.000

$$$$

     RDKit          3D

 69 69  0  0  0  0  0  0  0  0999 V2000
   43.6998    3.6400   11.1144 C   0  0  0  0  0  0  0  0  0  0  0  0
   42.7098    5.2248   12.7396 N   0  0  0  0  0  0  0  0  0  0  0  0
   44.4907    3.4566    9.8404 C   0  0  0  0  0  0  0  0  0  0  0  0
   43.6394    5.1021   11.6071 C   0  0  1  0  0  0  0  0  0  0  0  0
   45.7514    2.8451    9.8659 C   0  0  0  0  0  0  0  0  0  0  0  0
   43.9757    3.8993    8.6140 C   0  0  0  0  0  0  0  0  0  0  0  0
   45.0065    5.6216   12.0533 C   0  0  0  0  0  0  0  0  0  0  0  0
   46.4829    2.6823    8.6883 C   0  0  0  0  0  0  0  0  0  0  0  0
   44.7087    3.7354    7.4377 C   0  0  0  0  0  0  0  0  0  0  0  0
   45.9618    3.1273    7.4750 C   0  0  0  0  0  0  0  0  0  0  0  0
   43.5723    4.7405   10.4998 C   0  0  0  0  0  0  0  0  0  0  0  0
   45.4816    5.2446   12.0437 N   0  0  0  0  0  0  0  0  0  0  0  0
   44.3492    3.8620    9.5454 C   0  0  0  0  0  0  0  0  0  0  0  0
   44.1128    4.7210   11.9469 C   0  0  1  0  0  0  0  0  0  0  0  0
   44.2635    2.4657    9.6338 C   0  0  0  0  0  0  0  0  0  0  0  0
   45.1716    4.4308    8.5632 C   0  0  0  0  0  0  0  0  0  0  0  0
   43.2121    5.5516   12.8602 C   0  0  0  0  0  0  0  0  0  0  0  0
   45.8960    3.6184    7.6894 C   0  0  0  0  0  0  0  0  0  0  0  0
   44.9889    1.6552    8.7592 C   0  0  0  0  0  0  0  0  0  0  0  0
   45.8051    2.2315    7.7879 C   0  0  0  0  0  0  0  0  0  0  0  0
   45.6221    4.5565    9.6600 C   0  0  0  0  0  0  0  0  0  0  0  0
   45.9156    3.7060    7.3526 N   0  0  0  0  0  0  0  0  0  0  0  0
   44.7119    4.6879   10.8585 C   0  0  0  0  0  0  0  0  0  0  0  0
   45.0648    3.6393    8.5501 C   0  0  1  0  0  0  0  0  0  0  0  0
   45.0369    4.0664   12.0718 C   0  0  0  0  0  0  0  0  0  0  0  0
   43.5264    5.4311   10.7728 C   0  0  0  0  0  0  0  0  0  0  0  0
   44.9780    2.1783    8.9930 C   0  0  0  0  0  0  0  0  0  0  0  0
   44.1913    4.1842   13.1761 C   0  0  0  0  0  0  0  0  0  0  0  0
   42.6823    5.5477   11.8780 C   0  0  0  0  0  0  0  0  0  0  0  0
   43.0146    4.9242   13.0790 C   0  0  0  0  0  0  0  0  0  0  0  0
   44.1097    2.9948   11.9030 H   0  0  0  0  0  0  0  0  0  0  0  0
   42.6828    3.2677   10.9290 H   0  0  0  0  0  0  0  0  0  0  0  0
   41.7925    4.8714   12.4702 H   0  0  0  0  0  0  0  0  0  0  0  0
   43.0259    4.6379   13.5111 H   0  0  0  0  0  0  0  0  0  0  0  0
   43.2685    5.7501   10.8044 H   0  0  0  0  0  0  0  0  0  0  0  0
   46.1750    2.4941   10.8041 H   0  0  0  0  0  0  0  0  0  0  0  0
   42.9984    4.3747    8.5673 H   0  0  0  0  0  0  0  0  0  0  0  0
   44.9287    6.6432   12.4428 H   0  0  0  0  0  0  0  0  0  0  0  0
   45.4390    4.9930   12.8398 H   0  0  0  0  0  0  0  0  0  0  0  0
   45.7113    5.6495   11.2160 H   0  0  0  0  0  0  0  0  0  0  0  0
   47.4605    2.2082    8.7180 H   0  0  0  0  0  0  0  0  0  0  0  0
   44.3014    4.0824    6.4917 H   0  0  0  0  0  0  0  0  0  0  0  0
   46.5322    3.0004    6.5587 H   0  0  0  0  0  0  0  0  0  0  0  0
   42.5263    4.4060   10.4920 H   0  0  0  0  0  0  0  0  0  0  0  0
   43.5545    5.7717   10.1218 H   0  0  0  0  0  0  0  0  0  0  0  0
   46.0909    4.6734   11.4545 H   0  0  0  0  0  0  0  0  0  0  0  0
   45.5196    6.1819   11.6455 H   0  0  0  0  0  0  0  0  0  0  0  0
   44.1214    3.6910   12.3228 H   0  0  0  0  0  0  0  0  0  0  0  0
   43.6307    1.9997   10.3858 H   0  0  0  0  0  0  0  0  0  0  0  0
   45.2546    5.5113    8.4716 H   0  0  0  0  0  0  0  0  0  0  0  0
   43.5709    5.5258   13.8953 H   0  0  0  0  0  0  0  0  0  0  0  0
   42.1897    5.1582   12.8554 H   0  0  0  0  0  0  0  0  0  0  0  0
   43.1712    6.5994   12.5420 H   0  0  0  0  0  0  0  0  0  0  0  0
   46.5313    4.0681    6.9307 H   0  0  0  0  0  0  0  0  0  0  0  0
   44.9168    0.5735    8.8360 H   0  0  0  0  0  0  0  0  0  0  0  0
   46.3693    1.5995    7.1071 H   0  0  0  0  0  0  0  0  0  0  0  0
   45.7894    5.5659    9.2592 H   0  0  0  0  0  0  0  0  0  0  0  0
   46.6104    4.2002    9.9805 H   0  0  0  0  0  0  0  0  0  0  0  0
   46.8596    3.3968    7.5820 H   0  0  0  0  0  0  0  0  0  0  0  0
   45.9998    4.6742    7.0454 H   0  0  0  0  0  0  0  0  0  0  0  0
   44.0613    3.9727    8.2607 H   0  0  0  0  0  0  0  0  0  0  0  0
   45.9499    3.4827   12.1650 H   0  0  0  0  0  0  0  0  0  0  0  0
   43.2530    5.9251    9.8429 H   0  0  0  0  0  0  0  0  0  0  0  0
   44.2719    2.0574    9.8208 H   0  0  0  0  0  0  0  0  0  0  0  0
   44.6257    1.5412    8.1736 H   0  0  0  0  0  0  0  0  0  0  0  0
   45.9523    1.7982    9.3203 H   0  0  0  0  0  0  0  0  0  0  0  0
   44.4507    3.6975   14.1126 H   0  0  0  0  0  0  0  0  0  0  0  0
   41.7649    6.1254   11.8018 H   0  0  0  0  0  0  0  0  0  0  0  0
   42.3567    5.0151   13.9392 H   0  0  0  0  0  0  0  0  0  0  0  0
  4  2  1  0
  3  1  1  0
  4  1  1  0
  5  3  2  0
  6  3  1  0
  4  7  1  0
  8  5  1  0
  9  6  2  0
 10  8  2  0
  9 10  1  0
 12 14  1  0
 13 11  1  0
 14 11  1  0
 15 13  2  0
 16 13  1  0
 17 14  1  0
 18 16  2  0
 19 15  1  0
 20 18  1  0
 19 20  2  0
 24 22  1  0
 23 21  1  0
 24 21  1  0
 25 23  2  0
 26 23  1  0
 24 27  1  0
 28 25  1  0
 29 26  2  0
 30 28  2  0
 29 30  1  0
  1 31  1  0
  1 32  1  0
  2 33  1  0
  2 34  1  0
  4 35  1  6
  5 36  1  0
  6 37  1  0
  7 38  1  0
  7 39  1  0
  7 40  1  0
  8 41  1  0
  9 42  1  0
 10 43  1  0
 11 44  1  0
 11 45  1  0
 12 46  1  0
 12 47  1  0
 14 48  1  1
 15 49  1  0
 16 50  1  0
 17 51  1  0
 17 52  1  0
 17 53  1  0
 18 54  1  0
 19 55  1  0
 20 56  1  0
 21 57  1  0
 21 58  1  0
 22 59  1  0
 22 60  1  0
 24 61  1  6
 25 62  1  0
 26 63  1  0
 27 64  1  0
 27 65  1  0
 27 66  1  0
 28 67  1  0
 29 68  1  0
 30 69  1  0
M  END
> <Uni-Dock RESULT> 
ENERGY=   -7.269  LOWER_BOUND=    0.817  UPPER_BOUND=    4.489
INTER + INTRA:          -7.269
INTER:                  -7.269
INTRA:                   0.000
UNBOUND:                 0.000

$$$$

     RDKit          3D

 69 69  0  0  0  0  0  0  0  0999 V2000
   46.9185    6.2381   11.7767 C   0  0  0  0  0  0  0  0  0  0  0  0
   48.9712    6.9769   12.9487 N   0  0  0  0  0  0  0  0  0  0  0  0
   45.4679    5.8321   11.8905 C   0  0  0  0  0  0  0  0  0  0  0  0
   47.5217    6.7759   13.0923 C   0  0  1  0  0  0  0  0  0  0  0  0
   44.4614    6.6121   11.3053 C   0  0  0  0  0  0  0  0  0  0  0  0
   45.1075    4.6702   12.5870 C   0  0  0  0  0  0  0  0  0  0  0  0
   46.8955    8.1043   13.5181 C   0  0  0  0  0  0  0  0  0  0  0  0
   43.1213    6.2381   11.4170 C   0  0  0  0  0  0  0  0  0  0  0  0
   43.7669    4.2979   12.6975 C   0  0  0  0  0  0  0  0  0  0  0  0
   42.7743    5.0818   12.1129 C   0  0  0  0  0  0  0  0  0  0  0  0
   46.7825    5.8797   12.9842 C   0  0  0  0  0  0  0  0  0  0  0  0
   46.4802    8.3619   13.1589 N   0  0  0  0  0  0  0  0  0  0  0  0
   45.4419    5.5866   12.3492 C   0  0  0  0  0  0  0  0  0  0  0  0
   47.3376    7.2826   12.6517 C   0  0  1  0  0  0  0  0  0  0  0  0
   45.3399    5.3770   10.9671 C   0  0  0  0  0  0  0  0  0  0  0  0
   44.2810    5.5273   13.1323 C   0  0  0  0  0  0  0  0  0  0  0  0
   48.7342    7.4546   13.2473 C   0  0  0  0  0  0  0  0  0  0  0  0
   43.0426    5.2667   12.5433 C   0  0  0  0  0  0  0  0  0  0  0  0
   44.1007    5.1168   10.3801 C   0  0  0  0  0  0  0  0  0  0  0  0
   42.9526    5.0622   11.1680 C   0  0  0  0  0  0  0  0  0  0  0  0
   44.6941    6.6399   13.0179 C   0  0  0  0  0  0  0  0  0  0  0  0
   42.8200    5.0516   12.7036 N   0  0  0  0  0  0  0  0  0  0  0  0
   46.1742    6.9028   12.8685 C   0  0  0  0  0  0  0  0  0  0  0  0
   44.2241    5.3236   12.3620 C   0  0  1  0  0  0  0  0  0  0  0  0
   46.6369    7.8989   11.9980 C   0  0  0  0  0  0  0  0  0  0  0  0
   47.1068    6.1508   13.5964 C   0  0  0  0  0  0  0  0  0  0  0  0
   44.3466    5.3578   10.8382 C   0  0  0  0  0  0  0  0  0  0  0  0
   48.0053    8.1358   11.8570 C   0  0  0  0  0  0  0  0  0  0  0  0
   48.4745    6.3892   13.4542 C   0  0  0  0  0  0  0  0  0  0  0  0
   48.9234    7.3811   12.5845 C   0  0  0  0  0  0  0  0  0  0  0  0
   47.0349    6.9833   10.9782 H   0  0  0  0  0  0  0  0  0  0  0  0
   47.4834    5.3573   11.4412 H   0  0  0  0  0  0  0  0  0  0  0  0
   49.4104    6.1063   12.6517 H   0  0  0  0  0  0  0  0  0  0  0  0
   49.1544    7.6550   12.2098 H   0  0  0  0  0  0  0  0  0  0  0  0
   47.3680    6.0476   13.8971 H   0  0  0  0  0  0  0  0  0  0  0  0
   44.7134    7.5193   10.7607 H   0  0  0  0  0  0  0  0  0  0  0  0
   45.8702    4.0463   13.0480 H   0  0  0  0  0  0  0  0  0  0  0  0
   47.3731    8.4884   14.4269 H   0  0  0  0  0  0  0  0  0  0  0  0
   46.9965    8.8658   12.7366 H   0  0  0  0  0  0  0  0  0  0  0  0
   45.8301    7.9859   13.7401 H   0  0  0  0  0  0  0  0  0  0  0  0
   42.3473    6.8501   10.9612 H   0  0  0  0  0  0  0  0  0  0  0  0
   43.4971    3.3956   13.2400 H   0  0  0  0  0  0  0  0  0  0  0  0
   41.7306    4.7917   12.1997 H   0  0  0  0  0  0  0  0  0  0  0  0
   47.4918    5.1125   12.6459 H   0  0  0  0  0  0  0  0  0  0  0  0
   46.7110    5.7550   14.0732 H   0  0  0  0  0  0  0  0  0  0  0  0
   45.5527    8.2645   12.7405 H   0  0  0  0  0  0  0  0  0  0  0  0
   46.3395    8.2460   14.1615 H   0  0  0  0  0  0  0  0  0  0  0  0
   47.4146    7.3998   11.5642 H   0  0  0  0  0  0  0  0  0  0  0  0
   46.2263    5.4156   10.3378 H   0  0  0  0  0  0  0  0  0  0  0  0
   44.3323    5.6842   14.2073 H   0  0  0  0  0  0  0  0  0  0  0  0
   49.1497    8.4374   12.9976 H   0  0  0  0  0  0  0  0  0  0  0  0
   49.4187    6.6966   12.8513 H   0  0  0  0  0  0  0  0  0  0  0  0
   48.7218    7.3597   14.3390 H   0  0  0  0  0  0  0  0  0  0  0  0
   42.1475    5.2225   13.1582 H   0  0  0  0  0  0  0  0  0  0  0  0
   44.0313    4.9564    9.3074 H   0  0  0  0  0  0  0  0  0  0  0  0
   41.9882    4.8591   10.7100 H   0  0  0  0  0  0  0  0  0  0  0  0
   44.4682    6.6211   14.0931 H   0  0  0  0  0  0  0  0  0  0  0  0
   44.1230    7.4861   12.6126 H   0  0  0  0  0  0  0  0  0  0  0  0
   42.2289    5.8096   12.3638 H   0  0  0  0  0  0  0  0  0  0  0  0
   42.7103    5.0372   13.7169 H   0  0  0  0  0  0  0  0  0  0  0  0
   44.8232    4.4859   12.7380 H   0  0  0  0  0  0  0  0  0  0  0  0
   45.9347    8.4957   11.4202 H   0  0  0  0  0  0  0  0  0  0  0  0
   46.7729    5.3736   14.2805 H   0  0  0  0  0  0  0  0  0  0  0  0
   45.3919    5.4542   10.5276 H   0  0  0  0  0  0  0  0  0  0  0  0
   43.9627    4.4323   10.3939 H   0  0  0  0  0  0  0  0  0  0  0  0
   43.7865    6.1957   10.4079 H   0  0  0  0  0  0  0  0  0  0  0  0
   48.3549    8.9093   11.1784 H   0  0  0  0  0  0  0  0  0  0  0  0
   49.1900    5.8007   14.0222 H   0  0  0  0  0  0  0  0  0  0  0  0
   49.9885    7.5661   12.4738 H   0  0  0  0  0  0  0  0  0  0  0  0
  4  2  1  0
  3  1  1  0
  4  1  1  0
  5  3  2  0
  6  3  1  0
  4  7  1  0
  8  5  1  0
  9  6  2  0
 10  8  2  0
  9 10  1  0
 12 14  1  0
 13 11  1  0
 14 11  1  0
 15 13  2  0
 16 13  1  0
 17 14  1  0
 18 16  2  0
 19 15  1  0
 20 18  1  0
 19 20  2  0
 24 22  1  0
 23 21  1  0
 24 21  1  0
 25 23  2  0
 26 23  1  0
 24 27  1  0
 28 25  1  0
 29 26  2  0
 30 28  2  0
 29 30  1  0
  1 31  1  0
  1 32  1  0
  2 33  1  0
  2 34  1  0
  4 35  1  6
  5 36  1  0
  6 37  1  0
  7 38  1  0
  7 39  1  0
  7 40  1  0
  8 41  1  0
  9 42  1  0
 10 43  1  0
 11 44  1  0
 11 45  1  0
 12 46  1  0
 12 47  1  0
 14 48  1  1
 15 49  1  0
 16 50  1  0
 17 51  1  0
 17 52  1  0
 17 53  1  0
 18 54  1  0
 19 55  1  0
 20 56  1  0
 21 57  1  0
 21 58  1  0
 22 59  1  0
 22 60  1  0
 24 61  1  6
 25 62  1  0
 26 63  1  0
 27 64  1  0
 27 65  1  0
 27 66  1  0
 28 67  1  0
 29 68  1  0
 30 69  1  0
M  END
> <Uni-Dock RESULT> 
ENERGY=   -7.235  LOWER_BOUND=    2.823  UPPER_BOUND=    4.698
INTER + INTRA:          -7.235
INTER:                  -7.235
INTRA:                   0.000
UNBOUND:                 0.000

$$$$

     RDKit          3D

 69 69  0  0  0  0  0  0  0  0999 V2000
   45.1677    6.7662   13.1372 C   0  0  0  0  0  0  0  0  0  0  0  0
   46.1380    9.0433   13.0595 N   0  0  0  0  0  0  0  0  0  0  0  0
   44.6807    5.5664   12.3591 C   0  0  0  0  0  0  0  0  0  0  0  0
   45.8576    7.8379   12.2657 C   0  0  1  0  0  0  0  0  0  0  0  0
   45.3394    4.3338   12.4637 C   0  0  0  0  0  0  0  0  0  0  0  0
   43.5643    5.6701   11.5178 C   0  0  0  0  0  0  0  0  0  0  0  0
   47.1754    7.3416   11.6696 C   0  0  0  0  0  0  0  0  0  0  0  0
   44.8912    3.2282   11.7391 C   0  0  0  0  0  0  0  0  0  0  0  0
   43.1177    4.5633   10.7942 C   0  0  0  0  0  0  0  0  0  0  0  0
   43.7812    3.3430   10.9047 C   0  0  0  0  0  0  0  0  0  0  0  0
   44.9096    7.2194   11.9826 C   0  0  0  0  0  0  0  0  0  0  0  0
   47.3729    6.7867   11.8144 N   0  0  0  0  0  0  0  0  0  0  0  0
   44.4757    5.7720   11.9267 C   0  0  0  0  0  0  0  0  0  0  0  0
   46.3103    7.4279   12.6000 C   0  0  1  0  0  0  0  0  0  0  0  0
   44.1384    5.0845   13.1007 C   0  0  0  0  0  0  0  0  0  0  0  0
   44.4112    5.0950   10.7011 C   0  0  0  0  0  0  0  0  0  0  0  0
   46.6241    8.9194   12.7103 C   0  0  0  0  0  0  0  0  0  0  0  0
   44.0203    3.7559   10.6521 C   0  0  0  0  0  0  0  0  0  0  0  0
   43.7479    3.7455   13.0494 C   0  0  0  0  0  0  0  0  0  0  0  0
   43.6895    3.0816   11.8257 C   0  0  0  0  0  0  0  0  0  0  0  0
   45.5337    5.3029   11.0456 C   0  0  0  0  0  0  0  0  0  0  0  0
   43.8064    3.6504   10.3980 N   0  0  0  0  0  0  0  0  0  0  0  0
   45.8771    6.5270   11.8615 C   0  0  0  0  0  0  0  0  0  0  0  0
   44.1369    4.7202   11.3510 C   0  0  1  0  0  0  0  0  0  0  0  0
   46.8199    6.4527   12.8957 C   0  0  0  0  0  0  0  0  0  0  0  0
   45.2541    7.7548   11.5978 C   0  0  0  0  0  0  0  0  0  0  0  0
   44.0439    4.1453   12.7649 C   0  0  0  0  0  0  0  0  0  0  0  0
   47.1310    7.5838   13.6523 C   0  0  0  0  0  0  0  0  0  0  0  0
   45.5667    8.8845   12.3553 C   0  0  0  0  0  0  0  0  0  0  0  0
   46.5045    8.7988   13.3823 C   0  0  0  0  0  0  0  0  0  0  0  0
   45.8451    6.4405   13.9381 H   0  0  0  0  0  0  0  0  0  0  0  0
   44.2988    7.2046   13.6474 H   0  0  0  0  0  0  0  0  0  0  0  0
   45.2747    9.3861   13.4791 H   0  0  0  0  0  0  0  0  0  0  0  0
   46.7584    8.8102   13.8342 H   0  0  0  0  0  0  0  0  0  0  0  0
   45.1950    8.1315   11.4431 H   0  0  0  0  0  0  0  0  0  0  0  0
   46.2091    4.2264   13.1080 H   0  0  0  0  0  0  0  0  0  0  0  0
   43.0341    6.6151   11.4213 H   0  0  0  0  0  0  0  0  0  0  0  0
   47.6684    8.1348   11.0958 H   0  0  0  0  0  0  0  0  0  0  0  0
   47.8696    7.0083   12.4492 H   0  0  0  0  0  0  0  0  0  0  0  0
   47.0087    6.5047   10.9839 H   0  0  0  0  0  0  0  0  0  0  0  0
   45.4093    2.2767   11.8253 H   0  0  0  0  0  0  0  0  0  0  0  0
   42.2515    4.6536   10.1440 H   0  0  0  0  0  0  0  0  0  0  0  0
   43.4332    2.4818   10.3407 H   0  0  0  0  0  0  0  0  0  0  0  0
   44.1628    7.7739   12.5664 H   0  0  0  0  0  0  0  0  0  0  0  0
   44.8775    7.6543   10.9745 H   0  0  0  0  0  0  0  0  0  0  0  0
   47.1793    5.7844   11.7623 H   0  0  0  0  0  0  0  0  0  0  0  0
   47.3374    7.1205   10.8522 H   0  0  0  0  0  0  0  0  0  0  0  0
   46.3355    6.9994   13.6089 H   0  0  0  0  0  0  0  0  0  0  0  0
   44.1781    5.5880   14.0639 H   0  0  0  0  0  0  0  0  0  0  0  0
   44.6657    5.6054    9.7751 H   0  0  0  0  0  0  0  0  0  0  0  0
   47.6056    9.0817   13.1697 H   0  0  0  0  0  0  0  0  0  0  0  0
   45.8797    9.4252   13.3347 H   0  0  0  0  0  0  0  0  0  0  0  0
   46.6256    9.4051   11.7279 H   0  0  0  0  0  0  0  0  0  0  0  0
   43.9731    3.2387    9.6974 H   0  0  0  0  0  0  0  0  0  0  0  0
   43.4890    3.2204   13.9651 H   0  0  0  0  0  0  0  0  0  0  0  0
   43.3849    2.0390   11.7869 H   0  0  0  0  0  0  0  0  0  0  0  0
   45.5956    5.5839    9.9851 H   0  0  0  0  0  0  0  0  0  0  0  0
   46.3021    4.5315   11.1904 H   0  0  0  0  0  0  0  0  0  0  0  0
   44.4916    2.8991   10.4709 H   0  0  0  0  0  0  0  0  0  0  0  0
   43.8747    4.0067    9.4454 H   0  0  0  0  0  0  0  0  0  0  0  0
   43.3761    5.5026   11.2455 H   0  0  0  0  0  0  0  0  0  0  0  0
   47.3168    5.5121   13.1223 H   0  0  0  0  0  0  0  0  0  0  0  0
   44.5207    7.8390   10.7988 H   0  0  0  0  0  0  0  0  0  0  0  0
   44.1795    4.9269   13.5193 H   0  0  0  0  0  0  0  0  0  0  0  0
   43.0598    3.6956   12.9405 H   0  0  0  0  0  0  0  0  0  0  0  0
   44.8025    3.3734   12.9364 H   0  0  0  0  0  0  0  0  0  0  0  0
   47.8624    7.5164   14.4534 H   0  0  0  0  0  0  0  0  0  0  0  0
   45.0781    9.8320   12.1439 H   0  0  0  0  0  0  0  0  0  0  0  0
   46.7472    9.6787   13.9721 H   0  0  0  0  0  0  0  0  0  0  0  0
  4  2  1  0
  3  1  1  0
  4  1  1  0
  5  3  2  0
  6  3  1  0
  4  7  1  0
  8  5  1  0
  9  6  2  0
 10  8  2  0
  9 10  1  0
 12 14  1  0
 13 11  1  0
 14 11  1  0
 15 13  2  0
 16 13  1  0
 17 14  1  0
 18 16  2  0
 19 15  1  0
 20 18  1  0
 19 20  2  0
 24 22  1  0
 23 21  1  0
 24 21  1  0
 25 23  2  0
 26 23  1  0
 24 27  1  0
 28 25  1  0
 29 26  2  0
 30 28  2  0
 29 30  1  0
  1 31  1  0
  1 32  1  0
  2 33  1  0
  2 34  1  0
  4 35  1  6
  5 36  1  0
  6 37  1  0
  7 38  1  0
  7 39  1  0
  7 40  1  0
  8 41  1  0
  9 42  1  0
 10 43  1  0
 11 44  1  0
 11 45  1  0
 12 46  1  0
 12 47  1  0
 14 48  1  1
 15 49  1  0
 16 50  1  0
 17 51  1  0
 17 52  1  0
 17 53  1  0
 18 54  1  0
 19 55  1  0
 20 56  1  0
 21 57  1  0
 21 58  1  0
 22 59  1  0
 22 60  1  0
 24 61  1  6
 25 62  1  0
 26 63  1  0
 27 64  1  0
 27 65  1  0
 27 66  1  0
 28 67  1  0
 29 68  1  0
 30 69  1  0
M  END
> <Uni-Dock RESULT> 
ENERGY=   -7.197  LOWER_BOUND=    2.325  UPPER_BOUND=    4.550
INTER + INTRA:          -7.197
INTER:                  -7.197
INTRA:                   0.000
UNBOUND:                 0.000

$$$$

     RDKit          3D

 69 69  0  0  0  0  0  0  0  0999 V2000
   45.4152    5.0132   11.2824 C   0  0  0  0  0  0  0  0  0  0  0  0
   43.6588    3.3339   10.8049 N   0  0  0  0  0  0  0  0  0  0  0  0
   45.7547    6.3644   11.8665 C   0  0  0  0  0  0  0  0  0  0  0  0
   43.9633    4.5629   11.5525 C   0  0  1  0  0  0  0  0  0  0  0  0
   46.5907    6.4670   12.9866 C   0  0  0  0  0  0  0  0  0  0  0  0
   45.2346    7.5355   11.2981 C   0  0  0  0  0  0  0  0  0  0  0  0
   43.7043    4.2957   13.0357 C   0  0  0  0  0  0  0  0  0  0  0  0
   46.8980    7.7163   13.5281 C   0  0  0  0  0  0  0  0  0  0  0  0
   45.5432    8.7837   11.8411 C   0  0  0  0  0  0  0  0  0  0  0  0
   46.3744    8.8738   12.9558 C   0  0  0  0  0  0  0  0  0  0  0  0
   44.3159    5.6429   11.2870 C   0  0  0  0  0  0  0  0  0  0  0  0
   44.1635    4.3488   13.4283 N   0  0  0  0  0  0  0  0  0  0  0  0
   45.3327    6.6534   11.7677 C   0  0  0  0  0  0  0  0  0  0  0  0
   44.4230    4.2688   11.9849 C   0  0  1  0  0  0  0  0  0  0  0  0
   46.6875    6.5119   11.4372 C   0  0  0  0  0  0  0  0  0  0  0  0
   44.9364    7.7422   12.5565 C   0  0  0  0  0  0  0  0  0  0  0  0
   43.4305    3.2832   11.3696 C   0  0  0  0  0  0  0  0  0  0  0  0
   45.8778    8.6687   13.0080 C   0  0  0  0  0  0  0  0  0  0  0  0
   47.6271    7.4394   11.8900 C   0  0  0  0  0  0  0  0  0  0  0  0
   47.2223    8.5168   12.6754 C   0  0  0  0  0  0  0  0  0  0  0  0
   44.8872    6.7099   13.1513 C   0  0  0  0  0  0  0  0  0  0  0  0
   45.7985    9.0080   13.0027 N   0  0  0  0  0  0  0  0  0  0  0  0
   44.5772    5.4181   12.4321 C   0  0  0  0  0  0  0  0  0  0  0  0
   45.6942    7.7180   12.3048 C   0  0  1  0  0  0  0  0  0  0  0  0
   45.2376    4.2321   12.7807 C   0  0  0  0  0  0  0  0  0  0  0  0
   43.6265    5.3882   11.4024 C   0  0  0  0  0  0  0  0  0  0  0  0
   47.1091    7.2224   12.0040 C   0  0  0  0  0  0  0  0  0  0  0  0
   44.9538    3.0409   12.1106 C   0  0  0  0  0  0  0  0  0  0  0  0
   43.3442    4.1962   10.7337 C   0  0  0  0  0  0  0  0  0  0  0  0
   44.0079    3.0232   11.0876 C   0  0  0  0  0  0  0  0  0  0  0  0
   46.1186    4.2579   11.6582 H   0  0  0  0  0  0  0  0  0  0  0  0
   45.5926    5.0669   10.1993 H   0  0  0  0  0  0  0  0  0  0  0  0
   43.8370    3.4833    9.8125 H   0  0  0  0  0  0  0  0  0  0  0  0
   44.2874    2.5866   11.0979 H   0  0  0  0  0  0  0  0  0  0  0  0
   43.2646    5.3366   11.2136 H   0  0  0  0  0  0  0  0  0  0  0  0
   47.0063    5.5741   13.4481 H   0  0  0  0  0  0  0  0  0  0  0  0
   44.5854    7.4828   10.4268 H   0  0  0  0  0  0  0  0  0  0  0  0
   42.6827    3.9319   13.1951 H   0  0  0  0  0  0  0  0  0  0  0  0
   44.3956    3.5458   13.4364 H   0  0  0  0  0  0  0  0  0  0  0  0
   43.8162    5.2100   13.6274 H   0  0  0  0  0  0  0  0  0  0  0  0
   47.5461    7.7860   14.3979 H   0  0  0  0  0  0  0  0  0  0  0  0
   45.1348    9.6861   11.3938 H   0  0  0  0  0  0  0  0  0  0  0  0
   46.6139    9.8459   13.3784 H   0  0  0  0  0  0  0  0  0  0  0  0
   44.4491    5.5181   10.2040 H   0  0  0  0  0  0  0  0  0  0  0  0
   43.3030    6.0483   11.4143 H   0  0  0  0  0  0  0  0  0  0  0  0
   44.8439    4.9870   13.8464 H   0  0  0  0  0  0  0  0  0  0  0  0
   43.2535    4.7779   13.5903 H   0  0  0  0  0  0  0  0  0  0  0  0
   45.4330    3.8644   11.8487 H   0  0  0  0  0  0  0  0  0  0  0  0
   47.0202    5.6770   10.8246 H   0  0  0  0  0  0  0  0  0  0  0  0
   43.8914    7.8767   12.8257 H   0  0  0  0  0  0  0  0  0  0  0  0
   43.5136    2.2967   11.8396 H   0  0  0  0  0  0  0  0  0  0  0  0
   43.6260    3.1563   10.2992 H   0  0  0  0  0  0  0  0  0  0  0  0
   42.3964    3.6271   11.4846 H   0  0  0  0  0  0  0  0  0  0  0  0
   45.5616    9.5100   13.6192 H   0  0  0  0  0  0  0  0  0  0  0  0
   48.6756    7.3209   11.6293 H   0  0  0  0  0  0  0  0  0  0  0  0
   47.9548    9.2387   13.0271 H   0  0  0  0  0  0  0  0  0  0  0  0
   43.9306    7.1590   13.4523 H   0  0  0  0  0  0  0  0  0  0  0  0
   45.4190    6.4960   14.0882 H   0  0  0  0  0  0  0  0  0  0  0  0
   46.2765    8.8808   13.8941 H   0  0  0  0  0  0  0  0  0  0  0  0
   44.8658    9.3532   13.2263 H   0  0  0  0  0  0  0  0  0  0  0  0
   45.1818    7.8986   11.3526 H   0  0  0  0  0  0  0  0  0  0  0  0
   45.9808    4.2279   13.5748 H   0  0  0  0  0  0  0  0  0  0  0  0
   43.0985    6.2948   11.1148 H   0  0  0  0  0  0  0  0  0  0  0  0
   47.0885    6.3145   11.3927 H   0  0  0  0  0  0  0  0  0  0  0  0
   47.6765    7.9747   11.4441 H   0  0  0  0  0  0  0  0  0  0  0  0
   47.6617    6.9993   12.9237 H   0  0  0  0  0  0  0  0  0  0  0  0
   45.4720    2.1264   12.3867 H   0  0  0  0  0  0  0  0  0  0  0  0
   42.6059    4.1829    9.9363 H   0  0  0  0  0  0  0  0  0  0  0  0
   43.7880    2.0954   10.5663 H   0  0  0  0  0  0  0  0  0  0  0  0
  4  2  1  0
  3  1  1  0
  4  1  1  0
  5  3  2  0
  6  3  1  0
  4  7  1  0
  8  5  1  0
  9  6  2  0
 10  8  2  0
  9 10  1  0
 12 14  1  0
 13 11  1  0
 14 11  1  0
 15 13  2  0
 16 13  1  0
 17 14  1  0
 18 16  2  0
 19 15  1  0
 20 18  1  0
 19 20  2  0
 24 22  1  0
 23 21  1  0
 24 21  1  0
 25 23  2  0
 26 23  1  0
 24 27  1  0
 28 25  1  0
 29 26  2  0
 30 28  2  0
 29 30  1  0
  1 31  1  0
  1 32  1  0
  2 33  1  0
  2 34  1  0
  4 35  1  6
  5 36  1  0
  6 37  1  0
  7 38  1  0
  7 39  1  0
  7 40  1  0
  8 41  1  0
  9 42  1  0
 10 43  1  0
 11 44  1  0
 11 45  1  0
 12 46  1  0
 12 47  1  0
 14 48  1  1
 15 49  1  0
 16 50  1  0
 17 51  1  0
 17 52  1  0
 17 53  1  0
 18 54  1  0
 19 55  1  0
 20 56  1  0
 21 57  1  0
 21 58  1  0
 22 59  1  0
 22 60  1  0
 24 61  1  6
 25 62  1  0
 26 63  1  0
 27 64  1  0
 27 65  1  0
 27 66  1  0
 28 67  1  0
 29 68  1  0
 30 69  1  0
M  END
> <Uni-Dock RESULT> 
ENERGY=   -6.748  LOWER_BOUND=    2.380  UPPER_BOUND=    4.088
INTER + INTRA:          -6.748
INTER:                  -6.748
INTRA:                   0.000
UNBOUND:                 0.000

$$$$

     RDKit          3D

 69 69  0  0  0  0  0  0  0  0999 V2000
   44.7122    6.8413   12.8000 C   0  0  0  0  0  0  0  0  0  0  0  0
   42.8816    5.1990   12.5090 N   0  0  0  0  0  0  0  0  0  0  0  0
   46.2021    7.0896   12.8310 C   0  0  0  0  0  0  0  0  0  0  0  0
   44.3255    5.4191   12.3399 C   0  0  1  0  0  0  0  0  0  0  0  0
   46.8081    7.9093   11.8693 C   0  0  0  0  0  0  0  0  0  0  0  0
   47.0006    6.5001   13.8209 C   0  0  0  0  0  0  0  0  0  0  0  0
   44.6782    5.1669   10.8736 C   0  0  0  0  0  0  0  0  0  0  0  0
   48.1857    8.1324   11.8964 C   0  0  0  0  0  0  0  0  0  0  0  0
   48.3779    6.7246   13.8462 C   0  0  0  0  0  0  0  0  0  0  0  0
   48.9701    7.5402   12.8841 C   0  0  0  0  0  0  0  0  0  0  0  0
   45.2194    5.7040   13.0335 C   0  0  0  0  0  0  0  0  0  0  0  0
   44.9164    5.6190   10.5467 N   0  0  0  0  0  0  0  0  0  0  0  0
   46.3983    6.6508   13.0317 C   0  0  0  0  0  0  0  0  0  0  0  0
   44.2645    5.8935   11.8339 C   0  0  1  0  0  0  0  0  0  0  0  0
   46.2162    8.0143   13.3012 C   0  0  0  0  0  0  0  0  0  0  0  0
   47.6890    6.1802   12.7536 C   0  0  0  0  0  0  0  0  0  0  0  0
   43.0543    4.9704   11.9691 C   0  0  0  0  0  0  0  0  0  0  0  0
   48.7748    7.0573   12.7423 C   0  0  0  0  0  0  0  0  0  0  0  0
   47.3033    8.8895   13.2891 C   0  0  0  0  0  0  0  0  0  0  0  0
   48.5818    8.4111   13.0093 C   0  0  0  0  0  0  0  0  0  0  0  0
   46.9928    6.1926   11.7857 C   0  0  0  0  0  0  0  0  0  0  0  0
   49.0762    6.9565   12.8854 N   0  0  0  0  0  0  0  0  0  0  0  0
   45.5031    5.9709   11.9028 C   0  0  0  0  0  0  0  0  0  0  0  0
   47.6095    6.9398   12.9879 C   0  0  1  0  0  0  0  0  0  0  0  0
   44.6090    6.7029   11.1099 C   0  0  0  0  0  0  0  0  0  0  0  0
   44.9933    5.0314   12.8099 C   0  0  0  0  0  0  0  0  0  0  0  0
   47.1214    8.3856   13.0857 C   0  0  0  0  0  0  0  0  0  0  0  0
   43.2326    6.5006   11.2243 C   0  0  0  0  0  0  0  0  0  0  0  0
   43.6169    4.8306   12.9227 C   0  0  0  0  0  0  0  0  0  0  0  0
   42.7370    5.5652   12.1304 C   0  0  0  0  0  0  0  0  0  0  0  0
   44.2235    7.5886   12.1605 H   0  0  0  0  0  0  0  0  0  0  0  0
   44.3254    7.0228   13.8124 H   0  0  0  0  0  0  0  0  0  0  0  0
   42.6191    5.3745   13.4782 H   0  0  0  0  0  0  0  0  0  0  0  0
   42.3614    5.8718   11.9467 H   0  0  0  0  0  0  0  0  0  0  0  0
   44.8465    4.6749   12.9536 H   0  0  0  0  0  0  0  0  0  0  0  0
   46.2120    8.3776   11.0893 H   0  0  0  0  0  0  0  0  0  0  0  0
   46.5538    5.8619   14.5802 H   0  0  0  0  0  0  0  0  0  0  0  0
   44.3508    4.1695   10.5584 H   0  0  0  0  0  0  0  0  0  0  0  0
   44.2038    5.9016   10.2133 H   0  0  0  0  0  0  0  0  0  0  0  0
   45.7600    5.2160   10.7132 H   0  0  0  0  0  0  0  0  0  0  0  0
   48.6472    8.7683   11.1454 H   0  0  0  0  0  0  0  0  0  0  0  0
   48.9889    6.2627   14.6173 H   0  0  0  0  0  0  0  0  0  0  0  0
   50.0426    7.7142   12.9042 H   0  0  0  0  0  0  0  0  0  0  0  0
   44.6677    5.8528   13.9714 H   0  0  0  0  0  0  0  0  0  0  0  0
   45.5785    4.6664   13.0646 H   0  0  0  0  0  0  0  0  0  0  0  0
   45.7104    6.2542   10.4421 H   0  0  0  0  0  0  0  0  0  0  0  0
   45.3176    4.6823   10.5580 H   0  0  0  0  0  0  0  0  0  0  0  0
   43.9024    6.9281   11.8114 H   0  0  0  0  0  0  0  0  0  0  0  0
   45.2250    8.4039   13.5221 H   0  0  0  0  0  0  0  0  0  0  0  0
   47.8583    5.1268   12.5432 H   0  0  0  0  0  0  0  0  0  0  0  0
   42.3563    5.1127   11.1364 H   0  0  0  0  0  0  0  0  0  0  0  0
   42.5097    5.1813   12.8959 H   0  0  0  0  0  0  0  0  0  0  0  0
   43.3512    3.9156   11.9856 H   0  0  0  0  0  0  0  0  0  0  0  0
   49.7722    6.6837   12.5257 H   0  0  0  0  0  0  0  0  0  0  0  0
   47.1522    9.9453   13.4984 H   0  0  0  0  0  0  0  0  0  0  0  0
   49.4277    9.0935   13.0005 H   0  0  0  0  0  0  0  0  0  0  0  0
   47.4666    5.2071   11.6775 H   0  0  0  0  0  0  0  0  0  0  0  0
   47.2169    6.7301   10.8545 H   0  0  0  0  0  0  0  0  0  0  0  0
   49.3572    7.4352   12.0302 H   0  0  0  0  0  0  0  0  0  0  0  0
   49.4252    6.0022   12.8053 H   0  0  0  0  0  0  0  0  0  0  0  0
   47.3498    6.4238   13.9197 H   0  0  0  0  0  0  0  0  0  0  0  0
   44.9778    7.4391   10.3993 H   0  0  0  0  0  0  0  0  0  0  0  0
   45.6667    4.4488   13.4349 H   0  0  0  0  0  0  0  0  0  0  0  0
   46.0428    8.4274   13.2683 H   0  0  0  0  0  0  0  0  0  0  0  0
   47.6092    8.9079   13.9167 H   0  0  0  0  0  0  0  0  0  0  0  0
   47.3314    8.9445   12.1668 H   0  0  0  0  0  0  0  0  0  0  0  0
   42.5466    7.0740   10.6063 H   0  0  0  0  0  0  0  0  0  0  0  0
   43.2310    4.1005   13.6292 H   0  0  0  0  0  0  0  0  0  0  0  0
   41.6652    5.4086   12.2189 H   0  0  0  0  0  0  0  0  0  0  0  0
  4  2  1  0
  3  1  1  0
  4  1  1  0
  5  3  2  0
  6  3  1  0
  4  7  1  0
  8  5  1  0
  9  6  2  0
 10  8  2  0
  9 10  1  0
 12 14  1  0
 13 11  1  0
 14 11  1  0
 15 13  2  0
 16 13  1  0
 17 14  1  0
 18 16  2  0
 19 15  1  0
 20 18  1  0
 19 20  2  0
 24 22  1  0
 23 21  1  0
 24 21  1  0
 25 23  2  0
 26 23  1  0
 24 27  1  0
 28 25  1  0
 29 26  2  0
 30 28  2  0
 29 30  1  0
  1 31  1  0
  1 32  1  0
  2 33  1  0
  2 34  1  0
  4 35  1  6
  5 36  1  0
  6 37  1  0
  7 38  1  0
  7 39  1  0
  7 40  1  0
  8 41  1  0
  9 42  1  0
 10 43  1  0
 11 44  1  0
 11 45  1  0
 12 46  1  0
 12 47  1  0
 14 48  1  1
 15 49  1  0
 16 50  1  0
 17 51  1  0
 17 52  1  0
 17 53  1  0
 18 54  1  0
 19 55  1  0
 20 56  1  0
 21 57  1  0
 21 58  1  0
 22 59  1  0
 22 60  1  0
 24 61  1  6
 25 62  1  0
 26 63  1  0
 27 64  1  0
 27 65  1  0
 27 66  1  0
 28 67  1  0
 29 68  1  0
 30 69  1  0
M  END
> <Uni-Dock RESULT> 
ENERGY=   -6.706  LOWER_BOUND=    3.102  UPPER_BOUND=    5.140
INTER + INTRA:          -6.706
INTER:                  -6.706
INTRA:                   0.000
UNBOUND:                 0.000

$$$$

     RDKit          3D

 69 69  0  0  0  0  0  0  0  0999 V2000
   46.1311    7.3960   11.4711 C   0  0  0  0  0  0  0  0  0  0  0  0
   48.3044    8.5472   11.7611 N   0  0  0  0  0  0  0  0  0  0  0  0
   45.2533    6.2263   11.8501 C   0  0  0  0  0  0  0  0  0  0  0  0
   47.4256    7.5018   12.3059 C   0  0  1  0  0  0  0  0  0  0  0  0
   44.0514    6.4317   12.5409 C   0  0  0  0  0  0  0  0  0  0  0  0
   45.6310    4.9176   11.5192 C   0  0  0  0  0  0  0  0  0  0  0  0
   47.1456    7.8304   13.7727 C   0  0  0  0  0  0  0  0  0  0  0  0
   43.2451    5.3488   12.8954 C   0  0  0  0  0  0  0  0  0  0  0  0
   44.8233    3.8362   11.8745 C   0  0  0  0  0  0  0  0  0  0  0  0
   43.6310    4.0519   12.5625 C   0  0  0  0  0  0  0  0  0  0  0  0
   46.9377    6.5207   11.9051 C   0  0  0  0  0  0  0  0  0  0  0  0
   46.5730    7.9263   13.9483 N   0  0  0  0  0  0  0  0  0  0  0  0
   45.5899    5.8356   11.9238 C   0  0  0  0  0  0  0  0  0  0  0  0
   46.9270    7.9367   12.5229 C   0  0  1  0  0  0  0  0  0  0  0  0
   44.5580    6.2723   11.0816 C   0  0  0  0  0  0  0  0  0  0  0  0
   45.3505    4.7588   12.7885 C   0  0  0  0  0  0  0  0  0  0  0  0
   48.2993    8.5915   12.3706 C   0  0  0  0  0  0  0  0  0  0  0  0
   44.1026    4.1339   12.8120 C   0  0  0  0  0  0  0  0  0  0  0  0
   43.3109    5.6461   11.1068 C   0  0  0  0  0  0  0  0  0  0  0  0
   43.0834    4.5778   11.9720 C   0  0  0  0  0  0  0  0  0  0  0  0
   45.4297    5.7973   13.3691 C   0  0  0  0  0  0  0  0  0  0  0  0
   44.0869    3.7864   12.8336 N   0  0  0  0  0  0  0  0  0  0  0  0
   46.3186    6.9046   12.8536 C   0  0  0  0  0  0  0  0  0  0  0  0
   44.7853    4.9439   12.2554 C   0  0  1  0  0  0  0  0  0  0  0  0
   45.9065    8.2421   12.9272 C   0  0  0  0  0  0  0  0  0  0  0  0
   47.5679    6.6093   12.2903 C   0  0  0  0  0  0  0  0  0  0  0  0
   43.7804    5.7399   11.4217 C   0  0  0  0  0  0  0  0  0  0  0  0
   46.7270    9.2630   12.4446 C   0  0  0  0  0  0  0  0  0  0  0  0
   48.3868    7.6315   11.8085 C   0  0  0  0  0  0  0  0  0  0  0  0
   47.9663    8.9577   11.8854 C   0  0  0  0  0  0  0  0  0  0  0  0
   45.5587    8.3305   11.5459 H   0  0  0  0  0  0  0  0  0  0  0  0
   46.3825    7.2898   10.4067 H   0  0  0  0  0  0  0  0  0  0  0  0
   48.4951    8.3569   10.7780 H   0  0  0  0  0  0  0  0  0  0  0  0
   47.8284    9.4482   11.7898 H   0  0  0  0  0  0  0  0  0  0  0  0
   47.9747    6.5539   12.2627 H   0  0  0  0  0  0  0  0  0  0  0  0
   43.7356    7.4367   12.8114 H   0  0  0  0  0  0  0  0  0  0  0  0
   46.5579    4.7320   10.9809 H   0  0  0  0  0  0  0  0  0  0  0  0
   48.0806    7.9474   14.3328 H   0  0  0  0  0  0  0  0  0  0  0  0
   46.5729    8.7590   13.8751 H   0  0  0  0  0  0  0  0  0  0  0  0
   46.5793    7.0280   14.2564 H   0  0  0  0  0  0  0  0  0  0  0  0
   42.3153    5.5175   13.4324 H   0  0  0  0  0  0  0  0  0  0  0  0
   45.1247    2.8250   11.6140 H   0  0  0  0  0  0  0  0  0  0  0  0
   43.0027    3.2095   12.8392 H   0  0  0  0  0  0  0  0  0  0  0  0
   47.2743    6.5761   10.8612 H   0  0  0  0  0  0  0  0  0  0  0  0
   47.6781    5.8941   12.4205 H   0  0  0  0  0  0  0  0  0  0  0  0
   45.6435    7.5132   14.0497 H   0  0  0  0  0  0  0  0  0  0  0  0
   47.2030    7.3050   14.4539 H   0  0  0  0  0  0  0  0  0  0  0  0
   46.1923    8.5608   12.0005 H   0  0  0  0  0  0  0  0  0  0  0  0
   44.7191    7.1044   10.3999 H   0  0  0  0  0  0  0  0  0  0  0  0
   46.1343    4.3988   13.4510 H   0  0  0  0  0  0  0  0  0  0  0  0
   48.2983    9.6067   12.7832 H   0  0  0  0  0  0  0  0  0  0  0  0
   48.5766    8.6652   11.3135 H   0  0  0  0  0  0  0  0  0  0  0  0
   49.0792    8.0180   12.8842 H   0  0  0  0  0  0  0  0  0  0  0  0
   43.9258    3.2995   13.4857 H   0  0  0  0  0  0  0  0  0  0  0  0
   42.5166    5.9923   10.4506 H   0  0  0  0  0  0  0  0  0  0  0  0
   42.1120    4.0906   11.9906 H   0  0  0  0  0  0  0  0  0  0  0  0
   46.0415    5.1579   14.0205 H   0  0  0  0  0  0  0  0  0  0  0  0
   44.6500    6.2178   14.0185 H   0  0  0  0  0  0  0  0  0  0  0  0
   43.3500    4.1059   13.4615 H   0  0  0  0  0  0  0  0  0  0  0  0
   44.7345    3.2462   13.4062 H   0  0  0  0  0  0  0  0  0  0  0  0
   45.5624    4.5590   11.5847 H   0  0  0  0  0  0  0  0  0  0  0  0
   44.9413    8.4986   13.3580 H   0  0  0  0  0  0  0  0  0  0  0  0
   47.9117    5.5793   12.2240 H   0  0  0  0  0  0  0  0  0  0  0  0
   44.2722    6.5566   10.8835 H   0  0  0  0  0  0  0  0  0  0  0  0
   43.3023    5.1010   10.6703 H   0  0  0  0  0  0  0  0  0  0  0  0
   42.9915    6.1727   12.0472 H   0  0  0  0  0  0  0  0  0  0  0  0
   46.3985   10.2972   12.5045 H   0  0  0  0  0  0  0  0  0  0  0  0
   49.3535    7.3928   11.3729 H   0  0  0  0  0  0  0  0  0  0  0  0
   48.6042    9.7532   11.5096 H   0  0  0  0  0  0  0  0  0  0  0  0
  4  2  1  0
  3  1  1  0
  4  1  1  0
  5  3  2  0
  6  3  1  0
  4  7  1  0
  8  5  1  0
  9  6  2  0
 10  8  2  0
  9 10  1  0
 12 14  1  0
 13 11  1  0
 14 11  1  0
 15 13  2  0
 16 13  1  0
 17 14  1  0
 18 16  2  0
 19 15  1  0
 20 18  1  0
 19 20  2  0
 24 22  1  0
 23 21  1  0
 24 21  1  0
 25 23  2  0
 26 23  1  0
 24 27  1  0
 28 25  1  0
 29 26  2  0
 30 28  2  0
 29 30  1  0
  1 31  1  0
  1 32  1  0
  2 33  1  0
  2 34  1  0
  4 35  1  6
  5 36  1  0
  6 37  1  0
  7 38  1  0
  7 39  1  0
  7 40  1  0
  8 41  1  0
  9 42  1  0
 10 43  1  0
 11 44  1  0
 11 45  1  0
 12 46  1  0
 12 47  1  0
 14 48  1  1
 15 49  1  0
 16 50  1  0
 17 51  1  0
 17 52  1  0
 17 53  1  0
 18 54  1  0
 19 55  1  0
 20 56  1  0
 21 57  1  0
 21 58  1  0
 22 59  1  0
 22 60  1  0
 24 61  1  6
 25 62  1  0
 26 63  1  0
 27 64  1  0
 27 65  1  0
 27 66  1  0
 28 67  1  0
 29 68  1  0
 30 69  1  0
M  END
> <Uni-Dock RESULT> 
ENERGY=   -6.046  LOWER_BOUND=    2.830  UPPER_BOUND=    4.808
INTER + INTRA:          -6.046
INTER:                  -6.046
INTRA:                   0.000
UNBOUND:                 0.000

$$$$

     RDKit          3D

 69 69  0  0  0  0  0  0  0  0999 V2000
   48.3084    3.7295   19.2112 C   0  0  0  0  0  0  0  0  0  0  0  0
   48.8563    2.6314   17.0602 N   0  0  0  0  0  0  0  0  0  0  0  0
   48.5486    4.8987   20.1373 C   0  0  0  0  0  0  0  0  0  0  0  0
   48.9835    3.8773   17.8305 C   0  0  1  0  0  0  0  0  0  0  0  0
   47.5182    5.8043   20.4239 C   0  0  0  0  0  0  0  0  0  0  0  0
   49.8079    5.0965   20.7205 C   0  0  0  0  0  0  0  0  0  0  0  0
   48.3763    5.0126   17.0056 C   0  0  0  0  0  0  0  0  0  0  0  0
   47.7443    6.8873   21.2750 C   0  0  0  0  0  0  0  0  0  0  0  0
   50.0318    6.1799   21.5714 C   0  0  0  0  0  0  0  0  0  0  0  0
   49.0004    7.0750   21.8482 C   0  0  0  0  0  0  0  0  0  0  0  0
   49.4367    4.1865   18.8602 C   0  0  0  0  0  0  0  0  0  0  0  0
   47.9056    5.3210   17.2318 N   0  0  0  0  0  0  0  0  0  0  0  0
   49.0514    5.0145   20.0653 C   0  0  0  0  0  0  0  0  0  0  0  0
   48.3055    4.0355   17.8189 C   0  0  1  0  0  0  0  0  0  0  0  0
   48.1489    4.5135   21.0137 C   0  0  0  0  0  0  0  0  0  0  0  0
   49.5854    6.2975   20.2479 C   0  0  0  0  0  0  0  0  0  0  0  0
   48.7457    3.1047   16.6897 C   0  0  0  0  0  0  0  0  0  0  0  0
   49.2209    7.0647   21.3556 C   0  0  0  0  0  0  0  0  0  0  0  0
   47.7857    5.2825   22.1204 C   0  0  0  0  0  0  0  0  0  0  0  0
   48.3211    6.5576   22.2908 C   0  0  0  0  0  0  0  0  0  0  0  0
   48.7977    6.2575   19.3536 C   0  0  0  0  0  0  0  0  0  0  0  0
   49.4653    7.2483   21.5230 N   0  0  0  0  0  0  0  0  0  0  0  0
   48.6278    5.0029   18.5296 C   0  0  0  0  0  0  0  0  0  0  0  0
   49.1398    5.9901   20.8353 C   0  0  1  0  0  0  0  0  0  0  0  0
   47.3558    4.5968   18.1036 C   0  0  0  0  0  0  0  0  0  0  0  0
   49.7405    4.2243   18.1822 C   0  0  0  0  0  0  0  0  0  0  0  0
   47.9881    5.3202   21.5856 C   0  0  0  0  0  0  0  0  0  0  0  0
   47.2006    3.4338   17.3474 C   0  0  0  0  0  0  0  0  0  0  0  0
   49.5832    3.0619   17.4260 C   0  0  0  0  0  0  0  0  0  0  0  0
   48.3137    2.6668   17.0092 C   0  0  0  0  0  0  0  0  0  0  0  0
   47.2290    3.5695   19.0861 H   0  0  0  0  0  0  0  0  0  0  0  0
   48.6830    2.8270   19.7137 H   0  0  0  0  0  0  0  0  0  0  0  0
   49.2431    1.8556   17.5965 H   0  0  0  0  0  0  0  0  0  0  0  0
   47.8709    2.4141   16.9151 H   0  0  0  0  0  0  0  0  0  0  0  0
   50.0536    4.0776   17.9592 H   0  0  0  0  0  0  0  0  0  0  0  0
   46.5322    5.6751   19.9834 H   0  0  0  0  0  0  0  0  0  0  0  0
   50.6234    4.4062   20.5159 H   0  0  0  0  0  0  0  0  0  0  0  0
   48.8391    5.0659   16.0133 H   0  0  0  0  0  0  0  0  0  0  0  0
   47.2976    4.8776   16.8675 H   0  0  0  0  0  0  0  0  0  0  0  0
   48.5375    5.9819   17.4882 H   0  0  0  0  0  0  0  0  0  0  0  0
   46.9396    7.5853   21.4903 H   0  0  0  0  0  0  0  0  0  0  0  0
   51.0117    6.3254   22.0185 H   0  0  0  0  0  0  0  0  0  0  0  0
   49.1756    7.9186   22.5105 H   0  0  0  0  0  0  0  0  0  0  0  0
   49.7453    3.1945   19.2163 H   0  0  0  0  0  0  0  0  0  0  0  0
   50.3272    4.6187   18.3841 H   0  0  0  0  0  0  0  0  0  0  0  0
   47.5850    5.9360   17.9827 H   0  0  0  0  0  0  0  0  0  0  0  0
   48.7203    5.7836   16.8309 H   0  0  0  0  0  0  0  0  0  0  0  0
   47.4216    3.5966   18.2966 H   0  0  0  0  0  0  0  0  0  0  0  0
   47.7221    3.5200   20.8960 H   0  0  0  0  0  0  0  0  0  0  0  0
   50.2891    6.7094   19.5283 H   0  0  0  0  0  0  0  0  0  0  0  0
   47.9428    2.9694   15.9563 H   0  0  0  0  0  0  0  0  0  0  0  0
   49.0033    2.1154   17.0833 H   0  0  0  0  0  0  0  0  0  0  0  0
   49.6232    3.4964   16.1629 H   0  0  0  0  0  0  0  0  0  0  0  0
   49.6400    8.0586   21.4892 H   0  0  0  0  0  0  0  0  0  0  0  0
   47.0845    4.8859   22.8500 H   0  0  0  0  0  0  0  0  0  0  0  0
   48.0379    7.1553   23.1531 H   0  0  0  0  0  0  0  0  0  0  0  0
   49.5961    6.8529   18.8892 H   0  0  0  0  0  0  0  0  0  0  0  0
   47.8920    6.8748   19.2829 H   0  0  0  0  0  0  0  0  0  0  0  0
   48.6652    7.8791   21.4861 H   0  0  0  0  0  0  0  0  0  0  0  0
   50.2235    7.7210   21.0324 H   0  0  0  0  0  0  0  0  0  0  0  0
   50.0202    5.3402   20.9025 H   0  0  0  0  0  0  0  0  0  0  0  0
   46.4756    5.1818   18.3605 H   0  0  0  0  0  0  0  0  0  0  0  0
   50.7386    4.5194   18.4986 H   0  0  0  0  0  0  0  0  0  0  0  0
   47.7736    4.3278   21.1763 H   0  0  0  0  0  0  0  0  0  0  0  0
   48.2370    5.1850   22.6444 H   0  0  0  0  0  0  0  0  0  0  0  0
   47.0700    5.9159   21.5288 H   0  0  0  0  0  0  0  0  0  0  0  0
   46.2102    3.1259   17.0227 H   0  0  0  0  0  0  0  0  0  0  0  0
   50.4518    2.4644   17.1621 H   0  0  0  0  0  0  0  0  0  0  0  0
   48.1917    1.7613   16.4207 H   0  0  0  0  0  0  0  0  0  0  0  0
  4  2  1  0
  3  1  1  0
  4  1  1  0
  5  3  2  0
  6  3  1  0
  4  7  1  0
  8  5  1  0
  9  6  2  0
 10  8  2  0
  9 10  1  0
 12 14  1  0
 13 11  1  0
 14 11  1  0
 15 13  2  0
 16 13  1  0
 17 14  1  0
 18 16  2  0
 19 15  1  0
 20 18  1  0
 19 20  2  0
 24 22  1  0
 23 21  1  0
 24 21  1  0
 25 23  2  0
 26 23  1  0
 24 27  1  0
 28 25  1  0
 29 26  2  0
 30 28  2  0
 29 30  1  0
  1 31  1  0
  1 32  1  0
  2 33  1  0
  2 34  1  0
  4 35  1  6
  5 36  1  0
  6 37  1  0
  7 38  1  0
  7 39  1  0
  7 40  1  0
  8 41  1  0
  9 42  1  0
 10 43  1  0
 11 44  1  0
 11 45  1  0
 12 46  1  0
 12 47  1  0
 14 48  1  1
 15 49  1  0
 16 50  1  0
 17 51  1  0
 17 52  1  0
 17 53  1  0
 18 54  1  0
 19 55  1  0
 20 56  1  0
 21 57  1  0
 21 58  1  0
 22 59  1  0
 22 60  1  0
 24 61  1  6
 25 62  1  0
 26 63  1  0
 27 64  1  0
 27 65  1  0
 27 66  1  0
 28 67  1  0
 29 68  1  0
 30 69  1  0
M  END
> <Uni-Dock RESULT> 
ENERGY=   -5.954  LOWER_BOUND=    8.352  UPPER_BOUND=   10.428
INTER + INTRA:          -5.954
INTER:                  -5.954
INTRA:                   0.000
UNBOUND:                 0.000

$$$$

     RDKit          3D

 69 69  0  0  0  0  0  0  0  0999 V2000
   47.4774    5.1221   18.4854 C   0  0  0  0  0  0  0  0  0  0  0  0
   47.2884    3.4499   16.6686 N   0  0  0  0  0  0  0  0  0  0  0  0
   48.1388    5.5151   19.7855 C   0  0  0  0  0  0  0  0  0  0  0  0
   48.0948    3.8713   17.8236 C   0  0  1  0  0  0  0  0  0  0  0  0
   48.9590    6.6494   19.8536 C   0  0  0  0  0  0  0  0  0  0  0  0
   47.9443    4.7477   20.9424 C   0  0  0  0  0  0  0  0  0  0  0  0
   49.5259    4.1149   17.3430 C   0  0  0  0  0  0  0  0  0  0  0  0
   49.5739    7.0070   21.0546 C   0  0  0  0  0  0  0  0  0  0  0  0
   48.5600    5.1071   22.1423 C   0  0  0  0  0  0  0  0  0  0  0  0
   49.3746    6.2361   22.1981 C   0  0  0  0  0  0  0  0  0  0  0  0
   47.9100    4.0319   18.9643 C   0  0  0  0  0  0  0  0  0  0  0  0
   49.7664    4.6682   17.4049 N   0  0  0  0  0  0  0  0  0  0  0  0
   48.2177    5.0611   20.0284 C   0  0  0  0  0  0  0  0  0  0  0  0
   48.3178    4.4663   17.5389 C   0  0  1  0  0  0  0  0  0  0  0  0
   47.4791    6.2501   20.1030 C   0  0  0  0  0  0  0  0  0  0  0  0
   49.2503    4.8443   20.9511 C   0  0  0  0  0  0  0  0  0  0  0  0
   47.8801    3.4158   16.5192 C   0  0  0  0  0  0  0  0  0  0  0  0
   49.5399    5.7999   21.9265 C   0  0  0  0  0  0  0  0  0  0  0  0
   47.7705    7.2043   21.0791 C   0  0  0  0  0  0  0  0  0  0  0  0
   48.8008    6.9793   21.9899 C   0  0  0  0  0  0  0  0  0  0  0  0
   49.6619    5.0702   19.8550 C   0  0  0  0  0  0  0  0  0  0  0  0
   49.6122    5.6951   22.2509 N   0  0  0  0  0  0  0  0  0  0  0  0
   48.8739    4.6578   18.6339 C   0  0  0  0  0  0  0  0  0  0  0  0
   48.7830    5.4838   21.0552 C   0  0  1  0  0  0  0  0  0  0  0  0
   48.8173    5.4899   17.5076 C   0  0  0  0  0  0  0  0  0  0  0  0
   48.1846    3.4373   18.6114 C   0  0  0  0  0  0  0  0  0  0  0  0
   47.9985    6.7683   20.7853 C   0  0  0  0  0  0  0  0  0  0  0  0
   48.0835    5.1094   16.3828 C   0  0  0  0  0  0  0  0  0  0  0  0
   47.4516    3.0587   17.4858 C   0  0  0  0  0  0  0  0  0  0  0  0
   47.4009    3.8946   16.3722 C   0  0  0  0  0  0  0  0  0  0  0  0
   47.5015    5.9679   17.7851 H   0  0  0  0  0  0  0  0  0  0  0  0
   46.4136    4.9449   18.6957 H   0  0  0  0  0  0  0  0  0  0  0  0
   46.3247    3.2940   16.9618 H   0  0  0  0  0  0  0  0  0  0  0  0
   47.2582    4.1983   15.9769 H   0  0  0  0  0  0  0  0  0  0  0  0
   48.1070    3.0400   18.5381 H   0  0  0  0  0  0  0  0  0  0  0  0
   49.1281    7.2614   18.9705 H   0  0  0  0  0  0  0  0  0  0  0  0
   47.3102    3.8642   20.9162 H   0  0  0  0  0  0  0  0  0  0  0  0
   49.9241    3.2290   16.8350 H   0  0  0  0  0  0  0  0  0  0  0  0
   49.5778    4.9566   16.6433 H   0  0  0  0  0  0  0  0  0  0  0  0
   50.1935    4.3311   18.1832 H   0  0  0  0  0  0  0  0  0  0  0  0
   50.2095    7.8876   21.0976 H   0  0  0  0  0  0  0  0  0  0  0  0
   48.4036    4.5056   23.0339 H   0  0  0  0  0  0  0  0  0  0  0  0
   49.8541    6.5151   23.1326 H   0  0  0  0  0  0  0  0  0  0  0  0
   46.8312    3.8277   18.9933 H   0  0  0  0  0  0  0  0  0  0  0  0
   48.3967    3.0805   19.2183 H   0  0  0  0  0  0  0  0  0  0  0  0
   50.0570    5.3903   18.0675 H   0  0  0  0  0  0  0  0  0  0  0  0
   50.2587    3.8231   17.6910 H   0  0  0  0  0  0  0  0  0  0  0  0
   47.8237    5.4120   17.2867 H   0  0  0  0  0  0  0  0  0  0  0  0
   46.6713    6.4411   19.4002 H   0  0  0  0  0  0  0  0  0  0  0  0
   49.8375    3.9296   20.9166 H   0  0  0  0  0  0  0  0  0  0  0  0
   48.1418    3.7237   15.5006 H   0  0  0  0  0  0  0  0  0  0  0  0
   46.7943    3.2746   16.5526 H   0  0  0  0  0  0  0  0  0  0  0  0
   48.3519    2.4456   16.7115 H   0  0  0  0  0  0  0  0  0  0  0  0
   50.3424    5.6235   22.6379 H   0  0  0  0  0  0  0  0  0  0  0  0
   47.1929    8.1236   21.1285 H   0  0  0  0  0  0  0  0  0  0  0  0
   49.0266    7.7228   22.7497 H   0  0  0  0  0  0  0  0  0  0  0  0
   50.3022    4.2230   20.1374 H   0  0  0  0  0  0  0  0  0  0  0  0
   50.3507    5.8854   19.5956 H   0  0  0  0  0  0  0  0  0  0  0  0
   50.2880    6.4380   22.0757 H   0  0  0  0  0  0  0  0  0  0  0  0
   50.1561    4.8549   22.4438 H   0  0  0  0  0  0  0  0  0  0  0  0
   48.0687    4.6848   21.2861 H   0  0  0  0  0  0  0  0  0  0  0  0
   49.3416    6.4428   17.4993 H   0  0  0  0  0  0  0  0  0  0  0  0
   48.2150    2.7726   19.4721 H   0  0  0  0  0  0  0  0  0  0  0  0
   47.2861    6.6316   19.9654 H   0  0  0  0  0  0  0  0  0  0  0  0
   47.4206    7.0665   21.6676 H   0  0  0  0  0  0  0  0  0  0  0  0
   48.6635    7.5984   20.5216 H   0  0  0  0  0  0  0  0  0  0  0  0
   48.0440    5.7619   15.5145 H   0  0  0  0  0  0  0  0  0  0  0  0
   46.9199    2.1109   17.4779 H   0  0  0  0  0  0  0  0  0  0  0  0
   46.8297    3.5995   15.4960 H   0  0  0  0  0  0  0  0  0  0  0  0
  4  2  1  0
  3  1  1  0
  4  1  1  0
  5  3  2  0
  6  3  1  0
  4  7  1  0
  8  5  1  0
  9  6  2  0
 10  8  2  0
  9 10  1  0
 12 14  1  0
 13 11  1  0
 14 11  1  0
 15 13  2  0
 16 13  1  0
 17 14  1  0
 18 16  2  0
 19 15  1  0
 20 18  1  0
 19 20  2  0
 24 22  1  0
 23 21  1  0
 24 21  1  0
 25 23  2  0
 26 23  1  0
 24 27  1  0
 28 25  1  0
 29 26  2  0
 30 28  2  0
 29 30  1  0
  1 31  1  0
  1 32  1  0
  2 33  1  0
  2 34  1  0
  4 35  1  6
  5 36  1  0
  6 37  1  0
  7 38  1  0
  7 39  1  0
  7 40  1  0
  8 41  1  0
  9 42  1  0
 10 43  1  0
 11 44  1  0
 11 45  1  0
 12 46  1  0
 12 47  1  0
 14 48  1  1
 15 49  1  0
 16 50  1  0
 17 51  1  0
 17 52  1  0
 17 53  1  0
 18 54  1  0
 19 55  1  0
 20 56  1  0
 21 57  1  0
 21 58  1  0
 22 59  1  0
 22 60  1  0
 24 61  1  6
 25 62  1  0
 26 63  1  0
 27 64  1  0
 27 65  1  0
 27 66  1  0
 28 67  1  0
 29 68  1  0
 30 69  1  0
M  END
> <Uni-Dock RESULT> 
ENERGY=   -5.893  LOWER_BOUND=    8.220  UPPER_BOUND=   10.412
INTER + INTRA:          -5.893
INTER:                  -5.893
INTRA:                   0.000
UNBOUND:                 0.000

$$$$
