
     RDKit          3D

 69 69  0  0  0  0  0  0  0  0999 V2000
   45.2036    3.5184    7.8942 C   0  0  0  0  0  0  0  0  0  0  0  0
   46.3146    1.2869    7.7796 N   0  0  0  0  0  0  0  0  0  0  0  0
   44.8411    3.6626    9.3551 C   0  0  0  0  0  0  0  0  0  0  0  0
   46.5147    2.7375    7.6549 C   0  0  1  0  0  0  0  0  0  0  0  0
   44.2131    2.6157   10.0421 C   0  0  0  0  0  0  0  0  0  0  0  0
   45.1393    4.8444   10.0480 C   0  0  0  0  0  0  0  0  0  0  0  0
   47.0668    3.0387    6.2601 C   0  0  0  0  0  0  0  0  0  0  0  0
   43.8824    2.7498   11.3915 C   0  0  0  0  0  0  0  0  0  0  0  0
   44.8072    4.9778   11.3976 C   0  0  0  0  0  0  0  0  0  0  0  0
   44.1779    3.9312   12.0686 C   0  0  0  0  0  0  0  0  0  0  0  0
   45.1326    2.1596    8.3008 C   0  0  0  0  0  0  0  0  0  0  0  0
   46.8569    1.1792    6.8181 N   0  0  0  0  0  0  0  0  0  0  0  0
   44.8150    3.1468    9.3993 C   0  0  0  0  0  0  0  0  0  0  0  0
   46.5688    2.2817    7.7472 C   0  0  1  0  0  0  0  0  0  0  0  0
   43.9629    4.2328    9.1570 C   0  0  0  0  0  0  0  0  0  0  0  0
   45.3718    2.9926   10.6765 C   0  0  0  0  0  0  0  0  0  0  0  0
   46.7962    3.6007    7.0079 C   0  0  0  0  0  0  0  0  0  0  0  0
   45.0833    3.9078   11.6899 C   0  0  0  0  0  0  0  0  0  0  0  0
   43.6759    5.1472   10.1720 C   0  0  0  0  0  0  0  0  0  0  0  0
   44.2360    4.9847   11.4376 C   0  0  0  0  0  0  0  0  0  0  0  0
   44.4284    3.1831    9.1524 C   0  0  0  0  0  0  0  0  0  0  0  0
   45.2685    5.2851   10.2027 N   0  0  0  0  0  0  0  0  0  0  0  0
   45.5665    2.7509    8.2556 C   0  0  0  0  0  0  0  0  0  0  0  0
   44.8919    3.8857   10.4476 C   0  0  1  0  0  0  0  0  0  0  0  0
   46.1935    3.6696    7.4040 C   0  0  0  0  0  0  0  0  0  0  0  0
   46.0195    1.4241    8.2717 C   0  0  0  0  0  0  0  0  0  0  0  0
   43.7800    3.8534   11.4980 C   0  0  0  0  0  0  0  0  0  0  0  0
   47.2462    3.2692    6.5795 C   0  0  0  0  0  0  0  0  0  0  0  0
   47.0719    1.0246    7.4458 C   0  0  0  0  0  0  0  0  0  0  0  0
   47.6842    1.9466    6.5992 C   0  0  0  0  0  0  0  0  0  0  0  0
   44.3675    3.0502    7.3573 H   0  0  0  0  0  0  0  0  0  0  0  0
   45.2922    4.5245    7.4625 H   0  0  0  0  0  0  0  0  0  0  0  0
   47.2010    0.8071    7.6283 H   0  0  0  0  0  0  0  0  0  0  0  0
   45.6848    0.9598    7.0484 H   0  0  0  0  0  0  0  0  0  0  0  0
   47.2643    3.0439    8.3946 H   0  0  0  0  0  0  0  0  0  0  0  0
   43.9885    1.6835    9.5283 H   0  0  0  0  0  0  0  0  0  0  0  0
   45.6327    5.6701    9.5410 H   0  0  0  0  0  0  0  0  0  0  0  0
   48.0020    2.4968    6.0807 H   0  0  0  0  0  0  0  0  0  0  0  0
   47.2807    4.1075    6.1521 H   0  0  0  0  0  0  0  0  0  0  0  0
   46.3549    2.7565    5.4762 H   0  0  0  0  0  0  0  0  0  0  0  0
   43.3990    1.9289   11.9139 H   0  0  0  0  0  0  0  0  0  0  0  0
   45.0415    5.8981   11.9256 H   0  0  0  0  0  0  0  0  0  0  0  0
   43.9217    4.0340   13.1194 H   0  0  0  0  0  0  0  0  0  0  0  0
   44.9750    1.1508    8.7067 H   0  0  0  0  0  0  0  0  0  0  0  0
   44.4055    2.2646    7.4844 H   0  0  0  0  0  0  0  0  0  0  0  0
   46.2060    1.2092    6.0340 H   0  0  0  0  0  0  0  0  0  0  0  0
   46.6992    0.2870    7.2851 H   0  0  0  0  0  0  0  0  0  0  0  0
   47.2912    2.2174    8.5694 H   0  0  0  0  0  0  0  0  0  0  0  0
   43.5189    4.3769    8.1747 H   0  0  0  0  0  0  0  0  0  0  0  0
   46.0341    2.1566   10.8904 H   0  0  0  0  0  0  0  0  0  0  0  0
   46.6959    4.4555    7.6844 H   0  0  0  0  0  0  0  0  0  0  0  0
   47.8061    3.6424    6.5839 H   0  0  0  0  0  0  0  0  0  0  0  0
   46.0808    3.7313    6.1881 H   0  0  0  0  0  0  0  0  0  0  0  0
   45.5201    3.7802   12.6769 H   0  0  0  0  0  0  0  0  0  0  0  0
   43.0152    5.9872    9.9745 H   0  0  0  0  0  0  0  0  0  0  0  0
   44.0122    5.6973   12.2269 H   0  0  0  0  0  0  0  0  0  0  0  0
   43.7426    3.8261    8.5841 H   0  0  0  0  0  0  0  0  0  0  0  0
   43.8379    2.2932    9.4093 H   0  0  0  0  0  0  0  0  0  0  0  0
   44.4526    5.8160    9.9015 H   0  0  0  0  0  0  0  0  0  0  0  0
   45.5801    5.7110   11.0747 H   0  0  0  0  0  0  0  0  0  0  0  0
   45.7654    3.3632   10.8558 H   0  0  0  0  0  0  0  0  0  0  0  0
   45.8694    4.7080    7.3886 H   0  0  0  0  0  0  0  0  0  0  0  0
   45.5553    0.6920    8.9279 H   0  0  0  0  0  0  0  0  0  0  0  0
   44.0993    4.3419   12.4255 H   0  0  0  0  0  0  0  0  0  0  0  0
   42.8753    4.3591   11.1418 H   0  0  0  0  0  0  0  0  0  0  0  0
   43.5131    2.8204   11.7462 H   0  0  0  0  0  0  0  0  0  0  0  0
   47.7267    3.9924    5.9265 H   0  0  0  0  0  0  0  0  0  0  0  0
   47.4151   -0.0063    7.4647 H   0  0  0  0  0  0  0  0  0  0  0  0
   48.5048    1.6363    5.9584 H   0  0  0  0  0  0  0  0  0  0  0  0
  4  2  1  0
  3  1  1  0
  4  1  1  0
  5  3  2  0
  6  3  1  0
  4  7  1  0
  8  5  1  0
  9  6  2  0
 10  8  2  0
  9 10  1  0
 12 14  1  0
 13 11  1  0
 14 11  1  0
 15 13  2  0
 16 13  1  0
 17 14  1  0
 18 16  2  0
 19 15  1  0
 20 18  1  0
 19 20  2  0
 24 22  1  0
 23 21  1  0
 24 21  1  0
 25 23  2  0
 26 23  1  0
 24 27  1  0
 28 25  1  0
 29 26  2  0
 30 28  2  0
 29 30  1  0
  1 31  1  0
  1 32  1  0
  2 33  1  0
  2 34  1  0
  4 35  1  1
  5 36  1  0
  6 37  1  0
  7 38  1  0
  7 39  1  0
  7 40  1  0
  8 41  1  0
  9 42  1  0
 10 43  1  0
 11 44  1  0
 11 45  1  0
 12 46  1  0
 12 47  1  0
 14 48  1  1
 15 49  1  0
 16 50  1  0
 17 51  1  0
 17 52  1  0
 17 53  1  0
 18 54  1  0
 19 55  1  0
 20 56  1  0
 21 57  1  0
 21 58  1  0
 22 59  1  0
 22 60  1  0
 24 61  1  1
 25 62  1  0
 26 63  1  0
 27 64  1  0
 27 65  1  0
 27 66  1  0
 28 67  1  0
 29 68  1  0
 30 69  1  0
M  END
> <Uni-Dock RESULT> 
ENERGY=  -12.200  LOWER_BOUND=    0.000  UPPER_BOUND=    0.000
INTER + INTRA:         -12.200
INTER:                 -12.200
INTRA:                   0.000
UNBOUND:                 0.000

$$$$

     RDKit          3D

 69 69  0  0  0  0  0  0  0  0999 V2000
   44.7360    2.5541    8.6873 C   0  0  0  0  0  0  0  0  0  0  0  0
   44.5226    4.9030    9.5025 N   0  0  0  0  0  0  0  0  0  0  0  0
   45.8719    2.6231    7.6917 C   0  0  0  0  0  0  0  0  0  0  0  0
   44.8920    3.5301    9.8744 C   0  0  1  0  0  0  0  0  0  0  0  0
   45.9075    3.6287    6.7170 C   0  0  0  0  0  0  0  0  0  0  0  0
   46.9144    1.6867    7.7368 C   0  0  0  0  0  0  0  0  0  0  0  0
   44.0150    3.0865   11.0471 C   0  0  0  0  0  0  0  0  0  0  0  0
   46.9588    3.6924    5.8010 C   0  0  0  0  0  0  0  0  0  0  0  0
   47.9649    1.7508    6.8194 C   0  0  0  0  0  0  0  0  0  0  0  0
   47.9864    2.7527    5.8512 C   0  0  0  0  0  0  0  0  0  0  0  0
   44.6897    3.9206    8.3036 C   0  0  0  0  0  0  0  0  0  0  0  0
   43.9039    4.9333   10.4225 N   0  0  0  0  0  0  0  0  0  0  0  0
   45.7601    3.1207    7.5989 C   0  0  0  0  0  0  0  0  0  0  0  0
   44.8725    3.9962    9.8348 C   0  0  1  0  0  0  0  0  0  0  0  0
   45.4722    1.8549    7.0707 C   0  0  0  0  0  0  0  0  0  0  0  0
   47.0585    3.6321    7.4668 C   0  0  0  0  0  0  0  0  0  0  0  0
   44.6905    2.6361   10.5093 C   0  0  0  0  0  0  0  0  0  0  0  0
   48.0492    2.8907    6.8211 C   0  0  0  0  0  0  0  0  0  0  0  0
   46.4645    1.1150    6.4255 C   0  0  0  0  0  0  0  0  0  0  0  0
   47.7523    1.6327    6.3010 C   0  0  0  0  0  0  0  0  0  0  0  0
   45.3893    2.9574    7.3807 C   0  0  0  0  0  0  0  0  0  0  0  0
   47.2218    1.3211    7.8185 N   0  0  0  0  0  0  0  0  0  0  0  0
   44.9986    3.4356    8.7610 C   0  0  0  0  0  0  0  0  0  0  0  0
   46.8925    2.6314    7.2399 C   0  0  1  0  0  0  0  0  0  0  0  0
   44.7867    2.5209    9.8006 C   0  0  0  0  0  0  0  0  0  0  0  0
   44.8537    4.8052    9.0241 C   0  0  0  0  0  0  0  0  0  0  0  0
   47.3019    2.6337    5.7657 C   0  0  0  0  0  0  0  0  0  0  0  0
   44.4295    2.9649   11.0748 C   0  0  0  0  0  0  0  0  0  0  0  0
   44.4953    5.2479   10.2987 C   0  0  0  0  0  0  0  0  0  0  0  0
   44.2822    4.3279   11.3234 C   0  0  0  0  0  0  0  0  0  0  0  0
   43.7847    2.7245    8.1651 H   0  0  0  0  0  0  0  0  0  0  0  0
   44.6737    1.5246    9.0649 H   0  0  0  0  0  0  0  0  0  0  0  0
   44.6501    5.5187   10.3047 H   0  0  0  0  0  0  0  0  0  0  0  0
   43.5322    4.9436    9.2663 H   0  0  0  0  0  0  0  0  0  0  0  0
   45.9363    3.5360   10.2095 H   0  0  0  0  0  0  0  0  0  0  0  0
   45.1180    4.3759    6.6752 H   0  0  0  0  0  0  0  0  0  0  0  0
   46.9153    0.8999    8.4873 H   0  0  0  0  0  0  0  0  0  0  0  0
   44.1229    3.7665   11.8995 H   0  0  0  0  0  0  0  0  0  0  0  0
   44.3023    2.0856   11.3871 H   0  0  0  0  0  0  0  0  0  0  0  0
   42.9556    3.0566   10.7683 H   0  0  0  0  0  0  0  0  0  0  0  0
   46.9767    4.4796    5.0523 H   0  0  0  0  0  0  0  0  0  0  0  0
   48.7677    1.0197    6.8618 H   0  0  0  0  0  0  0  0  0  0  0  0
   48.8052    2.8041    5.1389 H   0  0  0  0  0  0  0  0  0  0  0  0
   44.6990    4.9334    7.8774 H   0  0  0  0  0  0  0  0  0  0  0  0
   43.6996    3.5101    8.0635 H   0  0  0  0  0  0  0  0  0  0  0  0
   42.9547    4.6168   10.2268 H   0  0  0  0  0  0  0  0  0  0  0  0
   43.9970    5.8460    9.9785 H   0  0  0  0  0  0  0  0  0  0  0  0
   45.8764    4.3678   10.0718 H   0  0  0  0  0  0  0  0  0  0  0  0
   44.4734    1.4339    7.1609 H   0  0  0  0  0  0  0  0  0  0  0  0
   47.3065    4.6132    7.8659 H   0  0  0  0  0  0  0  0  0  0  0  0
   45.4574    1.9267   10.1823 H   0  0  0  0  0  0  0  0  0  0  0  0
   44.7773    2.7248   11.5984 H   0  0  0  0  0  0  0  0  0  0  0  0
   43.7095    2.2028   10.2837 H   0  0  0  0  0  0  0  0  0  0  0  0
   49.0533    3.2954    6.7239 H   0  0  0  0  0  0  0  0  0  0  0  0
   46.2326    0.1336    6.0203 H   0  0  0  0  0  0  0  0  0  0  0  0
   48.5242    1.0557    5.7988 H   0  0  0  0  0  0  0  0  0  0  0  0
   44.7748    2.0879    7.1105 H   0  0  0  0  0  0  0  0  0  0  0  0
   45.1139    3.7370    6.6576 H   0  0  0  0  0  0  0  0  0  0  0  0
   46.7501    0.5836    7.2972 H   0  0  0  0  0  0  0  0  0  0  0  0
   48.2211    1.1467    7.7188 H   0  0  0  0  0  0  0  0  0  0  0  0
   47.4836    3.3937    7.7617 H   0  0  0  0  0  0  0  0  0  0  0  0
   44.9110    1.4549    9.6228 H   0  0  0  0  0  0  0  0  0  0  0  0
   45.0188    5.5371    8.2372 H   0  0  0  0  0  0  0  0  0  0  0  0
   48.3690    2.4117    5.6523 H   0  0  0  0  0  0  0  0  0  0  0  0
   46.7375    1.8912    5.1903 H   0  0  0  0  0  0  0  0  0  0  0  0
   47.1216    3.6164    5.3164 H   0  0  0  0  0  0  0  0  0  0  0  0
   44.2719    2.2453   11.8735 H   0  0  0  0  0  0  0  0  0  0  0  0
   44.3844    6.3114   10.4924 H   0  0  0  0  0  0  0  0  0  0  0  0
   44.0059    4.6726   12.3160 H   0  0  0  0  0  0  0  0  0  0  0  0
  4  2  1  0
  3  1  1  0
  4  1  1  0
  5  3  2  0
  6  3  1  0
  4  7  1  0
  8  5  1  0
  9  6  2  0
 10  8  2  0
  9 10  1  0
 12 14  1  0
 13 11  1  0
 14 11  1  0
 15 13  2  0
 16 13  1  0
 17 14  1  0
 18 16  2  0
 19 15  1  0
 20 18  1  0
 19 20  2  0
 24 22  1  0
 23 21  1  0
 24 21  1  0
 25 23  2  0
 26 23  1  0
 24 27  1  0
 28 25  1  0
 29 26  2  0
 30 28  2  0
 29 30  1  0
  1 31  1  0
  1 32  1  0
  2 33  1  0
  2 34  1  0
  4 35  1  1
  5 36  1  0
  6 37  1  0
  7 38  1  0
  7 39  1  0
  7 40  1  0
  8 41  1  0
  9 42  1  0
 10 43  1  0
 11 44  1  0
 11 45  1  0
 12 46  1  0
 12 47  1  0
 14 48  1  1
 15 49  1  0
 16 50  1  0
 17 51  1  0
 17 52  1  0
 17 53  1  0
 18 54  1  0
 19 55  1  0
 20 56  1  0
 21 57  1  0
 21 58  1  0
 22 59  1  0
 22 60  1  0
 24 61  1  1
 25 62  1  0
 26 63  1  0
 27 64  1  0
 27 65  1  0
 27 66  1  0
 28 67  1  0
 29 68  1  0
 30 69  1  0
M  END
> <Uni-Dock RESULT> 
ENERGY=   -9.643  LOWER_BOUND=    0.810  UPPER_BOUND=    4.731
INTER + INTRA:          -9.643
INTER:                  -9.643
INTRA:                   0.000
UNBOUND:                 0.000

$$$$
