
     RDKit          3D

 69 69  0  0  0  0  0  0  0  0999 V2000
   44.5520    4.2233    8.6105 C   0  0  0  0  0  0  0  0  0  0  0  0
   45.5510    1.9372    8.5531 N   0  0  0  0  0  0  0  0  0  0  0  0
   44.1992    4.4231   10.0672 C   0  0  0  0  0  0  0  0  0  0  0  0
   45.8224    3.3725    8.3913 C   0  0  1  0  0  0  0  0  0  0  0  0
   43.5219    3.4263   10.7813 C   0  0  0  0  0  0  0  0  0  0  0  0
   44.5557    5.6066   10.7289 C   0  0  0  0  0  0  0  0  0  0  0  0
   46.3871    3.6102    6.9893 C   0  0  0  0  0  0  0  0  0  0  0  0
   43.2003    3.6116   12.1270 C   0  0  0  0  0  0  0  0  0  0  0  0
   44.2326    5.7911   12.0746 C   0  0  0  0  0  0  0  0  0  0  0  0
   43.5540    4.7943   12.7729 C   0  0  0  0  0  0  0  0  0  0  0  0
   45.3464    4.5766    8.9115 C   0  0  0  0  0  0  0  0  0  0  0  0
   43.9676    2.7823    7.8596 N   0  0  0  0  0  0  0  0  0  0  0  0
   44.9437    4.5299   10.3681 C   0  0  0  0  0  0  0  0  0  0  0  0
   45.3312    3.1957    8.2194 C   0  0  1  0  0  0  0  0  0  0  0  0
   43.5924    4.4834   10.7346 C   0  0  0  0  0  0  0  0  0  0  0  0
   45.9190    4.5209   11.3752 C   0  0  0  0  0  0  0  0  0  0  0  0
   46.1855    3.2267    6.9505 C   0  0  0  0  0  0  0  0  0  0  0  0
   45.5484    4.4753   12.7206 C   0  0  0  0  0  0  0  0  0  0  0  0
   43.2231    4.4367   12.0799 C   0  0  0  0  0  0  0  0  0  0  0  0
   44.2007    4.4345   13.0726 C   0  0  0  0  0  0  0  0  0  0  0  0
   44.6378    3.9714    8.6808 C   0  0  0  0  0  0  0  0  0  0  0  0
   46.3688    2.1797    8.8254 N   0  0  0  0  0  0  0  0  0  0  0  0
   44.2279    4.1897   10.1197 C   0  0  0  0  0  0  0  0  0  0  0  0
   46.1261    3.5945    8.5104 C   0  0  1  0  0  0  0  0  0  0  0  0
   43.9343    3.1019   10.9520 C   0  0  0  0  0  0  0  0  0  0  0  0
   44.1467    5.4865   10.6466 C   0  0  0  0  0  0  0  0  0  0  0  0
   46.5823    3.8632    7.0750 C   0  0  0  0  0  0  0  0  0  0  0  0
   43.5595    3.3057   12.2810 C   0  0  0  0  0  0  0  0  0  0  0  0
   43.7706    5.6892   11.9758 C   0  0  0  0  0  0  0  0  0  0  0  0
   43.4760    4.5991   12.7923 C   0  0  0  0  0  0  0  0  0  0  0  0
   43.6929    3.7833    8.0860 H   0  0  0  0  0  0  0  0  0  0  0  0
   44.6896    5.2123    8.1527 H   0  0  0  0  0  0  0  0  0  0  0  0
   46.4124    1.4104    8.4144 H   0  0  0  0  0  0  0  0  0  0  0  0
   44.9049    1.6231    7.8305 H   0  0  0  0  0  0  0  0  0  0  0  0
   46.5873    3.6602    9.1229 H   0  0  0  0  0  0  0  0  0  0  0  0
   43.2513    2.4931   10.2921 H   0  0  0  0  0  0  0  0  0  0  0  0
   45.0880    6.3937   10.2003 H   0  0  0  0  0  0  0  0  0  0  0  0
   46.6536    4.6640    6.8538 H   0  0  0  0  0  0  0  0  0  0  0  0
   45.6611    3.3436    6.2128 H   0  0  0  0  0  0  0  0  0  0  0  0
   47.2942    3.0182    6.8238 H   0  0  0  0  0  0  0  0  0  0  0  0
   42.6781    2.8290   12.6707 H   0  0  0  0  0  0  0  0  0  0  0  0
   44.5123    6.7124   12.5784 H   0  0  0  0  0  0  0  0  0  0  0  0
   43.3049    4.9368   13.8207 H   0  0  0  0  0  0  0  0  0  0  0  0
   44.6996    5.2868    8.3786 H   0  0  0  0  0  0  0  0  0  0  0  0
   46.3551    5.0069    8.8488 H   0  0  0  0  0  0  0  0  0  0  0  0
   43.9959    1.8639    7.4184 H   0  0  0  0  0  0  0  0  0  0  0  0
   43.5837    3.4209    7.1646 H   0  0  0  0  0  0  0  0  0  0  0  0
   45.7494    2.4414    8.8967 H   0  0  0  0  0  0  0  0  0  0  0  0
   42.8198    4.4717    9.9690 H   0  0  0  0  0  0  0  0  0  0  0  0
   46.9753    4.5494   11.1188 H   0  0  0  0  0  0  0  0  0  0  0  0
   47.2245    3.4776    7.1905 H   0  0  0  0  0  0  0  0  0  0  0  0
   46.1898    2.2499    6.4540 H   0  0  0  0  0  0  0  0  0  0  0  0
   45.8160    3.9698    6.2349 H   0  0  0  0  0  0  0  0  0  0  0  0
   46.3117    4.4699   13.4938 H   0  0  0  0  0  0  0  0  0  0  0  0
   42.1716    4.3969   12.3508 H   0  0  0  0  0  0  0  0  0  0  0  0
   43.9123    4.3965   14.1194 H   0  0  0  0  0  0  0  0  0  0  0  0
   44.4265    4.8925    8.1210 H   0  0  0  0  0  0  0  0  0  0  0  0
   43.9885    3.2084    8.2302 H   0  0  0  0  0  0  0  0  0  0  0  0
   45.8768    1.5869    8.1585 H   0  0  0  0  0  0  0  0  0  0  0  0
   47.3605    1.9718    8.7145 H   0  0  0  0  0  0  0  0  0  0  0  0
   46.7385    4.2048    9.1853 H   0  0  0  0  0  0  0  0  0  0  0  0
   44.0081    2.0865   10.5686 H   0  0  0  0  0  0  0  0  0  0  0  0
   44.3757    6.3485   10.0248 H   0  0  0  0  0  0  0  0  0  0  0  0
   45.9994    3.2814    6.3521 H   0  0  0  0  0  0  0  0  0  0  0  0
   47.6397    3.6076    6.9428 H   0  0  0  0  0  0  0  0  0  0  0  0
   46.4673    4.9235    6.8252 H   0  0  0  0  0  0  0  0  0  0  0  0
   43.3381    2.4531   12.9172 H   0  0  0  0  0  0  0  0  0  0  0  0
   43.7095    6.6982   12.3746 H   0  0  0  0  0  0  0  0  0  0  0  0
   43.1858    4.7567   13.8273 H   0  0  0  0  0  0  0  0  0  0  0  0
  4  2  1  0
  3  1  1  0
  4  1  1  0
  5  3  2  0
  6  3  1  0
  4  7  1  0
  8  5  1  0
  9  6  2  0
 10  8  2  0
  9 10  1  0
 12 14  1  0
 13 11  1  0
 14 11  1  0
 15 13  2  0
 16 13  1  0
 17 14  1  0
 18 16  2  0
 19 15  1  0
 20 18  1  0
 19 20  2  0
 24 22  1  0
 23 21  1  0
 24 21  1  0
 25 23  2  0
 26 23  1  0
 24 27  1  0
 28 25  1  0
 29 26  2  0
 30 28  2  0
 29 30  1  0
  1 31  1  0
  1 32  1  0
  2 33  1  0
  2 34  1  0
  4 35  1  1
  5 36  1  0
  6 37  1  0
  7 38  1  0
  7 39  1  0
  7 40  1  0
  8 41  1  0
  9 42  1  0
 10 43  1  0
 11 44  1  0
 11 45  1  0
 12 46  1  0
 12 47  1  0
 14 48  1  1
 15 49  1  0
 16 50  1  0
 17 51  1  0
 17 52  1  0
 17 53  1  0
 18 54  1  0
 19 55  1  0
 20 56  1  0
 21 57  1  0
 21 58  1  0
 22 59  1  0
 22 60  1  0
 24 61  1  6
 25 62  1  0
 26 63  1  0
 27 64  1  0
 27 65  1  0
 27 66  1  0
 28 67  1  0
 29 68  1  0
 30 69  1  0
M  END
> <Uni-Dock RESULT> 
ENERGY=   -9.913  LOWER_BOUND=    0.000  UPPER_BOUND=    0.000
INTER + INTRA:          -9.913
INTER:                  -9.913
INTRA:                   0.000
UNBOUND:                 0.000

$$$$

     RDKit          3D

 69 69  0  0  0  0  0  0  0  0999 V2000
   44.5519    4.2230    8.6104 C   0  0  0  0  0  0  0  0  0  0  0  0
   45.5514    1.9372    8.5531 N   0  0  0  0  0  0  0  0  0  0  0  0
   44.1991    4.4228   10.0671 C   0  0  0  0  0  0  0  0  0  0  0  0
   45.8225    3.3725    8.3912 C   0  0  1  0  0  0  0  0  0  0  0  0
   43.5221    3.4260   10.7813 C   0  0  0  0  0  0  0  0  0  0  0  0
   44.5554    5.6064   10.7287 C   0  0  0  0  0  0  0  0  0  0  0  0
   46.3870    3.6102    6.9892 C   0  0  0  0  0  0  0  0  0  0  0  0
   43.2005    3.6112   12.1270 C   0  0  0  0  0  0  0  0  0  0  0  0
   44.2324    5.7910   12.0744 C   0  0  0  0  0  0  0  0  0  0  0  0
   43.5540    4.7941   12.7728 C   0  0  0  0  0  0  0  0  0  0  0  0
   45.3462    4.5766    8.9113 C   0  0  0  0  0  0  0  0  0  0  0  0
   43.9677    2.7819    7.8596 N   0  0  0  0  0  0  0  0  0  0  0  0
   44.9436    4.5299   10.3680 C   0  0  0  0  0  0  0  0  0  0  0  0
   45.3312    3.1956    8.2193 C   0  0  1  0  0  0  0  0  0  0  0  0
   43.5924    4.4831   10.7346 C   0  0  0  0  0  0  0  0  0  0  0  0
   45.9190    4.5211   11.3750 C   0  0  0  0  0  0  0  0  0  0  0  0
   46.1855    3.2267    6.9504 C   0  0  0  0  0  0  0  0  0  0  0  0
   45.5484    4.4755   12.7204 C   0  0  0  0  0  0  0  0  0  0  0  0
   43.2231    4.4364   12.0799 C   0  0  0  0  0  0  0  0  0  0  0  0
   44.2008    4.4344   13.0726 C   0  0  0  0  0  0  0  0  0  0  0  0
   44.6377    3.9711    8.6807 C   0  0  0  0  0  0  0  0  0  0  0  0
   46.3692    2.1799    8.8253 N   0  0  0  0  0  0  0  0  0  0  0  0
   44.2279    4.1895   10.1196 C   0  0  0  0  0  0  0  0  0  0  0  0
   46.1261    3.5946    8.5103 C   0  0  1  0  0  0  0  0  0  0  0  0
   43.9346    3.1016   10.9520 C   0  0  0  0  0  0  0  0  0  0  0  0
   44.1464    5.4863   10.6465 C   0  0  0  0  0  0  0  0  0  0  0  0
   46.5822    3.8632    7.0748 C   0  0  0  0  0  0  0  0  0  0  0  0
   43.5597    3.3055   12.2810 C   0  0  0  0  0  0  0  0  0  0  0  0
   43.7703    5.6890   11.9757 C   0  0  0  0  0  0  0  0  0  0  0  0
   43.4761    4.5989   12.7922 C   0  0  0  0  0  0  0  0  0  0  0  0
   43.6929    3.7828    8.0859 H   0  0  0  0  0  0  0  0  0  0  0  0
   44.6893    5.2120    8.1526 H   0  0  0  0  0  0  0  0  0  0  0  0
   46.4129    1.4105    8.4144 H   0  0  0  0  0  0  0  0  0  0  0  0
   44.9053    1.6228    7.8306 H   0  0  0  0  0  0  0  0  0  0  0  0
   46.5873    3.6604    9.1227 H   0  0  0  0  0  0  0  0  0  0  0  0
   43.2516    2.4927   10.2922 H   0  0  0  0  0  0  0  0  0  0  0  0
   45.0875    6.3937   10.2001 H   0  0  0  0  0  0  0  0  0  0  0  0
   46.6533    4.6641    6.8536 H   0  0  0  0  0  0  0  0  0  0  0  0
   45.6611    3.3434    6.2127 H   0  0  0  0  0  0  0  0  0  0  0  0
   47.2943    3.0184    6.8236 H   0  0  0  0  0  0  0  0  0  0  0  0
   42.6785    2.8286   12.6708 H   0  0  0  0  0  0  0  0  0  0  0  0
   44.5118    6.7124   12.5781 H   0  0  0  0  0  0  0  0  0  0  0  0
   43.3049    4.9366   13.8207 H   0  0  0  0  0  0  0  0  0  0  0  0
   44.6993    5.2866    8.3784 H   0  0  0  0  0  0  0  0  0  0  0  0
   46.3548    5.0071    8.8485 H   0  0  0  0  0  0  0  0  0  0  0  0
   43.9962    1.8634    7.4185 H   0  0  0  0  0  0  0  0  0  0  0  0
   43.5837    3.4204    7.1646 H   0  0  0  0  0  0  0  0  0  0  0  0
   45.7497    2.4414    8.8967 H   0  0  0  0  0  0  0  0  0  0  0  0
   42.8197    4.4712    9.9689 H   0  0  0  0  0  0  0  0  0  0  0  0
   46.9752    4.5498   11.1185 H   0  0  0  0  0  0  0  0  0  0  0  0
   47.2244    3.4778    7.1903 H   0  0  0  0  0  0  0  0  0  0  0  0
   46.1900    2.2498    6.4540 H   0  0  0  0  0  0  0  0  0  0  0  0
   45.8158    3.9697    6.2348 H   0  0  0  0  0  0  0  0  0  0  0  0
   46.3118    4.4703   13.4936 H   0  0  0  0  0  0  0  0  0  0  0  0
   42.1716    4.3964   12.3508 H   0  0  0  0  0  0  0  0  0  0  0  0
   43.9124    4.3965   14.1193 H   0  0  0  0  0  0  0  0  0  0  0  0
   44.4262    4.8922    8.1209 H   0  0  0  0  0  0  0  0  0  0  0  0
   43.9886    3.2080    8.2302 H   0  0  0  0  0  0  0  0  0  0  0  0
   45.8772    1.5869    8.1585 H   0  0  0  0  0  0  0  0  0  0  0  0
   47.3609    1.9722    8.7144 H   0  0  0  0  0  0  0  0  0  0  0  0
   46.7385    4.2051    9.1851 H   0  0  0  0  0  0  0  0  0  0  0  0
   44.0085    2.0862   10.5686 H   0  0  0  0  0  0  0  0  0  0  0  0
   44.3753    6.3483   10.0245 H   0  0  0  0  0  0  0  0  0  0  0  0
   45.9993    3.2813    6.3520 H   0  0  0  0  0  0  0  0  0  0  0  0
   47.6396    3.6079    6.9426 H   0  0  0  0  0  0  0  0  0  0  0  0
   46.4669    4.9236    6.8249 H   0  0  0  0  0  0  0  0  0  0  0  0
   43.3386    2.4529   12.9173 H   0  0  0  0  0  0  0  0  0  0  0  0
   43.7090    6.6980   12.3744 H   0  0  0  0  0  0  0  0  0  0  0  0
   43.1858    4.7565   13.8273 H   0  0  0  0  0  0  0  0  0  0  0  0
  4  2  1  0
  3  1  1  0
  4  1  1  0
  5  3  2  0
  6  3  1  0
  4  7  1  0
  8  5  1  0
  9  6  2  0
 10  8  2  0
  9 10  1  0
 12 14  1  0
 13 11  1  0
 14 11  1  0
 15 13  2  0
 16 13  1  0
 17 14  1  0
 18 16  2  0
 19 15  1  0
 20 18  1  0
 19 20  2  0
 24 22  1  0
 23 21  1  0
 24 21  1  0
 25 23  2  0
 26 23  1  0
 24 27  1  0
 28 25  1  0
 29 26  2  0
 30 28  2  0
 29 30  1  0
  1 31  1  0
  1 32  1  0
  2 33  1  0
  2 34  1  0
  4 35  1  1
  5 36  1  0
  6 37  1  0
  7 38  1  0
  7 39  1  0
  7 40  1  0
  8 41  1  0
  9 42  1  0
 10 43  1  0
 11 44  1  0
 11 45  1  0
 12 46  1  0
 12 47  1  0
 14 48  1  1
 15 49  1  0
 16 50  1  0
 17 51  1  0
 17 52  1  0
 17 53  1  0
 18 54  1  0
 19 55  1  0
 20 56  1  0
 21 57  1  0
 21 58  1  0
 22 59  1  0
 22 60  1  0
 24 61  1  6
 25 62  1  0
 26 63  1  0
 27 64  1  0
 27 65  1  0
 27 66  1  0
 28 67  1  0
 29 68  1  0
 30 69  1  0
M  END
> <Uni-Dock RESULT> 
ENERGY=   -9.912  LOWER_BOUND=    0.000  UPPER_BOUND=    0.000
INTER + INTRA:          -9.912
INTER:                  -9.912
INTRA:                   0.000
UNBOUND:                 0.000

$$$$

     RDKit          3D

 69 69  0  0  0  0  0  0  0  0999 V2000
   45.1589    7.4687   12.4456 C   0  0  0  0  0  0  0  0  0  0  0  0
   47.4436    7.4606   11.4418 N   0  0  0  0  0  0  0  0  0  0  0  0
   44.5826    6.1328   12.0340 C   0  0  0  0  0  0  0  0  0  0  0  0
   46.6823    7.4353   12.6987 C   0  0  1  0  0  0  0  0  0  0  0  0
   44.6821    5.6896   10.7089 C   0  0  0  0  0  0  0  0  0  0  0  0
   43.9491    5.3112   12.9770 C   0  0  0  0  0  0  0  0  0  0  0  0
   47.1064    8.6312   13.5535 C   0  0  0  0  0  0  0  0  0  0  0  0
   44.1524    4.4543   10.3319 C   0  0  0  0  0  0  0  0  0  0  0  0
   43.4187    4.0763   12.5986 C   0  0  0  0  0  0  0  0  0  0  0  0
   43.5194    3.6487   11.2761 C   0  0  0  0  0  0  0  0  0  0  0  0
   45.4525    6.9539   13.1494 C   0  0  0  0  0  0  0  0  0  0  0  0
   45.8149    8.4532   11.1877 N   0  0  0  0  0  0  0  0  0  0  0  0
   45.0081    5.6500   12.5261 C   0  0  0  0  0  0  0  0  0  0  0  0
   46.4704    7.7366   12.2906 C   0  0  1  0  0  0  0  0  0  0  0  0
   44.0189    5.6328   11.5343 C   0  0  0  0  0  0  0  0  0  0  0  0
   45.5890    4.4377   12.9241 C   0  0  0  0  0  0  0  0  0  0  0  0
   47.2271    8.7490   13.1526 C   0  0  0  0  0  0  0  0  0  0  0  0
   45.1811    3.2332   12.3475 C   0  0  0  0  0  0  0  0  0  0  0  0
   43.6128    4.4282   10.9578 C   0  0  0  0  0  0  0  0  0  0  0  0
   44.1925    3.2286   11.3655 C   0  0  0  0  0  0  0  0  0  0  0  0
   45.3834    7.3997   12.3019 C   0  0  0  0  0  0  0  0  0  0  0  0
   47.8333    6.9767   12.0866 N   0  0  0  0  0  0  0  0  0  0  0  0
   44.7555    6.0936   11.8709 C   0  0  0  0  0  0  0  0  0  0  0  0
   46.7348    7.2276   13.0301 C   0  0  1  0  0  0  0  0  0  0  0  0
   45.1787    5.4491   10.7013 C   0  0  0  0  0  0  0  0  0  0  0  0
   43.7465    5.5010   12.6432 C   0  0  0  0  0  0  0  0  0  0  0  0
   47.0639    8.4801   13.8448 C   0  0  0  0  0  0  0  0  0  0  0  0
   44.6000    4.2415   10.3072 C   0  0  0  0  0  0  0  0  0  0  0  0
   43.1676    4.2937   12.2474 C   0  0  0  0  0  0  0  0  0  0  0  0
   43.5936    3.6648   11.0792 C   0  0  0  0  0  0  0  0  0  0  0  0
   44.9062    8.2222   11.6872 H   0  0  0  0  0  0  0  0  0  0  0  0
   44.6429    7.7978   13.3577 H   0  0  0  0  0  0  0  0  0  0  0  0
   48.4412    7.4244   11.6476 H   0  0  0  0  0  0  0  0  0  0  0  0
   47.2840    8.3429   10.9577 H   0  0  0  0  0  0  0  0  0  0  0  0
   46.9444    6.5172   13.2385 H   0  0  0  0  0  0  0  0  0  0  0  0
   45.1851    6.3034    9.9648 H   0  0  0  0  0  0  0  0  0  0  0  0
   43.8641    5.6275   14.0138 H   0  0  0  0  0  0  0  0  0  0  0  0
   46.5979    8.6122   14.5236 H   0  0  0  0  0  0  0  0  0  0  0  0
   46.8637    9.5814   13.0644 H   0  0  0  0  0  0  0  0  0  0  0  0
   48.1847    8.6148   13.7476 H   0  0  0  0  0  0  0  0  0  0  0  0
   44.2396    4.1204    9.3016 H   0  0  0  0  0  0  0  0  0  0  0  0
   42.9285    3.4471   13.3366 H   0  0  0  0  0  0  0  0  0  0  0  0
   43.1090    2.6867   10.9821 H   0  0  0  0  0  0  0  0  0  0  0  0
   44.5705    7.5713   13.3675 H   0  0  0  0  0  0  0  0  0  0  0  0
   45.8946    6.7315   14.1300 H   0  0  0  0  0  0  0  0  0  0  0  0
   46.5171    8.9458   10.6371 H   0  0  0  0  0  0  0  0  0  0  0  0
   45.1918    9.1679   11.5606 H   0  0  0  0  0  0  0  0  0  0  0  0
   47.1994    7.0396   11.8598 H   0  0  0  0  0  0  0  0  0  0  0  0
   43.5675    6.5637   11.1981 H   0  0  0  0  0  0  0  0  0  0  0  0
   46.3638    4.4228   13.6868 H   0  0  0  0  0  0  0  0  0  0  0  0
   47.7747    8.2412   13.9540 H   0  0  0  0  0  0  0  0  0  0  0  0
   47.9590    9.3056   12.5565 H   0  0  0  0  0  0  0  0  0  0  0  0
   46.5459    9.4719   13.6155 H   0  0  0  0  0  0  0  0  0  0  0  0
   45.6365    2.2987   12.6635 H   0  0  0  0  0  0  0  0  0  0  0  0
   42.8473    4.4290   10.1867 H   0  0  0  0  0  0  0  0  0  0  0  0
   43.8768    2.2917   10.9150 H   0  0  0  0  0  0  0  0  0  0  0  0
   44.6750    7.9189   12.9617 H   0  0  0  0  0  0  0  0  0  0  0  0
   45.4925    8.0560   11.4278 H   0  0  0  0  0  0  0  0  0  0  0  0
   47.9674    7.7895   11.4869 H   0  0  0  0  0  0  0  0  0  0  0  0
   48.7040    6.8560   12.6026 H   0  0  0  0  0  0  0  0  0  0  0  0
   46.6745    6.3760   13.7187 H   0  0  0  0  0  0  0  0  0  0  0  0
   45.9724    5.8824   10.0966 H   0  0  0  0  0  0  0  0  0  0  0  0
   43.4038    5.9762   13.5592 H   0  0  0  0  0  0  0  0  0  0  0  0
   47.1321    9.3685   13.2068 H   0  0  0  0  0  0  0  0  0  0  0  0
   48.0171    8.3676   14.3734 H   0  0  0  0  0  0  0  0  0  0  0  0
   46.2905    8.6650   14.5983 H   0  0  0  0  0  0  0  0  0  0  0  0
   44.9400    3.7498    9.3999 H   0  0  0  0  0  0  0  0  0  0  0  0
   42.3854    3.8430   12.8522 H   0  0  0  0  0  0  0  0  0  0  0  0
   43.1450    2.7241   10.7725 H   0  0  0  0  0  0  0  0  0  0  0  0
  4  2  1  0
  3  1  1  0
  4  1  1  0
  5  3  2  0
  6  3  1  0
  4  7  1  0
  8  5  1  0
  9  6  2  0
 10  8  2  0
  9 10  1  0
 12 14  1  0
 13 11  1  0
 14 11  1  0
 15 13  2  0
 16 13  1  0
 17 14  1  0
 18 16  2  0
 19 15  1  0
 20 18  1  0
 19 20  2  0
 24 22  1  0
 23 21  1  0
 24 21  1  0
 25 23  2  0
 26 23  1  0
 24 27  1  0
 28 25  1  0
 29 26  2  0
 30 28  2  0
 29 30  1  0
  1 31  1  0
  1 32  1  0
  2 33  1  0
  2 34  1  0
  4 35  1  1
  5 36  1  0
  6 37  1  0
  7 38  1  0
  7 39  1  0
  7 40  1  0
  8 41  1  0
  9 42  1  0
 10 43  1  0
 11 44  1  0
 11 45  1  0
 12 46  1  0
 12 47  1  0
 14 48  1  1
 15 49  1  0
 16 50  1  0
 17 51  1  0
 17 52  1  0
 17 53  1  0
 18 54  1  0
 19 55  1  0
 20 56  1  0
 21 57  1  0
 21 58  1  0
 22 59  1  0
 22 60  1  0
 24 61  1  6
 25 62  1  0
 26 63  1  0
 27 64  1  0
 27 65  1  0
 27 66  1  0
 28 67  1  0
 29 68  1  0
 30 69  1  0
M  END
> <Uni-Dock RESULT> 
ENERGY=   -8.062  LOWER_BOUND=    2.695  UPPER_BOUND=    4.449
INTER + INTRA:          -8.062
INTER:                  -8.062
INTRA:                   0.000
UNBOUND:                 0.000

$$$$

     RDKit          3D

 69 69  0  0  0  0  0  0  0  0999 V2000
   47.0374    6.2020   12.1166 C   0  0  0  0  0  0  0  0  0  0  0  0
   46.8177    7.8110   14.0114 N   0  0  0  0  0  0  0  0  0  0  0  0
   45.6326    5.6745   11.9305 C   0  0  0  0  0  0  0  0  0  0  0  0
   47.0905    7.6765   12.5736 C   0  0  1  0  0  0  0  0  0  0  0  0
   44.8788    5.2461   13.0307 C   0  0  0  0  0  0  0  0  0  0  0  0
   45.0584    5.6172   10.6527 C   0  0  0  0  0  0  0  0  0  0  0  0
   48.4662    8.2767   12.2768 C   0  0  0  0  0  0  0  0  0  0  0  0
   43.5808    4.7627   12.8569 C   0  0  0  0  0  0  0  0  0  0  0  0
   43.7605    5.1326   10.4799 C   0  0  0  0  0  0  0  0  0  0  0  0
   43.0225    4.7044   11.5817 C   0  0  0  0  0  0  0  0  0  0  0  0
   46.7160    6.8318   11.5279 C   0  0  0  0  0  0  0  0  0  0  0  0
   47.6923    6.1233   13.7124 N   0  0  0  0  0  0  0  0  0  0  0  0
   45.2922    6.3269   11.5916 C   0  0  0  0  0  0  0  0  0  0  0  0
   47.2789    7.2738   12.8968 C   0  0  1  0  0  0  0  0  0  0  0  0
   45.0165    5.0170   12.0045 C   0  0  0  0  0  0  0  0  0  0  0  0
   44.2239    7.1676   11.2486 C   0  0  0  0  0  0  0  0  0  0  0  0
   48.4837    8.1969   12.7041 C   0  0  0  0  0  0  0  0  0  0  0  0
   42.9086    6.7031   11.3093 C   0  0  0  0  0  0  0  0  0  0  0  0
   43.7011    4.5541   12.0659 C   0  0  0  0  0  0  0  0  0  0  0  0
   42.6476    5.3963   11.7167 C   0  0  0  0  0  0  0  0  0  0  0  0
   46.9386    6.3490   12.3273 C   0  0  0  0  0  0  0  0  0  0  0  0
   46.5132    8.4973   13.5237 N   0  0  0  0  0  0  0  0  0  0  0  0
   45.5571    5.7635   12.1413 C   0  0  0  0  0  0  0  0  0  0  0  0
   46.9715    7.8922   12.2653 C   0  0  1  0  0  0  0  0  0  0  0  0
   44.6514    5.7163   13.2089 C   0  0  0  0  0  0  0  0  0  0  0  0
   45.1573    5.2686   10.8919 C   0  0  0  0  0  0  0  0  0  0  0  0
   48.3908    8.3831   11.9728 C   0  0  0  0  0  0  0  0  0  0  0  0
   43.3753    5.1783   13.0339 C   0  0  0  0  0  0  0  0  0  0  0  0
   43.8810    4.7298   10.7183 C   0  0  0  0  0  0  0  0  0  0  0  0
   42.9908    4.6837   11.7893 C   0  0  0  0  0  0  0  0  0  0  0  0
   47.5773    5.5556   12.8218 H   0  0  0  0  0  0  0  0  0  0  0  0
   47.5727    6.0941   11.1635 H   0  0  0  0  0  0  0  0  0  0  0  0
   46.8484    8.7955   14.2729 H   0  0  0  0  0  0  0  0  0  0  0  0
   47.5513    7.3502   14.5479 H   0  0  0  0  0  0  0  0  0  0  0  0
   46.3374    8.2572   12.0271 H   0  0  0  0  0  0  0  0  0  0  0  0
   45.2984    5.2983   14.0330 H   0  0  0  0  0  0  0  0  0  0  0  0
   45.6187    5.9498    9.7822 H   0  0  0  0  0  0  0  0  0  0  0  0
   48.6785    8.2436   11.2027 H   0  0  0  0  0  0  0  0  0  0  0  0
   49.2632    7.7312   12.7949 H   0  0  0  0  0  0  0  0  0  0  0  0
   48.5145    9.3259   12.5890 H   0  0  0  0  0  0  0  0  0  0  0  0
   43.0052    4.4371   13.7190 H   0  0  0  0  0  0  0  0  0  0  0  0
   43.3246    5.0911    9.4854 H   0  0  0  0  0  0  0  0  0  0  0  0
   42.0115    4.3298   11.4477 H   0  0  0  0  0  0  0  0  0  0  0  0
   47.3544    6.0616   11.0742 H   0  0  0  0  0  0  0  0  0  0  0  0
   46.7483    7.6778   10.8279 H   0  0  0  0  0  0  0  0  0  0  0  0
   48.0451    6.4521   14.6104 H   0  0  0  0  0  0  0  0  0  0  0  0
   48.4672    5.6393   13.2614 H   0  0  0  0  0  0  0  0  0  0  0  0
   46.5086    7.8253   13.4494 H   0  0  0  0  0  0  0  0  0  0  0  0
   45.8292    4.3534   12.2921 H   0  0  0  0  0  0  0  0  0  0  0  0
   44.4089    8.1910   10.9312 H   0  0  0  0  0  0  0  0  0  0  0  0
   48.1969    9.0950   12.1462 H   0  0  0  0  0  0  0  0  0  0  0  0
   48.8877    8.5246   13.6685 H   0  0  0  0  0  0  0  0  0  0  0  0
   49.2877    7.6987   12.1506 H   0  0  0  0  0  0  0  0  0  0  0  0
   42.0876    7.3620   11.0403 H   0  0  0  0  0  0  0  0  0  0  0  0
   43.5006    3.5371   12.3917 H   0  0  0  0  0  0  0  0  0  0  0  0
   41.6240    5.0356   11.7664 H   0  0  0  0  0  0  0  0  0  0  0  0
   47.5932    5.9368   11.5474 H   0  0  0  0  0  0  0  0  0  0  0  0
   47.3614    5.9880   13.2747 H   0  0  0  0  0  0  0  0  0  0  0  0
   47.1555    8.2577   14.2775 H   0  0  0  0  0  0  0  0  0  0  0  0
   46.5364    9.5130   13.4410 H   0  0  0  0  0  0  0  0  0  0  0  0
   46.3145    8.2409   11.4592 H   0  0  0  0  0  0  0  0  0  0  0  0
   44.9348    6.1108   14.1822 H   0  0  0  0  0  0  0  0  0  0  0  0
   45.8378    5.2992   10.0444 H   0  0  0  0  0  0  0  0  0  0  0  0
   49.0960    8.0588   12.7464 H   0  0  0  0  0  0  0  0  0  0  0  0
   48.4262    9.4770   11.9179 H   0  0  0  0  0  0  0  0  0  0  0  0
   48.7434    7.9947   11.0112 H   0  0  0  0  0  0  0  0  0  0  0  0
   42.6809    5.1511   13.8691 H   0  0  0  0  0  0  0  0  0  0  0  0
   43.5809    4.3478    9.7463 H   0  0  0  0  0  0  0  0  0  0  0  0
   41.9968    4.2668   11.6537 H   0  0  0  0  0  0  0  0  0  0  0  0
  4  2  1  0
  3  1  1  0
  4  1  1  0
  5  3  2  0
  6  3  1  0
  4  7  1  0
  8  5  1  0
  9  6  2  0
 10  8  2  0
  9 10  1  0
 12 14  1  0
 13 11  1  0
 14 11  1  0
 15 13  2  0
 16 13  1  0
 17 14  1  0
 18 16  2  0
 19 15  1  0
 20 18  1  0
 19 20  2  0
 24 22  1  0
 23 21  1  0
 24 21  1  0
 25 23  2  0
 26 23  1  0
 24 27  1  0
 28 25  1  0
 29 26  2  0
 30 28  2  0
 29 30  1  0
  1 31  1  0
  1 32  1  0
  2 33  1  0
  2 34  1  0
  4 35  1  1
  5 36  1  0
  6 37  1  0
  7 38  1  0
  7 39  1  0
  7 40  1  0
  8 41  1  0
  9 42  1  0
 10 43  1  0
 11 44  1  0
 11 45  1  0
 12 46  1  0
 12 47  1  0
 14 48  1  1
 15 49  1  0
 16 50  1  0
 17 51  1  0
 17 52  1  0
 17 53  1  0
 18 54  1  0
 19 55  1  0
 20 56  1  0
 21 57  1  0
 21 58  1  0
 22 59  1  0
 22 60  1  0
 24 61  1  6
 25 62  1  0
 26 63  1  0
 27 64  1  0
 27 65  1  0
 27 66  1  0
 28 67  1  0
 29 68  1  0
 30 69  1  0
M  END
> <Uni-Dock RESULT> 
ENERGY=   -7.738  LOWER_BOUND=    3.134  UPPER_BOUND=    4.538
INTER + INTRA:          -7.738
INTER:                  -7.738
INTRA:                   0.000
UNBOUND:                 0.000

$$$$

     RDKit          3D

 69 69  0  0  0  0  0  0  0  0999 V2000
   46.5000    6.4295   13.4654 C   0  0  0  0  0  0  0  0  0  0  0  0
   47.0807    8.2118   11.8180 N   0  0  0  0  0  0  0  0  0  0  0  0
   45.2560    5.7965   12.8839 C   0  0  0  0  0  0  0  0  0  0  0  0
   47.4990    6.9278   12.3978 C   0  0  1  0  0  0  0  0  0  0  0  0
   44.1985    6.5914   12.4236 C   0  0  0  0  0  0  0  0  0  0  0  0
   45.1474    4.4021   12.7862 C   0  0  0  0  0  0  0  0  0  0  0  0
   48.8916    7.0957   13.0089 C   0  0  0  0  0  0  0  0  0  0  0  0
   43.0524    6.0049   11.8840 C   0  0  0  0  0  0  0  0  0  0  0  0
   44.0002    3.8166   12.2473 C   0  0  0  0  0  0  0  0  0  0  0  0
   42.9527    4.6179   11.7975 C   0  0  0  0  0  0  0  0  0  0  0  0
   46.8910    5.7906   12.9310 C   0  0  0  0  0  0  0  0  0  0  0  0
   46.4864    8.1467   13.6469 N   0  0  0  0  0  0  0  0  0  0  0  0
   45.5919    5.3895   12.2693 C   0  0  0  0  0  0  0  0  0  0  0  0
   47.2507    7.2805   12.7385 C   0  0  1  0  0  0  0  0  0  0  0  0
   44.3634    5.6529   12.8888 C   0  0  0  0  0  0  0  0  0  0  0  0
   45.5973    4.7572   11.0180 C   0  0  0  0  0  0  0  0  0  0  0  0
   48.7436    7.5041   12.9875 C   0  0  0  0  0  0  0  0  0  0  0  0
   44.3983    4.3885   10.4049 C   0  0  0  0  0  0  0  0  0  0  0  0
   43.1653    5.2849   12.2744 C   0  0  0  0  0  0  0  0  0  0  0  0
   43.1828    4.6513   11.0337 C   0  0  0  0  0  0  0  0  0  0  0  0
   46.4936    6.6034   13.2521 C   0  0  0  0  0  0  0  0  0  0  0  0
   47.4997    7.6758   11.2359 N   0  0  0  0  0  0  0  0  0  0  0  0
   45.2223    5.9759   12.7267 C   0  0  0  0  0  0  0  0  0  0  0  0
   47.6524    6.6049   12.2306 C   0  0  1  0  0  0  0  0  0  0  0  0
   44.3521    6.7047   11.9058 C   0  0  0  0  0  0  0  0  0  0  0  0
   44.9007    4.6488   13.0447 C   0  0  0  0  0  0  0  0  0  0  0  0
   48.9925    6.7869   12.9461 C   0  0  0  0  0  0  0  0  0  0  0  0
   43.1806    6.1222   11.4191 C   0  0  0  0  0  0  0  0  0  0  0  0
   43.7282    4.0675   12.5582 C   0  0  0  0  0  0  0  0  0  0  0  0
   42.8680    4.8045   11.7466 C   0  0  0  0  0  0  0  0  0  0  0  0
   46.2102    7.2468   14.1396 H   0  0  0  0  0  0  0  0  0  0  0  0
   46.9919    5.6886   14.1102 H   0  0  0  0  0  0  0  0  0  0  0  0
   47.7551    8.5015   11.1109 H   0  0  0  0  0  0  0  0  0  0  0  0
   47.0906    8.9355   12.5352 H   0  0  0  0  0  0  0  0  0  0  0  0
   47.5663    6.1924   11.5868 H   0  0  0  0  0  0  0  0  0  0  0  0
   44.2692    7.6758   12.4738 H   0  0  0  0  0  0  0  0  0  0  0  0
   45.9563    3.7617   13.1296 H   0  0  0  0  0  0  0  0  0  0  0  0
   49.2586    6.1413   13.4018 H   0  0  0  0  0  0  0  0  0  0  0  0
   48.8849    7.8189   13.8323 H   0  0  0  0  0  0  0  0  0  0  0  0
   49.6123    7.4411   12.2593 H   0  0  0  0  0  0  0  0  0  0  0  0
   42.2407    6.6328   11.5269 H   0  0  0  0  0  0  0  0  0  0  0  0
   43.9250    2.7349   12.1769 H   0  0  0  0  0  0  0  0  0  0  0  0
   42.0610    4.1624   11.3757 H   0  0  0  0  0  0  0  0  0  0  0  0
   46.8489    5.5346   13.9984 H   0  0  0  0  0  0  0  0  0  0  0  0
   47.6931    5.1637   12.5186 H   0  0  0  0  0  0  0  0  0  0  0  0
   46.7401    9.1201   13.4825 H   0  0  0  0  0  0  0  0  0  0  0  0
   46.7397    7.9451   14.6130 H   0  0  0  0  0  0  0  0  0  0  0  0
   47.0253    7.5821   11.7085 H   0  0  0  0  0  0  0  0  0  0  0  0
   44.3355    6.1584   13.8517 H   0  0  0  0  0  0  0  0  0  0  0  0
   46.5363    4.5469   10.5116 H   0  0  0  0  0  0  0  0  0  0  0  0
   49.3447    6.9140   12.2871 H   0  0  0  0  0  0  0  0  0  0  0  0
   49.0137    8.5566   12.8459 H   0  0  0  0  0  0  0  0  0  0  0  0
   49.0297    7.2139   14.0047 H   0  0  0  0  0  0  0  0  0  0  0  0
   44.4130    3.8978    9.4356 H   0  0  0  0  0  0  0  0  0  0  0  0
   42.2190    5.4985   12.7638 H   0  0  0  0  0  0  0  0  0  0  0  0
   42.2497    4.3667   10.5555 H   0  0  0  0  0  0  0  0  0  0  0  0
   46.7997    6.0544   14.1528 H   0  0  0  0  0  0  0  0  0  0  0  0
   46.2786    7.6233   13.5989 H   0  0  0  0  0  0  0  0  0  0  0  0
   47.5603    8.5845   11.6929 H   0  0  0  0  0  0  0  0  0  0  0  0
   48.2733    7.6375   10.5733 H   0  0  0  0  0  0  0  0  0  0  0  0
   47.6742    5.6456   11.6994 H   0  0  0  0  0  0  0  0  0  0  0  0
   44.5910    7.7301   11.6323 H   0  0  0  0  0  0  0  0  0  0  0  0
   45.5617    4.0580   13.6742 H   0  0  0  0  0  0  0  0  0  0  0  0
   49.0272    7.7312   13.5010 H   0  0  0  0  0  0  0  0  0  0  0  0
   49.8244    6.7814   12.2328 H   0  0  0  0  0  0  0  0  0  0  0  0
   49.1646    5.9717   13.6573 H   0  0  0  0  0  0  0  0  0  0  0  0
   42.5160    6.6971   10.7801 H   0  0  0  0  0  0  0  0  0  0  0  0
   43.4872    3.0386   12.8112 H   0  0  0  0  0  0  0  0  0  0  0  0
   41.9569    4.3514   11.3660 H   0  0  0  0  0  0  0  0  0  0  0  0
  4  2  1  0
  3  1  1  0
  4  1  1  0
  5  3  2  0
  6  3  1  0
  4  7  1  0
  8  5  1  0
  9  6  2  0
 10  8  2  0
  9 10  1  0
 12 14  1  0
 13 11  1  0
 14 11  1  0
 15 13  2  0
 16 13  1  0
 17 14  1  0
 18 16  2  0
 19 15  1  0
 20 18  1  0
 19 20  2  0
 24 22  1  0
 23 21  1  0
 24 21  1  0
 25 23  2  0
 26 23  1  0
 24 27  1  0
 28 25  1  0
 29 26  2  0
 30 28  2  0
 29 30  1  0
  1 31  1  0
  1 32  1  0
  2 33  1  0
  2 34  1  0
  4 35  1  1
  5 36  1  0
  6 37  1  0
  7 38  1  0
  7 39  1  0
  7 40  1  0
  8 41  1  0
  9 42  1  0
 10 43  1  0
 11 44  1  0
 11 45  1  0
 12 46  1  0
 12 47  1  0
 14 48  1  1
 15 49  1  0
 16 50  1  0
 17 51  1  0
 17 52  1  0
 17 53  1  0
 18 54  1  0
 19 55  1  0
 20 56  1  0
 21 57  1  0
 21 58  1  0
 22 59  1  0
 22 60  1  0
 24 61  1  6
 25 62  1  0
 26 63  1  0
 27 64  1  0
 27 65  1  0
 27 66  1  0
 28 67  1  0
 29 68  1  0
 30 69  1  0
M  END
> <Uni-Dock RESULT> 
ENERGY=   -7.662  LOWER_BOUND=    2.892  UPPER_BOUND=    4.528
INTER + INTRA:          -7.662
INTER:                  -7.662
INTRA:                   0.000
UNBOUND:                 0.000

$$$$

     RDKit          3D

 69 69  0  0  0  0  0  0  0  0999 V2000
   44.7065    5.5765   11.1238 C   0  0  0  0  0  0  0  0  0  0  0  0
   42.9261    5.4062   12.8642 N   0  0  0  0  0  0  0  0  0  0  0  0
   45.6464    6.6249   11.6749 C   0  0  0  0  0  0  0  0  0  0  0  0
   44.0419    4.7057   12.2129 C   0  0  1  0  0  0  0  0  0  0  0  0
   45.1507    7.8326   12.1829 C   0  0  0  0  0  0  0  0  0  0  0  0
   47.0299    6.3984   11.6963 C   0  0  0  0  0  0  0  0  0  0  0  0
   43.5163    3.4033   11.6059 C   0  0  0  0  0  0  0  0  0  0  0  0
   46.0200    8.7976   12.6943 C   0  0  0  0  0  0  0  0  0  0  0  0
   47.8985    7.3648   12.2071 C   0  0  0  0  0  0  0  0  0  0  0  0
   47.3936    8.5644   12.7048 C   0  0  0  0  0  0  0  0  0  0  0  0
   45.2614    5.0362   11.6206 C   0  0  0  0  0  0  0  0  0  0  0  0
   43.0347    5.9997   11.0370 N   0  0  0  0  0  0  0  0  0  0  0  0
   45.9936    6.1916   12.2648 C   0  0  0  0  0  0  0  0  0  0  0  0
   43.7409    5.0363   11.8931 C   0  0  1  0  0  0  0  0  0  0  0  0
   45.9974    7.4580   11.6660 C   0  0  0  0  0  0  0  0  0  0  0  0
   46.6713    6.0150   13.4794 C   0  0  0  0  0  0  0  0  0  0  0  0
   43.1564    3.6434   11.6504 C   0  0  0  0  0  0  0  0  0  0  0  0
   47.3457    7.0818   14.0765 C   0  0  0  0  0  0  0  0  0  0  0  0
   46.6711    8.5241   12.2643 C   0  0  0  0  0  0  0  0  0  0  0  0
   47.3465    8.3356   13.4683 C   0  0  0  0  0  0  0  0  0  0  0  0
   44.5505    5.6202   11.3464 C   0  0  0  0  0  0  0  0  0  0  0  0
   43.3770    4.8622   13.4142 N   0  0  0  0  0  0  0  0  0  0  0  0
   45.4886    6.6975   11.8419 C   0  0  0  0  0  0  0  0  0  0  0  0
   44.3274    4.4774   12.3613 C   0  0  1  0  0  0  0  0  0  0  0  0
   45.0314    7.7013   12.7054 C   0  0  0  0  0  0  0  0  0  0  0  0
   46.8357    6.7009   11.4528 C   0  0  0  0  0  0  0  0  0  0  0  0
   43.7951    3.2311   11.6512 C   0  0  0  0  0  0  0  0  0  0  0  0
   45.9002    8.6928   13.1643 C   0  0  0  0  0  0  0  0  0  0  0  0
   47.7034    7.6938   11.9117 C   0  0  0  0  0  0  0  0  0  0  0  0
   47.2354    8.6900   12.7662 C   0  0  0  0  0  0  0  0  0  0  0  0
   43.9472    6.0633   10.4968 H   0  0  0  0  0  0  0  0  0  0  0  0
   45.2746    4.9343   10.4371 H   0  0  0  0  0  0  0  0  0  0  0  0
   42.5220    4.8076   13.5833 H   0  0  0  0  0  0  0  0  0  0  0  0
   42.1842    5.5805   12.1878 H   0  0  0  0  0  0  0  0  0  0  0  0
   44.7817    4.4522   12.9819 H   0  0  0  0  0  0  0  0  0  0  0  0
   44.0794    8.0216   12.1920 H   0  0  0  0  0  0  0  0  0  0  0  0
   47.4410    5.4669   11.3148 H   0  0  0  0  0  0  0  0  0  0  0  0
   44.3343    2.8275   11.1595 H   0  0  0  0  0  0  0  0  0  0  0  0
   42.7732    3.5953   10.8236 H   0  0  0  0  0  0  0  0  0  0  0  0
   43.0494    2.7721   12.3703 H   0  0  0  0  0  0  0  0  0  0  0  0
   45.6224    9.7287   13.0889 H   0  0  0  0  0  0  0  0  0  0  0  0
   48.9693    7.1803   12.2183 H   0  0  0  0  0  0  0  0  0  0  0  0
   48.0692    9.3154   13.1048 H   0  0  0  0  0  0  0  0  0  0  0  0
   45.4638    5.0348   10.5409 H   0  0  0  0  0  0  0  0  0  0  0  0
   45.7006    4.1014   11.9944 H   0  0  0  0  0  0  0  0  0  0  0  0
   42.0388    5.9810   11.2536 H   0  0  0  0  0  0  0  0  0  0  0  0
   43.1194    5.7225   10.0602 H   0  0  0  0  0  0  0  0  0  0  0  0
   43.5559    5.3090   12.9391 H   0  0  0  0  0  0  0  0  0  0  0  0
   45.4633    7.6215   10.7325 H   0  0  0  0  0  0  0  0  0  0  0  0
   46.6788    5.0444   13.9694 H   0  0  0  0  0  0  0  0  0  0  0  0
   43.6228    2.9077   12.3146 H   0  0  0  0  0  0  0  0  0  0  0  0
   42.0787    3.6280   11.8485 H   0  0  0  0  0  0  0  0  0  0  0  0
   43.3166    3.3144   10.6175 H   0  0  0  0  0  0  0  0  0  0  0  0
   47.8690    6.9346   15.0173 H   0  0  0  0  0  0  0  0  0  0  0  0
   46.6631    9.5023   11.7916 H   0  0  0  0  0  0  0  0  0  0  0  0
   47.8692    9.1663   13.9341 H   0  0  0  0  0  0  0  0  0  0  0  0
   44.9632    5.2084   10.4155 H   0  0  0  0  0  0  0  0  0  0  0  0
   43.5941    6.0767   11.0570 H   0  0  0  0  0  0  0  0  0  0  0  0
   42.4573    5.0265   13.0075 H   0  0  0  0  0  0  0  0  0  0  0  0
   43.2652    4.0903   14.0702 H   0  0  0  0  0  0  0  0  0  0  0  0
   45.2806    4.2197   12.8389 H   0  0  0  0  0  0  0  0  0  0  0  0
   43.9944    7.7074   13.0338 H   0  0  0  0  0  0  0  0  0  0  0  0
   47.2187    5.9297   10.7889 H   0  0  0  0  0  0  0  0  0  0  0  0
   42.8418    3.4306   11.1489 H   0  0  0  0  0  0  0  0  0  0  0  0
   43.6403    2.4094   12.3595 H   0  0  0  0  0  0  0  0  0  0  0  0
   44.5078    2.8831   10.8956 H   0  0  0  0  0  0  0  0  0  0  0  0
   45.5339    9.4636   13.8369 H   0  0  0  0  0  0  0  0  0  0  0  0
   48.7455    7.6885   11.6035 H   0  0  0  0  0  0  0  0  0  0  0  0
   47.9112    9.4611   13.1253 H   0  0  0  0  0  0  0  0  0  0  0  0
  4  2  1  0
  3  1  1  0
  4  1  1  0
  5  3  2  0
  6  3  1  0
  4  7  1  0
  8  5  1  0
  9  6  2  0
 10  8  2  0
  9 10  1  0
 12 14  1  0
 13 11  1  0
 14 11  1  0
 15 13  2  0
 16 13  1  0
 17 14  1  0
 18 16  2  0
 19 15  1  0
 20 18  1  0
 19 20  2  0
 24 22  1  0
 23 21  1  0
 24 21  1  0
 25 23  2  0
 26 23  1  0
 24 27  1  0
 28 25  1  0
 29 26  2  0
 30 28  2  0
 29 30  1  0
  1 31  1  0
  1 32  1  0
  2 33  1  0
  2 34  1  0
  4 35  1  1
  5 36  1  0
  6 37  1  0
  7 38  1  0
  7 39  1  0
  7 40  1  0
  8 41  1  0
  9 42  1  0
 10 43  1  0
 11 44  1  0
 11 45  1  0
 12 46  1  0
 12 47  1  0
 14 48  1  1
 15 49  1  0
 16 50  1  0
 17 51  1  0
 17 52  1  0
 17 53  1  0
 18 54  1  0
 19 55  1  0
 20 56  1  0
 21 57  1  0
 21 58  1  0
 22 59  1  0
 22 60  1  0
 24 61  1  6
 25 62  1  0
 26 63  1  0
 27 64  1  0
 27 65  1  0
 27 66  1  0
 28 67  1  0
 29 68  1  0
 30 69  1  0
M  END
> <Uni-Dock RESULT> 
ENERGY=   -7.554  LOWER_BOUND=    2.964  UPPER_BOUND=    4.539
INTER + INTRA:          -7.554
INTER:                  -7.554
INTRA:                   0.000
UNBOUND:                 0.000

$$$$

     RDKit          3D

 69 69  0  0  0  0  0  0  0  0999 V2000
   46.8452    9.4483   21.1834 C   0  0  0  0  0  0  0  0  0  0  0  0
   48.9075    8.8158   22.4380 N   0  0  0  0  0  0  0  0  0  0  0  0
   47.1332   10.8542   20.7071 C   0  0  0  0  0  0  0  0  0  0  0  0
   48.0969    8.5451   21.2425 C   0  0  1  0  0  0  0  0  0  0  0  0
   47.6497   11.8145   21.5864 C   0  0  0  0  0  0  0  0  0  0  0  0
   46.8979   11.2147   19.3728 C   0  0  0  0  0  0  0  0  0  0  0  0
   47.6894    7.0704   21.2494 C   0  0  0  0  0  0  0  0  0  0  0  0
   47.9180   13.1109   21.1437 C   0  0  0  0  0  0  0  0  0  0  0  0
   47.1658   12.5119   18.9314 C   0  0  0  0  0  0  0  0  0  0  0  0
   47.6745   13.4599   19.8170 C   0  0  0  0  0  0  0  0  0  0  0  0
   47.2574    9.2557   20.3837 C   0  0  0  0  0  0  0  0  0  0  0  0
   47.0602    9.1390   22.8686 N   0  0  0  0  0  0  0  0  0  0  0  0
   47.6703   10.6869   20.1242 C   0  0  0  0  0  0  0  0  0  0  0  0
   47.8216    8.6764   21.6998 C   0  0  1  0  0  0  0  0  0  0  0  0
   47.0022   11.7477   20.7493 C   0  0  0  0  0  0  0  0  0  0  0  0
   48.7376   10.9734   19.2614 C   0  0  0  0  0  0  0  0  0  0  0  0
   47.7880    7.1472   21.6660 C   0  0  0  0  0  0  0  0  0  0  0  0
   49.1214   12.2945   19.0229 C   0  0  0  0  0  0  0  0  0  0  0  0
   47.3875   13.0680   20.5110 C   0  0  0  0  0  0  0  0  0  0  0  0
   48.4456   13.3414   19.6467 C   0  0  0  0  0  0  0  0  0  0  0  0
   47.0907    9.4557   21.3077 C   0  0  0  0  0  0  0  0  0  0  0  0
   49.3924    8.5851   21.7215 N   0  0  0  0  0  0  0  0  0  0  0  0
   47.3228   10.8791   20.8536 C   0  0  0  0  0  0  0  0  0  0  0  0
   48.2010    8.4758   20.8682 C   0  0  1  0  0  0  0  0  0  0  0  0
   48.1928   11.7210   21.5584 C   0  0  0  0  0  0  0  0  0  0  0  0
   46.6783   11.3748   19.7114 C   0  0  0  0  0  0  0  0  0  0  0  0
   47.6903    7.0345   20.9205 C   0  0  0  0  0  0  0  0  0  0  0  0
   48.4082   13.0336   21.1353 C   0  0  0  0  0  0  0  0  0  0  0  0
   46.8937   12.6882   19.2898 C   0  0  0  0  0  0  0  0  0  0  0  0
   47.7575   13.5176   20.0023 C   0  0  0  0  0  0  0  0  0  0  0  0
   46.3489    9.4912   22.1624 H   0  0  0  0  0  0  0  0  0  0  0  0
   46.1033    9.0028   20.5068 H   0  0  0  0  0  0  0  0  0  0  0  0
   49.7287    8.2122   22.4360 H   0  0  0  0  0  0  0  0  0  0  0  0
   48.3797    8.5767   23.2761 H   0  0  0  0  0  0  0  0  0  0  0  0
   48.7209    8.7248   20.3586 H   0  0  0  0  0  0  0  0  0  0  0  0
   47.8561   11.5513   22.6216 H   0  0  0  0  0  0  0  0  0  0  0  0
   46.5040   10.4871   18.6674 H   0  0  0  0  0  0  0  0  0  0  0  0
   47.1296    6.8201   20.3417 H   0  0  0  0  0  0  0  0  0  0  0  0
   47.0570    6.8319   22.1120 H   0  0  0  0  0  0  0  0  0  0  0  0
   48.5693    6.4182   21.2828 H   0  0  0  0  0  0  0  0  0  0  0  0
   48.3222   13.8455   21.8348 H   0  0  0  0  0  0  0  0  0  0  0  0
   46.9790   12.7820   17.8955 H   0  0  0  0  0  0  0  0  0  0  0  0
   47.8854   14.4686   19.4729 H   0  0  0  0  0  0  0  0  0  0  0  0
   46.1614    9.1850   20.3650 H   0  0  0  0  0  0  0  0  0  0  0  0
   47.5973    8.6426   19.5380 H   0  0  0  0  0  0  0  0  0  0  0  0
   47.4682    8.7480   23.7168 H   0  0  0  0  0  0  0  0  0  0  0  0
   46.1056    8.7859   22.8222 H   0  0  0  0  0  0  0  0  0  0  0  0
   48.8639    8.9944   21.8233 H   0  0  0  0  0  0  0  0  0  0  0  0
   46.1828   11.5471   21.4361 H   0  0  0  0  0  0  0  0  0  0  0  0
   49.2780   10.1689   18.7684 H   0  0  0  0  0  0  0  0  0  0  0  0
   48.3940    6.7657   20.8370 H   0  0  0  0  0  0  0  0  0  0  0  0
   48.1937    6.7232   22.5915 H   0  0  0  0  0  0  0  0  0  0  0  0
   46.7670    6.7700   21.5386 H   0  0  0  0  0  0  0  0  0  0  0  0
   49.9491   12.5064   18.3516 H   0  0  0  0  0  0  0  0  0  0  0  0
   46.8636   13.8816   21.0052 H   0  0  0  0  0  0  0  0  0  0  0  0
   48.7457   14.3693   19.4632 H   0  0  0  0  0  0  0  0  0  0  0  0
   46.1254    9.1207   20.9045 H   0  0  0  0  0  0  0  0  0  0  0  0
   46.9654    9.4386   22.3989 H   0  0  0  0  0  0  0  0  0  0  0  0
   49.1640    8.3026   22.6736 H   0  0  0  0  0  0  0  0  0  0  0  0
   50.1059    7.9349   21.3944 H   0  0  0  0  0  0  0  0  0  0  0  0
   48.4983    8.6975   19.8360 H   0  0  0  0  0  0  0  0  0  0  0  0
   48.7167   11.3513   22.4371 H   0  0  0  0  0  0  0  0  0  0  0  0
   46.0032   10.7408   19.1417 H   0  0  0  0  0  0  0  0  0  0  0  0
   47.3725    6.7568   21.9318 H   0  0  0  0  0  0  0  0  0  0  0  0
   48.4665    6.3293   20.6028 H   0  0  0  0  0  0  0  0  0  0  0  0
   46.8337    6.9036   20.2503 H   0  0  0  0  0  0  0  0  0  0  0  0
   49.0885   13.6752   21.6886 H   0  0  0  0  0  0  0  0  0  0  0  0
   46.3886   13.0634   18.4039 H   0  0  0  0  0  0  0  0  0  0  0  0
   47.9271   14.5389   19.6728 H   0  0  0  0  0  0  0  0  0  0  0  0
  4  2  1  0
  3  1  1  0
  4  1  1  0
  5  3  2  0
  6  3  1  0
  4  7  1  0
  8  5  1  0
  9  6  2  0
 10  8  2  0
  9 10  1  0
 12 14  1  0
 13 11  1  0
 14 11  1  0
 15 13  2  0
 16 13  1  0
 17 14  1  0
 18 16  2  0
 19 15  1  0
 20 18  1  0
 19 20  2  0
 24 22  1  0
 23 21  1  0
 24 21  1  0
 25 23  2  0
 26 23  1  0
 24 27  1  0
 28 25  1  0
 29 26  2  0
 30 28  2  0
 29 30  1  0
  1 31  1  0
  1 32  1  0
  2 33  1  0
  2 34  1  0
  4 35  1  1
  5 36  1  0
  6 37  1  0
  7 38  1  0
  7 39  1  0
  7 40  1  0
  8 41  1  0
  9 42  1  0
 10 43  1  0
 11 44  1  0
 11 45  1  0
 12 46  1  0
 12 47  1  0
 14 48  1  1
 15 49  1  0
 16 50  1  0
 17 51  1  0
 17 52  1  0
 17 53  1  0
 18 54  1  0
 19 55  1  0
 20 56  1  0
 21 57  1  0
 21 58  1  0
 22 59  1  0
 22 60  1  0
 24 61  1  6
 25 62  1  0
 26 63  1  0
 27 64  1  0
 27 65  1  0
 27 66  1  0
 28 67  1  0
 29 68  1  0
 30 69  1  0
M  END
> <Uni-Dock RESULT> 
ENERGY=   -7.089  LOWER_BOUND=   11.975  UPPER_BOUND=   13.219
INTER + INTRA:          -7.089
INTER:                  -7.089
INTRA:                   0.000
UNBOUND:                 0.000

$$$$
