
     RDKit          3D

 69 69  0  0  0  0  0  0  0  0999 V2000
   43.4381    4.6520   10.1630 C   0  0  0  0  0  0  0  0  0  0  0  0
   43.6780    2.8889   11.9280 N   0  0  0  0  0  0  0  0  0  0  0  0
   44.5294    4.1879    9.2239 C   0  0  0  0  0  0  0  0  0  0  0  0
   43.6481    4.3327   11.6617 C   0  0  1  0  0  0  0  0  0  0  0  0
   44.4972    2.8954    8.6821 C   0  0  0  0  0  0  0  0  0  0  0  0
   45.5878    5.0398    8.8795 C   0  0  0  0  0  0  0  0  0  0  0  0
   44.8961    4.9976   12.2434 C   0  0  0  0  0  0  0  0  0  0  0  0
   45.5055    2.4615    7.8204 C   0  0  0  0  0  0  0  0  0  0  0  0
   46.5959    4.6047    8.0175 C   0  0  0  0  0  0  0  0  0  0  0  0
   46.5551    3.3158    7.4891 C   0  0  0  0  0  0  0  0  0  0  0  0
   44.9596    2.5138    9.7166 C   0  0  0  0  0  0  0  0  0  0  0  0
   43.6261    3.5044    7.8400 N   0  0  0  0  0  0  0  0  0  0  0  0
   44.7628    3.6084   10.7419 C   0  0  0  0  0  0  0  0  0  0  0  0
   44.9296    2.9555    8.2346 C   0  0  1  0  0  0  0  0  0  0  0  0
   43.4726    3.9739   11.1511 C   0  0  0  0  0  0  0  0  0  0  0  0
   45.8634    4.2734   11.2995 C   0  0  0  0  0  0  0  0  0  0  0  0
   46.0412    3.9456    7.8854 C   0  0  0  0  0  0  0  0  0  0  0  0
   45.6762    5.2873   12.2406 C   0  0  0  0  0  0  0  0  0  0  0  0
   43.2868    4.9876   12.0919 C   0  0  0  0  0  0  0  0  0  0  0  0
   44.3885    5.6448   12.6358 C   0  0  0  0  0  0  0  0  0  0  0  0
   44.5453    4.2776    8.9529 C   0  0  0  0  0  0  0  0  0  0  0  0
   45.6862    2.0590    8.8920 N   0  0  0  0  0  0  0  0  0  0  0  0
   44.2078    4.4666   10.4146 C   0  0  0  0  0  0  0  0  0  0  0  0
   45.8629    3.5073    8.7153 C   0  0  1  0  0  0  0  0  0  0  0  0
   43.6093    3.4345   11.1488 C   0  0  0  0  0  0  0  0  0  0  0  0
   44.5001    5.6758   11.0609 C   0  0  0  0  0  0  0  0  0  0  0  0
   46.3850    3.7690    7.3011 C   0  0  0  0  0  0  0  0  0  0  0  0
   43.3019    3.6099   12.4990 C   0  0  0  0  0  0  0  0  0  0  0  0
   44.1912    5.8506   12.4113 C   0  0  0  0  0  0  0  0  0  0  0  0
   43.5912    4.8182   13.1296 C   0  0  0  0  0  0  0  0  0  0  0  0
   43.3097    5.7365   10.0448 H   0  0  0  0  0  0  0  0  0  0  0  0
   42.4849    4.2171    9.8318 H   0  0  0  0  0  0  0  0  0  0  0  0
   43.8450    2.7295   12.9209 H   0  0  0  0  0  0  0  0  0  0  0  0
   44.4824    2.4827   11.4465 H   0  0  0  0  0  0  0  0  0  0  0  0
   42.7799    4.7368   12.1972 H   0  0  0  0  0  0  0  0  0  0  0  0
   43.6814    2.2192    8.9319 H   0  0  0  0  0  0  0  0  0  0  0  0
   45.6338    6.0495    9.2808 H   0  0  0  0  0  0  0  0  0  0  0  0
   44.8904    6.0743   12.0436 H   0  0  0  0  0  0  0  0  0  0  0  0
   45.8181    4.5774   11.8278 H   0  0  0  0  0  0  0  0  0  0  0  0
   44.9348    4.8645   13.3306 H   0  0  0  0  0  0  0  0  0  0  0  0
   45.4697    1.4572    7.4066 H   0  0  0  0  0  0  0  0  0  0  0  0
   47.4124    5.2727    7.7565 H   0  0  0  0  0  0  0  0  0  0  0  0
   47.3392    2.9783    6.8167 H   0  0  0  0  0  0  0  0  0  0  0  0
   44.1938    1.7425    9.8785 H   0  0  0  0  0  0  0  0  0  0  0  0
   45.9146    2.0100    9.9185 H   0  0  0  0  0  0  0  0  0  0  0  0
   43.4491    4.3522    8.3819 H   0  0  0  0  0  0  0  0  0  0  0  0
   43.6642    3.8052    6.8667 H   0  0  0  0  0  0  0  0  0  0  0  0
   45.0906    2.0535    7.6311 H   0  0  0  0  0  0  0  0  0  0  0  0
   42.6041    3.4666   10.7348 H   0  0  0  0  0  0  0  0  0  0  0  0
   46.8752    4.0054   11.0043 H   0  0  0  0  0  0  0  0  0  0  0  0
   47.0188    3.5516    8.1831 H   0  0  0  0  0  0  0  0  0  0  0  0
   46.0739    4.1260    6.8049 H   0  0  0  0  0  0  0  0  0  0  0  0
   45.8990    4.9141    8.3762 H   0  0  0  0  0  0  0  0  0  0  0  0
   46.5360    5.7972   12.6672 H   0  0  0  0  0  0  0  0  0  0  0  0
   42.2819    5.2621   12.4013 H   0  0  0  0  0  0  0  0  0  0  0  0
   44.2436    6.4330   13.3697 H   0  0  0  0  0  0  0  0  0  0  0  0
   43.7063    3.7798    8.4480 H   0  0  0  0  0  0  0  0  0  0  0  0
   44.6113    5.2696    8.4856 H   0  0  0  0  0  0  0  0  0  0  0  0
   45.0480    1.6988    8.1841 H   0  0  0  0  0  0  0  0  0  0  0  0
   46.5766    1.5867    8.7405 H   0  0  0  0  0  0  0  0  0  0  0  0
   46.6215    3.8487    9.4301 H   0  0  0  0  0  0  0  0  0  0  0  0
   43.3900    2.4819   10.6715 H   0  0  0  0  0  0  0  0  0  0  0  0
   44.9708    6.4910   10.5167 H   0  0  0  0  0  0  0  0  0  0  0  0
   47.3246    3.2341    7.1223 H   0  0  0  0  0  0  0  0  0  0  0  0
   46.5817    4.8364    7.1534 H   0  0  0  0  0  0  0  0  0  0  0  0
   45.6631    3.4508    6.5405 H   0  0  0  0  0  0  0  0  0  0  0  0
   42.8414    2.8002   13.0583 H   0  0  0  0  0  0  0  0  0  0  0  0
   44.4207    6.7919   12.9030 H   0  0  0  0  0  0  0  0  0  0  0  0
   43.3531    4.9532   14.1810 H   0  0  0  0  0  0  0  0  0  0  0  0
  4  2  1  0
  3  1  1  0
  4  1  1  0
  5  3  2  0
  6  3  1  0
  4  7  1  0
  8  5  1  0
  9  6  2  0
 10  8  2  0
  9 10  1  0
 12 14  1  0
 13 11  1  0
 14 11  1  0
 15 13  2  0
 16 13  1  0
 17 14  1  0
 18 16  2  0
 19 15  1  0
 20 18  1  0
 19 20  2  0
 24 22  1  0
 23 21  1  0
 24 21  1  0
 25 23  2  0
 26 23  1  0
 24 27  1  0
 28 25  1  0
 29 26  2  0
 30 28  2  0
 29 30  1  0
  1 31  1  0
  1 32  1  0
  2 33  1  0
  2 34  1  0
  4 35  1  6
  5 36  1  0
  6 37  1  0
  7 38  1  0
  7 39  1  0
  7 40  1  0
  8 41  1  0
  9 42  1  0
 10 43  1  0
 11 44  1  0
 11 45  1  0
 12 46  1  0
 12 47  1  0
 14 48  1  6
 15 49  1  0
 16 50  1  0
 17 51  1  0
 17 52  1  0
 17 53  1  0
 18 54  1  0
 19 55  1  0
 20 56  1  0
 21 57  1  0
 21 58  1  0
 22 59  1  0
 22 60  1  0
 24 61  1  1
 25 62  1  0
 26 63  1  0
 27 64  1  0
 27 65  1  0
 27 66  1  0
 28 67  1  0
 29 68  1  0
 30 69  1  0
M  END
> <Uni-Dock RESULT> 
ENERGY=   -8.411  LOWER_BOUND=    0.000  UPPER_BOUND=    0.000
INTER + INTRA:          -8.411
INTER:                  -8.411
INTRA:                   0.000
UNBOUND:                 0.000

$$$$

     RDKit          3D

 69 69  0  0  0  0  0  0  0  0999 V2000
   45.4960    5.2996   10.9369 C   0  0  0  0  0  0  0  0  0  0  0  0
   45.5734    3.6605   12.8312 N   0  0  0  0  0  0  0  0  0  0  0  0
   45.8328    6.5575   11.7066 C   0  0  0  0  0  0  0  0  0  0  0  0
   44.7619    4.1925   11.7290 C   0  0  1  0  0  0  0  0  0  0  0  0
   47.0304    6.6477   12.4299 C   0  0  0  0  0  0  0  0  0  0  0  0
   44.9567    7.6515   11.7093 C   0  0  0  0  0  0  0  0  0  0  0  0
   43.3971    4.6402   12.2534 C   0  0  0  0  0  0  0  0  0  0  0  0
   47.3416    7.8040   13.1464 C   0  0  0  0  0  0  0  0  0  0  0  0
   45.2691    8.8077   12.4264 C   0  0  0  0  0  0  0  0  0  0  0  0
   46.4605    8.8833   13.1454 C   0  0  0  0  0  0  0  0  0  0  0  0
   46.4841    6.0326   13.2975 C   0  0  0  0  0  0  0  0  0  0  0  0
   47.5048    6.9273   11.1906 N   0  0  0  0  0  0  0  0  0  0  0  0
   45.2529    5.3872   12.7010 C   0  0  0  0  0  0  0  0  0  0  0  0
   47.0416    7.2624   12.5432 C   0  0  1  0  0  0  0  0  0  0  0  0
   45.3771    4.3968   11.7166 C   0  0  0  0  0  0  0  0  0  0  0  0
   43.9707    5.7665   13.1215 C   0  0  0  0  0  0  0  0  0  0  0  0
   46.0498    8.4245   12.4831 C   0  0  0  0  0  0  0  0  0  0  0  0
   42.8375    5.1724   12.5633 C   0  0  0  0  0  0  0  0  0  0  0  0
   44.2434    3.8038   11.1593 C   0  0  0  0  0  0  0  0  0  0  0  0
   42.9739    4.1923   11.5820 C   0  0  0  0  0  0  0  0  0  0  0  0
   45.9188    6.7972   11.5765 C   0  0  0  0  0  0  0  0  0  0  0  0
   46.9203    6.9889   13.8541 N   0  0  0  0  0  0  0  0  0  0  0  0
   45.1181    5.5163   11.6442 C   0  0  0  0  0  0  0  0  0  0  0  0
   45.9581    7.5750   12.9104 C   0  0  1  0  0  0  0  0  0  0  0  0
   45.6793    4.3506   12.1815 C   0  0  0  0  0  0  0  0  0  0  0  0
   43.7958    5.4794   11.1800 C   0  0  0  0  0  0  0  0  0  0  0  0
   46.3404    9.0359   12.6637 C   0  0  0  0  0  0  0  0  0  0  0  0
   44.9371    3.1702   12.2463 C   0  0  0  0  0  0  0  0  0  0  0  0
   43.0546    4.2978   11.2443 C   0  0  0  0  0  0  0  0  0  0  0  0
   43.6257    3.1434   11.7763 C   0  0  0  0  0  0  0  0  0  0  0  0
   44.8895    5.5736   10.0629 H   0  0  0  0  0  0  0  0  0  0  0  0
   46.4248    4.8879   10.5181 H   0  0  0  0  0  0  0  0  0  0  0  0
   45.0387    2.9559   13.3380 H   0  0  0  0  0  0  0  0  0  0  0  0
   45.7453    4.4100   13.5040 H   0  0  0  0  0  0  0  0  0  0  0  0
   44.5906    3.3632   11.0314 H   0  0  0  0  0  0  0  0  0  0  0  0
   47.7278    5.8118   12.4368 H   0  0  0  0  0  0  0  0  0  0  0  0
   44.0239    7.6103   11.1517 H   0  0  0  0  0  0  0  0  0  0  0  0
   42.7848    5.0477   11.4420 H   0  0  0  0  0  0  0  0  0  0  0  0
   43.4860    5.4051   13.0321 H   0  0  0  0  0  0  0  0  0  0  0  0
   42.8511    3.7935   12.6847 H   0  0  0  0  0  0  0  0  0  0  0  0
   48.2731    7.8622   13.7032 H   0  0  0  0  0  0  0  0  0  0  0  0
   44.5832    9.6507   12.4223 H   0  0  0  0  0  0  0  0  0  0  0  0
   46.7040    9.7843   13.7019 H   0  0  0  0  0  0  0  0  0  0  0  0
   47.2724    5.2713   13.3783 H   0  0  0  0  0  0  0  0  0  0  0  0
   46.2631    6.3210   14.3341 H   0  0  0  0  0  0  0  0  0  0  0  0
   46.7060    6.6073   10.6398 H   0  0  0  0  0  0  0  0  0  0  0  0
   47.8366    7.7716   10.7257 H   0  0  0  0  0  0  0  0  0  0  0  0
   47.9195    7.6074   13.1034 H   0  0  0  0  0  0  0  0  0  0  0  0
   46.3635    4.0834   11.3794 H   0  0  0  0  0  0  0  0  0  0  0  0
   43.8462    6.5279   13.8879 H   0  0  0  0  0  0  0  0  0  0  0  0
   45.6895    8.6788   13.4857 H   0  0  0  0  0  0  0  0  0  0  0  0
   46.5265    9.3196   12.0677 H   0  0  0  0  0  0  0  0  0  0  0  0
   45.1821    8.1932   11.8563 H   0  0  0  0  0  0  0  0  0  0  0  0
   41.8475    5.4733   12.8958 H   0  0  0  0  0  0  0  0  0  0  0  0
   44.3523    3.0369   10.3970 H   0  0  0  0  0  0  0  0  0  0  0  0
   42.0913    3.7291   11.1492 H   0  0  0  0  0  0  0  0  0  0  0  0
   46.9354    6.5717   11.2266 H   0  0  0  0  0  0  0  0  0  0  0  0
   45.4823    7.4329   10.7942 H   0  0  0  0  0  0  0  0  0  0  0  0
   47.8651    7.0714   13.4818 H   0  0  0  0  0  0  0  0  0  0  0  0
   46.9091    7.5191   14.7246 H   0  0  0  0  0  0  0  0  0  0  0  0
   44.9657    7.5538   13.3769 H   0  0  0  0  0  0  0  0  0  0  0  0
   46.6977    4.3616   12.5635 H   0  0  0  0  0  0  0  0  0  0  0  0
   43.3332    6.3714   10.7645 H   0  0  0  0  0  0  0  0  0  0  0  0
   46.3640    9.6013   13.6021 H   0  0  0  0  0  0  0  0  0  0  0  0
   45.6101    9.5206   12.0068 H   0  0  0  0  0  0  0  0  0  0  0  0
   47.3260    9.1195   12.1919 H   0  0  0  0  0  0  0  0  0  0  0  0
   45.3827    2.2739   12.6689 H   0  0  0  0  0  0  0  0  0  0  0  0
   42.0308    4.2790   10.8810 H   0  0  0  0  0  0  0  0  0  0  0  0
   43.0483    2.2247   11.8286 H   0  0  0  0  0  0  0  0  0  0  0  0
  4  2  1  0
  3  1  1  0
  4  1  1  0
  5  3  2  0
  6  3  1  0
  4  7  1  0
  8  5  1  0
  9  6  2  0
 10  8  2  0
  9 10  1  0
 12 14  1  0
 13 11  1  0
 14 11  1  0
 15 13  2  0
 16 13  1  0
 17 14  1  0
 18 16  2  0
 19 15  1  0
 20 18  1  0
 19 20  2  0
 24 22  1  0
 23 21  1  0
 24 21  1  0
 25 23  2  0
 26 23  1  0
 24 27  1  0
 28 25  1  0
 29 26  2  0
 30 28  2  0
 29 30  1  0
  1 31  1  0
  1 32  1  0
  2 33  1  0
  2 34  1  0
  4 35  1  6
  5 36  1  0
  6 37  1  0
  7 38  1  0
  7 39  1  0
  7 40  1  0
  8 41  1  0
  9 42  1  0
 10 43  1  0
 11 44  1  0
 11 45  1  0
 12 46  1  0
 12 47  1  0
 14 48  1  6
 15 49  1  0
 16 50  1  0
 17 51  1  0
 17 52  1  0
 17 53  1  0
 18 54  1  0
 19 55  1  0
 20 56  1  0
 21 57  1  0
 21 58  1  0
 22 59  1  0
 22 60  1  0
 24 61  1  1
 25 62  1  0
 26 63  1  0
 27 64  1  0
 27 65  1  0
 27 66  1  0
 28 67  1  0
 29 68  1  0
 30 69  1  0
M  END
> <Uni-Dock RESULT> 
ENERGY=   -7.828  LOWER_BOUND=    2.401  UPPER_BOUND=    4.486
INTER + INTRA:          -7.828
INTER:                  -7.828
INTRA:                   0.000
UNBOUND:                 0.000

$$$$

     RDKit          3D

 69 69  0  0  0  0  0  0  0  0999 V2000
   45.6375    6.6508   11.0750 C   0  0  0  0  0  0  0  0  0  0  0  0
   45.0040    8.0493   13.0558 N   0  0  0  0  0  0  0  0  0  0  0  0
   44.8638    5.3978   11.4206 C   0  0  0  0  0  0  0  0  0  0  0  0
   46.1193    7.5053   12.2707 C   0  0  1  0  0  0  0  0  0  0  0  0
   43.4749    5.4492   11.6039 C   0  0  0  0  0  0  0  0  0  0  0  0
   45.5199    4.1674   11.5622 C   0  0  0  0  0  0  0  0  0  0  0  0
   47.0871    6.7558   13.1870 C   0  0  0  0  0  0  0  0  0  0  0  0
   42.7586    4.2966   11.9291 C   0  0  0  0  0  0  0  0  0  0  0  0
   44.8022    3.0150   11.8875 C   0  0  0  0  0  0  0  0  0  0  0  0
   43.4225    3.0801   12.0719 C   0  0  0  0  0  0  0  0  0  0  0  0
   43.6947    5.8496   12.7088 C   0  0  0  0  0  0  0  0  0  0  0  0
   43.5125    5.4053   10.2491 N   0  0  0  0  0  0  0  0  0  0  0  0
   45.1319    6.3194   12.7523 C   0  0  0  0  0  0  0  0  0  0  0  0
   43.3422    4.8384   11.5929 C   0  0  1  0  0  0  0  0  0  0  0  0
   45.5418    7.4212   11.9885 C   0  0  0  0  0  0  0  0  0  0  0  0
   46.0755    5.6638   13.5551 C   0  0  0  0  0  0  0  0  0  0  0  0
   44.1200    3.5272   11.7096 C   0  0  0  0  0  0  0  0  0  0  0  0
   47.4021    6.0973   13.5867 C   0  0  0  0  0  0  0  0  0  0  0  0
   46.8682    7.8535   12.0209 C   0  0  0  0  0  0  0  0  0  0  0  0
   47.7983    7.1910   12.8192 C   0  0  0  0  0  0  0  0  0  0  0  0
   44.8088    5.1946   11.2271 C   0  0  0  0  0  0  0  0  0  0  0  0
   42.9549    4.9336   12.8771 N   0  0  0  0  0  0  0  0  0  0  0  0
   45.6661    6.2888   11.8221 C   0  0  0  0  0  0  0  0  0  0  0  0
   44.1357    4.2907   12.2834 C   0  0  1  0  0  0  0  0  0  0  0  0
   45.0854    7.4694   12.3032 C   0  0  0  0  0  0  0  0  0  0  0  0
   47.0564    6.1327   11.9118 C   0  0  0  0  0  0  0  0  0  0  0  0
   43.7074    2.9637   11.6536 C   0  0  0  0  0  0  0  0  0  0  0  0
   45.8784    8.4766   12.8553 C   0  0  0  0  0  0  0  0  0  0  0  0
   47.8489    7.1414   12.4633 C   0  0  0  0  0  0  0  0  0  0  0  0
   47.2599    8.3134   12.9338 C   0  0  0  0  0  0  0  0  0  0  0  0
   46.5068    6.3706   10.4646 H   0  0  0  0  0  0  0  0  0  0  0  0
   45.0173    7.2724   10.4142 H   0  0  0  0  0  0  0  0  0  0  0  0
   45.3707    8.5803   13.8450 H   0  0  0  0  0  0  0  0  0  0  0  0
   44.4824    7.2730   13.4670 H   0  0  0  0  0  0  0  0  0  0  0  0
   46.6605    8.3624   11.8510 H   0  0  0  0  0  0  0  0  0  0  0  0
   42.9446    6.3935   11.4933 H   0  0  0  0  0  0  0  0  0  0  0  0
   46.5958    4.0983   11.4195 H   0  0  0  0  0  0  0  0  0  0  0  0
   47.9197    6.3370   12.6119 H   0  0  0  0  0  0  0  0  0  0  0  0
   46.5958    5.9370   13.7232 H   0  0  0  0  0  0  0  0  0  0  0  0
   47.5123    7.4320   13.9373 H   0  0  0  0  0  0  0  0  0  0  0  0
   41.6821    4.3489   12.0687 H   0  0  0  0  0  0  0  0  0  0  0  0
   45.3201    2.0656   11.9952 H   0  0  0  0  0  0  0  0  0  0  0  0
   42.8642    2.1823   12.3233 H   0  0  0  0  0  0  0  0  0  0  0  0
   43.0428    6.7296   12.6172 H   0  0  0  0  0  0  0  0  0  0  0  0
   43.4389    5.4091   13.6821 H   0  0  0  0  0  0  0  0  0  0  0  0
   44.4990    5.6324   10.1110 H   0  0  0  0  0  0  0  0  0  0  0  0
   43.2952    4.6956    9.5504 H   0  0  0  0  0  0  0  0  0  0  0  0
   42.2770    4.6004   11.7048 H   0  0  0  0  0  0  0  0  0  0  0  0
   44.8240    7.9482   11.3623 H   0  0  0  0  0  0  0  0  0  0  0  0
   45.7829    4.8103   14.1621 H   0  0  0  0  0  0  0  0  0  0  0  0
   44.0084    3.0981   12.7110 H   0  0  0  0  0  0  0  0  0  0  0  0
   43.7450    2.7892   10.9914 H   0  0  0  0  0  0  0  0  0  0  0  0
   45.1886    3.6636   11.5131 H   0  0  0  0  0  0  0  0  0  0  0  0
   48.1264    5.5824   14.2123 H   0  0  0  0  0  0  0  0  0  0  0  0
   47.1740    8.7090   11.4245 H   0  0  0  0  0  0  0  0  0  0  0  0
   48.8307    7.5289   12.8457 H   0  0  0  0  0  0  0  0  0  0  0  0
   44.0580    5.6428   10.5622 H   0  0  0  0  0  0  0  0  0  0  0  0
   45.4419    4.5823   10.5706 H   0  0  0  0  0  0  0  0  0  0  0  0
   42.2398    5.0704   12.1643 H   0  0  0  0  0  0  0  0  0  0  0  0
   42.5462    4.3149   13.5764 H   0  0  0  0  0  0  0  0  0  0  0  0
   44.8482    4.0745   13.0888 H   0  0  0  0  0  0  0  0  0  0  0  0
   44.0069    7.6038   12.2594 H   0  0  0  0  0  0  0  0  0  0  0  0
   47.5326    5.2237   11.5524 H   0  0  0  0  0  0  0  0  0  0  0  0
   43.2353    2.3094   12.3951 H   0  0  0  0  0  0  0  0  0  0  0  0
   44.5747    2.4302   11.2499 H   0  0  0  0  0  0  0  0  0  0  0  0
   42.9955    3.1184   10.8349 H   0  0  0  0  0  0  0  0  0  0  0  0
   45.4153    9.3859   13.2285 H   0  0  0  0  0  0  0  0  0  0  0  0
   48.9257    7.0115   12.5275 H   0  0  0  0  0  0  0  0  0  0  0  0
   47.8761    9.0973   13.3652 H   0  0  0  0  0  0  0  0  0  0  0  0
  4  2  1  0
  3  1  1  0
  4  1  1  0
  5  3  2  0
  6  3  1  0
  4  7  1  0
  8  5  1  0
  9  6  2  0
 10  8  2  0
  9 10  1  0
 12 14  1  0
 13 11  1  0
 14 11  1  0
 15 13  2  0
 16 13  1  0
 17 14  1  0
 18 16  2  0
 19 15  1  0
 20 18  1  0
 19 20  2  0
 24 22  1  0
 23 21  1  0
 24 21  1  0
 25 23  2  0
 26 23  1  0
 24 27  1  0
 28 25  1  0
 29 26  2  0
 30 28  2  0
 29 30  1  0
  1 31  1  0
  1 32  1  0
  2 33  1  0
  2 34  1  0
  4 35  1  6
  5 36  1  0
  6 37  1  0
  7 38  1  0
  7 39  1  0
  7 40  1  0
  8 41  1  0
  9 42  1  0
 10 43  1  0
 11 44  1  0
 11 45  1  0
 12 46  1  0
 12 47  1  0
 14 48  1  6
 15 49  1  0
 16 50  1  0
 17 51  1  0
 17 52  1  0
 17 53  1  0
 18 54  1  0
 19 55  1  0
 20 56  1  0
 21 57  1  0
 21 58  1  0
 22 59  1  0
 22 60  1  0
 24 61  1  1
 25 62  1  0
 26 63  1  0
 27 64  1  0
 27 65  1  0
 27 66  1  0
 28 67  1  0
 29 68  1  0
 30 69  1  0
M  END
> <Uni-Dock RESULT> 
ENERGY=   -7.469  LOWER_BOUND=    2.452  UPPER_BOUND=    4.099
INTER + INTRA:          -7.469
INTER:                  -7.469
INTRA:                   0.000
UNBOUND:                 0.000

$$$$

     RDKit          3D

 69 69  0  0  0  0  0  0  0  0999 V2000
   44.2950    6.0514   12.8117 C   0  0  0  0  0  0  0  0  0  0  0  0
   44.2309    5.4425   10.3815 N   0  0  0  0  0  0  0  0  0  0  0  0
   45.7689    6.3707   12.9305 C   0  0  0  0  0  0  0  0  0  0  0  0
   43.9097    5.0004   11.7444 C   0  0  1  0  0  0  0  0  0  0  0  0
   46.3473    7.3622   12.1257 C   0  0  0  0  0  0  0  0  0  0  0  0
   46.5789    5.6836   13.8450 C   0  0  0  0  0  0  0  0  0  0  0  0
   44.5298    3.6280   12.0087 C   0  0  0  0  0  0  0  0  0  0  0  0
   47.7079    7.6551   12.2280 C   0  0  0  0  0  0  0  0  0  0  0  0
   47.9398    5.9774   13.9463 C   0  0  0  0  0  0  0  0  0  0  0  0
   48.5040    6.9620   13.1374 C   0  0  0  0  0  0  0  0  0  0  0  0
   46.3981    6.5436   11.2558 C   0  0  0  0  0  0  0  0  0  0  0  0
   45.7990    8.1524   13.0816 N   0  0  0  0  0  0  0  0  0  0  0  0
   45.4694    5.4107   11.6330 C   0  0  0  0  0  0  0  0  0  0  0  0
   46.8947    7.4333   12.4194 C   0  0  1  0  0  0  0  0  0  0  0  0
   44.0859    5.6235   11.7116 C   0  0  0  0  0  0  0  0  0  0  0  0
   45.9743    4.1326   11.9088 C   0  0  0  0  0  0  0  0  0  0  0  0
   47.7126    6.6596   13.4538 C   0  0  0  0  0  0  0  0  0  0  0  0
   45.1136    3.0921   12.2628 C   0  0  0  0  0  0  0  0  0  0  0  0
   43.2266    4.5825   12.0656 C   0  0  0  0  0  0  0  0  0  0  0  0
   43.7406    3.3173   12.3420 C   0  0  0  0  0  0  0  0  0  0  0  0
   45.8754    6.5182   13.1510 C   0  0  0  0  0  0  0  0  0  0  0  0
   47.5082    6.9661   11.3178 N   0  0  0  0  0  0  0  0  0  0  0  0
   44.8943    5.5509   12.5281 C   0  0  0  0  0  0  0  0  0  0  0  0
   47.3228    6.3493   12.6389 C   0  0  1  0  0  0  0  0  0  0  0  0
   44.3574    5.7968   11.2578 C   0  0  0  0  0  0  0  0  0  0  0  0
   44.5158    4.3854   13.2092 C   0  0  0  0  0  0  0  0  0  0  0  0
   48.3119    6.9828   13.6194 C   0  0  0  0  0  0  0  0  0  0  0  0
   43.4546    4.9006   10.6832 C   0  0  0  0  0  0  0  0  0  0  0  0
   43.6118    3.4902   12.6339 C   0  0  0  0  0  0  0  0  0  0  0  0
   43.0806    3.7485   11.3718 C   0  0  0  0  0  0  0  0  0  0  0  0
   43.9277    5.7154   13.7909 H   0  0  0  0  0  0  0  0  0  0  0  0
   43.7511    6.9850   12.6114 H   0  0  0  0  0  0  0  0  0  0  0  0
   43.9846    4.7082    9.7187 H   0  0  0  0  0  0  0  0  0  0  0  0
   45.2434    5.5541   10.3024 H   0  0  0  0  0  0  0  0  0  0  0  0
   42.8198    4.8840   11.7923 H   0  0  0  0  0  0  0  0  0  0  0  0
   45.7354    7.9119   11.4128 H   0  0  0  0  0  0  0  0  0  0  0  0
   46.1544    4.9140   14.4855 H   0  0  0  0  0  0  0  0  0  0  0  0
   44.3050    3.2905   13.0259 H   0  0  0  0  0  0  0  0  0  0  0  0
   45.6178    3.6368   11.8838 H   0  0  0  0  0  0  0  0  0  0  0  0
   44.1253    2.8805   11.3167 H   0  0  0  0  0  0  0  0  0  0  0  0
   48.1450    8.4259   11.5988 H   0  0  0  0  0  0  0  0  0  0  0  0
   48.5596    5.4391   14.6584 H   0  0  0  0  0  0  0  0  0  0  0  0
   49.5631    7.1915   13.2181 H   0  0  0  0  0  0  0  0  0  0  0  0
   45.8943    7.1737   10.5096 H   0  0  0  0  0  0  0  0  0  0  0  0
   47.2680    6.1256   10.7311 H   0  0  0  0  0  0  0  0  0  0  0  0
   45.1690    7.4705   13.5081 H   0  0  0  0  0  0  0  0  0  0  0  0
   46.1712    8.7018   13.8555 H   0  0  0  0  0  0  0  0  0  0  0  0
   47.5533    8.1927   11.9798 H   0  0  0  0  0  0  0  0  0  0  0  0
   43.6721    6.6070   11.4961 H   0  0  0  0  0  0  0  0  0  0  0  0
   47.0427    3.9388   11.8493 H   0  0  0  0  0  0  0  0  0  0  0  0
   48.5286    6.1111   12.9713 H   0  0  0  0  0  0  0  0  0  0  0  0
   48.1616    7.3437   14.1830 H   0  0  0  0  0  0  0  0  0  0  0  0
   47.1003    5.9421   14.0100 H   0  0  0  0  0  0  0  0  0  0  0  0
   45.5147    2.1045   12.4748 H   0  0  0  0  0  0  0  0  0  0  0  0
   42.1559    4.7595   12.1231 H   0  0  0  0  0  0  0  0  0  0  0  0
   43.0711    2.5065   12.6160 H   0  0  0  0  0  0  0  0  0  0  0  0
   45.5228    7.5462   12.9911 H   0  0  0  0  0  0  0  0  0  0  0  0
   45.8528    6.3752   14.2399 H   0  0  0  0  0  0  0  0  0  0  0  0
   47.3764    7.9743   11.3845 H   0  0  0  0  0  0  0  0  0  0  0  0
   48.4686    6.8237   11.0076 H   0  0  0  0  0  0  0  0  0  0  0  0
   47.5596    5.2818   12.5538 H   0  0  0  0  0  0  0  0  0  0  0  0
   44.6510    6.6861   10.7045 H   0  0  0  0  0  0  0  0  0  0  0  0
   44.9224    4.1664   14.1935 H   0  0  0  0  0  0  0  0  0  0  0  0
   49.3440    6.8626   13.2714 H   0  0  0  0  0  0  0  0  0  0  0  0
   48.2395    6.5061   14.6030 H   0  0  0  0  0  0  0  0  0  0  0  0
   48.1197    8.0539   13.7489 H   0  0  0  0  0  0  0  0  0  0  0  0
   43.0484    5.1009    9.6956 H   0  0  0  0  0  0  0  0  0  0  0  0
   43.3237    2.5902   13.1702 H   0  0  0  0  0  0  0  0  0  0  0  0
   42.3792    3.0507   10.9231 H   0  0  0  0  0  0  0  0  0  0  0  0
  4  2  1  0
  3  1  1  0
  4  1  1  0
  5  3  2  0
  6  3  1  0
  4  7  1  0
  8  5  1  0
  9  6  2  0
 10  8  2  0
  9 10  1  0
 12 14  1  0
 13 11  1  0
 14 11  1  0
 15 13  2  0
 16 13  1  0
 17 14  1  0
 18 16  2  0
 19 15  1  0
 20 18  1  0
 19 20  2  0
 24 22  1  0
 23 21  1  0
 24 21  1  0
 25 23  2  0
 26 23  1  0
 24 27  1  0
 28 25  1  0
 29 26  2  0
 30 28  2  0
 29 30  1  0
  1 31  1  0
  1 32  1  0
  2 33  1  0
  2 34  1  0
  4 35  1  6
  5 36  1  0
  6 37  1  0
  7 38  1  0
  7 39  1  0
  7 40  1  0
  8 41  1  0
  9 42  1  0
 10 43  1  0
 11 44  1  0
 11 45  1  0
 12 46  1  0
 12 47  1  0
 14 48  1  6
 15 49  1  0
 16 50  1  0
 17 51  1  0
 17 52  1  0
 17 53  1  0
 18 54  1  0
 19 55  1  0
 20 56  1  0
 21 57  1  0
 21 58  1  0
 22 59  1  0
 22 60  1  0
 24 61  1  1
 25 62  1  0
 26 63  1  0
 27 64  1  0
 27 65  1  0
 27 66  1  0
 28 67  1  0
 29 68  1  0
 30 69  1  0
M  END
> <Uni-Dock RESULT> 
ENERGY=   -6.833  LOWER_BOUND=    2.496  UPPER_BOUND=    4.434
INTER + INTRA:          -6.833
INTER:                  -6.833
INTRA:                   0.000
UNBOUND:                 0.000

$$$$

     RDKit          3D

 69 69  0  0  0  0  0  0  0  0999 V2000
   48.7265    6.0606   18.2653 C   0  0  0  0  0  0  0  0  0  0  0  0
   46.5826    5.7495   19.5253 N   0  0  0  0  0  0  0  0  0  0  0  0
   48.8726    4.6611   17.7101 C   0  0  0  0  0  0  0  0  0  0  0  0
   47.9826    6.1832   19.6157 C   0  0  1  0  0  0  0  0  0  0  0  0
   47.8666    4.1083   16.9053 C   0  0  0  0  0  0  0  0  0  0  0  0
   50.0132    3.8957   17.9888 C   0  0  0  0  0  0  0  0  0  0  0  0
   48.6868    5.4430   20.7533 C   0  0  0  0  0  0  0  0  0  0  0  0
   47.9949    2.8152   16.3965 C   0  0  0  0  0  0  0  0  0  0  0  0
   50.1404    2.6023   17.4793 C   0  0  0  0  0  0  0  0  0  0  0  0
   49.1313    2.0622   16.6844 C   0  0  0  0  0  0  0  0  0  0  0  0
   47.2803    3.8533   17.9156 C   0  0  0  0  0  0  0  0  0  0  0  0
   48.5006    4.8608   15.9722 N   0  0  0  0  0  0  0  0  0  0  0  0
   47.8902    4.6813   19.0249 C   0  0  0  0  0  0  0  0  0  0  0  0
   48.1725    3.6140   16.6750 C   0  0  1  0  0  0  0  0  0  0  0  0
   47.7850    6.0792   19.0071 C   0  0  0  0  0  0  0  0  0  0  0  0
   48.5681    4.0672   20.0869 C   0  0  0  0  0  0  0  0  0  0  0  0
   49.4532    2.8454   17.0017 C   0  0  0  0  0  0  0  0  0  0  0  0
   49.1348    4.8362   21.1049 C   0  0  0  0  0  0  0  0  0  0  0  0
   48.3519    6.8468   20.0253 C   0  0  0  0  0  0  0  0  0  0  0  0
   49.0275    6.2253   21.0735 C   0  0  0  0  0  0  0  0  0  0  0  0
   49.0490    4.6010   17.4931 C   0  0  0  0  0  0  0  0  0  0  0  0
   47.3112    2.8174   17.3321 N   0  0  0  0  0  0  0  0  0  0  0  0
   48.6532    5.3758   18.7298 C   0  0  0  0  0  0  0  0  0  0  0  0
   48.7337    3.0915   17.5798 C   0  0  1  0  0  0  0  0  0  0  0  0
   47.3253    5.7758   18.9277 C   0  0  0  0  0  0  0  0  0  0  0  0
   49.6091    5.6957   19.7041 C   0  0  0  0  0  0  0  0  0  0  0  0
   49.5681    2.3139   16.5599 C   0  0  0  0  0  0  0  0  0  0  0  0
   46.9616    6.4878   20.0718 C   0  0  0  0  0  0  0  0  0  0  0  0
   49.2443    6.4089   20.8478 C   0  0  0  0  0  0  0  0  0  0  0  0
   47.9212    6.8057   21.0308 C   0  0  0  0  0  0  0  0  0  0  0  0
   49.7261    6.5046   18.3681 H   0  0  0  0  0  0  0  0  0  0  0  0
   48.2175    6.6818   17.5154 H   0  0  0  0  0  0  0  0  0  0  0  0
   46.1438    5.8230   20.4425 H   0  0  0  0  0  0  0  0  0  0  0  0
   46.5612    4.7554   19.2906 H   0  0  0  0  0  0  0  0  0  0  0  0
   47.9690    7.2492   19.8753 H   0  0  0  0  0  0  0  0  0  0  0  0
   46.9750    4.6875   16.6718 H   0  0  0  0  0  0  0  0  0  0  0  0
   50.8113    4.3026   18.6053 H   0  0  0  0  0  0  0  0  0  0  0  0
   49.7352    5.7511   20.8257 H   0  0  0  0  0  0  0  0  0  0  0  0
   48.6582    4.3567   20.6176 H   0  0  0  0  0  0  0  0  0  0  0  0
   48.2106    5.6671   21.7146 H   0  0  0  0  0  0  0  0  0  0  0  0
   47.2084    2.3974   15.7737 H   0  0  0  0  0  0  0  0  0  0  0  0
   51.0287    2.0167   17.7011 H   0  0  0  0  0  0  0  0  0  0  0  0
   49.2318    1.0559   16.2866 H   0  0  0  0  0  0  0  0  0  0  0  0
   46.3428    4.3313   17.5988 H   0  0  0  0  0  0  0  0  0  0  0  0
   46.9763    2.8817   18.3281 H   0  0  0  0  0  0  0  0  0  0  0  0
   49.0517    5.4539   16.5954 H   0  0  0  0  0  0  0  0  0  0  0  0
   49.1098    4.6553   15.1812 H   0  0  0  0  0  0  0  0  0  0  0  0
   47.5888    3.0002   15.9778 H   0  0  0  0  0  0  0  0  0  0  0  0
   47.2580    6.5763   18.1946 H   0  0  0  0  0  0  0  0  0  0  0  0
   48.6591    2.9843   20.1284 H   0  0  0  0  0  0  0  0  0  0  0  0
   49.2227    1.9167   17.5345 H   0  0  0  0  0  0  0  0  0  0  0  0
   49.9872    2.5746   16.0837 H   0  0  0  0  0  0  0  0  0  0  0  0
   50.1397    3.4331   17.6201 H   0  0  0  0  0  0  0  0  0  0  0  0
   49.6586    4.3507   21.9241 H   0  0  0  0  0  0  0  0  0  0  0  0
   48.2637    7.9297   20.0007 H   0  0  0  0  0  0  0  0  0  0  0  0
   49.4674    6.8231   21.8671 H   0  0  0  0  0  0  0  0  0  0  0  0
   48.5672    5.0500   16.6138 H   0  0  0  0  0  0  0  0  0  0  0  0
   50.1263    4.7418   17.3310 H   0  0  0  0  0  0  0  0  0  0  0  0
   47.0700    3.0747   16.3762 H   0  0  0  0  0  0  0  0  0  0  0  0
   47.1391    1.8158   17.4102 H   0  0  0  0  0  0  0  0  0  0  0  0
   48.9836    2.7214   18.5816 H   0  0  0  0  0  0  0  0  0  0  0  0
   46.5643    5.5228   18.1929 H   0  0  0  0  0  0  0  0  0  0  0  0
   50.6455    5.3917   19.5792 H   0  0  0  0  0  0  0  0  0  0  0  0
   49.3596    1.2395   16.6167 H   0  0  0  0  0  0  0  0  0  0  0  0
   50.6379    2.4511   16.7511 H   0  0  0  0  0  0  0  0  0  0  0  0
   49.3633    2.6459   15.5358 H   0  0  0  0  0  0  0  0  0  0  0  0
   45.9275    6.7888   20.2154 H   0  0  0  0  0  0  0  0  0  0  0  0
   49.9927    6.6531   21.5967 H   0  0  0  0  0  0  0  0  0  0  0  0
   47.6368    7.3585   21.9218 H   0  0  0  0  0  0  0  0  0  0  0  0
  4  2  1  0
  3  1  1  0
  4  1  1  0
  5  3  2  0
  6  3  1  0
  4  7  1  0
  8  5  1  0
  9  6  2  0
 10  8  2  0
  9 10  1  0
 12 14  1  0
 13 11  1  0
 14 11  1  0
 15 13  2  0
 16 13  1  0
 17 14  1  0
 18 16  2  0
 19 15  1  0
 20 18  1  0
 19 20  2  0
 24 22  1  0
 23 21  1  0
 24 21  1  0
 25 23  2  0
 26 23  1  0
 24 27  1  0
 28 25  1  0
 29 26  2  0
 30 28  2  0
 29 30  1  0
  1 31  1  0
  1 32  1  0
  2 33  1  0
  2 34  1  0
  4 35  1  6
  5 36  1  0
  6 37  1  0
  7 38  1  0
  7 39  1  0
  7 40  1  0
  8 41  1  0
  9 42  1  0
 10 43  1  0
 11 44  1  0
 11 45  1  0
 12 46  1  0
 12 47  1  0
 14 48  1  6
 15 49  1  0
 16 50  1  0
 17 51  1  0
 17 52  1  0
 17 53  1  0
 18 54  1  0
 19 55  1  0
 20 56  1  0
 21 57  1  0
 21 58  1  0
 22 59  1  0
 22 60  1  0
 24 61  1  1
 25 62  1  0
 26 63  1  0
 27 64  1  0
 27 65  1  0
 27 66  1  0
 28 67  1  0
 29 68  1  0
 30 69  1  0
M  END
> <Uni-Dock RESULT> 
ENERGY=   -6.455  LOWER_BOUND=    7.511  UPPER_BOUND=    9.398
INTER + INTRA:          -6.455
INTER:                  -6.455
INTRA:                   0.000
UNBOUND:                 0.000

$$$$

     RDKit          3D

 69 69  0  0  0  0  0  0  0  0999 V2000
   46.6478    9.6770   20.8498 C   0  0  0  0  0  0  0  0  0  0  0  0
   47.8018    8.4893   18.9687 N   0  0  0  0  0  0  0  0  0  0  0  0
   47.0899   11.0892   20.5363 C   0  0  0  0  0  0  0  0  0  0  0  0
   47.6173    8.5495   20.4242 C   0  0  1  0  0  0  0  0  0  0  0  0
   46.7955   11.6655   19.2928 C   0  0  0  0  0  0  0  0  0  0  0  0
   47.7986   11.8439   21.4812 C   0  0  0  0  0  0  0  0  0  0  0  0
   48.9759    8.6377   21.1202 C   0  0  0  0  0  0  0  0  0  0  0  0
   47.2072   12.9659   18.9977 C   0  0  0  0  0  0  0  0  0  0  0  0
   48.2099   13.1446   21.1848 C   0  0  0  0  0  0  0  0  0  0  0  0
   47.9152   13.7047   19.9432 C   0  0  0  0  0  0  0  0  0  0  0  0
   47.7370   11.0694   18.8596 C   0  0  0  0  0  0  0  0  0  0  0  0
   45.6039   11.8623   19.9097 N   0  0  0  0  0  0  0  0  0  0  0  0
   48.0929    9.9846   19.8519 C   0  0  0  0  0  0  0  0  0  0  0  0
   46.9278   12.2638   19.4174 C   0  0  1  0  0  0  0  0  0  0  0  0
   47.2047    8.9281   20.0973 C   0  0  0  0  0  0  0  0  0  0  0  0
   49.3135   10.0165   20.5404 C   0  0  0  0  0  0  0  0  0  0  0  0
   47.6774   13.0359   20.5036 C   0  0  0  0  0  0  0  0  0  0  0  0
   49.6345    9.0164   21.4599 C   0  0  0  0  0  0  0  0  0  0  0  0
   47.5268    7.9290   21.0168 C   0  0  0  0  0  0  0  0  0  0  0  0
   48.7411    7.9738   21.6986 C   0  0  0  0  0  0  0  0  0  0  0  0
   46.9600   11.3179   20.6486 C   0  0  0  0  0  0  0  0  0  0  0  0
   47.9287   12.1937   18.5222 N   0  0  0  0  0  0  0  0  0  0  0  0
   47.4374    9.8839   20.6955 C   0  0  0  0  0  0  0  0  0  0  0  0
   47.9670   12.2853   19.9885 C   0  0  1  0  0  0  0  0  0  0  0  0
   47.3271    9.0571   19.5701 C   0  0  0  0  0  0  0  0  0  0  0  0
   48.0092    9.3632   21.8649 C   0  0  0  0  0  0  0  0  0  0  0  0
   47.6657   13.7284   20.3980 C   0  0  0  0  0  0  0  0  0  0  0  0
   47.7717    7.7347   19.6146 C   0  0  0  0  0  0  0  0  0  0  0  0
   48.4526    8.0399   21.9086 C   0  0  0  0  0  0  0  0  0  0  0  0
   48.3327    7.2258   20.7840 C   0  0  0  0  0  0  0  0  0  0  0  0
   46.4620    9.5978   21.9295 H   0  0  0  0  0  0  0  0  0  0  0  0
   45.6684    9.5062   20.3816 H   0  0  0  0  0  0  0  0  0  0  0  0
   48.4672    7.7514   18.7404 H   0  0  0  0  0  0  0  0  0  0  0  0
   48.2392    9.3583   18.6567 H   0  0  0  0  0  0  0  0  0  0  0  0
   47.1540    7.6017   20.7254 H   0  0  0  0  0  0  0  0  0  0  0  0
   46.2413   11.0991   18.5465 H   0  0  0  0  0  0  0  0  0  0  0  0
   48.0349   11.4232   22.4558 H   0  0  0  0  0  0  0  0  0  0  0  0
   48.8518    8.6924   22.2069 H   0  0  0  0  0  0  0  0  0  0  0  0
   49.5481    9.5137   20.7968 H   0  0  0  0  0  0  0  0  0  0  0  0
   49.5811    7.7505   20.9021 H   0  0  0  0  0  0  0  0  0  0  0  0
   46.9730   13.4020   18.0302 H   0  0  0  0  0  0  0  0  0  0  0  0
   48.7590   13.7217   21.9241 H   0  0  0  0  0  0  0  0  0  0  0  0
   48.2341   14.7178   19.7138 H   0  0  0  0  0  0  0  0  0  0  0  0
   47.1805   10.6133   18.0290 H   0  0  0  0  0  0  0  0  0  0  0  0
   48.6625   11.4480   18.4050 H   0  0  0  0  0  0  0  0  0  0  0  0
   45.7263   11.2230   20.6972 H   0  0  0  0  0  0  0  0  0  0  0  0
   45.1215   12.6755   20.2905 H   0  0  0  0  0  0  0  0  0  0  0  0
   46.7601   12.9525   18.5800 H   0  0  0  0  0  0  0  0  0  0  0  0
   46.2538    8.8810   19.5696 H   0  0  0  0  0  0  0  0  0  0  0  0
   50.0232   10.8214   20.3644 H   0  0  0  0  0  0  0  0  0  0  0  0
   48.6709   13.3338   20.1518 H   0  0  0  0  0  0  0  0  0  0  0  0
   47.1357   13.9497   20.7730 H   0  0  0  0  0  0  0  0  0  0  0  0
   47.8010   12.4455   21.4175 H   0  0  0  0  0  0  0  0  0  0  0  0
   50.5833    9.0499   21.9888 H   0  0  0  0  0  0  0  0  0  0  0  0
   46.8302    7.1149   21.1986 H   0  0  0  0  0  0  0  0  0  0  0  0
   48.9924    7.1948   22.4133 H   0  0  0  0  0  0  0  0  0  0  0  0
   45.9876   11.3603   20.1394 H   0  0  0  0  0  0  0  0  0  0  0  0
   46.7577   11.6452   21.6775 H   0  0  0  0  0  0  0  0  0  0  0  0
   47.0188   12.4985   18.1795 H   0  0  0  0  0  0  0  0  0  0  0  0
   48.6133   12.8348   18.1233 H   0  0  0  0  0  0  0  0  0  0  0  0
   48.9832   12.0393   20.3198 H   0  0  0  0  0  0  0  0  0  0  0  0
   46.9027    9.4460   18.6471 H   0  0  0  0  0  0  0  0  0  0  0  0
   48.1132    9.9849   22.7508 H   0  0  0  0  0  0  0  0  0  0  0  0
   48.3787   14.4248   19.9425 H   0  0  0  0  0  0  0  0  0  0  0  0
   47.7413   13.8453   21.4845 H   0  0  0  0  0  0  0  0  0  0  0  0
   46.6563   14.0298   20.0960 H   0  0  0  0  0  0  0  0  0  0  0  0
   47.6841    7.1050   18.7335 H   0  0  0  0  0  0  0  0  0  0  0  0
   48.8934    7.6452   22.8199 H   0  0  0  0  0  0  0  0  0  0  0  0
   48.6800    6.1969   20.8171 H   0  0  0  0  0  0  0  0  0  0  0  0
  4  2  1  0
  3  1  1  0
  4  1  1  0
  5  3  2  0
  6  3  1  0
  4  7  1  0
  8  5  1  0
  9  6  2  0
 10  8  2  0
  9 10  1  0
 12 14  1  0
 13 11  1  0
 14 11  1  0
 15 13  2  0
 16 13  1  0
 17 14  1  0
 18 16  2  0
 19 15  1  0
 20 18  1  0
 19 20  2  0
 24 22  1  0
 23 21  1  0
 24 21  1  0
 25 23  2  0
 26 23  1  0
 24 27  1  0
 28 25  1  0
 29 26  2  0
 30 28  2  0
 29 30  1  0
  1 31  1  0
  1 32  1  0
  2 33  1  0
  2 34  1  0
  4 35  1  6
  5 36  1  0
  6 37  1  0
  7 38  1  0
  7 39  1  0
  7 40  1  0
  8 41  1  0
  9 42  1  0
 10 43  1  0
 11 44  1  0
 11 45  1  0
 12 46  1  0
 12 47  1  0
 14 48  1  6
 15 49  1  0
 16 50  1  0
 17 51  1  0
 17 52  1  0
 17 53  1  0
 18 54  1  0
 19 55  1  0
 20 56  1  0
 21 57  1  0
 21 58  1  0
 22 59  1  0
 22 60  1  0
 24 61  1  1
 25 62  1  0
 26 63  1  0
 27 64  1  0
 27 65  1  0
 27 66  1  0
 28 67  1  0
 29 68  1  0
 30 69  1  0
M  END
> <Uni-Dock RESULT> 
ENERGY=   -6.304  LOWER_BOUND=   10.829  UPPER_BOUND=   12.815
INTER + INTRA:          -6.304
INTER:                  -6.304
INTRA:                   0.000
UNBOUND:                 0.000

$$$$

     RDKit          3D

 69 69  0  0  0  0  0  0  0  0999 V2000
   48.9201   10.7459   20.0970 C   0  0  0  0  0  0  0  0  0  0  0  0
   47.6756   10.4320   17.9445 N   0  0  0  0  0  0  0  0  0  0  0  0
   48.3986    9.5378   20.8430 C   0  0  0  0  0  0  0  0  0  0  0  0
   47.9676   11.3599   19.0445 C   0  0  1  0  0  0  0  0  0  0  0  0
   48.5741    8.2496   20.3185 C   0  0  0  0  0  0  0  0  0  0  0  0
   47.7338    9.6847   22.0682 C   0  0  0  0  0  0  0  0  0  0  0  0
   46.6634   11.8780   19.6516 C   0  0  0  0  0  0  0  0  0  0  0  0
   48.0888    7.1331   21.0007 C   0  0  0  0  0  0  0  0  0  0  0  0
   47.2487    8.5671   22.7496 C   0  0  0  0  0  0  0  0  0  0  0  0
   47.4254    7.2922   22.2155 C   0  0  0  0  0  0  0  0  0  0  0  0
   47.6274    8.4680   19.6219 C   0  0  0  0  0  0  0  0  0  0  0  0
   49.8001    8.4272   20.8702 N   0  0  0  0  0  0  0  0  0  0  0  0
   47.3921    9.9623   19.6178 C   0  0  0  0  0  0  0  0  0  0  0  0
   48.4275    7.9078   20.8211 C   0  0  1  0  0  0  0  0  0  0  0  0
   48.3384   10.8282   19.0521 C   0  0  0  0  0  0  0  0  0  0  0  0
   46.2271   10.5052   20.1770 C   0  0  0  0  0  0  0  0  0  0  0  0
   47.7320    8.1413   22.1626 C   0  0  0  0  0  0  0  0  0  0  0  0
   46.0177   11.8853   20.1765 C   0  0  0  0  0  0  0  0  0  0  0  0
   48.1279   12.2077   19.0522 C   0  0  0  0  0  0  0  0  0  0  0  0
   46.9681   12.7361   19.6153 C   0  0  0  0  0  0  0  0  0  0  0  0
   48.5273    9.4362   21.0774 C   0  0  0  0  0  0  0  0  0  0  0  0
   47.3651    7.4335   20.1469 N   0  0  0  0  0  0  0  0  0  0  0  0
   48.1134   10.5545   20.1475 C   0  0  0  0  0  0  0  0  0  0  0  0
   47.4347    8.3639   21.2825 C   0  0  1  0  0  0  0  0  0  0  0  0
   48.1712   10.3864   18.7580 C   0  0  0  0  0  0  0  0  0  0  0  0
   47.6536   11.7742   20.6634 C   0  0  0  0  0  0  0  0  0  0  0  0
   47.7075    7.5629   22.5572 C   0  0  0  0  0  0  0  0  0  0  0  0
   47.7853   11.4187   17.9015 C   0  0  0  0  0  0  0  0  0  0  0  0
   47.2688   12.8066   19.8058 C   0  0  0  0  0  0  0  0  0  0  0  0
   47.3358   12.6291   18.4252 C   0  0  0  0  0  0  0  0  0  0  0  0
   49.1905   11.5208   20.8273 H   0  0  0  0  0  0  0  0  0  0  0  0
   49.8672   10.4734   19.6109 H   0  0  0  0  0  0  0  0  0  0  0  0
   47.0253   10.8704   17.2933 H   0  0  0  0  0  0  0  0  0  0  0  0
   47.1809    9.6213   18.3211 H   0  0  0  0  0  0  0  0  0  0  0  0
   48.4904   12.2188   18.6057 H   0  0  0  0  0  0  0  0  0  0  0  0
   49.0925    8.1122   19.3712 H   0  0  0  0  0  0  0  0  0  0  0  0
   47.5895   10.6721   22.5005 H   0  0  0  0  0  0  0  0  0  0  0  0
   46.8673   12.5648   20.4799 H   0  0  0  0  0  0  0  0  0  0  0  0
   46.0332   11.0654   20.0283 H   0  0  0  0  0  0  0  0  0  0  0  0
   46.0797   12.4275   18.9043 H   0  0  0  0  0  0  0  0  0  0  0  0
   48.2310    6.1395   20.5841 H   0  0  0  0  0  0  0  0  0  0  0  0
   46.7345    8.6915   23.6990 H   0  0  0  0  0  0  0  0  0  0  0  0
   47.0491    6.4225   22.7474 H   0  0  0  0  0  0  0  0  0  0  0  0
   48.1371    8.1927   18.6881 H   0  0  0  0  0  0  0  0  0  0  0  0
   46.6553    7.9586   19.5735 H   0  0  0  0  0  0  0  0  0  0  0  0
   49.7639    9.4381   21.0136 H   0  0  0  0  0  0  0  0  0  0  0  0
   50.2767    8.0519   21.6895 H   0  0  0  0  0  0  0  0  0  0  0  0
   48.5030    6.8233   20.6737 H   0  0  0  0  0  0  0  0  0  0  0  0
   49.2476   10.4273   18.6075 H   0  0  0  0  0  0  0  0  0  0  0  0
   45.4740    9.8556   20.6170 H   0  0  0  0  0  0  0  0  0  0  0  0
   46.7033    7.7661   22.1363 H   0  0  0  0  0  0  0  0  0  0  0  0
   48.2550    7.6123   22.9673 H   0  0  0  0  0  0  0  0  0  0  0  0
   47.7022    9.2023   22.4318 H   0  0  0  0  0  0  0  0  0  0  0  0
   45.1112   12.2967   20.6126 H   0  0  0  0  0  0  0  0  0  0  0  0
   48.8687   12.8689   18.6106 H   0  0  0  0  0  0  0  0  0  0  0  0
   46.8036   13.8102   19.6137 H   0  0  0  0  0  0  0  0  0  0  0  0
   49.4557    8.9808   20.7067 H   0  0  0  0  0  0  0  0  0  0  0  0
   48.7938    9.8782   22.0470 H   0  0  0  0  0  0  0  0  0  0  0  0
   48.2332    6.9045   20.0787 H   0  0  0  0  0  0  0  0  0  0  0  0
   46.6268    6.7504   20.3115 H   0  0  0  0  0  0  0  0  0  0  0  0
   46.4574    8.8510   21.3855 H   0  0  0  0  0  0  0  0  0  0  0  0
   48.5082    9.4419   18.3365 H   0  0  0  0  0  0  0  0  0  0  0  0
   47.5921   11.9293   21.7379 H   0  0  0  0  0  0  0  0  0  0  0  0
   46.9343    6.8033   22.7188 H   0  0  0  0  0  0  0  0  0  0  0  0
   47.7100    8.2203   23.4334 H   0  0  0  0  0  0  0  0  0  0  0  0
   48.6780    7.0557   22.5135 H   0  0  0  0  0  0  0  0  0  0  0  0
   47.8311   11.2743   16.8256 H   0  0  0  0  0  0  0  0  0  0  0  0
   46.9149   13.7488   20.2153 H   0  0  0  0  0  0  0  0  0  0  0  0
   47.0339   13.4315   17.7578 H   0  0  0  0  0  0  0  0  0  0  0  0
  4  2  1  0
  3  1  1  0
  4  1  1  0
  5  3  2  0
  6  3  1  0
  4  7  1  0
  8  5  1  0
  9  6  2  0
 10  8  2  0
  9 10  1  0
 12 14  1  0
 13 11  1  0
 14 11  1  0
 15 13  2  0
 16 13  1  0
 17 14  1  0
 18 16  2  0
 19 15  1  0
 20 18  1  0
 19 20  2  0
 24 22  1  0
 23 21  1  0
 24 21  1  0
 25 23  2  0
 26 23  1  0
 24 27  1  0
 28 25  1  0
 29 26  2  0
 30 28  2  0
 29 30  1  0
  1 31  1  0
  1 32  1  0
  2 33  1  0
  2 34  1  0
  4 35  1  6
  5 36  1  0
  6 37  1  0
  7 38  1  0
  7 39  1  0
  7 40  1  0
  8 41  1  0
  9 42  1  0
 10 43  1  0
 11 44  1  0
 11 45  1  0
 12 46  1  0
 12 47  1  0
 14 48  1  6
 15 49  1  0
 16 50  1  0
 17 51  1  0
 17 52  1  0
 17 53  1  0
 18 54  1  0
 19 55  1  0
 20 56  1  0
 21 57  1  0
 21 58  1  0
 22 59  1  0
 22 60  1  0
 24 61  1  1
 25 62  1  0
 26 63  1  0
 27 64  1  0
 27 65  1  0
 27 66  1  0
 28 67  1  0
 29 68  1  0
 30 69  1  0
M  END
> <Uni-Dock RESULT> 
ENERGY=   -6.194  LOWER_BOUND=   11.034  UPPER_BOUND=   12.592
INTER + INTRA:          -6.194
INTER:                  -6.194
INTRA:                   0.000
UNBOUND:                 0.000

$$$$

     RDKit          3D

 69 69  0  0  0  0  0  0  0  0999 V2000
   46.5111   11.4709   20.3575 C   0  0  0  0  0  0  0  0  0  0  0  0
   48.4159   12.7853   21.3191 N   0  0  0  0  0  0  0  0  0  0  0  0
   47.0999   10.0835   20.4868 C   0  0  0  0  0  0  0  0  0  0  0  0
   47.5227   12.6248   20.1647 C   0  0  1  0  0  0  0  0  0  0  0  0
   47.4952    9.5944   21.7397 C   0  0  0  0  0  0  0  0  0  0  0  0
   47.2590    9.2653   19.3600 C   0  0  0  0  0  0  0  0  0  0  0  0
   48.3447   12.4886   18.8826 C   0  0  0  0  0  0  0  0  0  0  0  0
   48.0447    8.3175   21.8622 C   0  0  0  0  0  0  0  0  0  0  0  0
   47.8088    7.9881   19.4837 C   0  0  0  0  0  0  0  0  0  0  0  0
   48.2023    7.5151   20.7341 C   0  0  0  0  0  0  0  0  0  0  0  0
   48.5051   10.2188   21.5993 C   0  0  0  0  0  0  0  0  0  0  0  0
   46.1630    9.3558   21.8251 N   0  0  0  0  0  0  0  0  0  0  0  0
   48.2721   11.2325   20.5010 C   0  0  0  0  0  0  0  0  0  0  0  0
   47.5671    8.9890   21.6011 C   0  0  1  0  0  0  0  0  0  0  0  0
   47.3456   12.2698   20.6774 C   0  0  0  0  0  0  0  0  0  0  0  0
   48.9770   11.1530   19.2920 C   0  0  0  0  0  0  0  0  0  0  0  0
   47.6906    8.1437   20.3331 C   0  0  0  0  0  0  0  0  0  0  0  0
   48.7537   12.0873   18.2791 C   0  0  0  0  0  0  0  0  0  0  0  0
   47.1233   13.2030   19.6640 C   0  0  0  0  0  0  0  0  0  0  0  0
   47.8266   13.1110   18.4647 C   0  0  0  0  0  0  0  0  0  0  0  0
   46.9391    9.8477   20.4698 C   0  0  0  0  0  0  0  0  0  0  0  0
   48.8802    9.1204   21.8592 N   0  0  0  0  0  0  0  0  0  0  0  0
   47.2768   11.2749   20.1020 C   0  0  0  0  0  0  0  0  0  0  0  0
   48.1746    8.9279   20.5844 C   0  0  1  0  0  0  0  0  0  0  0  0
   47.7224   12.1774   21.0764 C   0  0  0  0  0  0  0  0  0  0  0  0
   47.1600   11.7137   18.7756 C   0  0  0  0  0  0  0  0  0  0  0  0
   47.7580    7.4600   20.4709 C   0  0  0  0  0  0  0  0  0  0  0  0
   48.0370   13.4935   20.7340 C   0  0  0  0  0  0  0  0  0  0  0  0
   47.4741   13.0307   18.4344 C   0  0  0  0  0  0  0  0  0  0  0  0
   47.9112   13.9204   19.4137 C   0  0  0  0  0  0  0  0  0  0  0  0
   45.8019   11.4754   19.5185 H   0  0  0  0  0  0  0  0  0  0  0  0
   45.8978   11.6736   21.2465 H   0  0  0  0  0  0  0  0  0  0  0  0
   49.0792   13.5370   21.1340 H   0  0  0  0  0  0  0  0  0  0  0  0
   48.9810   11.9398   21.4172 H   0  0  0  0  0  0  0  0  0  0  0  0
   46.9380   13.5497   20.0841 H   0  0  0  0  0  0  0  0  0  0  0  0
   47.3753   10.2111   22.6287 H   0  0  0  0  0  0  0  0  0  0  0  0
   46.9550    9.6178   18.3772 H   0  0  0  0  0  0  0  0  0  0  0  0
   47.6899   12.3591   18.0143 H   0  0  0  0  0  0  0  0  0  0  0  0
   49.0320   11.6369   18.9227 H   0  0  0  0  0  0  0  0  0  0  0  0
   48.9458   13.3886   18.7104 H   0  0  0  0  0  0  0  0  0  0  0  0
   48.3474    7.9491   22.8388 H   0  0  0  0  0  0  0  0  0  0  0  0
   47.9281    7.3613   18.6040 H   0  0  0  0  0  0  0  0  0  0  0  0
   48.6285    6.5201   20.8299 H   0  0  0  0  0  0  0  0  0  0  0  0
   48.4297   10.7312   22.5685 H   0  0  0  0  0  0  0  0  0  0  0  0
   49.5460    9.8723   21.5435 H   0  0  0  0  0  0  0  0  0  0  0  0
   45.8479    9.9392   21.0479 H   0  0  0  0  0  0  0  0  0  0  0  0
   45.5829    8.5183   21.7908 H   0  0  0  0  0  0  0  0  0  0  0  0
   47.8701    8.3597   22.4471 H   0  0  0  0  0  0  0  0  0  0  0  0
   46.7914   12.3533   21.6106 H   0  0  0  0  0  0  0  0  0  0  0  0
   49.7058   10.3620   19.1314 H   0  0  0  0  0  0  0  0  0  0  0  0
   48.7352    7.8706   20.1495 H   0  0  0  0  0  0  0  0  0  0  0  0
   47.1193    7.2135   20.4305 H   0  0  0  0  0  0  0  0  0  0  0  0
   47.3142    8.6696   19.4493 H   0  0  0  0  0  0  0  0  0  0  0  0
   49.3051   12.0172   17.3452 H   0  0  0  0  0  0  0  0  0  0  0  0
   46.4026   14.0028   19.8124 H   0  0  0  0  0  0  0  0  0  0  0  0
   47.6546   13.8389   17.6764 H   0  0  0  0  0  0  0  0  0  0  0  0
   46.3600    9.8407   21.4032 H   0  0  0  0  0  0  0  0  0  0  0  0
   46.2556    9.4502   19.7072 H   0  0  0  0  0  0  0  0  0  0  0  0
   48.2799    8.8402   22.6333 H   0  0  0  0  0  0  0  0  0  0  0  0
   49.6944    8.5082   21.8932 H   0  0  0  0  0  0  0  0  0  0  0  0
   48.8744    9.1503   19.7696 H   0  0  0  0  0  0  0  0  0  0  0  0
   47.8369   11.8531   22.1084 H   0  0  0  0  0  0  0  0  0  0  0  0
   46.8232   11.0323   17.9981 H   0  0  0  0  0  0  0  0  0  0  0  0
   48.6273    6.7966   20.5426 H   0  0  0  0  0  0  0  0  0  0  0  0
   47.2777    7.2684   19.5053 H   0  0  0  0  0  0  0  0  0  0  0  0
   47.0513    7.1804   21.2604 H   0  0  0  0  0  0  0  0  0  0  0  0
   48.3852   14.1825   21.4985 H   0  0  0  0  0  0  0  0  0  0  0  0
   47.3792   13.3615   17.4038 H   0  0  0  0  0  0  0  0  0  0  0  0
   48.1580   14.9445   19.1478 H   0  0  0  0  0  0  0  0  0  0  0  0
  4  2  1  0
  3  1  1  0
  4  1  1  0
  5  3  2  0
  6  3  1  0
  4  7  1  0
  8  5  1  0
  9  6  2  0
 10  8  2  0
  9 10  1  0
 12 14  1  0
 13 11  1  0
 14 11  1  0
 15 13  2  0
 16 13  1  0
 17 14  1  0
 18 16  2  0
 19 15  1  0
 20 18  1  0
 19 20  2  0
 24 22  1  0
 23 21  1  0
 24 21  1  0
 25 23  2  0
 26 23  1  0
 24 27  1  0
 28 25  1  0
 29 26  2  0
 30 28  2  0
 29 30  1  0
  1 31  1  0
  1 32  1  0
  2 33  1  0
  2 34  1  0
  4 35  1  6
  5 36  1  0
  6 37  1  0
  7 38  1  0
  7 39  1  0
  7 40  1  0
  8 41  1  0
  9 42  1  0
 10 43  1  0
 11 44  1  0
 11 45  1  0
 12 46  1  0
 12 47  1  0
 14 48  1  6
 15 49  1  0
 16 50  1  0
 17 51  1  0
 17 52  1  0
 17 53  1  0
 18 54  1  0
 19 55  1  0
 20 56  1  0
 21 57  1  0
 21 58  1  0
 22 59  1  0
 22 60  1  0
 24 61  1  1
 25 62  1  0
 26 63  1  0
 27 64  1  0
 27 65  1  0
 27 66  1  0
 28 67  1  0
 29 68  1  0
 30 69  1  0
M  END
> <Uni-Dock RESULT> 
ENERGY=   -6.170  LOWER_BOUND=   11.105  UPPER_BOUND=   12.927
INTER + INTRA:          -6.170
INTER:                  -6.170
INTRA:                   0.000
UNBOUND:                 0.000

$$$$

     RDKit          3D

 69 69  0  0  0  0  0  0  0  0999 V2000
   48.1025    3.5860   19.5366 C   0  0  0  0  0  0  0  0  0  0  0  0
   47.0627    4.6599   17.5250 N   0  0  0  0  0  0  0  0  0  0  0  0
   48.5100    4.8379   20.2813 C   0  0  0  0  0  0  0  0  0  0  0  0
   48.0637    3.6934   17.9941 C   0  0  1  0  0  0  0  0  0  0  0  0
   47.5508    5.7970   20.6355 C   0  0  0  0  0  0  0  0  0  0  0  0
   49.8493    5.0596   20.6301 C   0  0  0  0  0  0  0  0  0  0  0  0
   49.4284    4.0166   17.3849 C   0  0  0  0  0  0  0  0  0  0  0  0
   47.9239    6.9562   21.3170 C   0  0  0  0  0  0  0  0  0  0  0  0
   50.2214    6.2195   21.3118 C   0  0  0  0  0  0  0  0  0  0  0  0
   49.2591    7.1677   21.6541 C   0  0  0  0  0  0  0  0  0  0  0  0
   47.6316    6.2058   19.5149 C   0  0  0  0  0  0  0  0  0  0  0  0
   47.3513    4.9100   21.6417 N   0  0  0  0  0  0  0  0  0  0  0  0
   48.3027    5.1372   18.6807 C   0  0  0  0  0  0  0  0  0  0  0  0
   47.8842    6.1386   21.0393 C   0  0  1  0  0  0  0  0  0  0  0  0
   47.6707    3.9046   18.4645 C   0  0  0  0  0  0  0  0  0  0  0  0
   49.5635    5.3605   18.1106 C   0  0  0  0  0  0  0  0  0  0  0  0
   49.3592    6.3036   21.4067 C   0  0  0  0  0  0  0  0  0  0  0  0
   50.1815    4.3687   17.3470 C   0  0  0  0  0  0  0  0  0  0  0  0
   48.2895    2.9139   17.7010 C   0  0  0  0  0  0  0  0  0  0  0  0
   49.5451    3.1457   17.1432 C   0  0  0  0  0  0  0  0  0  0  0  0
   48.5776    4.8346   20.5592 C   0  0  0  0  0  0  0  0  0  0  0  0
   47.7934    7.1741   20.1864 N   0  0  0  0  0  0  0  0  0  0  0  0
   48.5166    4.2129   19.1822 C   0  0  0  0  0  0  0  0  0  0  0  0
   48.9449    6.3348   20.5465 C   0  0  1  0  0  0  0  0  0  0  0  0
   47.3819    4.3719   18.3762 C   0  0  0  0  0  0  0  0  0  0  0  0
   49.6016    3.4765   18.6863 C   0  0  0  0  0  0  0  0  0  0  0  0
   49.4579    6.7690   21.9210 C   0  0  0  0  0  0  0  0  0  0  0  0
   47.3292    3.8001   17.1040 C   0  0  0  0  0  0  0  0  0  0  0  0
   49.5474    2.9041   17.4139 C   0  0  0  0  0  0  0  0  0  0  0  0
   48.4109    3.0650   16.6237 C   0  0  0  0  0  0  0  0  0  0  0  0
   48.7825    2.7710   19.8196 H   0  0  0  0  0  0  0  0  0  0  0  0
   47.1153    3.2693   19.9009 H   0  0  0  0  0  0  0  0  0  0  0  0
   47.0938    4.7149   16.5075 H   0  0  0  0  0  0  0  0  0  0  0  0
   47.3233    5.5902   17.8574 H   0  0  0  0  0  0  0  0  0  0  0  0
   47.7585    2.7101   17.6148 H   0  0  0  0  0  0  0  0  0  0  0  0
   46.5042    5.6422   20.3794 H   0  0  0  0  0  0  0  0  0  0  0  0
   50.6127    4.3289   20.3728 H   0  0  0  0  0  0  0  0  0  0  0  0
   50.1865    3.3078   17.7343 H   0  0  0  0  0  0  0  0  0  0  0  0
   49.7632    5.0280   17.6383 H   0  0  0  0  0  0  0  0  0  0  0  0
   49.3909    3.9466   16.2918 H   0  0  0  0  0  0  0  0  0  0  0  0
   47.1713    7.6924   21.5863 H   0  0  0  0  0  0  0  0  0  0  0  0
   51.2625    6.3823   21.5777 H   0  0  0  0  0  0  0  0  0  0  0  0
   49.5492    8.0696   22.1864 H   0  0  0  0  0  0  0  0  0  0  0  0
   46.5496    6.1669   19.3266 H   0  0  0  0  0  0  0  0  0  0  0  0
   47.9471    7.1909   19.1450 H   0  0  0  0  0  0  0  0  0  0  0  0
   47.8468    4.1087   21.2465 H   0  0  0  0  0  0  0  0  0  0  0  0
   47.5653    4.8992   22.6383 H   0  0  0  0  0  0  0  0  0  0  0  0
   47.3370    6.9764   21.4892 H   0  0  0  0  0  0  0  0  0  0  0  0
   46.6889    3.7122   18.8935 H   0  0  0  0  0  0  0  0  0  0  0  0
   50.0731    6.3099   18.2576 H   0  0  0  0  0  0  0  0  0  0  0  0
   49.7715    7.2126   20.9558 H   0  0  0  0  0  0  0  0  0  0  0  0
   49.4806    6.3903   22.4924 H   0  0  0  0  0  0  0  0  0  0  0  0
   49.9637    5.4529   21.0752 H   0  0  0  0  0  0  0  0  0  0  0  0
   51.1592    4.5513   16.9092 H   0  0  0  0  0  0  0  0  0  0  0  0
   47.7898    1.9624   17.5402 H   0  0  0  0  0  0  0  0  0  0  0  0
   50.0260    2.3748   16.5472 H   0  0  0  0  0  0  0  0  0  0  0  0
   47.6207    4.6719   21.0736 H   0  0  0  0  0  0  0  0  0  0  0  0
   49.3180    4.2809   21.1524 H   0  0  0  0  0  0  0  0  0  0  0  0
   47.0697    7.0939   20.8991 H   0  0  0  0  0  0  0  0  0  0  0  0
   48.0763    8.1533   20.1757 H   0  0  0  0  0  0  0  0  0  0  0  0
   49.7397    6.5117   19.8117 H   0  0  0  0  0  0  0  0  0  0  0  0
   46.5358    4.9542   18.7345 H   0  0  0  0  0  0  0  0  0  0  0  0
   50.4974    3.3432   19.2879 H   0  0  0  0  0  0  0  0  0  0  0  0
   49.7299    7.8306   21.9232 H   0  0  0  0  0  0  0  0  0  0  0  0
   50.3526    6.2004   22.1966 H   0  0  0  0  0  0  0  0  0  0  0  0
   48.7040    6.6100   22.7003 H   0  0  0  0  0  0  0  0  0  0  0  0
   46.4448    3.9342   16.4872 H   0  0  0  0  0  0  0  0  0  0  0  0
   50.3930    2.3342   17.0388 H   0  0  0  0  0  0  0  0  0  0  0  0
   48.3697    2.6217   15.6326 H   0  0  0  0  0  0  0  0  0  0  0  0
  4  2  1  0
  3  1  1  0
  4  1  1  0
  5  3  2  0
  6  3  1  0
  4  7  1  0
  8  5  1  0
  9  6  2  0
 10  8  2  0
  9 10  1  0
 12 14  1  0
 13 11  1  0
 14 11  1  0
 15 13  2  0
 16 13  1  0
 17 14  1  0
 18 16  2  0
 19 15  1  0
 20 18  1  0
 19 20  2  0
 24 22  1  0
 23 21  1  0
 24 21  1  0
 25 23  2  0
 26 23  1  0
 24 27  1  0
 28 25  1  0
 29 26  2  0
 30 28  2  0
 29 30  1  0
  1 31  1  0
  1 32  1  0
  2 33  1  0
  2 34  1  0
  4 35  1  6
  5 36  1  0
  6 37  1  0
  7 38  1  0
  7 39  1  0
  7 40  1  0
  8 41  1  0
  9 42  1  0
 10 43  1  0
 11 44  1  0
 11 45  1  0
 12 46  1  0
 12 47  1  0
 14 48  1  6
 15 49  1  0
 16 50  1  0
 17 51  1  0
 17 52  1  0
 17 53  1  0
 18 54  1  0
 19 55  1  0
 20 56  1  0
 21 57  1  0
 21 58  1  0
 22 59  1  0
 22 60  1  0
 24 61  1  1
 25 62  1  0
 26 63  1  0
 27 64  1  0
 27 65  1  0
 27 66  1  0
 28 67  1  0
 29 68  1  0
 30 69  1  0
M  END
> <Uni-Dock RESULT> 
ENERGY=   -6.100  LOWER_BOUND=    8.143  UPPER_BOUND=   10.816
INTER + INTRA:          -6.100
INTER:                  -6.100
INTRA:                   0.000
UNBOUND:                 0.000

$$$$
