
     RDKit          3D

 69 69  0  0  0  0  0  0  0  0999 V2000
   44.5789    2.9671    9.7769 C   0  0  0  0  0  0  0  0  0  0  0  0
   45.9845    4.5080    8.4108 N   0  0  0  0  0  0  0  0  0  0  0  0
   44.3787    3.8616   10.9800 C   0  0  0  0  0  0  0  0  0  0  0  0
   44.7303    3.7451    8.4524 C   0  0  1  0  0  0  0  0  0  0  0  0
   45.4491    4.1474   11.8384 C   0  0  0  0  0  0  0  0  0  0  0  0
   43.1252    4.4304   11.2438 C   0  0  0  0  0  0  0  0  0  0  0  0
   44.7082    2.7842    7.2648 C   0  0  0  0  0  0  0  0  0  0  0  0
   45.2683    4.9843   12.9404 C   0  0  0  0  0  0  0  0  0  0  0  0
   42.9464    5.2668   12.3468 C   0  0  0  0  0  0  0  0  0  0  0  0
   44.0174    5.5434   13.1945 C   0  0  0  0  0  0  0  0  0  0  0  0
   43.8608    4.3371   10.6285 C   0  0  0  0  0  0  0  0  0  0  0  0
   45.4165    5.2303   12.3633 N   0  0  0  0  0  0  0  0  0  0  0  0
   44.7758    3.9753    9.4803 C   0  0  0  0  0  0  0  0  0  0  0  0
   44.5009    4.1333   12.0194 C   0  0  1  0  0  0  0  0  0  0  0  0
   44.6622    2.7300    8.8463 C   0  0  0  0  0  0  0  0  0  0  0  0
   45.7574    4.8721    9.0392 C   0  0  0  0  0  0  0  0  0  0  0  0
   43.4175    4.0428   13.0959 C   0  0  0  0  0  0  0  0  0  0  0  0
   46.6030    4.5348    7.9811 C   0  0  0  0  0  0  0  0  0  0  0  0
   45.5079    2.3941    7.7873 C   0  0  0  0  0  0  0  0  0  0  0  0
   46.4771    3.2968    7.3543 C   0  0  0  0  0  0  0  0  0  0  0  0
   43.5905    4.1711   10.6929 C   0  0  0  0  0  0  0  0  0  0  0  0
   43.2397    5.6666   12.6188 N   0  0  0  0  0  0  0  0  0  0  0  0
   44.5348    3.6818    9.6188 C   0  0  0  0  0  0  0  0  0  0  0  0
   44.2629    5.0855   11.7380 C   0  0  1  0  0  0  0  0  0  0  0  0
   44.9728    4.5483    8.6076 C   0  0  0  0  0  0  0  0  0  0  0  0
   44.9907    2.3566    9.6217 C   0  0  0  0  0  0  0  0  0  0  0  0
   45.2737    4.3321   12.6034 C   0  0  0  0  0  0  0  0  0  0  0  0
   45.8512    4.0979    7.6209 C   0  0  0  0  0  0  0  0  0  0  0  0
   45.8695    1.9083    8.6343 C   0  0  0  0  0  0  0  0  0  0  0  0
   46.2997    2.7787    7.6348 C   0  0  0  0  0  0  0  0  0  0  0  0
   43.7168    2.2896    9.7118 H   0  0  0  0  0  0  0  0  0  0  0  0
   45.4493    2.3169    9.9379 H   0  0  0  0  0  0  0  0  0  0  0  0
   45.9919    5.1690    9.1898 H   0  0  0  0  0  0  0  0  0  0  0  0
   46.0100    5.0739    7.5636 H   0  0  0  0  0  0  0  0  0  0  0  0
   43.8964    4.4491    8.3424 H   0  0  0  0  0  0  0  0  0  0  0  0
   46.4319    3.7208   11.6483 H   0  0  0  0  0  0  0  0  0  0  0  0
   42.2796    4.2232   10.5920 H   0  0  0  0  0  0  0  0  0  0  0  0
   45.5305    2.0616    7.3168 H   0  0  0  0  0  0  0  0  0  0  0  0
   43.7679    2.2229    7.2397 H   0  0  0  0  0  0  0  0  0  0  0  0
   44.7934    3.3267    6.3166 H   0  0  0  0  0  0  0  0  0  0  0  0
   46.1044    5.1992   13.6006 H   0  0  0  0  0  0  0  0  0  0  0  0
   41.9704    5.7018   12.5456 H   0  0  0  0  0  0  0  0  0  0  0  0
   43.8771    6.1939   14.0537 H   0  0  0  0  0  0  0  0  0  0  0  0
   43.5166    5.3731   10.5058 H   0  0  0  0  0  0  0  0  0  0  0  0
   42.9530    3.7236   10.5493 H   0  0  0  0  0  0  0  0  0  0  0  0
   44.8965    6.1026   12.4464 H   0  0  0  0  0  0  0  0  0  0  0  0
   45.8284    5.0552   13.2790 H   0  0  0  0  0  0  0  0  0  0  0  0
   45.0716    3.1968   12.0270 H   0  0  0  0  0  0  0  0  0  0  0  0
   43.9135    2.0123    9.1729 H   0  0  0  0  0  0  0  0  0  0  0  0
   45.8743    5.8367    9.5284 H   0  0  0  0  0  0  0  0  0  0  0  0
   42.8086    4.9533   13.1314 H   0  0  0  0  0  0  0  0  0  0  0  0
   43.8584    3.8903   14.0875 H   0  0  0  0  0  0  0  0  0  0  0  0
   42.7487    3.1975   12.9006 H   0  0  0  0  0  0  0  0  0  0  0  0
   47.3629    5.2378    7.6511 H   0  0  0  0  0  0  0  0  0  0  0  0
   45.4114    1.4270    7.3016 H   0  0  0  0  0  0  0  0  0  0  0  0
   47.1369    3.0345    6.5319 H   0  0  0  0  0  0  0  0  0  0  0  0
   42.7739    4.7114   10.1941 H   0  0  0  0  0  0  0  0  0  0  0  0
   43.1154    3.3146   11.1900 H   0  0  0  0  0  0  0  0  0  0  0  0
   42.6039    6.2434   12.0691 H   0  0  0  0  0  0  0  0  0  0  0  0
   43.6844    6.2927   13.2895 H   0  0  0  0  0  0  0  0  0  0  0  0
   44.7812    5.9097   11.2336 H   0  0  0  0  0  0  0  0  0  0  0  0
   44.6292    5.5798    8.5810 H   0  0  0  0  0  0  0  0  0  0  0  0
   44.6656    1.6652   10.3961 H   0  0  0  0  0  0  0  0  0  0  0  0
   45.7059    4.9906   13.3658 H   0  0  0  0  0  0  0  0  0  0  0  0
   44.8092    3.4825   13.1164 H   0  0  0  0  0  0  0  0  0  0  0  0
   46.1042    3.9512   12.0006 H   0  0  0  0  0  0  0  0  0  0  0  0
   46.1846    4.7764    6.8401 H   0  0  0  0  0  0  0  0  0  0  0  0
   46.2181    0.8790    8.6456 H   0  0  0  0  0  0  0  0  0  0  0  0
   46.9832    2.4283    6.8661 H   0  0  0  0  0  0  0  0  0  0  0  0
  4  2  1  0
  3  1  1  0
  4  1  1  0
  5  3  2  0
  6  3  1  0
  4  7  1  0
  8  5  1  0
  9  6  2  0
 10  8  2  0
  9 10  1  0
 12 14  1  0
 13 11  1  0
 14 11  1  0
 15 13  2  0
 16 13  1  0
 17 14  1  0
 18 16  2  0
 19 15  1  0
 20 18  1  0
 19 20  2  0
 24 22  1  0
 23 21  1  0
 24 21  1  0
 25 23  2  0
 26 23  1  0
 24 27  1  0
 28 25  1  0
 29 26  2  0
 30 28  2  0
 29 30  1  0
  1 31  1  0
  1 32  1  0
  2 33  1  0
  2 34  1  0
  4 35  1  6
  5 36  1  0
  6 37  1  0
  7 38  1  0
  7 39  1  0
  7 40  1  0
  8 41  1  0
  9 42  1  0
 10 43  1  0
 11 44  1  0
 11 45  1  0
 12 46  1  0
 12 47  1  0
 14 48  1  1
 15 49  1  0
 16 50  1  0
 17 51  1  0
 17 52  1  0
 17 53  1  0
 18 54  1  0
 19 55  1  0
 20 56  1  0
 21 57  1  0
 21 58  1  0
 22 59  1  0
 22 60  1  0
 24 61  1  1
 25 62  1  0
 26 63  1  0
 27 64  1  0
 27 65  1  0
 27 66  1  0
 28 67  1  0
 29 68  1  0
 30 69  1  0
M  END
> <Uni-Dock RESULT> 
ENERGY=   -8.855  LOWER_BOUND=    0.000  UPPER_BOUND=    0.000
INTER + INTRA:          -8.855
INTER:                  -8.855
INTRA:                   0.000
UNBOUND:                 0.000

$$$$

     RDKit          3D

 69 69  0  0  0  0  0  0  0  0999 V2000
   43.6495    4.0774   10.6408 C   0  0  0  0  0  0  0  0  0  0  0  0
   45.3641    5.0054   12.1948 N   0  0  0  0  0  0  0  0  0  0  0  0
   44.5805    3.5891    9.5534 C   0  0  0  0  0  0  0  0  0  0  0  0
   44.2752    4.0306   12.0510 C   0  0  1  0  0  0  0  0  0  0  0  0
   45.2692    4.5033    8.7447 C   0  0  0  0  0  0  0  0  0  0  0  0
   44.7806    2.2168    9.3505 C   0  0  0  0  0  0  0  0  0  0  0  0
   43.2173    4.3257   13.1131 C   0  0  0  0  0  0  0  0  0  0  0  0
   46.1394    4.0533    7.7509 C   0  0  0  0  0  0  0  0  0  0  0  0
   45.6510    1.7688    8.3557 C   0  0  0  0  0  0  0  0  0  0  0  0
   46.3300    2.6867    7.5564 C   0  0  0  0  0  0  0  0  0  0  0  0
   44.8367    2.9643    9.9558 C   0  0  0  0  0  0  0  0  0  0  0  0
   46.3483    4.1388    8.3547 N   0  0  0  0  0  0  0  0  0  0  0  0
   44.6284    3.9773   11.0590 C   0  0  0  0  0  0  0  0  0  0  0  0
   44.9971    3.5966    8.5557 C   0  0  1  0  0  0  0  0  0  0  0  0
   43.3393    4.2531   11.5364 C   0  0  0  0  0  0  0  0  0  0  0  0
   45.7164    4.6636   11.6135 C   0  0  0  0  0  0  0  0  0  0  0  0
   44.7185    2.5578    7.4674 C   0  0  0  0  0  0  0  0  0  0  0  0
   45.5214    5.6006   12.6296 C   0  0  0  0  0  0  0  0  0  0  0  0
   43.1455    5.1897   12.5535 C   0  0  0  0  0  0  0  0  0  0  0  0
   44.2365    5.8622   13.1006 C   0  0  0  0  0  0  0  0  0  0  0  0
   44.6071    2.7531    9.8696 C   0  0  0  0  0  0  0  0  0  0  0  0
   46.1489    1.9237    8.1365 N   0  0  0  0  0  0  0  0  0  0  0  0
   44.2953    3.8295   10.8840 C   0  0  0  0  0  0  0  0  0  0  0  0
   45.7962    3.0970    8.9486 C   0  0  1  0  0  0  0  0  0  0  0  0
   45.1266    4.0215   11.9963 C   0  0  0  0  0  0  0  0  0  0  0  0
   43.1740    4.6549   10.7240 C   0  0  0  0  0  0  0  0  0  0  0  0
   45.4829    4.2599    8.0063 C   0  0  0  0  0  0  0  0  0  0  0  0
   44.8425    5.0211   12.9281 C   0  0  0  0  0  0  0  0  0  0  0  0
   42.8919    5.6541   11.6568 C   0  0  0  0  0  0  0  0  0  0  0  0
   43.7260    5.8373   12.7580 C   0  0  0  0  0  0  0  0  0  0  0  0
   42.7448    3.4550   10.6163 H   0  0  0  0  0  0  0  0  0  0  0  0
   43.3092    5.0958   10.4091 H   0  0  0  0  0  0  0  0  0  0  0  0
   46.0849    4.7961   11.5018 H   0  0  0  0  0  0  0  0  0  0  0  0
   45.8079    4.8872   13.1046 H   0  0  0  0  0  0  0  0  0  0  0  0
   44.6832    3.0299   12.2388 H   0  0  0  0  0  0  0  0  0  0  0  0
   45.1326    5.5731    8.8895 H   0  0  0  0  0  0  0  0  0  0  0  0
   44.2573    1.4884    9.9655 H   0  0  0  0  0  0  0  0  0  0  0  0
   42.7813    5.3224   12.9805 H   0  0  0  0  0  0  0  0  0  0  0  0
   42.4044    3.5932   13.0624 H   0  0  0  0  0  0  0  0  0  0  0  0
   43.6447    4.2742   14.1207 H   0  0  0  0  0  0  0  0  0  0  0  0
   46.6682    4.7702    7.1283 H   0  0  0  0  0  0  0  0  0  0  0  0
   45.7986    0.7028    8.2033 H   0  0  0  0  0  0  0  0  0  0  0  0
   47.0067    2.3370    6.7813 H   0  0  0  0  0  0  0  0  0  0  0  0
   45.7027    2.3342   10.2005 H   0  0  0  0  0  0  0  0  0  0  0  0
   43.9776    2.2798    9.9527 H   0  0  0  0  0  0  0  0  0  0  0  0
   47.0314    3.3831    8.3738 H   0  0  0  0  0  0  0  0  0  0  0  0
   46.4122    4.5580    7.4279 H   0  0  0  0  0  0  0  0  0  0  0  0
   44.2788    4.4171    8.4392 H   0  0  0  0  0  0  0  0  0  0  0  0
   42.4763    3.7397   11.1192 H   0  0  0  0  0  0  0  0  0  0  0  0
   46.7232    4.4778   11.2458 H   0  0  0  0  0  0  0  0  0  0  0  0
   45.4059    1.7072    7.5378 H   0  0  0  0  0  0  0  0  0  0  0  0
   44.8214    2.9958    6.4683 H   0  0  0  0  0  0  0  0  0  0  0  0
   43.6964    2.1730    7.5535 H   0  0  0  0  0  0  0  0  0  0  0  0
   46.3733    6.1291   13.0485 H   0  0  0  0  0  0  0  0  0  0  0  0
   42.1427    5.3957   12.9176 H   0  0  0  0  0  0  0  0  0  0  0  0
   44.0855    6.5929   13.8905 H   0  0  0  0  0  0  0  0  0  0  0  0
   44.8192    1.8281   10.4237 H   0  0  0  0  0  0  0  0  0  0  0  0
   43.7135    2.5372    9.2685 H   0  0  0  0  0  0  0  0  0  0  0  0
   46.4429    1.1621    8.7470 H   0  0  0  0  0  0  0  0  0  0  0  0
   46.9532    2.1454    7.5504 H   0  0  0  0  0  0  0  0  0  0  0  0
   46.6711    3.3639    9.5533 H   0  0  0  0  0  0  0  0  0  0  0  0
   45.9998    3.3906   12.1450 H   0  0  0  0  0  0  0  0  0  0  0  0
   42.5140    4.5258    9.8690 H   0  0  0  0  0  0  0  0  0  0  0  0
   46.3250    4.4575    7.3329 H   0  0  0  0  0  0  0  0  0  0  0  0
   44.6009    4.0516    7.3903 H   0  0  0  0  0  0  0  0  0  0  0  0
   45.2959    5.1824    8.5651 H   0  0  0  0  0  0  0  0  0  0  0  0
   45.4919    5.1620   13.7881 H   0  0  0  0  0  0  0  0  0  0  0  0
   42.0204    6.2897   11.5236 H   0  0  0  0  0  0  0  0  0  0  0  0
   43.5049    6.6150   13.4839 H   0  0  0  0  0  0  0  0  0  0  0  0
  4  2  1  0
  3  1  1  0
  4  1  1  0
  5  3  2  0
  6  3  1  0
  4  7  1  0
  8  5  1  0
  9  6  2  0
 10  8  2  0
  9 10  1  0
 12 14  1  0
 13 11  1  0
 14 11  1  0
 15 13  2  0
 16 13  1  0
 17 14  1  0
 18 16  2  0
 19 15  1  0
 20 18  1  0
 19 20  2  0
 24 22  1  0
 23 21  1  0
 24 21  1  0
 25 23  2  0
 26 23  1  0
 24 27  1  0
 28 25  1  0
 29 26  2  0
 30 28  2  0
 29 30  1  0
  1 31  1  0
  1 32  1  0
  2 33  1  0
  2 34  1  0
  4 35  1  6
  5 36  1  0
  6 37  1  0
  7 38  1  0
  7 39  1  0
  7 40  1  0
  8 41  1  0
  9 42  1  0
 10 43  1  0
 11 44  1  0
 11 45  1  0
 12 46  1  0
 12 47  1  0
 14 48  1  1
 15 49  1  0
 16 50  1  0
 17 51  1  0
 17 52  1  0
 17 53  1  0
 18 54  1  0
 19 55  1  0
 20 56  1  0
 21 57  1  0
 21 58  1  0
 22 59  1  0
 22 60  1  0
 24 61  1  1
 25 62  1  0
 26 63  1  0
 27 64  1  0
 27 65  1  0
 27 66  1  0
 28 67  1  0
 29 68  1  0
 30 69  1  0
M  END
> <Uni-Dock RESULT> 
ENERGY=   -8.268  LOWER_BOUND=    0.659  UPPER_BOUND=    4.495
INTER + INTRA:          -8.268
INTER:                  -8.268
INTRA:                   0.000
UNBOUND:                 0.000

$$$$

     RDKit          3D

 69 69  0  0  0  0  0  0  0  0999 V2000
   44.7039    6.0710   12.8629 C   0  0  0  0  0  0  0  0  0  0  0  0
   44.6742    5.1957   10.5286 N   0  0  0  0  0  0  0  0  0  0  0  0
   45.9079    6.9784   12.7414 C   0  0  0  0  0  0  0  0  0  0  0  0
   43.9095    5.9263   11.5474 C   0  0  1  0  0  0  0  0  0  0  0  0
   47.1928    6.4379   12.5969 C   0  0  0  0  0  0  0  0  0  0  0  0
   45.7539    8.3714   12.7547 C   0  0  0  0  0  0  0  0  0  0  0  0
   42.5988    5.1818   11.7959 C   0  0  0  0  0  0  0  0  0  0  0  0
   48.3023    7.2748   12.4703 C   0  0  0  0  0  0  0  0  0  0  0  0
   46.8649    9.2067   12.6285 C   0  0  0  0  0  0  0  0  0  0  0  0
   48.1384    8.6585   12.4864 C   0  0  0  0  0  0  0  0  0  0  0  0
   45.5351    7.5348   12.3299 C   0  0  0  0  0  0  0  0  0  0  0  0
   47.9631    7.1001   11.9508 N   0  0  0  0  0  0  0  0  0  0  0  0
   44.8640    6.2769   11.8260 C   0  0  0  0  0  0  0  0  0  0  0  0
   46.9193    7.2858   12.9686 C   0  0  1  0  0  0  0  0  0  0  0  0
   43.8858    5.6351   12.5985 C   0  0  0  0  0  0  0  0  0  0  0  0
   45.2158    5.7270   10.5866 C   0  0  0  0  0  0  0  0  0  0  0  0
   47.3115    8.4625   13.8645 C   0  0  0  0  0  0  0  0  0  0  0  0
   44.5972    4.5640   10.1249 C   0  0  0  0  0  0  0  0  0  0  0  0
   43.2670    4.4724   12.1351 C   0  0  0  0  0  0  0  0  0  0  0  0
   43.6219    3.9379   10.8982 C   0  0  0  0  0  0  0  0  0  0  0  0
   45.4163    7.7069   12.5768 C   0  0  0  0  0  0  0  0  0  0  0  0
   47.3504    9.2140   12.3382 N   0  0  0  0  0  0  0  0  0  0  0  0
   44.7796    6.3872   12.2056 C   0  0  0  0  0  0  0  0  0  0  0  0
   46.8813    7.8395   12.1116 C   0  0  1  0  0  0  0  0  0  0  0  0
   44.4030    6.1264   10.8807 C   0  0  0  0  0  0  0  0  0  0  0  0
   44.5621    5.4030   13.1794 C   0  0  0  0  0  0  0  0  0  0  0  0
   47.8147    6.8823   12.8538 C   0  0  0  0  0  0  0  0  0  0  0  0
   43.8228    4.9044   10.5373 C   0  0  0  0  0  0  0  0  0  0  0  0
   43.9821    4.1815   12.8338 C   0  0  0  0  0  0  0  0  0  0  0  0
   43.6130    3.9322   11.5134 C   0  0  0  0  0  0  0  0  0  0  0  0
   44.0510    6.4782   13.6468 H   0  0  0  0  0  0  0  0  0  0  0  0
   45.0178    5.0839   13.2283 H   0  0  0  0  0  0  0  0  0  0  0  0
   45.5406    5.7039   10.3421 H   0  0  0  0  0  0  0  0  0  0  0  0
   44.1561    5.1945    9.6509 H   0  0  0  0  0  0  0  0  0  0  0  0
   43.6717    6.9209   11.1506 H   0  0  0  0  0  0  0  0  0  0  0  0
   47.3337    5.3591   12.5783 H   0  0  0  0  0  0  0  0  0  0  0  0
   44.7668    8.8141   12.8658 H   0  0  0  0  0  0  0  0  0  0  0  0
   42.7769    4.1726   12.1844 H   0  0  0  0  0  0  0  0  0  0  0  0
   41.9817    5.7188   12.5244 H   0  0  0  0  0  0  0  0  0  0  0  0
   42.0151    5.0914   10.8729 H   0  0  0  0  0  0  0  0  0  0  0  0
   49.2948    6.8459   12.3596 H   0  0  0  0  0  0  0  0  0  0  0  0
   46.7370   10.2860   12.6423 H   0  0  0  0  0  0  0  0  0  0  0  0
   49.0031    9.3096   12.3892 H   0  0  0  0  0  0  0  0  0  0  0  0
   45.6097    8.2604   11.5084 H   0  0  0  0  0  0  0  0  0  0  0  0
   44.8706    8.0057   13.0670 H   0  0  0  0  0  0  0  0  0  0  0  0
   48.0799    7.9579   11.4136 H   0  0  0  0  0  0  0  0  0  0  0  0
   48.8571    6.9258   12.4082 H   0  0  0  0  0  0  0  0  0  0  0  0
   46.8805    6.3811   13.5874 H   0  0  0  0  0  0  0  0  0  0  0  0
   43.5986    6.0366   13.5673 H   0  0  0  0  0  0  0  0  0  0  0  0
   45.9848    6.1990    9.9789 H   0  0  0  0  0  0  0  0  0  0  0  0
   47.3611    9.3997   13.2988 H   0  0  0  0  0  0  0  0  0  0  0  0
   48.2891    8.2949   14.3304 H   0  0  0  0  0  0  0  0  0  0  0  0
   46.5818    8.5938   14.6710 H   0  0  0  0  0  0  0  0  0  0  0  0
   44.8819    4.1454    9.1634 H   0  0  0  0  0  0  0  0  0  0  0  0
   42.5091    3.9829   12.7406 H   0  0  0  0  0  0  0  0  0  0  0  0
   43.1421    3.0318   10.5387 H   0  0  0  0  0  0  0  0  0  0  0  0
   44.8083    8.5050   12.1284 H   0  0  0  0  0  0  0  0  0  0  0  0
   45.3490    7.8611   13.6622 H   0  0  0  0  0  0  0  0  0  0  0  0
   46.7916    9.8611   11.7831 H   0  0  0  0  0  0  0  0  0  0  0  0
   48.3089    9.3056   12.0030 H   0  0  0  0  0  0  0  0  0  0  0  0
   46.9514    7.6322   11.0371 H   0  0  0  0  0  0  0  0  0  0  0  0
   44.5569    6.8761   10.1081 H   0  0  0  0  0  0  0  0  0  0  0  0
   44.8462    5.5814   14.2142 H   0  0  0  0  0  0  0  0  0  0  0  0
   48.8548    7.0246   12.5384 H   0  0  0  0  0  0  0  0  0  0  0  0
   47.7676    7.0350   13.9378 H   0  0  0  0  0  0  0  0  0  0  0  0
   47.5569    5.8387   12.6469 H   0  0  0  0  0  0  0  0  0  0  0  0
   43.5328    4.7113    9.5078 H   0  0  0  0  0  0  0  0  0  0  0  0
   43.8183    3.4242   13.5960 H   0  0  0  0  0  0  0  0  0  0  0  0
   43.1608    2.9811   11.2457 H   0  0  0  0  0  0  0  0  0  0  0  0
  4  2  1  0
  3  1  1  0
  4  1  1  0
  5  3  2  0
  6  3  1  0
  4  7  1  0
  8  5  1  0
  9  6  2  0
 10  8  2  0
  9 10  1  0
 12 14  1  0
 13 11  1  0
 14 11  1  0
 15 13  2  0
 16 13  1  0
 17 14  1  0
 18 16  2  0
 19 15  1  0
 20 18  1  0
 19 20  2  0
 24 22  1  0
 23 21  1  0
 24 21  1  0
 25 23  2  0
 26 23  1  0
 24 27  1  0
 28 25  1  0
 29 26  2  0
 30 28  2  0
 29 30  1  0
  1 31  1  0
  1 32  1  0
  2 33  1  0
  2 34  1  0
  4 35  1  6
  5 36  1  0
  6 37  1  0
  7 38  1  0
  7 39  1  0
  7 40  1  0
  8 41  1  0
  9 42  1  0
 10 43  1  0
 11 44  1  0
 11 45  1  0
 12 46  1  0
 12 47  1  0
 14 48  1  1
 15 49  1  0
 16 50  1  0
 17 51  1  0
 17 52  1  0
 17 53  1  0
 18 54  1  0
 19 55  1  0
 20 56  1  0
 21 57  1  0
 21 58  1  0
 22 59  1  0
 22 60  1  0
 24 61  1  1
 25 62  1  0
 26 63  1  0
 27 64  1  0
 27 65  1  0
 27 66  1  0
 28 67  1  0
 29 68  1  0
 30 69  1  0
M  END
> <Uni-Dock RESULT> 
ENERGY=   -8.047  LOWER_BOUND=    2.498  UPPER_BOUND=    4.284
INTER + INTRA:          -8.047
INTER:                  -8.047
INTRA:                   0.000
UNBOUND:                 0.000

$$$$

     RDKit          3D

 69 69  0  0  0  0  0  0  0  0999 V2000
   45.6836    5.6630   11.2875 C   0  0  0  0  0  0  0  0  0  0  0  0
   43.7505    5.1015   12.7585 N   0  0  0  0  0  0  0  0  0  0  0  0
   46.2311    6.8289   12.0804 C   0  0  0  0  0  0  0  0  0  0  0  0
   44.9939    4.5954   12.1632 C   0  0  1  0  0  0  0  0  0  0  0  0
   45.5269    8.0390   12.1420 C   0  0  0  0  0  0  0  0  0  0  0  0
   47.4409    6.7101   12.7780 C   0  0  0  0  0  0  0  0  0  0  0  0
   44.6639    3.3567   11.3318 C   0  0  0  0  0  0  0  0  0  0  0  0
   46.0245    9.1102   12.8853 C   0  0  0  0  0  0  0  0  0  0  0  0
   47.9371    7.7828   13.5205 C   0  0  0  0  0  0  0  0  0  0  0  0
   47.2292    8.9821   13.5739 C   0  0  0  0  0  0  0  0  0  0  0  0
   46.5426    6.3860   12.6502 C   0  0  0  0  0  0  0  0  0  0  0  0
   45.6557    8.6612   13.1645 N   0  0  0  0  0  0  0  0  0  0  0  0
   45.3067    5.5947   12.2857 C   0  0  0  0  0  0  0  0  0  0  0  0
   46.4733    7.8715   12.2329 C   0  0  1  0  0  0  0  0  0  0  0  0
   45.2875    4.7980   11.1322 C   0  0  0  0  0  0  0  0  0  0  0  0
   44.1589    5.6533   13.0867 C   0  0  0  0  0  0  0  0  0  0  0  0
   47.8780    8.4756   12.1797 C   0  0  0  0  0  0  0  0  0  0  0  0
   43.0181    4.9245   12.7465 C   0  0  0  0  0  0  0  0  0  0  0  0
   44.1462    4.0687   10.7935 C   0  0  0  0  0  0  0  0  0  0  0  0
   43.0124    4.1311   11.6012 C   0  0  0  0  0  0  0  0  0  0  0  0
   46.8309    6.3280   12.5151 C   0  0  0  0  0  0  0  0  0  0  0  0
   47.7300    8.1923   13.8511 N   0  0  0  0  0  0  0  0  0  0  0  0
   45.6057    5.5984   12.0137 C   0  0  0  0  0  0  0  0  0  0  0  0
   46.5100    7.6568   13.2304 C   0  0  1  0  0  0  0  0  0  0  0  0
   44.7569    4.9337   12.9098 C   0  0  0  0  0  0  0  0  0  0  0  0
   45.2974    5.5809   10.6467 C   0  0  0  0  0  0  0  0  0  0  0  0
   45.9525    8.7112   12.2733 C   0  0  0  0  0  0  0  0  0  0  0  0
   43.6213    4.2671   12.4469 C   0  0  0  0  0  0  0  0  0  0  0  0
   44.1611    4.9141   10.1860 C   0  0  0  0  0  0  0  0  0  0  0  0
   43.3234    4.2580   11.0857 C   0  0  0  0  0  0  0  0  0  0  0  0
   46.5173    5.2075   10.7361 H   0  0  0  0  0  0  0  0  0  0  0  0
   44.9908    6.0295   10.5180 H   0  0  0  0  0  0  0  0  0  0  0  0
   43.9709    5.9156   13.3350 H   0  0  0  0  0  0  0  0  0  0  0  0
   43.3697    4.4027   13.3952 H   0  0  0  0  0  0  0  0  0  0  0  0
   45.6669    4.2963   12.9761 H   0  0  0  0  0  0  0  0  0  0  0  0
   44.5828    8.1503   11.6125 H   0  0  0  0  0  0  0  0  0  0  0  0
   48.0052    5.7810   12.7451 H   0  0  0  0  0  0  0  0  0  0  0  0
   43.9822    3.5955   10.5076 H   0  0  0  0  0  0  0  0  0  0  0  0
   45.5748    2.9266   10.9014 H   0  0  0  0  0  0  0  0  0  0  0  0
   44.1930    2.5822   11.9475 H   0  0  0  0  0  0  0  0  0  0  0  0
   45.4714   10.0448   12.9261 H   0  0  0  0  0  0  0  0  0  0  0  0
   48.8774    7.6831   14.0565 H   0  0  0  0  0  0  0  0  0  0  0  0
   47.6167    9.8172   14.1514 H   0  0  0  0  0  0  0  0  0  0  0  0
   46.7284    6.2924   13.7289 H   0  0  0  0  0  0  0  0  0  0  0  0
   47.4080    5.9101   12.1694 H   0  0  0  0  0  0  0  0  0  0  0  0
   46.0935    8.6742   14.0845 H   0  0  0  0  0  0  0  0  0  0  0  0
   45.6224    9.6303   12.8505 H   0  0  0  0  0  0  0  0  0  0  0  0
   46.0270    7.9516   11.2342 H   0  0  0  0  0  0  0  0  0  0  0  0
   46.1622    4.7397   10.4890 H   0  0  0  0  0  0  0  0  0  0  0  0
   44.1462    6.2788   13.9766 H   0  0  0  0  0  0  0  0  0  0  0  0
   48.3776    8.4184   13.1534 H   0  0  0  0  0  0  0  0  0  0  0  0
   47.8436    9.5282   11.8770 H   0  0  0  0  0  0  0  0  0  0  0  0
   48.4994    7.9445   11.4504 H   0  0  0  0  0  0  0  0  0  0  0  0
   42.1330    4.9816   13.3742 H   0  0  0  0  0  0  0  0  0  0  0  0
   44.1414    3.4531    9.8981 H   0  0  0  0  0  0  0  0  0  0  0  0
   42.1233    3.5654   11.3363 H   0  0  0  0  0  0  0  0  0  0  0  0
   47.3602    5.6526   13.2016 H   0  0  0  0  0  0  0  0  0  0  0  0
   47.5259    6.5049   11.6832 H   0  0  0  0  0  0  0  0  0  0  0  0
   48.0699    7.5382   14.5552 H   0  0  0  0  0  0  0  0  0  0  0  0
   47.5084    9.0550   14.3473 H   0  0  0  0  0  0  0  0  0  0  0  0
   45.7750    7.4840   14.0256 H   0  0  0  0  0  0  0  0  0  0  0  0
   44.9776    4.9287   13.9747 H   0  0  0  0  0  0  0  0  0  0  0  0
   45.9403    6.0898    9.9317 H   0  0  0  0  0  0  0  0  0  0  0  0
   45.7732    9.6588   12.7942 H   0  0  0  0  0  0  0  0  0  0  0  0
   46.6429    8.9074   11.4453 H   0  0  0  0  0  0  0  0  0  0  0  0
   44.9953    8.3929   11.8483 H   0  0  0  0  0  0  0  0  0  0  0  0
   42.9696    3.7534   13.1487 H   0  0  0  0  0  0  0  0  0  0  0  0
   43.9300    4.9069    9.1240 H   0  0  0  0  0  0  0  0  0  0  0  0
   42.4395    3.7385   10.7257 H   0  0  0  0  0  0  0  0  0  0  0  0
  4  2  1  0
  3  1  1  0
  4  1  1  0
  5  3  2  0
  6  3  1  0
  4  7  1  0
  8  5  1  0
  9  6  2  0
 10  8  2  0
  9 10  1  0
 12 14  1  0
 13 11  1  0
 14 11  1  0
 15 13  2  0
 16 13  1  0
 17 14  1  0
 18 16  2  0
 19 15  1  0
 20 18  1  0
 19 20  2  0
 24 22  1  0
 23 21  1  0
 24 21  1  0
 25 23  2  0
 26 23  1  0
 24 27  1  0
 28 25  1  0
 29 26  2  0
 30 28  2  0
 29 30  1  0
  1 31  1  0
  1 32  1  0
  2 33  1  0
  2 34  1  0
  4 35  1  6
  5 36  1  0
  6 37  1  0
  7 38  1  0
  7 39  1  0
  7 40  1  0
  8 41  1  0
  9 42  1  0
 10 43  1  0
 11 44  1  0
 11 45  1  0
 12 46  1  0
 12 47  1  0
 14 48  1  1
 15 49  1  0
 16 50  1  0
 17 51  1  0
 17 52  1  0
 17 53  1  0
 18 54  1  0
 19 55  1  0
 20 56  1  0
 21 57  1  0
 21 58  1  0
 22 59  1  0
 22 60  1  0
 24 61  1  1
 25 62  1  0
 26 63  1  0
 27 64  1  0
 27 65  1  0
 27 66  1  0
 28 67  1  0
 29 68  1  0
 30 69  1  0
M  END
> <Uni-Dock RESULT> 
ENERGY=   -7.836  LOWER_BOUND=    2.427  UPPER_BOUND=    4.423
INTER + INTRA:          -7.836
INTER:                  -7.836
INTRA:                   0.000
UNBOUND:                 0.000

$$$$

     RDKit          3D

 69 69  0  0  0  0  0  0  0  0999 V2000
   45.2036    7.6525   12.4922 C   0  0  0  0  0  0  0  0  0  0  0  0
   47.6257    7.1189   12.2369 N   0  0  0  0  0  0  0  0  0  0  0  0
   44.6385    6.3171   12.0622 C   0  0  0  0  0  0  0  0  0  0  0  0
   46.5818    7.5431   13.1787 C   0  0  1  0  0  0  0  0  0  0  0  0
   44.7259    5.9063   10.7252 C   0  0  0  0  0  0  0  0  0  0  0  0
   44.0349    5.4650   12.9971 C   0  0  0  0  0  0  0  0  0  0  0  0
   46.9870    8.8891   13.7772 C   0  0  0  0  0  0  0  0  0  0  0  0
   44.2175    4.6680   10.3307 C   0  0  0  0  0  0  0  0  0  0  0  0
   43.5266    4.2271   12.6005 C   0  0  0  0  0  0  0  0  0  0  0  0
   43.6179    3.8290   11.2680 C   0  0  0  0  0  0  0  0  0  0  0  0
   44.8265    5.9438   12.7279 C   0  0  0  0  0  0  0  0  0  0  0  0
   44.8202    4.7184   10.5539 N   0  0  0  0  0  0  0  0  0  0  0  0
   45.9746    6.9176   12.5858 C   0  0  0  0  0  0  0  0  0  0  0  0
   44.0828    5.6643   11.4033 C   0  0  1  0  0  0  0  0  0  0  0  0
   45.8071    8.2678   12.9240 C   0  0  0  0  0  0  0  0  0  0  0  0
   47.2186    6.4900   12.1042 C   0  0  0  0  0  0  0  0  0  0  0  0
   42.6925    5.0907   11.6841 C   0  0  0  0  0  0  0  0  0  0  0  0
   48.2760    7.3913   11.9707 C   0  0  0  0  0  0  0  0  0  0  0  0
   46.8658    9.1683   12.7912 C   0  0  0  0  0  0  0  0  0  0  0  0
   48.1001    8.7297   12.3159 C   0  0  0  0  0  0  0  0  0  0  0  0
   44.5612    6.0134   12.8997 C   0  0  0  0  0  0  0  0  0  0  0  0
   43.6688    3.8134   12.2420 N   0  0  0  0  0  0  0  0  0  0  0  0
   45.6146    7.0751   12.6806 C   0  0  0  0  0  0  0  0  0  0  0  0
   44.5849    4.8909   11.8415 C   0  0  1  0  0  0  0  0  0  0  0  0
   46.9618    6.8101   12.9634 C   0  0  0  0  0  0  0  0  0  0  0  0
   45.2604    8.3376   12.1858 C   0  0  0  0  0  0  0  0  0  0  0  0
   44.1681    5.3893   10.4573 C   0  0  0  0  0  0  0  0  0  0  0  0
   47.9348    7.7883   12.7529 C   0  0  0  0  0  0  0  0  0  0  0  0
   46.2351    9.3143   11.9757 C   0  0  0  0  0  0  0  0  0  0  0  0
   47.5716    9.0396   12.2588 C   0  0  0  0  0  0  0  0  0  0  0  0
   44.4842    8.1193   13.1785 H   0  0  0  0  0  0  0  0  0  0  0  0
   45.2619    8.3273   11.6275 H   0  0  0  0  0  0  0  0  0  0  0  0
   47.3699    6.2074   11.8530 H   0  0  0  0  0  0  0  0  0  0  0  0
   48.4997    6.9748   12.7409 H   0  0  0  0  0  0  0  0  0  0  0  0
   46.5308    6.8061   13.9895 H   0  0  0  0  0  0  0  0  0  0  0  0
   45.1959    6.5502    9.9845 H   0  0  0  0  0  0  0  0  0  0  0  0
   43.9553    5.7620   14.0403 H   0  0  0  0  0  0  0  0  0  0  0  0
   47.0648    9.6647   13.0068 H   0  0  0  0  0  0  0  0  0  0  0  0
   46.2494    9.2212   14.5158 H   0  0  0  0  0  0  0  0  0  0  0  0
   47.9547    8.8192   14.2865 H   0  0  0  0  0  0  0  0  0  0  0  0
   44.2894    4.3588    9.2913 H   0  0  0  0  0  0  0  0  0  0  0  0
   43.0578    3.5734   13.3315 H   0  0  0  0  0  0  0  0  0  0  0  0
   43.2209    2.8654   10.9598 H   0  0  0  0  0  0  0  0  0  0  0  0
   45.1960    5.0094   13.1720 H   0  0  0  0  0  0  0  0  0  0  0  0
   44.1215    6.3509   13.4653 H   0  0  0  0  0  0  0  0  0  0  0  0
   44.8748    3.8104   11.0129 H   0  0  0  0  0  0  0  0  0  0  0  0
   44.3070    4.5690    9.6861 H   0  0  0  0  0  0  0  0  0  0  0  0
   43.9615    6.6011   10.8459 H   0  0  0  0  0  0  0  0  0  0  0  0
   44.8501    8.6280   13.2939 H   0  0  0  0  0  0  0  0  0  0  0  0
   47.3652    5.4504   11.8193 H   0  0  0  0  0  0  0  0  0  0  0  0
   42.7508    4.1519   12.2465 H   0  0  0  0  0  0  0  0  0  0  0  0
   42.1507    4.8950   10.7519 H   0  0  0  0  0  0  0  0  0  0  0  0
   42.0941    5.7974   12.2694 H   0  0  0  0  0  0  0  0  0  0  0  0
   49.2348    7.0478   11.5923 H   0  0  0  0  0  0  0  0  0  0  0  0
   46.7266   10.2126   13.0571 H   0  0  0  0  0  0  0  0  0  0  0  0
   48.9233    9.4309   12.2101 H   0  0  0  0  0  0  0  0  0  0  0  0
   44.7239    5.5876   13.8996 H   0  0  0  0  0  0  0  0  0  0  0  0
   43.5663    6.4773   12.9363 H   0  0  0  0  0  0  0  0  0  0  0  0
   43.9812    3.4106   13.1248 H   0  0  0  0  0  0  0  0  0  0  0  0
   43.7088    3.0605   11.5555 H   0  0  0  0  0  0  0  0  0  0  0  0
   45.5936    4.4668   11.7704 H   0  0  0  0  0  0  0  0  0  0  0  0
   47.2608    5.8397   13.3528 H   0  0  0  0  0  0  0  0  0  0  0  0
   44.2217    8.5672   11.9583 H   0  0  0  0  0  0  0  0  0  0  0  0
   44.1503    4.5671    9.7326 H   0  0  0  0  0  0  0  0  0  0  0  0
   43.1705    5.8425   10.4769 H   0  0  0  0  0  0  0  0  0  0  0  0
   44.8722    6.1364   10.0773 H   0  0  0  0  0  0  0  0  0  0  0  0
   48.9768    7.5745   12.9762 H   0  0  0  0  0  0  0  0  0  0  0  0
   45.9507   10.2901   11.5910 H   0  0  0  0  0  0  0  0  0  0  0  0
   48.3294    9.8010   12.0956 H   0  0  0  0  0  0  0  0  0  0  0  0
  4  2  1  0
  3  1  1  0
  4  1  1  0
  5  3  2  0
  6  3  1  0
  4  7  1  0
  8  5  1  0
  9  6  2  0
 10  8  2  0
  9 10  1  0
 12 14  1  0
 13 11  1  0
 14 11  1  0
 15 13  2  0
 16 13  1  0
 17 14  1  0
 18 16  2  0
 19 15  1  0
 20 18  1  0
 19 20  2  0
 24 22  1  0
 23 21  1  0
 24 21  1  0
 25 23  2  0
 26 23  1  0
 24 27  1  0
 28 25  1  0
 29 26  2  0
 30 28  2  0
 29 30  1  0
  1 31  1  0
  1 32  1  0
  2 33  1  0
  2 34  1  0
  4 35  1  6
  5 36  1  0
  6 37  1  0
  7 38  1  0
  7 39  1  0
  7 40  1  0
  8 41  1  0
  9 42  1  0
 10 43  1  0
 11 44  1  0
 11 45  1  0
 12 46  1  0
 12 47  1  0
 14 48  1  1
 15 49  1  0
 16 50  1  0
 17 51  1  0
 17 52  1  0
 17 53  1  0
 18 54  1  0
 19 55  1  0
 20 56  1  0
 21 57  1  0
 21 58  1  0
 22 59  1  0
 22 60  1  0
 24 61  1  1
 25 62  1  0
 26 63  1  0
 27 64  1  0
 27 65  1  0
 27 66  1  0
 28 67  1  0
 29 68  1  0
 30 69  1  0
M  END
> <Uni-Dock RESULT> 
ENERGY=   -7.466  LOWER_BOUND=    2.693  UPPER_BOUND=    5.016
INTER + INTRA:          -7.466
INTER:                  -7.466
INTRA:                   0.000
UNBOUND:                 0.000

$$$$

     RDKit          3D

 69 69  0  0  0  0  0  0  0  0999 V2000
   48.2635    6.5730   19.7442 C   0  0  0  0  0  0  0  0  0  0  0  0
   48.1297    5.4326   21.9573 N   0  0  0  0  0  0  0  0  0  0  0  0
   48.2212    5.3452   18.8620 C   0  0  0  0  0  0  0  0  0  0  0  0
   47.4847    6.4056   21.0664 C   0  0  1  0  0  0  0  0  0  0  0  0
   49.3086    4.4620   18.8216 C   0  0  0  0  0  0  0  0  0  0  0  0
   47.0883    5.0647   18.0860 C   0  0  0  0  0  0  0  0  0  0  0  0
   47.3861    7.7425   21.7993 C   0  0  0  0  0  0  0  0  0  0  0  0
   49.2642    3.3214   18.0187 C   0  0  0  0  0  0  0  0  0  0  0  0
   47.0460    3.9236   17.2833 C   0  0  0  0  0  0  0  0  0  0  0  0
   48.1335    3.0526   17.2498 C   0  0  0  0  0  0  0  0  0  0  0  0
   47.4536    5.2109   18.9655 C   0  0  0  0  0  0  0  0  0  0  0  0
   49.0308    3.3081   18.6195 N   0  0  0  0  0  0  0  0  0  0  0  0
   47.8539    5.7661   20.3138 C   0  0  0  0  0  0  0  0  0  0  0  0
   48.6381    4.6448   18.1515 C   0  0  1  0  0  0  0  0  0  0  0  0
   48.0406    7.1447   20.4877 C   0  0  0  0  0  0  0  0  0  0  0  0
   48.0553    4.9130   21.4064 C   0  0  0  0  0  0  0  0  0  0  0  0
   48.2715    4.5575   16.6686 C   0  0  0  0  0  0  0  0  0  0  0  0
   48.4279    5.4274   22.6494 C   0  0  0  0  0  0  0  0  0  0  0  0
   48.4123    7.6582   21.7317 C   0  0  0  0  0  0  0  0  0  0  0  0
   48.6046    6.7998   22.8123 C   0  0  0  0  0  0  0  0  0  0  0  0
   47.3387    5.3990   18.7284 C   0  0  0  0  0  0  0  0  0  0  0  0
   47.2191    3.3859   17.3135 N   0  0  0  0  0  0  0  0  0  0  0  0
   47.8493    6.0270   20.0050 C   0  0  0  0  0  0  0  0  0  0  0  0
   47.9140    3.9933   18.4574 C   0  0  1  0  0  0  0  0  0  0  0  0
   47.3916    5.5779   21.2516 C   0  0  0  0  0  0  0  0  0  0  0  0
   48.7920    7.0630   19.9610 C   0  0  0  0  0  0  0  0  0  0  0  0
   49.4114    4.0286   18.1494 C   0  0  0  0  0  0  0  0  0  0  0  0
   47.8698    6.1528   22.4302 C   0  0  0  0  0  0  0  0  0  0  0  0
   49.2692    7.6363   21.1407 C   0  0  0  0  0  0  0  0  0  0  0  0
   48.8086    7.1811   22.3746 C   0  0  0  0  0  0  0  0  0  0  0  0
   47.8475    7.4143   19.1735 H   0  0  0  0  0  0  0  0  0  0  0  0
   49.3070    6.8474   19.9495 H   0  0  0  0  0  0  0  0  0  0  0  0
   48.1754    4.5308   21.4794 H   0  0  0  0  0  0  0  0  0  0  0  0
   47.5451    5.2845   22.7788 H   0  0  0  0  0  0  0  0  0  0  0  0
   46.4682    6.0536   20.8519 H   0  0  0  0  0  0  0  0  0  0  0  0
   50.1954    4.6582   19.4208 H   0  0  0  0  0  0  0  0  0  0  0  0
   46.2323    5.7353   18.1008 H   0  0  0  0  0  0  0  0  0  0  0  0
   48.3770    8.1378   22.0499 H   0  0  0  0  0  0  0  0  0  0  0  0
   46.8741    8.4861   21.1790 H   0  0  0  0  0  0  0  0  0  0  0  0
   46.8164    7.6413   22.7298 H   0  0  0  0  0  0  0  0  0  0  0  0
   50.1129    2.6430   17.9936 H   0  0  0  0  0  0  0  0  0  0  0  0
   46.1646    3.7147   16.6827 H   0  0  0  0  0  0  0  0  0  0  0  0
   48.1003    2.1649   16.6238 H   0  0  0  0  0  0  0  0  0  0  0  0
   46.6756    4.4478   19.1036 H   0  0  0  0  0  0  0  0  0  0  0  0
   46.9675    6.0140   18.3951 H   0  0  0  0  0  0  0  0  0  0  0  0
   48.2715    2.6479   18.4591 H   0  0  0  0  0  0  0  0  0  0  0  0
   49.8209    2.9737   18.0693 H   0  0  0  0  0  0  0  0  0  0  0  0
   49.5040    5.3103   18.2525 H   0  0  0  0  0  0  0  0  0  0  0  0
   47.8976    7.8289   19.6548 H   0  0  0  0  0  0  0  0  0  0  0  0
   47.9330    3.8384   21.2892 H   0  0  0  0  0  0  0  0  0  0  0  0
   47.4048    3.9067   16.5062 H   0  0  0  0  0  0  0  0  0  0  0  0
   49.1067    4.1642   16.0783 H   0  0  0  0  0  0  0  0  0  0  0  0
   48.0274    5.5490   16.2721 H   0  0  0  0  0  0  0  0  0  0  0  0
   48.5849    4.7545   23.4880 H   0  0  0  0  0  0  0  0  0  0  0  0
   48.5534    8.7283   21.8568 H   0  0  0  0  0  0  0  0  0  0  0  0
   48.8962    7.1991   23.7798 H   0  0  0  0  0  0  0  0  0  0  0  0
   46.2434    5.3467   18.8007 H   0  0  0  0  0  0  0  0  0  0  0  0
   47.5456    6.0624   17.8779 H   0  0  0  0  0  0  0  0  0  0  0  0
   46.2299    3.2762   17.5342 H   0  0  0  0  0  0  0  0  0  0  0  0
   47.5815    2.4461   17.1555 H   0  0  0  0  0  0  0  0  0  0  0  0
   47.7524    3.3498   19.3305 H   0  0  0  0  0  0  0  0  0  0  0  0
   46.6565    4.7787   21.3117 H   0  0  0  0  0  0  0  0  0  0  0  0
   49.1628    7.4285   19.0058 H   0  0  0  0  0  0  0  0  0  0  0  0
   49.7884    3.0257   17.9178 H   0  0  0  0  0  0  0  0  0  0  0  0
   49.6304    4.6767   17.2934 H   0  0  0  0  0  0  0  0  0  0  0  0
   49.9831    4.3958   19.0076 H   0  0  0  0  0  0  0  0  0  0  0  0
   47.5084    5.7992   23.3922 H   0  0  0  0  0  0  0  0  0  0  0  0
   50.0009    8.4387   21.0963 H   0  0  0  0  0  0  0  0  0  0  0  0
   49.1803    7.6287   23.2924 H   0  0  0  0  0  0  0  0  0  0  0  0
  4  2  1  0
  3  1  1  0
  4  1  1  0
  5  3  2  0
  6  3  1  0
  4  7  1  0
  8  5  1  0
  9  6  2  0
 10  8  2  0
  9 10  1  0
 12 14  1  0
 13 11  1  0
 14 11  1  0
 15 13  2  0
 16 13  1  0
 17 14  1  0
 18 16  2  0
 19 15  1  0
 20 18  1  0
 19 20  2  0
 24 22  1  0
 23 21  1  0
 24 21  1  0
 25 23  2  0
 26 23  1  0
 24 27  1  0
 28 25  1  0
 29 26  2  0
 30 28  2  0
 29 30  1  0
  1 31  1  0
  1 32  1  0
  2 33  1  0
  2 34  1  0
  4 35  1  6
  5 36  1  0
  6 37  1  0
  7 38  1  0
  7 39  1  0
  7 40  1  0
  8 41  1  0
  9 42  1  0
 10 43  1  0
 11 44  1  0
 11 45  1  0
 12 46  1  0
 12 47  1  0
 14 48  1  1
 15 49  1  0
 16 50  1  0
 17 51  1  0
 17 52  1  0
 17 53  1  0
 18 54  1  0
 19 55  1  0
 20 56  1  0
 21 57  1  0
 21 58  1  0
 22 59  1  0
 22 60  1  0
 24 61  1  1
 25 62  1  0
 26 63  1  0
 27 64  1  0
 27 65  1  0
 27 66  1  0
 28 67  1  0
 29 68  1  0
 30 69  1  0
M  END
> <Uni-Dock RESULT> 
ENERGY=   -6.247  LOWER_BOUND=    7.892  UPPER_BOUND=   11.243
INTER + INTRA:          -6.247
INTER:                  -6.247
INTRA:                   0.000
UNBOUND:                 0.000

$$$$

     RDKit          3D

 69 69  0  0  0  0  0  0  0  0999 V2000
   47.5162    4.9417   18.5093 C   0  0  0  0  0  0  0  0  0  0  0  0
   49.5669    3.6684   17.8851 N   0  0  0  0  0  0  0  0  0  0  0  0
   48.0201    5.5500   19.7992 C   0  0  0  0  0  0  0  0  0  0  0  0
   48.6278    4.7153   17.4625 C   0  0  1  0  0  0  0  0  0  0  0  0
   48.2400    4.7455   20.9254 C   0  0  0  0  0  0  0  0  0  0  0  0
   48.2900    6.9229   19.8812 C   0  0  0  0  0  0  0  0  0  0  0  0
   48.0208    4.3087   16.1207 C   0  0  0  0  0  0  0  0  0  0  0  0
   48.7186    5.3040   22.1114 C   0  0  0  0  0  0  0  0  0  0  0  0
   48.7682    7.4797   21.0684 C   0  0  0  0  0  0  0  0  0  0  0  0
   48.9823    6.6705   22.1828 C   0  0  0  0  0  0  0  0  0  0  0  0
   48.4810    6.0826   19.4502 C   0  0  0  0  0  0  0  0  0  0  0  0
   49.1278    5.1067   21.6540 N   0  0  0  0  0  0  0  0  0  0  0  0
   48.5850    4.9132   18.4972 C   0  0  0  0  0  0  0  0  0  0  0  0
   48.0262    5.6854   20.8719 C   0  0  1  0  0  0  0  0  0  0  0  0
   47.5477    4.6370   17.5953 C   0  0  0  0  0  0  0  0  0  0  0  0
   49.7122    4.0815   18.5073 C   0  0  0  0  0  0  0  0  0  0  0  0
   47.4834    6.9061   21.6177 C   0  0  0  0  0  0  0  0  0  0  0  0
   49.8047    3.0007   17.6289 C   0  0  0  0  0  0  0  0  0  0  0  0
   47.6418    3.5562   16.7164 C   0  0  0  0  0  0  0  0  0  0  0  0
   48.7706    2.7392   16.7325 C   0  0  0  0  0  0  0  0  0  0  0  0
   48.2626    6.3183   19.4112 C   0  0  0  0  0  0  0  0  0  0  0  0
   49.1247    7.3348   21.4830 N   0  0  0  0  0  0  0  0  0  0  0  0
   48.2306    5.1073   18.5071 C   0  0  0  0  0  0  0  0  0  0  0  0
   48.9675    6.0648   20.7600 C   0  0  1  0  0  0  0  0  0  0  0  0
   49.3905    4.6837   17.8436 C   0  0  0  0  0  0  0  0  0  0  0  0
   47.0424    4.3871   18.3239 C   0  0  0  0  0  0  0  0  0  0  0  0
   48.1872    5.0963   21.6496 C   0  0  0  0  0  0  0  0  0  0  0  0
   49.3620    3.5606   17.0154 C   0  0  0  0  0  0  0  0  0  0  0  0
   47.0161    3.2640   17.4956 C   0  0  0  0  0  0  0  0  0  0  0  0
   48.1754    2.8509   16.8421 C   0  0  0  0  0  0  0  0  0  0  0  0
   46.7495    5.6110   18.0963 H   0  0  0  0  0  0  0  0  0  0  0  0
   46.9958    3.9980   18.7218 H   0  0  0  0  0  0  0  0  0  0  0  0
   49.9931    3.9484   18.7704 H   0  0  0  0  0  0  0  0  0  0  0  0
   50.3313    3.6066   17.2139 H   0  0  0  0  0  0  0  0  0  0  0  0
   49.1919    5.6449   17.3187 H   0  0  0  0  0  0  0  0  0  0  0  0
   48.0424    3.6763   20.8812 H   0  0  0  0  0  0  0  0  0  0  0  0
   48.1270    7.5673   19.0205 H   0  0  0  0  0  0  0  0  0  0  0  0
   47.4522    3.3754   16.2027 H   0  0  0  0  0  0  0  0  0  0  0  0
   47.3415    5.0854   15.7529 H   0  0  0  0  0  0  0  0  0  0  0  0
   48.7990    4.1659   15.3626 H   0  0  0  0  0  0  0  0  0  0  0  0
   48.8851    4.6719   22.9796 H   0  0  0  0  0  0  0  0  0  0  0  0
   48.9726    8.5457   21.1243 H   0  0  0  0  0  0  0  0  0  0  0  0
   49.3536    7.1050   23.1071 H   0  0  0  0  0  0  0  0  0  0  0  0
   49.4433    6.6114   19.4823 H   0  0  0  0  0  0  0  0  0  0  0  0
   47.7715    6.8068   19.0273 H   0  0  0  0  0  0  0  0  0  0  0  0
   49.8521    5.8074   21.8037 H   0  0  0  0  0  0  0  0  0  0  0  0
   48.7878    4.8455   22.5787 H   0  0  0  0  0  0  0  0  0  0  0  0
   47.2252    4.9392   20.8058 H   0  0  0  0  0  0  0  0  0  0  0  0
   46.6585    5.2623   17.5709 H   0  0  0  0  0  0  0  0  0  0  0  0
   50.5208    4.2673   19.2109 H   0  0  0  0  0  0  0  0  0  0  0  0
   48.2423    7.6914   21.7098 H   0  0  0  0  0  0  0  0  0  0  0  0
   47.1498    6.6362   22.6260 H   0  0  0  0  0  0  0  0  0  0  0  0
   46.6223    7.3299   21.0895 H   0  0  0  0  0  0  0  0  0  0  0  0
   50.6826    2.3609   17.6495 H   0  0  0  0  0  0  0  0  0  0  0  0
   46.8332    3.3509   16.0203 H   0  0  0  0  0  0  0  0  0  0  0  0
   48.8427    1.8967   16.0503 H   0  0  0  0  0  0  0  0  0  0  0  0
   48.7756    7.1236   18.8672 H   0  0  0  0  0  0  0  0  0  0  0  0
   47.2408    6.6834   19.5815 H   0  0  0  0  0  0  0  0  0  0  0  0
   49.7149    7.9651   20.9411 H   0  0  0  0  0  0  0  0  0  0  0  0
   49.6167    7.1679   22.3603 H   0  0  0  0  0  0  0  0  0  0  0  0
   49.9675    5.6500   20.5858 H   0  0  0  0  0  0  0  0  0  0  0  0
   50.3235    5.2290   17.9658 H   0  0  0  0  0  0  0  0  0  0  0  0
   46.1293    4.6957   18.8283 H   0  0  0  0  0  0  0  0  0  0  0  0
   48.6839    4.9654   22.6179 H   0  0  0  0  0  0  0  0  0  0  0  0
   47.1695    5.4557   21.8390 H   0  0  0  0  0  0  0  0  0  0  0  0
   48.1166    4.1057   21.1891 H   0  0  0  0  0  0  0  0  0  0  0  0
   50.2659    3.2402   16.5040 H   0  0  0  0  0  0  0  0  0  0  0  0
   46.0900    2.7115   17.3606 H   0  0  0  0  0  0  0  0  0  0  0  0
   48.1536    1.9768   16.1969 H   0  0  0  0  0  0  0  0  0  0  0  0
  4  2  1  0
  3  1  1  0
  4  1  1  0
  5  3  2  0
  6  3  1  0
  4  7  1  0
  8  5  1  0
  9  6  2  0
 10  8  2  0
  9 10  1  0
 12 14  1  0
 13 11  1  0
 14 11  1  0
 15 13  2  0
 16 13  1  0
 17 14  1  0
 18 16  2  0
 19 15  1  0
 20 18  1  0
 19 20  2  0
 24 22  1  0
 23 21  1  0
 24 21  1  0
 25 23  2  0
 26 23  1  0
 24 27  1  0
 28 25  1  0
 29 26  2  0
 30 28  2  0
 29 30  1  0
  1 31  1  0
  1 32  1  0
  2 33  1  0
  2 34  1  0
  4 35  1  6
  5 36  1  0
  6 37  1  0
  7 38  1  0
  7 39  1  0
  7 40  1  0
  8 41  1  0
  9 42  1  0
 10 43  1  0
 11 44  1  0
 11 45  1  0
 12 46  1  0
 12 47  1  0
 14 48  1  1
 15 49  1  0
 16 50  1  0
 17 51  1  0
 17 52  1  0
 17 53  1  0
 18 54  1  0
 19 55  1  0
 20 56  1  0
 21 57  1  0
 21 58  1  0
 22 59  1  0
 22 60  1  0
 24 61  1  1
 25 62  1  0
 26 63  1  0
 27 64  1  0
 27 65  1  0
 27 66  1  0
 28 67  1  0
 29 68  1  0
 30 69  1  0
M  END
> <Uni-Dock RESULT> 
ENERGY=   -6.238  LOWER_BOUND=    7.428  UPPER_BOUND=    9.879
INTER + INTRA:          -6.238
INTER:                  -6.238
INTRA:                   0.000
UNBOUND:                 0.000

$$$$

     RDKit          3D

 69 69  0  0  0  0  0  0  0  0999 V2000
   47.6759    7.5000   11.9192 C   0  0  0  0  0  0  0  0  0  0  0  0
   47.9029    8.6320   14.1290 N   0  0  0  0  0  0  0  0  0  0  0  0
   46.4839    6.6266   12.2418 C   0  0  0  0  0  0  0  0  0  0  0  0
   47.6840    8.8365   12.6913 C   0  0  1  0  0  0  0  0  0  0  0  0
   46.6120    5.5499   13.1296 C   0  0  0  0  0  0  0  0  0  0  0  0
   45.2316    6.8917   11.6709 C   0  0  0  0  0  0  0  0  0  0  0  0
   48.7849    9.7524   12.1590 C   0  0  0  0  0  0  0  0  0  0  0  0
   45.5092    4.7525   13.4387 C   0  0  0  0  0  0  0  0  0  0  0  0
   44.1300    6.0927   11.9809 C   0  0  0  0  0  0  0  0  0  0  0  0
   44.2689    5.0238   12.8644 C   0  0  0  0  0  0  0  0  0  0  0  0
   45.9593    7.2114   12.2155 C   0  0  0  0  0  0  0  0  0  0  0  0
   45.6285    5.2903   13.7736 N   0  0  0  0  0  0  0  0  0  0  0  0
   47.1777    7.9150   12.7694 C   0  0  0  0  0  0  0  0  0  0  0  0
   45.9897    5.6785   12.4029 C   0  0  1  0  0  0  0  0  0  0  0  0
   48.2293    8.2893   11.9210 C   0  0  0  0  0  0  0  0  0  0  0  0
   47.2809    8.1939   14.1383 C   0  0  0  0  0  0  0  0  0  0  0  0
   45.0202    5.0039   11.4303 C   0  0  0  0  0  0  0  0  0  0  0  0
   48.4080    8.8406   14.6479 C   0  0  0  0  0  0  0  0  0  0  0  0
   49.3557    8.9371   12.4317 C   0  0  0  0  0  0  0  0  0  0  0  0
   49.4443    9.2137   13.7946 C   0  0  0  0  0  0  0  0  0  0  0  0
   45.8934    7.2037   11.8987 C   0  0  0  0  0  0  0  0  0  0  0  0
   43.9216    5.8279   12.4352 N   0  0  0  0  0  0  0  0  0  0  0  0
   47.1941    7.8038   12.3811 C   0  0  0  0  0  0  0  0  0  0  0  0
   45.2660    6.2054   12.8938 C   0  0  1  0  0  0  0  0  0  0  0  0
   47.1980    8.7770   13.3901 C   0  0  0  0  0  0  0  0  0  0  0  0
   48.4154    7.3916   11.8309 C   0  0  0  0  0  0  0  0  0  0  0  0
   46.1004    4.9327   13.0427 C   0  0  0  0  0  0  0  0  0  0  0  0
   48.4001    9.3245   13.8407 C   0  0  0  0  0  0  0  0  0  0  0  0
   49.6165    7.9401   12.2832 C   0  0  0  0  0  0  0  0  0  0  0  0
   49.6088    8.9057   13.2879 C   0  0  0  0  0  0  0  0  0  0  0  0
   47.6686    7.6968   10.8386 H   0  0  0  0  0  0  0  0  0  0  0  0
   48.6050    6.9456   12.1085 H   0  0  0  0  0  0  0  0  0  0  0  0
   47.1546    8.0396   14.4934 H   0  0  0  0  0  0  0  0  0  0  0  0
   47.8165    9.5231   14.6159 H   0  0  0  0  0  0  0  0  0  0  0  0
   46.7199    9.3428   12.5595 H   0  0  0  0  0  0  0  0  0  0  0  0
   47.5741    5.3304   13.5884 H   0  0  0  0  0  0  0  0  0  0  0  0
   45.1077    7.7216   10.9791 H   0  0  0  0  0  0  0  0  0  0  0  0
   49.7761    9.2998   12.2761 H   0  0  0  0  0  0  0  0  0  0  0  0
   48.6333    9.9601   11.0943 H   0  0  0  0  0  0  0  0  0  0  0  0
   48.7871   10.7137   12.6850 H   0  0  0  0  0  0  0  0  0  0  0  0
   45.6190    3.9193   14.1278 H   0  0  0  0  0  0  0  0  0  0  0  0
   43.1629    6.3036   11.5319 H   0  0  0  0  0  0  0  0  0  0  0  0
   43.4108    4.4015   13.1044 H   0  0  0  0  0  0  0  0  0  0  0  0
   45.0551    7.6414   12.6674 H   0  0  0  0  0  0  0  0  0  0  0  0
   45.8839    7.4485   11.1455 H   0  0  0  0  0  0  0  0  0  0  0  0
   44.6626    5.5521   13.9648 H   0  0  0  0  0  0  0  0  0  0  0  0
   45.6722    4.2759   13.8625 H   0  0  0  0  0  0  0  0  0  0  0  0
   46.9996    5.3036   12.1964 H   0  0  0  0  0  0  0  0  0  0  0  0
   48.1782    8.0789   10.8554 H   0  0  0  0  0  0  0  0  0  0  0  0
   46.4845    7.8966   14.8171 H   0  0  0  0  0  0  0  0  0  0  0  0
   43.9908    5.3457   11.5867 H   0  0  0  0  0  0  0  0  0  0  0  0
   45.0378    3.9146   11.5477 H   0  0  0  0  0  0  0  0  0  0  0  0
   45.2956    5.2269   10.3937 H   0  0  0  0  0  0  0  0  0  0  0  0
   48.4775    9.0477   15.7123 H   0  0  0  0  0  0  0  0  0  0  0  0
   50.1649    9.2244   11.7659 H   0  0  0  0  0  0  0  0  0  0  0  0
   50.3219    9.7156   14.1924 H   0  0  0  0  0  0  0  0  0  0  0  0
   45.1963    8.0324   11.7115 H   0  0  0  0  0  0  0  0  0  0  0  0
   46.0444    6.7211   10.9237 H   0  0  0  0  0  0  0  0  0  0  0  0
   43.3248    6.6541   12.4109 H   0  0  0  0  0  0  0  0  0  0  0  0
   43.4987    5.1910   13.1098 H   0  0  0  0  0  0  0  0  0  0  0  0
   45.1665    6.6748   13.8798 H   0  0  0  0  0  0  0  0  0  0  0  0
   46.2629    9.1168   13.8293 H   0  0  0  0  0  0  0  0  0  0  0  0
   48.4385    6.6375   11.0472 H   0  0  0  0  0  0  0  0  0  0  0  0
   45.6140    4.2212   13.7199 H   0  0  0  0  0  0  0  0  0  0  0  0
   46.2472    4.4333   12.0784 H   0  0  0  0  0  0  0  0  0  0  0  0
   47.0865    5.1532   13.4637 H   0  0  0  0  0  0  0  0  0  0  0  0
   48.3935   10.0794   14.6226 H   0  0  0  0  0  0  0  0  0  0  0  0
   50.5585    7.6133   11.8509 H   0  0  0  0  0  0  0  0  0  0  0  0
   50.5444    9.3327   13.6387 H   0  0  0  0  0  0  0  0  0  0  0  0
  4  2  1  0
  3  1  1  0
  4  1  1  0
  5  3  2  0
  6  3  1  0
  4  7  1  0
  8  5  1  0
  9  6  2  0
 10  8  2  0
  9 10  1  0
 12 14  1  0
 13 11  1  0
 14 11  1  0
 15 13  2  0
 16 13  1  0
 17 14  1  0
 18 16  2  0
 19 15  1  0
 20 18  1  0
 19 20  2  0
 24 22  1  0
 23 21  1  0
 24 21  1  0
 25 23  2  0
 26 23  1  0
 24 27  1  0
 28 25  1  0
 29 26  2  0
 30 28  2  0
 29 30  1  0
  1 31  1  0
  1 32  1  0
  2 33  1  0
  2 34  1  0
  4 35  1  6
  5 36  1  0
  6 37  1  0
  7 38  1  0
  7 39  1  0
  7 40  1  0
  8 41  1  0
  9 42  1  0
 10 43  1  0
 11 44  1  0
 11 45  1  0
 12 46  1  0
 12 47  1  0
 14 48  1  1
 15 49  1  0
 16 50  1  0
 17 51  1  0
 17 52  1  0
 17 53  1  0
 18 54  1  0
 19 55  1  0
 20 56  1  0
 21 57  1  0
 21 58  1  0
 22 59  1  0
 22 60  1  0
 24 61  1  1
 25 62  1  0
 26 63  1  0
 27 64  1  0
 27 65  1  0
 27 66  1  0
 28 67  1  0
 29 68  1  0
 30 69  1  0
M  END
> <Uni-Dock RESULT> 
ENERGY=   -6.208  LOWER_BOUND=    3.682  UPPER_BOUND=    5.782
INTER + INTRA:          -6.208
INTER:                  -6.208
INTRA:                   0.000
UNBOUND:                 0.000

$$$$

     RDKit          3D

 69 69  0  0  0  0  0  0  0  0999 V2000
   48.8601    3.6616   19.0008 C   0  0  0  0  0  0  0  0  0  0  0  0
   47.8756    5.2033   17.3066 N   0  0  0  0  0  0  0  0  0  0  0  0
   49.3699    4.7016   19.9735 C   0  0  0  0  0  0  0  0  0  0  0  0
   47.5930    4.1037   18.2381 C   0  0  1  0  0  0  0  0  0  0  0  0
   50.4546    5.5211   19.6331 C   0  0  0  0  0  0  0  0  0  0  0  0
   48.7545    4.8717   21.2213 C   0  0  0  0  0  0  0  0  0  0  0  0
   47.0134    2.9337   17.4450 C   0  0  0  0  0  0  0  0  0  0  0  0
   50.9160    6.4905   20.5246 C   0  0  0  0  0  0  0  0  0  0  0  0
   49.2179    5.8415   22.1116 C   0  0  0  0  0  0  0  0  0  0  0  0
   50.2981    6.6504   21.7633 C   0  0  0  0  0  0  0  0  0  0  0  0
   48.6611    4.8808   20.2623 C   0  0  0  0  0  0  0  0  0  0  0  0
   50.4392    6.6254   20.1123 N   0  0  0  0  0  0  0  0  0  0  0  0
   48.3369    4.5758   18.8172 C   0  0  0  0  0  0  0  0  0  0  0  0
   50.1441    5.2396   20.5028 C   0  0  1  0  0  0  0  0  0  0  0  0
   48.2577    3.2489   18.3714 C   0  0  0  0  0  0  0  0  0  0  0  0
   48.1219    5.6120   17.8993 C   0  0  0  0  0  0  0  0  0  0  0  0
   50.5029    5.0589   21.9791 C   0  0  0  0  0  0  0  0  0  0  0  0
   47.8260    5.3281   16.5651 C   0  0  0  0  0  0  0  0  0  0  0  0
   47.9605    2.9663   17.0368 C   0  0  0  0  0  0  0  0  0  0  0  0
   47.7436    4.0056   16.1344 C   0  0  0  0  0  0  0  0  0  0  0  0
   48.6445    4.6557   20.4943 C   0  0  0  0  0  0  0  0  0  0  0  0
   49.4215    6.3685   22.0853 N   0  0  0  0  0  0  0  0  0  0  0  0
   48.4415    4.2617   19.0492 C   0  0  0  0  0  0  0  0  0  0  0  0
   49.4440    5.9631   20.6726 C   0  0  1  0  0  0  0  0  0  0  0  0
   47.5261    4.9543   18.2445 C   0  0  0  0  0  0  0  0  0  0  0  0
   49.1699    3.2024   18.4913 C   0  0  0  0  0  0  0  0  0  0  0  0
   50.9020    5.8159   20.2357 C   0  0  0  0  0  0  0  0  0  0  0  0
   47.3453    4.5952   16.9080 C   0  0  0  0  0  0  0  0  0  0  0  0
   48.9880    2.8451   17.1544 C   0  0  0  0  0  0  0  0  0  0  0  0
   48.0765    3.5414   16.3631 C   0  0  0  0  0  0  0  0  0  0  0  0
   48.6505    2.7434   19.5660 H   0  0  0  0  0  0  0  0  0  0  0  0
   49.6559    3.3930   18.2929 H   0  0  0  0  0  0  0  0  0  0  0  0
   48.2407    5.9964   17.8370 H   0  0  0  0  0  0  0  0  0  0  0  0
   47.0046    5.5249   16.8865 H   0  0  0  0  0  0  0  0  0  0  0  0
   46.8346    4.4457   18.9530 H   0  0  0  0  0  0  0  0  0  0  0  0
   50.9428    5.4094   18.6671 H   0  0  0  0  0  0  0  0  0  0  0  0
   47.9113    4.2475   21.5078 H   0  0  0  0  0  0  0  0  0  0  0  0
   47.7277    2.5570   16.7040 H   0  0  0  0  0  0  0  0  0  0  0  0
   46.7531    2.1055   18.1130 H   0  0  0  0  0  0  0  0  0  0  0  0
   46.1006    3.2293   16.9158 H   0  0  0  0  0  0  0  0  0  0  0  0
   51.7584    7.1206   20.2517 H   0  0  0  0  0  0  0  0  0  0  0  0
   48.7366    5.9652   23.0783 H   0  0  0  0  0  0  0  0  0  0  0  0
   50.6589    7.4046   22.4576 H   0  0  0  0  0  0  0  0  0  0  0  0
   48.0028    5.6841   20.6203 H   0  0  0  0  0  0  0  0  0  0  0  0
   48.3939    4.0027   20.8659 H   0  0  0  0  0  0  0  0  0  0  0  0
   49.9204    7.2707   20.7061 H   0  0  0  0  0  0  0  0  0  0  0  0
   51.4265    6.8211   20.2725 H   0  0  0  0  0  0  0  0  0  0  0  0
   50.7834    4.5741   19.9101 H   0  0  0  0  0  0  0  0  0  0  0  0
   48.4268    2.4256   19.0611 H   0  0  0  0  0  0  0  0  0  0  0  0
   48.1958    6.6488   18.2200 H   0  0  0  0  0  0  0  0  0  0  0  0
   49.8890    5.6984   22.6235 H   0  0  0  0  0  0  0  0  0  0  0  0
   51.5554    5.3030   22.1621 H   0  0  0  0  0  0  0  0  0  0  0  0
   50.3481    4.0198   22.2898 H   0  0  0  0  0  0  0  0  0  0  0  0
   47.6652    6.1410   15.8622 H   0  0  0  0  0  0  0  0  0  0  0  0
   47.9002    1.9346   16.7011 H   0  0  0  0  0  0  0  0  0  0  0  0
   47.5148    3.7857   15.0953 H   0  0  0  0  0  0  0  0  0  0  0  0
   47.6505    4.7605   20.9512 H   0  0  0  0  0  0  0  0  0  0  0  0
   49.1331    3.8366   21.0389 H   0  0  0  0  0  0  0  0  0  0  0  0
   48.4609    6.5539   22.3718 H   0  0  0  0  0  0  0  0  0  0  0  0
   49.9260    7.2479   22.1946 H   0  0  0  0  0  0  0  0  0  0  0  0
   48.9828    6.7653   20.0842 H   0  0  0  0  0  0  0  0  0  0  0  0
   46.9454    5.7768   18.6558 H   0  0  0  0  0  0  0  0  0  0  0  0
   49.8866    2.6499   19.0951 H   0  0  0  0  0  0  0  0  0  0  0  0
   51.4603    6.7426   20.4119 H   0  0  0  0  0  0  0  0  0  0  0  0
   51.4057    5.0103   20.7818 H   0  0  0  0  0  0  0  0  0  0  0  0
   50.9740    5.5966   19.1657 H   0  0  0  0  0  0  0  0  0  0  0  0
   46.6325    5.1369   16.2919 H   0  0  0  0  0  0  0  0  0  0  0  0
   49.5582    2.0226   16.7306 H   0  0  0  0  0  0  0  0  0  0  0  0
   47.9351    3.2619   15.3226 H   0  0  0  0  0  0  0  0  0  0  0  0
  4  2  1  0
  3  1  1  0
  4  1  1  0
  5  3  2  0
  6  3  1  0
  4  7  1  0
  8  5  1  0
  9  6  2  0
 10  8  2  0
  9 10  1  0
 12 14  1  0
 13 11  1  0
 14 11  1  0
 15 13  2  0
 16 13  1  0
 17 14  1  0
 18 16  2  0
 19 15  1  0
 20 18  1  0
 19 20  2  0
 24 22  1  0
 23 21  1  0
 24 21  1  0
 25 23  2  0
 26 23  1  0
 24 27  1  0
 28 25  1  0
 29 26  2  0
 30 28  2  0
 29 30  1  0
  1 31  1  0
  1 32  1  0
  2 33  1  0
  2 34  1  0
  4 35  1  6
  5 36  1  0
  6 37  1  0
  7 38  1  0
  7 39  1  0
  7 40  1  0
  8 41  1  0
  9 42  1  0
 10 43  1  0
 11 44  1  0
 11 45  1  0
 12 46  1  0
 12 47  1  0
 14 48  1  1
 15 49  1  0
 16 50  1  0
 17 51  1  0
 17 52  1  0
 17 53  1  0
 18 54  1  0
 19 55  1  0
 20 56  1  0
 21 57  1  0
 21 58  1  0
 22 59  1  0
 22 60  1  0
 24 61  1  1
 25 62  1  0
 26 63  1  0
 27 64  1  0
 27 65  1  0
 27 66  1  0
 28 67  1  0
 29 68  1  0
 30 69  1  0
M  END
> <Uni-Dock RESULT> 
ENERGY=   -6.200  LOWER_BOUND=    7.615  UPPER_BOUND=   10.072
INTER + INTRA:          -6.200
INTER:                  -6.200
INTRA:                   0.000
UNBOUND:                 0.000

$$$$
