
     RDKit          3D

 43 40  0  0  0  0  0  0  0  0999 V2000
    3.1523   -0.3027    1.0663 S   0  0  0  0  0  0  0  0  0  0  0  0
    2.9494    1.1359    1.2208 O   0  0  0  0  0  0  0  0  0  0  0  0
    2.5347   -1.1261    2.1036 O   0  0  0  0  0  0  0  0  0  0  0  0
    4.5129   -0.6909    0.7027 O   0  0  0  0  0  0  0  0  0  0  0  0
   -2.2146    0.5823   -0.6910 C   0  0  0  0  0  0  0  0  0  0  0  0
   -1.9043    0.7803   -1.8613 O   0  0  0  0  0  0  0  0  0  0  0  0
    2.2192   -0.6988   -0.3971 C   0  0  0  0  0  0  0  0  0  0  0  0
   -1.3256    0.5327    0.3533 N   0  0  0  0  0  0  0  0  0  0  0  0
    0.7094   -0.7258   -0.1899 C   0  0  0  0  0  0  0  0  0  0  0  0
    0.1148    0.6310    0.1740 C   0  0  0  0  0  0  0  0  0  0  0  0
   -3.6503    0.3998   -0.2756 C   0  0  0  0  0  0  0  0  0  0  0  0
    3.5774    0.5403    1.1749 S   0  0  0  0  0  0  0  0  0  0  0  0
    4.8164    0.0071    0.6137 O   0  0  0  0  0  0  0  0  0  0  0  0
    3.2576    0.0687    2.5203 O   0  0  0  0  0  0  0  0  0  0  0  0
    3.3673    1.9694    0.9523 O   0  0  0  0  0  0  0  0  0  0  0  0
   -2.5788   -0.5425   -0.5284 C   0  0  0  0  0  0  0  0  0  0  0  0
   -2.5518   -1.4229   -1.3823 O   0  0  0  0  0  0  0  0  0  0  0  0
    2.3263   -0.2182    0.1629 C   0  0  0  0  0  0  0  0  0  0  0  0
   -1.4614   -0.0080    0.0673 N   0  0  0  0  0  0  0  0  0  0  0  0
    0.9220    0.1855    0.5893 C   0  0  0  0  0  0  0  0  0  0  0  0
   -0.1257   -0.3936   -0.3471 C   0  0  0  0  0  0  0  0  0  0  0  0
   -3.8764    0.0367   -0.0304 C   0  0  0  0  0  0  0  0  0  0  0  0
    0.0000    0.0000    0.0000 Ca  0  0  0  0  0 15  0  0  0  0  0  0
    2.5483   -1.6952   -0.7132 H   0  0  0  0  0  0  0  0  0  0  0  0
    2.5045    0.0136   -1.1780 H   0  0  0  0  0  0  0  0  0  0  0  0
   -1.6426    0.2753    1.2778 H   0  0  0  0  0  0  0  0  0  0  0  0
    0.4461   -1.4588    0.5827 H   0  0  0  0  0  0  0  0  0  0  0  0
    0.2432   -1.0858   -1.1159 H   0  0  0  0  0  0  0  0  0  0  0  0
    0.3267    1.3674   -0.6088 H   0  0  0  0  0  0  0  0  0  0  0  0
    0.5011    1.0041    1.1249 H   0  0  0  0  0  0  0  0  0  0  0  0
   -4.1459   -0.2698   -0.9863 H   0  0  0  0  0  0  0  0  0  0  0  0
   -4.1491    1.3742   -0.2759 H   0  0  0  0  0  0  0  0  0  0  0  0
   -3.7301   -0.0427    0.7231 H   0  0  0  0  0  0  0  0  0  0  0  0
    2.5237    0.0845   -0.8713 H   0  0  0  0  0  0  0  0  0  0  0  0
    2.4581   -1.3029    0.2382 H   0  0  0  0  0  0  0  0  0  0  0  0
   -1.5520    0.8571    0.5854 H   0  0  0  0  0  0  0  0  0  0  0  0
    0.7277   -0.1517    1.6150 H   0  0  0  0  0  0  0  0  0  0  0  0
    0.8302    1.2787    0.6056 H   0  0  0  0  0  0  0  0  0  0  0  0
   -0.0729   -1.4880   -0.3706 H   0  0  0  0  0  0  0  0  0  0  0  0
    0.0200   -0.0291   -1.3704 H   0  0  0  0  0  0  0  0  0  0  0  0
   -4.4263   -0.7366    0.5134 H   0  0  0  0  0  0  0  0  0  0  0  0
   -4.4665    0.3780   -0.8861 H   0  0  0  0  0  0  0  0  0  0  0  0
   -3.7147    0.8875    0.6378 H   0  0  0  0  0  0  0  0  0  0  0  0
  2  1  1  0
  3  1  2  0
  4  1  2  0
  5  8  1  0
  6  5  2  0
  7  1  1  0
  8 10  1  0
  9  7  1  0
 10  9  1  0
 11  5  1  0
 13 12  1  0
 14 12  2  0
 15 12  2  0
 16 19  1  0
 17 16  2  0
 18 12  1  0
 19 21  1  0
 20 18  1  0
 21 20  1  0
 22 16  1  0
  7 24  1  0
  7 25  1  0
  8 26  1  0
  9 27  1  0
  9 28  1  0
 10 29  1  0
 10 30  1  0
 11 31  1  0
 11 32  1  0
 11 33  1  0
 18 34  1  0
 18 35  1  0
 19 36  1  0
 20 37  1  0
 20 38  1  0
 21 39  1  0
 21 40  1  0
 22 41  1  0
 22 42  1  0
 22 43  1  0
M  CHG  3   2  -1  13  -1  23   2
M  END
$$$$
