
     RDKit          3D

 43 40  0  0  0  0  0  0  0  0999 V2000
    3.6190   -0.9093    0.3666 S   0  0  0  0  0  0  0  0  0  0  0  0
    3.5461   -1.5430   -0.9477 O   0  0  0  0  0  0  0  0  0  0  0  0
    3.2511   -1.7685    1.4902 O   0  0  0  0  0  0  0  0  0  0  0  0
    4.8037   -0.0832    0.5872 O   0  0  0  0  0  0  0  0  0  0  0  0
   -2.6023    0.7961   -0.2295 C   0  0  0  0  0  0  0  0  0  0  0  0
   -2.6163    2.0186   -0.3325 O   0  0  0  0  0  0  0  0  0  0  0  0
    2.3053    0.2888    0.3206 C   0  0  0  0  0  0  0  0  0  0  0  0
   -1.4636    0.0486   -0.0484 N   0  0  0  0  0  0  0  0  0  0  0  0
    0.9465   -0.3580    0.0929 C   0  0  0  0  0  0  0  0  0  0  0  0
   -0.1689    0.6733    0.1454 C   0  0  0  0  0  0  0  0  0  0  0  0
   -3.8633   -0.0212   -0.3217 C   0  0  0  0  0  0  0  0  0  0  0  0
   -3.5346   -0.3718   -1.0863 S   0  0  0  0  0  0  0  0  0  0  0  0
   -4.7326   -0.8444   -0.3965 O   0  0  0  0  0  0  0  0  0  0  0  0
   -3.5495    1.0440   -1.4465 O   0  0  0  0  0  0  0  0  0  0  0  0
   -3.0271   -1.2699   -2.1216 O   0  0  0  0  0  0  0  0  0  0  0  0
    2.5311    0.3094    1.0861 C   0  0  0  0  0  0  0  0  0  0  0  0
    2.4946    0.0876    2.2920 O   0  0  0  0  0  0  0  0  0  0  0  0
   -2.2882   -0.4624    0.1793 C   0  0  0  0  0  0  0  0  0  0  0  0
    1.4389    0.2475    0.2540 N   0  0  0  0  0  0  0  0  0  0  0  0
   -0.9285    0.0048   -0.3208 C   0  0  0  0  0  0  0  0  0  0  0  0
    0.1423   -0.1834    0.7411 C   0  0  0  0  0  0  0  0  0  0  0  0
    3.8139    0.6634    0.3824 C   0  0  0  0  0  0  0  0  0  0  0  0
    0.0000    0.0000    0.0000 Ca  0  0  0  0  0 15  0  0  0  0  0  0
    2.5379    0.9981   -0.4808 H   0  0  0  0  0  0  0  0  0  0  0  0
    2.3274    0.8251    1.2755 H   0  0  0  0  0  0  0  0  0  0  0  0
   -1.5508   -0.9263    0.2083 H   0  0  0  0  0  0  0  0  0  0  0  0
    0.9294   -0.8715   -0.8764 H   0  0  0  0  0  0  0  0  0  0  0  0
    0.7636   -1.1305    0.8500 H   0  0  0  0  0  0  0  0  0  0  0  0
   -0.0335    1.4412   -0.6246 H   0  0  0  0  0  0  0  0  0  0  0  0
   -0.1905    1.1754    1.1195 H   0  0  0  0  0  0  0  0  0  0  0  0
   -3.7075   -1.0485    0.0195 H   0  0  0  0  0  0  0  0  0  0  0  0
   -4.6317    0.4350    0.3096 H   0  0  0  0  0  0  0  0  0  0  0  0
   -4.2015   -0.0400   -1.3613 H   0  0  0  0  0  0  0  0  0  0  0  0
   -2.2454   -1.5046    0.5130 H   0  0  0  0  0  0  0  0  0  0  0  0
   -2.6274    0.1559    1.0169 H   0  0  0  0  0  0  0  0  0  0  0  0
    1.5936    0.2065   -0.7457 H   0  0  0  0  0  0  0  0  0  0  0  0
   -0.6460   -0.5497   -1.2243 H   0  0  0  0  0  0  0  0  0  0  0  0
   -0.9767    1.0608   -0.6146 H   0  0  0  0  0  0  0  0  0  0  0  0
   -0.0942    0.3869    1.6466 H   0  0  0  0  0  0  0  0  0  0  0  0
    0.2314   -1.2382    1.0240 H   0  0  0  0  0  0  0  0  0  0  0  0
    4.4290   -0.2353    0.2858 H   0  0  0  0  0  0  0  0  0  0  0  0
    4.3482    1.4156    0.9697 H   0  0  0  0  0  0  0  0  0  0  0  0
    3.6272    1.0774   -0.6126 H   0  0  0  0  0  0  0  0  0  0  0  0
  2  1  1  0
  3  1  2  0
  4  1  2  0
  5  8  1  0
  6  5  2  0
  7  1  1  0
  8 10  1  0
  9  7  1  0
 10  9  1  0
 11  5  1  0
 13 12  1  0
 14 12  2  0
 15 12  2  0
 16 19  1  0
 17 16  2  0
 18 12  1  0
 19 21  1  0
 20 18  1  0
 21 20  1  0
 22 16  1  0
  7 24  1  0
  7 25  1  0
  8 26  1  0
  9 27  1  0
  9 28  1  0
 10 29  1  0
 10 30  1  0
 11 31  1  0
 11 32  1  0
 11 33  1  0
 18 34  1  0
 18 35  1  0
 19 36  1  0
 20 37  1  0
 20 38  1  0
 21 39  1  0
 21 40  1  0
 22 41  1  0
 22 42  1  0
 22 43  1  0
M  CHG  3   2  -1  13  -1  23   2
M  END
$$$$
