
     RDKit          3D

 43 40  0  0  0  0  0  0  0  0999 V2000
    3.6560    0.5547   -0.4893 S   0  0  0  0  0  0  0  0  0  0  0  0
    3.3593    1.9055   -0.9603 O   0  0  0  0  0  0  0  0  0  0  0  0
    4.7989    0.4550    0.4153 O   0  0  0  0  0  0  0  0  0  0  0  0
    3.5890   -0.4872   -1.5120 O   0  0  0  0  0  0  0  0  0  0  0  0
   -2.6584   -0.3321    0.6571 C   0  0  0  0  0  0  0  0  0  0  0  0
   -2.7761   -0.4553    1.8720 O   0  0  0  0  0  0  0  0  0  0  0  0
    2.2790    0.1756    0.5707 C   0  0  0  0  0  0  0  0  0  0  0  0
   -1.4593   -0.1545    0.0093 N   0  0  0  0  0  0  0  0  0  0  0  0
    0.9516    0.2300   -0.1722 C   0  0  0  0  0  0  0  0  0  0  0  0
   -0.1995   -0.1884    0.7276 C   0  0  0  0  0  0  0  0  0  0  0  0
   -3.8471   -0.3816   -0.2651 C   0  0  0  0  0  0  0  0  0  0  0  0
    3.2148   -0.1971   -0.7830 S   0  0  0  0  0  0  0  0  0  0  0  0
    3.0261    1.2229   -1.0716 O   0  0  0  0  0  0  0  0  0  0  0  0
    4.5592   -0.5609   -0.3421 O   0  0  0  0  0  0  0  0  0  0  0  0
    2.6271   -1.1075   -1.7628 O   0  0  0  0  0  0  0  0  0  0  0  0
   -2.3708   -0.1556    0.4100 C   0  0  0  0  0  0  0  0  0  0  0  0
   -2.2959   -1.0713    1.2230 O   0  0  0  0  0  0  0  0  0  0  0  0
    2.2298   -0.4647    0.6756 C   0  0  0  0  0  0  0  0  0  0  0  0
   -1.3660    0.2066   -0.4518 N   0  0  0  0  0  0  0  0  0  0  0  0
    0.8423    0.1636    0.6196 C   0  0  0  0  0  0  0  0  0  0  0  0
   -0.0589   -0.4320   -0.4575 C   0  0  0  0  0  0  0  0  0  0  0  0
   -3.6074    0.6950    0.2918 C   0  0  0  0  0  0  0  0  0  0  0  0
    0.0000    0.0000    0.0000 Ca  0  0  0  0  0 15  0  0  0  0  0  0
    2.2930    0.8959    1.3956 H   0  0  0  0  0  0  0  0  0  0  0  0
    2.4564   -0.8244    0.9811 H   0  0  0  0  0  0  0  0  0  0  0  0
   -1.4239   -0.2906   -0.9931 H   0  0  0  0  0  0  0  0  0  0  0  0
    0.9828   -0.4255   -1.0513 H   0  0  0  0  0  0  0  0  0  0  0  0
    0.7731    1.2428   -0.5539 H   0  0  0  0  0  0  0  0  0  0  0  0
   -0.0577   -1.2119    1.0930 H   0  0  0  0  0  0  0  0  0  0  0  0
   -0.2792    0.4705    1.5997 H   0  0  0  0  0  0  0  0  0  0  0  0
   -4.1773   -1.4185   -0.3682 H   0  0  0  0  0  0  0  0  0  0  0  0
   -4.6542    0.2226    0.1585 H   0  0  0  0  0  0  0  0  0  0  0  0
   -3.6064    0.0174   -1.2545 H   0  0  0  0  0  0  0  0  0  0  0  0
    2.1747   -1.5445    0.8478 H   0  0  0  0  0  0  0  0  0  0  0  0
    2.7843   -0.0184    1.5091 H   0  0  0  0  0  0  0  0  0  0  0  0
   -1.4486    1.0554   -0.9946 H   0  0  0  0  0  0  0  0  0  0  0  0
    0.3674    0.0321    1.6001 H   0  0  0  0  0  0  0  0  0  0  0  0
    0.9234    1.2472    0.4692 H   0  0  0  0  0  0  0  0  0  0  0  0
    0.3406   -0.2657   -1.4600 H   0  0  0  0  0  0  0  0  0  0  0  0
   -0.1888   -1.5082   -0.3010 H   0  0  0  0  0  0  0  0  0  0  0  0
   -3.6532    1.3797    1.1427 H   0  0  0  0  0  0  0  0  0  0  0  0
   -4.4885    0.0472    0.2912 H   0  0  0  0  0  0  0  0  0  0  0  0
   -3.6116    1.2762   -0.6346 H   0  0  0  0  0  0  0  0  0  0  0  0
  2  1  1  0
  3  1  2  0
  4  1  2  0
  5  8  1  0
  6  5  2  0
  7  1  1  0
  8 10  1  0
  9  7  1  0
 10  9  1  0
 11  5  1  0
 13 12  1  0
 14 12  2  0
 15 12  2  0
 16 19  1  0
 17 16  2  0
 18 12  1  0
 19 21  1  0
 20 18  1  0
 21 20  1  0
 22 16  1  0
  7 24  1  0
  7 25  1  0
  8 26  1  0
  9 27  1  0
  9 28  1  0
 10 29  1  0
 10 30  1  0
 11 31  1  0
 11 32  1  0
 11 33  1  0
 18 34  1  0
 18 35  1  0
 19 36  1  0
 20 37  1  0
 20 38  1  0
 21 39  1  0
 21 40  1  0
 22 41  1  0
 22 42  1  0
 22 43  1  0
M  CHG  3   2  -1  13  -1  23   2
M  END
$$$$
