
     RDKit          3D

 23 20  0  0  0  0  0  0  0  0999 V2000
   -2.1994    0.4907   -0.2965 S   0  0  0  0  0  0  0  0  0  0  0  0
   -1.7626    0.5447   -1.9264 O   0  0  0  0  0  0  0  0  0  0  0  0
   -2.7155    1.8648    0.0701 O   0  0  0  0  0  0  0  0  0  0  0  0
   -3.2786   -0.5312   -0.1492 O   0  0  0  0  0  0  0  0  0  0  0  0
    2.4452   -0.0684   -0.1686 C   0  0  0  0  0  0  0  0  0  0  0  0
    2.1853   -0.8769   -1.1021 O   0  0  0  0  0  0  0  0  0  0  0  0
   -0.8072    0.1687    0.7528 C   0  0  0  0  0  0  0  0  0  0  0  0
    1.9048   -0.1947    1.1421 N   0  0  0  0  0  0  0  0  0  0  0  0
   -0.1531   -1.1586    0.4252 C   0  0  0  0  0  0  0  0  0  0  0  0
    1.0158   -1.3183    1.3835 C   0  0  0  0  0  0  0  0  0  0  0  0
    3.3654    1.0794   -0.4505 C   0  0  0  0  0  0  0  0  0  0  0  0
    2.6715    0.2835   -0.2361 S   0  0  0  0  0  0  0  0  0  0  0  0
    3.3698    1.3172   -1.3389 O   0  0  0  0  0  0  0  0  0  0  0  0
    2.6916    0.9334    1.1241 O   0  0  0  0  0  0  0  0  0  0  0  0
    3.3458   -1.0543   -0.1710 O   0  0  0  0  0  0  0  0  0  0  0  0
   -3.1233    0.1126    0.1307 C   0  0  0  0  0  0  0  0  0  0  0  0
   -3.6684   -1.0046   -0.0857 O   0  0  0  0  0  0  0  0  0  0  0  0
    0.9323    0.0456   -0.6297 C   0  0  0  0  0  0  0  0  0  0  0  0
   -1.7057    0.1045    0.3118 N   0  0  0  0  0  0  0  0  0  0  0  0
    0.4364   -0.9121    0.4540 C   0  0  0  0  0  0  0  0  0  0  0  0
   -1.0247   -1.1910    0.2297 C   0  0  0  0  0  0  0  0  0  0  0  0
   -3.9254    1.3651    0.1917 C   0  0  0  0  0  0  0  0  0  0  0  0
    0.0000    0.0000    0.0000 Ca  0  0  0  0  0 15  0  0  0  0  0  0
  2  1  1  0
  3  1  2  0
  4  1  2  0
  5  8  1  0
  6  5  2  0
  7  1  1  0
  8 10  1  0
  9  7  1  0
 10  9  1  0
 11  5  1  0
 13 12  1  0
 14 12  2  0
 15 12  2  0
 16 19  1  0
 17 16  2  0
 18 12  1  0
 19 21  1  0
 20 18  1  0
 21 20  1  0
 22 16  1  0
M  CHG  3   2  -1  13  -1  23   2
M  END
