
     RDKit          3D

 43 40  0  0  0  0  0  0  0  0999 V2000
    3.3148    0.1124   -0.2213 S   0  0  0  0  0  0  0  0  0  0  0  0
    2.9367    0.6491   -1.5264 O   0  0  0  0  0  0  0  0  0  0  0  0
    4.5491    0.6654    0.3310 O   0  0  0  0  0  0  0  0  0  0  0  0
    3.1769   -1.3362   -0.0881 O   0  0  0  0  0  0  0  0  0  0  0  0
   -2.3964    0.1319   -0.1490 C   0  0  0  0  0  0  0  0  0  0  0  0
   -2.4763    1.2538    0.3408 O   0  0  0  0  0  0  0  0  0  0  0  0
    2.0648    0.7563    0.8705 C   0  0  0  0  0  0  0  0  0  0  0  0
   -1.2446   -0.4197   -0.6515 N   0  0  0  0  0  0  0  0  0  0  0  0
    0.7110    0.0663    0.7504 C   0  0  0  0  0  0  0  0  0  0  0  0
    0.0424    0.2570   -0.6074 C   0  0  0  0  0  0  0  0  0  0  0  0
   -3.5915   -0.7802   -0.2301 C   0  0  0  0  0  0  0  0  0  0  0  0
   -3.6815    0.1202   -0.7769 S   0  0  0  0  0  0  0  0  0  0  0  0
   -4.8214   -0.2630    0.0527 O   0  0  0  0  0  0  0  0  0  0  0  0
   -3.4397   -0.7480   -1.9275 O   0  0  0  0  0  0  0  0  0  0  0  0
   -3.5692    1.5517   -1.0461 O   0  0  0  0  0  0  0  0  0  0  0  0
    2.6629   -0.0384    0.5249 C   0  0  0  0  0  0  0  0  0  0  0  0
    2.7655   -0.3141    1.7158 O   0  0  0  0  0  0  0  0  0  0  0  0
   -2.2924   -0.2106    0.2834 C   0  0  0  0  0  0  0  0  0  0  0  0
    1.4680    0.0613   -0.1467 N   0  0  0  0  0  0  0  0  0  0  0  0
   -0.9676    0.1308   -0.3840 C   0  0  0  0  0  0  0  0  0  0  0  0
    0.2078   -0.2472    0.5021 C   0  0  0  0  0  0  0  0  0  0  0  0
    3.8700    0.2071   -0.3404 C   0  0  0  0  0  0  0  0  0  0  0  0
    0.0000    0.0000    0.0000 Ca  0  0  0  0  0 15  0  0  0  0  0  0
    1.9841    1.8328    0.6877 H   0  0  0  0  0  0  0  0  0  0  0  0
    2.4422    0.6149    1.8898 H   0  0  0  0  0  0  0  0  0  0  0  0
   -1.2248   -1.3964   -0.9115 H   0  0  0  0  0  0  0  0  0  0  0  0
    0.8130   -1.0057    0.9596 H   0  0  0  0  0  0  0  0  0  0  0  0
    0.0541    0.4632    1.5347 H   0  0  0  0  0  0  0  0  0  0  0  0
    0.6296   -0.1839   -1.4156 H   0  0  0  0  0  0  0  0  0  0  0  0
   -0.1085    1.3212   -0.8177 H   0  0  0  0  0  0  0  0  0  0  0  0
   -3.4178   -1.6145   -0.9155 H   0  0  0  0  0  0  0  0  0  0  0  0
   -3.8077   -1.1757    0.7658 H   0  0  0  0  0  0  0  0  0  0  0  0
   -4.4510   -0.2120   -0.5964 H   0  0  0  0  0  0  0  0  0  0  0  0
   -2.3354   -1.2733    0.5457 H   0  0  0  0  0  0  0  0  0  0  0  0
   -2.4307    0.3774    1.1970 H   0  0  0  0  0  0  0  0  0  0  0  0
    1.4784    0.0642   -1.1590 H   0  0  0  0  0  0  0  0  0  0  0  0
   -0.8819   -0.3923   -1.3445 H   0  0  0  0  0  0  0  0  0  0  0  0
   -0.9261    1.2021   -0.6161 H   0  0  0  0  0  0  0  0  0  0  0  0
    0.2045   -1.3216    0.7184 H   0  0  0  0  0  0  0  0  0  0  0  0
    0.1698    0.2869    1.4583 H   0  0  0  0  0  0  0  0  0  0  0  0
    4.3478   -0.7492   -0.5683 H   0  0  0  0  0  0  0  0  0  0  0  0
    4.5710    0.8514    0.1976 H   0  0  0  0  0  0  0  0  0  0  0  0
    3.6003    0.7045   -1.2764 H   0  0  0  0  0  0  0  0  0  0  0  0
  2  1  1  0
  3  1  2  0
  4  1  2  0
  5  8  1  0
  6  5  2  0
  7  1  1  0
  8 10  1  0
  9  7  1  0
 10  9  1  0
 11  5  1  0
 13 12  1  0
 14 12  2  0
 15 12  2  0
 16 19  1  0
 17 16  2  0
 18 12  1  0
 19 21  1  0
 20 18  1  0
 21 20  1  0
 22 16  1  0
  7 24  1  0
  7 25  1  0
  8 26  1  0
  9 27  1  0
  9 28  1  0
 10 29  1  0
 10 30  1  0
 11 31  1  0
 11 32  1  0
 11 33  1  0
 18 34  1  0
 18 35  1  0
 19 36  1  0
 20 37  1  0
 20 38  1  0
 21 39  1  0
 21 40  1  0
 22 41  1  0
 22 42  1  0
 22 43  1  0
M  CHG  3   2  -1  13  -1  23   2
M  END
$$$$
