
     RDKit          2D

 23 20  0  0  0  0  0  0  0  0999 V2000
    1.6558   -3.1234    0.0000 S   0  0  0  0  0  0  0  0  0  0  0  0
    2.3728   -2.7213    0.0000 O   0  0  0  0  0  0  0  0  0  0  0  0
    2.0579   -3.8307    0.0000 O   0  0  0  0  0  0  0  0  0  0  0  0
    1.2392   -3.8307    0.0000 O   0  0  0  0  0  0  0  0  0  0  0  0
   -1.9193   -2.6826    0.0000 C   0  0  0  0  0  0  0  0  0  0  0  0
   -1.9144   -1.8543    0.0000 O   0  0  0  0  0  0  0  0  0  0  0  0
    0.9437   -2.7019    0.0000 C   0  0  0  0  0  0  0  0  0  0  0  0
   -1.2072   -3.0992    0.0000 N   0  0  0  0  0  0  0  0  0  0  0  0
    0.2219   -3.1088    0.0000 C   0  0  0  0  0  0  0  0  0  0  0  0
   -0.4902   -2.6923    0.0000 C   0  0  0  0  0  0  0  0  0  0  0  0
   -2.6362   -3.0895    0.0000 C   0  0  0  0  0  0  0  0  0  0  0  0
    1.2304   -0.3584    0.0000 S   0  0  0  0  0  0  0  0  0  0  0  0
    1.9474    0.0436    0.0000 O   0  0  0  0  0  0  0  0  0  0  0  0
    1.6326   -1.0658    0.0000 O   0  0  0  0  0  0  0  0  0  0  0  0
    0.8138   -1.0658    0.0000 O   0  0  0  0  0  0  0  0  0  0  0  0
   -2.3447    0.0823    0.0000 C   0  0  0  0  0  0  0  0  0  0  0  0
   -2.3398    0.9107    0.0000 O   0  0  0  0  0  0  0  0  0  0  0  0
    0.5183    0.0630    0.0000 C   0  0  0  0  0  0  0  0  0  0  0  0
   -1.6326   -0.3343    0.0000 N   0  0  0  0  0  0  0  0  0  0  0  0
   -0.2035   -0.3439    0.0000 C   0  0  0  0  0  0  0  0  0  0  0  0
   -0.9156    0.0727    0.0000 C   0  0  0  0  0  0  0  0  0  0  0  0
   -3.0615   -0.3246    0.0000 C   0  0  0  0  0  0  0  0  0  0  0  0
    2.9938    0.0387    0.0000 Ca  0  0  0  0  0 15  0  0  0  0  0  0
  2  1  1  0
  3  1  2  0
  4  1  2  0
  5  8  1  0
  6  5  2  0
  7  1  1  0
  8 10  1  0
  9  7  1  0
 10  9  1  0
 11  5  1  0
 13 12  1  0
 14 12  2  0
 15 12  2  0
 16 19  1  0
 17 16  2  0
 18 12  1  0
 19 21  1  0
 20 18  1  0
 21 20  1  0
 22 16  1  0
M  CHG  3   2  -1  13  -1  23   2
M  END
> <chembl_id>
CHEMBL2068724

> <chembl_pref_name>
ACAMPROSATE CALCIUM
