
     RDKit          3D

 43 40  0  0  0  0  0  0  0  0999 V2000
    2.1816    1.1174    0.5857 S   0  0  0  0  0  0  0  0  0  0  0  0
    2.8832    1.8468    1.6380 O   0  0  0  0  0  0  0  0  0  0  0  0
    0.8742    1.6706    0.2302 O   0  0  0  0  0  0  0  0  0  0  0  0
    3.0093    0.7260   -0.5512 O   0  0  0  0  0  0  0  0  0  0  0  0
   -2.1635    0.0078   -0.7908 C   0  0  0  0  0  0  0  0  0  0  0  0
   -3.0495   -0.8230   -0.6038 O   0  0  0  0  0  0  0  0  0  0  0  0
    1.7918   -0.4316    1.3714 C   0  0  0  0  0  0  0  0  0  0  0  0
   -0.8571   -0.1589   -0.4081 N   0  0  0  0  0  0  0  0  0  0  0  0
    1.0724   -1.4426    0.4791 C   0  0  0  0  0  0  0  0  0  0  0  0
   -0.4438   -1.2619    0.4206 C   0  0  0  0  0  0  0  0  0  0  0  0
   -2.4353    1.3276   -1.4625 C   0  0  0  0  0  0  0  0  0  0  0  0
   -3.5051    0.1579   -1.3494 S   0  0  0  0  0  0  0  0  0  0  0  0
   -4.7832   -0.1446   -0.7096 O   0  0  0  0  0  0  0  0  0  0  0  0
   -3.2712    1.5758   -1.6161 O   0  0  0  0  0  0  0  0  0  0  0  0
   -3.1299   -0.7468   -2.4334 O   0  0  0  0  0  0  0  0  0  0  0  0
    2.5262   -0.2301    0.9866 C   0  0  0  0  0  0  0  0  0  0  0  0
    2.4398   -0.7368    2.0999 O   0  0  0  0  0  0  0  0  0  0  0  0
   -2.3256   -0.2166   -0.0719 C   0  0  0  0  0  0  0  0  0  0  0  0
    1.4537    0.0311    0.1677 N   0  0  0  0  0  0  0  0  0  0  0  0
   -0.8921    0.0057   -0.5326 C   0  0  0  0  0  0  0  0  0  0  0  0
    0.0915   -0.2037    0.6069 C   0  0  0  0  0  0  0  0  0  0  0  0
    3.8458    0.1960    0.4022 C   0  0  0  0  0  0  0  0  0  0  0  0
    0.0000    0.0000    0.0000 Ca  0  0  0  0  0 15  0  0  0  0  0  0
    2.7547   -0.8528    1.6839 H   0  0  0  0  0  0  0  0  0  0  0  0
    1.2143   -0.2127    2.2755 H   0  0  0  0  0  0  0  0  0  0  0  0
   -0.2935    0.7020   -0.3275 H   0  0  0  0  0  0  0  0  0  0  0  0
    1.4944   -1.4497   -0.5319 H   0  0  0  0  0  0  0  0  0  0  0  0
    1.2572   -2.4362    0.9069 H   0  0  0  0  0  0  0  0  0  0  0  0
   -0.9006   -2.1725    0.0159 H   0  0  0  0  0  0  0  0  0  0  0  0
   -0.8629   -1.1101    1.4218 H   0  0  0  0  0  0  0  0  0  0  0  0
   -3.1257    1.1705   -2.2959 H   0  0  0  0  0  0  0  0  0  0  0  0
   -1.5181    1.7715   -1.8603 H   0  0  0  0  0  0  0  0  0  0  0  0
   -2.8830    2.0118   -0.7367 H   0  0  0  0  0  0  0  0  0  0  0  0
   -2.5661    0.4228    0.7846 H   0  0  0  0  0  0  0  0  0  0  0  0
   -2.4814   -1.2602    0.2212 H   0  0  0  0  0  0  0  0  0  0  0  0
    1.5868    0.6488   -0.6237 H   0  0  0  0  0  0  0  0  0  0  0  0
   -0.6518   -0.6762   -1.3572 H   0  0  0  0  0  0  0  0  0  0  0  0
   -0.7752    1.0197   -0.9338 H   0  0  0  0  0  0  0  0  0  0  0  0
   -0.1124    0.4887    1.4316 H   0  0  0  0  0  0  0  0  0  0  0  0
    0.0266   -1.2241    1.0017 H   0  0  0  0  0  0  0  0  0  0  0  0
    4.0567    1.2248    0.7027 H   0  0  0  0  0  0  0  0  0  0  0  0
    3.8313    0.1320   -0.6897 H   0  0  0  0  0  0  0  0  0  0  0  0
    4.6353   -0.4641    0.7720 H   0  0  0  0  0  0  0  0  0  0  0  0
  2  1  1  0
  3  1  2  0
  4  1  2  0
  5  8  1  0
  6  5  2  0
  7  1  1  0
  8 10  1  0
  9  7  1  0
 10  9  1  0
 11  5  1  0
 13 12  1  0
 14 12  2  0
 15 12  2  0
 16 19  1  0
 17 16  2  0
 18 12  1  0
 19 21  1  0
 20 18  1  0
 21 20  1  0
 22 16  1  0
  7 24  1  0
  7 25  1  0
  8 26  1  0
  9 27  1  0
  9 28  1  0
 10 29  1  0
 10 30  1  0
 11 31  1  0
 11 32  1  0
 11 33  1  0
 18 34  1  0
 18 35  1  0
 19 36  1  0
 20 37  1  0
 20 38  1  0
 21 39  1  0
 21 40  1  0
 22 41  1  0
 22 42  1  0
 22 43  1  0
M  CHG  3   2  -1  13  -1  23   2
M  END
$$$$
