
     RDKit          3D

 43 40  0  0  0  0  0  0  0  0999 V2000
   -3.2063    0.7029    0.5327 S   0  0  0  0  0  0  0  0  0  0  0  0
   -2.9574    0.6689    1.9702 O   0  0  0  0  0  0  0  0  0  0  0  0
   -2.6328    1.8489   -0.1703 O   0  0  0  0  0  0  0  0  0  0  0  0
   -4.5742    0.3741    0.1364 O   0  0  0  0  0  0  0  0  0  0  0  0
    2.2606   -0.1263    0.6376 C   0  0  0  0  0  0  0  0  0  0  0  0
    1.9498   -0.4186    1.7860 O   0  0  0  0  0  0  0  0  0  0  0  0
   -2.2764   -0.6781   -0.0916 C   0  0  0  0  0  0  0  0  0  0  0  0
    1.3835    0.2663   -0.3463 N   0  0  0  0  0  0  0  0  0  0  0  0
   -0.8080   -0.7131    0.3222 C   0  0  0  0  0  0  0  0  0  0  0  0
   -0.0272    0.5320   -0.0919 C   0  0  0  0  0  0  0  0  0  0  0  0
    3.6949   -0.1677    0.1794 C   0  0  0  0  0  0  0  0  0  0  0  0
   -3.7298    0.2794    0.1333 S   0  0  0  0  0  0  0  0  0  0  0  0
   -3.6005    1.2517    1.2160 O   0  0  0  0  0  0  0  0  0  0  0  0
   -3.7570   -1.1194    0.5560 O   0  0  0  0  0  0  0  0  0  0  0  0
   -4.7064    0.6291   -0.8955 O   0  0  0  0  0  0  0  0  0  0  0  0
    2.7308   -0.0711   -0.1980 C   0  0  0  0  0  0  0  0  0  0  0  0
    3.0468    0.3825   -1.2931 O   0  0  0  0  0  0  0  0  0  0  0  0
   -2.1808    0.4149   -0.7302 C   0  0  0  0  0  0  0  0  0  0  0  0
    1.4354   -0.1962    0.2439 N   0  0  0  0  0  0  0  0  0  0  0  0
   -0.9938    0.0972    0.1682 C   0  0  0  0  0  0  0  0  0  0  0  0
    0.3099    0.1270   -0.6122 C   0  0  0  0  0  0  0  0  0  0  0  0
    3.7596   -0.5620    0.7852 C   0  0  0  0  0  0  0  0  0  0  0  0
    0.0000    0.0000    0.0000 Ca  0  0  0  0  0 15  0  0  0  0  0  0
   -2.3699   -0.6628   -1.1831 H   0  0  0  0  0  0  0  0  0  0  0  0
   -2.7737   -1.5839    0.2734 H   0  0  0  0  0  0  0  0  0  0  0  0
    1.7676    0.7125   -1.1669 H   0  0  0  0  0  0  0  0  0  0  0  0
   -0.7279   -0.8466    1.4075 H   0  0  0  0  0  0  0  0  0  0  0  0
   -0.3560   -1.6044   -0.1312 H   0  0  0  0  0  0  0  0  0  0  0  0
   -0.0908    1.3082    0.6780 H   0  0  0  0  0  0  0  0  0  0  0  0
   -0.4122    0.9346   -1.0343 H   0  0  0  0  0  0  0  0  0  0  0  0
    4.1710   -1.0699    0.5738 H   0  0  0  0  0  0  0  0  0  0  0  0
    4.2161    0.7174    0.5532 H   0  0  0  0  0  0  0  0  0  0  0  0
    3.7693   -0.1943   -0.9114 H   0  0  0  0  0  0  0  0  0  0  0  0
   -2.2251   -0.2770   -1.5783 H   0  0  0  0  0  0  0  0  0  0  0  0
   -2.1115    1.4362   -1.1197 H   0  0  0  0  0  0  0  0  0  0  0  0
    1.2511   -0.7821    1.0486 H   0  0  0  0  0  0  0  0  0  0  0  0
   -0.9447    0.8138    0.9974 H   0  0  0  0  0  0  0  0  0  0  0  0
   -1.1204   -0.8911    0.6272 H   0  0  0  0  0  0  0  0  0  0  0  0
    0.2950   -0.6070   -1.4258 H   0  0  0  0  0  0  0  0  0  0  0  0
    0.4830    1.1144   -1.0551 H   0  0  0  0  0  0  0  0  0  0  0  0
    4.5820    0.1573    0.8317 H   0  0  0  0  0  0  0  0  0  0  0  0
    3.3399   -0.6647    1.7899 H   0  0  0  0  0  0  0  0  0  0  0  0
    4.1366   -1.5330    0.4540 H   0  0  0  0  0  0  0  0  0  0  0  0
  2  1  1  0
  3  1  2  0
  4  1  2  0
  5  8  1  0
  6  5  2  0
  7  1  1  0
  8 10  1  0
  9  7  1  0
 10  9  1  0
 11  5  1  0
 13 12  1  0
 14 12  2  0
 15 12  2  0
 16 19  1  0
 17 16  2  0
 18 12  1  0
 19 21  1  0
 20 18  1  0
 21 20  1  0
 22 16  1  0
  7 24  1  0
  7 25  1  0
  8 26  1  0
  9 27  1  0
  9 28  1  0
 10 29  1  0
 10 30  1  0
 11 31  1  0
 11 32  1  0
 11 33  1  0
 18 34  1  0
 18 35  1  0
 19 36  1  0
 20 37  1  0
 20 38  1  0
 21 39  1  0
 21 40  1  0
 22 41  1  0
 22 42  1  0
 22 43  1  0
M  CHG  3   2  -1  13  -1  23   2
M  END
$$$$
