
     RDKit          3D

 43 40  0  0  0  0  0  0  0  0999 V2000
   -2.3915   -0.9664   -1.7236 S   0  0  0  0  0  0  0  0  0  0  0  0
   -1.7025    0.1713   -2.3363 O   0  0  0  0  0  0  0  0  0  0  0  0
   -3.7290   -0.6861   -1.2042 O   0  0  0  0  0  0  0  0  0  0  0  0
   -2.2613   -2.2250   -2.4503 O   0  0  0  0  0  0  0  0  0  0  0  0
    2.1971    0.7314    0.8424 C   0  0  0  0  0  0  0  0  0  0  0  0
    2.6104    0.5342    1.9850 O   0  0  0  0  0  0  0  0  0  0  0  0
   -1.4374   -1.2558   -0.2486 C   0  0  0  0  0  0  0  0  0  0  0  0
    0.8871    0.5690    0.4637 N   0  0  0  0  0  0  0  0  0  0  0  0
   -1.4781   -0.0650    0.7079 C   0  0  0  0  0  0  0  0  0  0  0  0
   -0.1378    0.1414    1.4002 C   0  0  0  0  0  0  0  0  0  0  0  0
    3.1100    1.1924   -0.2660 C   0  0  0  0  0  0  0  0  0  0  0  0
   -3.6612    0.0917    0.7664 S   0  0  0  0  0  0  0  0  0  0  0  0
   -3.3332   -0.7021    1.9495 O   0  0  0  0  0  0  0  0  0  0  0  0
   -4.8140   -0.3892    0.0050 O   0  0  0  0  0  0  0  0  0  0  0  0
   -3.6051    1.5401    0.9542 O   0  0  0  0  0  0  0  0  0  0  0  0
    2.6406    0.0173   -0.7050 C   0  0  0  0  0  0  0  0  0  0  0  0
    2.7009   -0.1077   -1.9255 O   0  0  0  0  0  0  0  0  0  0  0  0
   -2.3011   -0.2313   -0.3328 C   0  0  0  0  0  0  0  0  0  0  0  0
    1.4663    0.0542    0.0070 N   0  0  0  0  0  0  0  0  0  0  0  0
   -0.9645    0.1829    0.2644 C   0  0  0  0  0  0  0  0  0  0  0  0
    0.1938   -0.2497   -0.6214 C   0  0  0  0  0  0  0  0  0  0  0  0
    3.8767    0.1977    0.1362 C   0  0  0  0  0  0  0  0  0  0  0  0
    0.0000    0.0000    0.0000 Ca  0  0  0  0  0 15  0  0  0  0  0  0
   -0.4145   -1.4875   -0.5890 H   0  0  0  0  0  0  0  0  0  0  0  0
   -1.8362   -2.1539    0.2412 H   0  0  0  0  0  0  0  0  0  0  0  0
    0.5912    0.8111   -0.4858 H   0  0  0  0  0  0  0  0  0  0  0  0
   -2.2600   -0.2392    1.4591 H   0  0  0  0  0  0  0  0  0  0  0  0
   -1.7500    0.8668    0.1916 H   0  0  0  0  0  0  0  0  0  0  0  0
   -0.2253    0.9169    2.1686 H   0  0  0  0  0  0  0  0  0  0  0  0
    0.1994   -0.7804    1.8978 H   0  0  0  0  0  0  0  0  0  0  0  0
    3.9644    0.5060   -0.3373 H   0  0  0  0  0  0  0  0  0  0  0  0
    2.5989    1.2165   -1.2383 H   0  0  0  0  0  0  0  0  0  0  0  0
    3.4650    2.2023   -0.0289 H   0  0  0  0  0  0  0  0  0  0  0  0
   -2.3170   -1.3065   -0.5453 H   0  0  0  0  0  0  0  0  0  0  0  0
   -2.4933    0.3088   -1.2644 H   0  0  0  0  0  0  0  0  0  0  0  0
    1.5121   -0.0686    1.0139 H   0  0  0  0  0  0  0  0  0  0  0  0
   -0.8432   -0.2579    1.2614 H   0  0  0  0  0  0  0  0  0  0  0  0
   -0.9359    1.2685    0.4070 H   0  0  0  0  0  0  0  0  0  0  0  0
    0.1705   -1.3327   -0.7879 H   0  0  0  0  0  0  0  0  0  0  0  0
    0.1488    0.2407   -1.6027 H   0  0  0  0  0  0  0  0  0  0  0  0
    4.2960    1.1975   -0.0565 H   0  0  0  0  0  0  0  0  0  0  0  0
    3.6505    0.1163    1.2048 H   0  0  0  0  0  0  0  0  0  0  0  0
    4.6124   -0.5700   -0.1282 H   0  0  0  0  0  0  0  0  0  0  0  0
  2  1  1  0
  3  1  2  0
  4  1  2  0
  5  8  1  0
  6  5  2  0
  7  1  1  0
  8 10  1  0
  9  7  1  0
 10  9  1  0
 11  5  1  0
 13 12  1  0
 14 12  2  0
 15 12  2  0
 16 19  1  0
 17 16  2  0
 18 12  1  0
 19 21  1  0
 20 18  1  0
 21 20  1  0
 22 16  1  0
  7 24  1  0
  7 25  1  0
  8 26  1  0
  9 27  1  0
  9 28  1  0
 10 29  1  0
 10 30  1  0
 11 31  1  0
 11 32  1  0
 11 33  1  0
 18 34  1  0
 18 35  1  0
 19 36  1  0
 20 37  1  0
 20 38  1  0
 21 39  1  0
 21 40  1  0
 22 41  1  0
 22 42  1  0
 22 43  1  0
M  CHG  3   2  -1  13  -1  23   2
M  END
$$$$
