
     RDKit          3D

110111  0  0  0  0  0  0  0  0999 V2000
   48.3152    9.1984   22.3432 N   0  0  0  0  0  0  0  0  0  0  0  0
   48.4628    9.7183   21.0689 C   0  0  0  0  0  0  0  0  0  0  0  0
   49.5003    8.6716   23.0242 C   0  0  0  0  0  0  0  0  0  0  0  0
   47.0391    8.7031   22.8721 C   0  0  0  0  0  0  0  0  0  0  0  0
   47.2913   10.1167   20.4757 N   0  0  0  0  0  0  0  0  0  0  0  0
   49.5462    9.8057   20.4997 O   0  0  0  0  0  0  0  0  0  0  0  0
   49.3035    7.1897   23.3604 C   0  0  0  0  0  0  0  0  0  0  0  0
   47.2095    8.0016   24.2247 C   0  0  0  0  0  0  0  0  0  0  0  0
   47.2886   10.6661   19.1310 C   0  0  0  0  0  0  0  0  0  0  0  0
   48.1498    6.9204   24.1774 O   0  0  0  0  0  0  0  0  0  0  0  0
   47.8751   12.0863   19.0579 C   0  0  0  0  0  0  0  0  0  0  0  0
   47.7058   12.6650   17.7152 N   0  0  0  0  0  0  0  0  0  0  0  0
   48.3794   13.9764   17.6288 C   0  0  0  0  0  0  0  0  0  0  0  0
   48.2859   14.5091   16.1839 C   0  0  1  0  0  0  0  0  0  0  0  0
   49.0915   15.8044   16.0058 C   0  0  0  0  0  0  0  0  0  0  0  0
   48.8033   13.4924   15.3093 O   0  0  0  0  0  0  0  0  0  0  0  0
   48.2589   16.8647   15.5166 O   0  0  0  0  0  0  0  0  0  0  0  0
   48.1697   17.0540   14.1667 C   0  0  0  0  0  0  0  0  0  0  0  0
   47.6057   18.2762   13.7828 C   0  0  0  0  0  0  0  0  0  0  0  0
   48.5695   16.1493   13.1834 C   0  0  0  0  0  0  0  0  0  0  0  0
   47.4581   18.6055   12.4330 C   0  0  0  0  0  0  0  0  0  0  0  0
   48.4180   16.4736   11.8307 C   0  0  0  0  0  0  0  0  0  0  0  0
   47.8701   17.6957   11.4659 C   0  0  0  0  0  0  0  0  0  0  0  0
   47.7521   17.9704   10.1363 O   0  0  0  0  0  0  0  0  0  0  0  0
   48.2307   15.6040   14.7022 N   0  0  0  0  0  0  0  0  0  0  0  0
   48.9024   15.3458   15.8777 C   0  0  0  0  0  0  0  0  0  0  0  0
   48.2624   16.9599   14.1482 C   0  0  0  0  0  0  0  0  0  0  0  0
   47.4232   14.6385   13.9498 C   0  0  0  0  0  0  0  0  0  0  0  0
   48.8630   14.0341   16.2815 N   0  0  0  0  0  0  0  0  0  0  0  0
   49.4826   16.2122   16.5227 O   0  0  0  0  0  0  0  0  0  0  0  0
   48.2119   16.9266   12.6182 C   0  0  0  0  0  0  0  0  0  0  0  0
   46.4400   15.3428   13.0114 C   0  0  0  0  0  0  0  0  0  0  0  0
   49.6209   13.6091   17.4492 C   0  0  0  0  0  0  0  0  0  0  0  0
   47.0932   16.2075   12.0743 O   0  0  0  0  0  0  0  0  0  0  0  0
   49.0710   14.1324   18.7920 C   0  0  0  0  0  0  0  0  0  0  0  0
   47.6099   14.0301   18.9507 N   0  0  0  0  0  0  0  0  0  0  0  0
   47.0900   12.6562   19.0572 C   0  0  0  0  0  0  0  0  0  0  0  0
   46.9665   12.1649   20.5164 C   0  0  1  0  0  0  0  0  0  0  0  0
   48.3067   11.7164   21.1166 C   0  0  0  0  0  0  0  0  0  0  0  0
   46.4093   13.2332   21.3022 O   0  0  0  0  0  0  0  0  0  0  0  0
   48.1214   10.9374   22.3065 O   0  0  0  0  0  0  0  0  0  0  0  0
   47.9108    9.5922   22.1924 C   0  0  0  0  0  0  0  0  0  0  0  0
   47.7630    8.8735   21.0030 C   0  0  0  0  0  0  0  0  0  0  0  0
   47.8354    8.9151   23.4140 C   0  0  0  0  0  0  0  0  0  0  0  0
   47.5384    7.4921   21.0386 C   0  0  0  0  0  0  0  0  0  0  0  0
   47.6195    7.5356   23.4517 C   0  0  0  0  0  0  0  0  0  0  0  0
   47.4695    6.8359   22.2629 C   0  0  0  0  0  0  0  0  0  0  0  0
   47.2551    5.4916   22.3375 O   0  0  0  0  0  0  0  0  0  0  0  0
   48.6356   12.2703   18.4508 C   0  0  0  0  0  0  0  0  0  0  0  0
   47.6604   12.9502   17.8342 C   0  0  0  0  0  0  0  0  0  0  0  0
   47.9026   13.4789   16.4905 C   0  0  0  0  0  0  0  0  0  0  0  0
   46.8149   14.1296   16.0515 O   0  0  0  0  0  0  0  0  0  0  0  0
   48.9149   13.3748   15.8267 O   0  0  0  0  0  0  0  0  0  0  0  0
   48.4878   11.7063   19.7940 C   0  0  0  0  0  0  0  0  0  0  0  0
   47.2889   11.9361   20.3492 O   0  0  0  0  0  0  0  0  0  0  0  0
   49.3516   11.0793   20.3784 O   0  0  0  0  0  0  0  0  0  0  0  0
   49.6142    9.2572   23.9437 H   0  0  0  0  0  0  0  0  0  0  0  0
   50.4069    8.8065   22.4271 H   0  0  0  0  0  0  0  0  0  0  0  0
   46.3440    9.5435   22.9692 H   0  0  0  0  0  0  0  0  0  0  0  0
   46.6364    7.9962   22.1365 H   0  0  0  0  0  0  0  0  0  0  0  0
   46.5777   10.4580   21.0989 H   0  0  0  0  0  0  0  0  0  0  0  0
   50.1784    6.8021   23.8899 H   0  0  0  0  0  0  0  0  0  0  0  0
   49.1939    6.6041   22.4408 H   0  0  0  0  0  0  0  0  0  0  0  0
   46.2513    7.5916   24.5581 H   0  0  0  0  0  0  0  0  0  0  0  0
   47.5458    8.7076   24.9921 H   0  0  0  0  0  0  0  0  0  0  0  0
   46.2445   10.6700   18.8011 H   0  0  0  0  0  0  0  0  0  0  0  0
   47.8511    9.9886   18.4770 H   0  0  0  0  0  0  0  0  0  0  0  0
   48.9403   12.0512   19.3148 H   0  0  0  0  0  0  0  0  0  0  0  0
   47.3812   12.7219   19.8037 H   0  0  0  0  0  0  0  0  0  0  0  0
   46.7105   12.7825   17.5179 H   0  0  0  0  0  0  0  0  0  0  0  0
   47.9254   14.6929   18.3234 H   0  0  0  0  0  0  0  0  0  0  0  0
   49.4371   13.8484   17.8927 H   0  0  0  0  0  0  0  0  0  0  0  0
   47.2344   14.6638   15.9144 H   0  0  0  0  0  0  0  0  0  0  0  0
   49.9905   15.6765   15.3873 H   0  0  0  0  0  0  0  0  0  0  0  0
   49.4477   16.1582   16.9805 H   0  0  0  0  0  0  0  0  0  0  0  0
   48.5136   12.6474   15.7132 H   0  0  0  0  0  0  0  0  0  0  0  0
   47.2860   18.9837   14.5459 H   0  0  0  0  0  0  0  0  0  0  0  0
   48.9923   15.1805   13.4265 H   0  0  0  0  0  0  0  0  0  0  0  0
   47.0254   19.5617   12.1627 H   0  0  0  0  0  0  0  0  0  0  0  0
   48.7270   15.7663   11.0649 H   0  0  0  0  0  0  0  0  0  0  0  0
   47.3795   18.8611   10.0351 H   0  0  0  0  0  0  0  0  0  0  0  0
   47.3841   17.4836   14.5427 H   0  0  0  0  0  0  0  0  0  0  0  0
   49.1534   17.4971   14.4874 H   0  0  0  0  0  0  0  0  0  0  0  0
   46.8882   13.9779   14.6401 H   0  0  0  0  0  0  0  0  0  0  0  0
   48.1266   14.0384   13.3619 H   0  0  0  0  0  0  0  0  0  0  0  0
   48.8607   13.3771   15.5166 H   0  0  0  0  0  0  0  0  0  0  0  0
   49.1189   16.4492   12.2270 H   0  0  0  0  0  0  0  0  0  0  0  0
   48.1816   17.9465   12.2195 H   0  0  0  0  0  0  0  0  0  0  0  0
   45.8694   14.6048   12.4363 H   0  0  0  0  0  0  0  0  0  0  0  0
   45.7232   15.9437   13.5847 H   0  0  0  0  0  0  0  0  0  0  0  0
   49.6096   12.5146   17.4457 H   0  0  0  0  0  0  0  0  0  0  0  0
   50.6606   13.9300   17.3223 H   0  0  0  0  0  0  0  0  0  0  0  0
   49.3216   15.1953   18.8854 H   0  0  0  0  0  0  0  0  0  0  0  0
   49.5946   13.6367   19.6137 H   0  0  0  0  0  0  0  0  0  0  0  0
   47.2143   14.4570   18.1056 H   0  0  0  0  0  0  0  0  0  0  0  0
   46.0668   12.6989   18.6615 H   0  0  0  0  0  0  0  0  0  0  0  0
   47.6268   11.9378   18.4289 H   0  0  0  0  0  0  0  0  0  0  0  0
   46.2420   11.3453   20.5562 H   0  0  0  0  0  0  0  0  0  0  0  0
   48.9378   11.1851   20.3938 H   0  0  0  0  0  0  0  0  0  0  0  0
   48.8726   12.5952   21.4430 H   0  0  0  0  0  0  0  0  0  0  0  0
   46.7647   14.0519   20.8948 H   0  0  0  0  0  0  0  0  0  0  0  0
   47.8048    9.3528   20.0322 H   0  0  0  0  0  0  0  0  0  0  0  0
   47.9537    9.4657   24.3433 H   0  0  0  0  0  0  0  0  0  0  0  0
   47.4246    6.9491   20.1041 H   0  0  0  0  0  0  0  0  0  0  0  0
   47.5642    7.0171   24.4040 H   0  0  0  0  0  0  0  0  0  0  0  0
   47.1328    5.1501   21.4364 H   0  0  0  0  0  0  0  0  0  0  0  0
   49.5995   12.0943   17.9845 H   0  0  0  0  0  0  0  0  0  0  0  0
   46.6922   13.1376   18.2809 H   0  0  0  0  0  0  0  0  0  0  0  0
   47.0682   14.4369   15.1571 H   0  0  0  0  0  0  0  0  0  0  0  0
   47.3575   11.5055   21.2259 H   0  0  0  0  0  0  0  0  0  0  0  0
  3  7  1  0
  4  8  1  0
  5  9  1  0
  7 10  1  0
  9 11  1  0
 11 12  1  0
 12 13  1  0
 13 14  1  0
 14 15  1  0
 14 16  1  0
 15 17  1  0
 17 18  1  0
 18 19  2  0
 18 20  1  0
 19 21  1  0
 20 22  2  0
 21 23  2  0
 23 24  1  0
  8 10  1  0
 22 23  1  0
  1  2  1  0
  1  3  1  0
  1  4  1  0
  2  5  1  0
  2  6  2  0
 27 31  1  0
 28 32  1  0
 29 33  1  0
 31 34  1  0
 33 35  1  0
 35 36  1  0
 36 37  1  0
 37 38  1  0
 38 39  1  0
 38 40  1  0
 39 41  1  0
 41 42  1  0
 42 43  2  0
 42 44  1  0
 43 45  1  0
 44 46  2  0
 45 47  2  0
 47 48  1  0
 32 34  1  0
 46 47  1  0
 25 26  1  0
 25 27  1  0
 25 28  1  0
 26 29  1  0
 26 30  2  0
 49 50  2  0
 49 54  1  0
 50 51  1  0
 51 52  1  0
 51 53  2  0
 54 55  1  0
 54 56  2  0
  3 57  1  0
  3 58  1  0
  4 59  1  0
  4 60  1  0
  5 61  1  0
  7 62  1  0
  7 63  1  0
  8 64  1  0
  8 65  1  0
  9 66  1  0
  9 67  1  0
 11 68  1  0
 11 69  1  0
 12 70  1  0
 13 71  1  0
 13 72  1  0
 14 73  1  6
 15 74  1  0
 15 75  1  0
 16 76  1  0
 19 77  1  0
 20 78  1  0
 21 79  1  0
 22 80  1  0
 24 81  1  0
 27 82  1  0
 27 83  1  0
 28 84  1  0
 28 85  1  0
 29 86  1  0
 31 87  1  0
 31 88  1  0
 32 89  1  0
 32 90  1  0
 33 91  1  0
 33 92  1  0
 35 93  1  0
 35 94  1  0
 36 95  1  0
 37 96  1  0
 37 97  1  0
 38 98  1  6
 39 99  1  0
 39100  1  0
 40101  1  0
 43102  1  0
 44103  1  0
 45104  1  0
 46105  1  0
 48106  1  0
 49107  1  0
 50108  1  0
 52109  1  0
 55110  1  0
M  END
> <Uni-Dock RESULT> 
ENERGY=   -5.407  LOWER_BOUND=    0.000  UPPER_BOUND=    0.000
INTER + INTRA:          -5.407
INTER:                  -5.407
INTRA:                   0.000
UNBOUND:                 0.000

$$$$

     RDKit          3D

110111  0  0  0  0  0  0  0  0999 V2000
   45.4033    5.2150   12.1130 N   0  0  0  0  0  0  0  0  0  0  0  0
   46.0956    6.3930   11.8923 C   0  0  0  0  0  0  0  0  0  0  0  0
   45.2779    4.2610   11.0087 C   0  0  0  0  0  0  0  0  0  0  0  0
   44.4041    5.0509   13.1753 C   0  0  0  0  0  0  0  0  0  0  0  0
   46.0972    7.2620   12.9543 N   0  0  0  0  0  0  0  0  0  0  0  0
   46.6530    6.6567   10.8314 O   0  0  0  0  0  0  0  0  0  0  0  0
   43.8006    4.0249   10.6773 C   0  0  0  0  0  0  0  0  0  0  0  0
   43.6541    3.7186   13.0598 C   0  0  0  0  0  0  0  0  0  0  0  0
   46.7692    8.5465   12.8625 C   0  0  0  0  0  0  0  0  0  0  0  0
   43.0188    3.5451   11.7863 O   0  0  0  0  0  0  0  0  0  0  0  0
   48.3028    8.4284   12.8835 C   0  0  0  0  0  0  0  0  0  0  0  0
   48.9392    9.7538   12.9520 N   0  0  0  0  0  0  0  0  0  0  0  0
   50.4071    9.6284   12.8497 C   0  0  0  0  0  0  0  0  0  0  0  0
   51.0423   11.0338   12.8089 C   0  0  1  0  0  0  0  0  0  0  0  0
   52.5564   10.9628   12.5615 C   0  0  0  0  0  0  0  0  0  0  0  0
   50.4115   11.7675   11.7458 O   0  0  0  0  0  0  0  0  0  0  0  0
   53.2799   11.6263   13.6070 O   0  0  0  0  0  0  0  0  0  0  0  0
   53.5894   12.9473   13.4490 C   0  0  0  0  0  0  0  0  0  0  0  0
   54.5491   13.4350   14.3437 C   0  0  0  0  0  0  0  0  0  0  0  0
   53.0310   13.8140   12.5097 C   0  0  0  0  0  0  0  0  0  0  0  0
   54.9653   14.7679   14.2929 C   0  0  0  0  0  0  0  0  0  0  0  0
   53.4415   15.1507   12.4597 C   0  0  0  0  0  0  0  0  0  0  0  0
   54.4048   15.6157   13.3445 C   0  0  0  0  0  0  0  0  0  0  0  0
   54.7794   16.9226   13.2504 O   0  0  0  0  0  0  0  0  0  0  0  0
   52.2130   12.4507   12.9471 N   0  0  0  0  0  0  0  0  0  0  0  0
   52.0803   11.1472   12.5194 C   0  0  0  0  0  0  0  0  0  0  0  0
   53.5400   12.9433   13.3253 C   0  0  0  0  0  0  0  0  0  0  0  0
   51.1178   13.4119   13.1110 C   0  0  0  0  0  0  0  0  0  0  0  0
   50.8099   10.8004   12.1309 N   0  0  0  0  0  0  0  0  0  0  0  0
   53.0128   10.3516   12.4938 O   0  0  0  0  0  0  0  0  0  0  0  0
   53.6820   14.4336   13.0035 C   0  0  0  0  0  0  0  0  0  0  0  0
   51.5141   14.5570   14.0464 C   0  0  0  0  0  0  0  0  0  0  0  0
   50.5571    9.4861   11.5590 C   0  0  0  0  0  0  0  0  0  0  0  0
   52.6704   15.2688   13.5896 O   0  0  0  0  0  0  0  0  0  0  0  0
   50.6638    8.3213   12.5646 C   0  0  0  0  0  0  0  0  0  0  0  0
   50.0028    8.5529   13.8607 N   0  0  0  0  0  0  0  0  0  0  0  0
   48.5326    8.6203   13.8064 C   0  0  0  0  0  0  0  0  0  0  0  0
   47.8523    7.2568   14.0598 C   0  0  1  0  0  0  0  0  0  0  0  0
   47.8670    6.3383   12.8296 C   0  0  0  0  0  0  0  0  0  0  0  0
   48.5267    6.6179   15.1580 O   0  0  0  0  0  0  0  0  0  0  0  0
   46.9330    5.2580   12.9624 O   0  0  0  0  0  0  0  0  0  0  0  0
   45.6325    5.4565   12.5932 C   0  0  0  0  0  0  0  0  0  0  0  0
   45.0657    6.6607   12.1666 C   0  0  0  0  0  0  0  0  0  0  0  0
   44.8293    4.3144   12.6757 C   0  0  0  0  0  0  0  0  0  0  0  0
   43.7080    6.7193   11.8303 C   0  0  0  0  0  0  0  0  0  0  0  0
   43.4763    4.3688   12.3328 C   0  0  0  0  0  0  0  0  0  0  0  0
   42.9261    5.5723   11.9159 C   0  0  0  0  0  0  0  0  0  0  0  0
   41.6014    5.5898   11.5940 O   0  0  0  0  0  0  0  0  0  0  0  0
   48.8326    8.8106   12.1393 C   0  0  0  0  0  0  0  0  0  0  0  0
   49.1693    9.6438   13.1322 C   0  0  0  0  0  0  0  0  0  0  0  0
   49.9139   10.8638   12.8147 C   0  0  0  0  0  0  0  0  0  0  0  0
   50.1593   11.5558   13.9372 O   0  0  0  0  0  0  0  0  0  0  0  0
   50.2805   11.2421   11.7198 O   0  0  0  0  0  0  0  0  0  0  0  0
   48.0910    7.5673   12.3589 C   0  0  0  0  0  0  0  0  0  0  0  0
   47.7837    7.3395   13.6442 O   0  0  0  0  0  0  0  0  0  0  0  0
   47.7654    6.7930   11.4784 O   0  0  0  0  0  0  0  0  0  0  0  0
   45.7435    3.3295   11.3505 H   0  0  0  0  0  0  0  0  0  0  0  0
   45.8160    4.5966   10.1174 H   0  0  0  0  0  0  0  0  0  0  0  0
   44.9038    5.1181   14.1472 H   0  0  0  0  0  0  0  0  0  0  0  0
   43.6959    5.8835   13.0849 H   0  0  0  0  0  0  0  0  0  0  0  0
   46.0656    6.8389   13.8676 H   0  0  0  0  0  0  0  0  0  0  0  0
   43.7059    3.2947    9.8687 H   0  0  0  0  0  0  0  0  0  0  0  0
   43.3366    4.9553   10.3316 H   0  0  0  0  0  0  0  0  0  0  0  0
   42.8769    3.6577   13.8276 H   0  0  0  0  0  0  0  0  0  0  0  0
   44.3326    2.8726   13.2161 H   0  0  0  0  0  0  0  0  0  0  0  0
   46.4231    9.1378   13.7166 H   0  0  0  0  0  0  0  0  0  0  0  0
   46.4393    9.0471   11.9440 H   0  0  0  0  0  0  0  0  0  0  0  0
   48.6374    7.9027   11.9816 H   0  0  0  0  0  0  0  0  0  0  0  0
   48.6085    7.8222   13.7457 H   0  0  0  0  0  0  0  0  0  0  0  0
   48.6991   10.2017   13.8381 H   0  0  0  0  0  0  0  0  0  0  0  0
   50.8084    9.0593   13.6964 H   0  0  0  0  0  0  0  0  0  0  0  0
   50.6526    9.1003   11.9193 H   0  0  0  0  0  0  0  0  0  0  0  0
   50.8244   11.5650   13.7429 H   0  0  0  0  0  0  0  0  0  0  0  0
   52.8529   11.3275   11.5685 H   0  0  0  0  0  0  0  0  0  0  0  0
   52.8928    9.9203   12.6094 H   0  0  0  0  0  0  0  0  0  0  0  0
   49.4761   11.4746   11.7639 H   0  0  0  0  0  0  0  0  0  0  0  0
   54.9838   12.7648   15.0832 H   0  0  0  0  0  0  0  0  0  0  0  0
   52.2689   13.4928   11.8079 H   0  0  0  0  0  0  0  0  0  0  0  0
   55.7156   15.1181   14.9922 H   0  0  0  0  0  0  0  0  0  0  0  0
   53.0033   15.8263   11.7291 H   0  0  0  0  0  0  0  0  0  0  0  0
   55.4708   17.0957   13.9095 H   0  0  0  0  0  0  0  0  0  0  0  0
   53.6428   12.7794   14.4041 H   0  0  0  0  0  0  0  0  0  0  0  0
   54.3247   12.3696   12.8227 H   0  0  0  0  0  0  0  0  0  0  0  0
   50.2241   12.9022   13.4861 H   0  0  0  0  0  0  0  0  0  0  0  0
   50.9034   13.8100   12.1130 H   0  0  0  0  0  0  0  0  0  0  0  0
   50.3011   11.5553   11.6973 H   0  0  0  0  0  0  0  0  0  0  0  0
   53.6320   14.5856   11.9182 H   0  0  0  0  0  0  0  0  0  0  0  0
   54.6576   14.8009   13.3403 H   0  0  0  0  0  0  0  0  0  0  0  0
   50.6944   15.2795   14.1303 H   0  0  0  0  0  0  0  0  0  0  0  0
   51.7259   14.1765   15.0533 H   0  0  0  0  0  0  0  0  0  0  0  0
   49.5477    9.5196   11.1369 H   0  0  0  0  0  0  0  0  0  0  0  0
   51.2572    9.3285   10.7312 H   0  0  0  0  0  0  0  0  0  0  0  0
   51.7225    8.1393   12.7822 H   0  0  0  0  0  0  0  0  0  0  0  0
   50.3017    7.4038   12.0934 H   0  0  0  0  0  0  0  0  0  0  0  0
   50.3526    9.4613   14.1856 H   0  0  0  0  0  0  0  0  0  0  0  0
   48.2381    9.2687   14.6420 H   0  0  0  0  0  0  0  0  0  0  0  0
   48.1521    9.1039   12.9006 H   0  0  0  0  0  0  0  0  0  0  0  0
   46.8229    7.4283   14.3905 H   0  0  0  0  0  0  0  0  0  0  0  0
   47.7057    6.8837   11.8918 H   0  0  0  0  0  0  0  0  0  0  0  0
   48.8454    5.8536   12.7479 H   0  0  0  0  0  0  0  0  0  0  0  0
   49.4629    6.8978   15.0704 H   0  0  0  0  0  0  0  0  0  0  0  0
   45.6432    7.5745   12.0940 H   0  0  0  0  0  0  0  0  0  0  0  0
   45.2631    3.3732   13.0022 H   0  0  0  0  0  0  0  0  0  0  0  0
   43.2835    7.6642   11.5015 H   0  0  0  0  0  0  0  0  0  0  0  0
   42.8600    3.4772   12.3977 H   0  0  0  0  0  0  0  0  0  0  0  0
   41.3546    6.4996   11.3600 H   0  0  0  0  0  0  0  0  0  0  0  0
   49.0903    9.0127   11.1048 H   0  0  0  0  0  0  0  0  0  0  0  0
   48.9230    9.4614   14.1706 H   0  0  0  0  0  0  0  0  0  0  0  0
   50.6485   12.3449   13.6263 H   0  0  0  0  0  0  0  0  0  0  0  0
   47.3040    6.4863   13.6161 H   0  0  0  0  0  0  0  0  0  0  0  0
  3  7  1  0
  4  8  1  0
  5  9  1  0
  7 10  1  0
  9 11  1  0
 11 12  1  0
 12 13  1  0
 13 14  1  0
 14 15  1  0
 14 16  1  0
 15 17  1  0
 17 18  1  0
 18 19  2  0
 18 20  1  0
 19 21  1  0
 20 22  2  0
 21 23  2  0
 23 24  1  0
  8 10  1  0
 22 23  1  0
  1  2  1  0
  1  3  1  0
  1  4  1  0
  2  5  1  0
  2  6  2  0
 27 31  1  0
 28 32  1  0
 29 33  1  0
 31 34  1  0
 33 35  1  0
 35 36  1  0
 36 37  1  0
 37 38  1  0
 38 39  1  0
 38 40  1  0
 39 41  1  0
 41 42  1  0
 42 43  2  0
 42 44  1  0
 43 45  1  0
 44 46  2  0
 45 47  2  0
 47 48  1  0
 32 34  1  0
 46 47  1  0
 25 26  1  0
 25 27  1  0
 25 28  1  0
 26 29  1  0
 26 30  2  0
 49 50  2  0
 49 54  1  0
 50 51  1  0
 51 52  1  0
 51 53  2  0
 54 55  1  0
 54 56  2  0
  3 57  1  0
  3 58  1  0
  4 59  1  0
  4 60  1  0
  5 61  1  0
  7 62  1  0
  7 63  1  0
  8 64  1  0
  8 65  1  0
  9 66  1  0
  9 67  1  0
 11 68  1  0
 11 69  1  0
 12 70  1  0
 13 71  1  0
 13 72  1  0
 14 73  1  6
 15 74  1  0
 15 75  1  0
 16 76  1  0
 19 77  1  0
 20 78  1  0
 21 79  1  0
 22 80  1  0
 24 81  1  0
 27 82  1  0
 27 83  1  0
 28 84  1  0
 28 85  1  0
 29 86  1  0
 31 87  1  0
 31 88  1  0
 32 89  1  0
 32 90  1  0
 33 91  1  0
 33 92  1  0
 35 93  1  0
 35 94  1  0
 36 95  1  0
 37 96  1  0
 37 97  1  0
 38 98  1  6
 39 99  1  0
 39100  1  0
 40101  1  0
 43102  1  0
 44103  1  0
 45104  1  0
 46105  1  0
 48106  1  0
 49107  1  0
 50108  1  0
 52109  1  0
 55110  1  0
M  END
> <Uni-Dock RESULT> 
ENERGY=   -5.394  LOWER_BOUND=    7.094  UPPER_BOUND=    8.596
INTER + INTRA:          -5.394
INTER:                  -5.394
INTRA:                   0.000
UNBOUND:                 0.000

$$$$

     RDKit          3D

110111  0  0  0  0  0  0  0  0999 V2000
   45.1171    5.9153   11.6388 N   0  0  0  0  0  0  0  0  0  0  0  0
   45.7983    6.3537   12.7611 C   0  0  0  0  0  0  0  0  0  0  0  0
   43.7321    6.3520   11.4473 C   0  0  0  0  0  0  0  0  0  0  0  0
   45.4826    4.7063   10.8915 C   0  0  0  0  0  0  0  0  0  0  0  0
   47.0608    5.8348   12.9017 N   0  0  0  0  0  0  0  0  0  0  0  0
   45.3163    7.1308   13.5793 O   0  0  0  0  0  0  0  0  0  0  0  0
   42.7965    5.1396   11.3948 C   0  0  0  0  0  0  0  0  0  0  0  0
   44.4407    4.3518    9.8241 C   0  0  0  0  0  0  0  0  0  0  0  0
   47.8880    6.1910   14.0413 C   0  0  0  0  0  0  0  0  0  0  0  0
   43.1224    4.1898   10.3640 O   0  0  0  0  0  0  0  0  0  0  0  0
   48.4259    7.6304   13.9705 C   0  0  0  0  0  0  0  0  0  0  0  0
   49.3848    7.8957   15.0551 N   0  0  0  0  0  0  0  0  0  0  0  0
   49.7983    9.3133   15.0444 C   0  0  0  0  0  0  0  0  0  0  0  0
   50.7119    9.5924   16.2559 C   0  0  1  0  0  0  0  0  0  0  0  0
   51.0572   11.0844   16.3716 C   0  0  0  0  0  0  0  0  0  0  0  0
   50.0140    9.1635   17.4372 O   0  0  0  0  0  0  0  0  0  0  0  0
   52.4772   11.2852   16.3684 O   0  0  0  0  0  0  0  0  0  0  0  0
   53.1340   11.3178   17.5657 C   0  0  0  0  0  0  0  0  0  0  0  0
   54.4380   11.8231   17.5047 C   0  0  0  0  0  0  0  0  0  0  0  0
   52.6265   10.8880   18.7916 C   0  0  0  0  0  0  0  0  0  0  0  0
   55.2244   11.9191   18.6556 C   0  0  0  0  0  0  0  0  0  0  0  0
   53.4133   10.9777   19.9451 C   0  0  0  0  0  0  0  0  0  0  0  0
   54.6996   11.4944   19.8708 C   0  0  0  0  0  0  0  0  0  0  0  0
   55.4237   11.5711   21.0228 O   0  0  0  0  0  0  0  0  0  0  0  0
   51.9732   10.3100   17.3922 N   0  0  0  0  0  0  0  0  0  0  0  0
   50.9366   10.6146   16.5365 C   0  0  0  0  0  0  0  0  0  0  0  0
   53.0170   11.3105   17.6291 C   0  0  0  0  0  0  0  0  0  0  0  0
   52.1680    9.0275   18.0760 C   0  0  0  0  0  0  0  0  0  0  0  0
   49.9794    9.6362   16.4284 N   0  0  0  0  0  0  0  0  0  0  0  0
   50.8709   11.6667   15.9106 O   0  0  0  0  0  0  0  0  0  0  0  0
   53.5678   11.1991   19.0536 C   0  0  0  0  0  0  0  0  0  0  0  0
   53.6200    8.8490   18.5269 C   0  0  0  0  0  0  0  0  0  0  0  0
   48.7797    9.8759   15.6399 C   0  0  0  0  0  0  0  0  0  0  0  0
   54.0595    9.8948   19.4020 O   0  0  0  0  0  0  0  0  0  0  0  0
   49.0183    9.9358   14.1171 C   0  0  0  0  0  0  0  0  0  0  0  0
   49.8923    8.8784   13.5801 N   0  0  0  0  0  0  0  0  0  0  0  0
   49.3270    7.5193   13.6286 C   0  0  0  0  0  0  0  0  0  0  0  0
   48.5828    7.1245   12.3338 C   0  0  1  0  0  0  0  0  0  0  0  0
   47.1708    7.7209   12.2449 C   0  0  0  0  0  0  0  0  0  0  0  0
   49.3721    7.5614   11.2135 O   0  0  0  0  0  0  0  0  0  0  0  0
   46.3786    7.0632   11.2464 O   0  0  0  0  0  0  0  0  0  0  0  0
   45.6984    5.9266   11.5819 C   0  0  0  0  0  0  0  0  0  0  0  0
   45.7558    5.2566   12.8070 C   0  0  0  0  0  0  0  0  0  0  0  0
   44.8857    5.4194   10.5628 C   0  0  0  0  0  0  0  0  0  0  0  0
   45.0094    4.0890   13.0063 C   0  0  0  0  0  0  0  0  0  0  0  0
   44.1339    4.2592   10.7623 C   0  0  0  0  0  0  0  0  0  0  0  0
   44.2047    3.6017   11.9820 C   0  0  0  0  0  0  0  0  0  0  0  0
   43.4614    2.4697   12.1398 O   0  0  0  0  0  0  0  0  0  0  0  0
   48.2393    8.2589   14.7126 C   0  0  0  0  0  0  0  0  0  0  0  0
   49.5570    8.0790   14.8700 C   0  0  0  0  0  0  0  0  0  0  0  0
   50.2038    8.5856   16.0819 C   0  0  0  0  0  0  0  0  0  0  0  0
   51.5170    8.3142   16.0478 O   0  0  0  0  0  0  0  0  0  0  0  0
   49.6806    9.1702   17.0097 O   0  0  0  0  0  0  0  0  0  0  0  0
   47.5058    7.7901   13.5353 C   0  0  0  0  0  0  0  0  0  0  0  0
   48.2750    7.1681   12.6298 O   0  0  0  0  0  0  0  0  0  0  0  0
   46.3092    7.9326   13.3654 O   0  0  0  0  0  0  0  0  0  0  0  0
   43.7072    6.8918   10.4938 H   0  0  0  0  0  0  0  0  0  0  0  0
   43.4108    7.0434   12.2317 H   0  0  0  0  0  0  0  0  0  0  0  0
   46.4617    4.8586   10.4254 H   0  0  0  0  0  0  0  0  0  0  0  0
   45.5617    3.8884   11.6179 H   0  0  0  0  0  0  0  0  0  0  0  0
   47.5471    5.6252   12.0451 H   0  0  0  0  0  0  0  0  0  0  0  0
   41.7654    5.4639   11.2281 H   0  0  0  0  0  0  0  0  0  0  0  0
   42.8184    4.6027   12.3497 H   0  0  0  0  0  0  0  0  0  0  0  0
   44.7131    3.4138    9.3307 H   0  0  0  0  0  0  0  0  0  0  0  0
   44.3950    5.1253    9.0495 H   0  0  0  0  0  0  0  0  0  0  0  0
   48.7178    5.4767   14.0558 H   0  0  0  0  0  0  0  0  0  0  0  0
   47.2996    6.0498   14.9562 H   0  0  0  0  0  0  0  0  0  0  0  0
   47.5874    8.3334   14.0369 H   0  0  0  0  0  0  0  0  0  0  0  0
   48.9084    7.7902   12.9978 H   0  0  0  0  0  0  0  0  0  0  0  0
   50.2078    7.3026   14.9350 H   0  0  0  0  0  0  0  0  0  0  0  0
   50.3234    9.5579   14.1137 H   0  0  0  0  0  0  0  0  0  0  0  0
   48.9026    9.9432   15.1221 H   0  0  0  0  0  0  0  0  0  0  0  0
   51.6223    8.9863   16.1795 H   0  0  0  0  0  0  0  0  0  0  0  0
   50.5800   11.5765   17.2301 H   0  0  0  0  0  0  0  0  0  0  0  0
   50.6991   11.6192   15.4840 H   0  0  0  0  0  0  0  0  0  0  0  0
   49.5269    8.3596   17.1588 H   0  0  0  0  0  0  0  0  0  0  0  0
   54.8417   12.1541   16.5496 H   0  0  0  0  0  0  0  0  0  0  0  0
   51.6309   10.4690   18.8903 H   0  0  0  0  0  0  0  0  0  0  0  0
   56.2282   12.3212   18.5822 H   0  0  0  0  0  0  0  0  0  0  0  0
   53.0179   10.6395   20.8998 H   0  0  0  0  0  0  0  0  0  0  0  0
   56.2850   11.9713   20.8221 H   0  0  0  0  0  0  0  0  0  0  0  0
   53.8130   11.1160   16.9012 H   0  0  0  0  0  0  0  0  0  0  0  0
   52.6355   12.3199   17.4472 H   0  0  0  0  0  0  0  0  0  0  0  0
   51.8657    8.2034   17.4213 H   0  0  0  0  0  0  0  0  0  0  0  0
   51.5102    9.0408   18.9521 H   0  0  0  0  0  0  0  0  0  0  0  0
   49.8280    9.1246   17.2840 H   0  0  0  0  0  0  0  0  0  0  0  0
   52.7809   11.4472   19.7765 H   0  0  0  0  0  0  0  0  0  0  0  0
   54.3835   11.9156   19.1997 H   0  0  0  0  0  0  0  0  0  0  0  0
   53.7371    7.9002   19.0627 H   0  0  0  0  0  0  0  0  0  0  0  0
   54.2926    8.8267   17.6606 H   0  0  0  0  0  0  0  0  0  0  0  0
   48.0859    9.0624   15.8743 H   0  0  0  0  0  0  0  0  0  0  0  0
   48.3219   10.8106   15.9820 H   0  0  0  0  0  0  0  0  0  0  0  0
   49.4972   10.8908   13.8726 H   0  0  0  0  0  0  0  0  0  0  0  0
   48.0544    9.9532   13.6016 H   0  0  0  0  0  0  0  0  0  0  0  0
   50.7330    8.8961   14.1682 H   0  0  0  0  0  0  0  0  0  0  0  0
   50.1907    6.8454   13.7021 H   0  0  0  0  0  0  0  0  0  0  0  0
   48.7208    7.3315   14.5209 H   0  0  0  0  0  0  0  0  0  0  0  0
   48.5362    6.0327   12.2685 H   0  0  0  0  0  0  0  0  0  0  0  0
   46.6537    7.7313   13.2121 H   0  0  0  0  0  0  0  0  0  0  0  0
   47.2347    8.7615   11.9104 H   0  0  0  0  0  0  0  0  0  0  0  0
   49.7988    8.3902   11.5192 H   0  0  0  0  0  0  0  0  0  0  0  0
   46.3763    5.6042   13.6244 H   0  0  0  0  0  0  0  0  0  0  0  0
   44.8320    5.9367    9.6088 H   0  0  0  0  0  0  0  0  0  0  0  0
   45.0668    3.5802   13.9649 H   0  0  0  0  0  0  0  0  0  0  0  0
   43.5039    3.8729    9.9668 H   0  0  0  0  0  0  0  0  0  0  0  0
   43.6422    2.1045   13.0215 H   0  0  0  0  0  0  0  0  0  0  0  0
   47.6335    8.7647   15.4574 H   0  0  0  0  0  0  0  0  0  0  0  0
   50.1800    7.5780   14.1400 H   0  0  0  0  0  0  0  0  0  0  0  0
   51.8560    8.6808   16.8899 H   0  0  0  0  0  0  0  0  0  0  0  0
   47.6436    6.9278   11.9210 H   0  0  0  0  0  0  0  0  0  0  0  0
  3  7  1  0
  4  8  1  0
  5  9  1  0
  7 10  1  0
  9 11  1  0
 11 12  1  0
 12 13  1  0
 13 14  1  0
 14 15  1  0
 14 16  1  0
 15 17  1  0
 17 18  1  0
 18 19  2  0
 18 20  1  0
 19 21  1  0
 20 22  2  0
 21 23  2  0
 23 24  1  0
  8 10  1  0
 22 23  1  0
  1  2  1  0
  1  3  1  0
  1  4  1  0
  2  5  1  0
  2  6  2  0
 27 31  1  0
 28 32  1  0
 29 33  1  0
 31 34  1  0
 33 35  1  0
 35 36  1  0
 36 37  1  0
 37 38  1  0
 38 39  1  0
 38 40  1  0
 39 41  1  0
 41 42  1  0
 42 43  2  0
 42 44  1  0
 43 45  1  0
 44 46  2  0
 45 47  2  0
 47 48  1  0
 32 34  1  0
 46 47  1  0
 25 26  1  0
 25 27  1  0
 25 28  1  0
 26 29  1  0
 26 30  2  0
 49 50  2  0
 49 54  1  0
 50 51  1  0
 51 52  1  0
 51 53  2  0
 54 55  1  0
 54 56  2  0
  3 57  1  0
  3 58  1  0
  4 59  1  0
  4 60  1  0
  5 61  1  0
  7 62  1  0
  7 63  1  0
  8 64  1  0
  8 65  1  0
  9 66  1  0
  9 67  1  0
 11 68  1  0
 11 69  1  0
 12 70  1  0
 13 71  1  0
 13 72  1  0
 14 73  1  6
 15 74  1  0
 15 75  1  0
 16 76  1  0
 19 77  1  0
 20 78  1  0
 21 79  1  0
 22 80  1  0
 24 81  1  0
 27 82  1  0
 27 83  1  0
 28 84  1  0
 28 85  1  0
 29 86  1  0
 31 87  1  0
 31 88  1  0
 32 89  1  0
 32 90  1  0
 33 91  1  0
 33 92  1  0
 35 93  1  0
 35 94  1  0
 36 95  1  0
 37 96  1  0
 37 97  1  0
 38 98  1  6
 39 99  1  0
 39100  1  0
 40101  1  0
 43102  1  0
 44103  1  0
 45104  1  0
 46105  1  0
 48106  1  0
 49107  1  0
 50108  1  0
 52109  1  0
 55110  1  0
M  END
> <Uni-Dock RESULT> 
ENERGY=   -5.323  LOWER_BOUND=    6.943  UPPER_BOUND=    9.543
INTER + INTRA:          -5.323
INTER:                  -5.323
INTRA:                   0.000
UNBOUND:                 0.000

$$$$

     RDKit          3D

110111  0  0  0  0  0  0  0  0999 V2000
   44.8712    5.6631   12.3268 N   0  0  0  0  0  0  0  0  0  0  0  0
   46.2123    6.0040   12.2933 C   0  0  0  0  0  0  0  0  0  0  0  0
   44.4669    4.4952   13.1130 C   0  0  0  0  0  0  0  0  0  0  0  0
   43.9083    6.0649   11.2949 C   0  0  0  0  0  0  0  0  0  0  0  0
   46.5121    7.0615   11.4718 N   0  0  0  0  0  0  0  0  0  0  0  0
   47.0742    5.4061   12.9297 O   0  0  0  0  0  0  0  0  0  0  0  0
   43.7928    3.4564   12.2106 C   0  0  0  0  0  0  0  0  0  0  0  0
   42.5482    5.3815   11.4788 C   0  0  0  0  0  0  0  0  0  0  0  0
   47.8819    7.5211   11.3221 C   0  0  0  0  0  0  0  0  0  0  0  0
   42.6417    3.9511   11.5027 O   0  0  0  0  0  0  0  0  0  0  0  0
   48.4093    8.2619   12.5629 C   0  0  0  0  0  0  0  0  0  0  0  0
   49.7352    8.8486   12.3106 N   0  0  0  0  0  0  0  0  0  0  0  0
   50.2778    9.4504   13.5452 C   0  0  0  0  0  0  0  0  0  0  0  0
   51.7119    9.9561   13.2846 C   0  0  1  0  0  0  0  0  0  0  0  0
   52.3748   10.4646   14.5732 C   0  0  0  0  0  0  0  0  0  0  0  0
   52.4712    8.8591   12.7492 O   0  0  0  0  0  0  0  0  0  0  0  0
   52.8100   11.8232   14.4260 O   0  0  0  0  0  0  0  0  0  0  0  0
   54.0862   12.0564   13.9984 C   0  0  0  0  0  0  0  0  0  0  0  0
   54.5332   13.3707   14.1789 C   0  0  0  0  0  0  0  0  0  0  0  0
   54.9363   11.1230   13.4059 C   0  0  0  0  0  0  0  0  0  0  0  0
   55.8212   13.7496   13.7919 C   0  0  0  0  0  0  0  0  0  0  0  0
   56.2248   11.5006   13.0122 C   0  0  0  0  0  0  0  0  0  0  0  0
   56.6586   12.8042   13.2109 C   0  0  0  0  0  0  0  0  0  0  0  0
   57.9250   13.1216   12.8203 O   0  0  0  0  0  0  0  0  0  0  0  0
   53.3063   10.8766   13.3719 N   0  0  0  0  0  0  0  0  0  0  0  0
   52.3466   10.2286   14.1194 C   0  0  0  0  0  0  0  0  0  0  0  0
   54.1110   11.9256   14.0033 C   0  0  0  0  0  0  0  0  0  0  0  0
   53.5810   10.6469   11.9498 C   0  0  0  0  0  0  0  0  0  0  0  0
   51.6893    9.2223   13.4556 N   0  0  0  0  0  0  0  0  0  0  0  0
   52.0869   10.5258   15.2801 O   0  0  0  0  0  0  0  0  0  0  0  0
   55.5214   11.9652   13.4085 C   0  0  0  0  0  0  0  0  0  0  0  0
   54.3204   11.8324   11.3245 C   0  0  0  0  0  0  0  0  0  0  0  0
   50.7276    8.3905   14.1639 C   0  0  0  0  0  0  0  0  0  0  0  0
   55.5617   12.1177   11.9804 O   0  0  0  0  0  0  0  0  0  0  0  0
   49.4200    9.1128   14.5482 C   0  0  0  0  0  0  0  0  0  0  0  0
   48.8307    9.9449   13.4848 N   0  0  0  0  0  0  0  0  0  0  0  0
   48.3008    9.1978   12.3315 C   0  0  0  0  0  0  0  0  0  0  0  0
   46.7994    8.8599   12.4645 C   0  0  1  0  0  0  0  0  0  0  0  0
   46.5313    7.6576   13.3810 C   0  0  0  0  0  0  0  0  0  0  0  0
   46.1223   10.0239   12.9704 O   0  0  0  0  0  0  0  0  0  0  0  0
   45.2053    7.1404   13.2039 O   0  0  0  0  0  0  0  0  0  0  0  0
   44.9765    6.2266   12.2141 C   0  0  0  0  0  0  0  0  0  0  0  0
   45.9002    5.7856   11.2624 C   0  0  0  0  0  0  0  0  0  0  0  0
   43.6734    5.7192   12.1882 C   0  0  0  0  0  0  0  0  0  0  0  0
   45.5199    4.8493   10.2937 C   0  0  0  0  0  0  0  0  0  0  0  0
   43.2941    4.7788   11.2276 C   0  0  0  0  0  0  0  0  0  0  0  0
   44.2203    4.3540   10.2859 C   0  0  0  0  0  0  0  0  0  0  0  0
   43.8142    3.4392    9.3602 O   0  0  0  0  0  0  0  0  0  0  0  0
   49.2335    7.9423   13.0092 C   0  0  0  0  0  0  0  0  0  0  0  0
   49.6692    9.0966   12.4885 C   0  0  0  0  0  0  0  0  0  0  0  0
   51.1042    9.3867   12.5044 C   0  0  0  0  0  0  0  0  0  0  0  0
   51.3354   10.5848   11.9473 O   0  0  0  0  0  0  0  0  0  0  0  0
   51.9951    8.6862   12.9424 O   0  0  0  0  0  0  0  0  0  0  0  0
   47.8189    7.5656   13.0407 C   0  0  0  0  0  0  0  0  0  0  0  0
   47.0017    8.4834   12.5036 O   0  0  0  0  0  0  0  0  0  0  0  0
   47.3920    6.5230   13.5007 O   0  0  0  0  0  0  0  0  0  0  0  0
   43.7589    4.8596   13.8662 H   0  0  0  0  0  0  0  0  0  0  0  0
   45.3137    4.0456   13.6396 H   0  0  0  0  0  0  0  0  0  0  0  0
   43.7894    7.1530   11.3235 H   0  0  0  0  0  0  0  0  0  0  0  0
   44.3364    5.7826   10.3253 H   0  0  0  0  0  0  0  0  0  0  0  0
   45.7937    7.7607   11.3763 H   0  0  0  0  0  0  0  0  0  0  0  0
   43.4695    2.5946   12.8013 H   0  0  0  0  0  0  0  0  0  0  0  0
   44.5021    3.0892   11.4605 H   0  0  0  0  0  0  0  0  0  0  0  0
   41.8770    5.6549   10.6589 H   0  0  0  0  0  0  0  0  0  0  0  0
   42.0710    5.7039   12.4109 H   0  0  0  0  0  0  0  0  0  0  0  0
   47.8913    8.1855   10.4518 H   0  0  0  0  0  0  0  0  0  0  0  0
   48.5171    6.6554   11.0980 H   0  0  0  0  0  0  0  0  0  0  0  0
   48.4678    7.5616   13.4043 H   0  0  0  0  0  0  0  0  0  0  0  0
   47.6993    9.0499   12.8442 H   0  0  0  0  0  0  0  0  0  0  0  0
   49.6579    9.5681   11.5895 H   0  0  0  0  0  0  0  0  0  0  0  0
   49.6438   10.2776   13.8853 H   0  0  0  0  0  0  0  0  0  0  0  0
   50.3087    8.6822   14.3287 H   0  0  0  0  0  0  0  0  0  0  0  0
   51.6935   10.7413   12.5196 H   0  0  0  0  0  0  0  0  0  0  0  0
   53.1858    9.8155   14.9310 H   0  0  0  0  0  0  0  0  0  0  0  0
   51.6374   10.4955   15.3839 H   0  0  0  0  0  0  0  0  0  0  0  0
   51.8372    8.3733   12.1807 H   0  0  0  0  0  0  0  0  0  0  0  0
   53.8719   14.1051   14.6351 H   0  0  0  0  0  0  0  0  0  0  0  0
   54.6323   10.0979   13.2237 H   0  0  0  0  0  0  0  0  0  0  0  0
   56.1452   14.7717   13.9499 H   0  0  0  0  0  0  0  0  0  0  0  0
   56.8857   10.7729   12.5474 H   0  0  0  0  0  0  0  0  0  0  0  0
   58.0946   14.0512   13.0424 H   0  0  0  0  0  0  0  0  0  0  0  0
   53.5965   12.8750   13.8162 H   0  0  0  0  0  0  0  0  0  0  0  0
   54.1595   11.7783   15.0866 H   0  0  0  0  0  0  0  0  0  0  0  0
   52.6462   10.4520   11.4137 H   0  0  0  0  0  0  0  0  0  0  0  0
   54.2105    9.7518   11.8969 H   0  0  0  0  0  0  0  0  0  0  0  0
   52.2701    8.7288   12.7954 H   0  0  0  0  0  0  0  0  0  0  0  0
   56.0505   11.0337   13.6450 H   0  0  0  0  0  0  0  0  0  0  0  0
   56.0942   12.7877   13.8505 H   0  0  0  0  0  0  0  0  0  0  0  0
   54.5438   11.6277   10.2714 H   0  0  0  0  0  0  0  0  0  0  0  0
   53.7008   12.7369   11.3630 H   0  0  0  0  0  0  0  0  0  0  0  0
   50.5039    7.5448   13.5059 H   0  0  0  0  0  0  0  0  0  0  0  0
   51.2108    7.9920   15.0627 H   0  0  0  0  0  0  0  0  0  0  0  0
   49.6218    9.7819   15.3925 H   0  0  0  0  0  0  0  0  0  0  0  0
   48.7002    8.3804   14.9231 H   0  0  0  0  0  0  0  0  0  0  0  0
   49.5950   10.5441   13.1537 H   0  0  0  0  0  0  0  0  0  0  0  0
   48.3857    9.8808   11.4762 H   0  0  0  0  0  0  0  0  0  0  0  0
   48.8961    8.3156   12.0735 H   0  0  0  0  0  0  0  0  0  0  0  0
   46.3863    8.6743   11.4679 H   0  0  0  0  0  0  0  0  0  0  0  0
   47.2803    6.8644   13.2690 H   0  0  0  0  0  0  0  0  0  0  0  0
   46.5681    7.9806   14.4266 H   0  0  0  0  0  0  0  0  0  0  0  0
   46.7730   10.4482   13.5696 H   0  0  0  0  0  0  0  0  0  0  0  0
   46.9186    6.1545   11.2351 H   0  0  0  0  0  0  0  0  0  0  0  0
   42.9504    6.0535   12.9273 H   0  0  0  0  0  0  0  0  0  0  0  0
   46.2507    4.5182    9.5606 H   0  0  0  0  0  0  0  0  0  0  0  0
   42.2811    4.3883   11.2154 H   0  0  0  0  0  0  0  0  0  0  0  0
   44.5523    3.2697    8.7521 H   0  0  0  0  0  0  0  0  0  0  0  0
   49.9109    7.2117   13.4392 H   0  0  0  0  0  0  0  0  0  0  0  0
   49.0112    9.8393   12.0553 H   0  0  0  0  0  0  0  0  0  0  0  0
   52.3080   10.6854   11.9981 H   0  0  0  0  0  0  0  0  0  0  0  0
   46.1130    8.0855   12.6067 H   0  0  0  0  0  0  0  0  0  0  0  0
  3  7  1  0
  4  8  1  0
  5  9  1  0
  7 10  1  0
  9 11  1  0
 11 12  1  0
 12 13  1  0
 13 14  1  0
 14 15  1  0
 14 16  1  0
 15 17  1  0
 17 18  1  0
 18 19  2  0
 18 20  1  0
 19 21  1  0
 20 22  2  0
 21 23  2  0
 23 24  1  0
  8 10  1  0
 22 23  1  0
  1  2  1  0
  1  3  1  0
  1  4  1  0
  2  5  1  0
  2  6  2  0
 27 31  1  0
 28 32  1  0
 29 33  1  0
 31 34  1  0
 33 35  1  0
 35 36  1  0
 36 37  1  0
 37 38  1  0
 38 39  1  0
 38 40  1  0
 39 41  1  0
 41 42  1  0
 42 43  2  0
 42 44  1  0
 43 45  1  0
 44 46  2  0
 45 47  2  0
 47 48  1  0
 32 34  1  0
 46 47  1  0
 25 26  1  0
 25 27  1  0
 25 28  1  0
 26 29  1  0
 26 30  2  0
 49 50  2  0
 49 54  1  0
 50 51  1  0
 51 52  1  0
 51 53  2  0
 54 55  1  0
 54 56  2  0
  3 57  1  0
  3 58  1  0
  4 59  1  0
  4 60  1  0
  5 61  1  0
  7 62  1  0
  7 63  1  0
  8 64  1  0
  8 65  1  0
  9 66  1  0
  9 67  1  0
 11 68  1  0
 11 69  1  0
 12 70  1  0
 13 71  1  0
 13 72  1  0
 14 73  1  6
 15 74  1  0
 15 75  1  0
 16 76  1  0
 19 77  1  0
 20 78  1  0
 21 79  1  0
 22 80  1  0
 24 81  1  0
 27 82  1  0
 27 83  1  0
 28 84  1  0
 28 85  1  0
 29 86  1  0
 31 87  1  0
 31 88  1  0
 32 89  1  0
 32 90  1  0
 33 91  1  0
 33 92  1  0
 35 93  1  0
 35 94  1  0
 36 95  1  0
 37 96  1  0
 37 97  1  0
 38 98  1  6
 39 99  1  0
 39100  1  0
 40101  1  0
 43102  1  0
 44103  1  0
 45104  1  0
 46105  1  0
 48106  1  0
 49107  1  0
 50108  1  0
 52109  1  0
 55110  1  0
M  END
> <Uni-Dock RESULT> 
ENERGY=   -4.998  LOWER_BOUND=    7.654  UPPER_BOUND=    9.239
INTER + INTRA:          -4.998
INTER:                  -4.998
INTRA:                   0.000
UNBOUND:                 0.000

$$$$

     RDKit          3D

110111  0  0  0  0  0  0  0  0999 V2000
   48.4988    5.6278   17.2238 N   0  0  0  0  0  0  0  0  0  0  0  0
   48.9008    6.7484   16.5179 C   0  0  0  0  0  0  0  0  0  0  0  0
   47.7118    5.8165   18.4448 C   0  0  0  0  0  0  0  0  0  0  0  0
   49.1720    4.3273   17.1288 C   0  0  0  0  0  0  0  0  0  0  0  0
   49.6984    6.4841   15.4330 N   0  0  0  0  0  0  0  0  0  0  0  0
   48.5886    7.8915   16.8364 O   0  0  0  0  0  0  0  0  0  0  0  0
   48.4466    5.2148   19.6472 C   0  0  0  0  0  0  0  0  0  0  0  0
   48.6449    3.3287   18.1659 C   0  0  0  0  0  0  0  0  0  0  0  0
   50.2113    7.5634   14.6072 C   0  0  0  0  0  0  0  0  0  0  0  0
   48.7491    3.8144   19.5108 O   0  0  0  0  0  0  0  0  0  0  0  0
   49.1316    8.2150   13.7263 C   0  0  0  0  0  0  0  0  0  0  0  0
   49.7206    9.1884   12.7926 N   0  0  0  0  0  0  0  0  0  0  0  0
   48.6608    9.8902   12.0408 C   0  0  0  0  0  0  0  0  0  0  0  0
   49.2951   10.9821   11.1544 C   0  0  1  0  0  0  0  0  0  0  0  0
   48.2259   11.8358   10.4570 C   0  0  0  0  0  0  0  0  0  0  0  0
   50.1049   11.8157   12.0006 O   0  0  0  0  0  0  0  0  0  0  0  0
   48.3994   11.8154    9.0335 O   0  0  0  0  0  0  0  0  0  0  0  0
   49.1655   12.7877    8.4559 C   0  0  0  0  0  0  0  0  0  0  0  0
   49.0332   12.8889    7.0660 C   0  0  0  0  0  0  0  0  0  0  0  0
   50.0449   13.6420    9.1206 C   0  0  0  0  0  0  0  0  0  0  0  0
   49.7539   13.8442    6.3447 C   0  0  0  0  0  0  0  0  0  0  0  0
   50.7723   14.5961    8.4005 C   0  0  0  0  0  0  0  0  0  0  0  0
   50.6194   14.6937    7.0243 C   0  0  0  0  0  0  0  0  0  0  0  0
   51.3415   15.6451    6.3681 O   0  0  0  0  0  0  0  0  0  0  0  0
   49.6160   12.2112    9.8189 N   0  0  0  0  0  0  0  0  0  0  0  0
   48.6667   11.7382   10.6991 C   0  0  0  0  0  0  0  0  0  0  0  0
   49.1772   12.8478    8.5743 C   0  0  0  0  0  0  0  0  0  0  0  0
   51.0683   12.0968    9.9858 C   0  0  0  0  0  0  0  0  0  0  0  0
   49.1765   11.2147   11.8615 N   0  0  0  0  0  0  0  0  0  0  0  0
   47.4631   11.7690   10.4676 O   0  0  0  0  0  0  0  0  0  0  0  0
   50.1556   13.9455    8.1474 C   0  0  0  0  0  0  0  0  0  0  0  0
   51.7991   12.2577    8.6503 C   0  0  0  0  0  0  0  0  0  0  0  0
   48.2768   10.7787   12.9193 C   0  0  0  0  0  0  0  0  0  0  0  0
   51.5184   13.5102    8.0141 O   0  0  0  0  0  0  0  0  0  0  0  0
   47.4762    9.5020   12.5900 C   0  0  0  0  0  0  0  0  0  0  0  0
   48.2591    8.4148   11.9772 N   0  0  0  0  0  0  0  0  0  0  0  0
   49.2552    7.7890   12.8635 C   0  0  0  0  0  0  0  0  0  0  0  0
   48.7111    6.5510   13.6101 C   0  0  1  0  0  0  0  0  0  0  0  0
   47.8423    6.9128   14.8232 C   0  0  0  0  0  0  0  0  0  0  0  0
   47.9490    5.7652   12.6769 O   0  0  0  0  0  0  0  0  0  0  0  0
   47.6578    5.7910   15.6976 O   0  0  0  0  0  0  0  0  0  0  0  0
   48.5979    5.5351   16.6556 C   0  0  0  0  0  0  0  0  0  0  0  0
   49.8071    6.2130   16.8333 C   0  0  0  0  0  0  0  0  0  0  0  0
   48.2754    4.4769   17.5115 C   0  0  0  0  0  0  0  0  0  0  0  0
   50.6843    5.8314   17.8555 C   0  0  0  0  0  0  0  0  0  0  0  0
   49.1453    4.0998   18.5371 C   0  0  0  0  0  0  0  0  0  0  0  0
   50.3447    4.7785   18.6985 C   0  0  0  0  0  0  0  0  0  0  0  0
   51.1716    4.3804   19.7066 O   0  0  0  0  0  0  0  0  0  0  0  0
   48.9703    9.1898   13.7917 C   0  0  0  0  0  0  0  0  0  0  0  0
   49.5142    9.1135   12.5704 C   0  0  0  0  0  0  0  0  0  0  0  0
   49.9002   10.3488   11.8858 C   0  0  0  0  0  0  0  0  0  0  0  0
   50.4159   10.0628   10.6810 O   0  0  0  0  0  0  0  0  0  0  0  0
   49.7929   11.4867   12.2979 O   0  0  0  0  0  0  0  0  0  0  0  0
   48.5512    8.0112   14.5528 C   0  0  0  0  0  0  0  0  0  0  0  0
   48.7594    6.8510   13.9132 O   0  0  0  0  0  0  0  0  0  0  0  0
   48.0598    8.0467   15.6655 O   0  0  0  0  0  0  0  0  0  0  0  0
   46.7605    5.2968   18.2827 H   0  0  0  0  0  0  0  0  0  0  0  0
   47.4896    6.8719   18.6272 H   0  0  0  0  0  0  0  0  0  0  0  0
   49.0341    3.9282   16.1185 H   0  0  0  0  0  0  0  0  0  0  0  0
   50.2417    4.5037   17.2949 H   0  0  0  0  0  0  0  0  0  0  0  0
   49.5298    5.6071   14.9676 H   0  0  0  0  0  0  0  0  0  0  0  0
   47.8485    5.3344   20.5550 H   0  0  0  0  0  0  0  0  0  0  0  0
   49.3955    5.7374   19.8115 H   0  0  0  0  0  0  0  0  0  0  0  0
   49.2105    2.3937   18.1078 H   0  0  0  0  0  0  0  0  0  0  0  0
   47.5937    3.0851   17.9759 H   0  0  0  0  0  0  0  0  0  0  0  0
   50.9975    7.1272   13.9823 H   0  0  0  0  0  0  0  0  0  0  0  0
   50.6717    8.3138   15.2614 H   0  0  0  0  0  0  0  0  0  0  0  0
   48.3953    8.7144   14.3668 H   0  0  0  0  0  0  0  0  0  0  0  0
   48.6001    7.4348   13.1666 H   0  0  0  0  0  0  0  0  0  0  0  0
   50.3352    8.7028   12.1369 H   0  0  0  0  0  0  0  0  0  0  0  0
   48.0929    9.1864   11.4211 H   0  0  0  0  0  0  0  0  0  0  0  0
   47.9764   10.3656   12.7553 H   0  0  0  0  0  0  0  0  0  0  0  0
   49.9645   10.5190   10.4198 H   0  0  0  0  0  0  0  0  0  0  0  0
   48.1679   12.8625   10.8438 H   0  0  0  0  0  0  0  0  0  0  0  0
   47.2342   11.3982   10.6222 H   0  0  0  0  0  0  0  0  0  0  0  0
   50.4945   11.1991   12.6556 H   0  0  0  0  0  0  0  0  0  0  0  0
   48.3530   12.2206    6.5411 H   0  0  0  0  0  0  0  0  0  0  0  0
   50.2007   13.5914   10.1928 H   0  0  0  0  0  0  0  0  0  0  0  0
   49.6272   13.9067    5.2701 H   0  0  0  0  0  0  0  0  0  0  0  0
   51.4600   15.2596    8.9192 H   0  0  0  0  0  0  0  0  0  0  0  0
   51.1149   15.6113    5.4248 H   0  0  0  0  0  0  0  0  0  0  0  0
   49.1385   12.0606    7.8127 H   0  0  0  0  0  0  0  0  0  0  0  0
   48.1689   13.2588    8.6832 H   0  0  0  0  0  0  0  0  0  0  0  0
   51.3186   11.1354   10.4465 H   0  0  0  0  0  0  0  0  0  0  0  0
   51.3659   12.9018   10.6669 H   0  0  0  0  0  0  0  0  0  0  0  0
   50.0108   11.6818   12.1817 H   0  0  0  0  0  0  0  0  0  0  0  0
   50.1502   14.7560    8.8867 H   0  0  0  0  0  0  0  0  0  0  0  0
   49.8451   14.3756    7.1888 H   0  0  0  0  0  0  0  0  0  0  0  0
   52.8830   12.2007    8.8016 H   0  0  0  0  0  0  0  0  0  0  0  0
   51.5176   11.4549    7.9577 H   0  0  0  0  0  0  0  0  0  0  0  0
   48.8973   10.6087   13.8048 H   0  0  0  0  0  0  0  0  0  0  0  0
   47.5894   11.6002   13.1492 H   0  0  0  0  0  0  0  0  0  0  0  0
   46.6840    9.7566   11.8768 H   0  0  0  0  0  0  0  0  0  0  0  0
   46.9585    9.1590   13.4898 H   0  0  0  0  0  0  0  0  0  0  0  0
   48.7576    8.8482   11.1920 H   0  0  0  0  0  0  0  0  0  0  0  0
   50.0480    7.4210   12.1991 H   0  0  0  0  0  0  0  0  0  0  0  0
   49.7373    8.4973   13.5453 H   0  0  0  0  0  0  0  0  0  0  0  0
   49.5529    5.9247   13.9221 H   0  0  0  0  0  0  0  0  0  0  0  0
   48.2242    7.7811   15.3738 H   0  0  0  0  0  0  0  0  0  0  0  0
   46.8337    7.1726   14.4852 H   0  0  0  0  0  0  0  0  0  0  0  0
   47.5392    6.4232   12.0755 H   0  0  0  0  0  0  0  0  0  0  0  0
   50.1065    7.0333   16.1919 H   0  0  0  0  0  0  0  0  0  0  0  0
   47.3353    3.9475   17.3829 H   0  0  0  0  0  0  0  0  0  0  0  0
   51.6208    6.3688   17.9788 H   0  0  0  0  0  0  0  0  0  0  0  0
   48.8867    3.2785   19.1985 H   0  0  0  0  0  0  0  0  0  0  0  0
   51.9799    4.9178   19.6706 H   0  0  0  0  0  0  0  0  0  0  0  0
   48.8100   10.1387   14.2932 H   0  0  0  0  0  0  0  0  0  0  0  0
   49.6824    8.1781   12.0519 H   0  0  0  0  0  0  0  0  0  0  0  0
   50.6459   10.9384   10.3084 H   0  0  0  0  0  0  0  0  0  0  0  0
   48.4279    6.1800   14.5446 H   0  0  0  0  0  0  0  0  0  0  0  0
  3  7  1  0
  4  8  1  0
  5  9  1  0
  7 10  1  0
  9 11  1  0
 11 12  1  0
 12 13  1  0
 13 14  1  0
 14 15  1  0
 14 16  1  0
 15 17  1  0
 17 18  1  0
 18 19  2  0
 18 20  1  0
 19 21  1  0
 20 22  2  0
 21 23  2  0
 23 24  1  0
  8 10  1  0
 22 23  1  0
  1  2  1  0
  1  3  1  0
  1  4  1  0
  2  5  1  0
  2  6  2  0
 27 31  1  0
 28 32  1  0
 29 33  1  0
 31 34  1  0
 33 35  1  0
 35 36  1  0
 36 37  1  0
 37 38  1  0
 38 39  1  0
 38 40  1  0
 39 41  1  0
 41 42  1  0
 42 43  2  0
 42 44  1  0
 43 45  1  0
 44 46  2  0
 45 47  2  0
 47 48  1  0
 32 34  1  0
 46 47  1  0
 25 26  1  0
 25 27  1  0
 25 28  1  0
 26 29  1  0
 26 30  2  0
 49 50  2  0
 49 54  1  0
 50 51  1  0
 51 52  1  0
 51 53  2  0
 54 55  1  0
 54 56  2  0
  3 57  1  0
  3 58  1  0
  4 59  1  0
  4 60  1  0
  5 61  1  0
  7 62  1  0
  7 63  1  0
  8 64  1  0
  8 65  1  0
  9 66  1  0
  9 67  1  0
 11 68  1  0
 11 69  1  0
 12 70  1  0
 13 71  1  0
 13 72  1  0
 14 73  1  6
 15 74  1  0
 15 75  1  0
 16 76  1  0
 19 77  1  0
 20 78  1  0
 21 79  1  0
 22 80  1  0
 24 81  1  0
 27 82  1  0
 27 83  1  0
 28 84  1  0
 28 85  1  0
 29 86  1  0
 31 87  1  0
 31 88  1  0
 32 89  1  0
 32 90  1  0
 33 91  1  0
 33 92  1  0
 35 93  1  0
 35 94  1  0
 36 95  1  0
 37 96  1  0
 37 97  1  0
 38 98  1  6
 39 99  1  0
 39100  1  0
 40101  1  0
 43102  1  0
 44103  1  0
 45104  1  0
 46105  1  0
 48106  1  0
 49107  1  0
 50108  1  0
 52109  1  0
 55110  1  0
M  END
> <Uni-Dock RESULT> 
ENERGY=   -4.882  LOWER_BOUND=    5.466  UPPER_BOUND=    6.711
INTER + INTRA:          -4.882
INTER:                  -4.882
INTRA:                   0.000
UNBOUND:                 0.000

$$$$

     RDKit          3D

110111  0  0  0  0  0  0  0  0999 V2000
   53.7132   12.3437   15.4802 N   0  0  0  0  0  0  0  0  0  0  0  0
   53.0287   11.2988   14.8842 C   0  0  0  0  0  0  0  0  0  0  0  0
   54.4316   13.2882   14.6215 C   0  0  0  0  0  0  0  0  0  0  0  0
   54.1698   12.3208   16.8747 C   0  0  0  0  0  0  0  0  0  0  0  0
   52.4505   10.4191   15.7645 N   0  0  0  0  0  0  0  0  0  0  0  0
   52.9520   11.1519   13.6684 O   0  0  0  0  0  0  0  0  0  0  0  0
   55.9246   13.2883   14.9666 C   0  0  0  0  0  0  0  0  0  0  0  0
   55.0716   13.5157   17.2053 C   0  0  0  0  0  0  0  0  0  0  0  0
   51.7140    9.2630   15.2840 C   0  0  0  0  0  0  0  0  0  0  0  0
   56.2105   13.6110   16.3396 O   0  0  0  0  0  0  0  0  0  0  0  0
   50.3531    9.6281   14.6666 C   0  0  0  0  0  0  0  0  0  0  0  0
   49.5738    8.4225   14.3420 N   0  0  0  0  0  0  0  0  0  0  0  0
   48.3256    8.7866   13.6418 C   0  0  0  0  0  0  0  0  0  0  0  0
   47.5833    7.5042   13.2120 C   0  0  1  0  0  0  0  0  0  0  0  0
   46.3489    7.8254   12.3565 C   0  0  0  0  0  0  0  0  0  0  0  0
   48.5028    6.7007   12.4535 O   0  0  0  0  0  0  0  0  0  0  0  0
   45.1622    7.2660   12.9357 O   0  0  0  0  0  0  0  0  0  0  0  0
   44.7725    6.0164   12.5451 C   0  0  0  0  0  0  0  0  0  0  0  0
   43.4641    5.6720   12.9042 C   0  0  0  0  0  0  0  0  0  0  0  0
   45.5558    5.0909   11.8559 C   0  0  0  0  0  0  0  0  0  0  0  0
   42.9316    4.4258   12.5643 C   0  0  0  0  0  0  0  0  0  0  0  0
   45.0274    3.8399   11.5187 C   0  0  0  0  0  0  0  0  0  0  0  0
   43.7233    3.5186   11.8694 C   0  0  0  0  0  0  0  0  0  0  0  0
   43.2499    2.2922   11.5102 O   0  0  0  0  0  0  0  0  0  0  0  0
   46.2847    6.2936   12.7169 N   0  0  0  0  0  0  0  0  0  0  0  0
   46.7664    7.5671   12.5029 C   0  0  0  0  0  0  0  0  0  0  0  0
   44.8704    6.0150   12.4546 C   0  0  0  0  0  0  0  0  0  0  0  0
   47.0589    5.1640   13.2412 C   0  0  0  0  0  0  0  0  0  0  0  0
   48.1146    7.7112   12.7191 N   0  0  0  0  0  0  0  0  0  0  0  0
   46.0550    8.5038   12.1573 O   0  0  0  0  0  0  0  0  0  0  0  0
   44.6774    4.5747   11.9717 C   0  0  0  0  0  0  0  0  0  0  0  0
   46.1453    4.0787   13.8162 C   0  0  0  0  0  0  0  0  0  0  0  0
   48.7671    8.9790   12.4266 C   0  0  0  0  0  0  0  0  0  0  0  0
   45.2126    3.5740   12.8530 O   0  0  0  0  0  0  0  0  0  0  0  0
   48.3990   10.1239   13.3926 C   0  0  0  0  0  0  0  0  0  0  0  0
   48.3988    9.7603   14.8202 N   0  0  0  0  0  0  0  0  0  0  0  0
   49.7245    9.4563   15.3853 C   0  0  0  0  0  0  0  0  0  0  0  0
   50.4097   10.6855   16.0222 C   0  0  1  0  0  0  0  0  0  0  0  0
   51.0525   11.6203   14.9877 C   0  0  0  0  0  0  0  0  0  0  0  0
   49.4231   11.4018   16.7856 O   0  0  0  0  0  0  0  0  0  0  0  0
   51.9770   12.5315   15.5976 O   0  0  0  0  0  0  0  0  0  0  0  0
   53.2688   12.1325   15.7953 C   0  0  0  0  0  0  0  0  0  0  0  0
   53.7925   10.8617   15.5423 C   0  0  0  0  0  0  0  0  0  0  0  0
   54.1068   13.1270   16.3101 C   0  0  0  0  0  0  0  0  0  0  0  0
   55.1404   10.5906   15.8063 C   0  0  0  0  0  0  0  0  0  0  0  0
   55.4539   12.8610   16.5665 C   0  0  0  0  0  0  0  0  0  0  0  0
   55.9587   11.5933   16.3153 C   0  0  0  0  0  0  0  0  0  0  0  0
   57.2766   11.3678   16.5820 O   0  0  0  0  0  0  0  0  0  0  0  0
   50.1484    9.3530   13.7376 C   0  0  0  0  0  0  0  0  0  0  0  0
   49.3060    8.5645   14.4174 C   0  0  0  0  0  0  0  0  0  0  0  0
   48.6108    7.4886   13.7083 C   0  0  0  0  0  0  0  0  0  0  0  0
   47.8134    6.8218   14.5561 O   0  0  0  0  0  0  0  0  0  0  0  0
   48.7031    7.1984   12.5321 O   0  0  0  0  0  0  0  0  0  0  0  0
   50.8863   10.4544   14.3591 C   0  0  0  0  0  0  0  0  0  0  0  0
   50.6384   10.6017   15.6688 O   0  0  0  0  0  0  0  0  0  0  0  0
   51.6624   11.1842   13.7709 O   0  0  0  0  0  0  0  0  0  0  0  0
   53.9972   14.2753   14.8164 H   0  0  0  0  0  0  0  0  0  0  0  0
   54.2892   13.0635   13.5604 H   0  0  0  0  0  0  0  0  0  0  0  0
   53.2963   12.3148   17.5350 H   0  0  0  0  0  0  0  0  0  0  0  0
   54.7259   11.3863   17.0178 H   0  0  0  0  0  0  0  0  0  0  0  0
   52.1437   10.8118   16.6396 H   0  0  0  0  0  0  0  0  0  0  0  0
   56.4576   14.0106   14.3419 H   0  0  0  0  0  0  0  0  0  0  0  0
   56.3594   12.3025   14.7676 H   0  0  0  0  0  0  0  0  0  0  0  0
   55.4428   13.4332   18.2314 H   0  0  0  0  0  0  0  0  0  0  0  0
   54.5154   14.4571   17.1355 H   0  0  0  0  0  0  0  0  0  0  0  0
   51.5737    8.6052   16.1480 H   0  0  0  0  0  0  0  0  0  0  0  0
   52.3349    8.7352   14.5498 H   0  0  0  0  0  0  0  0  0  0  0  0
   50.5153   10.2202   13.7584 H   0  0  0  0  0  0  0  0  0  0  0  0
   49.7926   10.2573   15.3696 H   0  0  0  0  0  0  0  0  0  0  0  0
   49.3449    7.9227   15.2030 H   0  0  0  0  0  0  0  0  0  0  0  0
   47.6814    9.3951   14.2871 H   0  0  0  0  0  0  0  0  0  0  0  0
   48.5798    9.3674   12.7457 H   0  0  0  0  0  0  0  0  0  0  0  0
   47.3025    6.9248   14.0994 H   0  0  0  0  0  0  0  0  0  0  0  0
   46.4618    7.5350   11.3030 H   0  0  0  0  0  0  0  0  0  0  0  0
   46.1716    8.9074   12.3506 H   0  0  0  0  0  0  0  0  0  0  0  0
   49.3697    6.8374   12.8905 H   0  0  0  0  0  0  0  0  0  0  0  0
   42.8502    6.3879   13.4477 H   0  0  0  0  0  0  0  0  0  0  0  0
   46.5820    5.2990   11.5727 H   0  0  0  0  0  0  0  0  0  0  0  0
   41.9130    4.1871   12.8476 H   0  0  0  0  0  0  0  0  0  0  0  0
   45.6400    3.1179   10.9842 H   0  0  0  0  0  0  0  0  0  0  0  0
   42.3256    2.2197   11.7980 H   0  0  0  0  0  0  0  0  0  0  0  0
   44.3367    6.1703   13.3992 H   0  0  0  0  0  0  0  0  0  0  0  0
   44.4657    6.7191   11.7211 H   0  0  0  0  0  0  0  0  0  0  0  0
   47.7648    5.5137   14.0020 H   0  0  0  0  0  0  0  0  0  0  0  0
   47.6251    4.7578   12.3957 H   0  0  0  0  0  0  0  0  0  0  0  0
   48.6514    6.8932   12.4752 H   0  0  0  0  0  0  0  0  0  0  0  0
   45.1683    4.4398   11.0000 H   0  0  0  0  0  0  0  0  0  0  0  0
   43.6116    4.3636   11.8315 H   0  0  0  0  0  0  0  0  0  0  0  0
   46.7411    3.2311   14.1733 H   0  0  0  0  0  0  0  0  0  0  0  0
   45.5751    4.4669   14.6693 H   0  0  0  0  0  0  0  0  0  0  0  0
   49.8446    8.7911   12.4685 H   0  0  0  0  0  0  0  0  0  0  0  0
   48.5206    9.2657   11.3984 H   0  0  0  0  0  0  0  0  0  0  0  0
   47.3860   10.4707   13.1586 H   0  0  0  0  0  0  0  0  0  0  0  0
   49.0511   10.9803   13.2017 H   0  0  0  0  0  0  0  0  0  0  0  0
   47.8221    8.9141   14.8850 H   0  0  0  0  0  0  0  0  0  0  0  0
   49.5383    8.7510   16.2059 H   0  0  0  0  0  0  0  0  0  0  0  0
   50.3874    8.9369   14.6854 H   0  0  0  0  0  0  0  0  0  0  0  0
   51.1620   10.3422   16.7395 H   0  0  0  0  0  0  0  0  0  0  0  0
   51.5252   11.0761   14.1610 H   0  0  0  0  0  0  0  0  0  0  0  0
   50.2815   12.2591   14.5444 H   0  0  0  0  0  0  0  0  0  0  0  0
   48.5872   11.2796   16.2867 H   0  0  0  0  0  0  0  0  0  0  0  0
   53.1829   10.0555   15.1519 H   0  0  0  0  0  0  0  0  0  0  0  0
   53.7086   14.1190   16.5055 H   0  0  0  0  0  0  0  0  0  0  0  0
   55.5307    9.5965   15.6046 H   0  0  0  0  0  0  0  0  0  0  0  0
   56.0983   13.6391   16.9644 H   0  0  0  0  0  0  0  0  0  0  0  0
   57.4724   10.4352   16.3940 H   0  0  0  0  0  0  0  0  0  0  0  0
   50.3361    9.2175   12.6774 H   0  0  0  0  0  0  0  0  0  0  0  0
   49.1037    8.6822   15.4744 H   0  0  0  0  0  0  0  0  0  0  0  0
   47.4025    6.1294   13.9991 H   0  0  0  0  0  0  0  0  0  0  0  0
   51.1957   11.3661   15.9216 H   0  0  0  0  0  0  0  0  0  0  0  0
  3  7  1  0
  4  8  1  0
  5  9  1  0
  7 10  1  0
  9 11  1  0
 11 12  1  0
 12 13  1  0
 13 14  1  0
 14 15  1  0
 14 16  1  0
 15 17  1  0
 17 18  1  0
 18 19  2  0
 18 20  1  0
 19 21  1  0
 20 22  2  0
 21 23  2  0
 23 24  1  0
  8 10  1  0
 22 23  1  0
  1  2  1  0
  1  3  1  0
  1  4  1  0
  2  5  1  0
  2  6  2  0
 27 31  1  0
 28 32  1  0
 29 33  1  0
 31 34  1  0
 33 35  1  0
 35 36  1  0
 36 37  1  0
 37 38  1  0
 38 39  1  0
 38 40  1  0
 39 41  1  0
 41 42  1  0
 42 43  2  0
 42 44  1  0
 43 45  1  0
 44 46  2  0
 45 47  2  0
 47 48  1  0
 32 34  1  0
 46 47  1  0
 25 26  1  0
 25 27  1  0
 25 28  1  0
 26 29  1  0
 26 30  2  0
 49 50  2  0
 49 54  1  0
 50 51  1  0
 51 52  1  0
 51 53  2  0
 54 55  1  0
 54 56  2  0
  3 57  1  0
  3 58  1  0
  4 59  1  0
  4 60  1  0
  5 61  1  0
  7 62  1  0
  7 63  1  0
  8 64  1  0
  8 65  1  0
  9 66  1  0
  9 67  1  0
 11 68  1  0
 11 69  1  0
 12 70  1  0
 13 71  1  0
 13 72  1  0
 14 73  1  6
 15 74  1  0
 15 75  1  0
 16 76  1  0
 19 77  1  0
 20 78  1  0
 21 79  1  0
 22 80  1  0
 24 81  1  0
 27 82  1  0
 27 83  1  0
 28 84  1  0
 28 85  1  0
 29 86  1  0
 31 87  1  0
 31 88  1  0
 32 89  1  0
 32 90  1  0
 33 91  1  0
 33 92  1  0
 35 93  1  0
 35 94  1  0
 36 95  1  0
 37 96  1  0
 37 97  1  0
 38 98  1  6
 39 99  1  0
 39100  1  0
 40101  1  0
 43102  1  0
 44103  1  0
 45104  1  0
 46105  1  0
 48106  1  0
 49107  1  0
 50108  1  0
 52109  1  0
 55110  1  0
M  END
> <Uni-Dock RESULT> 
ENERGY=   -4.878  LOWER_BOUND=    6.760  UPPER_BOUND=    9.601
INTER + INTRA:          -4.878
INTER:                  -4.878
INTRA:                   0.000
UNBOUND:                 0.000

$$$$

     RDKit          3D

110111  0  0  0  0  0  0  0  0999 V2000
   53.4551    7.8857    8.8885 N   0  0  0  0  0  0  0  0  0  0  0  0
   52.9121    7.5768   10.1236 C   0  0  0  0  0  0  0  0  0  0  0  0
   52.9778    7.1537    7.7128 C   0  0  0  0  0  0  0  0  0  0  0  0
   54.7658    8.5231    8.7175 C   0  0  0  0  0  0  0  0  0  0  0  0
   53.4712    8.2534   11.1784 N   0  0  0  0  0  0  0  0  0  0  0  0
   52.0144    6.7545   10.2768 O   0  0  0  0  0  0  0  0  0  0  0  0
   54.1389    6.4110    7.0435 C   0  0  0  0  0  0  0  0  0  0  0  0
   55.2007    8.5608    7.2478 C   0  0  0  0  0  0  0  0  0  0  0  0
   53.0148    8.0192   12.5373 C   0  0  0  0  0  0  0  0  0  0  0  0
   55.2270    7.2623    6.6406 O   0  0  0  0  0  0  0  0  0  0  0  0
   51.6247    8.6148   12.8184 C   0  0  0  0  0  0  0  0  0  0  0  0
   51.2719    8.4974   14.2425 N   0  0  0  0  0  0  0  0  0  0  0  0
   49.8894    8.9628   14.4727 C   0  0  0  0  0  0  0  0  0  0  0  0
   49.5045    8.7241   15.9476 C   0  0  1  0  0  0  0  0  0  0  0  0
   48.0290    9.0609   16.2084 C   0  0  0  0  0  0  0  0  0  0  0  0
   49.7446    7.3378   16.2427 O   0  0  0  0  0  0  0  0  0  0  0  0
   47.9012   10.0400   17.2485 O   0  0  0  0  0  0  0  0  0  0  0  0
   47.7496    9.6081   18.5355 C   0  0  0  0  0  0  0  0  0  0  0  0
   47.3217   10.5905   19.4363 C   0  0  0  0  0  0  0  0  0  0  0  0
   47.9943    8.3166   19.0016 C   0  0  0  0  0  0  0  0  0  0  0  0
   47.1196   10.2876   20.7852 C   0  0  0  0  0  0  0  0  0  0  0  0
   47.7982    8.0112   20.3529 C   0  0  0  0  0  0  0  0  0  0  0  0
   47.3598    8.9929   21.2310 C   0  0  0  0  0  0  0  0  0  0  0  0
   47.1736    8.6450   22.5354 O   0  0  0  0  0  0  0  0  0  0  0  0
   48.7121    8.8291   17.6084 N   0  0  0  0  0  0  0  0  0  0  0  0
   48.4675    8.7996   16.2523 C   0  0  0  0  0  0  0  0  0  0  0  0
   47.7429    9.4824   18.4918 C   0  0  0  0  0  0  0  0  0  0  0  0
   49.9055    8.2959   18.2731 C   0  0  0  0  0  0  0  0  0  0  0  0
   49.4028    8.1129   15.5183 N   0  0  0  0  0  0  0  0  0  0  0  0
   47.5014    9.3476   15.7332 O   0  0  0  0  0  0  0  0  0  0  0  0
   47.6998    8.7951   19.8594 C   0  0  0  0  0  0  0  0  0  0  0  0
   50.0974    8.9158   19.6596 C   0  0  0  0  0  0  0  0  0  0  0  0
   49.2057    7.9167   14.0896 C   0  0  0  0  0  0  0  0  0  0  0  0
   48.9722    8.7033   20.5205 O   0  0  0  0  0  0  0  0  0  0  0  0
   49.3516    9.1981   13.2434 C   0  0  0  0  0  0  0  0  0  0  0  0
   50.5109   10.0416   13.5827 N   0  0  0  0  0  0  0  0  0  0  0  0
   51.8230    9.4542   13.2624 C   0  0  0  0  0  0  0  0  0  0  0  0
   52.3415    9.8526   11.8629 C   0  0  1  0  0  0  0  0  0  0  0  0
   51.6917    9.0479   10.7282 C   0  0  0  0  0  0  0  0  0  0  0  0
   52.0903   11.2565   11.6760 O   0  0  0  0  0  0  0  0  0  0  0  0
   52.4306    9.1640    9.5044 O   0  0  0  0  0  0  0  0  0  0  0  0
   53.4800    8.3181    9.2805 C   0  0  0  0  0  0  0  0  0  0  0  0
   53.9911    7.3749   10.1763 C   0  0  0  0  0  0  0  0  0  0  0  0
   54.0715    8.4546    8.0204 C   0  0  0  0  0  0  0  0  0  0  0  0
   55.0852    6.5804    9.8136 C   0  0  0  0  0  0  0  0  0  0  0  0
   55.1580    7.6572    7.6534 C   0  0  0  0  0  0  0  0  0  0  0  0
   55.6580    6.7286    8.5549 C   0  0  0  0  0  0  0  0  0  0  0  0
   56.7223    5.9710    8.1650 O   0  0  0  0  0  0  0  0  0  0  0  0
   50.8985    8.0270   13.1468 C   0  0  0  0  0  0  0  0  0  0  0  0
   51.1223    8.7715   14.2372 C   0  0  0  0  0  0  0  0  0  0  0  0
   50.4987    8.3827   15.5036 C   0  0  0  0  0  0  0  0  0  0  0  0
   50.8373    9.2526   16.4669 O   0  0  0  0  0  0  0  0  0  0  0  0
   49.7757    7.4281   15.7090 O   0  0  0  0  0  0  0  0  0  0  0  0
   51.4758    8.3372   11.8374 C   0  0  0  0  0  0  0  0  0  0  0  0
   52.2453    9.4355   11.8310 O   0  0  0  0  0  0  0  0  0  0  0  0
   51.2967    7.6782   10.8302 O   0  0  0  0  0  0  0  0  0  0  0  0
   52.5629    7.9034    7.0294 H   0  0  0  0  0  0  0  0  0  0  0  0
   52.1772    6.4529    7.9667 H   0  0  0  0  0  0  0  0  0  0  0  0
   54.7230    9.5392    9.1233 H   0  0  0  0  0  0  0  0  0  0  0  0
   55.4878    7.9403    9.3024 H   0  0  0  0  0  0  0  0  0  0  0  0
   53.8119    9.1790   10.9751 H   0  0  0  0  0  0  0  0  0  0  0  0
   53.7874    5.8837    6.1521 H   0  0  0  0  0  0  0  0  0  0  0  0
   54.5506    5.6587    7.7255 H   0  0  0  0  0  0  0  0  0  0  0  0
   56.2062    8.9846    7.1647 H   0  0  0  0  0  0  0  0  0  0  0  0
   54.5305    9.1955    6.6574 H   0  0  0  0  0  0  0  0  0  0  0  0
   53.7619    8.4734   13.1966 H   0  0  0  0  0  0  0  0  0  0  0  0
   53.0091    6.9378   12.7212 H   0  0  0  0  0  0  0  0  0  0  0  0
   50.8780    8.0942   12.2075 H   0  0  0  0  0  0  0  0  0  0  0  0
   51.6139    9.6698   12.5166 H   0  0  0  0  0  0  0  0  0  0  0  0
   51.9156    9.0609   14.8006 H   0  0  0  0  0  0  0  0  0  0  0  0
   49.7915   10.0266   14.2265 H   0  0  0  0  0  0  0  0  0  0  0  0
   49.2110    8.3864   13.8306 H   0  0  0  0  0  0  0  0  0  0  0  0
   50.1600    9.3124   16.6004 H   0  0  0  0  0  0  0  0  0  0  0  0
   47.4087    8.1759   16.4059 H   0  0  0  0  0  0  0  0  0  0  0  0
   47.5941    9.5385   15.3224 H   0  0  0  0  0  0  0  0  0  0  0  0
   50.5522    7.1127   15.7344 H   0  0  0  0  0  0  0  0  0  0  0  0
   47.1352   11.6019   19.0795 H   0  0  0  0  0  0  0  0  0  0  0  0
   48.3473    7.5242   18.3505 H   0  0  0  0  0  0  0  0  0  0  0  0
   46.7805   11.0648   21.4601 H   0  0  0  0  0  0  0  0  0  0  0  0
   47.9923    7.0049   20.7159 H   0  0  0  0  0  0  0  0  0  0  0  0
   46.8455    9.4197   23.0197 H   0  0  0  0  0  0  0  0  0  0  0  0
   48.0676   10.5232   18.6033 H   0  0  0  0  0  0  0  0  0  0  0  0
   46.7470    9.4887   18.0381 H   0  0  0  0  0  0  0  0  0  0  0  0
   50.7900    8.4673   17.6507 H   0  0  0  0  0  0  0  0  0  0  0  0
   49.7483    7.2161   18.3719 H   0  0  0  0  0  0  0  0  0  0  0  0
   49.7934    7.3203   16.0042 H   0  0  0  0  0  0  0  0  0  0  0  0
   47.3230    7.7708   19.7486 H   0  0  0  0  0  0  0  0  0  0  0  0
   47.0120    9.3259   20.5268 H   0  0  0  0  0  0  0  0  0  0  0  0
   50.9751    8.4814   20.1514 H   0  0  0  0  0  0  0  0  0  0  0  0
   50.2631    9.9972   19.5787 H   0  0  0  0  0  0  0  0  0  0  0  0
   49.9473    7.1768   13.7722 H   0  0  0  0  0  0  0  0  0  0  0  0
   48.2135    7.4789   13.9342 H   0  0  0  0  0  0  0  0  0  0  0  0
   48.4605    9.8194   13.3880 H   0  0  0  0  0  0  0  0  0  0  0  0
   49.3519    8.9319   12.1831 H   0  0  0  0  0  0  0  0  0  0  0  0
   50.4605   10.1767   14.5986 H   0  0  0  0  0  0  0  0  0  0  0  0
   52.5242    9.8930   13.9843 H   0  0  0  0  0  0  0  0  0  0  0  0
   51.8655    8.3715   13.4202 H   0  0  0  0  0  0  0  0  0  0  0  0
   53.4290    9.7300   11.8377 H   0  0  0  0  0  0  0  0  0  0  0  0
   51.5327    7.9954   10.9925 H   0  0  0  0  0  0  0  0  0  0  0  0
   50.7064    9.4681   10.5009 H   0  0  0  0  0  0  0  0  0  0  0  0
   51.2516   11.4243   12.1566 H   0  0  0  0  0  0  0  0  0  0  0  0
   53.5738    7.2369   11.1666 H   0  0  0  0  0  0  0  0  0  0  0  0
   53.6775    9.1824    7.3164 H   0  0  0  0  0  0  0  0  0  0  0  0
   55.4704    5.8527   10.5229 H   0  0  0  0  0  0  0  0  0  0  0  0
   55.6104    7.7680    6.6726 H   0  0  0  0  0  0  0  0  0  0  0  0
   56.9811    5.4005    8.9073 H   0  0  0  0  0  0  0  0  0  0  0  0
   50.2726    7.1409   13.1722 H   0  0  0  0  0  0  0  0  0  0  0  0
   51.7424    9.6589   14.2341 H   0  0  0  0  0  0  0  0  0  0  0  0
   50.3841    8.9104   17.2643 H   0  0  0  0  0  0  0  0  0  0  0  0
   52.5420    9.5005   10.9002 H   0  0  0  0  0  0  0  0  0  0  0  0
  3  7  1  0
  4  8  1  0
  5  9  1  0
  7 10  1  0
  9 11  1  0
 11 12  1  0
 12 13  1  0
 13 14  1  0
 14 15  1  0
 14 16  1  0
 15 17  1  0
 17 18  1  0
 18 19  2  0
 18 20  1  0
 19 21  1  0
 20 22  2  0
 21 23  2  0
 23 24  1  0
  8 10  1  0
 22 23  1  0
  1  2  1  0
  1  3  1  0
  1  4  1  0
  2  5  1  0
  2  6  2  0
 27 31  1  0
 28 32  1  0
 29 33  1  0
 31 34  1  0
 33 35  1  0
 35 36  1  0
 36 37  1  0
 37 38  1  0
 38 39  1  0
 38 40  1  0
 39 41  1  0
 41 42  1  0
 42 43  2  0
 42 44  1  0
 43 45  1  0
 44 46  2  0
 45 47  2  0
 47 48  1  0
 32 34  1  0
 46 47  1  0
 25 26  1  0
 25 27  1  0
 25 28  1  0
 26 29  1  0
 26 30  2  0
 49 50  2  0
 49 54  1  0
 50 51  1  0
 51 52  1  0
 51 53  2  0
 54 55  1  0
 54 56  2  0
  3 57  1  0
  3 58  1  0
  4 59  1  0
  4 60  1  0
  5 61  1  0
  7 62  1  0
  7 63  1  0
  8 64  1  0
  8 65  1  0
  9 66  1  0
  9 67  1  0
 11 68  1  0
 11 69  1  0
 12 70  1  0
 13 71  1  0
 13 72  1  0
 14 73  1  6
 15 74  1  0
 15 75  1  0
 16 76  1  0
 19 77  1  0
 20 78  1  0
 21 79  1  0
 22 80  1  0
 24 81  1  0
 27 82  1  0
 27 83  1  0
 28 84  1  0
 28 85  1  0
 29 86  1  0
 31 87  1  0
 31 88  1  0
 32 89  1  0
 32 90  1  0
 33 91  1  0
 33 92  1  0
 35 93  1  0
 35 94  1  0
 36 95  1  0
 37 96  1  0
 37 97  1  0
 38 98  1  6
 39 99  1  0
 39100  1  0
 40101  1  0
 43102  1  0
 44103  1  0
 45104  1  0
 46105  1  0
 48106  1  0
 49107  1  0
 50108  1  0
 52109  1  0
 55110  1  0
M  END
> <Uni-Dock RESULT> 
ENERGY=   -4.792  LOWER_BOUND=    7.318  UPPER_BOUND=   11.241
INTER + INTRA:          -4.792
INTER:                  -4.792
INTRA:                   0.000
UNBOUND:                 0.000

$$$$

     RDKit          3D

110111  0  0  0  0  0  0  0  0999 V2000
   54.4482   12.2809   15.0829 N   0  0  0  0  0  0  0  0  0  0  0  0
   53.1622   11.8256   14.8488 C   0  0  0  0  0  0  0  0  0  0  0  0
   54.7226   12.9838   16.3384 C   0  0  0  0  0  0  0  0  0  0  0  0
   55.4217   12.5394   14.0156 C   0  0  0  0  0  0  0  0  0  0  0  0
   52.9759   11.2492   13.6175 N   0  0  0  0  0  0  0  0  0  0  0  0
   52.2508   11.9374   15.6626 O   0  0  0  0  0  0  0  0  0  0  0  0
   55.2272   14.4021   16.0524 C   0  0  0  0  0  0  0  0  0  0  0  0
   56.6869   13.2256   14.5437 C   0  0  0  0  0  0  0  0  0  0  0  0
   51.6732   10.7411   13.2243 C   0  0  0  0  0  0  0  0  0  0  0  0
   56.4097   14.4514   15.2335 O   0  0  0  0  0  0  0  0  0  0  0  0
   51.2861    9.4432   13.9536 C   0  0  0  0  0  0  0  0  0  0  0  0
   50.0399    8.8778   13.4116 N   0  0  0  0  0  0  0  0  0  0  0  0
   49.6196    7.7022   14.2003 C   0  0  0  0  0  0  0  0  0  0  0  0
   48.2556    7.1976   13.6855 C   0  0  1  0  0  0  0  0  0  0  0  0
   47.7055    6.0625   14.5616 C   0  0  0  0  0  0  0  0  0  0  0  0
   47.3438    8.3089   13.7032 O   0  0  0  0  0  0  0  0  0  0  0  0
   47.4455    4.8890   13.7793 O   0  0  0  0  0  0  0  0  0  0  0  0
   46.1973    4.7211   13.2503 C   0  0  0  0  0  0  0  0  0  0  0  0
   45.9304    3.4309   12.7776 C   0  0  0  0  0  0  0  0  0  0  0  0
   45.2150    5.7047   13.1378 C   0  0  0  0  0  0  0  0  0  0  0  0
   44.6908    3.1152   12.2156 C   0  0  0  0  0  0  0  0  0  0  0  0
   43.9744    5.3933   12.5706 C   0  0  0  0  0  0  0  0  0  0  0  0
   43.7198    4.1054   12.1194 C   0  0  0  0  0  0  0  0  0  0  0  0
   42.4934    3.8480   11.5838 O   0  0  0  0  0  0  0  0  0  0  0  0
   46.7975    6.1466   13.2775 N   0  0  0  0  0  0  0  0  0  0  0  0
   47.6884    6.4855   14.2730 C   0  0  0  0  0  0  0  0  0  0  0  0
   46.1560    4.8299   13.3153 C   0  0  0  0  0  0  0  0  0  0  0  0
   46.4502    6.9797   12.1217 C   0  0  0  0  0  0  0  0  0  0  0  0
   48.1883    7.7610   14.1817 N   0  0  0  0  0  0  0  0  0  0  0  0
   48.0213    5.7142   15.1660 O   0  0  0  0  0  0  0  0  0  0  0  0
   44.7444    4.8924   12.7253 C   0  0  0  0  0  0  0  0  0  0  0  0
   45.8511    6.1425   10.9888 C   0  0  0  0  0  0  0  0  0  0  0  0
   49.0562    8.2791   15.2291 C   0  0  0  0  0  0  0  0  0  0  0  0
   44.6787    5.4248   11.3924 O   0  0  0  0  0  0  0  0  0  0  0  0
   50.4579    7.6368   15.2721 C   0  0  0  0  0  0  0  0  0  0  0  0
   51.1159    7.4859   13.9627 N   0  0  0  0  0  0  0  0  0  0  0  0
   51.5075    8.7486   13.3136 C   0  0  0  0  0  0  0  0  0  0  0  0
   52.9559    9.1753   13.6392 C   0  0  1  0  0  0  0  0  0  0  0  0
   53.0950    9.8294   15.0213 C   0  0  0  0  0  0  0  0  0  0  0  0
   53.7939    8.0087   13.5612 O   0  0  0  0  0  0  0  0  0  0  0  0
   54.3364   10.5357   15.1518 O   0  0  0  0  0  0  0  0  0  0  0  0
   54.4132   11.8282   14.7153 C   0  0  0  0  0  0  0  0  0  0  0  0
   53.4104   12.5409   14.0523 C   0  0  0  0  0  0  0  0  0  0  0  0
   55.6381   12.4520   14.9738 C   0  0  0  0  0  0  0  0  0  0  0  0
   53.6351   13.8629   13.6499 C   0  0  0  0  0  0  0  0  0  0  0  0
   55.8615   13.7735   14.5806 C   0  0  0  0  0  0  0  0  0  0  0  0
   54.8586   14.4671   13.9186 C   0  0  0  0  0  0  0  0  0  0  0  0
   55.1131   15.7533   13.5450 O   0  0  0  0  0  0  0  0  0  0  0  0
   50.4421    9.4060   14.4702 C   0  0  0  0  0  0  0  0  0  0  0  0
   50.1432    8.5862   13.4544 C   0  0  0  0  0  0  0  0  0  0  0  0
   48.7591    8.1400   13.2847 C   0  0  0  0  0  0  0  0  0  0  0  0
   48.6675    7.3254   12.2228 O   0  0  0  0  0  0  0  0  0  0  0  0
   47.7994    8.4307   13.9707 O   0  0  0  0  0  0  0  0  0  0  0  0
   51.7962    9.9031   14.7217 C   0  0  0  0  0  0  0  0  0  0  0  0
   52.7079    9.4595   13.8438 O   0  0  0  0  0  0  0  0  0  0  0  0
   52.0987   10.6527   15.6313 O   0  0  0  0  0  0  0  0  0  0  0  0
   55.4954   12.4033   16.8551 H   0  0  0  0  0  0  0  0  0  0  0  0
   53.8419   13.0196   16.9861 H   0  0  0  0  0  0  0  0  0  0  0  0
   55.6814   11.5910   13.5337 H   0  0  0  0  0  0  0  0  0  0  0  0
   54.9299   13.1859   13.2786 H   0  0  0  0  0  0  0  0  0  0  0  0
   53.7755   10.7764   13.2287 H   0  0  0  0  0  0  0  0  0  0  0  0
   55.4548   14.9191   16.9889 H   0  0  0  0  0  0  0  0  0  0  0  0
   54.4528   14.9834   15.5396 H   0  0  0  0  0  0  0  0  0  0  0  0
   57.3614   13.4587   13.7142 H   0  0  0  0  0  0  0  0  0  0  0  0
   57.2313   12.5679   15.2305 H   0  0  0  0  0  0  0  0  0  0  0  0
   51.7222   10.5685   12.1441 H   0  0  0  0  0  0  0  0  0  0  0  0
   50.9244   11.5203   13.4122 H   0  0  0  0  0  0  0  0  0  0  0  0
   51.1641    9.6519   15.0229 H   0  0  0  0  0  0  0  0  0  0  0  0
   52.1008    8.7146   13.8552 H   0  0  0  0  0  0  0  0  0  0  0  0
   50.1869    8.5982   12.4402 H   0  0  0  0  0  0  0  0  0  0  0  0
   50.3659    6.9021   14.1328 H   0  0  0  0  0  0  0  0  0  0  0  0
   49.5144    8.0011   15.2513 H   0  0  0  0  0  0  0  0  0  0  0  0
   48.3512    6.8737   12.6424 H   0  0  0  0  0  0  0  0  0  0  0  0
   46.8291    6.3565   15.1554 H   0  0  0  0  0  0  0  0  0  0  0  0
   48.4661    5.7500   15.2867 H   0  0  0  0  0  0  0  0  0  0  0  0
   47.8911    9.0822   13.4508 H   0  0  0  0  0  0  0  0  0  0  0  0
   46.6956    2.6607   12.8569 H   0  0  0  0  0  0  0  0  0  0  0  0
   45.3776    6.7248   13.4687 H   0  0  0  0  0  0  0  0  0  0  0  0
   44.5071    2.1065   11.8642 H   0  0  0  0  0  0  0  0  0  0  0  0
   43.2103    6.1616   12.4805 H   0  0  0  0  0  0  0  0  0  0  0  0
   42.4529    2.9099   11.3375 H   0  0  0  0  0  0  0  0  0  0  0  0
   46.7830    4.1552   12.7213 H   0  0  0  0  0  0  0  0  0  0  0  0
   46.1234    4.4434   14.3385 H   0  0  0  0  0  0  0  0  0  0  0  0
   47.3342    7.5226   11.7712 H   0  0  0  0  0  0  0  0  0  0  0  0
   45.7085    7.7048   12.4746 H   0  0  0  0  0  0  0  0  0  0  0  0
   47.5277    8.4270   13.8119 H   0  0  0  0  0  0  0  0  0  0  0  0
   44.1068    5.5263   13.3539 H   0  0  0  0  0  0  0  0  0  0  0  0
   44.2974    3.8924   12.7100 H   0  0  0  0  0  0  0  0  0  0  0  0
   45.5696    6.7871   10.1485 H   0  0  0  0  0  0  0  0  0  0  0  0
   46.5836    5.4146   10.6184 H   0  0  0  0  0  0  0  0  0  0  0  0
   49.1473    9.3556   15.0531 H   0  0  0  0  0  0  0  0  0  0  0  0
   48.5543    8.1424   16.1932 H   0  0  0  0  0  0  0  0  0  0  0  0
   50.3715    6.6298   15.6960 H   0  0  0  0  0  0  0  0  0  0  0  0
   51.0882    8.1934   15.9706 H   0  0  0  0  0  0  0  0  0  0  0  0
   50.4255    7.0193   13.3638 H   0  0  0  0  0  0  0  0  0  0  0  0
   51.4846    8.5429   12.2353 H   0  0  0  0  0  0  0  0  0  0  0  0
   50.7950    9.5631   13.4806 H   0  0  0  0  0  0  0  0  0  0  0  0
   53.3095    9.8589   12.8608 H   0  0  0  0  0  0  0  0  0  0  0  0
   52.2463   10.4779   15.2703 H   0  0  0  0  0  0  0  0  0  0  0  0
   53.1337    9.0514   15.7909 H   0  0  0  0  0  0  0  0  0  0  0  0
   53.2231    7.2725   13.8691 H   0  0  0  0  0  0  0  0  0  0  0  0
   52.4480   12.1000   13.8212 H   0  0  0  0  0  0  0  0  0  0  0  0
   56.4215   11.9064   15.4927 H   0  0  0  0  0  0  0  0  0  0  0  0
   52.8445   14.4018   13.1345 H   0  0  0  0  0  0  0  0  0  0  0  0
   56.8145   14.2512   14.7867 H   0  0  0  0  0  0  0  0  0  0  0  0
   54.3402   16.0915   13.0637 H   0  0  0  0  0  0  0  0  0  0  0  0
   49.6897    9.7545   15.1703 H   0  0  0  0  0  0  0  0  0  0  0  0
   50.8777    8.2262   12.7451 H   0  0  0  0  0  0  0  0  0  0  0  0
   47.7183    7.0880   12.1883 H   0  0  0  0  0  0  0  0  0  0  0  0
   53.5403    9.8735   14.1511 H   0  0  0  0  0  0  0  0  0  0  0  0
  3  7  1  0
  4  8  1  0
  5  9  1  0
  7 10  1  0
  9 11  1  0
 11 12  1  0
 12 13  1  0
 13 14  1  0
 14 15  1  0
 14 16  1  0
 15 17  1  0
 17 18  1  0
 18 19  2  0
 18 20  1  0
 19 21  1  0
 20 22  2  0
 21 23  2  0
 23 24  1  0
  8 10  1  0
 22 23  1  0
  1  2  1  0
  1  3  1  0
  1  4  1  0
  2  5  1  0
  2  6  2  0
 27 31  1  0
 28 32  1  0
 29 33  1  0
 31 34  1  0
 33 35  1  0
 35 36  1  0
 36 37  1  0
 37 38  1  0
 38 39  1  0
 38 40  1  0
 39 41  1  0
 41 42  1  0
 42 43  2  0
 42 44  1  0
 43 45  1  0
 44 46  2  0
 45 47  2  0
 47 48  1  0
 32 34  1  0
 46 47  1  0
 25 26  1  0
 25 27  1  0
 25 28  1  0
 26 29  1  0
 26 30  2  0
 49 50  2  0
 49 54  1  0
 50 51  1  0
 51 52  1  0
 51 53  2  0
 54 55  1  0
 54 56  2  0
  3 57  1  0
  3 58  1  0
  4 59  1  0
  4 60  1  0
  5 61  1  0
  7 62  1  0
  7 63  1  0
  8 64  1  0
  8 65  1  0
  9 66  1  0
  9 67  1  0
 11 68  1  0
 11 69  1  0
 12 70  1  0
 13 71  1  0
 13 72  1  0
 14 73  1  6
 15 74  1  0
 15 75  1  0
 16 76  1  0
 19 77  1  0
 20 78  1  0
 21 79  1  0
 22 80  1  0
 24 81  1  0
 27 82  1  0
 27 83  1  0
 28 84  1  0
 28 85  1  0
 29 86  1  0
 31 87  1  0
 31 88  1  0
 32 89  1  0
 32 90  1  0
 33 91  1  0
 33 92  1  0
 35 93  1  0
 35 94  1  0
 36 95  1  0
 37 96  1  0
 37 97  1  0
 38 98  1  6
 39 99  1  0
 39100  1  0
 40101  1  0
 43102  1  0
 44103  1  0
 45104  1  0
 46105  1  0
 48106  1  0
 49107  1  0
 50108  1  0
 52109  1  0
 55110  1  0
M  END
> <Uni-Dock RESULT> 
ENERGY=   -4.534  LOWER_BOUND=    6.988  UPPER_BOUND=   10.286
INTER + INTRA:          -4.534
INTER:                  -4.534
INTRA:                   0.000
UNBOUND:                 0.000

$$$$
