
     RDKit          3D

110111  0  0  0  0  0  0  0  0999 V2000
   44.9392    5.8380   11.9978 N   0  0  0  0  0  0  0  0  0  0  0  0
   45.9777    6.6379   12.4339 C   0  0  0  0  0  0  0  0  0  0  0  0
   43.8718    5.4925   12.9422 C   0  0  0  0  0  0  0  0  0  0  0  0
   44.9378    5.0546   10.7566 C   0  0  0  0  0  0  0  0  0  0  0  0
   46.9819    6.8331   11.5183 N   0  0  0  0  0  0  0  0  0  0  0  0
   46.0218    7.1257   13.5594 O   0  0  0  0  0  0  0  0  0  0  0  0
   43.5445    3.9977   12.8642 C   0  0  0  0  0  0  0  0  0  0  0  0
   43.5714    4.4130   10.4954 C   0  0  0  0  0  0  0  0  0  0  0  0
   48.1208    7.6715   11.8523 C   0  0  0  0  0  0  0  0  0  0  0  0
   43.1336    3.5603   11.5592 O   0  0  0  0  0  0  0  0  0  0  0  0
   49.1116    6.9842   12.8128 C   0  0  0  0  0  0  0  0  0  0  0  0
   50.2647    7.8101   13.2108 N   0  0  0  0  0  0  0  0  0  0  0  0
   51.1709    8.0946   12.0857 C   0  0  0  0  0  0  0  0  0  0  0  0
   52.5024    8.6916   12.5915 C   0  0  1  0  0  0  0  0  0  0  0  0
   52.3306   10.1086   13.1618 C   0  0  0  0  0  0  0  0  0  0  0  0
   53.0182    7.8069   13.6008 O   0  0  0  0  0  0  0  0  0  0  0  0
   53.5098   10.8917   12.9363 O   0  0  0  0  0  0  0  0  0  0  0  0
   54.3539   11.1227   13.9838 C   0  0  0  0  0  0  0  0  0  0  0  0
   55.1914   12.2312   13.8267 C   0  0  0  0  0  0  0  0  0  0  0  0
   54.4660   10.3407   15.1329 C   0  0  0  0  0  0  0  0  0  0  0  0
   56.1127   12.5720   14.8175 C   0  0  0  0  0  0  0  0  0  0  0  0
   55.3902   10.6778   16.1285 C   0  0  0  0  0  0  0  0  0  0  0  0
   56.2033   11.7939   15.9632 C   0  0  0  0  0  0  0  0  0  0  0  0
   57.1149   12.1563   16.9093 O   0  0  0  0  0  0  0  0  0  0  0  0
   45.1480    5.8903   12.1507 N   0  0  0  0  0  0  0  0  0  0  0  0
   46.1631    6.7872   12.4079 C   0  0  0  0  0  0  0  0  0  0  0  0
   45.2349    4.4366   12.3229 C   0  0  0  0  0  0  0  0  0  0  0  0
   43.9515    6.3668   11.4571 C   0  0  0  0  0  0  0  0  0  0  0  0
   47.2154    6.2686   13.1177 N   0  0  0  0  0  0  0  0  0  0  0  0
   46.1350    7.9536   12.0283 O   0  0  0  0  0  0  0  0  0  0  0  0
   44.3754    3.7064   11.2861 C   0  0  0  0  0  0  0  0  0  0  0  0
   42.7621    5.4391   11.7174 C   0  0  0  0  0  0  0  0  0  0  0  0
   48.3388    7.1117   13.4864 C   0  0  0  0  0  0  0  0  0  0  0  0
   42.9911    4.0744   11.3346 O   0  0  0  0  0  0  0  0  0  0  0  0
   49.2566    7.4338   12.2952 C   0  0  0  0  0  0  0  0  0  0  0  0
   50.4169    8.2323   12.7239 N   0  0  0  0  0  0  0  0  0  0  0  0
   51.2978    8.5024   11.5777 C   0  0  0  0  0  0  0  0  0  0  0  0
   52.5816    9.2403   11.9931 C   0  0  1  0  0  0  0  0  0  0  0  0
   53.4847    8.3701   12.8799 C   0  0  0  0  0  0  0  0  0  0  0  0
   53.3029    9.6112   10.8079 O   0  0  0  0  0  0  0  0  0  0  0  0
   54.6580    9.1058   13.2576 O   0  0  0  0  0  0  0  0  0  0  0  0
   54.6129    9.8723   14.3886 C   0  0  0  0  0  0  0  0  0  0  0  0
   53.4980   10.0907   15.1993 C   0  0  0  0  0  0  0  0  0  0  0  0
   55.8277   10.4847   14.7173 C   0  0  0  0  0  0  0  0  0  0  0  0
   53.6026   10.9117   16.3270 C   0  0  0  0  0  0  0  0  0  0  0  0
   55.9352   11.3026   15.8438 C   0  0  0  0  0  0  0  0  0  0  0  0
   54.8170   11.5094   16.6410 C   0  0  0  0  0  0  0  0  0  0  0  0
   54.8700   12.2979   17.7510 O   0  0  0  0  0  0  0  0  0  0  0  0
   49.3640    7.6451   12.4957 C   0  0  0  0  0  0  0  0  0  0  0  0
   50.0250    8.2526   13.4888 C   0  0  0  0  0  0  0  0  0  0  0  0
   51.3767    8.7542   13.2401 C   0  0  0  0  0  0  0  0  0  0  0  0
   51.8729    9.3190   14.3506 O   0  0  0  0  0  0  0  0  0  0  0  0
   52.0053    8.6947   12.2015 O   0  0  0  0  0  0  0  0  0  0  0  0
   48.0128    7.1419   12.7449 C   0  0  0  0  0  0  0  0  0  0  0  0
   47.5230    6.5626   11.6392 O   0  0  0  0  0  0  0  0  0  0  0  0
   47.3800    7.2120   13.7803 O   0  0  0  0  0  0  0  0  0  0  0  0
   44.1395    5.7649   13.9675 H   0  0  0  0  0  0  0  0  0  0  0  0
   42.9963    6.0850   12.6523 H   0  0  0  0  0  0  0  0  0  0  0  0
   45.2114    5.6940    9.9128 H   0  0  0  0  0  0  0  0  0  0  0  0
   45.7049    4.2794   10.8693 H   0  0  0  0  0  0  0  0  0  0  0  0
   46.6650    6.9022   10.5653 H   0  0  0  0  0  0  0  0  0  0  0  0
   44.4216    3.4033   13.1452 H   0  0  0  0  0  0  0  0  0  0  0  0
   42.7396    3.7483   13.5628 H   0  0  0  0  0  0  0  0  0  0  0  0
   42.8074    5.1857   10.3489 H   0  0  0  0  0  0  0  0  0  0  0  0
   43.6048    3.8115    9.5816 H   0  0  0  0  0  0  0  0  0  0  0  0
   48.6130    7.9082   10.9035 H   0  0  0  0  0  0  0  0  0  0  0  0
   47.7511    8.6086   12.2846 H   0  0  0  0  0  0  0  0  0  0  0  0
   49.4632    6.0421   12.3734 H   0  0  0  0  0  0  0  0  0  0  0  0
   48.5888    6.6997   13.7329 H   0  0  0  0  0  0  0  0  0  0  0  0
   49.9138    8.6806   13.6151 H   0  0  0  0  0  0  0  0  0  0  0  0
   51.4049    7.1509   11.5777 H   0  0  0  0  0  0  0  0  0  0  0  0
   50.7069    8.7687   11.3581 H   0  0  0  0  0  0  0  0  0  0  0  0
   53.2295    8.7015   11.7716 H   0  0  0  0  0  0  0  0  0  0  0  0
   52.0195   10.1086   14.2132 H   0  0  0  0  0  0  0  0  0  0  0  0
   51.5436   10.6294   12.6041 H   0  0  0  0  0  0  0  0  0  0  0  0
   52.2239    7.4140   14.0212 H   0  0  0  0  0  0  0  0  0  0  0  0
   55.1225   12.8364   12.9262 H   0  0  0  0  0  0  0  0  0  0  0  0
   53.8661    9.4482   15.2729 H   0  0  0  0  0  0  0  0  0  0  0  0
   56.7575   13.4366   14.6920 H   0  0  0  0  0  0  0  0  0  0  0  0
   55.4638   10.0525   17.0124 H   0  0  0  0  0  0  0  0  0  0  0  0
   57.0767   11.5125   17.6353 H   0  0  0  0  0  0  0  0  0  0  0  0
   46.2745    4.1038   12.2468 H   0  0  0  0  0  0  0  0  0  0  0  0
   44.8698    4.2210   13.3337 H   0  0  0  0  0  0  0  0  0  0  0  0
   44.1918    6.3866   10.3873 H   0  0  0  0  0  0  0  0  0  0  0  0
   43.7176    7.3891   11.7732 H   0  0  0  0  0  0  0  0  0  0  0  0
   46.9467    5.5770   13.8006 H   0  0  0  0  0  0  0  0  0  0  0  0
   44.4347    2.6243   11.4395 H   0  0  0  0  0  0  0  0  0  0  0  0
   44.7407    3.9135   10.2732 H   0  0  0  0  0  0  0  0  0  0  0  0
   42.5118    5.4389   12.7848 H   0  0  0  0  0  0  0  0  0  0  0  0
   41.8794    5.7902   11.1737 H   0  0  0  0  0  0  0  0  0  0  0  0
   48.9005    6.5684   14.2543 H   0  0  0  0  0  0  0  0  0  0  0  0
   47.9518    8.0331   13.9371 H   0  0  0  0  0  0  0  0  0  0  0  0
   48.6974    7.9733   11.5222 H   0  0  0  0  0  0  0  0  0  0  0  0
   49.5982    6.4903   11.8526 H   0  0  0  0  0  0  0  0  0  0  0  0
   50.0689    9.1259   13.0798 H   0  0  0  0  0  0  0  0  0  0  0  0
   51.5769    7.5651   11.0787 H   0  0  0  0  0  0  0  0  0  0  0  0
   50.7665    9.1042   10.8292 H   0  0  0  0  0  0  0  0  0  0  0  0
   52.3265   10.1777   12.4990 H   0  0  0  0  0  0  0  0  0  0  0  0
   52.9753    7.9400   13.7487 H   0  0  0  0  0  0  0  0  0  0  0  0
   53.8524    7.5228   12.2885 H   0  0  0  0  0  0  0  0  0  0  0  0
   54.1665    9.9467   11.1174 H   0  0  0  0  0  0  0  0  0  0  0  0
   52.5311    9.6466   14.9877 H   0  0  0  0  0  0  0  0  0  0  0  0
   56.7004   10.3177   14.0896 H   0  0  0  0  0  0  0  0  0  0  0  0
   52.7361   11.0818   16.9599 H   0  0  0  0  0  0  0  0  0  0  0  0
   56.8901   11.7617   16.0768 H   0  0  0  0  0  0  0  0  0  0  0  0
   55.7736   12.6425   17.8413 H   0  0  0  0  0  0  0  0  0  0  0  0
   49.7836    7.5045   11.5063 H   0  0  0  0  0  0  0  0  0  0  0  0
   49.6052    8.3925   14.4779 H   0  0  0  0  0  0  0  0  0  0  0  0
   52.7680    9.6189   14.0875 H   0  0  0  0  0  0  0  0  0  0  0  0
   46.6285    6.2612   11.9022 H   0  0  0  0  0  0  0  0  0  0  0  0
  3  7  1  0
  4  8  1  0
  5  9  1  0
  7 10  1  0
  9 11  1  0
 11 12  1  0
 12 13  1  0
 13 14  1  0
 14 15  1  0
 14 16  1  0
 15 17  1  0
 17 18  1  0
 18 19  2  0
 18 20  1  0
 19 21  1  0
 20 22  2  0
 21 23  2  0
 23 24  1  0
  8 10  1  0
 22 23  1  0
  1  2  1  0
  1  3  1  0
  1  4  1  0
  2  5  1  0
  2  6  2  0
 27 31  1  0
 28 32  1  0
 29 33  1  0
 31 34  1  0
 33 35  1  0
 35 36  1  0
 36 37  1  0
 37 38  1  0
 38 39  1  0
 38 40  1  0
 39 41  1  0
 41 42  1  0
 42 43  2  0
 42 44  1  0
 43 45  1  0
 44 46  2  0
 45 47  2  0
 47 48  1  0
 32 34  1  0
 46 47  1  0
 25 26  1  0
 25 27  1  0
 25 28  1  0
 26 29  1  0
 26 30  2  0
 49 50  2  0
 49 54  1  0
 50 51  1  0
 51 52  1  0
 51 53  2  0
 54 55  1  0
 54 56  2  0
  3 57  1  0
  3 58  1  0
  4 59  1  0
  4 60  1  0
  5 61  1  0
  7 62  1  0
  7 63  1  0
  8 64  1  0
  8 65  1  0
  9 66  1  0
  9 67  1  0
 11 68  1  0
 11 69  1  0
 12 70  1  0
 13 71  1  0
 13 72  1  0
 14 73  1  6
 15 74  1  0
 15 75  1  0
 16 76  1  0
 19 77  1  0
 20 78  1  0
 21 79  1  0
 22 80  1  0
 24 81  1  0
 27 82  1  0
 27 83  1  0
 28 84  1  0
 28 85  1  0
 29 86  1  0
 31 87  1  0
 31 88  1  0
 32 89  1  0
 32 90  1  0
 33 91  1  0
 33 92  1  0
 35 93  1  0
 35 94  1  0
 36 95  1  0
 37 96  1  0
 37 97  1  0
 38 98  1  1
 39 99  1  0
 39100  1  0
 40101  1  0
 43102  1  0
 44103  1  0
 45104  1  0
 46105  1  0
 48106  1  0
 49107  1  0
 50108  1  0
 52109  1  0
 55110  1  0
M  END
> <Uni-Dock RESULT> 
ENERGY=   -6.316  LOWER_BOUND=    0.000  UPPER_BOUND=    0.000
INTER + INTRA:          -6.316
INTER:                  -6.316
INTRA:                   0.000
UNBOUND:                 0.000

$$$$

     RDKit          3D

110111  0  0  0  0  0  0  0  0999 V2000
   45.1211    5.6336   11.7841 N   0  0  0  0  0  0  0  0  0  0  0  0
   46.1111    6.5382   12.1154 C   0  0  0  0  0  0  0  0  0  0  0  0
   43.8570    6.1407   11.2403 C   0  0  0  0  0  0  0  0  0  0  0  0
   45.0927    4.2233   12.1898 C   0  0  0  0  0  0  0  0  0  0  0  0
   47.2222    5.9898   12.7068 N   0  0  0  0  0  0  0  0  0  0  0  0
   46.0090    7.7459   11.9207 O   0  0  0  0  0  0  0  0  0  0  0  0
   42.6646    5.4613   11.9216 C   0  0  0  0  0  0  0  0  0  0  0  0
   43.9439    3.4653   11.5172 C   0  0  0  0  0  0  0  0  0  0  0  0
   48.3408    6.8369   13.0845 C   0  0  0  0  0  0  0  0  0  0  0  0
   42.6568    4.0312   11.7881 O   0  0  0  0  0  0  0  0  0  0  0  0
   48.0619    7.6711   14.3505 C   0  0  0  0  0  0  0  0  0  0  0  0
   49.1541    8.5748   14.7515 N   0  0  0  0  0  0  0  0  0  0  0  0
   50.3545    7.8475   15.1963 C   0  0  0  0  0  0  0  0  0  0  0  0
   51.3509    8.8042   15.8870 C   0  0  1  0  0  0  0  0  0  0  0  0
   51.9890    9.7971   14.9022 C   0  0  0  0  0  0  0  0  0  0  0  0
   50.6328    9.5110   16.9127 O   0  0  0  0  0  0  0  0  0  0  0  0
   53.3245   10.1245   15.3072 O   0  0  0  0  0  0  0  0  0  0  0  0
   53.5547   11.3380   15.8880 C   0  0  0  0  0  0  0  0  0  0  0  0
   54.8822   11.7726   15.8285 C   0  0  0  0  0  0  0  0  0  0  0  0
   52.6089   12.1234   16.5463 C   0  0  0  0  0  0  0  0  0  0  0  0
   55.2575   12.9906   16.3961 C   0  0  0  0  0  0  0  0  0  0  0  0
   52.9813   13.3450   17.1189 C   0  0  0  0  0  0  0  0  0  0  0  0
   54.3030   13.7697   17.0351 C   0  0  0  0  0  0  0  0  0  0  0  0
   54.7058   14.9529   17.5786 O   0  0  0  0  0  0  0  0  0  0  0  0
   45.2184    5.8357   11.9235 N   0  0  0  0  0  0  0  0  0  0  0  0
   46.3352    6.6078   12.1633 C   0  0  0  0  0  0  0  0  0  0  0  0
   44.1981    5.4860   12.9170 C   0  0  0  0  0  0  0  0  0  0  0  0
   45.1194    5.1242   10.6493 C   0  0  0  0  0  0  0  0  0  0  0  0
   46.3127    7.2883   13.3534 N   0  0  0  0  0  0  0  0  0  0  0  0
   47.2784    6.6779   11.3815 O   0  0  0  0  0  0  0  0  0  0  0  0
   43.6105    4.0988   12.6389 C   0  0  0  0  0  0  0  0  0  0  0  0
   43.6638    4.7740   10.3298 C   0  0  0  0  0  0  0  0  0  0  0  0
   47.4111    8.1653   13.7186 C   0  0  0  0  0  0  0  0  0  0  0  0
   43.0185    3.9825   11.3389 O   0  0  0  0  0  0  0  0  0  0  0  0
   48.6716    7.3939   14.1442 C   0  0  0  0  0  0  0  0  0  0  0  0
   49.7365    8.3171   14.5701 N   0  0  0  0  0  0  0  0  0  0  0  0
   50.9206    7.5600   15.0030 C   0  0  0  0  0  0  0  0  0  0  0  0
   52.0229    8.4755   15.5618 C   0  0  1  0  0  0  0  0  0  0  0  0
   51.5962    9.1582   16.8698 C   0  0  0  0  0  0  0  0  0  0  0  0
   53.1973    7.6855   15.8049 O   0  0  0  0  0  0  0  0  0  0  0  0
   52.6466   10.0153   17.3418 O   0  0  0  0  0  0  0  0  0  0  0  0
   52.6810   11.3095   16.9031 C   0  0  0  0  0  0  0  0  0  0  0  0
   51.8322   11.8885   15.9586 C   0  0  0  0  0  0  0  0  0  0  0  0
   53.6915   12.0863   17.4814 C   0  0  0  0  0  0  0  0  0  0  0  0
   51.9947   13.2311   15.6012 C   0  0  0  0  0  0  0  0  0  0  0  0
   53.8540   13.4273   17.1282 C   0  0  0  0  0  0  0  0  0  0  0  0
   53.0008   13.9892   16.1874 C   0  0  0  0  0  0  0  0  0  0  0  0
   53.1174   15.2931   15.8095 O   0  0  0  0  0  0  0  0  0  0  0  0
   48.7984    7.6750   14.1083 C   0  0  0  0  0  0  0  0  0  0  0  0
   49.2012    8.9362   14.3068 C   0  0  0  0  0  0  0  0  0  0  0  0
   50.4552    9.1776   15.0209 C   0  0  0  0  0  0  0  0  0  0  0  0
   50.6819   10.4950   15.1267 O   0  0  0  0  0  0  0  0  0  0  0  0
   51.2175    8.3459   15.4731 O   0  0  0  0  0  0  0  0  0  0  0  0
   47.5434    7.4336   13.3958 C   0  0  0  0  0  0  0  0  0  0  0  0
   47.3086    6.1166   13.3043 O   0  0  0  0  0  0  0  0  0  0  0  0
   46.7872    8.2653   12.9334 O   0  0  0  0  0  0  0  0  0  0  0  0
   43.7812    7.2270   11.3473 H   0  0  0  0  0  0  0  0  0  0  0  0
   43.8626    5.9058   10.1696 H   0  0  0  0  0  0  0  0  0  0  0  0
   46.0443    3.7456   11.9410 H   0  0  0  0  0  0  0  0  0  0  0  0
   44.9698    4.2086   13.2791 H   0  0  0  0  0  0  0  0  0  0  0  0
   47.4739    5.0821   12.3519 H   0  0  0  0  0  0  0  0  0  0  0  0
   42.6623    5.6878   12.9942 H   0  0  0  0  0  0  0  0  0  0  0  0
   41.7247    5.8354   11.5037 H   0  0  0  0  0  0  0  0  0  0  0  0
   44.0809    3.4492   10.4294 H   0  0  0  0  0  0  0  0  0  0  0  0
   43.9266    2.4254   11.8580 H   0  0  0  0  0  0  0  0  0  0  0  0
   49.1887    6.1646   13.2510 H   0  0  0  0  0  0  0  0  0  0  0  0
   48.5873    7.4893   12.2388 H   0  0  0  0  0  0  0  0  0  0  0  0
   47.8041    7.0066   15.1849 H   0  0  0  0  0  0  0  0  0  0  0  0
   47.1747    8.2935   14.1884 H   0  0  0  0  0  0  0  0  0  0  0  0
   49.3775    9.1818   13.9603 H   0  0  0  0  0  0  0  0  0  0  0  0
   50.0538    7.0951   15.9359 H   0  0  0  0  0  0  0  0  0  0  0  0
   50.8423    7.3315   14.3627 H   0  0  0  0  0  0  0  0  0  0  0  0
   52.1296    8.2171   16.3870 H   0  0  0  0  0  0  0  0  0  0  0  0
   51.3697   10.6861   14.7341 H   0  0  0  0  0  0  0  0  0  0  0  0
   52.1084    9.3117   13.9266 H   0  0  0  0  0  0  0  0  0  0  0  0
   49.7151    9.5830   16.5740 H   0  0  0  0  0  0  0  0  0  0  0  0
   55.6295   11.1585   15.3321 H   0  0  0  0  0  0  0  0  0  0  0  0
   51.5788   11.8015   16.6529 H   0  0  0  0  0  0  0  0  0  0  0  0
   56.2891   13.3252   16.3430 H   0  0  0  0  0  0  0  0  0  0  0  0
   52.2300   13.9378   17.6304 H   0  0  0  0  0  0  0  0  0  0  0  0
   53.9400   15.3720   18.0042 H   0  0  0  0  0  0  0  0  0  0  0  0
   44.6202    5.5170   13.9261 H   0  0  0  0  0  0  0  0  0  0  0  0
   43.4149    6.2490   12.8399 H   0  0  0  0  0  0  0  0  0  0  0  0
   45.7176    4.2105   10.7488 H   0  0  0  0  0  0  0  0  0  0  0  0
   45.5535    5.7306    9.8470 H   0  0  0  0  0  0  0  0  0  0  0  0
   45.3945    7.6021   13.6277 H   0  0  0  0  0  0  0  0  0  0  0  0
   42.8374    3.8603   13.3761 H   0  0  0  0  0  0  0  0  0  0  0  0
   44.3888    3.3309   12.7214 H   0  0  0  0  0  0  0  0  0  0  0  0
   43.0741    5.6904   10.2100 H   0  0  0  0  0  0  0  0  0  0  0  0
   43.6037    4.2198    9.3878 H   0  0  0  0  0  0  0  0  0  0  0  0
   47.0551    8.7857   14.5484 H   0  0  0  0  0  0  0  0  0  0  0  0
   47.6289    8.8251   12.8706 H   0  0  0  0  0  0  0  0  0  0  0  0
   49.0286    6.7680   13.3183 H   0  0  0  0  0  0  0  0  0  0  0  0
   48.4081    6.7239   14.9715 H   0  0  0  0  0  0  0  0  0  0  0  0
   49.9975    8.8891   13.7633 H   0  0  0  0  0  0  0  0  0  0  0  0
   50.6475    6.8277   15.7741 H   0  0  0  0  0  0  0  0  0  0  0  0
   51.3271    6.9848   14.1611 H   0  0  0  0  0  0  0  0  0  0  0  0
   52.3076    9.2191   14.8097 H   0  0  0  0  0  0  0  0  0  0  0  0
   50.6379    9.6843   16.8061 H   0  0  0  0  0  0  0  0  0  0  0  0
   51.4759    8.3933   17.6465 H   0  0  0  0  0  0  0  0  0  0  0  0
   53.8156    8.2706   16.2841 H   0  0  0  0  0  0  0  0  0  0  0  0
   51.0371   11.3314   15.4745 H   0  0  0  0  0  0  0  0  0  0  0  0
   54.3558   11.6407   18.2187 H   0  0  0  0  0  0  0  0  0  0  0  0
   51.3340   13.6838   14.8672 H   0  0  0  0  0  0  0  0  0  0  0  0
   54.6435   14.0068   17.5950 H   0  0  0  0  0  0  0  0  0  0  0  0
   53.8562   15.6908   16.2987 H   0  0  0  0  0  0  0  0  0  0  0  0
   49.3600    6.8145   14.4531 H   0  0  0  0  0  0  0  0  0  0  0  0
   48.6392    9.7962   13.9624 H   0  0  0  0  0  0  0  0  0  0  0  0
   51.5307   10.5538   15.6130 H   0  0  0  0  0  0  0  0  0  0  0  0
   46.4592    6.0573   12.8194 H   0  0  0  0  0  0  0  0  0  0  0  0
  3  7  1  0
  4  8  1  0
  5  9  1  0
  7 10  1  0
  9 11  1  0
 11 12  1  0
 12 13  1  0
 13 14  1  0
 14 15  1  0
 14 16  1  0
 15 17  1  0
 17 18  1  0
 18 19  2  0
 18 20  1  0
 19 21  1  0
 20 22  2  0
 21 23  2  0
 23 24  1  0
  8 10  1  0
 22 23  1  0
  1  2  1  0
  1  3  1  0
  1  4  1  0
  2  5  1  0
  2  6  2  0
 27 31  1  0
 28 32  1  0
 29 33  1  0
 31 34  1  0
 33 35  1  0
 35 36  1  0
 36 37  1  0
 37 38  1  0
 38 39  1  0
 38 40  1  0
 39 41  1  0
 41 42  1  0
 42 43  2  0
 42 44  1  0
 43 45  1  0
 44 46  2  0
 45 47  2  0
 47 48  1  0
 32 34  1  0
 46 47  1  0
 25 26  1  0
 25 27  1  0
 25 28  1  0
 26 29  1  0
 26 30  2  0
 49 50  2  0
 49 54  1  0
 50 51  1  0
 51 52  1  0
 51 53  2  0
 54 55  1  0
 54 56  2  0
  3 57  1  0
  3 58  1  0
  4 59  1  0
  4 60  1  0
  5 61  1  0
  7 62  1  0
  7 63  1  0
  8 64  1  0
  8 65  1  0
  9 66  1  0
  9 67  1  0
 11 68  1  0
 11 69  1  0
 12 70  1  0
 13 71  1  0
 13 72  1  0
 14 73  1  6
 15 74  1  0
 15 75  1  0
 16 76  1  0
 19 77  1  0
 20 78  1  0
 21 79  1  0
 22 80  1  0
 24 81  1  0
 27 82  1  0
 27 83  1  0
 28 84  1  0
 28 85  1  0
 29 86  1  0
 31 87  1  0
 31 88  1  0
 32 89  1  0
 32 90  1  0
 33 91  1  0
 33 92  1  0
 35 93  1  0
 35 94  1  0
 36 95  1  0
 37 96  1  0
 37 97  1  0
 38 98  1  1
 39 99  1  0
 39100  1  0
 40101  1  0
 43102  1  0
 44103  1  0
 45104  1  0
 46105  1  0
 48106  1  0
 49107  1  0
 50108  1  0
 52109  1  0
 55110  1  0
M  END
> <Uni-Dock RESULT> 
ENERGY=   -5.710  LOWER_BOUND=    1.798  UPPER_BOUND=    2.566
INTER + INTRA:          -5.710
INTER:                  -5.710
INTRA:                   0.000
UNBOUND:                 0.000

$$$$

     RDKit          3D

110111  0  0  0  0  0  0  0  0999 V2000
   45.3225    4.4411   12.5857 N   0  0  0  0  0  0  0  0  0  0  0  0
   46.4201    4.4881   13.4230 C   0  0  0  0  0  0  0  0  0  0  0  0
   45.4764    4.8866   11.1970 C   0  0  0  0  0  0  0  0  0  0  0  0
   43.9327    4.2586   13.0212 C   0  0  0  0  0  0  0  0  0  0  0  0
   46.1675    4.1461   14.7285 N   0  0  0  0  0  0  0  0  0  0  0  0
   47.5376    4.8287   13.0459 O   0  0  0  0  0  0  0  0  0  0  0  0
   44.3165    5.8020   10.7916 C   0  0  0  0  0  0  0  0  0  0  0  0
   42.9852    4.0889   11.8294 C   0  0  0  0  0  0  0  0  0  0  0  0
   47.2459    4.1390   15.7025 C   0  0  0  0  0  0  0  0  0  0  0  0
   43.0229    5.1899   10.9147 O   0  0  0  0  0  0  0  0  0  0  0  0
   47.6687    5.5551   16.1410 C   0  0  0  0  0  0  0  0  0  0  0  0
   48.7857    5.6003   17.1005 N   0  0  0  0  0  0  0  0  0  0  0  0
   48.4274    5.0341   18.4115 C   0  0  0  0  0  0  0  0  0  0  0  0
   49.5035    5.3709   19.4668 C   0  0  1  0  0  0  0  0  0  0  0  0
   50.8278    4.6339   19.2098 C   0  0  0  0  0  0  0  0  0  0  0  0
   49.7103    6.7935   19.4361 O   0  0  0  0  0  0  0  0  0  0  0  0
   51.4942    4.3443   20.4454 O   0  0  0  0  0  0  0  0  0  0  0  0
   52.5732    5.1007   20.8015 C   0  0  0  0  0  0  0  0  0  0  0  0
   53.4284    4.4993   21.7297 C   0  0  0  0  0  0  0  0  0  0  0  0
   52.8497    6.3931   20.3569 C   0  0  0  0  0  0  0  0  0  0  0  0
   54.5625    5.1694   22.1895 C   0  0  0  0  0  0  0  0  0  0  0  0
   53.9852    7.0699   20.8170 C   0  0  0  0  0  0  0  0  0  0  0  0
   54.8343    6.4495   21.7272 C   0  0  0  0  0  0  0  0  0  0  0  0
   55.9503    7.0740   22.1986 O   0  0  0  0  0  0  0  0  0  0  0  0
   45.5132    4.5679   12.7169 N   0  0  0  0  0  0  0  0  0  0  0  0
   46.5495    4.4295   13.6159 C   0  0  0  0  0  0  0  0  0  0  0  0
   44.6523    5.7480   12.5881 C   0  0  0  0  0  0  0  0  0  0  0  0
   45.0790    3.3924   11.9624 C   0  0  0  0  0  0  0  0  0  0  0  0
   46.9313    5.5948   14.2291 N   0  0  0  0  0  0  0  0  0  0  0  0
   47.0848    3.3519   13.8563 O   0  0  0  0  0  0  0  0  0  0  0  0
   43.2337    5.3520   12.1666 C   0  0  0  0  0  0  0  0  0  0  0  0
   44.3345    3.8036   10.6896 C   0  0  0  0  0  0  0  0  0  0  0  0
   48.0329    5.5997   15.1754 C   0  0  0  0  0  0  0  0  0  0  0  0
   43.1885    4.6354   10.9263 O   0  0  0  0  0  0  0  0  0  0  0  0
   47.6580    4.9708   16.5277 C   0  0  0  0  0  0  0  0  0  0  0  0
   48.7788    5.0567   17.4785 N   0  0  0  0  0  0  0  0  0  0  0  0
   48.3901    4.4794   18.7740 C   0  0  0  0  0  0  0  0  0  0  0  0
   49.4898    4.6438   19.8365 C   0  0  1  0  0  0  0  0  0  0  0  0
   49.7154    6.1169   20.2086 C   0  0  0  0  0  0  0  0  0  0  0  0
   49.1054    3.9151   21.0127 O   0  0  0  0  0  0  0  0  0  0  0  0
   50.7613    6.2219   21.1862 O   0  0  0  0  0  0  0  0  0  0  0  0
   52.0527    6.3341   20.7522 C   0  0  0  0  0  0  0  0  0  0  0  0
   52.4914    6.2768   19.4285 C   0  0  0  0  0  0  0  0  0  0  0  0
   52.9901    6.5128   21.7760 C   0  0  0  0  0  0  0  0  0  0  0  0
   53.8539    6.3998   19.1367 C   0  0  0  0  0  0  0  0  0  0  0  0
   54.3503    6.6384   21.4870 C   0  0  0  0  0  0  0  0  0  0  0  0
   54.7711    6.5801   20.1648 C   0  0  0  0  0  0  0  0  0  0  0  0
   56.0867    6.6981   19.8304 O   0  0  0  0  0  0  0  0  0  0  0  0
   47.9664    4.9765   16.5625 C   0  0  0  0  0  0  0  0  0  0  0  0
   49.2231    5.3656   16.8104 C   0  0  0  0  0  0  0  0  0  0  0  0
   49.7215    5.3246   18.1854 C   0  0  0  0  0  0  0  0  0  0  0  0
   50.9897    5.7577   18.2316 O   0  0  0  0  0  0  0  0  0  0  0  0
   49.1193    4.9616   19.1768 O   0  0  0  0  0  0  0  0  0  0  0  0
   47.4674    5.0191   15.1876 C   0  0  0  0  0  0  0  0  0  0  0  0
   46.1940    4.6015   15.1438 O   0  0  0  0  0  0  0  0  0  0  0  0
   48.0736    5.3711   14.1946 O   0  0  0  0  0  0  0  0  0  0  0  0
   46.4305    5.3997   11.0435 H   0  0  0  0  0  0  0  0  0  0  0  0
   45.4755    3.9817   10.5782 H   0  0  0  0  0  0  0  0  0  0  0  0
   43.8598    3.3863   13.6764 H   0  0  0  0  0  0  0  0  0  0  0  0
   43.6607    5.1508   13.5973 H   0  0  0  0  0  0  0  0  0  0  0  0
   45.4861    3.4136   14.8396 H   0  0  0  0  0  0  0  0  0  0  0  0
   44.3104    6.7035   11.4154 H   0  0  0  0  0  0  0  0  0  0  0  0
   44.4309    6.1219    9.7511 H   0  0  0  0  0  0  0  0  0  0  0  0
   43.2332    3.1792   11.2697 H   0  0  0  0  0  0  0  0  0  0  0  0
   41.9533    3.9843   12.1789 H   0  0  0  0  0  0  0  0  0  0  0  0
   46.8763    3.5694   16.5613 H   0  0  0  0  0  0  0  0  0  0  0  0
   48.0980    3.5958   15.2777 H   0  0  0  0  0  0  0  0  0  0  0  0
   46.8039    6.0914   16.5519 H   0  0  0  0  0  0  0  0  0  0  0  0
   47.9784    6.1313   15.2618 H   0  0  0  0  0  0  0  0  0  0  0  0
   49.5774    5.0948   16.6979 H   0  0  0  0  0  0  0  0  0  0  0  0
   47.4863    5.4895   18.7439 H   0  0  0  0  0  0  0  0  0  0  0  0
   48.2812    3.9504   18.3536 H   0  0  0  0  0  0  0  0  0  0  0  0
   49.1226    5.1236   20.4643 H   0  0  0  0  0  0  0  0  0  0  0  0
   51.4737    5.1577   18.4953 H   0  0  0  0  0  0  0  0  0  0  0  0
   50.6152    3.6505   18.7747 H   0  0  0  0  0  0  0  0  0  0  0  0
   49.5380    7.0531   18.5061 H   0  0  0  0  0  0  0  0  0  0  0  0
   53.2111    3.4985   22.0946 H   0  0  0  0  0  0  0  0  0  0  0  0
   52.1881    6.9115   19.6715 H   0  0  0  0  0  0  0  0  0  0  0  0
   55.2256    4.6957   22.9071 H   0  0  0  0  0  0  0  0  0  0  0  0
   54.1785    8.0767   20.4614 H   0  0  0  0  0  0  0  0  0  0  0  0
   55.9958    7.9604   21.8047 H   0  0  0  0  0  0  0  0  0  0  0  0
   44.6203    6.3030   13.5307 H   0  0  0  0  0  0  0  0  0  0  0  0
   45.1093    6.3838   11.8211 H   0  0  0  0  0  0  0  0  0  0  0  0
   44.4170    2.8187   12.6221 H   0  0  0  0  0  0  0  0  0  0  0  0
   45.9427    2.7653   11.7164 H   0  0  0  0  0  0  0  0  0  0  0  0
   46.8593    6.4098   13.6396 H   0  0  0  0  0  0  0  0  0  0  0  0
   42.6089    6.2438   12.0555 H   0  0  0  0  0  0  0  0  0  0  0  0
   42.7695    4.7211   12.9339 H   0  0  0  0  0  0  0  0  0  0  0  0
   45.0059    4.3582   10.0236 H   0  0  0  0  0  0  0  0  0  0  0  0
   43.9918    2.9174   10.1461 H   0  0  0  0  0  0  0  0  0  0  0  0
   48.3201    6.6474   15.3176 H   0  0  0  0  0  0  0  0  0  0  0  0
   48.8828    5.0729   14.7257 H   0  0  0  0  0  0  0  0  0  0  0  0
   47.3653    3.9237   16.3894 H   0  0  0  0  0  0  0  0  0  0  0  0
   46.7876    5.5027   16.9307 H   0  0  0  0  0  0  0  0  0  0  0  0
   49.5540    4.5064   17.1006 H   0  0  0  0  0  0  0  0  0  0  0  0
   47.4704    4.9512   19.1441 H   0  0  0  0  0  0  0  0  0  0  0  0
   48.1638    3.4118   18.6567 H   0  0  0  0  0  0  0  0  0  0  0  0
   50.4201    4.1845   19.4853 H   0  0  0  0  0  0  0  0  0  0  0  0
   49.8930    6.7717   19.3489 H   0  0  0  0  0  0  0  0  0  0  0  0
   48.8155    6.4991   20.7055 H   0  0  0  0  0  0  0  0  0  0  0  0
   49.7551    4.1596   21.7000 H   0  0  0  0  0  0  0  0  0  0  0  0
   51.8094    6.1335   18.5971 H   0  0  0  0  0  0  0  0  0  0  0  0
   52.6542    6.5589   22.8096 H   0  0  0  0  0  0  0  0  0  0  0  0
   54.1970    6.3568   18.1068 H   0  0  0  0  0  0  0  0  0  0  0  0
   55.0545    6.7795   22.3001 H   0  0  0  0  0  0  0  0  0  0  0  0
   56.6020    6.8182   20.6449 H   0  0  0  0  0  0  0  0  0  0  0  0
   47.2922    4.6289   17.3366 H   0  0  0  0  0  0  0  0  0  0  0  0
   49.8966    5.7135   16.0362 H   0  0  0  0  0  0  0  0  0  0  0  0
   51.2301    5.6947   19.1796 H   0  0  0  0  0  0  0  0  0  0  0  0
   45.9526    4.6657   14.1963 H   0  0  0  0  0  0  0  0  0  0  0  0
  3  7  1  0
  4  8  1  0
  5  9  1  0
  7 10  1  0
  9 11  1  0
 11 12  1  0
 12 13  1  0
 13 14  1  0
 14 15  1  0
 14 16  1  0
 15 17  1  0
 17 18  1  0
 18 19  2  0
 18 20  1  0
 19 21  1  0
 20 22  2  0
 21 23  2  0
 23 24  1  0
  8 10  1  0
 22 23  1  0
  1  2  1  0
  1  3  1  0
  1  4  1  0
  2  5  1  0
  2  6  2  0
 27 31  1  0
 28 32  1  0
 29 33  1  0
 31 34  1  0
 33 35  1  0
 35 36  1  0
 36 37  1  0
 37 38  1  0
 38 39  1  0
 38 40  1  0
 39 41  1  0
 41 42  1  0
 42 43  2  0
 42 44  1  0
 43 45  1  0
 44 46  2  0
 45 47  2  0
 47 48  1  0
 32 34  1  0
 46 47  1  0
 25 26  1  0
 25 27  1  0
 25 28  1  0
 26 29  1  0
 26 30  2  0
 49 50  2  0
 49 54  1  0
 50 51  1  0
 51 52  1  0
 51 53  2  0
 54 55  1  0
 54 56  2  0
  3 57  1  0
  3 58  1  0
  4 59  1  0
  4 60  1  0
  5 61  1  0
  7 62  1  0
  7 63  1  0
  8 64  1  0
  8 65  1  0
  9 66  1  0
  9 67  1  0
 11 68  1  0
 11 69  1  0
 12 70  1  0
 13 71  1  0
 13 72  1  0
 14 73  1  6
 15 74  1  0
 15 75  1  0
 16 76  1  0
 19 77  1  0
 20 78  1  0
 21 79  1  0
 22 80  1  0
 24 81  1  0
 27 82  1  0
 27 83  1  0
 28 84  1  0
 28 85  1  0
 29 86  1  0
 31 87  1  0
 31 88  1  0
 32 89  1  0
 32 90  1  0
 33 91  1  0
 33 92  1  0
 35 93  1  0
 35 94  1  0
 36 95  1  0
 37 96  1  0
 37 97  1  0
 38 98  1  1
 39 99  1  0
 39100  1  0
 40101  1  0
 43102  1  0
 44103  1  0
 45104  1  0
 46105  1  0
 48106  1  0
 49107  1  0
 50108  1  0
 52109  1  0
 55110  1  0
M  END
> <Uni-Dock RESULT> 
ENERGY=   -5.677  LOWER_BOUND=    4.956  UPPER_BOUND=    6.188
INTER + INTRA:          -5.677
INTER:                  -5.677
INTRA:                   0.000
UNBOUND:                 0.000

$$$$

     RDKit          3D

110111  0  0  0  0  0  0  0  0999 V2000
   45.0271    5.6709   12.3829 N   0  0  0  0  0  0  0  0  0  0  0  0
   46.1747    6.3656   12.7127 C   0  0  0  0  0  0  0  0  0  0  0  0
   44.8752    4.2934   12.8627 C   0  0  0  0  0  0  0  0  0  0  0  0
   44.0612    6.0720   11.3531 C   0  0  0  0  0  0  0  0  0  0  0  0
   46.2811    7.6108   12.1443 N   0  0  0  0  0  0  0  0  0  0  0  0
   47.0506    5.9074   13.4405 O   0  0  0  0  0  0  0  0  0  0  0  0
   44.3850    3.3795   11.7349 C   0  0  0  0  0  0  0  0  0  0  0  0
   42.8235    5.1694   11.3577 C   0  0  0  0  0  0  0  0  0  0  0  0
   47.4347    8.4470   12.4301 C   0  0  0  0  0  0  0  0  0  0  0  0
   43.1316    3.7847   11.1621 O   0  0  0  0  0  0  0  0  0  0  0  0
   48.7078    7.9866   11.6927 C   0  0  0  0  0  0  0  0  0  0  0  0
   49.9140    8.7819   11.9808 N   0  0  0  0  0  0  0  0  0  0  0  0
   49.8182   10.1590   11.4687 C   0  0  0  0  0  0  0  0  0  0  0  0
   51.1942   10.8586   11.5162 C   0  0  1  0  0  0  0  0  0  0  0  0
   51.6600   11.1393   12.9540 C   0  0  0  0  0  0  0  0  0  0  0  0
   52.1371   10.0063   10.8440 O   0  0  0  0  0  0  0  0  0  0  0  0
   52.4478   12.3357   13.0065 O   0  0  0  0  0  0  0  0  0  0  0  0
   53.8023   12.2239   13.1319 C   0  0  0  0  0  0  0  0  0  0  0  0
   54.4394   13.3630   13.6332 C   0  0  0  0  0  0  0  0  0  0  0  0
   54.5694   11.1166   12.7713 C   0  0  0  0  0  0  0  0  0  0  0  0
   55.8246   13.3880   13.7984 C   0  0  0  0  0  0  0  0  0  0  0  0
   55.9595   11.1379   12.9336 C   0  0  0  0  0  0  0  0  0  0  0  0
   56.5746   12.2734   13.4499 C   0  0  0  0  0  0  0  0  0  0  0  0
   57.9250   12.3338   13.6241 O   0  0  0  0  0  0  0  0  0  0  0  0
   45.2881    5.7104   12.3779 N   0  0  0  0  0  0  0  0  0  0  0  0
   46.3087    6.5613   12.7458 C   0  0  0  0  0  0  0  0  0  0  0  0
   45.2703    4.8767   11.1715 C   0  0  0  0  0  0  0  0  0  0  0  0
   44.0247    5.7735   13.1123 C   0  0  0  0  0  0  0  0  0  0  0  0
   47.4752    6.3878   12.0464 N   0  0  0  0  0  0  0  0  0  0  0  0
   46.1856    7.4112   13.6221 O   0  0  0  0  0  0  0  0  0  0  0  0
   43.8440    4.7098   10.6379 C   0  0  0  0  0  0  0  0  0  0  0  0
   43.2339    4.4724   12.9536 C   0  0  0  0  0  0  0  0  0  0  0  0
   48.6424    7.1954   12.3536 C   0  0  0  0  0  0  0  0  0  0  0  0
   42.9455    4.1269   11.5903 O   0  0  0  0  0  0  0  0  0  0  0  0
   48.5144    8.6420   11.8479 C   0  0  0  0  0  0  0  0  0  0  0  0
   49.7431    9.4065   12.1189 N   0  0  0  0  0  0  0  0  0  0  0  0
   49.6128   10.7763   11.5999 C   0  0  0  0  0  0  0  0  0  0  0  0
   50.9117   11.5840   11.7601 C   0  0  1  0  0  0  0  0  0  0  0  0
   52.0468   11.0283   10.8870 C   0  0  0  0  0  0  0  0  0  0  0  0
   50.6549   12.9467   11.3863 O   0  0  0  0  0  0  0  0  0  0  0  0
   53.2409   11.8001   11.0842 O   0  0  0  0  0  0  0  0  0  0  0  0
   54.0953   11.4374   12.0878 C   0  0  0  0  0  0  0  0  0  0  0  0
   53.8943   10.4199   13.0216 C   0  0  0  0  0  0  0  0  0  0  0  0
   55.2682   12.1987   12.1480 C   0  0  0  0  0  0  0  0  0  0  0  0
   54.8600   10.1686   14.0019 C   0  0  0  0  0  0  0  0  0  0  0  0
   56.2348   11.9481   13.1239 C   0  0  0  0  0  0  0  0  0  0  0  0
   56.0205   10.9316   14.0456 C   0  0  0  0  0  0  0  0  0  0  0  0
   56.9330   10.6470   15.0166 O   0  0  0  0  0  0  0  0  0  0  0  0
   48.7580    8.6797   12.0366 C   0  0  0  0  0  0  0  0  0  0  0  0
   49.9964    8.7037   12.5444 C   0  0  0  0  0  0  0  0  0  0  0  0
   50.8523    9.8595   12.2756 C   0  0  0  0  0  0  0  0  0  0  0  0
   52.0490    9.6953   12.8579 O   0  0  0  0  0  0  0  0  0  0  0  0
   50.5723   10.8488   11.6274 O   0  0  0  0  0  0  0  0  0  0  0  0
   47.9027    7.5229   12.3039 C   0  0  0  0  0  0  0  0  0  0  0  0
   46.7117    7.6799   11.7080 O   0  0  0  0  0  0  0  0  0  0  0  0
   48.1788    6.5390   12.9619 O   0  0  0  0  0  0  0  0  0  0  0  0
   45.8112    3.9077   13.2781 H   0  0  0  0  0  0  0  0  0  0  0  0
   44.1345    4.3253   13.6701 H   0  0  0  0  0  0  0  0  0  0  0  0
   43.7594    7.1111   11.5108 H   0  0  0  0  0  0  0  0  0  0  0  0
   44.5777    6.0018   10.3886 H   0  0  0  0  0  0  0  0  0  0  0  0
   45.4070    8.1027   12.0594 H   0  0  0  0  0  0  0  0  0  0  0  0
   45.1205    3.3534   10.9225 H   0  0  0  0  0  0  0  0  0  0  0  0
   44.2627    2.3556   12.1019 H   0  0  0  0  0  0  0  0  0  0  0  0
   42.2855    5.2621   12.3086 H   0  0  0  0  0  0  0  0  0  0  0  0
   42.1334    5.4702   10.5632 H   0  0  0  0  0  0  0  0  0  0  0  0
   47.1604    9.4602   12.1191 H   0  0  0  0  0  0  0  0  0  0  0  0
   47.5990    8.4585   13.5138 H   0  0  0  0  0  0  0  0  0  0  0  0
   48.5250    7.9673   10.6108 H   0  0  0  0  0  0  0  0  0  0  0  0
   48.9340    6.9505   11.9688 H   0  0  0  0  0  0  0  0  0  0  0  0
   50.0633    8.7868   12.9918 H   0  0  0  0  0  0  0  0  0  0  0  0
   49.5043   10.1206   10.4183 H   0  0  0  0  0  0  0  0  0  0  0  0
   49.0780   10.7430   12.0257 H   0  0  0  0  0  0  0  0  0  0  0  0
   51.1448   11.7940   10.9472 H   0  0  0  0  0  0  0  0  0  0  0  0
   52.1659   10.2812   13.4118 H   0  0  0  0  0  0  0  0  0  0  0  0
   50.7870   11.3569   13.5803 H   0  0  0  0  0  0  0  0  0  0  0  0
   51.8104    9.0951   11.0021 H   0  0  0  0  0  0  0  0  0  0  0  0
   53.8508   14.2370   13.9008 H   0  0  0  0  0  0  0  0  0  0  0  0
   54.1187   10.2305   12.3379 H   0  0  0  0  0  0  0  0  0  0  0  0
   56.3135   14.2738   14.1924 H   0  0  0  0  0  0  0  0  0  0  0  0
   56.5373   10.2669   12.6420 H   0  0  0  0  0  0  0  0  0  0  0  0
   58.3117   11.4965   13.3204 H   0  0  0  0  0  0  0  0  0  0  0  0
   45.9100    5.3108   10.3971 H   0  0  0  0  0  0  0  0  0  0  0  0
   45.6805    3.9024   11.4610 H   0  0  0  0  0  0  0  0  0  0  0  0
   43.4584    6.6161   12.6976 H   0  0  0  0  0  0  0  0  0  0  0  0
   44.2168    5.9794   14.1708 H   0  0  0  0  0  0  0  0  0  0  0  0
   47.6622    5.4295   11.7943 H   0  0  0  0  0  0  0  0  0  0  0  0
   43.8445    4.0698    9.7500 H   0  0  0  0  0  0  0  0  0  0  0  0
   43.4314    5.6811   10.3406 H   0  0  0  0  0  0  0  0  0  0  0  0
   43.7941    3.6363   13.3885 H   0  0  0  0  0  0  0  0  0  0  0  0
   42.2796    4.5398   13.4854 H   0  0  0  0  0  0  0  0  0  0  0  0
   49.4976    6.7065   11.8740 H   0  0  0  0  0  0  0  0  0  0  0  0
   48.8051    7.1772   13.4376 H   0  0  0  0  0  0  0  0  0  0  0  0
   47.6569    9.1335   12.3216 H   0  0  0  0  0  0  0  0  0  0  0  0
   48.3220    8.6187   10.7684 H   0  0  0  0  0  0  0  0  0  0  0  0
   49.8641    9.4569   13.1334 H   0  0  0  0  0  0  0  0  0  0  0  0
   49.3380   10.7597   10.5371 H   0  0  0  0  0  0  0  0  0  0  0  0
   48.8005   11.2996   12.1206 H   0  0  0  0  0  0  0  0  0  0  0  0
   51.2084   11.6091   12.8142 H   0  0  0  0  0  0  0  0  0  0  0  0
   52.2271    9.9563   11.0195 H   0  0  0  0  0  0  0  0  0  0  0  0
   51.7832   11.1676    9.8316 H   0  0  0  0  0  0  0  0  0  0  0  0
   51.5275   13.3854   11.3682 H   0  0  0  0  0  0  0  0  0  0  0  0
   53.0013    9.8039   13.0252 H   0  0  0  0  0  0  0  0  0  0  0  0
   55.4308   12.9927   11.4224 H   0  0  0  0  0  0  0  0  0  0  0  0
   54.7058    9.3761   14.7289 H   0  0  0  0  0  0  0  0  0  0  0  0
   57.1361   12.5515   13.1449 H   0  0  0  0  0  0  0  0  0  0  0  0
   57.6837   11.2560   14.9220 H   0  0  0  0  0  0  0  0  0  0  0  0
   48.3527    9.4813   11.4302 H   0  0  0  0  0  0  0  0  0  0  0  0
   50.4014    7.9017   13.1502 H   0  0  0  0  0  0  0  0  0  0  0  0
   52.5433   10.5083   12.6232 H   0  0  0  0  0  0  0  0  0  0  0  0
   46.2175    6.8665   11.9411 H   0  0  0  0  0  0  0  0  0  0  0  0
  3  7  1  0
  4  8  1  0
  5  9  1  0
  7 10  1  0
  9 11  1  0
 11 12  1  0
 12 13  1  0
 13 14  1  0
 14 15  1  0
 14 16  1  0
 15 17  1  0
 17 18  1  0
 18 19  2  0
 18 20  1  0
 19 21  1  0
 20 22  2  0
 21 23  2  0
 23 24  1  0
  8 10  1  0
 22 23  1  0
  1  2  1  0
  1  3  1  0
  1  4  1  0
  2  5  1  0
  2  6  2  0
 27 31  1  0
 28 32  1  0
 29 33  1  0
 31 34  1  0
 33 35  1  0
 35 36  1  0
 36 37  1  0
 37 38  1  0
 38 39  1  0
 38 40  1  0
 39 41  1  0
 41 42  1  0
 42 43  2  0
 42 44  1  0
 43 45  1  0
 44 46  2  0
 45 47  2  0
 47 48  1  0
 32 34  1  0
 46 47  1  0
 25 26  1  0
 25 27  1  0
 25 28  1  0
 26 29  1  0
 26 30  2  0
 49 50  2  0
 49 54  1  0
 50 51  1  0
 51 52  1  0
 51 53  2  0
 54 55  1  0
 54 56  2  0
  3 57  1  0
  3 58  1  0
  4 59  1  0
  4 60  1  0
  5 61  1  0
  7 62  1  0
  7 63  1  0
  8 64  1  0
  8 65  1  0
  9 66  1  0
  9 67  1  0
 11 68  1  0
 11 69  1  0
 12 70  1  0
 13 71  1  0
 13 72  1  0
 14 73  1  6
 15 74  1  0
 15 75  1  0
 16 76  1  0
 19 77  1  0
 20 78  1  0
 21 79  1  0
 22 80  1  0
 24 81  1  0
 27 82  1  0
 27 83  1  0
 28 84  1  0
 28 85  1  0
 29 86  1  0
 31 87  1  0
 31 88  1  0
 32 89  1  0
 32 90  1  0
 33 91  1  0
 33 92  1  0
 35 93  1  0
 35 94  1  0
 36 95  1  0
 37 96  1  0
 37 97  1  0
 38 98  1  1
 39 99  1  0
 39100  1  0
 40101  1  0
 43102  1  0
 44103  1  0
 45104  1  0
 46105  1  0
 48106  1  0
 49107  1  0
 50108  1  0
 52109  1  0
 55110  1  0
M  END
> <Uni-Dock RESULT> 
ENERGY=   -5.364  LOWER_BOUND=    1.487  UPPER_BOUND=    2.130
INTER + INTRA:          -5.364
INTER:                  -5.364
INTRA:                   0.000
UNBOUND:                 0.000

$$$$

     RDKit          3D

110111  0  0  0  0  0  0  0  0999 V2000
   53.4554    7.9865    9.0550 N   0  0  0  0  0  0  0  0  0  0  0  0
   52.9920    8.5491   10.2285 C   0  0  0  0  0  0  0  0  0  0  0  0
   53.5865    8.8390    7.8690 C   0  0  0  0  0  0  0  0  0  0  0  0
   53.5611    6.5466    8.7906 C   0  0  0  0  0  0  0  0  0  0  0  0
   52.8072    7.6638   11.2615 N   0  0  0  0  0  0  0  0  0  0  0  0
   52.7404    9.7448   10.3457 O   0  0  0  0  0  0  0  0  0  0  0  0
   53.0033    8.1418    6.6355 C   0  0  0  0  0  0  0  0  0  0  0  0
   54.2651    6.2673    7.4590 C   0  0  0  0  0  0  0  0  0  0  0  0
   52.3408    8.1375   12.5537 C   0  0  0  0  0  0  0  0  0  0  0  0
   53.6181    6.8784    6.3373 O   0  0  0  0  0  0  0  0  0  0  0  0
   50.8379    8.4808   12.5609 C   0  0  0  0  0  0  0  0  0  0  0  0
   50.3262    9.0019   13.8403 N   0  0  0  0  0  0  0  0  0  0  0  0
   50.3527    7.9928   14.9122 C   0  0  0  0  0  0  0  0  0  0  0  0
   49.5397    8.4707   16.1352 C   0  0  1  0  0  0  0  0  0  0  0  0
   50.2092    9.6492   16.8603 C   0  0  0  0  0  0  0  0  0  0  0  0
   48.2344    8.8501   15.6665 O   0  0  0  0  0  0  0  0  0  0  0  0
   49.9304    9.6034   18.2657 O   0  0  0  0  0  0  0  0  0  0  0  0
   49.0108   10.4709   18.7803 C   0  0  0  0  0  0  0  0  0  0  0  0
   49.1238   10.6951   20.1557 C   0  0  0  0  0  0  0  0  0  0  0  0
   47.9831   11.0909   18.0705 C   0  0  0  0  0  0  0  0  0  0  0  0
   48.2376   11.5500   20.8117 C   0  0  0  0  0  0  0  0  0  0  0  0
   47.0906   11.9478   18.7248 C   0  0  0  0  0  0  0  0  0  0  0  0
   47.2286   12.1727   20.0904 C   0  0  0  0  0  0  0  0  0  0  0  0
   46.3809   13.0004   20.7642 O   0  0  0  0  0  0  0  0  0  0  0  0
   53.2720    8.1065    9.2023 N   0  0  0  0  0  0  0  0  0  0  0  0
   52.9588    8.5622   10.4653 C   0  0  0  0  0  0  0  0  0  0  0  0
   52.3131    7.5722    8.2299 C   0  0  0  0  0  0  0  0  0  0  0  0
   54.6811    7.9349    8.8492 C   0  0  0  0  0  0  0  0  0  0  0  0
   51.6192    8.7541   10.6859 N   0  0  0  0  0  0  0  0  0  0  0  0
   53.8058    8.7735   11.3276 O   0  0  0  0  0  0  0  0  0  0  0  0
   52.9564    6.4871    7.3605 C   0  0  0  0  0  0  0  0  0  0  0  0
   54.8698    7.9462    7.3301 C   0  0  0  0  0  0  0  0  0  0  0  0
   51.1509    9.2628   11.9629 C   0  0  0  0  0  0  0  0  0  0  0  0
   54.1073    6.9448    6.6394 O   0  0  0  0  0  0  0  0  0  0  0  0
   51.2197    8.2115   13.0832 C   0  0  0  0  0  0  0  0  0  0  0  0
   50.6740    8.7454   14.3421 N   0  0  0  0  0  0  0  0  0  0  0  0
   50.7192    7.7159   15.3912 C   0  0  0  0  0  0  0  0  0  0  0  0
   50.0591    8.1884   16.6974 C   0  0  1  0  0  0  0  0  0  0  0  0
   48.5463    8.3990   16.5347 C   0  0  0  0  0  0  0  0  0  0  0  0
   50.2897    7.1996   17.7131 O   0  0  0  0  0  0  0  0  0  0  0  0
   47.9785    8.8574   17.7709 O   0  0  0  0  0  0  0  0  0  0  0  0
   47.9443   10.2019   18.0156 C   0  0  0  0  0  0  0  0  0  0  0  0
   48.4865   11.2058   17.2119 C   0  0  0  0  0  0  0  0  0  0  0  0
   47.2995   10.5535   19.2070 C   0  0  0  0  0  0  0  0  0  0  0  0
   48.3804   12.5459   17.5987 C   0  0  0  0  0  0  0  0  0  0  0  0
   47.1900   11.8906   19.5939 C   0  0  0  0  0  0  0  0  0  0  0  0
   47.7340   12.8781   18.7830 C   0  0  0  0  0  0  0  0  0  0  0  0
   47.6531   14.1970   19.1154 O   0  0  0  0  0  0  0  0  0  0  0  0
   51.1759    8.4641   13.2584 C   0  0  0  0  0  0  0  0  0  0  0  0
   50.6208    9.4899   13.9154 C   0  0  0  0  0  0  0  0  0  0  0  0
   50.0728    9.2639   15.2531 C   0  0  0  0  0  0  0  0  0  0  0  0
   49.5566   10.4015   15.7405 O   0  0  0  0  0  0  0  0  0  0  0  0
   50.0598    8.2212   15.8775 O   0  0  0  0  0  0  0  0  0  0  0  0
   51.7224    8.6896   11.9199 C   0  0  0  0  0  0  0  0  0  0  0  0
   52.2239    7.5484   11.4259 O   0  0  0  0  0  0  0  0  0  0  0  0
   51.7457    9.7351   11.3004 O   0  0  0  0  0  0  0  0  0  0  0  0
   53.1015    9.8087    8.0162 H   0  0  0  0  0  0  0  0  0  0  0  0
   54.6594    9.0150    7.7296 H   0  0  0  0  0  0  0  0  0  0  0  0
   54.1047    6.0580    9.6039 H   0  0  0  0  0  0  0  0  0  0  0  0
   52.5385    6.1518    8.7686 H   0  0  0  0  0  0  0  0  0  0  0  0
   53.4877    6.9229   11.2979 H   0  0  0  0  0  0  0  0  0  0  0  0
   51.9320    7.9569    6.7767 H   0  0  0  0  0  0  0  0  0  0  0  0
   53.1144    8.7780    5.7517 H   0  0  0  0  0  0  0  0  0  0  0  0
   55.2991    6.6311    7.4889 H   0  0  0  0  0  0  0  0  0  0  0  0
   54.3050    5.1897    7.2713 H   0  0  0  0  0  0  0  0  0  0  0  0
   52.5507    7.3334   13.2663 H   0  0  0  0  0  0  0  0  0  0  0  0
   52.9375    9.0103   12.8429 H   0  0  0  0  0  0  0  0  0  0  0  0
   50.2540    7.6027   12.2571 H   0  0  0  0  0  0  0  0  0  0  0  0
   50.6349    9.2434   11.8005 H   0  0  0  0  0  0  0  0  0  0  0  0
   50.8846    9.8164   14.1033 H   0  0  0  0  0  0  0  0  0  0  0  0
   49.8801    7.0752   14.5406 H   0  0  0  0  0  0  0  0  0  0  0  0
   51.3784    7.7524   15.2110 H   0  0  0  0  0  0  0  0  0  0  0  0
   49.4008    7.6326   16.8277 H   0  0  0  0  0  0  0  0  0  0  0  0
   49.9618   10.6191   16.4130 H   0  0  0  0  0  0  0  0  0  0  0  0
   51.2982    9.5434   16.7922 H   0  0  0  0  0  0  0  0  0  0  0  0
   48.3798    9.1764   14.7530 H   0  0  0  0  0  0  0  0  0  0  0  0
   49.9117   10.2023   20.7200 H   0  0  0  0  0  0  0  0  0  0  0  0
   47.8341   10.9089   17.0118 H   0  0  0  0  0  0  0  0  0  0  0  0
   48.3329   11.7238   21.8793 H   0  0  0  0  0  0  0  0  0  0  0  0
   46.2954   12.4160   18.1538 H   0  0  0  0  0  0  0  0  0  0  0  0
   45.7229   13.3427   20.1374 H   0  0  0  0  0  0  0  0  0  0  0  0
   51.4343    7.1680    8.7416 H   0  0  0  0  0  0  0  0  0  0  0  0
   51.9993    8.4173    7.6065 H   0  0  0  0  0  0  0  0  0  0  0  0
   54.9972    6.9706    9.2648 H   0  0  0  0  0  0  0  0  0  0  0  0
   55.2828    8.7218    9.3168 H   0  0  0  0  0  0  0  0  0  0  0  0
   51.1136    9.0778    9.8757 H   0  0  0  0  0  0  0  0  0  0  0  0
   52.2352    6.1124    6.6274 H   0  0  0  0  0  0  0  0  0  0  0  0
   53.2662    5.6363    7.9788 H   0  0  0  0  0  0  0  0  0  0  0  0
   54.5728    8.9192    6.9214 H   0  0  0  0  0  0  0  0  0  0  0  0
   55.9233    7.7916    7.0763 H   0  0  0  0  0  0  0  0  0  0  0  0
   50.1134    9.5811   11.8128 H   0  0  0  0  0  0  0  0  0  0  0  0
   51.7427   10.1476   12.2254 H   0  0  0  0  0  0  0  0  0  0  0  0
   52.2556    7.8866   13.2335 H   0  0  0  0  0  0  0  0  0  0  0  0
   50.6434    7.3318   12.7721 H   0  0  0  0  0  0  0  0  0  0  0  0
   51.2648    9.5280   14.6335 H   0  0  0  0  0  0  0  0  0  0  0  0
   50.2149    6.8010   15.0534 H   0  0  0  0  0  0  0  0  0  0  0  0
   51.7602    7.4360   15.5982 H   0  0  0  0  0  0  0  0  0  0  0  0
   50.5437    9.1050   17.0505 H   0  0  0  0  0  0  0  0  0  0  0  0
   48.2743    9.0476   15.6953 H   0  0  0  0  0  0  0  0  0  0  0  0
   48.0720    7.4294   16.3404 H   0  0  0  0  0  0  0  0  0  0  0  0
   49.7414    7.4696   18.4751 H   0  0  0  0  0  0  0  0  0  0  0  0
   49.0022   10.9895   16.2823 H   0  0  0  0  0  0  0  0  0  0  0  0
   46.8743    9.7754   19.8373 H   0  0  0  0  0  0  0  0  0  0  0  0
   48.8007   13.3288   16.9736 H   0  0  0  0  0  0  0  0  0  0  0  0
   46.6818   12.1347   20.5208 H   0  0  0  0  0  0  0  0  0  0  0  0
   47.1788   14.2734   19.9596 H   0  0  0  0  0  0  0  0  0  0  0  0
   51.2409    7.4641   13.6713 H   0  0  0  0  0  0  0  0  0  0  0  0
   50.5556   10.4894   13.5020 H   0  0  0  0  0  0  0  0  0  0  0  0
   49.2189   10.1514   16.6258 H   0  0  0  0  0  0  0  0  0  0  0  0
   52.5604    7.7976   10.5400 H   0  0  0  0  0  0  0  0  0  0  0  0
  3  7  1  0
  4  8  1  0
  5  9  1  0
  7 10  1  0
  9 11  1  0
 11 12  1  0
 12 13  1  0
 13 14  1  0
 14 15  1  0
 14 16  1  0
 15 17  1  0
 17 18  1  0
 18 19  2  0
 18 20  1  0
 19 21  1  0
 20 22  2  0
 21 23  2  0
 23 24  1  0
  8 10  1  0
 22 23  1  0
  1  2  1  0
  1  3  1  0
  1  4  1  0
  2  5  1  0
  2  6  2  0
 27 31  1  0
 28 32  1  0
 29 33  1  0
 31 34  1  0
 33 35  1  0
 35 36  1  0
 36 37  1  0
 37 38  1  0
 38 39  1  0
 38 40  1  0
 39 41  1  0
 41 42  1  0
 42 43  2  0
 42 44  1  0
 43 45  1  0
 44 46  2  0
 45 47  2  0
 47 48  1  0
 32 34  1  0
 46 47  1  0
 25 26  1  0
 25 27  1  0
 25 28  1  0
 26 29  1  0
 26 30  2  0
 49 50  2  0
 49 54  1  0
 50 51  1  0
 51 52  1  0
 51 53  2  0
 54 55  1  0
 54 56  2  0
  3 57  1  0
  3 58  1  0
  4 59  1  0
  4 60  1  0
  5 61  1  0
  7 62  1  0
  7 63  1  0
  8 64  1  0
  8 65  1  0
  9 66  1  0
  9 67  1  0
 11 68  1  0
 11 69  1  0
 12 70  1  0
 13 71  1  0
 13 72  1  0
 14 73  1  6
 15 74  1  0
 15 75  1  0
 16 76  1  0
 19 77  1  0
 20 78  1  0
 21 79  1  0
 22 80  1  0
 24 81  1  0
 27 82  1  0
 27 83  1  0
 28 84  1  0
 28 85  1  0
 29 86  1  0
 31 87  1  0
 31 88  1  0
 32 89  1  0
 32 90  1  0
 33 91  1  0
 33 92  1  0
 35 93  1  0
 35 94  1  0
 36 95  1  0
 37 96  1  0
 37 97  1  0
 38 98  1  1
 39 99  1  0
 39100  1  0
 40101  1  0
 43102  1  0
 44103  1  0
 45104  1  0
 46105  1  0
 48106  1  0
 49107  1  0
 50108  1  0
 52109  1  0
 55110  1  0
M  END
> <Uni-Dock RESULT> 
ENERGY=   -5.280  LOWER_BOUND=    4.754  UPPER_BOUND=    7.576
INTER + INTRA:          -5.280
INTER:                  -5.280
INTRA:                   0.000
UNBOUND:                 0.000

$$$$

     RDKit          3D

110111  0  0  0  0  0  0  0  0999 V2000
   40.6694   11.2979   10.8419 N   0  0  0  0  0  0  0  0  0  0  0  0
   42.0367   11.1117   10.7777 C   0  0  0  0  0  0  0  0  0  0  0  0
   40.1233   12.6217   10.5259 C   0  0  0  0  0  0  0  0  0  0  0  0
   39.7185   10.3774   11.4766 C   0  0  0  0  0  0  0  0  0  0  0  0
   42.4720    9.8738   11.1816 N   0  0  0  0  0  0  0  0  0  0  0  0
   42.8163   11.9855   10.4096 O   0  0  0  0  0  0  0  0  0  0  0  0
   39.0812   13.0392   11.5688 C   0  0  0  0  0  0  0  0  0  0  0  0
   38.2682   10.8020   11.2255 C   0  0  0  0  0  0  0  0  0  0  0  0
   43.8879    9.5497   11.1420 C   0  0  0  0  0  0  0  0  0  0  0  0
   37.9782   12.1266   11.6855 O   0  0  0  0  0  0  0  0  0  0  0  0
   44.6889   10.2169   12.2777 C   0  0  0  0  0  0  0  0  0  0  0  0
   46.1372    9.9480   12.2569 N   0  0  0  0  0  0  0  0  0  0  0  0
   46.4535    8.5362   12.5301 C   0  0  0  0  0  0  0  0  0  0  0  0
   47.9633    8.3549   12.7999 C   0  0  1  0  0  0  0  0  0  0  0  0
   48.8153    8.5814   11.5408 C   0  0  0  0  0  0  0  0  0  0  0  0
   48.3349    9.2887   13.8282 O   0  0  0  0  0  0  0  0  0  0  0  0
   49.9856    7.7539   11.5656 O   0  0  0  0  0  0  0  0  0  0  0  0
   51.1880    8.3274   11.8631 C   0  0  0  0  0  0  0  0  0  0  0  0
   52.3037    7.6068   11.4265 C   0  0  0  0  0  0  0  0  0  0  0  0
   51.3768    9.5095   12.5783 C   0  0  0  0  0  0  0  0  0  0  0  0
   53.5943    8.0740   11.6772 C   0  0  0  0  0  0  0  0  0  0  0  0
   52.6696    9.9809   12.8338 C   0  0  0  0  0  0  0  0  0  0  0  0
   53.7677    9.2600   12.3769 C   0  0  0  0  0  0  0  0  0  0  0  0
   55.0425    9.6854   12.6041 O   0  0  0  0  0  0  0  0  0  0  0  0
   40.9174   11.3457   10.9187 N   0  0  0  0  0  0  0  0  0  0  0  0
   42.2383   10.9837   10.7602 C   0  0  0  0  0  0  0  0  0  0  0  0
   40.3118   11.8256   12.1651 C   0  0  0  0  0  0  0  0  0  0  0  0
   39.9747   11.0451    9.8414 C   0  0  0  0  0  0  0  0  0  0  0  0
   43.0604   11.3620   11.7902 N   0  0  0  0  0  0  0  0  0  0  0  0
   42.6482   10.3667    9.7820 O   0  0  0  0  0  0  0  0  0  0  0  0
   38.8468   11.3901   12.2696 C   0  0  0  0  0  0  0  0  0  0  0  0
   38.7381   11.9431    9.9301 C   0  0  0  0  0  0  0  0  0  0  0  0
   44.4827   11.0734   11.7382 C   0  0  0  0  0  0  0  0  0  0  0  0
   38.0378   11.8510   11.1800 O   0  0  0  0  0  0  0  0  0  0  0  0
   44.7978    9.5888   11.9866 C   0  0  0  0  0  0  0  0  0  0  0  0
   46.2508    9.3516   11.9927 N   0  0  0  0  0  0  0  0  0  0  0  0
   46.5318    7.9336   12.2632 C   0  0  0  0  0  0  0  0  0  0  0  0
   48.0389    7.6540   12.3894 C   0  0  1  0  0  0  0  0  0  0  0  0
   48.6490    8.3323   13.6251 C   0  0  0  0  0  0  0  0  0  0  0  0
   48.2368    6.2349   12.4860 O   0  0  0  0  0  0  0  0  0  0  0  0
   50.0569    8.0600   13.6899 O   0  0  0  0  0  0  0  0  0  0  0  0
   50.9162    8.9029   13.0418 C   0  0  0  0  0  0  0  0  0  0  0  0
   50.5652    9.9856   12.2340 C   0  0  0  0  0  0  0  0  0  0  0  0
   52.2697    8.6017   13.2313 C   0  0  0  0  0  0  0  0  0  0  0  0
   51.5611   10.7572   11.6262 C   0  0  0  0  0  0  0  0  0  0  0  0
   53.2656    9.3720   12.6278 C   0  0  0  0  0  0  0  0  0  0  0  0
   52.9004   10.4466   11.8274 C   0  0  0  0  0  0  0  0  0  0  0  0
   53.8339   11.2294   11.2170 O   0  0  0  0  0  0  0  0  0  0  0  0
   45.0737    9.6774   11.8753 C   0  0  0  0  0  0  0  0  0  0  0  0
   46.3103   10.1767   11.7587 C   0  0  0  0  0  0  0  0  0  0  0  0
   47.4531    9.3344   12.1130 C   0  0  0  0  0  0  0  0  0  0  0  0
   48.5982   10.0099   11.9385 O   0  0  0  0  0  0  0  0  0  0  0  0
   47.4267    8.1866   12.5119 O   0  0  0  0  0  0  0  0  0  0  0  0
   43.9308   10.5203   11.5227 C   0  0  0  0  0  0  0  0  0  0  0  0
   42.7850    9.8503   11.7127 O   0  0  0  0  0  0  0  0  0  0  0  0
   43.9580   11.6642   11.1126 O   0  0  0  0  0  0  0  0  0  0  0  0
   40.9128   13.3766   10.4615 H   0  0  0  0  0  0  0  0  0  0  0  0
   39.6545   12.5372    9.5386 H   0  0  0  0  0  0  0  0  0  0  0  0
   39.8754    9.3628   11.1002 H   0  0  0  0  0  0  0  0  0  0  0  0
   39.9355   10.3876   12.5512 H   0  0  0  0  0  0  0  0  0  0  0  0
   41.8533    9.1181   10.9377 H   0  0  0  0  0  0  0  0  0  0  0  0
   39.5462   13.1157   12.5585 H   0  0  0  0  0  0  0  0  0  0  0  0
   38.6692   14.0226   11.3213 H   0  0  0  0  0  0  0  0  0  0  0  0
   38.0373   10.7609   10.1544 H   0  0  0  0  0  0  0  0  0  0  0  0
   37.5808   10.1177   11.7326 H   0  0  0  0  0  0  0  0  0  0  0  0
   43.9527    8.4596   11.2204 H   0  0  0  0  0  0  0  0  0  0  0  0
   44.2871    9.8429   10.1641 H   0  0  0  0  0  0  0  0  0  0  0  0
   44.2706    9.9252   13.2494 H   0  0  0  0  0  0  0  0  0  0  0  0
   44.5643   11.3042   12.2210 H   0  0  0  0  0  0  0  0  0  0  0  0
   46.5038   10.2256   11.3442 H   0  0  0  0  0  0  0  0  0  0  0  0
   45.9175    8.2265   13.4358 H   0  0  0  0  0  0  0  0  0  0  0  0
   46.1364    7.8879   11.7066 H   0  0  0  0  0  0  0  0  0  0  0  0
   48.1418    7.3500   13.1994 H   0  0  0  0  0  0  0  0  0  0  0  0
   49.0504    9.6388   11.3714 H   0  0  0  0  0  0  0  0  0  0  0  0
   48.2567    8.2416   10.6609 H   0  0  0  0  0  0  0  0  0  0  0  0
   47.7343   10.0539   13.7028 H   0  0  0  0  0  0  0  0  0  0  0  0
   52.1658    6.6753   10.8830 H   0  0  0  0  0  0  0  0  0  0  0  0
   50.5392   10.0745   12.9724 H   0  0  0  0  0  0  0  0  0  0  0  0
   54.4570    7.5124   11.3318 H   0  0  0  0  0  0  0  0  0  0  0  0
   52.7934   10.9006   13.3963 H   0  0  0  0  0  0  0  0  0  0  0  0
   55.0046   10.5091   13.1171 H   0  0  0  0  0  0  0  0  0  0  0  0
   40.8730   11.4578   13.0296 H   0  0  0  0  0  0  0  0  0  0  0  0
   40.3788   12.9194   12.1421 H   0  0  0  0  0  0  0  0  0  0  0  0
   39.6894    9.9923    9.9541 H   0  0  0  0  0  0  0  0  0  0  0  0
   40.4663   11.1634    8.8698 H   0  0  0  0  0  0  0  0  0  0  0  0
   42.8094   12.2432   12.2112 H   0  0  0  0  0  0  0  0  0  0  0  0
   38.4033   11.7720   13.1945 H   0  0  0  0  0  0  0  0  0  0  0  0
   38.7748   10.2965   12.2997 H   0  0  0  0  0  0  0  0  0  0  0  0
   39.0250   12.9926    9.7955 H   0  0  0  0  0  0  0  0  0  0  0  0
   38.0282   11.6927    9.1354 H   0  0  0  0  0  0  0  0  0  0  0  0
   44.9567   11.6899   12.5100 H   0  0  0  0  0  0  0  0  0  0  0  0
   44.8693   11.3934   10.7635 H   0  0  0  0  0  0  0  0  0  0  0  0
   44.3215    8.9678   11.2194 H   0  0  0  0  0  0  0  0  0  0  0  0
   44.3700    9.2983   12.9538 H   0  0  0  0  0  0  0  0  0  0  0  0
   46.6100    9.5790   11.0624 H   0  0  0  0  0  0  0  0  0  0  0  0
   46.0363    7.6139   13.1894 H   0  0  0  0  0  0  0  0  0  0  0  0
   46.1188    7.3091   11.4607 H   0  0  0  0  0  0  0  0  0  0  0  0
   48.5552    7.9712   11.4769 H   0  0  0  0  0  0  0  0  0  0  0  0
   48.4370    9.4044   13.6954 H   0  0  0  0  0  0  0  0  0  0  0  0
   48.2240    7.8751   14.5269 H   0  0  0  0  0  0  0  0  0  0  0  0
   49.1814    6.1133   12.7033 H   0  0  0  0  0  0  0  0  0  0  0  0
   49.5322   10.2596   12.0479 H   0  0  0  0  0  0  0  0  0  0  0  0
   52.5495    7.7594   13.8604 H   0  0  0  0  0  0  0  0  0  0  0  0
   51.2898   11.6012   10.9982 H   0  0  0  0  0  0  0  0  0  0  0  0
   54.3070    9.1179   12.7948 H   0  0  0  0  0  0  0  0  0  0  0  0
   54.7157   10.8942   11.4481 H   0  0  0  0  0  0  0  0  0  0  0  0
   44.8737    8.6703   12.2225 H   0  0  0  0  0  0  0  0  0  0  0  0
   46.5098   11.1837   11.4120 H   0  0  0  0  0  0  0  0  0  0  0  0
   49.2949    9.3718   12.1990 H   0  0  0  0  0  0  0  0  0  0  0  0
   42.0879   10.4885   11.4538 H   0  0  0  0  0  0  0  0  0  0  0  0
  3  7  1  0
  4  8  1  0
  5  9  1  0
  7 10  1  0
  9 11  1  0
 11 12  1  0
 12 13  1  0
 13 14  1  0
 14 15  1  0
 14 16  1  0
 15 17  1  0
 17 18  1  0
 18 19  2  0
 18 20  1  0
 19 21  1  0
 20 22  2  0
 21 23  2  0
 23 24  1  0
  8 10  1  0
 22 23  1  0
  1  2  1  0
  1  3  1  0
  1  4  1  0
  2  5  1  0
  2  6  2  0
 27 31  1  0
 28 32  1  0
 29 33  1  0
 31 34  1  0
 33 35  1  0
 35 36  1  0
 36 37  1  0
 37 38  1  0
 38 39  1  0
 38 40  1  0
 39 41  1  0
 41 42  1  0
 42 43  2  0
 42 44  1  0
 43 45  1  0
 44 46  2  0
 45 47  2  0
 47 48  1  0
 32 34  1  0
 46 47  1  0
 25 26  1  0
 25 27  1  0
 25 28  1  0
 26 29  1  0
 26 30  2  0
 49 50  2  0
 49 54  1  0
 50 51  1  0
 51 52  1  0
 51 53  2  0
 54 55  1  0
 54 56  2  0
  3 57  1  0
  3 58  1  0
  4 59  1  0
  4 60  1  0
  5 61  1  0
  7 62  1  0
  7 63  1  0
  8 64  1  0
  8 65  1  0
  9 66  1  0
  9 67  1  0
 11 68  1  0
 11 69  1  0
 12 70  1  0
 13 71  1  0
 13 72  1  0
 14 73  1  6
 15 74  1  0
 15 75  1  0
 16 76  1  0
 19 77  1  0
 20 78  1  0
 21 79  1  0
 22 80  1  0
 24 81  1  0
 27 82  1  0
 27 83  1  0
 28 84  1  0
 28 85  1  0
 29 86  1  0
 31 87  1  0
 31 88  1  0
 32 89  1  0
 32 90  1  0
 33 91  1  0
 33 92  1  0
 35 93  1  0
 35 94  1  0
 36 95  1  0
 37 96  1  0
 37 97  1  0
 38 98  1  1
 39 99  1  0
 39100  1  0
 40101  1  0
 43102  1  0
 44103  1  0
 45104  1  0
 46105  1  0
 48106  1  0
 49107  1  0
 50108  1  0
 52109  1  0
 55110  1  0
M  END
> <Uni-Dock RESULT> 
ENERGY=   -4.927  LOWER_BOUND=    4.292  UPPER_BOUND=    6.008
INTER + INTRA:          -4.927
INTER:                  -4.927
INTRA:                   0.000
UNBOUND:                 0.000

$$$$

     RDKit          3D

110111  0  0  0  0  0  0  0  0999 V2000
   55.8907    2.0029   22.1554 N   0  0  0  0  0  0  0  0  0  0  0  0
   55.1394    3.1370   21.9153 C   0  0  0  0  0  0  0  0  0  0  0  0
   56.9389    1.6366   21.1974 C   0  0  0  0  0  0  0  0  0  0  0  0
   55.5571    0.9571   23.1297 C   0  0  0  0  0  0  0  0  0  0  0  0
   54.1179    3.3542   22.8066 N   0  0  0  0  0  0  0  0  0  0  0  0
   55.3455    3.8903   20.9682 O   0  0  0  0  0  0  0  0  0  0  0  0
   56.8742    0.1408   20.8716 C   0  0  0  0  0  0  0  0  0  0  0  0
   56.6830   -0.0736   23.2594 C   0  0  0  0  0  0  0  0  0  0  0  0
   53.2680    4.5251   22.6710 C   0  0  0  0  0  0  0  0  0  0  0  0
   57.0132   -0.7104   22.0201 O   0  0  0  0  0  0  0  0  0  0  0  0
   52.2531    4.4003   21.5173 C   0  0  0  0  0  0  0  0  0  0  0  0
   51.3936    5.5798   21.3162 N   0  0  0  0  0  0  0  0  0  0  0  0
   50.4650    5.7997   22.4374 C   0  0  0  0  0  0  0  0  0  0  0  0
   49.3893    6.8423   22.0620 C   0  0  1  0  0  0  0  0  0  0  0  0
   49.9707    8.2576   21.9144 C   0  0  0  0  0  0  0  0  0  0  0  0
   48.7879    6.4189   20.8265 O   0  0  0  0  0  0  0  0  0  0  0  0
   49.0048    9.2445   22.2990 O   0  0  0  0  0  0  0  0  0  0  0  0
   48.3688    9.9549   21.3224 C   0  0  0  0  0  0  0  0  0  0  0  0
   47.8202   11.1693   21.7456 C   0  0  0  0  0  0  0  0  0  0  0  0
   48.1971    9.5538   19.9980 C   0  0  0  0  0  0  0  0  0  0  0  0
   47.1306   11.9880   20.8508 C   0  0  0  0  0  0  0  0  0  0  0  0
   47.5043   10.3710   19.0973 C   0  0  0  0  0  0  0  0  0  0  0  0
   46.9802   11.5838   19.5315 C   0  0  0  0  0  0  0  0  0  0  0  0
   46.3002   12.4085   18.6858 O   0  0  0  0  0  0  0  0  0  0  0  0
   55.7201    2.1469   22.0144 N   0  0  0  0  0  0  0  0  0  0  0  0
   54.9951    3.3189   21.9739 C   0  0  0  0  0  0  0  0  0  0  0  0
   55.2954    0.8650   21.4425 C   0  0  0  0  0  0  0  0  0  0  0  0
   56.9109    2.0890   22.8620 C   0  0  0  0  0  0  0  0  0  0  0  0
   53.9345    3.3031   21.1051 N   0  0  0  0  0  0  0  0  0  0  0  0
   55.2685    4.2968   22.6628 O   0  0  0  0  0  0  0  0  0  0  0  0
   55.8238   -0.3102   22.2712 C   0  0  0  0  0  0  0  0  0  0  0  0
   57.8545    0.9739   22.4044 C   0  0  0  0  0  0  0  0  0  0  0  0
   53.1045    4.4831   20.9382 C   0  0  0  0  0  0  0  0  0  0  0  0
   57.2524   -0.3292   22.3841 O   0  0  0  0  0  0  0  0  0  0  0  0
   52.1665    4.7241   22.1327 C   0  0  0  0  0  0  0  0  0  0  0  0
   51.2968    5.8879   21.8943 N   0  0  0  0  0  0  0  0  0  0  0  0
   50.3865    6.0822   23.0329 C   0  0  0  0  0  0  0  0  0  0  0  0
   49.3814    7.2196   22.7852 C   0  0  1  0  0  0  0  0  0  0  0  0
   48.3971    6.8826   21.6552 C   0  0  0  0  0  0  0  0  0  0  0  0
   48.6452    7.4544   23.9958 O   0  0  0  0  0  0  0  0  0  0  0  0
   47.4936    7.9786   21.4478 O   0  0  0  0  0  0  0  0  0  0  0  0
   47.8552    8.9679   20.5765 C   0  0  0  0  0  0  0  0  0  0  0  0
   49.0739    9.0779   19.9052 C   0  0  0  0  0  0  0  0  0  0  0  0
   46.8756    9.9480   20.3802 C   0  0  0  0  0  0  0  0  0  0  0  0
   49.3047   10.1573   19.0459 C   0  0  0  0  0  0  0  0  0  0  0  0
   47.1027   11.0249   19.5210 C   0  0  0  0  0  0  0  0  0  0  0  0
   48.3202   11.1199   18.8596 C   0  0  0  0  0  0  0  0  0  0  0  0
   48.5905   12.1506   18.0104 O   0  0  0  0  0  0  0  0  0  0  0  0
   52.1383    5.0006   21.9944 C   0  0  0  0  0  0  0  0  0  0  0  0
   51.7656    5.9971   21.1820 C   0  0  0  0  0  0  0  0  0  0  0  0
   50.5613    6.7634   21.5035 C   0  0  0  0  0  0  0  0  0  0  0  0
   50.3498    7.7060   20.5735 O   0  0  0  0  0  0  0  0  0  0  0  0
   49.8242    6.6112   22.4579 O   0  0  0  0  0  0  0  0  0  0  0  0
   53.3417    4.2331   21.6718 C   0  0  0  0  0  0  0  0  0  0  0  0
   53.5440    3.2799   22.5930 O   0  0  0  0  0  0  0  0  0  0  0  0
   54.0851    4.3930   20.7237 O   0  0  0  0  0  0  0  0  0  0  0  0
   56.8651    2.2245   20.2775 H   0  0  0  0  0  0  0  0  0  0  0  0
   57.8954    1.8763   21.6763 H   0  0  0  0  0  0  0  0  0  0  0  0
   55.3569    1.4081   24.1055 H   0  0  0  0  0  0  0  0  0  0  0  0
   54.6396    0.4732   22.7748 H   0  0  0  0  0  0  0  0  0  0  0  0
   54.3320    3.0887   23.7536 H   0  0  0  0  0  0  0  0  0  0  0  0
   55.9147   -0.1025   20.4006 H   0  0  0  0  0  0  0  0  0  0  0  0
   57.6658   -0.1285   20.1652 H   0  0  0  0  0  0  0  0  0  0  0  0
   57.5931    0.4001   23.6459 H   0  0  0  0  0  0  0  0  0  0  0  0
   56.3982   -0.8573   23.9684 H   0  0  0  0  0  0  0  0  0  0  0  0
   52.7457    4.6342   23.6269 H   0  0  0  0  0  0  0  0  0  0  0  0
   53.9051    5.4060   22.5311 H   0  0  0  0  0  0  0  0  0  0  0  0
   51.6313    3.5079   21.6633 H   0  0  0  0  0  0  0  0  0  0  0  0
   52.7897    4.2312   20.5769 H   0  0  0  0  0  0  0  0  0  0  0  0
   51.9930    6.3969   21.1840 H   0  0  0  0  0  0  0  0  0  0  0  0
   49.9482    4.8565   22.6538 H   0  0  0  0  0  0  0  0  0  0  0  0
   50.9961    6.1138   23.3420 H   0  0  0  0  0  0  0  0  0  0  0  0
   48.5993    6.8373   22.8216 H   0  0  0  0  0  0  0  0  0  0  0  0
   50.3891    8.4432   20.9182 H   0  0  0  0  0  0  0  0  0  0  0  0
   50.7939    8.3859   22.6269 H   0  0  0  0  0  0  0  0  0  0  0  0
   49.5022    5.9479   20.3470 H   0  0  0  0  0  0  0  0  0  0  0  0
   47.9346   11.4817   22.7807 H   0  0  0  0  0  0  0  0  0  0  0  0
   48.5687    8.5995   19.6411 H   0  0  0  0  0  0  0  0  0  0  0  0
   46.7104   12.9321   21.1840 H   0  0  0  0  0  0  0  0  0  0  0  0
   47.3785   10.0371   18.0725 H   0  0  0  0  0  0  0  0  0  0  0  0
   46.2595   11.9866   17.8121 H   0  0  0  0  0  0  0  0  0  0  0  0
   54.2040    0.8168   21.3801 H   0  0  0  0  0  0  0  0  0  0  0  0
   55.7077    0.8257   20.4277 H   0  0  0  0  0  0  0  0  0  0  0  0
   56.5634    1.8978   23.8844 H   0  0  0  0  0  0  0  0  0  0  0  0
   57.4253    3.0559   22.8516 H   0  0  0  0  0  0  0  0  0  0  0  0
   54.0987    2.7638   20.2690 H   0  0  0  0  0  0  0  0  0  0  0  0
   55.5156   -1.2593   21.8214 H   0  0  0  0  0  0  0  0  0  0  0  0
   55.4090   -0.2792   23.2856 H   0  0  0  0  0  0  0  0  0  0  0  0
   58.2162    1.1799   21.3901 H   0  0  0  0  0  0  0  0  0  0  0  0
   58.7293    0.9226   23.0604 H   0  0  0  0  0  0  0  0  0  0  0  0
   52.5163    4.3270   20.0271 H   0  0  0  0  0  0  0  0  0  0  0  0
   53.7565    5.3496   20.7770 H   0  0  0  0  0  0  0  0  0  0  0  0
   52.7507    4.8759   23.0475 H   0  0  0  0  0  0  0  0  0  0  0  0
   51.5536    3.8268   22.2818 H   0  0  0  0  0  0  0  0  0  0  0  0
   51.8936    6.7148   21.8148 H   0  0  0  0  0  0  0  0  0  0  0  0
   49.8289    5.1594   23.2405 H   0  0  0  0  0  0  0  0  0  0  0  0
   50.9622    6.3057   23.9402 H   0  0  0  0  0  0  0  0  0  0  0  0
   49.9167    8.1507   22.5700 H   0  0  0  0  0  0  0  0  0  0  0  0
   48.8789    6.5688   20.7232 H   0  0  0  0  0  0  0  0  0  0  0  0
   47.7662    6.0436   21.9728 H   0  0  0  0  0  0  0  0  0  0  0  0
   47.9326    8.0780   23.7558 H   0  0  0  0  0  0  0  0  0  0  0  0
   49.8700    8.3509   20.0253 H   0  0  0  0  0  0  0  0  0  0  0  0
   45.9235    9.8673   20.9002 H   0  0  0  0  0  0  0  0  0  0  0  0
   50.2522   10.2438   18.5215 H   0  0  0  0  0  0  0  0  0  0  0  0
   46.3243   11.7682   19.3850 H   0  0  0  0  0  0  0  0  0  0  0  0
   47.8169   12.7372   17.9817 H   0  0  0  0  0  0  0  0  0  0  0  0
   51.5877    4.7295   22.8877 H   0  0  0  0  0  0  0  0  0  0  0  0
   52.3161    6.2675   20.2887 H   0  0  0  0  0  0  0  0  0  0  0  0
   49.5332    8.1582   20.8720 H   0  0  0  0  0  0  0  0  0  0  0  0
   54.3596    2.8265   22.2942 H   0  0  0  0  0  0  0  0  0  0  0  0
  3  7  1  0
  4  8  1  0
  5  9  1  0
  7 10  1  0
  9 11  1  0
 11 12  1  0
 12 13  1  0
 13 14  1  0
 14 15  1  0
 14 16  1  0
 15 17  1  0
 17 18  1  0
 18 19  2  0
 18 20  1  0
 19 21  1  0
 20 22  2  0
 21 23  2  0
 23 24  1  0
  8 10  1  0
 22 23  1  0
  1  2  1  0
  1  3  1  0
  1  4  1  0
  2  5  1  0
  2  6  2  0
 27 31  1  0
 28 32  1  0
 29 33  1  0
 31 34  1  0
 33 35  1  0
 35 36  1  0
 36 37  1  0
 37 38  1  0
 38 39  1  0
 38 40  1  0
 39 41  1  0
 41 42  1  0
 42 43  2  0
 42 44  1  0
 43 45  1  0
 44 46  2  0
 45 47  2  0
 47 48  1  0
 32 34  1  0
 46 47  1  0
 25 26  1  0
 25 27  1  0
 25 28  1  0
 26 29  1  0
 26 30  2  0
 49 50  2  0
 49 54  1  0
 50 51  1  0
 51 52  1  0
 51 53  2  0
 54 55  1  0
 54 56  2  0
  3 57  1  0
  3 58  1  0
  4 59  1  0
  4 60  1  0
  5 61  1  0
  7 62  1  0
  7 63  1  0
  8 64  1  0
  8 65  1  0
  9 66  1  0
  9 67  1  0
 11 68  1  0
 11 69  1  0
 12 70  1  0
 13 71  1  0
 13 72  1  0
 14 73  1  6
 15 74  1  0
 15 75  1  0
 16 76  1  0
 19 77  1  0
 20 78  1  0
 21 79  1  0
 22 80  1  0
 24 81  1  0
 27 82  1  0
 27 83  1  0
 28 84  1  0
 28 85  1  0
 29 86  1  0
 31 87  1  0
 31 88  1  0
 32 89  1  0
 32 90  1  0
 33 91  1  0
 33 92  1  0
 35 93  1  0
 35 94  1  0
 36 95  1  0
 37 96  1  0
 37 97  1  0
 38 98  1  1
 39 99  1  0
 39100  1  0
 40101  1  0
 43102  1  0
 44103  1  0
 45104  1  0
 46105  1  0
 48106  1  0
 49107  1  0
 50108  1  0
 52109  1  0
 55110  1  0
M  END
> <Uni-Dock RESULT> 
ENERGY=   -4.524  LOWER_BOUND=    9.064  UPPER_BOUND=   12.064
INTER + INTRA:          -4.524
INTER:                  -4.524
INTRA:                   0.000
UNBOUND:                 0.000

$$$$

     RDKit          3D

110111  0  0  0  0  0  0  0  0999 V2000
   48.9169   13.2679    7.9001 N   0  0  0  0  0  0  0  0  0  0  0  0
   48.9573   12.9619    9.2466 C   0  0  0  0  0  0  0  0  0  0  0  0
   48.1861   14.4649    7.4715 C   0  0  0  0  0  0  0  0  0  0  0  0
   49.2918   12.3557    6.8131 C   0  0  0  0  0  0  0  0  0  0  0  0
   49.5778   11.7759    9.5524 N   0  0  0  0  0  0  0  0  0  0  0  0
   48.4612   13.6769   10.1124 O   0  0  0  0  0  0  0  0  0  0  0  0
   47.2997   14.1523    6.2614 C   0  0  0  0  0  0  0  0  0  0  0  0
   49.2869   13.0639    5.4547 C   0  0  0  0  0  0  0  0  0  0  0  0
   49.7005   11.3526   10.9371 C   0  0  0  0  0  0  0  0  0  0  0  0
   48.0225   13.6501    5.1263 O   0  0  0  0  0  0  0  0  0  0  0  0
   48.3757   10.8267   11.5243 C   0  0  0  0  0  0  0  0  0  0  0  0
   48.4414   10.4206   12.9389 N   0  0  0  0  0  0  0  0  0  0  0  0
   49.2900    9.2357   13.1475 C   0  0  0  0  0  0  0  0  0  0  0  0
   49.0939    8.6643   14.5689 C   0  0  1  0  0  0  0  0  0  0  0  0
   49.6578    9.5923   15.6568 C   0  0  0  0  0  0  0  0  0  0  0  0
   47.6836    8.4652   14.7651 O   0  0  0  0  0  0  0  0  0  0  0  0
   50.1417    8.8311   16.7709 O   0  0  0  0  0  0  0  0  0  0  0  0
   49.3929    8.7894   17.9113 C   0  0  0  0  0  0  0  0  0  0  0  0
   50.1034    8.4457   19.0654 C   0  0  0  0  0  0  0  0  0  0  0  0
   48.0194    9.0140   17.9977 C   0  0  0  0  0  0  0  0  0  0  0  0
   49.4558    8.3533   20.2977 C   0  0  0  0  0  0  0  0  0  0  0  0
   47.3652    8.9206   19.2316 C   0  0  0  0  0  0  0  0  0  0  0  0
   48.0910    8.5944   20.3722 C   0  0  0  0  0  0  0  0  0  0  0  0
   47.4917    8.4944   21.5922 O   0  0  0  0  0  0  0  0  0  0  0  0
   48.8053   13.2015    8.1300 N   0  0  0  0  0  0  0  0  0  0  0  0
   49.0440   12.8563    9.4433 C   0  0  0  0  0  0  0  0  0  0  0  0
   47.6941   12.7075    7.3103 C   0  0  0  0  0  0  0  0  0  0  0  0
   49.8315   13.9505    7.4051 C   0  0  0  0  0  0  0  0  0  0  0  0
   48.0028   12.2134   10.0618 N   0  0  0  0  0  0  0  0  0  0  0  0
   50.1032   13.0963   10.0143 O   0  0  0  0  0  0  0  0  0  0  0  0
   48.1042   12.5902    5.8389 C   0  0  0  0  0  0  0  0  0  0  0  0
   49.2275   14.6864    6.2064 C   0  0  0  0  0  0  0  0  0  0  0  0
   48.1063   11.8217   11.4564 C   0  0  0  0  0  0  0  0  0  0  0  0
   48.5531   13.8283    5.2736 O   0  0  0  0  0  0  0  0  0  0  0  0
   49.0258   10.6070   11.6661 C   0  0  0  0  0  0  0  0  0  0  0  0
   49.0498   10.2013   13.0812 N   0  0  0  0  0  0  0  0  0  0  0  0
   49.9084    9.0202   13.2556 C   0  0  0  0  0  0  0  0  0  0  0  0
   49.8801    8.4897   14.6989 C   0  0  1  0  0  0  0  0  0  0  0  0
   48.5014    7.9298   15.0798 C   0  0  0  0  0  0  0  0  0  0  0  0
   50.8617    7.4491   14.8256 O   0  0  0  0  0  0  0  0  0  0  0  0
   48.5181    7.4657   16.4381 O   0  0  0  0  0  0  0  0  0  0  0  0
   48.2196    8.3519   17.4353 C   0  0  0  0  0  0  0  0  0  0  0  0
   47.9706    9.7169   17.2854 C   0  0  0  0  0  0  0  0  0  0  0  0
   48.1822    7.7865   18.7150 C   0  0  0  0  0  0  0  0  0  0  0  0
   47.6853   10.5036   18.4063 C   0  0  0  0  0  0  0  0  0  0  0  0
   47.8951    8.5692   19.8351 C   0  0  0  0  0  0  0  0  0  0  0  0
   47.6487    9.9259   19.6695 C   0  0  0  0  0  0  0  0  0  0  0  0
   47.3632   10.7323   20.7300 O   0  0  0  0  0  0  0  0  0  0  0  0
   49.0035   10.7005   11.9613 C   0  0  0  0  0  0  0  0  0  0  0  0
   48.5772   10.9073   13.2133 C   0  0  0  0  0  0  0  0  0  0  0  0
   48.8599    9.8996   14.2358 C   0  0  0  0  0  0  0  0  0  0  0  0
   48.3485   10.2804   15.4155 O   0  0  0  0  0  0  0  0  0  0  0  0
   49.4637    8.8544   14.0932 O   0  0  0  0  0  0  0  0  0  0  0  0
   48.7192   11.7074   10.9383 C   0  0  0  0  0  0  0  0  0  0  0  0
   49.2164   11.3189    9.7552 O   0  0  0  0  0  0  0  0  0  0  0  0
   48.1255   12.7579   11.0839 O   0  0  0  0  0  0  0  0  0  0  0  0
   47.5801   14.8774    8.2838 H   0  0  0  0  0  0  0  0  0  0  0  0
   48.9424   15.2109    7.2012 H   0  0  0  0  0  0  0  0  0  0  0  0
   50.2827   11.9353    7.0054 H   0  0  0  0  0  0  0  0  0  0  0  0
   48.5602   11.5391    6.8172 H   0  0  0  0  0  0  0  0  0  0  0  0
   50.3681   11.5599    8.9676 H   0  0  0  0  0  0  0  0  0  0  0  0
   46.5483   13.3997    6.5274 H   0  0  0  0  0  0  0  0  0  0  0  0
   46.7658   15.0518    5.9393 H   0  0  0  0  0  0  0  0  0  0  0  0
   50.0408   13.8599    5.4353 H   0  0  0  0  0  0  0  0  0  0  0  0
   49.5405   12.3566    4.6588 H   0  0  0  0  0  0  0  0  0  0  0  0
   50.4608   10.5649   10.9481 H   0  0  0  0  0  0  0  0  0  0  0  0
   50.0775   12.1950   11.5287 H   0  0  0  0  0  0  0  0  0  0  0  0
   48.0036    9.9931   10.9152 H   0  0  0  0  0  0  0  0  0  0  0  0
   47.6096   11.6067   11.4504 H   0  0  0  0  0  0  0  0  0  0  0  0
   48.7909   11.2104   13.4853 H   0  0  0  0  0  0  0  0  0  0  0  0
   48.9866    8.4583   12.4354 H   0  0  0  0  0  0  0  0  0  0  0  0
   50.3469    9.4641   12.9747 H   0  0  0  0  0  0  0  0  0  0  0  0
   49.5689    7.6786   14.6318 H   0  0  0  0  0  0  0  0  0  0  0  0
   48.9505   10.3746   15.9564 H   0  0  0  0  0  0  0  0  0  0  0  0
   50.5449   10.1064   15.2688 H   0  0  0  0  0  0  0  0  0  0  0  0
   47.2532    9.1631   14.2269 H   0  0  0  0  0  0  0  0  0  0  0  0
   51.1715    8.2521   19.0041 H   0  0  0  0  0  0  0  0  0  0  0  0
   47.4246    9.2394   17.1193 H   0  0  0  0  0  0  0  0  0  0  0  0
   50.0135    8.0903   21.1914 H   0  0  0  0  0  0  0  0  0  0  0  0
   46.2950    9.0948   19.2749 H   0  0  0  0  0  0  0  0  0  0  0  0
   46.5426    8.6687   21.4835 H   0  0  0  0  0  0  0  0  0  0  0  0
   47.3480   11.7374    7.6797 H   0  0  0  0  0  0  0  0  0  0  0  0
   46.8813   13.4350    7.4178 H   0  0  0  0  0  0  0  0  0  0  0  0
   50.5776   13.2212    7.0675 H   0  0  0  0  0  0  0  0  0  0  0  0
   50.3261   14.6572    8.0801 H   0  0  0  0  0  0  0  0  0  0  0  0
   47.0926   12.5290    9.7640 H   0  0  0  0  0  0  0  0  0  0  0  0
   47.2597   12.2396    5.2373 H   0  0  0  0  0  0  0  0  0  0  0  0
   48.9128   11.8585    5.7251 H   0  0  0  0  0  0  0  0  0  0  0  0
   48.4979   15.4293    6.5496 H   0  0  0  0  0  0  0  0  0  0  0  0
   50.0075   15.2225    5.6565 H   0  0  0  0  0  0  0  0  0  0  0  0
   47.0909   11.5836   11.7919 H   0  0  0  0  0  0  0  0  0  0  0  0
   48.4625   12.6815   12.0359 H   0  0  0  0  0  0  0  0  0  0  0  0
   50.0419   10.8391   11.3272 H   0  0  0  0  0  0  0  0  0  0  0  0
   48.6568    9.7791   11.0487 H   0  0  0  0  0  0  0  0  0  0  0  0
   49.4493   10.9722   13.6221 H   0  0  0  0  0  0  0  0  0  0  0  0
   49.5950    8.2144   12.5788 H   0  0  0  0  0  0  0  0  0  0  0  0
   50.9436    9.2651   12.9855 H   0  0  0  0  0  0  0  0  0  0  0  0
   50.1844    9.2802   15.3933 H   0  0  0  0  0  0  0  0  0  0  0  0
   47.6728    8.6216   14.8949 H   0  0  0  0  0  0  0  0  0  0  0  0
   48.2999    7.0393   14.4722 H   0  0  0  0  0  0  0  0  0  0  0  0
   50.7135    7.0507   15.7051 H   0  0  0  0  0  0  0  0  0  0  0  0
   47.9932   10.2080   16.3183 H   0  0  0  0  0  0  0  0  0  0  0  0
   48.3748    6.7230   18.8381 H   0  0  0  0  0  0  0  0  0  0  0  0
   47.4899   11.5661   18.2914 H   0  0  0  0  0  0  0  0  0  0  0  0
   47.8692    8.1039   20.8148 H   0  0  0  0  0  0  0  0  0  0  0  0
   47.3728   10.1935   21.5381 H   0  0  0  0  0  0  0  0  0  0  0  0
   49.5534    9.8153   11.6633 H   0  0  0  0  0  0  0  0  0  0  0  0
   48.0270   11.7922   13.5107 H   0  0  0  0  0  0  0  0  0  0  0  0
   48.5854    9.5513   16.0259 H   0  0  0  0  0  0  0  0  0  0  0  0
   48.9785   12.0470    9.1440 H   0  0  0  0  0  0  0  0  0  0  0  0
  3  7  1  0
  4  8  1  0
  5  9  1  0
  7 10  1  0
  9 11  1  0
 11 12  1  0
 12 13  1  0
 13 14  1  0
 14 15  1  0
 14 16  1  0
 15 17  1  0
 17 18  1  0
 18 19  2  0
 18 20  1  0
 19 21  1  0
 20 22  2  0
 21 23  2  0
 23 24  1  0
  8 10  1  0
 22 23  1  0
  1  2  1  0
  1  3  1  0
  1  4  1  0
  2  5  1  0
  2  6  2  0
 27 31  1  0
 28 32  1  0
 29 33  1  0
 31 34  1  0
 33 35  1  0
 35 36  1  0
 36 37  1  0
 37 38  1  0
 38 39  1  0
 38 40  1  0
 39 41  1  0
 41 42  1  0
 42 43  2  0
 42 44  1  0
 43 45  1  0
 44 46  2  0
 45 47  2  0
 47 48  1  0
 32 34  1  0
 46 47  1  0
 25 26  1  0
 25 27  1  0
 25 28  1  0
 26 29  1  0
 26 30  2  0
 49 50  2  0
 49 54  1  0
 50 51  1  0
 51 52  1  0
 51 53  2  0
 54 55  1  0
 54 56  2  0
  3 57  1  0
  3 58  1  0
  4 59  1  0
  4 60  1  0
  5 61  1  0
  7 62  1  0
  7 63  1  0
  8 64  1  0
  8 65  1  0
  9 66  1  0
  9 67  1  0
 11 68  1  0
 11 69  1  0
 12 70  1  0
 13 71  1  0
 13 72  1  0
 14 73  1  6
 15 74  1  0
 15 75  1  0
 16 76  1  0
 19 77  1  0
 20 78  1  0
 21 79  1  0
 22 80  1  0
 24 81  1  0
 27 82  1  0
 27 83  1  0
 28 84  1  0
 28 85  1  0
 29 86  1  0
 31 87  1  0
 31 88  1  0
 32 89  1  0
 32 90  1  0
 33 91  1  0
 33 92  1  0
 35 93  1  0
 35 94  1  0
 36 95  1  0
 37 96  1  0
 37 97  1  0
 38 98  1  1
 39 99  1  0
 39100  1  0
 40101  1  0
 43102  1  0
 44103  1  0
 45104  1  0
 46105  1  0
 48106  1  0
 49107  1  0
 50108  1  0
 52109  1  0
 55110  1  0
M  END
> <Uni-Dock RESULT> 
ENERGY=   -4.440  LOWER_BOUND=    5.361  UPPER_BOUND=    7.605
INTER + INTRA:          -4.440
INTER:                  -4.440
INTRA:                   0.000
UNBOUND:                 0.000

$$$$

     RDKit          3D

110111  0  0  0  0  0  0  0  0999 V2000
   47.4769   13.2303    9.7494 N   0  0  0  0  0  0  0  0  0  0  0  0
   47.3820   12.2735   10.7413 C   0  0  0  0  0  0  0  0  0  0  0  0
   46.6270   13.1000    8.5614 C   0  0  0  0  0  0  0  0  0  0  0  0
   48.5548   14.2190    9.6273 C   0  0  0  0  0  0  0  0  0  0  0  0
   48.2787   12.4161   11.7710 N   0  0  0  0  0  0  0  0  0  0  0  0
   46.5758   11.3484   10.7062 O   0  0  0  0  0  0  0  0  0  0  0  0
   47.4418   13.3370    7.2857 C   0  0  0  0  0  0  0  0  0  0  0  0
   48.2684   15.2320    8.5144 C   0  0  0  0  0  0  0  0  0  0  0  0
   48.2659   11.4822   12.8843 C   0  0  0  0  0  0  0  0  0  0  0  0
   48.0755   14.6249    7.2320 O   0  0  0  0  0  0  0  0  0  0  0  0
   48.8745   10.1119   12.5259 C   0  0  0  0  0  0  0  0  0  0  0  0
   48.8492    9.1180   13.6130 N   0  0  0  0  0  0  0  0  0  0  0  0
   49.7241    9.4886   14.7377 C   0  0  0  0  0  0  0  0  0  0  0  0
   49.9068    8.2989   15.7054 C   0  0  1  0  0  0  0  0  0  0  0  0
   48.6167    7.9613   16.4698 C   0  0  0  0  0  0  0  0  0  0  0  0
   50.3354    7.1688   14.9266 O   0  0  0  0  0  0  0  0  0  0  0  0
   48.9199    7.4528   17.7753 O   0  0  0  0  0  0  0  0  0  0  0  0
   48.8001    6.1120   18.0009 C   0  0  0  0  0  0  0  0  0  0  0  0
   48.6531    5.7558   19.3449 C   0  0  0  0  0  0  0  0  0  0  0  0
   48.8540    5.1106   17.0320 C   0  0  0  0  0  0  0  0  0  0  0  0
   48.5341    4.4162   19.7163 C   0  0  0  0  0  0  0  0  0  0  0  0
   48.7370    3.7653   17.4002 C   0  0  0  0  0  0  0  0  0  0  0  0
   48.5740    3.4304   18.7402 C   0  0  0  0  0  0  0  0  0  0  0  0
   48.4554    2.1327   19.1397 O   0  0  0  0  0  0  0  0  0  0  0  0
   47.4989   12.9840    9.8419 N   0  0  0  0  0  0  0  0  0  0  0  0
   47.4082   12.1862   10.9628 C   0  0  0  0  0  0  0  0  0  0  0  0
   48.4226   12.7743    8.7224 C   0  0  0  0  0  0  0  0  0  0  0  0
   46.7820   14.2590    9.8299 C   0  0  0  0  0  0  0  0  0  0  0  0
   48.0582   10.9833   10.8601 N   0  0  0  0  0  0  0  0  0  0  0  0
   46.8023   12.5240   11.9749 O   0  0  0  0  0  0  0  0  0  0  0  0
   48.8544   14.1090    8.1067 C   0  0  0  0  0  0  0  0  0  0  0  0
   46.5513   14.7435    8.3963 C   0  0  0  0  0  0  0  0  0  0  0  0
   48.0171   10.0308   11.9556 C   0  0  0  0  0  0  0  0  0  0  0  0
   47.7561   14.8971    7.6307 O   0  0  0  0  0  0  0  0  0  0  0  0
   48.9046   10.4482   13.1400 C   0  0  0  0  0  0  0  0  0  0  0  0
   48.8875    9.4249   14.1985 N   0  0  0  0  0  0  0  0  0  0  0  0
   49.7663    9.8274   15.3069 C   0  0  0  0  0  0  0  0  0  0  0  0
   49.8694    8.7406   16.3902 C   0  0  1  0  0  0  0  0  0  0  0  0
   50.5782    7.4792   15.8749 C   0  0  0  0  0  0  0  0  0  0  0  0
   50.6037    9.2706   17.5048 O   0  0  0  0  0  0  0  0  0  0  0  0
   50.6333    6.4883   16.9121 O   0  0  0  0  0  0  0  0  0  0  0  0
   49.5886    5.6157   17.0385 C   0  0  0  0  0  0  0  0  0  0  0  0
   48.4027    5.6287   16.3028 C   0  0  0  0  0  0  0  0  0  0  0  0
   49.7718    4.6380   18.0230 C   0  0  0  0  0  0  0  0  0  0  0  0
   47.4143    4.6706   16.5513 C   0  0  0  0  0  0  0  0  0  0  0  0
   48.7877    3.6790   18.2711 C   0  0  0  0  0  0  0  0  0  0  0  0
   47.6134    3.7047   17.5301 C   0  0  0  0  0  0  0  0  0  0  0  0
   46.6233    2.7909   17.7332 O   0  0  0  0  0  0  0  0  0  0  0  0
   48.7398   10.2260   13.2809 C   0  0  0  0  0  0  0  0  0  0  0  0
   48.2883    9.0427   13.7147 C   0  0  0  0  0  0  0  0  0  0  0  0
   48.8901    8.4466   14.9077 C   0  0  0  0  0  0  0  0  0  0  0  0
   48.3135    7.2663   15.1771 O   0  0  0  0  0  0  0  0  0  0  0  0
   49.7828    8.9079   15.5916 O   0  0  0  0  0  0  0  0  0  0  0  0
   48.1391   10.8213   12.0868 C   0  0  0  0  0  0  0  0  0  0  0  0
   48.7269   11.9938   11.8080 O   0  0  0  0  0  0  0  0  0  0  0  0
   47.2385   10.3652   11.4099 O   0  0  0  0  0  0  0  0  0  0  0  0
   46.1423   12.1198    8.5203 H   0  0  0  0  0  0  0  0  0  0  0  0
   45.8436   13.8611    8.6544 H   0  0  0  0  0  0  0  0  0  0  0  0
   48.6874   14.7438   10.5774 H   0  0  0  0  0  0  0  0  0  0  0  0
   49.4729   13.6623    9.4058 H   0  0  0  0  0  0  0  0  0  0  0  0
   48.4774   13.3718   12.0169 H   0  0  0  0  0  0  0  0  0  0  0  0
   48.2314   12.5820    7.1955 H   0  0  0  0  0  0  0  0  0  0  0  0
   46.7998   13.2497    6.4034 H   0  0  0  0  0  0  0  0  0  0  0  0
   47.3692   15.8140    8.7486 H   0  0  0  0  0  0  0  0  0  0  0  0
   49.0989   15.9391    8.4241 H   0  0  0  0  0  0  0  0  0  0  0  0
   48.8417   11.9563   13.6857 H   0  0  0  0  0  0  0  0  0  0  0  0
   47.2329   11.3667   13.2326 H   0  0  0  0  0  0  0  0  0  0  0  0
   49.9031   10.2439   12.1669 H   0  0  0  0  0  0  0  0  0  0  0  0
   48.3246    9.6785   11.6830 H   0  0  0  0  0  0  0  0  0  0  0  0
   47.8838    9.0129   13.9316 H   0  0  0  0  0  0  0  0  0  0  0  0
   50.7141    9.7456   14.3410 H   0  0  0  0  0  0  0  0  0  0  0  0
   49.3358   10.3586   15.2777 H   0  0  0  0  0  0  0  0  0  0  0  0
   50.7138    8.5267   16.4111 H   0  0  0  0  0  0  0  0  0  0  0  0
   47.9488    7.3004   15.9048 H   0  0  0  0  0  0  0  0  0  0  0  0
   48.0560    8.8844   16.6573 H   0  0  0  0  0  0  0  0  0  0  0  0
   49.9207    7.2970   14.0471 H   0  0  0  0  0  0  0  0  0  0  0  0
   48.6273    6.5292   20.1085 H   0  0  0  0  0  0  0  0  0  0  0  0
   49.0112    5.3422   15.9843 H   0  0  0  0  0  0  0  0  0  0  0  0
   48.4157    4.1458   20.7612 H   0  0  0  0  0  0  0  0  0  0  0  0
   48.7863    3.0022   16.6303 H   0  0  0  0  0  0  0  0  0  0  0  0
   48.5215    1.5628   18.3562 H   0  0  0  0  0  0  0  0  0  0  0  0
   49.3025   12.2135    9.0523 H   0  0  0  0  0  0  0  0  0  0  0  0
   47.8815   12.1752    7.9810 H   0  0  0  0  0  0  0  0  0  0  0  0
   47.4027   14.9771   10.3791 H   0  0  0  0  0  0  0  0  0  0  0  0
   45.8284   14.1573   10.3591 H   0  0  0  0  0  0  0  0  0  0  0  0
   48.0360   10.5842    9.9343 H   0  0  0  0  0  0  0  0  0  0  0  0
   49.5273   13.9357    7.2609 H   0  0  0  0  0  0  0  0  0  0  0  0
   49.4022   14.7095    8.8425 H   0  0  0  0  0  0  0  0  0  0  0  0
   45.9129   14.0336    7.8574 H   0  0  0  0  0  0  0  0  0  0  0  0
   46.0373   15.7099    8.3993 H   0  0  0  0  0  0  0  0  0  0  0  0
   48.3605    9.0722   11.5513 H   0  0  0  0  0  0  0  0  0  0  0  0
   46.9754    9.9105   12.2758 H   0  0  0  0  0  0  0  0  0  0  0  0
   48.5675   11.4093   13.5447 H   0  0  0  0  0  0  0  0  0  0  0  0
   49.9295   10.5886   12.7758 H   0  0  0  0  0  0  0  0  0  0  0  0
   47.9309    9.3573   14.5545 H   0  0  0  0  0  0  0  0  0  0  0  0
   50.7751   10.0503   14.9356 H   0  0  0  0  0  0  0  0  0  0  0  0
   49.3940   10.7531   15.7643 H   0  0  0  0  0  0  0  0  0  0  0  0
   48.8718    8.4978   16.7718 H   0  0  0  0  0  0  0  0  0  0  0  0
   50.1550    7.0771   14.9483 H   0  0  0  0  0  0  0  0  0  0  0  0
   51.6240    7.7251   15.6538 H   0  0  0  0  0  0  0  0  0  0  0  0
   50.7645    8.5132   18.1004 H   0  0  0  0  0  0  0  0  0  0  0  0
   48.2058    6.3672   15.5329 H   0  0  0  0  0  0  0  0  0  0  0  0
   50.6943    4.6223   18.5993 H   0  0  0  0  0  0  0  0  0  0  0  0
   46.4910    4.6784   15.9787 H   0  0  0  0  0  0  0  0  0  0  0  0
   48.9578    2.9306   19.0379 H   0  0  0  0  0  0  0  0  0  0  0  0
   46.9023    2.1862   18.4402 H   0  0  0  0  0  0  0  0  0  0  0  0
   49.5368   10.7707   13.7736 H   0  0  0  0  0  0  0  0  0  0  0  0
   47.4918    8.4982   13.2216 H   0  0  0  0  0  0  0  0  0  0  0  0
   48.7781    6.9503   15.9800 H   0  0  0  0  0  0  0  0  0  0  0  0
   48.2637   12.3096   11.0043 H   0  0  0  0  0  0  0  0  0  0  0  0
  3  7  1  0
  4  8  1  0
  5  9  1  0
  7 10  1  0
  9 11  1  0
 11 12  1  0
 12 13  1  0
 13 14  1  0
 14 15  1  0
 14 16  1  0
 15 17  1  0
 17 18  1  0
 18 19  2  0
 18 20  1  0
 19 21  1  0
 20 22  2  0
 21 23  2  0
 23 24  1  0
  8 10  1  0
 22 23  1  0
  1  2  1  0
  1  3  1  0
  1  4  1  0
  2  5  1  0
  2  6  2  0
 27 31  1  0
 28 32  1  0
 29 33  1  0
 31 34  1  0
 33 35  1  0
 35 36  1  0
 36 37  1  0
 37 38  1  0
 38 39  1  0
 38 40  1  0
 39 41  1  0
 41 42  1  0
 42 43  2  0
 42 44  1  0
 43 45  1  0
 44 46  2  0
 45 47  2  0
 47 48  1  0
 32 34  1  0
 46 47  1  0
 25 26  1  0
 25 27  1  0
 25 28  1  0
 26 29  1  0
 26 30  2  0
 49 50  2  0
 49 54  1  0
 50 51  1  0
 51 52  1  0
 51 53  2  0
 54 55  1  0
 54 56  2  0
  3 57  1  0
  3 58  1  0
  4 59  1  0
  4 60  1  0
  5 61  1  0
  7 62  1  0
  7 63  1  0
  8 64  1  0
  8 65  1  0
  9 66  1  0
  9 67  1  0
 11 68  1  0
 11 69  1  0
 12 70  1  0
 13 71  1  0
 13 72  1  0
 14 73  1  6
 15 74  1  0
 15 75  1  0
 16 76  1  0
 19 77  1  0
 20 78  1  0
 21 79  1  0
 22 80  1  0
 24 81  1  0
 27 82  1  0
 27 83  1  0
 28 84  1  0
 28 85  1  0
 29 86  1  0
 31 87  1  0
 31 88  1  0
 32 89  1  0
 32 90  1  0
 33 91  1  0
 33 92  1  0
 35 93  1  0
 35 94  1  0
 36 95  1  0
 37 96  1  0
 37 97  1  0
 38 98  1  1
 39 99  1  0
 39100  1  0
 40101  1  0
 43102  1  0
 44103  1  0
 45104  1  0
 46105  1  0
 48106  1  0
 49107  1  0
 50108  1  0
 52109  1  0
 55110  1  0
M  END
> <Uni-Dock RESULT> 
ENERGY=   -4.341  LOWER_BOUND=    4.901  UPPER_BOUND=    7.788
INTER + INTRA:          -4.341
INTER:                  -4.341
INTRA:                   0.000
UNBOUND:                 0.000

$$$$
