
     RDKit          3D

110111  0  0  0  0  0  0  0  0999 V2000
   54.4481    7.9090   11.9005 N   0  0  0  0  0  0  0  0  0  0  0  0
   53.3823    8.6057   12.4521 C   0  0  0  0  0  0  0  0  0  0  0  0
   54.6697    7.8480   10.4504 C   0  0  0  0  0  0  0  0  0  0  0  0
   55.7071    7.9208   12.6497 C   0  0  0  0  0  0  0  0  0  0  0  0
   52.2428    8.5754   11.6926 N   0  0  0  0  0  0  0  0  0  0  0  0
   53.4447    9.1886   13.5302 O   0  0  0  0  0  0  0  0  0  0  0  0
   55.5769    9.0112   10.0214 C   0  0  0  0  0  0  0  0  0  0  0  0
   56.5899    9.0784   12.1690 C   0  0  0  0  0  0  0  0  0  0  0  0
   51.0264    9.2326   12.1435 C   0  0  0  0  0  0  0  0  0  0  0  0
   56.8193    8.9880   10.7478 O   0  0  0  0  0  0  0  0  0  0  0  0
   50.3346    8.4817   13.2963 C   0  0  0  0  0  0  0  0  0  0  0  0
   48.9877    8.9758   13.6116 N   0  0  0  0  0  0  0  0  0  0  0  0
   48.0076    8.6794   12.5549 C   0  0  0  0  0  0  0  0  0  0  0  0
   46.5693    8.8063   13.1030 C   0  0  1  0  0  0  0  0  0  0  0  0
   45.5189    8.6300   11.9961 C   0  0  0  0  0  0  0  0  0  0  0  0
   46.3681    7.8252   14.1334 O   0  0  0  0  0  0  0  0  0  0  0  0
   45.7282    7.4089   11.2799 O   0  0  0  0  0  0  0  0  0  0  0  0
   44.8609    6.3711   11.4710 C   0  0  0  0  0  0  0  0  0  0  0  0
   44.0048    6.1986   12.5605 C   0  0  0  0  0  0  0  0  0  0  0  0
   44.9007    5.3943   10.4712 C   0  0  0  0  0  0  0  0  0  0  0  0
   43.1786    5.0719   12.6339 C   0  0  0  0  0  0  0  0  0  0  0  0
   44.0774    4.2710   10.5412 C   0  0  0  0  0  0  0  0  0  0  0  0
   43.2195    4.1196   11.6214 C   0  0  0  0  0  0  0  0  0  0  0  0
   42.4294    3.0099   11.6562 O   0  0  0  0  0  0  0  0  0  0  0  0
   45.8722    4.9056   12.7774 N   0  0  0  0  0  0  0  0  0  0  0  0
   46.8534    5.4457   13.5815 C   0  0  0  0  0  0  0  0  0  0  0  0
   45.7553    3.4496   12.6854 C   0  0  0  0  0  0  0  0  0  0  0  0
   44.8063    5.6633   12.1171 C   0  0  0  0  0  0  0  0  0  0  0  0
   46.9617    6.8110   13.5113 N   0  0  0  0  0  0  0  0  0  0  0  0
   47.5827    4.7634   14.2957 O   0  0  0  0  0  0  0  0  0  0  0  0
   45.1325    3.0357   11.3488 C   0  0  0  0  0  0  0  0  0  0  0  0
   43.5710    4.7924   11.8682 C   0  0  0  0  0  0  0  0  0  0  0  0
   48.0194    7.5112   14.2240 C   0  0  0  0  0  0  0  0  0  0  0  0
   43.8522    3.6304   11.0795 O   0  0  0  0  0  0  0  0  0  0  0  0
   49.4132    7.3057   13.5944 C   0  0  0  0  0  0  0  0  0  0  0  0
   49.4627    7.4034   12.1244 N   0  0  0  0  0  0  0  0  0  0  0  0
   49.1599    8.7361   11.5979 C   0  0  0  0  0  0  0  0  0  0  0  0
   50.2224    9.8162   11.8652 C   0  0  1  0  0  0  0  0  0  0  0  0
   51.5986    9.4271   11.3082 C   0  0  0  0  0  0  0  0  0  0  0  0
   49.7807   11.0368   11.2479 O   0  0  0  0  0  0  0  0  0  0  0  0
   52.4914   10.5179   11.5809 O   0  0  0  0  0  0  0  0  0  0  0  0
   53.8173   10.3060   11.3159 C   0  0  0  0  0  0  0  0  0  0  0  0
   54.6750   11.3034   11.7877 C   0  0  0  0  0  0  0  0  0  0  0  0
   54.3503    9.2114   10.6310 C   0  0  0  0  0  0  0  0  0  0  0  0
   56.0529   11.2065   11.5891 C   0  0  0  0  0  0  0  0  0  0  0  0
   55.7329    9.1101   10.4347 C   0  0  0  0  0  0  0  0  0  0  0  0
   56.5730   10.1076   10.9187 C   0  0  0  0  0  0  0  0  0  0  0  0
   57.9243   10.0448   10.7537 O   0  0  0  0  0  0  0  0  0  0  0  0
   49.9364    7.7202   11.4772 C   0  0  0  0  0  0  0  0  0  0  0  0
   49.1810    7.5988   12.5775 C   0  0  0  0  0  0  0  0  0  0  0  0
   47.7449    7.3058   12.5335 C   0  0  0  0  0  0  0  0  0  0  0  0
   47.2611    7.1481   11.2933 O   0  0  0  0  0  0  0  0  0  0  0  0
   47.0325    7.2025   13.5152 O   0  0  0  0  0  0  0  0  0  0  0  0
   51.3690    8.0202   11.5233 C   0  0  0  0  0  0  0  0  0  0  0  0
   51.8557    8.1587   12.7642 O   0  0  0  0  0  0  0  0  0  0  0  0
   52.0779    8.1367   10.5411 O   0  0  0  0  0  0  0  0  0  0  0  0
   53.7350    7.8777    9.8844 H   0  0  0  0  0  0  0  0  0  0  0  0
   55.1635    6.8906   10.2443 H   0  0  0  0  0  0  0  0  0  0  0  0
   55.5217    7.9932   13.7253 H   0  0  0  0  0  0  0  0  0  0  0  0
   56.2031    6.9638   12.4550 H   0  0  0  0  0  0  0  0  0  0  0  0
   52.1159    7.7200   11.1718 H   0  0  0  0  0  0  0  0  0  0  0  0
   55.8112    8.9249    8.9559 H   0  0  0  0  0  0  0  0  0  0  0  0
   55.0870    9.9788   10.1867 H   0  0  0  0  0  0  0  0  0  0  0  0
   56.1382   10.0512   12.3942 H   0  0  0  0  0  0  0  0  0  0  0  0
   57.5650    9.0332   12.6624 H   0  0  0  0  0  0  0  0  0  0  0  0
   51.2734   10.2552   12.4536 H   0  0  0  0  0  0  0  0  0  0  0  0
   50.3789    9.2896   11.2633 H   0  0  0  0  0  0  0  0  0  0  0  0
   50.2961    7.4058   13.0838 H   0  0  0  0  0  0  0  0  0  0  0  0
   50.9456    8.5849   14.2006 H   0  0  0  0  0  0  0  0  0  0  0  0
   48.6632    8.5353   14.4788 H   0  0  0  0  0  0  0  0  0  0  0  0
   48.1643    7.6565   12.1930 H   0  0  0  0  0  0  0  0  0  0  0  0
   48.1415    9.3753   11.7202 H   0  0  0  0  0  0  0  0  0  0  0  0
   46.4302    9.7907   13.5666 H   0  0  0  0  0  0  0  0  0  0  0  0
   45.6391    9.4395   11.2654 H   0  0  0  0  0  0  0  0  0  0  0  0
   44.5004    8.7280   12.3868 H   0  0  0  0  0  0  0  0  0  0  0  0
   46.5154    6.9541   13.7186 H   0  0  0  0  0  0  0  0  0  0  0  0
   43.9648    6.9107   13.3795 H   0  0  0  0  0  0  0  0  0  0  0  0
   45.5720    5.5144    9.6249 H   0  0  0  0  0  0  0  0  0  0  0  0
   42.5168    4.9553   13.4865 H   0  0  0  0  0  0  0  0  0  0  0  0
   44.1049    3.5217    9.7551 H   0  0  0  0  0  0  0  0  0  0  0  0
   41.8754    3.0466   12.4528 H   0  0  0  0  0  0  0  0  0  0  0  0
   46.7390    2.9839   12.8058 H   0  0  0  0  0  0  0  0  0  0  0  0
   45.1205    3.1294   13.5205 H   0  0  0  0  0  0  0  0  0  0  0  0
   44.5331    6.5311   12.7259 H   0  0  0  0  0  0  0  0  0  0  0  0
   45.2168    6.0181   11.1640 H   0  0  0  0  0  0  0  0  0  0  0  0
   46.6611    7.2334   12.6478 H   0  0  0  0  0  0  0  0  0  0  0  0
   45.0063    1.9488   11.3110 H   0  0  0  0  0  0  0  0  0  0  0  0
   45.7975    3.3167   10.5230 H   0  0  0  0  0  0  0  0  0  0  0  0
   42.8027    5.3686   11.3422 H   0  0  0  0  0  0  0  0  0  0  0  0
   43.1374    4.4570   12.8181 H   0  0  0  0  0  0  0  0  0  0  0  0
   47.7508    8.5720   14.2246 H   0  0  0  0  0  0  0  0  0  0  0  0
   48.0275    7.1665   15.2643 H   0  0  0  0  0  0  0  0  0  0  0  0
   49.7605    6.2977   13.8491 H   0  0  0  0  0  0  0  0  0  0  0  0
   50.1350    7.9875   14.0571 H   0  0  0  0  0  0  0  0  0  0  0  0
   48.7928    6.7278   11.7517 H   0  0  0  0  0  0  0  0  0  0  0  0
   49.0430    8.6418   10.5108 H   0  0  0  0  0  0  0  0  0  0  0  0
   48.1796    9.0876   11.9437 H   0  0  0  0  0  0  0  0  0  0  0  0
   50.3006   10.0281   12.9373 H   0  0  0  0  0  0  0  0  0  0  0  0
   51.9571    8.5170   11.8030 H   0  0  0  0  0  0  0  0  0  0  0  0
   51.5332    9.2869   10.2228 H   0  0  0  0  0  0  0  0  0  0  0  0
   50.5689   11.6132   11.2058 H   0  0  0  0  0  0  0  0  0  0  0  0
   54.2697   12.1635   12.3146 H   0  0  0  0  0  0  0  0  0  0  0  0
   53.7196    8.4206   10.2359 H   0  0  0  0  0  0  0  0  0  0  0  0
   56.7169   11.9819   11.9588 H   0  0  0  0  0  0  0  0  0  0  0  0
   56.1298    8.2513    9.9024 H   0  0  0  0  0  0  0  0  0  0  0  0
   58.1446    9.2237   10.2834 H   0  0  0  0  0  0  0  0  0  0  0  0
   49.5298    7.6023   10.4784 H   0  0  0  0  0  0  0  0  0  0  0  0
   49.5838    7.7202   13.5767 H   0  0  0  0  0  0  0  0  0  0  0  0
   46.3074    6.9674   11.4326 H   0  0  0  0  0  0  0  0  0  0  0  0
   52.8058    8.3550   12.6257 H   0  0  0  0  0  0  0  0  0  0  0  0
  3  7  1  0
  4  8  1  0
  5  9  1  0
  7 10  1  0
  9 11  1  0
 11 12  1  0
 12 13  1  0
 13 14  1  0
 14 15  1  0
 14 16  1  0
 15 17  1  0
 17 18  1  0
 18 19  2  0
 18 20  1  0
 19 21  1  0
 20 22  2  0
 21 23  2  0
 23 24  1  0
  8 10  1  0
 22 23  1  0
  1  2  1  0
  1  3  1  0
  1  4  1  0
  2  5  1  0
  2  6  2  0
 27 31  1  0
 28 32  1  0
 29 33  1  0
 31 34  1  0
 33 35  1  0
 35 36  1  0
 36 37  1  0
 37 38  1  0
 38 39  1  0
 38 40  1  0
 39 41  1  0
 41 42  1  0
 42 43  2  0
 42 44  1  0
 43 45  1  0
 44 46  2  0
 45 47  2  0
 47 48  1  0
 32 34  1  0
 46 47  1  0
 25 26  1  0
 25 27  1  0
 25 28  1  0
 26 29  1  0
 26 30  2  0
 49 50  2  0
 49 54  1  0
 50 51  1  0
 51 52  1  0
 51 53  2  0
 54 55  1  0
 54 56  2  0
  3 57  1  0
  3 58  1  0
  4 59  1  0
  4 60  1  0
  5 61  1  0
  7 62  1  0
  7 63  1  0
  8 64  1  0
  8 65  1  0
  9 66  1  0
  9 67  1  0
 11 68  1  0
 11 69  1  0
 12 70  1  0
 13 71  1  0
 13 72  1  0
 14 73  1  1
 15 74  1  0
 15 75  1  0
 16 76  1  0
 19 77  1  0
 20 78  1  0
 21 79  1  0
 22 80  1  0
 24 81  1  0
 27 82  1  0
 27 83  1  0
 28 84  1  0
 28 85  1  0
 29 86  1  0
 31 87  1  0
 31 88  1  0
 32 89  1  0
 32 90  1  0
 33 91  1  0
 33 92  1  0
 35 93  1  0
 35 94  1  0
 36 95  1  0
 37 96  1  0
 37 97  1  0
 38 98  1  1
 39 99  1  0
 39100  1  0
 40101  1  0
 43102  1  0
 44103  1  0
 45104  1  0
 46105  1  0
 48106  1  0
 49107  1  0
 50108  1  0
 52109  1  0
 55110  1  0
M  END
> <Uni-Dock RESULT> 
ENERGY=   -5.508  LOWER_BOUND=    0.000  UPPER_BOUND=    0.000
INTER + INTRA:          -5.508
INTER:                  -5.508
INTRA:                   0.000
UNBOUND:                 0.000

$$$$

     RDKit          3D

110111  0  0  0  0  0  0  0  0999 V2000
   44.7786    6.6084   11.0722 N   0  0  0  0  0  0  0  0  0  0  0  0
   45.4441    7.0768   12.1962 C   0  0  0  0  0  0  0  0  0  0  0  0
   45.3716    5.6043   10.1801 C   0  0  0  0  0  0  0  0  0  0  0  0
   43.3244    6.4634   11.1748 C   0  0  0  0  0  0  0  0  0  0  0  0
   46.8023    7.1674   12.0433 N   0  0  0  0  0  0  0  0  0  0  0  0
   44.8714    7.3955   13.2336 O   0  0  0  0  0  0  0  0  0  0  0  0
   44.9713    4.1985   10.6532 C   0  0  0  0  0  0  0  0  0  0  0  0
   42.9718    5.0398   11.6213 C   0  0  0  0  0  0  0  0  0  0  0  0
   47.6436    7.6684   13.1185 C   0  0  0  0  0  0  0  0  0  0  0  0
   43.5394    4.0676   10.7194 O   0  0  0  0  0  0  0  0  0  0  0  0
   47.5168    9.1904   13.3155 C   0  0  0  0  0  0  0  0  0  0  0  0
   48.5230    9.7645   14.2187 N   0  0  0  0  0  0  0  0  0  0  0  0
   49.8804    9.7424   13.6513 C   0  0  0  0  0  0  0  0  0  0  0  0
   50.7975   10.7269   14.4096 C   0  0  1  0  0  0  0  0  0  0  0  0
   52.2535   10.6364   13.9287 C   0  0  0  0  0  0  0  0  0  0  0  0
   50.3030   12.0645   14.2332 O   0  0  0  0  0  0  0  0  0  0  0  0
   52.3356   10.7919   12.5085 O   0  0  0  0  0  0  0  0  0  0  0  0
   52.8446   11.9515   11.9967 C   0  0  0  0  0  0  0  0  0  0  0  0
   52.9511   13.1734   12.6639 C   0  0  0  0  0  0  0  0  0  0  0  0
   53.2476   11.8646   10.6605 C   0  0  0  0  0  0  0  0  0  0  0  0
   53.4801   14.2896   12.0067 C   0  0  0  0  0  0  0  0  0  0  0  0
   53.7763   12.9751   10.0034 C   0  0  0  0  0  0  0  0  0  0  0  0
   53.8916   14.1796   10.6830 C   0  0  0  0  0  0  0  0  0  0  0  0
   54.4130   15.2432   10.0093 O   0  0  0  0  0  0  0  0  0  0  0  0
   51.1374   13.1550   11.2796 N   0  0  0  0  0  0  0  0  0  0  0  0
   49.9418   12.8711   11.9049 C   0  0  0  0  0  0  0  0  0  0  0  0
   51.1288   14.0098   10.0918 C   0  0  0  0  0  0  0  0  0  0  0  0
   52.4650   12.8095   11.7940 C   0  0  0  0  0  0  0  0  0  0  0  0
   50.0356   11.9697   12.9342 N   0  0  0  0  0  0  0  0  0  0  0  0
   48.8740   13.3724   11.5642 O   0  0  0  0  0  0  0  0  0  0  0  0
   52.3269   13.7014    9.1889 C   0  0  0  0  0  0  0  0  0  0  0  0
   53.5368   13.7694   11.2687 C   0  0  0  0  0  0  0  0  0  0  0  0
   48.8428   11.4953   13.6189 C   0  0  0  0  0  0  0  0  0  0  0  0
   53.6043   13.8082    9.8386 O   0  0  0  0  0  0  0  0  0  0  0  0
   47.9984   10.5266   12.7646 C   0  0  0  0  0  0  0  0  0  0  0  0
   48.7627    9.5010   12.0317 N   0  0  0  0  0  0  0  0  0  0  0  0
   49.4427    8.5280   12.8894 C   0  0  0  0  0  0  0  0  0  0  0  0
   48.5274    7.5418   13.6355 C   0  0  1  0  0  0  0  0  0  0  0  0
   47.6388    6.7363   12.6778 C   0  0  0  0  0  0  0  0  0  0  0  0
   49.3605    6.6447   14.3887 O   0  0  0  0  0  0  0  0  0  0  0  0
   46.8633    5.8308   13.4778 O   0  0  0  0  0  0  0  0  0  0  0  0
   45.8778    5.1333   12.8332 C   0  0  0  0  0  0  0  0  0  0  0  0
   45.0139    4.4277   13.6752 C   0  0  0  0  0  0  0  0  0  0  0  0
   45.6863    5.0753   11.4508 C   0  0  0  0  0  0  0  0  0  0  0  0
   43.9613    3.6797   13.1460 C   0  0  0  0  0  0  0  0  0  0  0  0
   44.6282    4.3290   10.9181 C   0  0  0  0  0  0  0  0  0  0  0  0
   43.7724    3.6399   11.7712 C   0  0  0  0  0  0  0  0  0  0  0  0
   42.7275    2.9065   11.2943 O   0  0  0  0  0  0  0  0  0  0  0  0
   48.7514    8.6661   11.8159 C   0  0  0  0  0  0  0  0  0  0  0  0
   48.7735    9.8155   12.5048 C   0  0  0  0  0  0  0  0  0  0  0  0
   49.9641   10.6658   12.6041 C   0  0  0  0  0  0  0  0  0  0  0  0
   51.0215   10.2002   11.9245 O   0  0  0  0  0  0  0  0  0  0  0  0
   50.0163   11.7071   13.2324 O   0  0  0  0  0  0  0  0  0  0  0  0
   47.5634    7.8149   11.7241 C   0  0  0  0  0  0  0  0  0  0  0  0
   46.5011    8.2908   12.3881 O   0  0  0  0  0  0  0  0  0  0  0  0
   47.5157    6.7671   11.1070 O   0  0  0  0  0  0  0  0  0  0  0  0
   46.4606    5.6830   10.1294 H   0  0  0  0  0  0  0  0  0  0  0  0
   44.9685    5.7923    9.1775 H   0  0  0  0  0  0  0  0  0  0  0  0
   42.9051    7.2025   11.8635 H   0  0  0  0  0  0  0  0  0  0  0  0
   42.9134    6.6574   10.1782 H   0  0  0  0  0  0  0  0  0  0  0  0
   47.0983    7.3985   11.1063 H   0  0  0  0  0  0  0  0  0  0  0  0
   45.3428    3.4500    9.9466 H   0  0  0  0  0  0  0  0  0  0  0  0
   45.3942    3.9764   11.6408 H   0  0  0  0  0  0  0  0  0  0  0  0
   43.3311    4.8343   12.6362 H   0  0  0  0  0  0  0  0  0  0  0  0
   41.8866    4.9036   11.6101 H   0  0  0  0  0  0  0  0  0  0  0  0
   47.3794    7.1446   14.0451 H   0  0  0  0  0  0  0  0  0  0  0  0
   48.6660    7.3881   12.8473 H   0  0  0  0  0  0  0  0  0  0  0  0
   47.5487    9.7058   12.3472 H   0  0  0  0  0  0  0  0  0  0  0  0
   46.5291    9.4099   13.7372 H   0  0  0  0  0  0  0  0  0  0  0  0
   48.2775   10.7400   14.4178 H   0  0  0  0  0  0  0  0  0  0  0  0
   49.8358   10.0346   12.5956 H   0  0  0  0  0  0  0  0  0  0  0  0
   50.2946    8.7313   13.7222 H   0  0  0  0  0  0  0  0  0  0  0  0
   50.7683   10.5140   15.4852 H   0  0  0  0  0  0  0  0  0  0  0  0
   52.6351    9.6321   14.1505 H   0  0  0  0  0  0  0  0  0  0  0  0
   52.9025   11.3305   14.4735 H   0  0  0  0  0  0  0  0  0  0  0  0
   50.3111   12.2381   13.2728 H   0  0  0  0  0  0  0  0  0  0  0  0
   52.6178   13.3001   13.6897 H   0  0  0  0  0  0  0  0  0  0  0  0
   53.1580   10.9205   10.1295 H   0  0  0  0  0  0  0  0  0  0  0  0
   53.5585   15.2310   12.5415 H   0  0  0  0  0  0  0  0  0  0  0  0
   54.0982   12.8977    8.9688 H   0  0  0  0  0  0  0  0  0  0  0  0
   54.4483   16.0054   10.6098 H   0  0  0  0  0  0  0  0  0  0  0  0
   50.1931   13.8774    9.5385 H   0  0  0  0  0  0  0  0  0  0  0  0
   51.1724   15.0465   10.4471 H   0  0  0  0  0  0  0  0  0  0  0  0
   52.4565   12.8243   12.8886 H   0  0  0  0  0  0  0  0  0  0  0  0
   52.6759   11.7871   11.4581 H   0  0  0  0  0  0  0  0  0  0  0  0
   50.7986   11.3147   12.8784 H   0  0  0  0  0  0  0  0  0  0  0  0
   52.3362   14.3785    8.3286 H   0  0  0  0  0  0  0  0  0  0  0  0
   52.2489   12.6789    8.7997 H   0  0  0  0  0  0  0  0  0  0  0  0
   54.5240   13.4707   11.6364 H   0  0  0  0  0  0  0  0  0  0  0  0
   53.3489   14.7898   11.6242 H   0  0  0  0  0  0  0  0  0  0  0  0
   49.1801   11.0038   14.5365 H   0  0  0  0  0  0  0  0  0  0  0  0
   48.2364   12.3620   13.9059 H   0  0  0  0  0  0  0  0  0  0  0  0
   47.4630   11.1123   12.0084 H   0  0  0  0  0  0  0  0  0  0  0  0
   47.2190   10.0677   13.3825 H   0  0  0  0  0  0  0  0  0  0  0  0
   49.4507    9.9886   11.4547 H   0  0  0  0  0  0  0  0  0  0  0  0
   50.1181    7.9430   12.2523 H   0  0  0  0  0  0  0  0  0  0  0  0
   50.1112    9.0253   13.6035 H   0  0  0  0  0  0  0  0  0  0  0  0
   47.9051    8.0671   14.3684 H   0  0  0  0  0  0  0  0  0  0  0  0
   46.9747    7.4131   12.1278 H   0  0  0  0  0  0  0  0  0  0  0  0
   48.2654    6.1541   11.9919 H   0  0  0  0  0  0  0  0  0  0  0  0
   48.7874    5.8910   14.6313 H   0  0  0  0  0  0  0  0  0  0  0  0
   45.1592    4.4595   14.7520 H   0  0  0  0  0  0  0  0  0  0  0  0
   46.3415    5.5969   10.7594 H   0  0  0  0  0  0  0  0  0  0  0  0
   43.2905    3.1345   13.8029 H   0  0  0  0  0  0  0  0  0  0  0  0
   44.4930    4.2972    9.8415 H   0  0  0  0  0  0  0  0  0  0  0  0
   42.7101    2.9791   10.3255 H   0  0  0  0  0  0  0  0  0  0  0  0
   49.6182    8.2942   11.2800 H   0  0  0  0  0  0  0  0  0  0  0  0
   47.9100   10.1875   13.0446 H   0  0  0  0  0  0  0  0  0  0  0  0
   51.7225   10.8648   12.0931 H   0  0  0  0  0  0  0  0  0  0  0  0
   45.8043    7.6192   12.2333 H   0  0  0  0  0  0  0  0  0  0  0  0
  3  7  1  0
  4  8  1  0
  5  9  1  0
  7 10  1  0
  9 11  1  0
 11 12  1  0
 12 13  1  0
 13 14  1  0
 14 15  1  0
 14 16  1  0
 15 17  1  0
 17 18  1  0
 18 19  2  0
 18 20  1  0
 19 21  1  0
 20 22  2  0
 21 23  2  0
 23 24  1  0
  8 10  1  0
 22 23  1  0
  1  2  1  0
  1  3  1  0
  1  4  1  0
  2  5  1  0
  2  6  2  0
 27 31  1  0
 28 32  1  0
 29 33  1  0
 31 34  1  0
 33 35  1  0
 35 36  1  0
 36 37  1  0
 37 38  1  0
 38 39  1  0
 38 40  1  0
 39 41  1  0
 41 42  1  0
 42 43  2  0
 42 44  1  0
 43 45  1  0
 44 46  2  0
 45 47  2  0
 47 48  1  0
 32 34  1  0
 46 47  1  0
 25 26  1  0
 25 27  1  0
 25 28  1  0
 26 29  1  0
 26 30  2  0
 49 50  2  0
 49 54  1  0
 50 51  1  0
 51 52  1  0
 51 53  2  0
 54 55  1  0
 54 56  2  0
  3 57  1  0
  3 58  1  0
  4 59  1  0
  4 60  1  0
  5 61  1  0
  7 62  1  0
  7 63  1  0
  8 64  1  0
  8 65  1  0
  9 66  1  0
  9 67  1  0
 11 68  1  0
 11 69  1  0
 12 70  1  0
 13 71  1  0
 13 72  1  0
 14 73  1  1
 15 74  1  0
 15 75  1  0
 16 76  1  0
 19 77  1  0
 20 78  1  0
 21 79  1  0
 22 80  1  0
 24 81  1  0
 27 82  1  0
 27 83  1  0
 28 84  1  0
 28 85  1  0
 29 86  1  0
 31 87  1  0
 31 88  1  0
 32 89  1  0
 32 90  1  0
 33 91  1  0
 33 92  1  0
 35 93  1  0
 35 94  1  0
 36 95  1  0
 37 96  1  0
 37 97  1  0
 38 98  1  1
 39 99  1  0
 39100  1  0
 40101  1  0
 43102  1  0
 44103  1  0
 45104  1  0
 46105  1  0
 48106  1  0
 49107  1  0
 50108  1  0
 52109  1  0
 55110  1  0
M  END
> <Uni-Dock RESULT> 
ENERGY=   -4.429  LOWER_BOUND=    2.432  UPPER_BOUND=    9.476
INTER + INTRA:          -4.429
INTER:                  -4.429
INTRA:                   0.000
UNBOUND:                 0.000

$$$$

     RDKit          3D

110111  0  0  0  0  0  0  0  0999 V2000
   55.8311    3.0297   19.0087 N   0  0  0  0  0  0  0  0  0  0  0  0
   54.7688    3.2487   18.1432 C   0  0  0  0  0  0  0  0  0  0  0  0
   55.6651    2.3060   20.2754 C   0  0  0  0  0  0  0  0  0  0  0  0
   57.1414    2.7831   18.4015 C   0  0  0  0  0  0  0  0  0  0  0  0
   53.5687    3.4494   18.7722 N   0  0  0  0  0  0  0  0  0  0  0  0
   54.8894    3.2743   16.9223 O   0  0  0  0  0  0  0  0  0  0  0  0
   55.9134    0.8075   20.0456 C   0  0  0  0  0  0  0  0  0  0  0  0
   57.3565    1.2763   18.2179 C   0  0  0  0  0  0  0  0  0  0  0  0
   52.3612    3.7216   18.0089 C   0  0  0  0  0  0  0  0  0  0  0  0
   57.2164    0.5846   19.4759 O   0  0  0  0  0  0  0  0  0  0  0  0
   52.3396    5.1411   17.4125 C   0  0  0  0  0  0  0  0  0  0  0  0
   51.0423    5.5350   16.8472 N   0  0  0  0  0  0  0  0  0  0  0  0
   50.0054    5.7267   17.8734 C   0  0  0  0  0  0  0  0  0  0  0  0
   48.8284    6.5482   17.3033 C   0  0  1  0  0  0  0  0  0  0  0  0
   47.6703    6.6583   18.3064 C   0  0  0  0  0  0  0  0  0  0  0  0
   49.2964    7.8589   16.9459 O   0  0  0  0  0  0  0  0  0  0  0  0
   48.1288    7.1571   19.5669 O   0  0  0  0  0  0  0  0  0  0  0  0
   47.8051    8.4327   19.9327 C   0  0  0  0  0  0  0  0  0  0  0  0
   47.4016    9.4609   19.0786 C   0  0  0  0  0  0  0  0  0  0  0  0
   47.9453    8.6944   21.2992 C   0  0  0  0  0  0  0  0  0  0  0  0
   47.1166   10.7307   19.5923 C   0  0  0  0  0  0  0  0  0  0  0  0
   47.6608    9.9586   21.8142 C   0  0  0  0  0  0  0  0  0  0  0  0
   47.2451   10.9674   20.9566 C   0  0  0  0  0  0  0  0  0  0  0  0
   46.9755   12.1898   21.4950 O   0  0  0  0  0  0  0  0  0  0  0  0
   49.6048    9.6766   19.6310 N   0  0  0  0  0  0  0  0  0  0  0  0
   50.4830    9.1834   18.6894 C   0  0  0  0  0  0  0  0  0  0  0  0
   50.0294   10.7915   20.4786 C   0  0  0  0  0  0  0  0  0  0  0  0
   48.1971    9.2916   19.7597 C   0  0  0  0  0  0  0  0  0  0  0  0
   50.0421    8.0665   18.0270 N   0  0  0  0  0  0  0  0  0  0  0  0
   51.5781    9.6917   18.4661 O   0  0  0  0  0  0  0  0  0  0  0  0
   49.2794   10.7782   21.8140 C   0  0  0  0  0  0  0  0  0  0  0  0
   47.3669   10.4085   20.3997 C   0  0  0  0  0  0  0  0  0  0  0  0
   50.9029    7.3746   17.0800 C   0  0  0  0  0  0  0  0  0  0  0  0
   47.8475   10.7959   21.6921 O   0  0  0  0  0  0  0  0  0  0  0  0
   52.0487    6.5957   17.7596 C   0  0  0  0  0  0  0  0  0  0  0  0
   51.6647    5.8223   18.9543 N   0  0  0  0  0  0  0  0  0  0  0  0
   50.7506    4.7102   18.6848 C   0  0  0  0  0  0  0  0  0  0  0  0
   51.3532    3.5233   17.9134 C   0  0  1  0  0  0  0  0  0  0  0  0
   52.5723    2.9250   18.6285 C   0  0  0  0  0  0  0  0  0  0  0  0
   50.3343    2.5186   17.7766 O   0  0  0  0  0  0  0  0  0  0  0  0
   53.0219    1.8109   17.8424 O   0  0  0  0  0  0  0  0  0  0  0  0
   54.2069    1.2362   18.2148 C   0  0  0  0  0  0  0  0  0  0  0  0
   54.7137    0.3007   17.3087 C   0  0  0  0  0  0  0  0  0  0  0  0
   54.9126    1.5038   19.3902 C   0  0  0  0  0  0  0  0  0  0  0  0
   55.9187   -0.3547   17.5651 C   0  0  0  0  0  0  0  0  0  0  0  0
   56.1240    0.8506   19.6473 C   0  0  0  0  0  0  0  0  0  0  0  0
   56.6185   -0.0712   18.7302 C   0  0  0  0  0  0  0  0  0  0  0  0
   57.7959   -0.7247   18.9394 O   0  0  0  0  0  0  0  0  0  0  0  0
   51.7922    5.0651   19.3470 C   0  0  0  0  0  0  0  0  0  0  0  0
   51.4614    6.0131   18.4592 C   0  0  0  0  0  0  0  0  0  0  0  0
   50.2883    6.8792   18.6137 C   0  0  0  0  0  0  0  0  0  0  0  0
   49.5898    6.6518   19.7350 O   0  0  0  0  0  0  0  0  0  0  0  0
   49.9572    7.7388   17.8179 O   0  0  0  0  0  0  0  0  0  0  0  0
   52.9601    4.1964   19.1870 C   0  0  0  0  0  0  0  0  0  0  0  0
   53.6686    4.4373   18.0754 O   0  0  0  0  0  0  0  0  0  0  0  0
   53.2830    3.3280   19.9762 O   0  0  0  0  0  0  0  0  0  0  0  0
   54.6752    2.4554   20.7141 H   0  0  0  0  0  0  0  0  0  0  0  0
   56.4113    2.7082   20.9713 H   0  0  0  0  0  0  0  0  0  0  0  0
   57.2355    3.3090   17.4470 H   0  0  0  0  0  0  0  0  0  0  0  0
   57.8925    3.1892   19.0877 H   0  0  0  0  0  0  0  0  0  0  0  0
   53.6424    3.9165   19.6641 H   0  0  0  0  0  0  0  0  0  0  0  0
   55.8706    0.2741   21.0003 H   0  0  0  0  0  0  0  0  0  0  0  0
   55.1560    0.3769   19.3789 H   0  0  0  0  0  0  0  0  0  0  0  0
   56.6468    0.8518   17.4987 H   0  0  0  0  0  0  0  0  0  0  0  0
   58.3689    1.0865   17.8499 H   0  0  0  0  0  0  0  0  0  0  0  0
   52.2743    2.9752   17.2101 H   0  0  0  0  0  0  0  0  0  0  0  0
   51.5318    3.5728   18.7070 H   0  0  0  0  0  0  0  0  0  0  0  0
   52.6573    5.8764   18.1625 H   0  0  0  0  0  0  0  0  0  0  0  0
   53.0822    5.1965   16.6081 H   0  0  0  0  0  0  0  0  0  0  0  0
   51.1525    6.4180   16.3377 H   0  0  0  0  0  0  0  0  0  0  0  0
   50.4364    6.2627   18.7272 H   0  0  0  0  0  0  0  0  0  0  0  0
   49.6380    4.7533   18.2147 H   0  0  0  0  0  0  0  0  0  0  0  0
   48.4547    6.0800   16.3844 H   0  0  0  0  0  0  0  0  0  0  0  0
   47.2753    5.6531   18.4990 H   0  0  0  0  0  0  0  0  0  0  0  0
   46.8344    7.2351   17.8963 H   0  0  0  0  0  0  0  0  0  0  0  0
   49.6474    8.2599   17.7636 H   0  0  0  0  0  0  0  0  0  0  0  0
   47.3135    9.3168   18.0057 H   0  0  0  0  0  0  0  0  0  0  0  0
   48.2697    7.9033   21.9702 H   0  0  0  0  0  0  0  0  0  0  0  0
   46.8011   11.5176   18.9143 H   0  0  0  0  0  0  0  0  0  0  0  0
   47.7606   10.1519   22.8785 H   0  0  0  0  0  0  0  0  0  0  0  0
   46.6824   12.7849   20.7860 H   0  0  0  0  0  0  0  0  0  0  0  0
   51.1099   10.7448   20.6501 H   0  0  0  0  0  0  0  0  0  0  0  0
   49.8104   11.7122   19.9243 H   0  0  0  0  0  0  0  0  0  0  0  0
   47.7875    9.0407   18.7760 H   0  0  0  0  0  0  0  0  0  0  0  0
   48.1729    8.3943   20.3897 H   0  0  0  0  0  0  0  0  0  0  0  0
   49.3858    7.4881   18.5263 H   0  0  0  0  0  0  0  0  0  0  0  0
   49.5701   11.6427   22.4195 H   0  0  0  0  0  0  0  0  0  0  0  0
   49.5424    9.8776   22.3820 H   0  0  0  0  0  0  0  0  0  0  0  0
   46.3275   10.0854   20.5189 H   0  0  0  0  0  0  0  0  0  0  0  0
   47.3625   11.3004   19.7616 H   0  0  0  0  0  0  0  0  0  0  0  0
   50.2625    6.6953   16.5092 H   0  0  0  0  0  0  0  0  0  0  0  0
   51.3175    8.1108   16.3819 H   0  0  0  0  0  0  0  0  0  0  0  0
   52.8068    7.3161   18.0881 H   0  0  0  0  0  0  0  0  0  0  0  0
   52.5525    5.9581   17.0251 H   0  0  0  0  0  0  0  0  0  0  0  0
   51.2285    6.4726   19.6107 H   0  0  0  0  0  0  0  0  0  0  0  0
   50.3938    4.3355   19.6526 H   0  0  0  0  0  0  0  0  0  0  0  0
   49.8404    5.0565   18.1791 H   0  0  0  0  0  0  0  0  0  0  0  0
   51.6270    3.8199   16.8949 H   0  0  0  0  0  0  0  0  0  0  0  0
   53.3670    3.6765   18.7021 H   0  0  0  0  0  0  0  0  0  0  0  0
   52.2791    2.5620   19.6206 H   0  0  0  0  0  0  0  0  0  0  0  0
   50.8028    1.6977   17.5274 H   0  0  0  0  0  0  0  0  0  0  0  0
   54.1681    0.0790   16.3950 H   0  0  0  0  0  0  0  0  0  0  0  0
   54.5489    2.2129   20.1278 H   0  0  0  0  0  0  0  0  0  0  0  0
   56.3110   -1.0794   16.8581 H   0  0  0  0  0  0  0  0  0  0  0  0
   56.6603    1.0727   20.5646 H   0  0  0  0  0  0  0  0  0  0  0  0
   58.1779   -0.4209   19.7795 H   0  0  0  0  0  0  0  0  0  0  0  0
   51.2112    4.8830   20.2448 H   0  0  0  0  0  0  0  0  0  0  0  0
   52.0379    6.1946   17.5592 H   0  0  0  0  0  0  0  0  0  0  0  0
   48.8503    7.2940   19.6874 H   0  0  0  0  0  0  0  0  0  0  0  0
   54.3992    3.7853   18.1138 H   0  0  0  0  0  0  0  0  0  0  0  0
  3  7  1  0
  4  8  1  0
  5  9  1  0
  7 10  1  0
  9 11  1  0
 11 12  1  0
 12 13  1  0
 13 14  1  0
 14 15  1  0
 14 16  1  0
 15 17  1  0
 17 18  1  0
 18 19  2  0
 18 20  1  0
 19 21  1  0
 20 22  2  0
 21 23  2  0
 23 24  1  0
  8 10  1  0
 22 23  1  0
  1  2  1  0
  1  3  1  0
  1  4  1  0
  2  5  1  0
  2  6  2  0
 27 31  1  0
 28 32  1  0
 29 33  1  0
 31 34  1  0
 33 35  1  0
 35 36  1  0
 36 37  1  0
 37 38  1  0
 38 39  1  0
 38 40  1  0
 39 41  1  0
 41 42  1  0
 42 43  2  0
 42 44  1  0
 43 45  1  0
 44 46  2  0
 45 47  2  0
 47 48  1  0
 32 34  1  0
 46 47  1  0
 25 26  1  0
 25 27  1  0
 25 28  1  0
 26 29  1  0
 26 30  2  0
 49 50  2  0
 49 54  1  0
 50 51  1  0
 51 52  1  0
 51 53  2  0
 54 55  1  0
 54 56  2  0
  3 57  1  0
  3 58  1  0
  4 59  1  0
  4 60  1  0
  5 61  1  0
  7 62  1  0
  7 63  1  0
  8 64  1  0
  8 65  1  0
  9 66  1  0
  9 67  1  0
 11 68  1  0
 11 69  1  0
 12 70  1  0
 13 71  1  0
 13 72  1  0
 14 73  1  1
 15 74  1  0
 15 75  1  0
 16 76  1  0
 19 77  1  0
 20 78  1  0
 21 79  1  0
 22 80  1  0
 24 81  1  0
 27 82  1  0
 27 83  1  0
 28 84  1  0
 28 85  1  0
 29 86  1  0
 31 87  1  0
 31 88  1  0
 32 89  1  0
 32 90  1  0
 33 91  1  0
 33 92  1  0
 35 93  1  0
 35 94  1  0
 36 95  1  0
 37 96  1  0
 37 97  1  0
 38 98  1  1
 39 99  1  0
 39100  1  0
 40101  1  0
 43102  1  0
 44103  1  0
 45104  1  0
 46105  1  0
 48106  1  0
 49107  1  0
 50108  1  0
 52109  1  0
 55110  1  0
M  END
> <Uni-Dock RESULT> 
ENERGY=   -4.300  LOWER_BOUND=    7.235  UPPER_BOUND=    9.628
INTER + INTRA:          -4.300
INTER:                  -4.300
INTRA:                   0.000
UNBOUND:                 0.000

$$$$

     RDKit          3D

110111  0  0  0  0  0  0  0  0999 V2000
   48.8343    6.3026   19.3659 N   0  0  0  0  0  0  0  0  0  0  0  0
   50.0824    6.9090   19.3602 C   0  0  0  0  0  0  0  0  0  0  0  0
   48.6781    4.8463   19.4693 C   0  0  0  0  0  0  0  0  0  0  0  0
   47.7505    7.0217   20.0403 C   0  0  0  0  0  0  0  0  0  0  0  0
   51.0562    6.1760   18.7351 N   0  0  0  0  0  0  0  0  0  0  0  0
   50.2984    8.0097   19.8579 O   0  0  0  0  0  0  0  0  0  0  0  0
   48.5639    4.4472   20.9484 C   0  0  0  0  0  0  0  0  0  0  0  0
   47.6559    6.5712   21.5027 C   0  0  0  0  0  0  0  0  0  0  0  0
   52.4137    6.6837   18.6171 C   0  0  0  0  0  0  0  0  0  0  0  0
   47.4760    5.1423   21.5850 O   0  0  0  0  0  0  0  0  0  0  0  0
   52.5387    7.8187   17.5839 C   0  0  0  0  0  0  0  0  0  0  0  0
   53.9236    8.1869   17.2612 N   0  0  0  0  0  0  0  0  0  0  0  0
   54.6325    7.1417   16.5062 C   0  0  0  0  0  0  0  0  0  0  0  0
   55.8855    7.7285   15.8201 C   0  0  1  0  0  0  0  0  0  0  0  0
   56.7205    6.6402   15.1290 C   0  0  0  0  0  0  0  0  0  0  0  0
   55.4792    8.7197   14.8623 O   0  0  0  0  0  0  0  0  0  0  0  0
   55.9155    5.8666   14.2338 O   0  0  0  0  0  0  0  0  0  0  0  0
   56.0744    6.0327   12.8873 C   0  0  0  0  0  0  0  0  0  0  0  0
   56.6529    7.1335   12.2524 C   0  0  0  0  0  0  0  0  0  0  0  0
   55.5561    4.9906   12.1122 C   0  0  0  0  0  0  0  0  0  0  0  0
   56.7344    7.1772   10.8563 C   0  0  0  0  0  0  0  0  0  0  0  0
   55.6372    5.0310   10.7207 C   0  0  0  0  0  0  0  0  0  0  0  0
   56.2290    6.1235   10.1027 C   0  0  0  0  0  0  0  0  0  0  0  0
   56.2909    6.1285    8.7415 O   0  0  0  0  0  0  0  0  0  0  0  0
   54.3755    7.2498   12.1733 N   0  0  0  0  0  0  0  0  0  0  0  0
   53.8086    8.0533   13.1397 C   0  0  0  0  0  0  0  0  0  0  0  0
   53.6903    7.0972   10.8892 C   0  0  0  0  0  0  0  0  0  0  0  0
   55.7094    6.6484   12.2478 C   0  0  0  0  0  0  0  0  0  0  0  0
   54.4590    8.0402   14.3470 N   0  0  0  0  0  0  0  0  0  0  0  0
   52.7959    8.7196   12.9449 O   0  0  0  0  0  0  0  0  0  0  0  0
   54.0476    5.7588   10.2357 C   0  0  0  0  0  0  0  0  0  0  0  0
   56.2868    6.3911   10.8525 C   0  0  0  0  0  0  0  0  0  0  0  0
   53.9183    8.7575   15.4915 C   0  0  0  0  0  0  0  0  0  0  0  0
   55.4564    5.5460   10.0477 O   0  0  0  0  0  0  0  0  0  0  0  0
   52.6637    8.0869   16.0894 C   0  0  0  0  0  0  0  0  0  0  0  0
   52.7388    6.6217   16.2333 N   0  0  0  0  0  0  0  0  0  0  0  0
   53.7368    6.1611   17.2012 C   0  0  0  0  0  0  0  0  0  0  0  0
   53.4168    6.4501   18.6781 C   0  0  1  0  0  0  0  0  0  0  0  0
   52.0746    5.8444   19.1106 C   0  0  0  0  0  0  0  0  0  0  0  0
   54.4749    5.8972   19.4787 O   0  0  0  0  0  0  0  0  0  0  0  0
   51.9028    6.1432   20.5043 O   0  0  0  0  0  0  0  0  0  0  0  0
   50.6859    5.8380   21.0513 C   0  0  0  0  0  0  0  0  0  0  0  0
   50.4844    6.3325   22.3429 C   0  0  0  0  0  0  0  0  0  0  0  0
   49.6760    5.0937   20.4372 C   0  0  0  0  0  0  0  0  0  0  0  0
   49.2831    6.0974   23.0131 C   0  0  0  0  0  0  0  0  0  0  0  0
   48.4683    4.8606   21.1061 C   0  0  0  0  0  0  0  0  0  0  0  0
   48.2810    5.3676   22.3879 C   0  0  0  0  0  0  0  0  0  0  0  0
   47.1192    5.1683   23.0716 O   0  0  0  0  0  0  0  0  0  0  0  0
   52.5404    5.9779   16.7717 C   0  0  0  0  0  0  0  0  0  0  0  0
   53.0614    7.0895   16.2340 C   0  0  0  0  0  0  0  0  0  0  0  0
   54.1112    7.0666   15.2104 C   0  0  0  0  0  0  0  0  0  0  0  0
   54.4862    5.8324   14.8453 O   0  0  0  0  0  0  0  0  0  0  0  0
   54.6111    8.0594   14.7141 O   0  0  0  0  0  0  0  0  0  0  0  0
   51.4972    6.0033   17.7991 C   0  0  0  0  0  0  0  0  0  0  0  0
   51.1094    7.2372   18.1497 O   0  0  0  0  0  0  0  0  0  0  0  0
   51.0074    5.0106   18.3047 O   0  0  0  0  0  0  0  0  0  0  0  0
   49.5039    4.3044   19.0011 H   0  0  0  0  0  0  0  0  0  0  0  0
   47.7545    4.5871   18.9377 H   0  0  0  0  0  0  0  0  0  0  0  0
   47.8987    8.1034   19.9750 H   0  0  0  0  0  0  0  0  0  0  0  0
   46.8247    6.7738   19.5100 H   0  0  0  0  0  0  0  0  0  0  0  0
   50.7228    5.6215   17.9603 H   0  0  0  0  0  0  0  0  0  0  0  0
   48.3666    3.3737   21.0283 H   0  0  0  0  0  0  0  0  0  0  0  0
   49.4915    4.6660   21.4917 H   0  0  0  0  0  0  0  0  0  0  0  0
   48.5517    6.8491   22.0697 H   0  0  0  0  0  0  0  0  0  0  0  0
   46.7910    7.0390   21.9816 H   0  0  0  0  0  0  0  0  0  0  0  0
   52.7459    7.0321   19.6025 H   0  0  0  0  0  0  0  0  0  0  0  0
   53.0267    5.8223   18.3350 H   0  0  0  0  0  0  0  0  0  0  0  0
   51.9984    7.5604   16.6643 H   0  0  0  0  0  0  0  0  0  0  0  0
   52.0420    8.7119   17.9801 H   0  0  0  0  0  0  0  0  0  0  0  0
   53.9203    9.0414   16.6946 H   0  0  0  0  0  0  0  0  0  0  0  0
   53.9633    6.7319   15.7405 H   0  0  0  0  0  0  0  0  0  0  0  0
   54.9327    6.3352   17.1832 H   0  0  0  0  0  0  0  0  0  0  0  0
   56.5146    8.2377   16.5604 H   0  0  0  0  0  0  0  0  0  0  0  0
   57.0891    5.9428   15.8915 H   0  0  0  0  0  0  0  0  0  0  0  0
   57.6121    7.0586   14.6499 H   0  0  0  0  0  0  0  0  0  0  0  0
   54.9023    8.2639   14.2203 H   0  0  0  0  0  0  0  0  0  0  0  0
   57.0360    7.9835   12.8093 H   0  0  0  0  0  0  0  0  0  0  0  0
   55.0939    4.1348   12.5972 H   0  0  0  0  0  0  0  0  0  0  0  0
   57.1901    8.0393   10.3793 H   0  0  0  0  0  0  0  0  0  0  0  0
   55.2430    4.2126   10.1249 H   0  0  0  0  0  0  0  0  0  0  0  0
   56.7415    6.9388    8.4530 H   0  0  0  0  0  0  0  0  0  0  0  0
   52.6069    7.1740   11.0283 H   0  0  0  0  0  0  0  0  0  0  0  0
   54.0141    7.9322   10.2562 H   0  0  0  0  0  0  0  0  0  0  0  0
   56.3818    7.3008   12.8141 H   0  0  0  0  0  0  0  0  0  0  0  0
   55.5979    5.7023   12.7910 H   0  0  0  0  0  0  0  0  0  0  0  0
   54.9774    7.2031   14.5594 H   0  0  0  0  0  0  0  0  0  0  0  0
   53.5674    5.6767    9.2553 H   0  0  0  0  0  0  0  0  0  0  0  0
   53.6770    4.9306   10.8520 H   0  0  0  0  0  0  0  0  0  0  0  0
   57.2667    5.9090   10.9326 H   0  0  0  0  0  0  0  0  0  0  0  0
   56.4284    7.3354   10.3131 H   0  0  0  0  0  0  0  0  0  0  0  0
   54.7176    8.8107   16.2369 H   0  0  0  0  0  0  0  0  0  0  0  0
   53.6799    9.7813   15.1815 H   0  0  0  0  0  0  0  0  0  0  0  0
   51.8158    8.2891   15.4249 H   0  0  0  0  0  0  0  0  0  0  0  0
   52.4061    8.5616   17.0423 H   0  0  0  0  0  0  0  0  0  0  0  0
   52.9523    6.2359   15.3116 H   0  0  0  0  0  0  0  0  0  0  0  0
   53.8312    5.0740   17.0846 H   0  0  0  0  0  0  0  0  0  0  0  0
   54.7353    6.5449   16.9568 H   0  0  0  0  0  0  0  0  0  0  0  0
   53.4192    7.5283   18.8729 H   0  0  0  0  0  0  0  0  0  0  0  0
   51.2598    6.2904   18.5286 H   0  0  0  0  0  0  0  0  0  0  0  0
   52.1008    4.7557   18.9832 H   0  0  0  0  0  0  0  0  0  0  0  0
   54.1264    5.8616   20.3912 H   0  0  0  0  0  0  0  0  0  0  0  0
   51.2671    6.9058   22.8330 H   0  0  0  0  0  0  0  0  0  0  0  0
   49.7952    4.6795   19.4404 H   0  0  0  0  0  0  0  0  0  0  0  0
   49.1287    6.4848   24.0156 H   0  0  0  0  0  0  0  0  0  0  0  0
   47.6935    4.2821   20.6126 H   0  0  0  0  0  0  0  0  0  0  0  0
   46.5104    4.6575   22.5126 H   0  0  0  0  0  0  0  0  0  0  0  0
   52.8615    4.9849   16.4761 H   0  0  0  0  0  0  0  0  0  0  0  0
   52.7453    8.0832   16.5305 H   0  0  0  0  0  0  0  0  0  0  0  0
   55.1835    5.9862   14.1733 H   0  0  0  0  0  0  0  0  0  0  0  0
   50.4235    7.0851   18.8330 H   0  0  0  0  0  0  0  0  0  0  0  0
  3  7  1  0
  4  8  1  0
  5  9  1  0
  7 10  1  0
  9 11  1  0
 11 12  1  0
 12 13  1  0
 13 14  1  0
 14 15  1  0
 14 16  1  0
 15 17  1  0
 17 18  1  0
 18 19  2  0
 18 20  1  0
 19 21  1  0
 20 22  2  0
 21 23  2  0
 23 24  1  0
  8 10  1  0
 22 23  1  0
  1  2  1  0
  1  3  1  0
  1  4  1  0
  2  5  1  0
  2  6  2  0
 27 31  1  0
 28 32  1  0
 29 33  1  0
 31 34  1  0
 33 35  1  0
 35 36  1  0
 36 37  1  0
 37 38  1  0
 38 39  1  0
 38 40  1  0
 39 41  1  0
 41 42  1  0
 42 43  2  0
 42 44  1  0
 43 45  1  0
 44 46  2  0
 45 47  2  0
 47 48  1  0
 32 34  1  0
 46 47  1  0
 25 26  1  0
 25 27  1  0
 25 28  1  0
 26 29  1  0
 26 30  2  0
 49 50  2  0
 49 54  1  0
 50 51  1  0
 51 52  1  0
 51 53  2  0
 54 55  1  0
 54 56  2  0
  3 57  1  0
  3 58  1  0
  4 59  1  0
  4 60  1  0
  5 61  1  0
  7 62  1  0
  7 63  1  0
  8 64  1  0
  8 65  1  0
  9 66  1  0
  9 67  1  0
 11 68  1  0
 11 69  1  0
 12 70  1  0
 13 71  1  0
 13 72  1  0
 14 73  1  1
 15 74  1  0
 15 75  1  0
 16 76  1  0
 19 77  1  0
 20 78  1  0
 21 79  1  0
 22 80  1  0
 24 81  1  0
 27 82  1  0
 27 83  1  0
 28 84  1  0
 28 85  1  0
 29 86  1  0
 31 87  1  0
 31 88  1  0
 32 89  1  0
 32 90  1  0
 33 91  1  0
 33 92  1  0
 35 93  1  0
 35 94  1  0
 36 95  1  0
 37 96  1  0
 37 97  1  0
 38 98  1  1
 39 99  1  0
 39100  1  0
 40101  1  0
 43102  1  0
 44103  1  0
 45104  1  0
 46105  1  0
 48106  1  0
 49107  1  0
 50108  1  0
 52109  1  0
 55110  1  0
M  END
> <Uni-Dock RESULT> 
ENERGY=   -4.234  LOWER_BOUND=    5.798  UPPER_BOUND=   10.213
INTER + INTRA:          -4.234
INTER:                  -4.234
INTRA:                   0.000
UNBOUND:                 0.000

$$$$

     RDKit          3D

110111  0  0  0  0  0  0  0  0999 V2000
   48.6979    8.3843   20.9349 N   0  0  0  0  0  0  0  0  0  0  0  0
   49.4719    8.1651   19.8043 C   0  0  0  0  0  0  0  0  0  0  0  0
   47.3925    7.7383   21.1204 C   0  0  0  0  0  0  0  0  0  0  0  0
   49.4106    8.5594   22.2029 C   0  0  0  0  0  0  0  0  0  0  0  0
   48.7455    7.9863   18.6568 N   0  0  0  0  0  0  0  0  0  0  0  0
   50.6987    8.1448   19.8218 O   0  0  0  0  0  0  0  0  0  0  0  0
   47.5816    6.4032   21.8565 C   0  0  0  0  0  0  0  0  0  0  0  0
   49.5505    7.2084   22.9141 C   0  0  0  0  0  0  0  0  0  0  0  0
   49.4069    7.7743   17.3791 C   0  0  0  0  0  0  0  0  0  0  0  0
   48.2574    6.6005   23.1120 O   0  0  0  0  0  0  0  0  0  0  0  0
   50.0572    9.0551   16.8241 C   0  0  0  0  0  0  0  0  0  0  0  0
   50.5184    8.9403   15.4341 N   0  0  0  0  0  0  0  0  0  0  0  0
   49.4112    8.8368   14.4706 C   0  0  0  0  0  0  0  0  0  0  0  0
   49.9058    9.1635   13.0444 C   0  0  1  0  0  0  0  0  0  0  0  0
   48.8073    8.9405   11.9941 C   0  0  0  0  0  0  0  0  0  0  0  0
   50.3581   10.5267   13.0019 O   0  0  0  0  0  0  0  0  0  0  0  0
   47.6153    9.6533   12.3390 O   0  0  0  0  0  0  0  0  0  0  0  0
   47.2747   10.7632   11.6193 C   0  0  0  0  0  0  0  0  0  0  0  0
   48.1307   11.5284   10.8247 C   0  0  0  0  0  0  0  0  0  0  0  0
   45.9386   11.1522   11.7563 C   0  0  0  0  0  0  0  0  0  0  0  0
   47.6462   12.6566   10.1538 C   0  0  0  0  0  0  0  0  0  0  0  0
   45.4527   12.2754   11.0879 C   0  0  0  0  0  0  0  0  0  0  0  0
   46.3101   13.0181   10.2884 C   0  0  0  0  0  0  0  0  0  0  0  0
   45.8005   14.1088    9.6501 O   0  0  0  0  0  0  0  0  0  0  0  0
   47.7895   12.5237   12.8494 N   0  0  0  0  0  0  0  0  0  0  0  0
   48.7856   12.2963   13.7751 C   0  0  0  0  0  0  0  0  0  0  0  0
   47.0307   13.7732   12.9194 C   0  0  0  0  0  0  0  0  0  0  0  0
   47.5180   11.6901   11.6756 C   0  0  0  0  0  0  0  0  0  0  0  0
   49.3585   11.0524   13.7036 N   0  0  0  0  0  0  0  0  0  0  0  0
   49.1280   13.1318   14.6071 O   0  0  0  0  0  0  0  0  0  0  0  0
   45.6335   13.5975   12.3171 C   0  0  0  0  0  0  0  0  0  0  0  0
   46.8521   12.4971   10.5569 C   0  0  0  0  0  0  0  0  0  0  0  0
   50.3502   10.6325   14.6819 C   0  0  0  0  0  0  0  0  0  0  0  0
   45.6257   13.1153   10.9633 O   0  0  0  0  0  0  0  0  0  0  0  0
   49.7456   10.3427   16.0718 C   0  0  0  0  0  0  0  0  0  0  0  0
   48.4900    9.5704   16.0656 N   0  0  0  0  0  0  0  0  0  0  0  0
   48.6293    8.1965   15.5776 C   0  0  0  0  0  0  0  0  0  0  0  0
   49.4024    7.2367   16.4986 C   0  0  1  0  0  0  0  0  0  0  0  0
   48.7766    7.1438   17.8968 C   0  0  0  0  0  0  0  0  0  0  0  0
   49.4047    5.9369   15.8848 O   0  0  0  0  0  0  0  0  0  0  0  0
   49.5534    6.1988   18.6483 O   0  0  0  0  0  0  0  0  0  0  0  0
   49.2665    6.0921   19.9823 C   0  0  0  0  0  0  0  0  0  0  0  0
   50.1753    5.3256   20.7168 C   0  0  0  0  0  0  0  0  0  0  0  0
   48.1719    6.6669   20.6325 C   0  0  0  0  0  0  0  0  0  0  0  0
   50.0022    5.1422   22.0894 C   0  0  0  0  0  0  0  0  0  0  0  0
   47.9989    6.4878   22.0103 C   0  0  0  0  0  0  0  0  0  0  0  0
   48.9180    5.7291   22.7278 C   0  0  0  0  0  0  0  0  0  0  0  0
   48.7896    5.5347   24.0705 O   0  0  0  0  0  0  0  0  0  0  0  0
   48.0795    8.9322   16.4754 C   0  0  0  0  0  0  0  0  0  0  0  0
   48.9722    9.6448   15.7742 C   0  0  0  0  0  0  0  0  0  0  0  0
   48.7480   10.0655   14.3875 C   0  0  0  0  0  0  0  0  0  0  0  0
   47.5595    9.6918   13.8925 O   0  0  0  0  0  0  0  0  0  0  0  0
   49.5454   10.7017   13.7232 O   0  0  0  0  0  0  0  0  0  0  0  0
   48.3086    8.5069   17.8577 C   0  0  0  0  0  0  0  0  0  0  0  0
   49.4889    8.8973   18.3581 O   0  0  0  0  0  0  0  0  0  0  0  0
   47.5167    7.8592   18.5169 O   0  0  0  0  0  0  0  0  0  0  0  0
   46.8724    7.5701   20.1738 H   0  0  0  0  0  0  0  0  0  0  0  0
   46.7843    8.4194   21.7279 H   0  0  0  0  0  0  0  0  0  0  0  0
   50.3906    9.0174   22.0409 H   0  0  0  0  0  0  0  0  0  0  0  0
   48.8127    9.2452   22.8129 H   0  0  0  0  0  0  0  0  0  0  0  0
   47.8842    8.5117   18.6267 H   0  0  0  0  0  0  0  0  0  0  0  0
   46.6058    5.9558   22.0691 H   0  0  0  0  0  0  0  0  0  0  0  0
   48.1586    5.6937   21.2504 H   0  0  0  0  0  0  0  0  0  0  0  0
   50.1842    6.5172   22.3468 H   0  0  0  0  0  0  0  0  0  0  0  0
   50.0005    7.3514   23.9007 H   0  0  0  0  0  0  0  0  0  0  0  0
   50.1630    6.9892   17.5004 H   0  0  0  0  0  0  0  0  0  0  0  0
   48.6310    7.3999   16.7045 H   0  0  0  0  0  0  0  0  0  0  0  0
   49.3701    9.9054   16.9191 H   0  0  0  0  0  0  0  0  0  0  0  0
   50.9271    9.3048   17.4424 H   0  0  0  0  0  0  0  0  0  0  0  0
   51.0718    9.7696   15.1947 H   0  0  0  0  0  0  0  0  0  0  0  0
   48.6230    9.5465   14.7479 H   0  0  0  0  0  0  0  0  0  0  0  0
   48.9981    7.8230   14.4890 H   0  0  0  0  0  0  0  0  0  0  0  0
   50.7669    8.5325   12.7924 H   0  0  0  0  0  0  0  0  0  0  0  0
   48.5384    7.8769   11.9873 H   0  0  0  0  0  0  0  0  0  0  0  0
   49.1636    9.1659   10.9832 H   0  0  0  0  0  0  0  0  0  0  0  0
   49.5929   11.0800   13.2488 H   0  0  0  0  0  0  0  0  0  0  0  0
   49.1842   11.2880   10.7166 H   0  0  0  0  0  0  0  0  0  0  0  0
   45.2676   10.5692   12.3817 H   0  0  0  0  0  0  0  0  0  0  0  0
   48.3248   13.2383    9.5378 H   0  0  0  0  0  0  0  0  0  0  0  0
   44.4108   12.5654   11.1894 H   0  0  0  0  0  0  0  0  0  0  0  0
   46.5041   14.5163    9.1193 H   0  0  0  0  0  0  0  0  0  0  0  0
   46.9560   14.1114   13.9582 H   0  0  0  0  0  0  0  0  0  0  0  0
   47.6006   14.5219   12.3559 H   0  0  0  0  0  0  0  0  0  0  0  0
   48.4493   11.2457   11.3101 H   0  0  0  0  0  0  0  0  0  0  0  0
   46.8518   10.8852   12.0089 H   0  0  0  0  0  0  0  0  0  0  0  0
   48.7783   10.3208   13.3260 H   0  0  0  0  0  0  0  0  0  0  0  0
   45.0931   14.5495   12.3317 H   0  0  0  0  0  0  0  0  0  0  0  0
   45.0548   12.8836   12.9158 H   0  0  0  0  0  0  0  0  0  0  0  0
   46.6260   11.8468    9.7055 H   0  0  0  0  0  0  0  0  0  0  0  0
   47.5236   13.2865   10.1981 H   0  0  0  0  0  0  0  0  0  0  0  0
   50.8320    9.7367   14.2783 H   0  0  0  0  0  0  0  0  0  0  0  0
   51.1128   11.4152   14.7647 H   0  0  0  0  0  0  0  0  0  0  0  0
   49.5172   11.3002   16.5539 H   0  0  0  0  0  0  0  0  0  0  0  0
   50.4958    9.8663   16.7122 H   0  0  0  0  0  0  0  0  0  0  0  0
   47.8243   10.0764   15.4783 H   0  0  0  0  0  0  0  0  0  0  0  0
   47.6186    7.7911   15.4425 H   0  0  0  0  0  0  0  0  0  0  0  0
   49.0644    8.1739   14.5705 H   0  0  0  0  0  0  0  0  0  0  0  0
   50.4529    7.5369   16.5796 H   0  0  0  0  0  0  0  0  0  0  0  0
   48.8065    8.1251   18.3843 H   0  0  0  0  0  0  0  0  0  0  0  0
   47.7478    6.7728   17.8188 H   0  0  0  0  0  0  0  0  0  0  0  0
   49.6611    5.3108   16.5901 H   0  0  0  0  0  0  0  0  0  0  0  0
   51.0259    4.8671   20.2189 H   0  0  0  0  0  0  0  0  0  0  0  0
   47.4344    7.2585   20.0984 H   0  0  0  0  0  0  0  0  0  0  0  0
   50.7113    4.5480   22.6577 H   0  0  0  0  0  0  0  0  0  0  0  0
   47.1439    6.9438   22.4996 H   0  0  0  0  0  0  0  0  0  0  0  0
   48.0008    6.0090   24.3816 H   0  0  0  0  0  0  0  0  0  0  0  0
   47.1260    8.6255   16.0587 H   0  0  0  0  0  0  0  0  0  0  0  0
   49.9274    9.9491   16.1867 H   0  0  0  0  0  0  0  0  0  0  0  0
   47.5665   10.0370   12.9747 H   0  0  0  0  0  0  0  0  0  0  0  0
   49.4898    8.5392   19.2703 H   0  0  0  0  0  0  0  0  0  0  0  0
  3  7  1  0
  4  8  1  0
  5  9  1  0
  7 10  1  0
  9 11  1  0
 11 12  1  0
 12 13  1  0
 13 14  1  0
 14 15  1  0
 14 16  1  0
 15 17  1  0
 17 18  1  0
 18 19  2  0
 18 20  1  0
 19 21  1  0
 20 22  2  0
 21 23  2  0
 23 24  1  0
  8 10  1  0
 22 23  1  0
  1  2  1  0
  1  3  1  0
  1  4  1  0
  2  5  1  0
  2  6  2  0
 27 31  1  0
 28 32  1  0
 29 33  1  0
 31 34  1  0
 33 35  1  0
 35 36  1  0
 36 37  1  0
 37 38  1  0
 38 39  1  0
 38 40  1  0
 39 41  1  0
 41 42  1  0
 42 43  2  0
 42 44  1  0
 43 45  1  0
 44 46  2  0
 45 47  2  0
 47 48  1  0
 32 34  1  0
 46 47  1  0
 25 26  1  0
 25 27  1  0
 25 28  1  0
 26 29  1  0
 26 30  2  0
 49 50  2  0
 49 54  1  0
 50 51  1  0
 51 52  1  0
 51 53  2  0
 54 55  1  0
 54 56  2  0
  3 57  1  0
  3 58  1  0
  4 59  1  0
  4 60  1  0
  5 61  1  0
  7 62  1  0
  7 63  1  0
  8 64  1  0
  8 65  1  0
  9 66  1  0
  9 67  1  0
 11 68  1  0
 11 69  1  0
 12 70  1  0
 13 71  1  0
 13 72  1  0
 14 73  1  1
 15 74  1  0
 15 75  1  0
 16 76  1  0
 19 77  1  0
 20 78  1  0
 21 79  1  0
 22 80  1  0
 24 81  1  0
 27 82  1  0
 27 83  1  0
 28 84  1  0
 28 85  1  0
 29 86  1  0
 31 87  1  0
 31 88  1  0
 32 89  1  0
 32 90  1  0
 33 91  1  0
 33 92  1  0
 35 93  1  0
 35 94  1  0
 36 95  1  0
 37 96  1  0
 37 97  1  0
 38 98  1  1
 39 99  1  0
 39100  1  0
 40101  1  0
 43102  1  0
 44103  1  0
 45104  1  0
 46105  1  0
 48106  1  0
 49107  1  0
 50108  1  0
 52109  1  0
 55110  1  0
M  END
> <Uni-Dock RESULT> 
ENERGY=   -4.110  LOWER_BOUND=    5.009  UPPER_BOUND=    8.720
INTER + INTRA:          -4.110
INTER:                  -4.110
INTRA:                   0.000
UNBOUND:                 0.000

$$$$

     RDKit          3D

110111  0  0  0  0  0  0  0  0999 V2000
   53.1203    7.3704    8.3876 N   0  0  0  0  0  0  0  0  0  0  0  0
   52.6483    7.2232    9.6842 C   0  0  0  0  0  0  0  0  0  0  0  0
   54.3116    8.1717    8.0804 C   0  0  0  0  0  0  0  0  0  0  0  0
   52.9918    6.2123    7.4995 C   0  0  0  0  0  0  0  0  0  0  0  0
   52.8188    8.3324   10.4695 N   0  0  0  0  0  0  0  0  0  0  0  0
   52.1131    6.1975   10.0934 O   0  0  0  0  0  0  0  0  0  0  0  0
   55.5584    7.2754    8.1293 C   0  0  0  0  0  0  0  0  0  0  0  0
   54.2676    5.3643    7.5594 C   0  0  0  0  0  0  0  0  0  0  0  0
   52.3519    8.3521   11.8466 C   0  0  0  0  0  0  0  0  0  0  0  0
   55.4244    6.1602    7.2291 O   0  0  0  0  0  0  0  0  0  0  0  0
   50.8191    8.4524   11.9556 C   0  0  0  0  0  0  0  0  0  0  0  0
   50.3303    8.7196   13.3148 N   0  0  0  0  0  0  0  0  0  0  0  0
   50.6597   10.0743   13.7853 C   0  0  0  0  0  0  0  0  0  0  0  0
   49.7712   10.4574   14.9891 C   0  0  1  0  0  0  0  0  0  0  0  0
   50.1745   11.8133   15.5877 C   0  0  0  0  0  0  0  0  0  0  0  0
   48.3973   10.4936   14.5697 O   0  0  0  0  0  0  0  0  0  0  0  0
   50.2044   12.8302   14.5812 O   0  0  0  0  0  0  0  0  0  0  0  0
   49.2220   13.7791   14.5679 C   0  0  0  0  0  0  0  0  0  0  0  0
   47.9685   13.6803   15.1748 C   0  0  0  0  0  0  0  0  0  0  0  0
   49.5358   14.9242   13.8292 C   0  0  0  0  0  0  0  0  0  0  0  0
   47.0492   14.7292   15.0643 C   0  0  0  0  0  0  0  0  0  0  0  0
   48.6220   15.9717   13.7185 C   0  0  0  0  0  0  0  0  0  0  0  0
   47.3856   15.8676   14.3400 C   0  0  0  0  0  0  0  0  0  0  0  0
   46.5183   16.9106   14.2106 O   0  0  0  0  0  0  0  0  0  0  0  0
   47.8277   13.2543   12.9377 N   0  0  0  0  0  0  0  0  0  0  0  0
   47.8193   11.9154   12.6084 C   0  0  0  0  0  0  0  0  0  0  0  0
   47.1308   14.2013   12.0662 C   0  0  0  0  0  0  0  0  0  0  0  0
   48.3402   13.8150   14.1904 C   0  0  0  0  0  0  0  0  0  0  0  0
   48.5954   11.1239   13.4158 N   0  0  0  0  0  0  0  0  0  0  0  0
   47.1802   11.4640   11.6622 O   0  0  0  0  0  0  0  0  0  0  0  0
   47.7511   15.5977   12.1714 C   0  0  0  0  0  0  0  0  0  0  0  0
   47.6544   15.1411   14.5329 C   0  0  0  0  0  0  0  0  0  0  0  0
   48.7666    9.7082   13.1274 C   0  0  0  0  0  0  0  0  0  0  0  0
   47.7969   16.1292   13.5059 O   0  0  0  0  0  0  0  0  0  0  0  0
   49.6639    9.4440   11.9000 C   0  0  0  0  0  0  0  0  0  0  0  0
   50.8879   10.2621   11.8249 N   0  0  0  0  0  0  0  0  0  0  0  0
   51.8583    9.9948   12.8888 C   0  0  0  0  0  0  0  0  0  0  0  0
   52.5715    8.6335   12.8146 C   0  0  1  0  0  0  0  0  0  0  0  0
   53.3137    8.4388   11.4853 C   0  0  0  0  0  0  0  0  0  0  0  0
   53.5072    8.5619   13.9034 O   0  0  0  0  0  0  0  0  0  0  0  0
   53.9666    7.1616   11.5463 O   0  0  0  0  0  0  0  0  0  0  0  0
   54.5491    6.7150   10.3911 C   0  0  0  0  0  0  0  0  0  0  0  0
   54.9861    5.3882   10.4311 C   0  0  0  0  0  0  0  0  0  0  0  0
   54.7346    7.4628    9.2259 C   0  0  0  0  0  0  0  0  0  0  0  0
   55.5925    4.8070    9.3166 C   0  0  0  0  0  0  0  0  0  0  0  0
   55.3388    6.8802    8.1052 C   0  0  0  0  0  0  0  0  0  0  0  0
   55.7598    5.5555    8.1593 C   0  0  0  0  0  0  0  0  0  0  0  0
   56.3472    4.9490    7.0896 O   0  0  0  0  0  0  0  0  0  0  0  0
   51.7270   10.2182   11.6309 C   0  0  0  0  0  0  0  0  0  0  0  0
   50.5268   10.0284   12.1963 C   0  0  0  0  0  0  0  0  0  0  0  0
   49.8956   11.0115   13.0824 C   0  0  0  0  0  0  0  0  0  0  0  0
   50.6183   12.1270   13.2575 O   0  0  0  0  0  0  0  0  0  0  0  0
   48.8135   10.8604   13.6190 O   0  0  0  0  0  0  0  0  0  0  0  0
   52.3588    9.2318   10.7520 C   0  0  0  0  0  0  0  0  0  0  0  0
   51.6271    8.1253   10.5623 O   0  0  0  0  0  0  0  0  0  0  0  0
   53.4467    9.3776   10.2266 O   0  0  0  0  0  0  0  0  0  0  0  0
   54.4339    9.0156    8.7642 H   0  0  0  0  0  0  0  0  0  0  0  0
   54.1745    8.5697    7.0677 H   0  0  0  0  0  0  0  0  0  0  0  0
   52.1141    5.6142    7.7609 H   0  0  0  0  0  0  0  0  0  0  0  0
   52.8467    6.6020    6.4861 H   0  0  0  0  0  0  0  0  0  0  0  0
   52.7559    9.2068    9.9690 H   0  0  0  0  0  0  0  0  0  0  0  0
   56.4389    7.8483    7.8226 H   0  0  0  0  0  0  0  0  0  0  0  0
   55.7342    6.8943    9.1429 H   0  0  0  0  0  0  0  0  0  0  0  0
   54.4126    4.9226    8.5519 H   0  0  0  0  0  0  0  0  0  0  0  0
   54.2094    4.5513    6.8300 H   0  0  0  0  0  0  0  0  0  0  0  0
   52.7077    7.4459   12.3516 H   0  0  0  0  0  0  0  0  0  0  0  0
   52.8391    9.2151   12.3103 H   0  0  0  0  0  0  0  0  0  0  0  0
   50.4353    9.2144   11.2656 H   0  0  0  0  0  0  0  0  0  0  0  0
   50.3798    7.5038   11.6259 H   0  0  0  0  0  0  0  0  0  0  0  0
   49.3103    8.6167   13.3308 H   0  0  0  0  0  0  0  0  0  0  0  0
   50.4905   10.7904   12.9727 H   0  0  0  0  0  0  0  0  0  0  0  0
   51.7127   10.1171   14.0823 H   0  0  0  0  0  0  0  0  0  0  0  0
   49.8474    9.6912   15.7704 H   0  0  0  0  0  0  0  0  0  0  0  0
   51.1975   11.7355   15.9765 H   0  0  0  0  0  0  0  0  0  0  0  0
   49.5474   12.0785   16.4456 H   0  0  0  0  0  0  0  0  0  0  0  0
   48.3422   11.1612   13.8598 H   0  0  0  0  0  0  0  0  0  0  0  0
   47.6647   12.7963   15.7278 H   0  0  0  0  0  0  0  0  0  0  0  0
   50.5049   15.0053   13.3439 H   0  0  0  0  0  0  0  0  0  0  0  0
   46.0803   14.6369   15.5452 H   0  0  0  0  0  0  0  0  0  0  0  0
   48.8766   16.8634   13.1528 H   0  0  0  0  0  0  0  0  0  0  0  0
   45.7090   16.7064   14.7069 H   0  0  0  0  0  0  0  0  0  0  0  0
   47.1593   13.8509   11.0292 H   0  0  0  0  0  0  0  0  0  0  0  0
   46.0839   14.2205   12.3923 H   0  0  0  0  0  0  0  0  0  0  0  0
   48.1953   13.0996   15.0063 H   0  0  0  0  0  0  0  0  0  0  0  0
   49.4162   13.9718   14.0476 H   0  0  0  0  0  0  0  0  0  0  0  0
   49.3774   11.5786   13.8587 H   0  0  0  0  0  0  0  0  0  0  0  0
   47.1925   16.3071   11.5523 H   0  0  0  0  0  0  0  0  0  0  0  0
   48.7821   15.5784   11.7977 H   0  0  0  0  0  0  0  0  0  0  0  0
   48.0782   15.5589   15.4520 H   0  0  0  0  0  0  0  0  0  0  0  0
   46.5822   14.9879   14.7055 H   0  0  0  0  0  0  0  0  0  0  0  0
   49.1986    9.2534   14.0240 H   0  0  0  0  0  0  0  0  0  0  0  0
   47.7785    9.2620   12.9677 H   0  0  0  0  0  0  0  0  0  0  0  0
   49.0857    9.6690   10.9964 H   0  0  0  0  0  0  0  0  0  0  0  0
   49.9012    8.3766   11.8351 H   0  0  0  0  0  0  0  0  0  0  0  0
   50.6016   11.2422   11.8611 H   0  0  0  0  0  0  0  0  0  0  0  0
   52.6247   10.7786   12.8398 H   0  0  0  0  0  0  0  0  0  0  0  0
   51.4069   10.1225   13.8808 H   0  0  0  0  0  0  0  0  0  0  0  0
   51.8616    7.8135   12.9687 H   0  0  0  0  0  0  0  0  0  0  0  0
   52.5994    8.4550   10.6540 H   0  0  0  0  0  0  0  0  0  0  0  0
   54.0745    9.2194   11.3676 H   0  0  0  0  0  0  0  0  0  0  0  0
   54.1133    7.8271   13.6845 H   0  0  0  0  0  0  0  0  0  0  0  0
   54.8540    4.8001   11.3357 H   0  0  0  0  0  0  0  0  0  0  0  0
   54.4227    8.5006    9.1556 H   0  0  0  0  0  0  0  0  0  0  0  0
   55.9288    3.7752    9.3501 H   0  0  0  0  0  0  0  0  0  0  0  0
   55.4726    7.4755    7.2073 H   0  0  0  0  0  0  0  0  0  0  0  0
   56.3872    5.5820    6.3536 H   0  0  0  0  0  0  0  0  0  0  0  0
   52.3074   11.1207   11.7906 H   0  0  0  0  0  0  0  0  0  0  0  0
   49.9466    9.1258   12.0416 H   0  0  0  0  0  0  0  0  0  0  0  0
   50.0734   12.6686   13.8667 H   0  0  0  0  0  0  0  0  0  0  0  0
   52.1778    7.5761    9.9661 H   0  0  0  0  0  0  0  0  0  0  0  0
  3  7  1  0
  4  8  1  0
  5  9  1  0
  7 10  1  0
  9 11  1  0
 11 12  1  0
 12 13  1  0
 13 14  1  0
 14 15  1  0
 14 16  1  0
 15 17  1  0
 17 18  1  0
 18 19  2  0
 18 20  1  0
 19 21  1  0
 20 22  2  0
 21 23  2  0
 23 24  1  0
  8 10  1  0
 22 23  1  0
  1  2  1  0
  1  3  1  0
  1  4  1  0
  2  5  1  0
  2  6  2  0
 27 31  1  0
 28 32  1  0
 29 33  1  0
 31 34  1  0
 33 35  1  0
 35 36  1  0
 36 37  1  0
 37 38  1  0
 38 39  1  0
 38 40  1  0
 39 41  1  0
 41 42  1  0
 42 43  2  0
 42 44  1  0
 43 45  1  0
 44 46  2  0
 45 47  2  0
 47 48  1  0
 32 34  1  0
 46 47  1  0
 25 26  1  0
 25 27  1  0
 25 28  1  0
 26 29  1  0
 26 30  2  0
 49 50  2  0
 49 54  1  0
 50 51  1  0
 51 52  1  0
 51 53  2  0
 54 55  1  0
 54 56  2  0
  3 57  1  0
  3 58  1  0
  4 59  1  0
  4 60  1  0
  5 61  1  0
  7 62  1  0
  7 63  1  0
  8 64  1  0
  8 65  1  0
  9 66  1  0
  9 67  1  0
 11 68  1  0
 11 69  1  0
 12 70  1  0
 13 71  1  0
 13 72  1  0
 14 73  1  1
 15 74  1  0
 15 75  1  0
 16 76  1  0
 19 77  1  0
 20 78  1  0
 21 79  1  0
 22 80  1  0
 24 81  1  0
 27 82  1  0
 27 83  1  0
 28 84  1  0
 28 85  1  0
 29 86  1  0
 31 87  1  0
 31 88  1  0
 32 89  1  0
 32 90  1  0
 33 91  1  0
 33 92  1  0
 35 93  1  0
 35 94  1  0
 36 95  1  0
 37 96  1  0
 37 97  1  0
 38 98  1  1
 39 99  1  0
 39100  1  0
 40101  1  0
 43102  1  0
 44103  1  0
 45104  1  0
 46105  1  0
 48106  1  0
 49107  1  0
 50108  1  0
 52109  1  0
 55110  1  0
M  END
> <Uni-Dock RESULT> 
ENERGY=   -3.899  LOWER_BOUND=    4.217  UPPER_BOUND=    6.680
INTER + INTRA:          -3.899
INTER:                  -3.899
INTRA:                   0.000
UNBOUND:                 0.000

$$$$

     RDKit          3D

110111  0  0  0  0  0  0  0  0999 V2000
   49.8756    5.2164   18.2622 N   0  0  0  0  0  0  0  0  0  0  0  0
   49.0725    5.9906   17.4369 C   0  0  0  0  0  0  0  0  0  0  0  0
   50.8047    5.8164   19.2278 C   0  0  0  0  0  0  0  0  0  0  0  0
   49.3042    3.9606   18.7552 C   0  0  0  0  0  0  0  0  0  0  0  0
   49.6555    7.1613   17.0295 N   0  0  0  0  0  0  0  0  0  0  0  0
   47.9444    5.6560   17.0888 O   0  0  0  0  0  0  0  0  0  0  0  0
   50.0916    6.0055   20.5753 C   0  0  0  0  0  0  0  0  0  0  0  0
   48.6295    4.1914   20.1124 C   0  0  0  0  0  0  0  0  0  0  0  0
   48.9573    8.0729   16.1371 C   0  0  0  0  0  0  0  0  0  0  0  0
   49.5631    4.7559   21.0561 O   0  0  0  0  0  0  0  0  0  0  0  0
   48.8831    7.5513   14.6901 C   0  0  0  0  0  0  0  0  0  0  0  0
   48.4065    8.5441   13.7180 N   0  0  0  0  0  0  0  0  0  0  0  0
   49.3691    9.6344   13.4951 C   0  0  0  0  0  0  0  0  0  0  0  0
   49.0421   10.3822   12.1839 C   0  0  1  0  0  0  0  0  0  0  0  0
   49.9473   11.6070   11.9841 C   0  0  0  0  0  0  0  0  0  0  0  0
   49.1853    9.4783   11.0761 O   0  0  0  0  0  0  0  0  0  0  0  0
   51.3286   11.2454   12.0806 O   0  0  0  0  0  0  0  0  0  0  0  0
   52.0881   11.2194   10.9456 C   0  0  0  0  0  0  0  0  0  0  0  0
   51.6141   11.1304    9.6352 C   0  0  0  0  0  0  0  0  0  0  0  0
   53.4675   11.2471   11.1735 C   0  0  0  0  0  0  0  0  0  0  0  0
   52.5128   11.0958    8.5634 C   0  0  0  0  0  0  0  0  0  0  0  0
   54.3653   11.2140   10.1070 C   0  0  0  0  0  0  0  0  0  0  0  0
   53.8808   11.1417    8.8087 C   0  0  0  0  0  0  0  0  0  0  0  0
   54.7872   11.1116    7.7917 O   0  0  0  0  0  0  0  0  0  0  0  0
   52.3443    9.1004   10.3784 N   0  0  0  0  0  0  0  0  0  0  0  0
   51.3479    8.2662   10.8390 C   0  0  0  0  0  0  0  0  0  0  0  0
   53.5474    8.5085    9.7919 C   0  0  0  0  0  0  0  0  0  0  0  0
   52.2447   10.5579   10.2678 C   0  0  0  0  0  0  0  0  0  0  0  0
   50.3167    8.9064   11.4773 N   0  0  0  0  0  0  0  0  0  0  0  0
   51.3815    7.0465   10.7025 O   0  0  0  0  0  0  0  0  0  0  0  0
   54.7475    9.4479    9.9440 C   0  0  0  0  0  0  0  0  0  0  0  0
   53.1750   11.1024    9.1796 C   0  0  0  0  0  0  0  0  0  0  0  0
   49.2461    8.1486   12.1066 C   0  0  0  0  0  0  0  0  0  0  0  0
   54.5494   10.7601    9.3923 O   0  0  0  0  0  0  0  0  0  0  0  0
   49.6883    7.4361   13.4020 C   0  0  0  0  0  0  0  0  0  0  0  0
   50.5193    8.2427   14.3141 N   0  0  0  0  0  0  0  0  0  0  0  0
   49.8283    9.3929   14.9013 C   0  0  0  0  0  0  0  0  0  0  0  0
   48.7365    9.0598   15.9329 C   0  0  1  0  0  0  0  0  0  0  0  0
   49.2786    8.2293   17.1042 C   0  0  0  0  0  0  0  0  0  0  0  0
   48.2002   10.2980   16.4282 O   0  0  0  0  0  0  0  0  0  0  0  0
   48.1883    8.0143   18.0133 O   0  0  0  0  0  0  0  0  0  0  0  0
   48.4150    7.1485   19.0487 C   0  0  0  0  0  0  0  0  0  0  0  0
   47.2770    6.8039   19.7831 C   0  0  0  0  0  0  0  0  0  0  0  0
   49.6529    6.6121   19.4110 C   0  0  0  0  0  0  0  0  0  0  0  0
   47.3687    5.9239   20.8623 C   0  0  0  0  0  0  0  0  0  0  0  0
   49.7462    5.7254   20.4906 C   0  0  0  0  0  0  0  0  0  0  0  0
   48.6019    5.3863   21.2053 C   0  0  0  0  0  0  0  0  0  0  0  0
   48.6481    4.5232   22.2589 O   0  0  0  0  0  0  0  0  0  0  0  0
   50.6361    8.4255   15.1488 C   0  0  0  0  0  0  0  0  0  0  0  0
   50.1077    8.2874   13.9249 C   0  0  0  0  0  0  0  0  0  0  0  0
   50.4755    9.1446   12.7935 C   0  0  0  0  0  0  0  0  0  0  0  0
   51.4048   10.0643   13.0892 O   0  0  0  0  0  0  0  0  0  0  0  0
   50.0031    9.0500   11.6756 O   0  0  0  0  0  0  0  0  0  0  0  0
   50.2619    7.5730   16.2791 C   0  0  0  0  0  0  0  0  0  0  0  0
   49.3469    6.6414   15.9778 O   0  0  0  0  0  0  0  0  0  0  0  0
   50.7246    7.6767   17.3999 O   0  0  0  0  0  0  0  0  0  0  0  0
   51.2049    6.7730   18.8820 H   0  0  0  0  0  0  0  0  0  0  0  0
   51.6417    5.1167   19.3405 H   0  0  0  0  0  0  0  0  0  0  0  0
   48.5955    3.5434   18.0341 H   0  0  0  0  0  0  0  0  0  0  0  0
   50.1337    3.2534   18.8632 H   0  0  0  0  0  0  0  0  0  0  0  0
   50.6561    7.1047   16.9090 H   0  0  0  0  0  0  0  0  0  0  0  0
   50.8012    6.3770   21.3211 H   0  0  0  0  0  0  0  0  0  0  0  0
   49.2716    6.7295   20.4927 H   0  0  0  0  0  0  0  0  0  0  0  0
   47.7653    4.8598   20.0253 H   0  0  0  0  0  0  0  0  0  0  0  0
   48.2832    3.2387   20.5233 H   0  0  0  0  0  0  0  0  0  0  0  0
   47.9474    8.2440   16.5289 H   0  0  0  0  0  0  0  0  0  0  0  0
   49.5086    9.0166   16.1900 H   0  0  0  0  0  0  0  0  0  0  0  0
   49.8580    7.1591   14.3740 H   0  0  0  0  0  0  0  0  0  0  0  0
   48.1946    6.6989   14.6579 H   0  0  0  0  0  0  0  0  0  0  0  0
   48.2383    8.0799   12.8194 H   0  0  0  0  0  0  0  0  0  0  0  0
   50.3800    9.2159   13.4265 H   0  0  0  0  0  0  0  0  0  0  0  0
   49.3325   10.3376   14.3336 H   0  0  0  0  0  0  0  0  0  0  0  0
   47.9968   10.7149   12.1926 H   0  0  0  0  0  0  0  0  0  0  0  0
   49.7587   12.3197   12.7966 H   0  0  0  0  0  0  0  0  0  0  0  0
   49.7079   12.1391   11.0573 H   0  0  0  0  0  0  0  0  0  0  0  0
   50.1113    9.1698   11.0887 H   0  0  0  0  0  0  0  0  0  0  0  0
   50.5536   11.0691    9.4096 H   0  0  0  0  0  0  0  0  0  0  0  0
   53.8459   11.3049   12.1907 H   0  0  0  0  0  0  0  0  0  0  0  0
   52.1269   11.0297    7.5509 H   0  0  0  0  0  0  0  0  0  0  0  0
   55.4355   11.2475   10.2906 H   0  0  0  0  0  0  0  0  0  0  0  0
   54.3080   11.0782    6.9479 H   0  0  0  0  0  0  0  0  0  0  0  0
   53.7601    7.5426   10.2617 H   0  0  0  0  0  0  0  0  0  0  0  0
   53.3293    8.3326    8.7315 H   0  0  0  0  0  0  0  0  0  0  0  0
   51.2108   10.8459   10.0517 H   0  0  0  0  0  0  0  0  0  0  0  0
   52.5264   10.9674   11.2455 H   0  0  0  0  0  0  0  0  0  0  0  0
   50.5455    9.7857   11.9121 H   0  0  0  0  0  0  0  0  0  0  0  0
   55.6295    9.0159    9.4602 H   0  0  0  0  0  0  0  0  0  0  0  0
   54.9881    9.5789   11.0061 H   0  0  0  0  0  0  0  0  0  0  0  0
   53.1108   12.1948    9.1398 H   0  0  0  0  0  0  0  0  0  0  0  0
   52.8820   10.7200    8.1944 H   0  0  0  0  0  0  0  0  0  0  0  0
   48.4381    8.8567   12.3144 H   0  0  0  0  0  0  0  0  0  0  0  0
   48.8699    7.4119   11.3877 H   0  0  0  0  0  0  0  0  0  0  0  0
   50.2907    6.5629   13.1259 H   0  0  0  0  0  0  0  0  0  0  0  0
   48.8131    7.0327   13.9226 H   0  0  0  0  0  0  0  0  0  0  0  0
   51.3299    8.5653   13.7823 H   0  0  0  0  0  0  0  0  0  0  0  0
   50.5847   10.0115   15.4008 H   0  0  0  0  0  0  0  0  0  0  0  0
   49.4157   10.0487   14.1243 H   0  0  0  0  0  0  0  0  0  0  0  0
   47.9006    8.5339   15.4585 H   0  0  0  0  0  0  0  0  0  0  0  0
   49.6549    7.2676   16.7364 H   0  0  0  0  0  0  0  0  0  0  0  0
   50.0659    8.7891   17.6227 H   0  0  0  0  0  0  0  0  0  0  0  0
   47.7149   10.0691   17.2451 H   0  0  0  0  0  0  0  0  0  0  0  0
   46.3103    7.2223   19.5146 H   0  0  0  0  0  0  0  0  0  0  0  0
   50.5643    6.8630   18.8767 H   0  0  0  0  0  0  0  0  0  0  0  0
   46.4824    5.6563   21.4295 H   0  0  0  0  0  0  0  0  0  0  0  0
   50.7159    5.3163   20.7565 H   0  0  0  0  0  0  0  0  0  0  0  0
   49.5638    4.2197   22.3753 H   0  0  0  0  0  0  0  0  0  0  0  0
   51.3788    9.1823   15.3780 H   0  0  0  0  0  0  0  0  0  0  0  0
   49.3624    7.5347   13.6940 H   0  0  0  0  0  0  0  0  0  0  0  0
   51.5337   10.5497   12.2470 H   0  0  0  0  0  0  0  0  0  0  0  0
   49.2055    6.1658   16.8229 H   0  0  0  0  0  0  0  0  0  0  0  0
  3  7  1  0
  4  8  1  0
  5  9  1  0
  7 10  1  0
  9 11  1  0
 11 12  1  0
 12 13  1  0
 13 14  1  0
 14 15  1  0
 14 16  1  0
 15 17  1  0
 17 18  1  0
 18 19  2  0
 18 20  1  0
 19 21  1  0
 20 22  2  0
 21 23  2  0
 23 24  1  0
  8 10  1  0
 22 23  1  0
  1  2  1  0
  1  3  1  0
  1  4  1  0
  2  5  1  0
  2  6  2  0
 27 31  1  0
 28 32  1  0
 29 33  1  0
 31 34  1  0
 33 35  1  0
 35 36  1  0
 36 37  1  0
 37 38  1  0
 38 39  1  0
 38 40  1  0
 39 41  1  0
 41 42  1  0
 42 43  2  0
 42 44  1  0
 43 45  1  0
 44 46  2  0
 45 47  2  0
 47 48  1  0
 32 34  1  0
 46 47  1  0
 25 26  1  0
 25 27  1  0
 25 28  1  0
 26 29  1  0
 26 30  2  0
 49 50  2  0
 49 54  1  0
 50 51  1  0
 51 52  1  0
 51 53  2  0
 54 55  1  0
 54 56  2  0
  3 57  1  0
  3 58  1  0
  4 59  1  0
  4 60  1  0
  5 61  1  0
  7 62  1  0
  7 63  1  0
  8 64  1  0
  8 65  1  0
  9 66  1  0
  9 67  1  0
 11 68  1  0
 11 69  1  0
 12 70  1  0
 13 71  1  0
 13 72  1  0
 14 73  1  1
 15 74  1  0
 15 75  1  0
 16 76  1  0
 19 77  1  0
 20 78  1  0
 21 79  1  0
 22 80  1  0
 24 81  1  0
 27 82  1  0
 27 83  1  0
 28 84  1  0
 28 85  1  0
 29 86  1  0
 31 87  1  0
 31 88  1  0
 32 89  1  0
 32 90  1  0
 33 91  1  0
 33 92  1  0
 35 93  1  0
 35 94  1  0
 36 95  1  0
 37 96  1  0
 37 97  1  0
 38 98  1  1
 39 99  1  0
 39100  1  0
 40101  1  0
 43102  1  0
 44103  1  0
 45104  1  0
 46105  1  0
 48106  1  0
 49107  1  0
 50108  1  0
 52109  1  0
 55110  1  0
M  END
> <Uni-Dock RESULT> 
ENERGY=   -3.798  LOWER_BOUND=    3.743  UPPER_BOUND=    8.690
INTER + INTRA:          -3.798
INTER:                  -3.798
INTRA:                   0.000
UNBOUND:                 0.000

$$$$

     RDKit          3D

110111  0  0  0  0  0  0  0  0999 V2000
   53.6184    7.8472   11.3866 N   0  0  0  0  0  0  0  0  0  0  0  0
   53.1151    8.8641   12.1854 C   0  0  0  0  0  0  0  0  0  0  0  0
   52.7517    7.0375   10.5212 C   0  0  0  0  0  0  0  0  0  0  0  0
   54.9414    8.0617   10.7949 C   0  0  0  0  0  0  0  0  0  0  0  0
   51.8663    8.6122   12.6887 N   0  0  0  0  0  0  0  0  0  0  0  0
   53.7340    9.8943   12.4334 O   0  0  0  0  0  0  0  0  0  0  0  0
   52.6561    7.6926    9.1349 C   0  0  0  0  0  0  0  0  0  0  0  0
   54.7955    8.6894    9.4037 C   0  0  0  0  0  0  0  0  0  0  0  0
   51.2089    9.5654   13.5685 C   0  0  0  0  0  0  0  0  0  0  0  0
   53.9635    7.8680    8.5589 O   0  0  0  0  0  0  0  0  0  0  0  0
   51.8232    9.5963   14.9803 C   0  0  0  0  0  0  0  0  0  0  0  0
   51.0385   10.3598   15.9596 N   0  0  0  0  0  0  0  0  0  0  0  0
   49.7640    9.7099   16.3034 C   0  0  0  0  0  0  0  0  0  0  0  0
   49.2018   10.2890   17.6202 C   0  0  1  0  0  0  0  0  0  0  0  0
   47.8096    9.7261   17.9430 C   0  0  0  0  0  0  0  0  0  0  0  0
   50.1123    9.9950   18.6923 O   0  0  0  0  0  0  0  0  0  0  0  0
   47.8194    8.2951   17.9321 O   0  0  0  0  0  0  0  0  0  0  0  0
   47.7324    7.6223   19.1176 C   0  0  0  0  0  0  0  0  0  0  0  0
   48.0160    8.1379   20.3839 C   0  0  0  0  0  0  0  0  0  0  0  0
   47.3575    6.2809   18.9938 C   0  0  0  0  0  0  0  0  0  0  0  0
   47.8997    7.3246   21.5164 C   0  0  0  0  0  0  0  0  0  0  0  0
   47.2396    5.4684   20.1209 C   0  0  0  0  0  0  0  0  0  0  0  0
   47.5088    5.9976   21.3752 C   0  0  0  0  0  0  0  0  0  0  0  0
   47.3827    5.1745   22.4538 O   0  0  0  0  0  0  0  0  0  0  0  0
   49.7579    6.8880   19.6031 N   0  0  0  0  0  0  0  0  0  0  0  0
   50.7776    7.6193   19.0320 C   0  0  0  0  0  0  0  0  0  0  0  0
   50.0769    5.6139   20.2487 C   0  0  0  0  0  0  0  0  0  0  0  0
   48.3778    7.3492   19.7736 C   0  0  0  0  0  0  0  0  0  0  0  0
   50.3669    8.7358   18.3497 N   0  0  0  0  0  0  0  0  0  0  0  0
   51.9591    7.2954   19.1137 O   0  0  0  0  0  0  0  0  0  0  0  0
   48.8674    4.6745   20.2295 C   0  0  0  0  0  0  0  0  0  0  0  0
   47.6942    6.6484   20.9517 C   0  0  0  0  0  0  0  0  0  0  0  0
   51.3200    9.5475   17.6084 C   0  0  0  0  0  0  0  0  0  0  0  0
   47.6797    5.2218   20.8254 O   0  0  0  0  0  0  0  0  0  0  0  0
   51.8211    8.8665   16.3175 C   0  0  0  0  0  0  0  0  0  0  0  0
   50.7815    8.2058   15.5078 N   0  0  0  0  0  0  0  0  0  0  0  0
   49.7981    9.1215   14.9252 C   0  0  0  0  0  0  0  0  0  0  0  0
   50.3197   10.0338   13.8015 C   0  0  1  0  0  0  0  0  0  0  0  0
   50.9187    9.2347   12.6361 C   0  0  0  0  0  0  0  0  0  0  0  0
   49.2193   10.8271   13.3260 O   0  0  0  0  0  0  0  0  0  0  0  0
   51.3333   10.1819   11.6400 O   0  0  0  0  0  0  0  0  0  0  0  0
   52.0514    9.6875   10.5850 C   0  0  0  0  0  0  0  0  0  0  0  0
   52.6140   10.6596    9.7533 C   0  0  0  0  0  0  0  0  0  0  0  0
   52.2484    8.3363   10.2905 C   0  0  0  0  0  0  0  0  0  0  0  0
   53.3758   10.2897    8.6442 C   0  0  0  0  0  0  0  0  0  0  0  0
   53.0162    7.9631    9.1807 C   0  0  0  0  0  0  0  0  0  0  0  0
   53.5763    8.9438    8.3685 C   0  0  0  0  0  0  0  0  0  0  0  0
   54.3343    8.6236    7.2823 O   0  0  0  0  0  0  0  0  0  0  0  0
   50.5236    8.0874   14.6934 C   0  0  0  0  0  0  0  0  0  0  0  0
   50.8625    8.6384   15.8672 C   0  0  0  0  0  0  0  0  0  0  0  0
   50.0148    8.5614   17.0613 C   0  0  0  0  0  0  0  0  0  0  0  0
   48.8808    7.8704   16.8780 O   0  0  0  0  0  0  0  0  0  0  0  0
   50.2913    9.0625   18.1357 O   0  0  0  0  0  0  0  0  0  0  0  0
   51.3683    8.1719   13.5002 C   0  0  0  0  0  0  0  0  0  0  0  0
   52.5106    8.8464   13.6895 O   0  0  0  0  0  0  0  0  0  0  0  0
   51.0852    7.6822   12.4226 O   0  0  0  0  0  0  0  0  0  0  0  0
   51.7505    6.9061   10.9397 H   0  0  0  0  0  0  0  0  0  0  0  0
   53.2196    6.0490   10.4382 H   0  0  0  0  0  0  0  0  0  0  0  0
   55.5623    8.6883   11.4416 H   0  0  0  0  0  0  0  0  0  0  0  0
   55.4186    7.0789   10.7157 H   0  0  0  0  0  0  0  0  0  0  0  0
   51.6866    7.6375   12.8800 H   0  0  0  0  0  0  0  0  0  0  0  0
   52.0776    7.0525    8.4616 H   0  0  0  0  0  0  0  0  0  0  0  0
   52.1586    8.6688    9.1903 H   0  0  0  0  0  0  0  0  0  0  0  0
   54.3630    9.6949    9.4578 H   0  0  0  0  0  0  0  0  0  0  0  0
   55.7758    8.7656    8.9246 H   0  0  0  0  0  0  0  0  0  0  0  0
   51.2628   10.5610   13.1116 H   0  0  0  0  0  0  0  0  0  0  0  0
   50.1584    9.2607   13.6004 H   0  0  0  0  0  0  0  0  0  0  0  0
   51.9870    8.5758   15.3489 H   0  0  0  0  0  0  0  0  0  0  0  0
   52.8171   10.0548   14.9219 H   0  0  0  0  0  0  0  0  0  0  0  0
   51.5854   10.4627   16.8208 H   0  0  0  0  0  0  0  0  0  0  0  0
   49.9290    8.6331   16.4270 H   0  0  0  0  0  0  0  0  0  0  0  0
   49.0392    9.8675   15.4981 H   0  0  0  0  0  0  0  0  0  0  0  0
   49.1321   11.3814   17.5499 H   0  0  0  0  0  0  0  0  0  0  0  0
   47.1139   10.0347   17.1528 H   0  0  0  0  0  0  0  0  0  0  0  0
   47.4107   10.1444   18.8733 H   0  0  0  0  0  0  0  0  0  0  0  0
   50.1862    9.0227   18.7338 H   0  0  0  0  0  0  0  0  0  0  0  0
   48.3461    9.1626   20.5275 H   0  0  0  0  0  0  0  0  0  0  0  0
   47.1457    5.8677   18.0111 H   0  0  0  0  0  0  0  0  0  0  0  0
   48.1209    7.7427   22.4934 H   0  0  0  0  0  0  0  0  0  0  0  0
   46.9366    4.4302   20.0186 H   0  0  0  0  0  0  0  0  0  0  0  0
   47.5843    5.6808   23.2575 H   0  0  0  0  0  0  0  0  0  0  0  0
   50.9311    5.1426   19.7515 H   0  0  0  0  0  0  0  0  0  0  0  0
   50.3669    5.8456   21.2808 H   0  0  0  0  0  0  0  0  0  0  0  0
   48.3627    8.4331   19.9260 H   0  0  0  0  0  0  0  0  0  0  0  0
   47.8515    7.1183   18.8395 H   0  0  0  0  0  0  0  0  0  0  0  0
   49.4328    8.7043   17.9743 H   0  0  0  0  0  0  0  0  0  0  0  0
   49.1028    3.7442   20.7565 H   0  0  0  0  0  0  0  0  0  0  0  0
   48.6153    4.4100   19.1953 H   0  0  0  0  0  0  0  0  0  0  0  0
   46.6545    6.9813   21.0374 H   0  0  0  0  0  0  0  0  0  0  0  0
   48.1974    6.8973   21.8938 H   0  0  0  0  0  0  0  0  0  0  0  0
   50.8168   10.4906   17.3747 H   0  0  0  0  0  0  0  0  0  0  0  0
   52.1697    9.7738   18.2626 H   0  0  0  0  0  0  0  0  0  0  0  0
   52.5383    8.0859   16.5965 H   0  0  0  0  0  0  0  0  0  0  0  0
   52.3906    9.5828   15.7156 H   0  0  0  0  0  0  0  0  0  0  0  0
   50.3066    7.5329   16.1124 H   0  0  0  0  0  0  0  0  0  0  0  0
   48.9846    8.5115   14.5123 H   0  0  0  0  0  0  0  0  0  0  0  0
   49.3119    9.7286   15.6993 H   0  0  0  0  0  0  0  0  0  0  0  0
   51.0610   10.7419   14.1879 H   0  0  0  0  0  0  0  0  0  0  0  0
   51.7819    8.6566   12.9856 H   0  0  0  0  0  0  0  0  0  0  0  0
   50.1534    8.5794   12.2037 H   0  0  0  0  0  0  0  0  0  0  0  0
   49.5068   11.1911   12.4658 H   0  0  0  0  0  0  0  0  0  0  0  0
   52.4598   11.7138    9.9688 H   0  0  0  0  0  0  0  0  0  0  0  0
   51.8186    7.5483   10.9018 H   0  0  0  0  0  0  0  0  0  0  0  0
   53.8135   11.0473    8.0012 H   0  0  0  0  0  0  0  0  0  0  0  0
   53.1609    6.9084    8.9685 H   0  0  0  0  0  0  0  0  0  0  0  0
   54.3993    7.6562    7.2199 H   0  0  0  0  0  0  0  0  0  0  0  0
   49.5968    7.5410   14.5550 H   0  0  0  0  0  0  0  0  0  0  0  0
   51.7861    9.1884   16.0072 H   0  0  0  0  0  0  0  0  0  0  0  0
   48.4328    7.9157   17.7491 H   0  0  0  0  0  0  0  0  0  0  0  0
   52.9521    8.8154   12.8151 H   0  0  0  0  0  0  0  0  0  0  0  0
  3  7  1  0
  4  8  1  0
  5  9  1  0
  7 10  1  0
  9 11  1  0
 11 12  1  0
 12 13  1  0
 13 14  1  0
 14 15  1  0
 14 16  1  0
 15 17  1  0
 17 18  1  0
 18 19  2  0
 18 20  1  0
 19 21  1  0
 20 22  2  0
 21 23  2  0
 23 24  1  0
  8 10  1  0
 22 23  1  0
  1  2  1  0
  1  3  1  0
  1  4  1  0
  2  5  1  0
  2  6  2  0
 27 31  1  0
 28 32  1  0
 29 33  1  0
 31 34  1  0
 33 35  1  0
 35 36  1  0
 36 37  1  0
 37 38  1  0
 38 39  1  0
 38 40  1  0
 39 41  1  0
 41 42  1  0
 42 43  2  0
 42 44  1  0
 43 45  1  0
 44 46  2  0
 45 47  2  0
 47 48  1  0
 32 34  1  0
 46 47  1  0
 25 26  1  0
 25 27  1  0
 25 28  1  0
 26 29  1  0
 26 30  2  0
 49 50  2  0
 49 54  1  0
 50 51  1  0
 51 52  1  0
 51 53  2  0
 54 55  1  0
 54 56  2  0
  3 57  1  0
  3 58  1  0
  4 59  1  0
  4 60  1  0
  5 61  1  0
  7 62  1  0
  7 63  1  0
  8 64  1  0
  8 65  1  0
  9 66  1  0
  9 67  1  0
 11 68  1  0
 11 69  1  0
 12 70  1  0
 13 71  1  0
 13 72  1  0
 14 73  1  1
 15 74  1  0
 15 75  1  0
 16 76  1  0
 19 77  1  0
 20 78  1  0
 21 79  1  0
 22 80  1  0
 24 81  1  0
 27 82  1  0
 27 83  1  0
 28 84  1  0
 28 85  1  0
 29 86  1  0
 31 87  1  0
 31 88  1  0
 32 89  1  0
 32 90  1  0
 33 91  1  0
 33 92  1  0
 35 93  1  0
 35 94  1  0
 36 95  1  0
 37 96  1  0
 37 97  1  0
 38 98  1  1
 39 99  1  0
 39100  1  0
 40101  1  0
 43102  1  0
 44103  1  0
 45104  1  0
 46105  1  0
 48106  1  0
 49107  1  0
 50108  1  0
 52109  1  0
 55110  1  0
M  END
> <Uni-Dock RESULT> 
ENERGY=   -3.729  LOWER_BOUND=    4.474  UPPER_BOUND=    5.853
INTER + INTRA:          -3.729
INTER:                  -3.729
INTRA:                   0.000
UNBOUND:                 0.000

$$$$

     RDKit          3D

110111  0  0  0  0  0  0  0  0999 V2000
   50.4500   12.0350   12.7447 N   0  0  0  0  0  0  0  0  0  0  0  0
   49.4178   11.5166   13.5138 C   0  0  0  0  0  0  0  0  0  0  0  0
   51.1706   11.2191   11.7595 C   0  0  0  0  0  0  0  0  0  0  0  0
   50.3215   13.4300   12.3158 C   0  0  0  0  0  0  0  0  0  0  0  0
   49.5869   10.2027   13.8621 N   0  0  0  0  0  0  0  0  0  0  0  0
   48.4436   12.1750   13.8648 O   0  0  0  0  0  0  0  0  0  0  0  0
   50.4764   11.3333   10.3938 C   0  0  0  0  0  0  0  0  0  0  0  0
   49.6508   13.4931   10.9386 C   0  0  0  0  0  0  0  0  0  0  0  0
   48.6086    9.5177   14.6918 C   0  0  0  0  0  0  0  0  0  0  0  0
   50.3861   12.7082    9.9774 O   0  0  0  0  0  0  0  0  0  0  0  0
   48.6586    9.9637   16.1649 C   0  0  0  0  0  0  0  0  0  0  0  0
   47.8622    9.1273   17.0726 N   0  0  0  0  0  0  0  0  0  0  0  0
   48.4223    7.7778   17.2466 C   0  0  0  0  0  0  0  0  0  0  0  0
   47.8348    7.1091   18.5087 C   0  0  1  0  0  0  0  0  0  0  0  0
   48.2988    5.6518   18.6511 C   0  0  0  0  0  0  0  0  0  0  0  0
   48.2227    7.8647   19.6677 O   0  0  0  0  0  0  0  0  0  0  0  0
   49.7257    5.5595   18.5942 O   0  0  0  0  0  0  0  0  0  0  0  0
   50.4187    5.2866   19.7392 C   0  0  0  0  0  0  0  0  0  0  0  0
   49.9571    5.4569   21.0459 C   0  0  0  0  0  0  0  0  0  0  0  0
   51.7247    4.8329   19.5290 C   0  0  0  0  0  0  0  0  0  0  0  0
   50.7867    5.1509   22.1302 C   0  0  0  0  0  0  0  0  0  0  0  0
   52.5532    4.5260   20.6078 C   0  0  0  0  0  0  0  0  0  0  0  0
   52.0766    4.6845   21.9014 C   0  0  0  0  0  0  0  0  0  0  0  0
   52.9139    4.3745   22.9308 O   0  0  0  0  0  0  0  0  0  0  0  0
   51.3155    7.1833   20.4289 N   0  0  0  0  0  0  0  0  0  0  0  0
   50.6494    8.3128   20.0028 C   0  0  0  0  0  0  0  0  0  0  0  0
   52.6253    7.3321   21.0645 C   0  0  0  0  0  0  0  0  0  0  0  0
   50.7558    5.8296   20.4554 C   0  0  0  0  0  0  0  0  0  0  0  0
   49.4889    8.0661   19.3151 N   0  0  0  0  0  0  0  0  0  0  0  0
   51.0635    9.4502   20.2085 O   0  0  0  0  0  0  0  0  0  0  0  0
   53.4701    6.0685   20.8758 C   0  0  0  0  0  0  0  0  0  0  0  0
   51.4315    4.9645   21.5237 C   0  0  0  0  0  0  0  0  0  0  0  0
   48.7335    9.1552   18.7151 C   0  0  0  0  0  0  0  0  0  0  0  0
   52.8495    4.8620   21.3496 O   0  0  0  0  0  0  0  0  0  0  0  0
   49.4186    9.7530   17.4683 C   0  0  0  0  0  0  0  0  0  0  0  0
   49.9790    8.7701   16.5235 N   0  0  0  0  0  0  0  0  0  0  0  0
   48.9778    7.9299   15.8627 C   0  0  0  0  0  0  0  0  0  0  0  0
   48.0803    8.6434   14.8368 C   0  0  1  0  0  0  0  0  0  0  0  0
   48.8936    9.3151   13.7219 C   0  0  0  0  0  0  0  0  0  0  0  0
   47.1949    7.6661   14.2649 O   0  0  0  0  0  0  0  0  0  0  0  0
   47.9563    9.9103   12.8116 O   0  0  0  0  0  0  0  0  0  0  0  0
   48.4776   10.7090   11.8301 C   0  0  0  0  0  0  0  0  0  0  0  0
   47.5307   11.4335   11.1008 C   0  0  0  0  0  0  0  0  0  0  0  0
   49.8322   10.8411   11.5157 C   0  0  0  0  0  0  0  0  0  0  0  0
   47.9299   12.2908   10.0746 C   0  0  0  0  0  0  0  0  0  0  0  0
   50.2351   11.7041   10.4895 C   0  0  0  0  0  0  0  0  0  0  0  0
   49.2799   12.4245    9.7795 C   0  0  0  0  0  0  0  0  0  0  0  0
   49.6298   13.2789    8.7773 O   0  0  0  0  0  0  0  0  0  0  0  0
   50.0577    8.6011   15.6815 C   0  0  0  0  0  0  0  0  0  0  0  0
   49.5627    8.8395   16.9039 C   0  0  0  0  0  0  0  0  0  0  0  0
   49.6047    7.8550   17.9898 C   0  0  0  0  0  0  0  0  0  0  0  0
   50.2034    6.7033   17.6552 O   0  0  0  0  0  0  0  0  0  0  0  0
   49.1522    8.0397   19.1048 O   0  0  0  0  0  0  0  0  0  0  0  0
   50.0081    9.5830   14.5963 C   0  0  0  0  0  0  0  0  0  0  0  0
   49.4265   10.7411   14.9373 O   0  0  0  0  0  0  0  0  0  0  0  0
   50.4485    9.3930   13.4778 O   0  0  0  0  0  0  0  0  0  0  0  0
   51.2362   10.1690   12.0560 H   0  0  0  0  0  0  0  0  0  0  0  0
   52.1892   11.6209   11.6981 H   0  0  0  0  0  0  0  0  0  0  0  0
   49.7595   14.0148   13.0497 H   0  0  0  0  0  0  0  0  0  0  0  0
   51.3352   13.8410   12.2594 H   0  0  0  0  0  0  0  0  0  0  0  0
   50.5497    9.9321   13.9993 H   0  0  0  0  0  0  0  0  0  0  0  0
   51.0544   10.7927    9.6380 H   0  0  0  0  0  0  0  0  0  0  0  0
   49.4671   10.9045   10.4240 H   0  0  0  0  0  0  0  0  0  0  0  0
   48.6171   13.1308   10.9759 H   0  0  0  0  0  0  0  0  0  0  0  0
   49.6370   14.5255   10.5777 H   0  0  0  0  0  0  0  0  0  0  0  0
   47.6091    9.6961   14.2772 H   0  0  0  0  0  0  0  0  0  0  0  0
   48.8339    8.4514   14.5931 H   0  0  0  0  0  0  0  0  0  0  0  0
   49.6973   10.0093   16.5160 H   0  0  0  0  0  0  0  0  0  0  0  0
   48.2751   10.9881   16.2359 H   0  0  0  0  0  0  0  0  0  0  0  0
   47.8220    9.5760   17.9937 H   0  0  0  0  0  0  0  0  0  0  0  0
   49.5112    7.8491   17.3526 H   0  0  0  0  0  0  0  0  0  0  0  0
   48.1908    7.1651   16.3691 H   0  0  0  0  0  0  0  0  0  0  0  0
   46.7388    7.1270   18.4669 H   0  0  0  0  0  0  0  0  0  0  0  0
   47.9193    5.0771   17.7971 H   0  0  0  0  0  0  0  0  0  0  0  0
   47.8744    5.1783   19.5430 H   0  0  0  0  0  0  0  0  0  0  0  0
   49.1986    7.8629   19.6853 H   0  0  0  0  0  0  0  0  0  0  0  0
   48.9641    5.8411   21.2600 H   0  0  0  0  0  0  0  0  0  0  0  0
   52.0966    4.7080   18.5154 H   0  0  0  0  0  0  0  0  0  0  0  0
   50.4105    5.2863   23.1394 H   0  0  0  0  0  0  0  0  0  0  0  0
   53.5628    4.1630   20.4373 H   0  0  0  0  0  0  0  0  0  0  0  0
   52.4441    4.5169   23.7685 H   0  0  0  0  0  0  0  0  0  0  0  0
   53.1475    8.2022   20.6530 H   0  0  0  0  0  0  0  0  0  0  0  0
   52.4415    7.5157   22.1300 H   0  0  0  0  0  0  0  0  0  0  0  0
   49.6778    5.8751   20.6407 H   0  0  0  0  0  0  0  0  0  0  0  0
   50.9234    5.4006   19.4601 H   0  0  0  0  0  0  0  0  0  0  0  0
   49.4406    7.1823   18.8344 H   0  0  0  0  0  0  0  0  0  0  0  0
   54.4281    6.1732   21.3953 H   0  0  0  0  0  0  0  0  0  0  0  0
   53.6895    5.9204   19.8114 H   0  0  0  0  0  0  0  0  0  0  0  0
   51.0233    3.9487   21.5006 H   0  0  0  0  0  0  0  0  0  0  0  0
   51.2443    5.3711   22.5249 H   0  0  0  0  0  0  0  0  0  0  0  0
   47.7497    8.7520   18.4565 H   0  0  0  0  0  0  0  0  0  0  0  0
   48.5880    9.9368   19.4694 H   0  0  0  0  0  0  0  0  0  0  0  0
   50.2577   10.3745   17.8017 H   0  0  0  0  0  0  0  0  0  0  0  0
   48.7328   10.4390   16.9595 H   0  0  0  0  0  0  0  0  0  0  0  0
   50.6288    8.1806   17.0473 H   0  0  0  0  0  0  0  0  0  0  0  0
   49.5144    7.1283   15.3394 H   0  0  0  0  0  0  0  0  0  0  0  0
   48.3548    7.4018   16.5955 H   0  0  0  0  0  0  0  0  0  0  0  0
   47.4397    9.3837   15.3287 H   0  0  0  0  0  0  0  0  0  0  0  0
   49.5435   10.0878   14.1487 H   0  0  0  0  0  0  0  0  0  0  0  0
   49.4786    8.5603   13.1833 H   0  0  0  0  0  0  0  0  0  0  0  0
   46.8327    8.0775   13.4556 H   0  0  0  0  0  0  0  0  0  0  0  0
   46.4734   11.3316   11.3320 H   0  0  0  0  0  0  0  0  0  0  0  0
   50.6002   10.2872   12.0474 H   0  0  0  0  0  0  0  0  0  0  0  0
   47.1920   12.8540    9.5114 H   0  0  0  0  0  0  0  0  0  0  0  0
   51.2921   11.7962   10.2605 H   0  0  0  0  0  0  0  0  0  0  0  0
   50.5975   13.2808    8.6908 H   0  0  0  0  0  0  0  0  0  0  0  0
   50.5291    7.6597   15.4199 H   0  0  0  0  0  0  0  0  0  0  0  0
   49.0875    9.7778   17.1668 H   0  0  0  0  0  0  0  0  0  0  0  0
   50.1457    6.1612   18.4703 H   0  0  0  0  0  0  0  0  0  0  0  0
   49.4693   11.2782   14.1187 H   0  0  0  0  0  0  0  0  0  0  0  0
  3  7  1  0
  4  8  1  0
  5  9  1  0
  7 10  1  0
  9 11  1  0
 11 12  1  0
 12 13  1  0
 13 14  1  0
 14 15  1  0
 14 16  1  0
 15 17  1  0
 17 18  1  0
 18 19  2  0
 18 20  1  0
 19 21  1  0
 20 22  2  0
 21 23  2  0
 23 24  1  0
  8 10  1  0
 22 23  1  0
  1  2  1  0
  1  3  1  0
  1  4  1  0
  2  5  1  0
  2  6  2  0
 27 31  1  0
 28 32  1  0
 29 33  1  0
 31 34  1  0
 33 35  1  0
 35 36  1  0
 36 37  1  0
 37 38  1  0
 38 39  1  0
 38 40  1  0
 39 41  1  0
 41 42  1  0
 42 43  2  0
 42 44  1  0
 43 45  1  0
 44 46  2  0
 45 47  2  0
 47 48  1  0
 32 34  1  0
 46 47  1  0
 25 26  1  0
 25 27  1  0
 25 28  1  0
 26 29  1  0
 26 30  2  0
 49 50  2  0
 49 54  1  0
 50 51  1  0
 51 52  1  0
 51 53  2  0
 54 55  1  0
 54 56  2  0
  3 57  1  0
  3 58  1  0
  4 59  1  0
  4 60  1  0
  5 61  1  0
  7 62  1  0
  7 63  1  0
  8 64  1  0
  8 65  1  0
  9 66  1  0
  9 67  1  0
 11 68  1  0
 11 69  1  0
 12 70  1  0
 13 71  1  0
 13 72  1  0
 14 73  1  1
 15 74  1  0
 15 75  1  0
 16 76  1  0
 19 77  1  0
 20 78  1  0
 21 79  1  0
 22 80  1  0
 24 81  1  0
 27 82  1  0
 27 83  1  0
 28 84  1  0
 28 85  1  0
 29 86  1  0
 31 87  1  0
 31 88  1  0
 32 89  1  0
 32 90  1  0
 33 91  1  0
 33 92  1  0
 35 93  1  0
 35 94  1  0
 36 95  1  0
 37 96  1  0
 37 97  1  0
 38 98  1  1
 39 99  1  0
 39100  1  0
 40101  1  0
 43102  1  0
 44103  1  0
 45104  1  0
 46105  1  0
 48106  1  0
 49107  1  0
 50108  1  0
 52109  1  0
 55110  1  0
M  END
> <Uni-Dock RESULT> 
ENERGY=   -3.714  LOWER_BOUND=    5.048  UPPER_BOUND=    7.826
INTER + INTRA:          -3.714
INTER:                  -3.714
INTRA:                   0.000
UNBOUND:                 0.000

$$$$
