
     RDKit          3D

110111  0  0  0  0  0  0  0  0999 V2000
   45.0307    5.4140   12.2858 N   0  0  0  0  0  0  0  0  0  0  0  0
   45.9944    6.3971   12.3656 C   0  0  0  0  0  0  0  0  0  0  0  0
   44.1077    5.4276   11.1513 C   0  0  0  0  0  0  0  0  0  0  0  0
   44.9496    4.2298   13.1453 C   0  0  0  0  0  0  0  0  0  0  0  0
   46.7621    6.3509   13.5025 N   0  0  0  0  0  0  0  0  0  0  0  0
   46.1556    7.2432   11.4923 O   0  0  0  0  0  0  0  0  0  0  0  0
   42.8186    4.6748   11.4867 C   0  0  0  0  0  0  0  0  0  0  0  0
   44.3362    3.0434   12.3953 C   0  0  0  0  0  0  0  0  0  0  0  0
   47.7836    7.3593   13.7357 C   0  0  0  0  0  0  0  0  0  0  0  0
   43.0248    3.3108   11.8826 O   0  0  0  0  0  0  0  0  0  0  0  0
   49.0385    7.1499   12.8660 C   0  0  0  0  0  0  0  0  0  0  0  0
   50.0881    8.1571   13.0554 N   0  0  0  0  0  0  0  0  0  0  0  0
   50.8300    7.9970   14.3109 C   0  0  0  0  0  0  0  0  0  0  0  0
   51.8320    9.1476   14.5180 C   0  0  1  0  0  0  0  0  0  0  0  0
   52.8593    9.2533   13.3826 C   0  0  0  0  0  0  0  0  0  0  0  0
   51.1041   10.3836   14.6363 O   0  0  0  0  0  0  0  0  0  0  0  0
   53.8029   10.2702   13.7547 O   0  0  0  0  0  0  0  0  0  0  0  0
   54.7956   10.5499   12.8549 C   0  0  0  0  0  0  0  0  0  0  0  0
   55.6660   11.5739   13.2443 C   0  0  0  0  0  0  0  0  0  0  0  0
   54.9951    9.9137   11.6283 C   0  0  0  0  0  0  0  0  0  0  0  0
   56.7235   11.9659   12.4194 C   0  0  0  0  0  0  0  0  0  0  0  0
   56.0539   10.3035   10.8017 C   0  0  0  0  0  0  0  0  0  0  0  0
   56.9073   11.3247   11.2008 C   0  0  0  0  0  0  0  0  0  0  0  0
   57.9222   11.6706   10.3598 O   0  0  0  0  0  0  0  0  0  0  0  0
   53.7933   10.2762   12.5279 N   0  0  0  0  0  0  0  0  0  0  0  0
   52.6242    9.9193   11.8729 C   0  0  0  0  0  0  0  0  0  0  0  0
   53.9779   11.7033   12.8055 C   0  0  0  0  0  0  0  0  0  0  0  0
   54.4660    9.3949   13.4923 C   0  0  0  0  0  0  0  0  0  0  0  0
   52.4641    8.5673   11.6938 N   0  0  0  0  0  0  0  0  0  0  0  0
   51.7966   10.7350   11.4795 O   0  0  0  0  0  0  0  0  0  0  0  0
   55.4436   12.0429   13.0825 C   0  0  0  0  0  0  0  0  0  0  0  0
   55.9112    9.8332   13.7461 C   0  0  0  0  0  0  0  0  0  0  0  0
   51.2998    8.0573   10.9778 C   0  0  0  0  0  0  0  0  0  0  0  0
   55.9777   11.2139   14.1258 O   0  0  0  0  0  0  0  0  0  0  0  0
   49.9934    8.1755   11.7881 C   0  0  0  0  0  0  0  0  0  0  0  0
   50.1393    7.5136   13.0985 N   0  0  0  0  0  0  0  0  0  0  0  0
   49.0410    7.8554   14.0256 C   0  0  0  0  0  0  0  0  0  0  0  0
   47.8439    6.8831   13.9332 C   0  0  1  0  0  0  0  0  0  0  0  0
   46.9258    7.1587   12.7340 C   0  0  0  0  0  0  0  0  0  0  0  0
   48.3785    5.5486   13.8536 O   0  0  0  0  0  0  0  0  0  0  0  0
   45.5570    6.8857   13.0682 O   0  0  0  0  0  0  0  0  0  0  0  0
   44.9977    5.7075   12.6655 C   0  0  0  0  0  0  0  0  0  0  0  0
   45.6862    4.5583   12.2792 C   0  0  0  0  0  0  0  0  0  0  0  0
   43.5992    5.6883   12.6894 C   0  0  0  0  0  0  0  0  0  0  0  0
   44.9847    3.4069   11.9021 C   0  0  0  0  0  0  0  0  0  0  0  0
   42.8955    4.5434   12.3118 C   0  0  0  0  0  0  0  0  0  0  0  0
   43.5942    3.4110   11.9183 C   0  0  0  0  0  0  0  0  0  0  0  0
   42.8753    2.3106   11.5574 O   0  0  0  0  0  0  0  0  0  0  0  0
   50.0461    8.3952   13.2508 C   0  0  0  0  0  0  0  0  0  0  0  0
   49.2573    7.5529   12.5717 C   0  0  0  0  0  0  0  0  0  0  0  0
   48.0520    7.0305   13.2164 C   0  0  0  0  0  0  0  0  0  0  0  0
   47.3984    6.2090   12.3821 O   0  0  0  0  0  0  0  0  0  0  0  0
   47.6536    7.2712   14.3391 O   0  0  0  0  0  0  0  0  0  0  0  0
   51.2516    8.9175   12.6059 C   0  0  0  0  0  0  0  0  0  0  0  0
   51.9050    9.7389   13.4405 O   0  0  0  0  0  0  0  0  0  0  0  0
   51.6495    8.6765   11.4830 O   0  0  0  0  0  0  0  0  0  0  0  0
   44.6253    4.9419   10.3160 H   0  0  0  0  0  0  0  0  0  0  0  0
   43.8846    6.4595   10.8606 H   0  0  0  0  0  0  0  0  0  0  0  0
   45.9420    3.9628   13.5215 H   0  0  0  0  0  0  0  0  0  0  0  0
   44.3141    4.5063   13.9940 H   0  0  0  0  0  0  0  0  0  0  0  0
   46.2551    6.0495   14.3194 H   0  0  0  0  0  0  0  0  0  0  0  0
   42.1456    4.6707   10.6234 H   0  0  0  0  0  0  0  0  0  0  0  0
   42.2932    5.1743   12.3080 H   0  0  0  0  0  0  0  0  0  0  0  0
   44.2604    2.1757   13.0585 H   0  0  0  0  0  0  0  0  0  0  0  0
   44.9722    2.7554   11.5502 H   0  0  0  0  0  0  0  0  0  0  0  0
   48.0389    7.2945   14.7975 H   0  0  0  0  0  0  0  0  0  0  0  0
   47.3482    8.3482   13.5517 H   0  0  0  0  0  0  0  0  0  0  0  0
   48.7510    7.1830   11.8094 H   0  0  0  0  0  0  0  0  0  0  0  0
   49.4450    6.1436   13.0266 H   0  0  0  0  0  0  0  0  0  0  0  0
   49.6747    9.0947   13.0439 H   0  0  0  0  0  0  0  0  0  0  0  0
   50.1358    7.9981   15.1582 H   0  0  0  0  0  0  0  0  0  0  0  0
   51.3671    7.0414   14.3054 H   0  0  0  0  0  0  0  0  0  0  0  0
   52.3528    9.0052   15.4717 H   0  0  0  0  0  0  0  0  0  0  0  0
   53.3746    8.2939   13.2596 H   0  0  0  0  0  0  0  0  0  0  0  0
   52.3622    9.5548   12.4533 H   0  0  0  0  0  0  0  0  0  0  0  0
   51.7734   11.0908   14.5609 H   0  0  0  0  0  0  0  0  0  0  0  0
   55.5156   12.0743   14.1978 H   0  0  0  0  0  0  0  0  0  0  0  0
   54.3492    9.1139   11.2811 H   0  0  0  0  0  0  0  0  0  0  0  0
   57.3824   12.7653   12.7430 H   0  0  0  0  0  0  0  0  0  0  0  0
   56.2113    9.8094    9.8462 H   0  0  0  0  0  0  0  0  0  0  0  0
   58.4266   12.3955   10.7643 H   0  0  0  0  0  0  0  0  0  0  0  0
   53.6083   12.3026   11.9672 H   0  0  0  0  0  0  0  0  0  0  0  0
   53.3662   11.9356   13.6859 H   0  0  0  0  0  0  0  0  0  0  0  0
   53.8867    9.4566   14.4220 H   0  0  0  0  0  0  0  0  0  0  0  0
   54.4517    8.3532   13.1629 H   0  0  0  0  0  0  0  0  0  0  0  0
   53.3291    8.0949   11.4794 H   0  0  0  0  0  0  0  0  0  0  0  0
   55.5317   13.0852   13.4047 H   0  0  0  0  0  0  0  0  0  0  0  0
   56.0540   11.9169   12.1803 H   0  0  0  0  0  0  0  0  0  0  0  0
   56.3429    9.2421   14.5597 H   0  0  0  0  0  0  0  0  0  0  0  0
   56.5305    9.6774   12.8540 H   0  0  0  0  0  0  0  0  0  0  0  0
   51.2053    8.5968   10.0287 H   0  0  0  0  0  0  0  0  0  0  0  0
   51.5034    7.0046   10.7523 H   0  0  0  0  0  0  0  0  0  0  0  0
   49.1881    7.7105   11.2142 H   0  0  0  0  0  0  0  0  0  0  0  0
   49.7450    9.2335   11.9242 H   0  0  0  0  0  0  0  0  0  0  0  0
   51.0089    7.8862   13.4950 H   0  0  0  0  0  0  0  0  0  0  0  0
   48.7289    8.9032   13.9459 H   0  0  0  0  0  0  0  0  0  0  0  0
   49.4606    7.7376   15.0333 H   0  0  0  0  0  0  0  0  0  0  0  0
   47.2666    6.9383   14.8630 H   0  0  0  0  0  0  0  0  0  0  0  0
   47.2387    6.6334   11.8252 H   0  0  0  0  0  0  0  0  0  0  0  0
   46.9420    8.2302   12.5047 H   0  0  0  0  0  0  0  0  0  0  0  0
   49.2531    5.6634   13.4247 H   0  0  0  0  0  0  0  0  0  0  0  0
   46.7696    4.5157   12.2823 H   0  0  0  0  0  0  0  0  0  0  0  0
   43.0526    6.5744   13.0022 H   0  0  0  0  0  0  0  0  0  0  0  0
   45.5421    2.5223   11.6109 H   0  0  0  0  0  0  0  0  0  0  0  0
   41.8099    4.5377   12.3298 H   0  0  0  0  0  0  0  0  0  0  0  0
   43.4965    1.6004   11.3283 H   0  0  0  0  0  0  0  0  0  0  0  0
   49.8349    8.7132   14.2653 H   0  0  0  0  0  0  0  0  0  0  0  0
   49.4684    7.2348   11.5573 H   0  0  0  0  0  0  0  0  0  0  0  0
   46.6179    5.9151   12.8968 H   0  0  0  0  0  0  0  0  0  0  0  0
   52.6854   10.0326   12.9253 H   0  0  0  0  0  0  0  0  0  0  0  0
  3  7  1  0
  4  8  1  0
  5  9  1  0
  7 10  1  0
  9 11  1  0
 11 12  1  0
 12 13  1  0
 13 14  1  0
 14 15  1  0
 14 16  1  0
 15 17  1  0
 17 18  1  0
 18 19  2  0
 18 20  1  0
 19 21  1  0
 20 22  2  0
 21 23  2  0
 23 24  1  0
  8 10  1  0
 22 23  1  0
  1  2  1  0
  1  3  1  0
  1  4  1  0
  2  5  1  0
  2  6  2  0
 27 31  1  0
 28 32  1  0
 29 33  1  0
 31 34  1  0
 33 35  1  0
 35 36  1  0
 36 37  1  0
 37 38  1  0
 38 39  1  0
 38 40  1  0
 39 41  1  0
 41 42  1  0
 42 43  2  0
 42 44  1  0
 43 45  1  0
 44 46  2  0
 45 47  2  0
 47 48  1  0
 32 34  1  0
 46 47  1  0
 25 26  1  0
 25 27  1  0
 25 28  1  0
 26 29  1  0
 26 30  2  0
 49 50  2  0
 49 54  1  0
 50 51  1  0
 51 52  1  0
 51 53  2  0
 54 55  1  0
 54 56  2  0
  3 57  1  0
  3 58  1  0
  4 59  1  0
  4 60  1  0
  5 61  1  0
  7 62  1  0
  7 63  1  0
  8 64  1  0
  8 65  1  0
  9 66  1  0
  9 67  1  0
 11 68  1  0
 11 69  1  0
 12 70  1  0
 13 71  1  0
 13 72  1  0
 14 73  1  6
 15 74  1  0
 15 75  1  0
 16 76  1  0
 19 77  1  0
 20 78  1  0
 21 79  1  0
 22 80  1  0
 24 81  1  0
 27 82  1  0
 27 83  1  0
 28 84  1  0
 28 85  1  0
 29 86  1  0
 31 87  1  0
 31 88  1  0
 32 89  1  0
 32 90  1  0
 33 91  1  0
 33 92  1  0
 35 93  1  0
 35 94  1  0
 36 95  1  0
 37 96  1  0
 37 97  1  0
 38 98  1  6
 39 99  1  0
 39100  1  0
 40101  1  0
 43102  1  0
 44103  1  0
 45104  1  0
 46105  1  0
 48106  1  0
 49107  1  0
 50108  1  0
 52109  1  0
 55110  1  0
M  END
> <Uni-Dock RESULT> 
ENERGY=   -6.937  LOWER_BOUND=    0.000  UPPER_BOUND=    0.000
INTER + INTRA:          -6.937
INTER:                  -6.937
INTRA:                   0.000
UNBOUND:                 0.000

$$$$

     RDKit          3D

110111  0  0  0  0  0  0  0  0999 V2000
   44.6350    6.1770   12.0426 N   0  0  0  0  0  0  0  0  0  0  0  0
   45.1403    7.4322   12.3087 C   0  0  0  0  0  0  0  0  0  0  0  0
   43.3631    6.0704   11.3284 C   0  0  0  0  0  0  0  0  0  0  0  0
   45.3454    4.9120   12.2494 C   0  0  0  0  0  0  0  0  0  0  0  0
   46.2950    7.4356   13.0508 N   0  0  0  0  0  0  0  0  0  0  0  0
   44.6045    8.4625   11.9139 O   0  0  0  0  0  0  0  0  0  0  0  0
   42.6920    4.7236   11.6057 C   0  0  0  0  0  0  0  0  0  0  0  0
   44.9053    3.8577   11.2292 C   0  0  0  0  0  0  0  0  0  0  0  0
   46.9073    8.6947   13.4436 C   0  0  0  0  0  0  0  0  0  0  0  0
   43.4982    3.5873   11.2612 O   0  0  0  0  0  0  0  0  0  0  0  0
   47.6395    9.3909   12.2799 C   0  0  0  0  0  0  0  0  0  0  0  0
   48.2564   10.6757   12.6277 N   0  0  0  0  0  0  0  0  0  0  0  0
   49.4803   10.5380   13.4248 C   0  0  0  0  0  0  0  0  0  0  0  0
   50.0169   11.9121   13.8659 C   0  0  1  0  0  0  0  0  0  0  0  0
   50.3365   12.8341   12.6812 C   0  0  0  0  0  0  0  0  0  0  0  0
   49.0461   12.5375   14.7250 O   0  0  0  0  0  0  0  0  0  0  0  0
   50.9421   14.0214   13.2162 O   0  0  0  0  0  0  0  0  0  0  0  0
   51.2779   15.0003   12.3204 C   0  0  0  0  0  0  0  0  0  0  0  0
   51.8280   16.1526   12.8926 C   0  0  0  0  0  0  0  0  0  0  0  0
   51.1188   14.9350   10.9350 C   0  0  0  0  0  0  0  0  0  0  0  0
   52.2127   17.2334   12.0950 C   0  0  0  0  0  0  0  0  0  0  0  0
   51.5046   16.0151   10.1345 C   0  0  0  0  0  0  0  0  0  0  0  0
   52.0457   17.1540   10.7181 C   0  0  0  0  0  0  0  0  0  0  0  0
   52.4034   18.1808    9.8968 O   0  0  0  0  0  0  0  0  0  0  0  0
   50.3923   14.3817   12.1804 N   0  0  0  0  0  0  0  0  0  0  0  0
   49.2517   13.7096   11.7676 C   0  0  0  0  0  0  0  0  0  0  0  0
   50.1864   15.5630   13.0229 C   0  0  0  0  0  0  0  0  0  0  0  0
   51.6739   13.7031   12.4174 C   0  0  0  0  0  0  0  0  0  0  0  0
   49.4959   12.5730   11.0367 N   0  0  0  0  0  0  0  0  0  0  0  0
   48.1146   14.0911   12.0256 O   0  0  0  0  0  0  0  0  0  0  0  0
   51.4134   16.4768   13.0291 C   0  0  0  0  0  0  0  0  0  0  0  0
   52.8403   14.6947   12.4547 C   0  0  0  0  0  0  0  0  0  0  0  0
   48.3841   11.7954   10.5006 C   0  0  0  0  0  0  0  0  0  0  0  0
   52.5967   15.7503   13.3935 O   0  0  0  0  0  0  0  0  0  0  0  0
   47.6137   11.0165   11.5855 C   0  0  0  0  0  0  0  0  0  0  0  0
   48.5351   10.1592   12.3553 N   0  0  0  0  0  0  0  0  0  0  0  0
   47.9138    9.6314   13.5873 C   0  0  0  0  0  0  0  0  0  0  0  0
   47.2051    8.2749   13.3767 C   0  0  1  0  0  0  0  0  0  0  0  0
   45.8204    8.4049   12.7266 C   0  0  0  0  0  0  0  0  0  0  0  0
   48.0653    7.4628   12.5560 O   0  0  0  0  0  0  0  0  0  0  0  0
   44.9206    7.4138   13.2442 O   0  0  0  0  0  0  0  0  0  0  0  0
   44.6756    6.2906   12.5083 C   0  0  0  0  0  0  0  0  0  0  0  0
   45.4663    5.7961   11.4719 C   0  0  0  0  0  0  0  0  0  0  0  0
   43.5288    5.5847   12.8869 C   0  0  0  0  0  0  0  0  0  0  0  0
   45.1052    4.6179   10.8073 C   0  0  0  0  0  0  0  0  0  0  0  0
   43.1635    4.4110   12.2255 C   0  0  0  0  0  0  0  0  0  0  0  0
   43.9539    3.9373   11.1880 C   0  0  0  0  0  0  0  0  0  0  0  0
   43.5683    2.7878   10.5651 O   0  0  0  0  0  0  0  0  0  0  0  0
   48.2271   10.7935   12.9139 C   0  0  0  0  0  0  0  0  0  0  0  0
   47.5561    9.9153   12.1578 C   0  0  0  0  0  0  0  0  0  0  0  0
   47.0131    8.7080   12.7815 C   0  0  0  0  0  0  0  0  0  0  0  0
   46.3793    7.9586   11.8678 O   0  0  0  0  0  0  0  0  0  0  0  0
   47.0944    8.3817   13.9494 O   0  0  0  0  0  0  0  0  0  0  0  0
   48.7701   12.0007   12.2899 C   0  0  0  0  0  0  0  0  0  0  0  0
   49.4039   12.7500   13.2039 O   0  0  0  0  0  0  0  0  0  0  0  0
   48.6884   12.3268   11.1218 O   0  0  0  0  0  0  0  0  0  0  0  0
   43.5902    6.1693   10.2606 H   0  0  0  0  0  0  0  0  0  0  0  0
   42.7013    6.8947   11.6142 H   0  0  0  0  0  0  0  0  0  0  0  0
   46.4269    5.0670   12.1855 H   0  0  0  0  0  0  0  0  0  0  0  0
   45.0967    4.5797   13.2635 H   0  0  0  0  0  0  0  0  0  0  0  0
   46.3343    6.7004   13.7388 H   0  0  0  0  0  0  0  0  0  0  0  0
   41.7535    4.6449   11.0480 H   0  0  0  0  0  0  0  0  0  0  0  0
   42.4477    4.6364   12.6700 H   0  0  0  0  0  0  0  0  0  0  0  0
   45.4270    2.9130   11.4134 H   0  0  0  0  0  0  0  0  0  0  0  0
   45.1598    4.1798   10.2127 H   0  0  0  0  0  0  0  0  0  0  0  0
   47.6089    8.4544   14.2479 H   0  0  0  0  0  0  0  0  0  0  0  0
   46.1303    9.3486   13.8560 H   0  0  0  0  0  0  0  0  0  0  0  0
   46.9241    9.5879   11.4739 H   0  0  0  0  0  0  0  0  0  0  0  0
   48.3881    8.7154   11.8474 H   0  0  0  0  0  0  0  0  0  0  0  0
   47.5909   11.2475   13.1569 H   0  0  0  0  0  0  0  0  0  0  0  0
   49.2751    9.9511   14.3266 H   0  0  0  0  0  0  0  0  0  0  0  0
   50.2473   10.0168   12.8403 H   0  0  0  0  0  0  0  0  0  0  0  0
   50.9180   11.7696   14.4731 H   0  0  0  0  0  0  0  0  0  0  0  0
   51.0349   12.3335   12.0009 H   0  0  0  0  0  0  0  0  0  0  0  0
   49.4120   13.1118   12.1615 H   0  0  0  0  0  0  0  0  0  0  0  0
   49.3312   13.4676   14.8100 H   0  0  0  0  0  0  0  0  0  0  0  0
   51.9535   16.2104   13.9711 H   0  0  0  0  0  0  0  0  0  0  0  0
   50.6984   14.0642   10.4426 H   0  0  0  0  0  0  0  0  0  0  0  0
   52.6335   18.1171   12.5637 H   0  0  0  0  0  0  0  0  0  0  0  0
   51.3819   15.9666    9.0554 H   0  0  0  0  0  0  0  0  0  0  0  0
   52.7565   18.9042   10.4406 H   0  0  0  0  0  0  0  0  0  0  0  0
   49.3077   16.1211   12.6837 H   0  0  0  0  0  0  0  0  0  0  0  0
   49.9865   15.1968   14.0373 H   0  0  0  0  0  0  0  0  0  0  0  0
   51.5801   13.1979   13.3869 H   0  0  0  0  0  0  0  0  0  0  0  0
   51.8686   12.9369   11.6633 H   0  0  0  0  0  0  0  0  0  0  0  0
   50.2808   12.6703   10.4108 H   0  0  0  0  0  0  0  0  0  0  0  0
   51.2768   17.2818   13.7581 H   0  0  0  0  0  0  0  0  0  0  0  0
   51.5668   16.9363   12.0453 H   0  0  0  0  0  0  0  0  0  0  0  0
   53.7571   14.1811   12.7604 H   0  0  0  0  0  0  0  0  0  0  0  0
   53.0156   15.1310   11.4635 H   0  0  0  0  0  0  0  0  0  0  0  0
   47.7057   12.4712    9.9676 H   0  0  0  0  0  0  0  0  0  0  0  0
   48.8095   11.0961    9.7723 H   0  0  0  0  0  0  0  0  0  0  0  0
   46.8479   10.4095   11.0964 H   0  0  0  0  0  0  0  0  0  0  0  0
   47.1098   11.7246   12.2520 H   0  0  0  0  0  0  0  0  0  0  0  0
   49.3075   10.7738   12.6345 H   0  0  0  0  0  0  0  0  0  0  0  0
   47.2654   10.3634   14.0828 H   0  0  0  0  0  0  0  0  0  0  0  0
   48.7461    9.4438   14.2783 H   0  0  0  0  0  0  0  0  0  0  0  0
   47.1153    7.7653   14.3427 H   0  0  0  0  0  0  0  0  0  0  0  0
   45.8581    8.3928   11.6320 H   0  0  0  0  0  0  0  0  0  0  0  0
   45.3713    9.3605   13.0198 H   0  0  0  0  0  0  0  0  0  0  0  0
   48.5656    8.1103   12.0151 H   0  0  0  0  0  0  0  0  0  0  0  0
   46.3836    6.2893   11.1706 H   0  0  0  0  0  0  0  0  0  0  0  0
   42.9126    5.9540   13.7028 H   0  0  0  0  0  0  0  0  0  0  0  0
   45.7395    4.2488   10.0077 H   0  0  0  0  0  0  0  0  0  0  0  0
   42.2700    3.8707   12.5231 H   0  0  0  0  0  0  0  0  0  0  0  0
   44.2240    2.5750    9.8815 H   0  0  0  0  0  0  0  0  0  0  0  0
   48.3905   10.6538   13.9763 H   0  0  0  0  0  0  0  0  0  0  0  0
   47.3927   10.0548   11.0954 H   0  0  0  0  0  0  0  0  0  0  0  0
   46.0556    7.1848   12.3745 H   0  0  0  0  0  0  0  0  0  0  0  0
   49.7275   13.5237   12.6966 H   0  0  0  0  0  0  0  0  0  0  0  0
  3  7  1  0
  4  8  1  0
  5  9  1  0
  7 10  1  0
  9 11  1  0
 11 12  1  0
 12 13  1  0
 13 14  1  0
 14 15  1  0
 14 16  1  0
 15 17  1  0
 17 18  1  0
 18 19  2  0
 18 20  1  0
 19 21  1  0
 20 22  2  0
 21 23  2  0
 23 24  1  0
  8 10  1  0
 22 23  1  0
  1  2  1  0
  1  3  1  0
  1  4  1  0
  2  5  1  0
  2  6  2  0
 27 31  1  0
 28 32  1  0
 29 33  1  0
 31 34  1  0
 33 35  1  0
 35 36  1  0
 36 37  1  0
 37 38  1  0
 38 39  1  0
 38 40  1  0
 39 41  1  0
 41 42  1  0
 42 43  2  0
 42 44  1  0
 43 45  1  0
 44 46  2  0
 45 47  2  0
 47 48  1  0
 32 34  1  0
 46 47  1  0
 25 26  1  0
 25 27  1  0
 25 28  1  0
 26 29  1  0
 26 30  2  0
 49 50  2  0
 49 54  1  0
 50 51  1  0
 51 52  1  0
 51 53  2  0
 54 55  1  0
 54 56  2  0
  3 57  1  0
  3 58  1  0
  4 59  1  0
  4 60  1  0
  5 61  1  0
  7 62  1  0
  7 63  1  0
  8 64  1  0
  8 65  1  0
  9 66  1  0
  9 67  1  0
 11 68  1  0
 11 69  1  0
 12 70  1  0
 13 71  1  0
 13 72  1  0
 14 73  1  6
 15 74  1  0
 15 75  1  0
 16 76  1  0
 19 77  1  0
 20 78  1  0
 21 79  1  0
 22 80  1  0
 24 81  1  0
 27 82  1  0
 27 83  1  0
 28 84  1  0
 28 85  1  0
 29 86  1  0
 31 87  1  0
 31 88  1  0
 32 89  1  0
 32 90  1  0
 33 91  1  0
 33 92  1  0
 35 93  1  0
 35 94  1  0
 36 95  1  0
 37 96  1  0
 37 97  1  0
 38 98  1  6
 39 99  1  0
 39100  1  0
 40101  1  0
 43102  1  0
 44103  1  0
 45104  1  0
 46105  1  0
 48106  1  0
 49107  1  0
 50108  1  0
 52109  1  0
 55110  1  0
M  END
> <Uni-Dock RESULT> 
ENERGY=   -6.425  LOWER_BOUND=    3.376  UPPER_BOUND=    3.928
INTER + INTRA:          -6.425
INTER:                  -6.425
INTRA:                   0.000
UNBOUND:                 0.000

$$$$

     RDKit          3D

110111  0  0  0  0  0  0  0  0999 V2000
   45.2388    5.2420   12.5971 N   0  0  0  0  0  0  0  0  0  0  0  0
   46.4551    5.4092   13.2249 C   0  0  0  0  0  0  0  0  0  0  0  0
   44.3208    4.2239   13.1070 C   0  0  0  0  0  0  0  0  0  0  0  0
   44.6878    6.1201   11.5613 C   0  0  0  0  0  0  0  0  0  0  0  0
   47.2813    6.3298   12.6299 N   0  0  0  0  0  0  0  0  0  0  0  0
   46.7740    4.7886   14.2337 O   0  0  0  0  0  0  0  0  0  0  0  0
   43.3319    3.7882   12.0239 C   0  0  0  0  0  0  0  0  0  0  0  0
   43.1576    6.1543   11.6222 C   0  0  0  0  0  0  0  0  0  0  0  0
   48.6134    6.5678   13.1624 C   0  0  0  0  0  0  0  0  0  0  0  0
   42.5534    4.8628   11.4772 O   0  0  0  0  0  0  0  0  0  0  0  0
   48.5979    7.4019   14.4581 C   0  0  0  0  0  0  0  0  0  0  0  0
   49.9212    7.6499   15.0409 N   0  0  0  0  0  0  0  0  0  0  0  0
   50.7030    8.6513   14.3072 C   0  0  0  0  0  0  0  0  0  0  0  0
   52.1242    8.7829   14.8848 C   0  0  1  0  0  0  0  0  0  0  0  0
   52.1294    9.1849   16.3661 C   0  0  0  0  0  0  0  0  0  0  0  0
   52.8140    7.5312   14.7147 O   0  0  0  0  0  0  0  0  0  0  0  0
   53.4983    9.3970   16.7455 O   0  0  0  0  0  0  0  0  0  0  0  0
   53.7315    9.7343   18.0513 C   0  0  0  0  0  0  0  0  0  0  0  0
   55.0819    9.8917   18.3822 C   0  0  0  0  0  0  0  0  0  0  0  0
   52.7605    9.9255   19.0360 C   0  0  0  0  0  0  0  0  0  0  0  0
   55.4648   10.2319   19.6822 C   0  0  0  0  0  0  0  0  0  0  0  0
   53.1413   10.2675   20.3375 C   0  0  0  0  0  0  0  0  0  0  0  0
   54.4867   10.4164   20.6513 C   0  0  0  0  0  0  0  0  0  0  0  0
   54.8078   10.7473   21.9336 O   0  0  0  0  0  0  0  0  0  0  0  0
   52.9310    9.0489   17.7760 N   0  0  0  0  0  0  0  0  0  0  0  0
   51.8416    8.1965   17.6769 C   0  0  0  0  0  0  0  0  0  0  0  0
   54.2407    8.4176   17.9598 C   0  0  0  0  0  0  0  0  0  0  0  0
   52.9916   10.3461   17.0883 C   0  0  0  0  0  0  0  0  0  0  0  0
   50.6460    8.8288   17.4393 N   0  0  0  0  0  0  0  0  0  0  0  0
   51.9269    6.9782   17.7930 O   0  0  0  0  0  0  0  0  0  0  0  0
   55.2715    9.4006   18.5180 C   0  0  0  0  0  0  0  0  0  0  0  0
   54.0788   11.2486   17.6787 C   0  0  0  0  0  0  0  0  0  0  0  0
   49.4125    8.0541   17.3587 C   0  0  0  0  0  0  0  0  0  0  0  0
   55.3485   10.5836   17.7083 O   0  0  0  0  0  0  0  0  0  0  0  0
   49.3075    7.2189   16.0670 C   0  0  0  0  0  0  0  0  0  0  0  0
   49.4672    8.0825   14.8816 N   0  0  0  0  0  0  0  0  0  0  0  0
   49.6797    7.3039   13.6441 C   0  0  0  0  0  0  0  0  0  0  0  0
   48.3639    6.9504   12.9159 C   0  0  1  0  0  0  0  0  0  0  0  0
   47.6202    5.7627   13.5429 C   0  0  0  0  0  0  0  0  0  0  0  0
   47.5315    8.1251   12.9366 O   0  0  0  0  0  0  0  0  0  0  0  0
   46.9659    4.9816   12.5321 O   0  0  0  0  0  0  0  0  0  0  0  0
   45.6264    5.1473   12.3285 C   0  0  0  0  0  0  0  0  0  0  0  0
   44.8623    6.2439   12.7253 C   0  0  0  0  0  0  0  0  0  0  0  0
   45.0114    4.1076   11.6232 C   0  0  0  0  0  0  0  0  0  0  0  0
   43.4932    6.2933   12.4370 C   0  0  0  0  0  0  0  0  0  0  0  0
   43.6460    4.1513   11.3357 C   0  0  0  0  0  0  0  0  0  0  0  0
   42.8960    5.2438   11.7473 C   0  0  0  0  0  0  0  0  0  0  0  0
   41.5661    5.2541   11.4487 O   0  0  0  0  0  0  0  0  0  0  0  0
   50.1769    7.5305   14.9105 C   0  0  0  0  0  0  0  0  0  0  0  0
   48.8682    7.2473   14.9052 C   0  0  0  0  0  0  0  0  0  0  0  0
   48.2368    6.8232   13.6551 C   0  0  0  0  0  0  0  0  0  0  0  0
   46.9314    6.5871   13.8513 O   0  0  0  0  0  0  0  0  0  0  0  0
   48.7678    6.6877   12.5703 O   0  0  0  0  0  0  0  0  0  0  0  0
   50.8082    7.9548   16.1608 C   0  0  0  0  0  0  0  0  0  0  0  0
   52.1135    8.1908   15.9643 O   0  0  0  0  0  0  0  0  0  0  0  0
   50.2766    8.0899   17.2455 O   0  0  0  0  0  0  0  0  0  0  0  0
   43.7859    4.6740   13.9513 H   0  0  0  0  0  0  0  0  0  0  0  0
   44.8846    3.3627   13.4805 H   0  0  0  0  0  0  0  0  0  0  0  0
   45.0897    7.1326   11.6660 H   0  0  0  0  0  0  0  0  0  0  0  0
   45.0160    5.7088   10.6002 H   0  0  0  0  0  0  0  0  0  0  0  0
   47.2052    6.3500   11.6254 H   0  0  0  0  0  0  0  0  0  0  0  0
   42.6351    3.0442   12.4228 H   0  0  0  0  0  0  0  0  0  0  0  0
   43.8676    3.3202   11.1907 H   0  0  0  0  0  0  0  0  0  0  0  0
   42.7622    6.7945   10.8270 H   0  0  0  0  0  0  0  0  0  0  0  0
   42.8224    6.5738   12.5778 H   0  0  0  0  0  0  0  0  0  0  0  0
   49.1663    7.0914   12.3769 H   0  0  0  0  0  0  0  0  0  0  0  0
   49.1005    5.6008   13.3326 H   0  0  0  0  0  0  0  0  0  0  0  0
   48.0089    6.8743   15.2162 H   0  0  0  0  0  0  0  0  0  0  0  0
   48.0739    8.3510   14.2894 H   0  0  0  0  0  0  0  0  0  0  0  0
   50.4582    6.7775   15.0648 H   0  0  0  0  0  0  0  0  0  0  0  0
   50.7925    8.3587   13.2554 H   0  0  0  0  0  0  0  0  0  0  0  0
   50.1983    9.6232   14.3538 H   0  0  0  0  0  0  0  0  0  0  0  0
   52.6834    9.5236   14.3020 H   0  0  0  0  0  0  0  0  0  0  0  0
   51.5578   10.1103   16.5001 H   0  0  0  0  0  0  0  0  0  0  0  0
   51.7145    8.3743   16.9765 H   0  0  0  0  0  0  0  0  0  0  0  0
   53.6170    7.5968   15.2666 H   0  0  0  0  0  0  0  0  0  0  0  0
   55.8433    9.7431   17.6204 H   0  0  0  0  0  0  0  0  0  0  0  0
   51.7006    9.8164   18.8304 H   0  0  0  0  0  0  0  0  0  0  0  0
   56.5190   10.3445   19.9139 H   0  0  0  0  0  0  0  0  0  0  0  0
   52.3870   10.4171   21.1060 H   0  0  0  0  0  0  0  0  0  0  0  0
   55.7746   10.8096   22.0048 H   0  0  0  0  0  0  0  0  0  0  0  0
   54.1535    7.5517   18.6241 H   0  0  0  0  0  0  0  0  0  0  0  0
   54.5600    8.0592   16.9735 H   0  0  0  0  0  0  0  0  0  0  0  0
   53.2162   10.1269   16.0370 H   0  0  0  0  0  0  0  0  0  0  0  0
   52.0296   10.8630   17.1197 H   0  0  0  0  0  0  0  0  0  0  0  0
   50.5606    9.7044   17.9325 H   0  0  0  0  0  0  0  0  0  0  0  0
   56.2630    8.9370   18.5288 H   0  0  0  0  0  0  0  0  0  0  0  0
   55.0237    9.6889   19.5466 H   0  0  0  0  0  0  0  0  0  0  0  0
   54.1882   12.1497   17.0674 H   0  0  0  0  0  0  0  0  0  0  0  0
   53.8166   11.5640   18.6962 H   0  0  0  0  0  0  0  0  0  0  0  0
   49.3480    7.4014   18.2365 H   0  0  0  0  0  0  0  0  0  0  0  0
   48.5852    8.7711   17.4061 H   0  0  0  0  0  0  0  0  0  0  0  0
   48.3313    6.7280   16.0517 H   0  0  0  0  0  0  0  0  0  0  0  0
   50.0778    6.4403   16.0745 H   0  0  0  0  0  0  0  0  0  0  0  0
   50.3181    8.6280   15.0564 H   0  0  0  0  0  0  0  0  0  0  0  0
   50.3145    6.4240   13.8002 H   0  0  0  0  0  0  0  0  0  0  0  0
   50.2387    7.9683   12.9721 H   0  0  0  0  0  0  0  0  0  0  0  0
   48.5844    6.7368   11.8639 H   0  0  0  0  0  0  0  0  0  0  0  0
   46.9312    6.0612   14.3404 H   0  0  0  0  0  0  0  0  0  0  0  0
   48.3474    5.0758   13.9902 H   0  0  0  0  0  0  0  0  0  0  0  0
   47.8039    8.6004   13.7502 H   0  0  0  0  0  0  0  0  0  0  0  0
   45.3045    7.0894   13.2403 H   0  0  0  0  0  0  0  0  0  0  0  0
   45.6006    3.2542   11.2970 H   0  0  0  0  0  0  0  0  0  0  0  0
   42.9199    7.1599   12.7505 H   0  0  0  0  0  0  0  0  0  0  0  0
   43.1754    3.3387   10.7908 H   0  0  0  0  0  0  0  0  0  0  0  0
   41.1840    6.0825   11.7810 H   0  0  0  0  0  0  0  0  0  0  0  0
   50.7993    7.4610   14.0257 H   0  0  0  0  0  0  0  0  0  0  0  0
   48.2457    7.3168   15.7898 H   0  0  0  0  0  0  0  0  0  0  0  0
   46.6018    6.3130   12.9700 H   0  0  0  0  0  0  0  0  0  0  0  0
   52.4427    8.4649   16.8458 H   0  0  0  0  0  0  0  0  0  0  0  0
  3  7  1  0
  4  8  1  0
  5  9  1  0
  7 10  1  0
  9 11  1  0
 11 12  1  0
 12 13  1  0
 13 14  1  0
 14 15  1  0
 14 16  1  0
 15 17  1  0
 17 18  1  0
 18 19  2  0
 18 20  1  0
 19 21  1  0
 20 22  2  0
 21 23  2  0
 23 24  1  0
  8 10  1  0
 22 23  1  0
  1  2  1  0
  1  3  1  0
  1  4  1  0
  2  5  1  0
  2  6  2  0
 27 31  1  0
 28 32  1  0
 29 33  1  0
 31 34  1  0
 33 35  1  0
 35 36  1  0
 36 37  1  0
 37 38  1  0
 38 39  1  0
 38 40  1  0
 39 41  1  0
 41 42  1  0
 42 43  2  0
 42 44  1  0
 43 45  1  0
 44 46  2  0
 45 47  2  0
 47 48  1  0
 32 34  1  0
 46 47  1  0
 25 26  1  0
 25 27  1  0
 25 28  1  0
 26 29  1  0
 26 30  2  0
 49 50  2  0
 49 54  1  0
 50 51  1  0
 51 52  1  0
 51 53  2  0
 54 55  1  0
 54 56  2  0
  3 57  1  0
  3 58  1  0
  4 59  1  0
  4 60  1  0
  5 61  1  0
  7 62  1  0
  7 63  1  0
  8 64  1  0
  8 65  1  0
  9 66  1  0
  9 67  1  0
 11 68  1  0
 11 69  1  0
 12 70  1  0
 13 71  1  0
 13 72  1  0
 14 73  1  6
 15 74  1  0
 15 75  1  0
 16 76  1  0
 19 77  1  0
 20 78  1  0
 21 79  1  0
 22 80  1  0
 24 81  1  0
 27 82  1  0
 27 83  1  0
 28 84  1  0
 28 85  1  0
 29 86  1  0
 31 87  1  0
 31 88  1  0
 32 89  1  0
 32 90  1  0
 33 91  1  0
 33 92  1  0
 35 93  1  0
 35 94  1  0
 36 95  1  0
 37 96  1  0
 37 97  1  0
 38 98  1  6
 39 99  1  0
 39100  1  0
 40101  1  0
 43102  1  0
 44103  1  0
 45104  1  0
 46105  1  0
 48106  1  0
 49107  1  0
 50108  1  0
 52109  1  0
 55110  1  0
M  END
> <Uni-Dock RESULT> 
ENERGY=   -5.954  LOWER_BOUND=    3.026  UPPER_BOUND=    4.392
INTER + INTRA:          -5.954
INTER:                  -5.954
INTRA:                   0.000
UNBOUND:                 0.000

$$$$

     RDKit          3D

110111  0  0  0  0  0  0  0  0999 V2000
   41.1998   11.0139   11.2350 N   0  0  0  0  0  0  0  0  0  0  0  0
   42.5108   10.6229   11.0625 C   0  0  0  0  0  0  0  0  0  0  0  0
   40.1580    9.9873   11.2480 C   0  0  0  0  0  0  0  0  0  0  0  0
   40.7541   12.3634   11.5927 C   0  0  0  0  0  0  0  0  0  0  0  0
   43.4083   11.6585   10.9842 N   0  0  0  0  0  0  0  0  0  0  0  0
   42.8498    9.4465   10.9870 O   0  0  0  0  0  0  0  0  0  0  0  0
   38.7971   10.5855   10.8859 C   0  0  0  0  0  0  0  0  0  0  0  0
   39.4631   12.3191   12.4159 C   0  0  0  0  0  0  0  0  0  0  0  0
   44.8183   11.3874   10.7540 C   0  0  0  0  0  0  0  0  0  0  0  0
   38.3829   11.6577   11.7453 O   0  0  0  0  0  0  0  0  0  0  0  0
   45.5344   10.8464   12.0069 C   0  0  0  0  0  0  0  0  0  0  0  0
   46.9562   10.5409   11.8138 N   0  0  0  0  0  0  0  0  0  0  0  0
   47.8048   11.7355   11.7430 C   0  0  0  0  0  0  0  0  0  0  0  0
   49.2635   11.3656   11.4171 C   0  0  1  0  0  0  0  0  0  0  0  0
   49.8826   10.4178   12.4536 C   0  0  0  0  0  0  0  0  0  0  0  0
   49.3104   10.7615   10.1116 O   0  0  0  0  0  0  0  0  0  0  0  0
   51.2672   10.2545   12.1085 O   0  0  0  0  0  0  0  0  0  0  0  0
   52.0039    9.4111   12.8955 C   0  0  0  0  0  0  0  0  0  0  0  0
   53.3358    9.2538   12.4967 C   0  0  0  0  0  0  0  0  0  0  0  0
   51.5426    8.7257   14.0208 C   0  0  0  0  0  0  0  0  0  0  0  0
   54.2013    8.4184   13.2076 C   0  0  0  0  0  0  0  0  0  0  0  0
   52.4075    7.8901   14.7348 C   0  0  0  0  0  0  0  0  0  0  0  0
   53.7264    7.7413   14.3238 C   0  0  0  0  0  0  0  0  0  0  0  0
   54.5294    6.9140   15.0502 O   0  0  0  0  0  0  0  0  0  0  0  0
   50.9547    9.2142   12.6789 N   0  0  0  0  0  0  0  0  0  0  0  0
   49.6435    8.7733   12.5812 C   0  0  0  0  0  0  0  0  0  0  0  0
   51.8930    8.7033   11.6757 C   0  0  0  0  0  0  0  0  0  0  0  0
   51.3114   10.5412   13.1997 C   0  0  0  0  0  0  0  0  0  0  0  0
   48.7879    9.3292   13.5002 N   0  0  0  0  0  0  0  0  0  0  0  0
   49.2689    7.9534   11.7491 O   0  0  0  0  0  0  0  0  0  0  0  0
   53.3463    8.8536   12.1290 C   0  0  0  0  0  0  0  0  0  0  0  0
   52.7915   10.6181   13.5852 C   0  0  0  0  0  0  0  0  0  0  0  0
   47.3887    8.9183   13.5386 C   0  0  0  0  0  0  0  0  0  0  0  0
   53.6343   10.2102   12.4996 O   0  0  0  0  0  0  0  0  0  0  0  0
   46.5694    9.4542   12.3475 C   0  0  0  0  0  0  0  0  0  0  0  0
   46.6866   10.9223   12.2615 N   0  0  0  0  0  0  0  0  0  0  0  0
   46.1809   11.4518   10.9783 C   0  0  0  0  0  0  0  0  0  0  0  0
   44.6789   11.8110   11.0196 C   0  0  1  0  0  0  0  0  0  0  0  0
   43.7564   10.5911   10.8868 C   0  0  0  0  0  0  0  0  0  0  0  0
   44.4322   12.4875   12.2664 O   0  0  0  0  0  0  0  0  0  0  0  0
   42.5698   10.9283   10.1531 O   0  0  0  0  0  0  0  0  0  0  0  0
   41.4149   11.1767   10.8368 C   0  0  0  0  0  0  0  0  0  0  0  0
   41.3117   11.5057   12.1877 C   0  0  0  0  0  0  0  0  0  0  0  0
   40.2533   11.1149   10.0599 C   0  0  0  0  0  0  0  0  0  0  0  0
   40.0588   11.7522   12.7618 C   0  0  0  0  0  0  0  0  0  0  0  0
   39.0016   11.3575   10.6284 C   0  0  0  0  0  0  0  0  0  0  0  0
   38.9136   11.6721   11.9771 C   0  0  0  0  0  0  0  0  0  0  0  0
   37.6759   11.9041   12.4990 O   0  0  0  0  0  0  0  0  0  0  0  0
   47.0898   10.5768   11.5355 C   0  0  0  0  0  0  0  0  0  0  0  0
   45.8439   10.3983   11.9925 C   0  0  0  0  0  0  0  0  0  0  0  0
   44.7455   11.1409   11.3735 C   0  0  0  0  0  0  0  0  0  0  0  0
   43.5831   10.8291   11.9650 O   0  0  0  0  0  0  0  0  0  0  0  0
   44.8178   11.9355   10.4566 O   0  0  0  0  0  0  0  0  0  0  0  0
   48.1882    9.8341   12.1548 C   0  0  0  0  0  0  0  0  0  0  0  0
   49.3505   10.1461   11.5631 O   0  0  0  0  0  0  0  0  0  0  0  0
   48.1154    9.0394   13.0716 O   0  0  0  0  0  0  0  0  0  0  0  0
   40.1336    9.5736   12.2627 H   0  0  0  0  0  0  0  0  0  0  0  0
   40.4180    9.1792   10.5562 H   0  0  0  0  0  0  0  0  0  0  0  0
   41.5361   12.8883   12.1499 H   0  0  0  0  0  0  0  0  0  0  0  0
   40.5793   12.8918   10.6488 H   0  0  0  0  0  0  0  0  0  0  0  0
   43.0421   12.4753   10.5217 H   0  0  0  0  0  0  0  0  0  0  0  0
   38.0214    9.8140   10.9218 H   0  0  0  0  0  0  0  0  0  0  0  0
   38.8185   10.9796    9.8640 H   0  0  0  0  0  0  0  0  0  0  0  0
   39.1314   13.3352   12.6530 H   0  0  0  0  0  0  0  0  0  0  0  0
   39.6334   11.7999   13.3662 H   0  0  0  0  0  0  0  0  0  0  0  0
   45.2633   12.3358   10.4387 H   0  0  0  0  0  0  0  0  0  0  0  0
   44.9077   10.6784    9.9230 H   0  0  0  0  0  0  0  0  0  0  0  0
   45.0481    9.9172   12.3235 H   0  0  0  0  0  0  0  0  0  0  0  0
   45.4065   11.5431   12.8447 H   0  0  0  0  0  0  0  0  0  0  0  0
   47.0813   10.0062   10.9487 H   0  0  0  0  0  0  0  0  0  0  0  0
   47.4430   12.4051   10.9553 H   0  0  0  0  0  0  0  0  0  0  0  0
   47.7688   12.2734   12.6974 H   0  0  0  0  0  0  0  0  0  0  0  0
   49.8624   12.2812   11.3537 H   0  0  0  0  0  0  0  0  0  0  0  0
   49.7972   10.8572   13.4540 H   0  0  0  0  0  0  0  0  0  0  0  0
   49.3892    9.4399   12.4100 H   0  0  0  0  0  0  0  0  0  0  0  0
   50.2004   10.3664   10.0369 H   0  0  0  0  0  0  0  0  0  0  0  0
   53.7013    9.7839   11.6205 H   0  0  0  0  0  0  0  0  0  0  0  0
   50.5195    8.8144   14.3716 H   0  0  0  0  0  0  0  0  0  0  0  0
   55.2289    8.3108   12.8756 H   0  0  0  0  0  0  0  0  0  0  0  0
   52.0506    7.3554   15.6115 H   0  0  0  0  0  0  0  0  0  0  0  0
   55.4121    6.9041   14.6447 H   0  0  0  0  0  0  0  0  0  0  0  0
   51.6775    7.6525   11.4567 H   0  0  0  0  0  0  0  0  0  0  0  0
   51.7237    9.2835   10.7603 H   0  0  0  0  0  0  0  0  0  0  0  0
   51.0957   11.2557   12.3956 H   0  0  0  0  0  0  0  0  0  0  0  0
   50.6945   10.8149   14.0589 H   0  0  0  0  0  0  0  0  0  0  0  0
   49.2135    9.4557   14.4058 H   0  0  0  0  0  0  0  0  0  0  0  0
   54.0229    8.5782   11.3138 H   0  0  0  0  0  0  0  0  0  0  0  0
   53.5625    8.1983   12.9813 H   0  0  0  0  0  0  0  0  0  0  0  0
   53.0564   11.6477   13.8448 H   0  0  0  0  0  0  0  0  0  0  0  0
   53.0025    9.9878   14.4580 H   0  0  0  0  0  0  0  0  0  0  0  0
   47.3431    7.8237   13.5660 H   0  0  0  0  0  0  0  0  0  0  0  0
   46.9727    9.3000   14.4777 H   0  0  0  0  0  0  0  0  0  0  0  0
   45.5254    9.1631   12.4878 H   0  0  0  0  0  0  0  0  0  0  0  0
   46.9284    8.9911   11.4222 H   0  0  0  0  0  0  0  0  0  0  0  0
   47.6928   11.1167   12.3039 H   0  0  0  0  0  0  0  0  0  0  0  0
   46.4281   10.8076   10.1265 H   0  0  0  0  0  0  0  0  0  0  0  0
   46.7219   12.3933   10.8162 H   0  0  0  0  0  0  0  0  0  0  0  0
   44.4617   12.5293   10.2209 H   0  0  0  0  0  0  0  0  0  0  0  0
   43.5242   10.1227   11.8493 H   0  0  0  0  0  0  0  0  0  0  0  0
   44.2498    9.8296   10.2723 H   0  0  0  0  0  0  0  0  0  0  0  0
   45.1065   12.1217   12.8777 H   0  0  0  0  0  0  0  0  0  0  0  0
   42.1881   11.6023   12.8186 H   0  0  0  0  0  0  0  0  0  0  0  0
   40.3235   10.8729    9.0024 H   0  0  0  0  0  0  0  0  0  0  0  0
   40.0037   12.0125   13.8140 H   0  0  0  0  0  0  0  0  0  0  0  0
   38.1045   11.3042   10.0194 H   0  0  0  0  0  0  0  0  0  0  0  0
   37.7766   12.1284   13.4382 H   0  0  0  0  0  0  0  0  0  0  0  0
   47.3287   11.2512   10.7212 H   0  0  0  0  0  0  0  0  0  0  0  0
   45.6049    9.7240   12.8067 H   0  0  0  0  0  0  0  0  0  0  0  0
   42.9185   11.3686   11.4879 H   0  0  0  0  0  0  0  0  0  0  0  0
   50.0148    9.6063   12.0405 H   0  0  0  0  0  0  0  0  0  0  0  0
  3  7  1  0
  4  8  1  0
  5  9  1  0
  7 10  1  0
  9 11  1  0
 11 12  1  0
 12 13  1  0
 13 14  1  0
 14 15  1  0
 14 16  1  0
 15 17  1  0
 17 18  1  0
 18 19  2  0
 18 20  1  0
 19 21  1  0
 20 22  2  0
 21 23  2  0
 23 24  1  0
  8 10  1  0
 22 23  1  0
  1  2  1  0
  1  3  1  0
  1  4  1  0
  2  5  1  0
  2  6  2  0
 27 31  1  0
 28 32  1  0
 29 33  1  0
 31 34  1  0
 33 35  1  0
 35 36  1  0
 36 37  1  0
 37 38  1  0
 38 39  1  0
 38 40  1  0
 39 41  1  0
 41 42  1  0
 42 43  2  0
 42 44  1  0
 43 45  1  0
 44 46  2  0
 45 47  2  0
 47 48  1  0
 32 34  1  0
 46 47  1  0
 25 26  1  0
 25 27  1  0
 25 28  1  0
 26 29  1  0
 26 30  2  0
 49 50  2  0
 49 54  1  0
 50 51  1  0
 51 52  1  0
 51 53  2  0
 54 55  1  0
 54 56  2  0
  3 57  1  0
  3 58  1  0
  4 59  1  0
  4 60  1  0
  5 61  1  0
  7 62  1  0
  7 63  1  0
  8 64  1  0
  8 65  1  0
  9 66  1  0
  9 67  1  0
 11 68  1  0
 11 69  1  0
 12 70  1  0
 13 71  1  0
 13 72  1  0
 14 73  1  6
 15 74  1  0
 15 75  1  0
 16 76  1  0
 19 77  1  0
 20 78  1  0
 21 79  1  0
 22 80  1  0
 24 81  1  0
 27 82  1  0
 27 83  1  0
 28 84  1  0
 28 85  1  0
 29 86  1  0
 31 87  1  0
 31 88  1  0
 32 89  1  0
 32 90  1  0
 33 91  1  0
 33 92  1  0
 35 93  1  0
 35 94  1  0
 36 95  1  0
 37 96  1  0
 37 97  1  0
 38 98  1  6
 39 99  1  0
 39100  1  0
 40101  1  0
 43102  1  0
 44103  1  0
 45104  1  0
 46105  1  0
 48106  1  0
 49107  1  0
 50108  1  0
 52109  1  0
 55110  1  0
M  END
> <Uni-Dock RESULT> 
ENERGY=   -5.658  LOWER_BOUND=    4.639  UPPER_BOUND=    5.911
INTER + INTRA:          -5.658
INTER:                  -5.658
INTRA:                   0.000
UNBOUND:                 0.000

$$$$

     RDKit          3D

110111  0  0  0  0  0  0  0  0999 V2000
   48.3038    5.2626   17.8426 N   0  0  0  0  0  0  0  0  0  0  0  0
   48.2453    6.5661   18.2889 C   0  0  0  0  0  0  0  0  0  0  0  0
   48.1913    5.0077   16.4068 C   0  0  0  0  0  0  0  0  0  0  0  0
   48.6534    4.0978   18.6603 C   0  0  0  0  0  0  0  0  0  0  0  0
   48.2794    6.7024   19.6543 N   0  0  0  0  0  0  0  0  0  0  0  0
   48.1710    7.5266   17.5297 O   0  0  0  0  0  0  0  0  0  0  0  0
   47.7186    3.5769   16.1414 C   0  0  0  0  0  0  0  0  0  0  0  0
   49.3499    3.0223   17.8210 C   0  0  0  0  0  0  0  0  0  0  0  0
   48.1760    8.0206   20.2597 C   0  0  0  0  0  0  0  0  0  0  0  0
   48.5632    2.5671   16.7129 O   0  0  0  0  0  0  0  0  0  0  0  0
   49.4760    8.8387   20.1340 C   0  0  0  0  0  0  0  0  0  0  0  0
   49.4098   10.1840   20.7152 N   0  0  0  0  0  0  0  0  0  0  0  0
   49.4509   10.1883   22.1817 C   0  0  0  0  0  0  0  0  0  0  0  0
   49.2543   11.6090   22.7416 C   0  0  1  0  0  0  0  0  0  0  0  0
   50.3190   12.5967   22.2450 C   0  0  0  0  0  0  0  0  0  0  0  0
   47.9434   12.0770   22.3751 O   0  0  0  0  0  0  0  0  0  0  0  0
   50.1017   13.8390   22.9323 O   0  0  0  0  0  0  0  0  0  0  0  0
   50.9321   14.8774   22.6073 C   0  0  0  0  0  0  0  0  0  0  0  0
   50.6566   16.0767   23.2735 C   0  0  0  0  0  0  0  0  0  0  0  0
   51.9904   14.8290   21.6982 C   0  0  0  0  0  0  0  0  0  0  0  0
   51.4235   17.2200   23.0347 C   0  0  0  0  0  0  0  0  0  0  0  0
   52.7603   15.9717   21.4587 C   0  0  0  0  0  0  0  0  0  0  0  0
   52.4717   17.1562   22.1252 C   0  0  0  0  0  0  0  0  0  0  0  0
   53.2483   18.2430   21.8559 O   0  0  0  0  0  0  0  0  0  0  0  0
   50.6124   14.1510   21.8614 N   0  0  0  0  0  0  0  0  0  0  0  0
   50.3799   13.3451   20.7570 C   0  0  0  0  0  0  0  0  0  0  0  0
   49.6889   15.2716   22.0592 C   0  0  0  0  0  0  0  0  0  0  0  0
   51.1995   13.6420   23.1086 C   0  0  0  0  0  0  0  0  0  0  0  0
   51.2286   12.2709   20.6496 N   0  0  0  0  0  0  0  0  0  0  0  0
   49.4948   13.5655   19.9366 O   0  0  0  0  0  0  0  0  0  0  0  0
   50.2810   16.3393   22.9811 C   0  0  0  0  0  0  0  0  0  0  0  0
   51.7246   14.7780   23.9911 C   0  0  0  0  0  0  0  0  0  0  0  0
   51.1241   11.3676   19.5089 C   0  0  0  0  0  0  0  0  0  0  0  0
   50.7128   15.7665   24.2245 O   0  0  0  0  0  0  0  0  0  0  0  0
   49.8756   10.4646   19.5664 C   0  0  0  0  0  0  0  0  0  0  0  0
   49.8400    9.7166   20.8375 N   0  0  0  0  0  0  0  0  0  0  0  0
   48.5294    9.0782   21.0769 C   0  0  0  0  0  0  0  0  0  0  0  0
   48.4384    7.6459   20.5050 C   0  0  1  0  0  0  0  0  0  0  0  0
   48.1870    7.6087   18.9910 C   0  0  0  0  0  0  0  0  0  0  0  0
   49.6739    6.9772   20.8204 O   0  0  0  0  0  0  0  0  0  0  0  0
   47.3540    6.4936   18.6410 O   0  0  0  0  0  0  0  0  0  0  0  0
   47.9320    5.3681   18.1291 C   0  0  0  0  0  0  0  0  0  0  0  0
   49.2755    5.0106   18.2355 C   0  0  0  0  0  0  0  0  0  0  0  0
   47.0478    4.5066   17.4714 C   0  0  0  0  0  0  0  0  0  0  0  0
   49.7353    3.8133   17.6741 C   0  0  0  0  0  0  0  0  0  0  0  0
   47.5021    3.3130   16.9079 C   0  0  0  0  0  0  0  0  0  0  0  0
   48.8442    2.9762   17.0114 C   0  0  0  0  0  0  0  0  0  0  0  0
   49.2531    1.8030   16.4509 O   0  0  0  0  0  0  0  0  0  0  0  0
   49.1463   10.2892   20.8423 C   0  0  0  0  0  0  0  0  0  0  0  0
   49.4790    9.3505   19.9472 C   0  0  0  0  0  0  0  0  0  0  0  0
   48.7791    8.0656   19.9698 C   0  0  0  0  0  0  0  0  0  0  0  0
   49.2500    7.2637   19.0037 O   0  0  0  0  0  0  0  0  0  0  0  0
   47.8945    7.7216   20.7289 O   0  0  0  0  0  0  0  0  0  0  0  0
   49.8465   11.5741   20.8196 C   0  0  0  0  0  0  0  0  0  0  0  0
   49.3755   12.3758   21.7859 O   0  0  0  0  0  0  0  0  0  0  0  0
   50.7310   11.9176   20.0601 O   0  0  0  0  0  0  0  0  0  0  0  0
   49.1879    5.1644   15.9782 H   0  0  0  0  0  0  0  0  0  0  0  0
   47.5060    5.7291   15.9495 H   0  0  0  0  0  0  0  0  0  0  0  0
   49.2956    4.3963   19.4947 H   0  0  0  0  0  0  0  0  0  0  0  0
   47.7116    3.7084   19.0627 H   0  0  0  0  0  0  0  0  0  0  0  0
   47.8062    5.9608   20.1456 H   0  0  0  0  0  0  0  0  0  0  0  0
   47.6608    3.3896   15.0645 H   0  0  0  0  0  0  0  0  0  0  0  0
   46.7140    3.4295   16.5527 H   0  0  0  0  0  0  0  0  0  0  0  0
   49.5815    2.1504   18.4413 H   0  0  0  0  0  0  0  0  0  0  0  0
   50.2979    3.4024   17.4230 H   0  0  0  0  0  0  0  0  0  0  0  0
   47.9292    7.8539   21.3124 H   0  0  0  0  0  0  0  0  0  0  0  0
   47.3386    8.5544   19.7959 H   0  0  0  0  0  0  0  0  0  0  0  0
   49.7207    8.9607   19.0732 H   0  0  0  0  0  0  0  0  0  0  0  0
   50.3162    8.2802   20.5652 H   0  0  0  0  0  0  0  0  0  0  0  0
   48.5464   10.6483   20.4166 H   0  0  0  0  0  0  0  0  0  0  0  0
   48.6506    9.5554   22.5800 H   0  0  0  0  0  0  0  0  0  0  0  0
   50.4116    9.7892   22.5272 H   0  0  0  0  0  0  0  0  0  0  0  0
   49.2718   11.5709   23.8367 H   0  0  0  0  0  0  0  0  0  0  0  0
   51.3182   12.2116   22.4783 H   0  0  0  0  0  0  0  0  0  0  0  0
   50.2032   12.7634   21.1677 H   0  0  0  0  0  0  0  0  0  0  0  0
   47.9425   13.0341   22.5691 H   0  0  0  0  0  0  0  0  0  0  0  0
   49.8330   16.1216   23.9821 H   0  0  0  0  0  0  0  0  0  0  0  0
   52.2453   13.9236   21.1569 H   0  0  0  0  0  0  0  0  0  0  0  0
   51.1870   18.1387   23.5617 H   0  0  0  0  0  0  0  0  0  0  0  0
   53.5850   15.9364   20.7512 H   0  0  0  0  0  0  0  0  0  0  0  0
   52.9277   18.9919   22.3851 H   0  0  0  0  0  0  0  0  0  0  0  0
   49.4228   15.7173   21.0952 H   0  0  0  0  0  0  0  0  0  0  0  0
   48.7773   14.8549   22.5049 H   0  0  0  0  0  0  0  0  0  0  0  0
   50.3978   13.1030   23.6287 H   0  0  0  0  0  0  0  0  0  0  0  0
   52.0037   12.9289   22.9126 H   0  0  0  0  0  0  0  0  0  0  0  0
   52.1734   12.4881   20.9281 H   0  0  0  0  0  0  0  0  0  0  0  0
   49.5261   17.0992   23.2066 H   0  0  0  0  0  0  0  0  0  0  0  0
   51.1322   16.8414   22.5059 H   0  0  0  0  0  0  0  0  0  0  0  0
   52.0352   14.3823   24.9630 H   0  0  0  0  0  0  0  0  0  0  0  0
   52.5964   15.2602   23.5318 H   0  0  0  0  0  0  0  0  0  0  0  0
   51.1181   11.9615   18.5880 H   0  0  0  0  0  0  0  0  0  0  0  0
   52.0295   10.7505   19.5101 H   0  0  0  0  0  0  0  0  0  0  0  0
   49.9093    9.7748   18.7195 H   0  0  0  0  0  0  0  0  0  0  0  0
   48.9764   11.0815   19.4651 H   0  0  0  0  0  0  0  0  0  0  0  0
   49.9822   10.4203   21.5701 H   0  0  0  0  0  0  0  0  0  0  0  0
   47.6879    9.7042   20.7581 H   0  0  0  0  0  0  0  0  0  0  0  0
   48.4439    8.9840   22.1674 H   0  0  0  0  0  0  0  0  0  0  0  0
   47.6421    7.1031   21.0269 H   0  0  0  0  0  0  0  0  0  0  0  0
   49.1106    7.6312   18.4026 H   0  0  0  0  0  0  0  0  0  0  0  0
   47.6017    8.4882   18.6997 H   0  0  0  0  0  0  0  0  0  0  0  0
   50.3361    7.6996   20.8624 H   0  0  0  0  0  0  0  0  0  0  0  0
   49.9885    5.6290   18.7691 H   0  0  0  0  0  0  0  0  0  0  0  0
   45.9955    4.7689   17.3946 H   0  0  0  0  0  0  0  0  0  0  0  0
   50.7841    3.5531   17.7747 H   0  0  0  0  0  0  0  0  0  0  0  0
   46.8100    2.6513   16.3960 H   0  0  0  0  0  0  0  0  0  0  0  0
   50.2033    1.6973   16.6202 H   0  0  0  0  0  0  0  0  0  0  0  0
   48.3763   10.1439   21.5913 H   0  0  0  0  0  0  0  0  0  0  0  0
   50.2490    9.4956   19.1983 H   0  0  0  0  0  0  0  0  0  0  0  0
   48.7268    6.4404   19.0987 H   0  0  0  0  0  0  0  0  0  0  0  0
   49.8989   13.1990   21.6905 H   0  0  0  0  0  0  0  0  0  0  0  0
  3  7  1  0
  4  8  1  0
  5  9  1  0
  7 10  1  0
  9 11  1  0
 11 12  1  0
 12 13  1  0
 13 14  1  0
 14 15  1  0
 14 16  1  0
 15 17  1  0
 17 18  1  0
 18 19  2  0
 18 20  1  0
 19 21  1  0
 20 22  2  0
 21 23  2  0
 23 24  1  0
  8 10  1  0
 22 23  1  0
  1  2  1  0
  1  3  1  0
  1  4  1  0
  2  5  1  0
  2  6  2  0
 27 31  1  0
 28 32  1  0
 29 33  1  0
 31 34  1  0
 33 35  1  0
 35 36  1  0
 36 37  1  0
 37 38  1  0
 38 39  1  0
 38 40  1  0
 39 41  1  0
 41 42  1  0
 42 43  2  0
 42 44  1  0
 43 45  1  0
 44 46  2  0
 45 47  2  0
 47 48  1  0
 32 34  1  0
 46 47  1  0
 25 26  1  0
 25 27  1  0
 25 28  1  0
 26 29  1  0
 26 30  2  0
 49 50  2  0
 49 54  1  0
 50 51  1  0
 51 52  1  0
 51 53  2  0
 54 55  1  0
 54 56  2  0
  3 57  1  0
  3 58  1  0
  4 59  1  0
  4 60  1  0
  5 61  1  0
  7 62  1  0
  7 63  1  0
  8 64  1  0
  8 65  1  0
  9 66  1  0
  9 67  1  0
 11 68  1  0
 11 69  1  0
 12 70  1  0
 13 71  1  0
 13 72  1  0
 14 73  1  6
 15 74  1  0
 15 75  1  0
 16 76  1  0
 19 77  1  0
 20 78  1  0
 21 79  1  0
 22 80  1  0
 24 81  1  0
 27 82  1  0
 27 83  1  0
 28 84  1  0
 28 85  1  0
 29 86  1  0
 31 87  1  0
 31 88  1  0
 32 89  1  0
 32 90  1  0
 33 91  1  0
 33 92  1  0
 35 93  1  0
 35 94  1  0
 36 95  1  0
 37 96  1  0
 37 97  1  0
 38 98  1  6
 39 99  1  0
 39100  1  0
 40101  1  0
 43102  1  0
 44103  1  0
 45104  1  0
 46105  1  0
 48106  1  0
 49107  1  0
 50108  1  0
 52109  1  0
 55110  1  0
M  END
> <Uni-Dock RESULT> 
ENERGY=   -5.111  LOWER_BOUND=    7.471  UPPER_BOUND=    8.914
INTER + INTRA:          -5.111
INTER:                  -5.111
INTRA:                   0.000
UNBOUND:                 0.000

$$$$

     RDKit          3D

110111  0  0  0  0  0  0  0  0999 V2000
   53.5275   10.3178    9.4483 N   0  0  0  0  0  0  0  0  0  0  0  0
   52.7657   10.1892   10.5904 C   0  0  0  0  0  0  0  0  0  0  0  0
   54.6845   11.2122    9.4744 C   0  0  0  0  0  0  0  0  0  0  0  0
   53.3978    9.4963    8.2416 C   0  0  0  0  0  0  0  0  0  0  0  0
   51.6572    9.3921   10.4488 N   0  0  0  0  0  0  0  0  0  0  0  0
   53.0541   10.7395   11.6480 O   0  0  0  0  0  0  0  0  0  0  0  0
   55.0564   11.6658    8.0613 C   0  0  0  0  0  0  0  0  0  0  0  0
   54.7463    9.3390    7.5324 C   0  0  0  0  0  0  0  0  0  0  0  0
   50.7406    9.2108   11.5630 C   0  0  0  0  0  0  0  0  0  0  0  0
   55.3414   10.5878    7.1577 O   0  0  0  0  0  0  0  0  0  0  0  0
   51.2965    8.2649   12.6453 C   0  0  0  0  0  0  0  0  0  0  0  0
   50.4111    8.0684   13.7983 N   0  0  0  0  0  0  0  0  0  0  0  0
   49.2639    7.2002   13.5112 C   0  0  0  0  0  0  0  0  0  0  0  0
   48.3043    7.1272   14.7131 C   0  0  1  0  0  0  0  0  0  0  0  0
   48.9816    6.5955   15.9836 C   0  0  0  0  0  0  0  0  0  0  0  0
   47.7642    8.4386   14.9583 O   0  0  0  0  0  0  0  0  0  0  0  0
   47.9610    6.4563   16.9845 O   0  0  0  0  0  0  0  0  0  0  0  0
   48.3625    6.0222   18.2189 C   0  0  0  0  0  0  0  0  0  0  0  0
   47.3401    5.9403   19.1707 C   0  0  0  0  0  0  0  0  0  0  0  0
   49.6633    5.6691   18.5822 C   0  0  0  0  0  0  0  0  0  0  0  0
   47.6090    5.5153   20.4743 C   0  0  0  0  0  0  0  0  0  0  0  0
   49.9345    5.2420   19.8860 C   0  0  0  0  0  0  0  0  0  0  0  0
   48.9091    5.1697   20.8208 C   0  0  0  0  0  0  0  0  0  0  0  0
   49.2237    4.7508   22.0788 O   0  0  0  0  0  0  0  0  0  0  0  0
   48.9957    6.6658   17.6096 N   0  0  0  0  0  0  0  0  0  0  0  0
   49.9836    7.4371   17.0161 C   0  0  0  0  0  0  0  0  0  0  0  0
   48.0242    7.3771   18.4451 C   0  0  0  0  0  0  0  0  0  0  0  0
   48.4613    5.4441   16.9921 C   0  0  0  0  0  0  0  0  0  0  0  0
   50.8298    6.7384   16.1907 N   0  0  0  0  0  0  0  0  0  0  0  0
   50.1026    8.6430   17.2075 O   0  0  0  0  0  0  0  0  0  0  0  0
   47.2976    6.4304   19.4022 C   0  0  0  0  0  0  0  0  0  0  0  0
   47.7107    4.5788   18.0084 C   0  0  0  0  0  0  0  0  0  0  0  0
   51.9427    7.4197   15.5384 C   0  0  0  0  0  0  0  0  0  0  0  0
   46.7020    5.3344   18.6917 O   0  0  0  0  0  0  0  0  0  0  0  0
   51.4929    8.3570   14.3999 C   0  0  0  0  0  0  0  0  0  0  0  0
   50.6771    7.6182   13.4174 N   0  0  0  0  0  0  0  0  0  0  0  0
   49.9732    8.5187   12.4814 C   0  0  0  0  0  0  0  0  0  0  0  0
   50.7926    8.8337   11.2101 C   0  0  1  0  0  0  0  0  0  0  0  0
   51.8753    9.8994   11.4311 C   0  0  0  0  0  0  0  0  0  0  0  0
   51.3912    7.6012   10.7676 O   0  0  0  0  0  0  0  0  0  0  0  0
   52.0320   10.7154   10.2608 O   0  0  0  0  0  0  0  0  0  0  0  0
   53.0713   10.4658    9.4119 C   0  0  0  0  0  0  0  0  0  0  0  0
   53.8041    9.2824    9.3324 C   0  0  0  0  0  0  0  0  0  0  0  0
   53.3728   11.5141    8.5362 C   0  0  0  0  0  0  0  0  0  0  0  0
   54.8405    9.1537    8.4000 C   0  0  0  0  0  0  0  0  0  0  0  0
   54.4069   11.3913    7.6065 C   0  0  0  0  0  0  0  0  0  0  0  0
   55.1353   10.2117    7.5471 C   0  0  0  0  0  0  0  0  0  0  0  0
   56.1370   10.1257    6.6267 O   0  0  0  0  0  0  0  0  0  0  0  0
   50.1395    8.2184   13.8172 C   0  0  0  0  0  0  0  0  0  0  0  0
   51.2995    8.3992   13.1733 C   0  0  0  0  0  0  0  0  0  0  0  0
   51.2793    8.8839   11.7927 C   0  0  0  0  0  0  0  0  0  0  0  0
   52.5300    9.0000   11.3233 O   0  0  0  0  0  0  0  0  0  0  0  0
   50.3032    9.1567   11.1218 O   0  0  0  0  0  0  0  0  0  0  0  0
   50.1599    7.7336   15.1978 C   0  0  0  0  0  0  0  0  0  0  0  0
   48.9090    7.6175   15.6670 O   0  0  0  0  0  0  0  0  0  0  0  0
   51.1363    7.4610   15.8684 O   0  0  0  0  0  0  0  0  0  0  0  0
   55.5108   10.6482    9.9225 H   0  0  0  0  0  0  0  0  0  0  0  0
   54.4764   12.0773   10.1126 H   0  0  0  0  0  0  0  0  0  0  0  0
   52.9889    8.5126    8.4919 H   0  0  0  0  0  0  0  0  0  0  0  0
   52.6885   10.0164    7.5881 H   0  0  0  0  0  0  0  0  0  0  0  0
   51.2279    9.4564    9.5395 H   0  0  0  0  0  0  0  0  0  0  0  0
   55.9372   12.3151    8.0903 H   0  0  0  0  0  0  0  0  0  0  0  0
   54.2369   12.2466    7.6241 H   0  0  0  0  0  0  0  0  0  0  0  0
   54.6266    8.7441    6.6211 H   0  0  0  0  0  0  0  0  0  0  0  0
   55.4580    8.8108    8.1774 H   0  0  0  0  0  0  0  0  0  0  0  0
   49.8190    8.8040   11.1362 H   0  0  0  0  0  0  0  0  0  0  0  0
   50.5108   10.1932   11.9912 H   0  0  0  0  0  0  0  0  0  0  0  0
   52.2363    8.6754   13.0306 H   0  0  0  0  0  0  0  0  0  0  0  0
   51.5609    7.2973   12.2008 H   0  0  0  0  0  0  0  0  0  0  0  0
   50.0559    8.9739   14.1207 H   0  0  0  0  0  0  0  0  0  0  0  0
   48.7032    7.5921   12.6557 H   0  0  0  0  0  0  0  0  0  0  0  0
   49.6147    6.1920   13.2621 H   0  0  0  0  0  0  0  0  0  0  0  0
   47.4526    6.4872   14.4564 H   0  0  0  0  0  0  0  0  0  0  0  0
   49.4383    5.6205   15.7789 H   0  0  0  0  0  0  0  0  0  0  0  0
   49.7300    7.3136   16.3388 H   0  0  0  0  0  0  0  0  0  0  0  0
   47.3336    8.3858   15.8333 H   0  0  0  0  0  0  0  0  0  0  0  0
   46.3249    6.2149   18.8948 H   0  0  0  0  0  0  0  0  0  0  0  0
   50.4907    5.7142   17.8814 H   0  0  0  0  0  0  0  0  0  0  0  0
   46.7990    5.4639   21.1948 H   0  0  0  0  0  0  0  0  0  0  0  0
   50.9467    4.9663   20.1712 H   0  0  0  0  0  0  0  0  0  0  0  0
   48.4161    4.7570   22.6186 H   0  0  0  0  0  0  0  0  0  0  0  0
   48.5220    8.1705   19.0120 H   0  0  0  0  0  0  0  0  0  0  0  0
   47.3044    7.8462   17.7631 H   0  0  0  0  0  0  0  0  0  0  0  0
   47.7759    5.7734   16.2012 H   0  0  0  0  0  0  0  0  0  0  0  0
   49.2505    4.8538   16.5205 H   0  0  0  0  0  0  0  0  0  0  0  0
   51.0480    5.8181   16.5409 H   0  0  0  0  0  0  0  0  0  0  0  0
   46.4976    6.9662   19.9229 H   0  0  0  0  0  0  0  0  0  0  0  0
   47.9842    6.0327   20.1591 H   0  0  0  0  0  0  0  0  0  0  0  0
   47.2159    3.7473   17.4971 H   0  0  0  0  0  0  0  0  0  0  0  0
   48.4013    4.1540   18.7474 H   0  0  0  0  0  0  0  0  0  0  0  0
   52.5018    7.9842   16.2932 H   0  0  0  0  0  0  0  0  0  0  0  0
   52.6010    6.6398   15.1397 H   0  0  0  0  0  0  0  0  0  0  0  0
   52.3838    8.7705   13.9209 H   0  0  0  0  0  0  0  0  0  0  0  0
   50.9176    9.1888   14.8202 H   0  0  0  0  0  0  0  0  0  0  0  0
   49.9667    7.1264   13.9703 H   0  0  0  0  0  0  0  0  0  0  0  0
   49.5992    9.4274   12.9672 H   0  0  0  0  0  0  0  0  0  0  0  0
   49.0865    7.9624   12.1503 H   0  0  0  0  0  0  0  0  0  0  0  0
   50.1098    9.1573   10.4164 H   0  0  0  0  0  0  0  0  0  0  0  0
   52.8287    9.4783   11.7680 H   0  0  0  0  0  0  0  0  0  0  0  0
   51.5427   10.5975   12.2077 H   0  0  0  0  0  0  0  0  0  0  0  0
   51.5020    7.0773   11.5893 H   0  0  0  0  0  0  0  0  0  0  0  0
   53.5804    8.4307    9.9649 H   0  0  0  0  0  0  0  0  0  0  0  0
   52.7987   12.4362    8.5803 H   0  0  0  0  0  0  0  0  0  0  0  0
   55.3931    8.2208    8.3523 H   0  0  0  0  0  0  0  0  0  0  0  0
   54.6369   12.2108    6.9326 H   0  0  0  0  0  0  0  0  0  0  0  0
   56.5380    9.2439    6.6918 H   0  0  0  0  0  0  0  0  0  0  0  0
   49.1753    8.4148   13.3624 H   0  0  0  0  0  0  0  0  0  0  0  0
   52.2637    8.2028   13.6278 H   0  0  0  0  0  0  0  0  0  0  0  0
   52.4131    9.3260   10.4065 H   0  0  0  0  0  0  0  0  0  0  0  0
   49.0264    7.2915   16.5839 H   0  0  0  0  0  0  0  0  0  0  0  0
  3  7  1  0
  4  8  1  0
  5  9  1  0
  7 10  1  0
  9 11  1  0
 11 12  1  0
 12 13  1  0
 13 14  1  0
 14 15  1  0
 14 16  1  0
 15 17  1  0
 17 18  1  0
 18 19  2  0
 18 20  1  0
 19 21  1  0
 20 22  2  0
 21 23  2  0
 23 24  1  0
  8 10  1  0
 22 23  1  0
  1  2  1  0
  1  3  1  0
  1  4  1  0
  2  5  1  0
  2  6  2  0
 27 31  1  0
 28 32  1  0
 29 33  1  0
 31 34  1  0
 33 35  1  0
 35 36  1  0
 36 37  1  0
 37 38  1  0
 38 39  1  0
 38 40  1  0
 39 41  1  0
 41 42  1  0
 42 43  2  0
 42 44  1  0
 43 45  1  0
 44 46  2  0
 45 47  2  0
 47 48  1  0
 32 34  1  0
 46 47  1  0
 25 26  1  0
 25 27  1  0
 25 28  1  0
 26 29  1  0
 26 30  2  0
 49 50  2  0
 49 54  1  0
 50 51  1  0
 51 52  1  0
 51 53  2  0
 54 55  1  0
 54 56  2  0
  3 57  1  0
  3 58  1  0
  4 59  1  0
  4 60  1  0
  5 61  1  0
  7 62  1  0
  7 63  1  0
  8 64  1  0
  8 65  1  0
  9 66  1  0
  9 67  1  0
 11 68  1  0
 11 69  1  0
 12 70  1  0
 13 71  1  0
 13 72  1  0
 14 73  1  6
 15 74  1  0
 15 75  1  0
 16 76  1  0
 19 77  1  0
 20 78  1  0
 21 79  1  0
 22 80  1  0
 24 81  1  0
 27 82  1  0
 27 83  1  0
 28 84  1  0
 28 85  1  0
 29 86  1  0
 31 87  1  0
 31 88  1  0
 32 89  1  0
 32 90  1  0
 33 91  1  0
 33 92  1  0
 35 93  1  0
 35 94  1  0
 36 95  1  0
 37 96  1  0
 37 97  1  0
 38 98  1  6
 39 99  1  0
 39100  1  0
 40101  1  0
 43102  1  0
 44103  1  0
 45104  1  0
 46105  1  0
 48106  1  0
 49107  1  0
 50108  1  0
 52109  1  0
 55110  1  0
M  END
> <Uni-Dock RESULT> 
ENERGY=   -5.033  LOWER_BOUND=    3.700  UPPER_BOUND=    9.031
INTER + INTRA:          -5.033
INTER:                  -5.033
INTRA:                   0.000
UNBOUND:                 0.000

$$$$

     RDKit          3D

110111  0  0  0  0  0  0  0  0999 V2000
   53.3031    7.7356    9.3152 N   0  0  0  0  0  0  0  0  0  0  0  0
   52.7409    8.3629   10.4069 C   0  0  0  0  0  0  0  0  0  0  0  0
   54.7062    8.0017    8.9994 C   0  0  0  0  0  0  0  0  0  0  0  0
   52.6751    6.6703    8.5288 C   0  0  0  0  0  0  0  0  0  0  0  0
   51.4018    8.1155   10.5787 N   0  0  0  0  0  0  0  0  0  0  0  0
   53.3835    9.0819   11.1650 O   0  0  0  0  0  0  0  0  0  0  0  0
   54.9993    7.7109    7.5261 C   0  0  0  0  0  0  0  0  0  0  0  0
   53.7254    5.7149    7.9542 C   0  0  0  0  0  0  0  0  0  0  0  0
   50.6742    8.7539   11.6639 C   0  0  0  0  0  0  0  0  0  0  0  0
   54.6946    6.3673    7.1240 O   0  0  0  0  0  0  0  0  0  0  0  0
   50.9783    8.1250   13.0376 C   0  0  0  0  0  0  0  0  0  0  0  0
   50.2792    8.7518   14.1648 N   0  0  0  0  0  0  0  0  0  0  0  0
   48.8543    8.4088   14.2305 C   0  0  0  0  0  0  0  0  0  0  0  0
   48.1439    9.1873   15.3530 C   0  0  1  0  0  0  0  0  0  0  0  0
   48.7496    8.9197   16.7377 C   0  0  0  0  0  0  0  0  0  0  0  0
   48.2052   10.5941   15.0553 O   0  0  0  0  0  0  0  0  0  0  0  0
   47.9264    9.5960   17.7010 O   0  0  0  0  0  0  0  0  0  0  0  0
   48.3143    9.5127   19.0109 C   0  0  0  0  0  0  0  0  0  0  0  0
   47.5043   10.2196   19.9065 C   0  0  0  0  0  0  0  0  0  0  0  0
   49.4130    8.8027   19.4984 C   0  0  0  0  0  0  0  0  0  0  0  0
   47.7864   10.2249   21.2749 C   0  0  0  0  0  0  0  0  0  0  0  0
   49.6964    8.8053   20.8680 C   0  0  0  0  0  0  0  0  0  0  0  0
   48.8848    9.5154   21.7441 C   0  0  0  0  0  0  0  0  0  0  0  0
   49.2035    9.4898   23.0687 O   0  0  0  0  0  0  0  0  0  0  0  0
   49.0447    9.5608   18.2043 N   0  0  0  0  0  0  0  0  0  0  0  0
   50.1491    9.5714   17.3657 C   0  0  0  0  0  0  0  0  0  0  0  0
   48.5727   10.8639   18.6807 C   0  0  0  0  0  0  0  0  0  0  0  0
   47.9856    8.5463   18.1126 C   0  0  0  0  0  0  0  0  0  0  0  0
   50.5141    8.3352   16.8922 N   0  0  0  0  0  0  0  0  0  0  0  0
   50.7586   10.5936   17.0675 O   0  0  0  0  0  0  0  0  0  0  0  0
   47.6936   10.7289   19.9254 C   0  0  0  0  0  0  0  0  0  0  0  0
   47.1258    8.5105   19.3794 C   0  0  0  0  0  0  0  0  0  0  0  0
   51.6876    8.1972   16.0366 C   0  0  0  0  0  0  0  0  0  0  0  0
   46.6136    9.8110   19.6981 O   0  0  0  0  0  0  0  0  0  0  0  0
   51.4675    8.7540   14.6157 C   0  0  0  0  0  0  0  0  0  0  0  0
   50.2847    8.1274   13.9952 N   0  0  0  0  0  0  0  0  0  0  0  0
   49.8517    8.8339   12.7721 C   0  0  0  0  0  0  0  0  0  0  0  0
   50.5187    8.2907   11.4889 C   0  0  1  0  0  0  0  0  0  0  0  0
   51.9520    8.8011   11.2838 C   0  0  0  0  0  0  0  0  0  0  0  0
   50.5103    6.8535   11.5748 O   0  0  0  0  0  0  0  0  0  0  0  0
   52.2296    8.9901    9.8884 O   0  0  0  0  0  0  0  0  0  0  0  0
   52.9415    8.0377    9.2183 C   0  0  0  0  0  0  0  0  0  0  0  0
   53.1309    6.7161    9.6200 C   0  0  0  0  0  0  0  0  0  0  0  0
   53.4875    8.4655    8.0036 C   0  0  0  0  0  0  0  0  0  0  0  0
   53.8744    5.8351    8.8255 C   0  0  0  0  0  0  0  0  0  0  0  0
   54.2316    7.5915    7.2092 C   0  0  0  0  0  0  0  0  0  0  0  0
   54.4217    6.2822    7.6278 C   0  0  0  0  0  0  0  0  0  0  0  0
   55.1523    5.4557    6.8272 O   0  0  0  0  0  0  0  0  0  0  0  0
   50.0945    8.9977   14.1199 C   0  0  0  0  0  0  0  0  0  0  0  0
   51.1163    8.4265   13.4698 C   0  0  0  0  0  0  0  0  0  0  0  0
   51.0710    8.3384   12.0099 C   0  0  0  0  0  0  0  0  0  0  0  0
   52.1771    7.7384   11.5467 O   0  0  0  0  0  0  0  0  0  0  0  0
   50.1873    8.7334   11.2750 O   0  0  0  0  0  0  0  0  0  0  0  0
   50.1399    9.0856   15.5800 C   0  0  0  0  0  0  0  0  0  0  0  0
   49.0336    9.6856   16.0430 O   0  0  0  0  0  0  0  0  0  0  0  0
   51.0241    8.6905   16.3145 O   0  0  0  0  0  0  0  0  0  0  0  0
   55.3053    7.3469    9.6427 H   0  0  0  0  0  0  0  0  0  0  0  0
   54.9558    9.0398    9.2424 H   0  0  0  0  0  0  0  0  0  0  0  0
   51.9589    6.1149    9.1422 H   0  0  0  0  0  0  0  0  0  0  0  0
   52.1327    7.1649    7.7153 H   0  0  0  0  0  0  0  0  0  0  0  0
   50.8949    8.0206    9.7130 H   0  0  0  0  0  0  0  0  0  0  0  0
   56.0565    7.8904    7.3066 H   0  0  0  0  0  0  0  0  0  0  0  0
   54.4146    8.3807    6.8862 H   0  0  0  0  0  0  0  0  0  0  0  0
   53.2414    4.9407    7.3500 H   0  0  0  0  0  0  0  0  0  0  0  0
   54.2655    5.2093    8.7630 H   0  0  0  0  0  0  0  0  0  0  0  0
   49.6124    8.6492   11.4219 H   0  0  0  0  0  0  0  0  0  0  0  0
   50.9170    9.8227   11.6674 H   0  0  0  0  0  0  0  0  0  0  0  0
   52.0516    8.2101   13.2402 H   0  0  0  0  0  0  0  0  0  0  0  0
   50.7701    7.0480   13.0136 H   0  0  0  0  0  0  0  0  0  0  0  0
   50.3617    9.7711   14.0999 H   0  0  0  0  0  0  0  0  0  0  0  0
   48.3649    8.6612   13.2836 H   0  0  0  0  0  0  0  0  0  0  0  0
   48.7392    7.3325   14.4030 H   0  0  0  0  0  0  0  0  0  0  0  0
   47.0810    8.9207   15.3600 H   0  0  0  0  0  0  0  0  0  0  0  0
   48.7504    7.8424   16.9391 H   0  0  0  0  0  0  0  0  0  0  0  0
   49.7647    9.3303   16.7892 H   0  0  0  0  0  0  0  0  0  0  0  0
   47.9313   11.0482   15.8753 H   0  0  0  0  0  0  0  0  0  0  0  0
   46.6476   10.7757   19.5333 H   0  0  0  0  0  0  0  0  0  0  0  0
   50.0711    8.2382   18.8459 H   0  0  0  0  0  0  0  0  0  0  0  0
   47.1446   10.7840   21.9482 H   0  0  0  0  0  0  0  0  0  0  0  0
   50.5514    8.2530   21.2499 H   0  0  0  0  0  0  0  0  0  0  0  0
   48.5581   10.0305   23.5533 H   0  0  0  0  0  0  0  0  0  0  0  0
   49.4233   11.5193   18.8944 H   0  0  0  0  0  0  0  0  0  0  0  0
   47.9963   11.3102   17.8611 H   0  0  0  0  0  0  0  0  0  0  0  0
   47.3687    8.8225   17.2484 H   0  0  0  0  0  0  0  0  0  0  0  0
   48.3966    7.5523   17.9208 H   0  0  0  0  0  0  0  0  0  0  0  0
   50.4070    7.6048   17.5793 H   0  0  0  0  0  0  0  0  0  0  0  0
   47.2592   11.6998   20.1838 H   0  0  0  0  0  0  0  0  0  0  0  0
   48.2795   10.3830   20.7854 H   0  0  0  0  0  0  0  0  0  0  0  0
   46.2718    7.8423   19.2318 H   0  0  0  0  0  0  0  0  0  0  0  0
   47.7020    8.1339   20.2336 H   0  0  0  0  0  0  0  0  0  0  0  0
   52.5336    8.7043   16.5138 H   0  0  0  0  0  0  0  0  0  0  0  0
   51.9172    7.1270   15.9850 H   0  0  0  0  0  0  0  0  0  0  0  0
   52.3621    8.5493   14.0225 H   0  0  0  0  0  0  0  0  0  0  0  0
   51.3369    9.8401   14.6676 H   0  0  0  0  0  0  0  0  0  0  0  0
   49.5348    8.2177   14.6892 H   0  0  0  0  0  0  0  0  0  0  0  0
   49.9439    9.9230   12.8561 H   0  0  0  0  0  0  0  0  0  0  0  0
   48.7780    8.6249   12.6774 H   0  0  0  0  0  0  0  0  0  0  0  0
   49.9015    8.5600   10.6244 H   0  0  0  0  0  0  0  0  0  0  0  0
   52.7048    8.1714   11.7701 H   0  0  0  0  0  0  0  0  0  0  0  0
   52.0450    9.8028   11.7184 H   0  0  0  0  0  0  0  0  0  0  0  0
   50.5347    6.6685   12.5378 H   0  0  0  0  0  0  0  0  0  0  0  0
   52.6942    6.3309   10.5346 H   0  0  0  0  0  0  0  0  0  0  0  0
   53.3342    9.4902    7.6741 H   0  0  0  0  0  0  0  0  0  0  0  0
   54.0034    4.8093    9.1556 H   0  0  0  0  0  0  0  0  0  0  0  0
   54.6549    7.9322    6.2694 H   0  0  0  0  0  0  0  0  0  0  0  0
   55.1814    4.5770    7.2392 H   0  0  0  0  0  0  0  0  0  0  0  0
   49.2255    9.4024   13.6139 H   0  0  0  0  0  0  0  0  0  0  0  0
   51.9853    8.0217   13.9757 H   0  0  0  0  0  0  0  0  0  0  0  0
   52.0548    7.7269   10.5744 H   0  0  0  0  0  0  0  0  0  0  0  0
   49.1564    9.6970   17.0153 H   0  0  0  0  0  0  0  0  0  0  0  0
  3  7  1  0
  4  8  1  0
  5  9  1  0
  7 10  1  0
  9 11  1  0
 11 12  1  0
 12 13  1  0
 13 14  1  0
 14 15  1  0
 14 16  1  0
 15 17  1  0
 17 18  1  0
 18 19  2  0
 18 20  1  0
 19 21  1  0
 20 22  2  0
 21 23  2  0
 23 24  1  0
  8 10  1  0
 22 23  1  0
  1  2  1  0
  1  3  1  0
  1  4  1  0
  2  5  1  0
  2  6  2  0
 27 31  1  0
 28 32  1  0
 29 33  1  0
 31 34  1  0
 33 35  1  0
 35 36  1  0
 36 37  1  0
 37 38  1  0
 38 39  1  0
 38 40  1  0
 39 41  1  0
 41 42  1  0
 42 43  2  0
 42 44  1  0
 43 45  1  0
 44 46  2  0
 45 47  2  0
 47 48  1  0
 32 34  1  0
 46 47  1  0
 25 26  1  0
 25 27  1  0
 25 28  1  0
 26 29  1  0
 26 30  2  0
 49 50  2  0
 49 54  1  0
 50 51  1  0
 51 52  1  0
 51 53  2  0
 54 55  1  0
 54 56  2  0
  3 57  1  0
  3 58  1  0
  4 59  1  0
  4 60  1  0
  5 61  1  0
  7 62  1  0
  7 63  1  0
  8 64  1  0
  8 65  1  0
  9 66  1  0
  9 67  1  0
 11 68  1  0
 11 69  1  0
 12 70  1  0
 13 71  1  0
 13 72  1  0
 14 73  1  6
 15 74  1  0
 15 75  1  0
 16 76  1  0
 19 77  1  0
 20 78  1  0
 21 79  1  0
 22 80  1  0
 24 81  1  0
 27 82  1  0
 27 83  1  0
 28 84  1  0
 28 85  1  0
 29 86  1  0
 31 87  1  0
 31 88  1  0
 32 89  1  0
 32 90  1  0
 33 91  1  0
 33 92  1  0
 35 93  1  0
 35 94  1  0
 36 95  1  0
 37 96  1  0
 37 97  1  0
 38 98  1  6
 39 99  1  0
 39100  1  0
 40101  1  0
 43102  1  0
 44103  1  0
 45104  1  0
 46105  1  0
 48106  1  0
 49107  1  0
 50108  1  0
 52109  1  0
 55110  1  0
M  END
> <Uni-Dock RESULT> 
ENERGY=   -4.953  LOWER_BOUND=    4.305  UPPER_BOUND=    8.220
INTER + INTRA:          -4.953
INTER:                  -4.953
INTRA:                   0.000
UNBOUND:                 0.000

$$$$

     RDKit          3D

110111  0  0  0  0  0  0  0  0999 V2000
   48.9499    5.7511   19.0684 N   0  0  0  0  0  0  0  0  0  0  0  0
   49.5559    5.9649   17.8484 C   0  0  0  0  0  0  0  0  0  0  0  0
   49.7673    5.2724   20.1828 C   0  0  0  0  0  0  0  0  0  0  0  0
   47.5784    6.1328   19.4162 C   0  0  0  0  0  0  0  0  0  0  0  0
   48.6976    6.3364   16.8436 N   0  0  0  0  0  0  0  0  0  0  0  0
   50.7631    5.8363   17.6735 O   0  0  0  0  0  0  0  0  0  0  0  0
   48.9027    4.5731   21.2337 C   0  0  0  0  0  0  0  0  0  0  0  0
   47.4592    6.4701   20.9055 C   0  0  0  0  0  0  0  0  0  0  0  0
   49.1990    6.5463   15.4949 C   0  0  0  0  0  0  0  0  0  0  0  0
   47.8523    5.3935   21.7661 O   0  0  0  0  0  0  0  0  0  0  0  0
   49.9684    7.8731   15.3439 C   0  0  0  0  0  0  0  0  0  0  0  0
   50.5090    8.1165   14.0020 N   0  0  0  0  0  0  0  0  0  0  0  0
   49.4868    8.5019   13.0227 C   0  0  0  0  0  0  0  0  0  0  0  0
   50.0855    8.6242   11.6095 C   0  0  1  0  0  0  0  0  0  0  0  0
   51.2167    9.6585   11.5302 C   0  0  0  0  0  0  0  0  0  0  0  0
   50.5717    7.3341   11.1962 O   0  0  0  0  0  0  0  0  0  0  0  0
   51.5980    9.7683   10.1499 O   0  0  0  0  0  0  0  0  0  0  0  0
   52.6266   10.6235    9.8600 C   0  0  0  0  0  0  0  0  0  0  0  0
   52.9876   10.6668    8.5088 C   0  0  0  0  0  0  0  0  0  0  0  0
   53.3125   11.4232   10.7760 C   0  0  0  0  0  0  0  0  0  0  0  0
   54.0251   11.4945    8.0720 C   0  0  0  0  0  0  0  0  0  0  0  0
   54.3503   12.2535   10.3407 C   0  0  0  0  0  0  0  0  0  0  0  0
   54.6996   12.2824    8.9962 C   0  0  0  0  0  0  0  0  0  0  0  0
   55.7193   13.1051    8.6215 O   0  0  0  0  0  0  0  0  0  0  0  0
   52.6100   10.0478   10.7845 N   0  0  0  0  0  0  0  0  0  0  0  0
   52.7953    9.4618   12.0276 C   0  0  0  0  0  0  0  0  0  0  0  0
   53.1932    9.3465    9.6374 C   0  0  0  0  0  0  0  0  0  0  0  0
   51.4205   10.8426   10.4486 C   0  0  0  0  0  0  0  0  0  0  0  0
   52.1757   10.1182   13.0625 N   0  0  0  0  0  0  0  0  0  0  0  0
   53.4577    8.4437   12.2003 O   0  0  0  0  0  0  0  0  0  0  0  0
   53.3495   10.2693    8.4273 C   0  0  0  0  0  0  0  0  0  0  0  0
   51.6476   11.7003    9.2005 C   0  0  0  0  0  0  0  0  0  0  0  0
   52.3274    9.6345   14.4304 C   0  0  0  0  0  0  0  0  0  0  0  0
   52.1053   10.9055    8.0986 O   0  0  0  0  0  0  0  0  0  0  0  0
   51.5498    8.3306   14.6993 C   0  0  0  0  0  0  0  0  0  0  0  0
   50.1255    8.5006   14.3542 N   0  0  0  0  0  0  0  0  0  0  0  0
   49.4029    7.2132   14.3012 C   0  0  0  0  0  0  0  0  0  0  0  0
   48.7820    6.8094   15.6569 C   0  0  1  0  0  0  0  0  0  0  0  0
   49.7978    6.2061   16.6373 C   0  0  0  0  0  0  0  0  0  0  0  0
   48.1835    7.9894   16.2247 O   0  0  0  0  0  0  0  0  0  0  0  0
   49.1880    5.1797   17.4339 O   0  0  0  0  0  0  0  0  0  0  0  0
   48.7946    5.4736   18.7075 C   0  0  0  0  0  0  0  0  0  0  0  0
   48.5717    6.7479   19.2274 C   0  0  0  0  0  0  0  0  0  0  0  0
   48.5764    4.3575   19.5220 C   0  0  0  0  0  0  0  0  0  0  0  0
   48.1529    6.9071   20.5538 C   0  0  0  0  0  0  0  0  0  0  0  0
   48.1612    4.5114   20.8458 C   0  0  0  0  0  0  0  0  0  0  0  0
   47.9548    5.7865   21.3530 C   0  0  0  0  0  0  0  0  0  0  0  0
   47.5485    5.8999   22.6491 O   0  0  0  0  0  0  0  0  0  0  0  0
   50.4737    7.9059   13.7761 C   0  0  0  0  0  0  0  0  0  0  0  0
   50.4623    7.8969   15.1151 C   0  0  0  0  0  0  0  0  0  0  0  0
   49.4813    7.0649   15.8129 C   0  0  0  0  0  0  0  0  0  0  0  0
   49.6274    7.1896   17.1400 O   0  0  0  0  0  0  0  0  0  0  0  0
   48.6361    6.3476   15.3147 O   0  0  0  0  0  0  0  0  0  0  0  0
   51.4548    8.7381   13.0785 C   0  0  0  0  0  0  0  0  0  0  0  0
   51.3085    8.6132   11.7513 O   0  0  0  0  0  0  0  0  0  0  0  0
   52.3000    9.4552   13.5772 O   0  0  0  0  0  0  0  0  0  0  0  0
   50.2568    6.1518   20.6172 H   0  0  0  0  0  0  0  0  0  0  0  0
   50.5457    4.5959   19.8146 H   0  0  0  0  0  0  0  0  0  0  0  0
   47.2549    6.9858   18.8117 H   0  0  0  0  0  0  0  0  0  0  0  0
   46.9466    5.2706   19.1749 H   0  0  0  0  0  0  0  0  0  0  0  0
   47.7906    5.9021   16.9069 H   0  0  0  0  0  0  0  0  0  0  0  0
   49.5207    4.2402   22.0736 H   0  0  0  0  0  0  0  0  0  0  0  0
   48.4313    3.6832   20.8024 H   0  0  0  0  0  0  0  0  0  0  0  0
   46.4245    6.7288   21.1526 H   0  0  0  0  0  0  0  0  0  0  0  0
   48.0817    7.3381   21.1519 H   0  0  0  0  0  0  0  0  0  0  0  0
   48.3234    6.5351   14.8391 H   0  0  0  0  0  0  0  0  0  0  0  0
   49.8372    5.6979   15.2223 H   0  0  0  0  0  0  0  0  0  0  0  0
   50.8179    7.8746   16.0356 H   0  0  0  0  0  0  0  0  0  0  0  0
   49.3359    8.7134   15.6562 H   0  0  0  0  0  0  0  0  0  0  0  0
   50.9798    7.2732   13.6599 H   0  0  0  0  0  0  0  0  0  0  0  0
   48.6964    7.7442   12.9894 H   0  0  0  0  0  0  0  0  0  0  0  0
   49.0367    9.4583   13.3129 H   0  0  0  0  0  0  0  0  0  0  0  0
   49.2918    8.8940   10.9036 H   0  0  0  0  0  0  0  0  0  0  0  0
   50.8582   10.6274   11.8961 H   0  0  0  0  0  0  0  0  0  0  0  0
   52.0813    9.3145   12.1099 H   0  0  0  0  0  0  0  0  0  0  0  0
   51.1137    7.5002   10.4010 H   0  0  0  0  0  0  0  0  0  0  0  0
   52.4583   10.0457    7.7903 H   0  0  0  0  0  0  0  0  0  0  0  0
   53.0704   11.4268   11.8338 H   0  0  0  0  0  0  0  0  0  0  0  0
   54.2882   11.5071    7.0192 H   0  0  0  0  0  0  0  0  0  0  0  0
   54.8858   12.8772   11.0521 H   0  0  0  0  0  0  0  0  0  0  0  0
   55.8538   13.0156    7.6636 H   0  0  0  0  0  0  0  0  0  0  0  0
   54.1642    8.9197    9.9087 H   0  0  0  0  0  0  0  0  0  0  0  0
   52.5142    8.5202    9.3937 H   0  0  0  0  0  0  0  0  0  0  0  0
   50.6113   10.1242   10.2679 H   0  0  0  0  0  0  0  0  0  0  0  0
   51.1155   11.4810   11.2811 H   0  0  0  0  0  0  0  0  0  0  0  0
   52.2081   11.1216   12.9658 H   0  0  0  0  0  0  0  0  0  0  0  0
   53.6708    9.6913    7.5550 H   0  0  0  0  0  0  0  0  0  0  0  0
   54.1050   11.0414    8.6162 H   0  0  0  0  0  0  0  0  0  0  0  0
   50.7099   12.1782    8.9005 H   0  0  0  0  0  0  0  0  0  0  0  0
   52.3795   12.4934    9.3977 H   0  0  0  0  0  0  0  0  0  0  0  0
   53.3937    9.4873   14.6362 H   0  0  0  0  0  0  0  0  0  0  0  0
   51.9601   10.4291   15.0894 H   0  0  0  0  0  0  0  0  0  0  0  0
   51.6576    8.0763   15.7566 H   0  0  0  0  0  0  0  0  0  0  0  0
   51.9877    7.5184   14.1094 H   0  0  0  0  0  0  0  0  0  0  0  0
   50.1215    8.8993   13.4090 H   0  0  0  0  0  0  0  0  0  0  0  0
   50.0044    6.4066   13.8660 H   0  0  0  0  0  0  0  0  0  0  0  0
   48.5648    7.3755   13.6109 H   0  0  0  0  0  0  0  0  0  0  0  0
   47.9692    6.0961   15.4790 H   0  0  0  0  0  0  0  0  0  0  0  0
   50.2985    6.9604   17.2538 H   0  0  0  0  0  0  0  0  0  0  0  0
   50.5796    5.6850   16.0732 H   0  0  0  0  0  0  0  0  0  0  0  0
   48.7176    8.7289   15.8643 H   0  0  0  0  0  0  0  0  0  0  0  0
   48.6913    7.6390   18.6214 H   0  0  0  0  0  0  0  0  0  0  0  0
   48.7339    3.3588   19.1225 H   0  0  0  0  0  0  0  0  0  0  0  0
   47.9799    7.9085   20.9348 H   0  0  0  0  0  0  0  0  0  0  0  0
   47.9973    3.6403   21.4726 H   0  0  0  0  0  0  0  0  0  0  0  0
   47.4291    6.8419   22.8515 H   0  0  0  0  0  0  0  0  0  0  0  0
   49.7854    7.3218   13.1762 H   0  0  0  0  0  0  0  0  0  0  0  0
   51.1505    8.4809   15.7152 H   0  0  0  0  0  0  0  0  0  0  0  0
   48.9366    6.6036   17.5138 H   0  0  0  0  0  0  0  0  0  0  0  0
   51.9995    9.1994   11.3780 H   0  0  0  0  0  0  0  0  0  0  0  0
  3  7  1  0
  4  8  1  0
  5  9  1  0
  7 10  1  0
  9 11  1  0
 11 12  1  0
 12 13  1  0
 13 14  1  0
 14 15  1  0
 14 16  1  0
 15 17  1  0
 17 18  1  0
 18 19  2  0
 18 20  1  0
 19 21  1  0
 20 22  2  0
 21 23  2  0
 23 24  1  0
  8 10  1  0
 22 23  1  0
  1  2  1  0
  1  3  1  0
  1  4  1  0
  2  5  1  0
  2  6  2  0
 27 31  1  0
 28 32  1  0
 29 33  1  0
 31 34  1  0
 33 35  1  0
 35 36  1  0
 36 37  1  0
 37 38  1  0
 38 39  1  0
 38 40  1  0
 39 41  1  0
 41 42  1  0
 42 43  2  0
 42 44  1  0
 43 45  1  0
 44 46  2  0
 45 47  2  0
 47 48  1  0
 32 34  1  0
 46 47  1  0
 25 26  1  0
 25 27  1  0
 25 28  1  0
 26 29  1  0
 26 30  2  0
 49 50  2  0
 49 54  1  0
 50 51  1  0
 51 52  1  0
 51 53  2  0
 54 55  1  0
 54 56  2  0
  3 57  1  0
  3 58  1  0
  4 59  1  0
  4 60  1  0
  5 61  1  0
  7 62  1  0
  7 63  1  0
  8 64  1  0
  8 65  1  0
  9 66  1  0
  9 67  1  0
 11 68  1  0
 11 69  1  0
 12 70  1  0
 13 71  1  0
 13 72  1  0
 14 73  1  6
 15 74  1  0
 15 75  1  0
 16 76  1  0
 19 77  1  0
 20 78  1  0
 21 79  1  0
 22 80  1  0
 24 81  1  0
 27 82  1  0
 27 83  1  0
 28 84  1  0
 28 85  1  0
 29 86  1  0
 31 87  1  0
 31 88  1  0
 32 89  1  0
 32 90  1  0
 33 91  1  0
 33 92  1  0
 35 93  1  0
 35 94  1  0
 36 95  1  0
 37 96  1  0
 37 97  1  0
 38 98  1  6
 39 99  1  0
 39100  1  0
 40101  1  0
 43102  1  0
 44103  1  0
 45104  1  0
 46105  1  0
 48106  1  0
 49107  1  0
 50108  1  0
 52109  1  0
 55110  1  0
M  END
> <Uni-Dock RESULT> 
ENERGY=   -4.888  LOWER_BOUND=    3.856  UPPER_BOUND=    5.780
INTER + INTRA:          -4.888
INTER:                  -4.888
INTRA:                   0.000
UNBOUND:                 0.000

$$$$

     RDKit          3D

110111  0  0  0  0  0  0  0  0999 V2000
   48.2568   12.8635   19.8004 N   0  0  0  0  0  0  0  0  0  0  0  0
   47.9862   12.7144   18.4565 C   0  0  0  0  0  0  0  0  0  0  0  0
   48.4060   11.6631   20.6227 C   0  0  0  0  0  0  0  0  0  0  0  0
   48.5938   14.1248   20.4661 C   0  0  0  0  0  0  0  0  0  0  0  0
   47.7843   13.8928   17.7822 N   0  0  0  0  0  0  0  0  0  0  0  0
   47.9319   11.6196   17.9062 O   0  0  0  0  0  0  0  0  0  0  0  0
   48.1401   11.9744   22.0970 C   0  0  0  0  0  0  0  0  0  0  0  0
   49.5290   13.8892   21.6561 C   0  0  0  0  0  0  0  0  0  0  0  0
   47.4424   13.8765   16.3689 C   0  0  0  0  0  0  0  0  0  0  0  0
   48.9855   12.9994   22.6394 O   0  0  0  0  0  0  0  0  0  0  0  0
   48.6493   13.5537   15.4666 C   0  0  0  0  0  0  0  0  0  0  0  0
   48.3448   13.5079   14.0322 N   0  0  0  0  0  0  0  0  0  0  0  0
   48.1477   14.8336   13.4355 C   0  0  0  0  0  0  0  0  0  0  0  0
   47.7106   14.7238   11.9633 C   0  0  1  0  0  0  0  0  0  0  0  0
   48.7283   13.9712   11.0951 C   0  0  0  0  0  0  0  0  0  0  0  0
   46.4333   14.0629   11.9045 O   0  0  0  0  0  0  0  0  0  0  0  0
   48.2696   14.0489    9.7363 O   0  0  0  0  0  0  0  0  0  0  0  0
   49.0242   13.4059    8.7926 C   0  0  0  0  0  0  0  0  0  0  0  0
   48.5165   13.4766    7.4907 C   0  0  0  0  0  0  0  0  0  0  0  0
   50.2144   12.7141    9.0247 C   0  0  0  0  0  0  0  0  0  0  0  0
   49.1836   12.8609    6.4285 C   0  0  0  0  0  0  0  0  0  0  0  0
   50.8846   12.0984    7.9628 C   0  0  0  0  0  0  0  0  0  0  0  0
   50.3656   12.1743    6.6762 C   0  0  0  0  0  0  0  0  0  0  0  0
   51.0532   11.5557    5.6755 O   0  0  0  0  0  0  0  0  0  0  0  0
   48.9098   13.0042    9.7986 N   0  0  0  0  0  0  0  0  0  0  0  0
   48.9474   12.3214   11.0050 C   0  0  0  0  0  0  0  0  0  0  0  0
   47.8506   12.6189    8.8618 C   0  0  0  0  0  0  0  0  0  0  0  0
   49.3393   14.4028    9.6620 C   0  0  0  0  0  0  0  0  0  0  0  0
   49.9136   12.7612   11.8761 N   0  0  0  0  0  0  0  0  0  0  0  0
   48.1879   11.3982   11.2805 O   0  0  0  0  0  0  0  0  0  0  0  0
   48.1669   13.0643    7.4329 C   0  0  0  0  0  0  0  0  0  0  0  0
   49.5888   14.7772    8.1982 C   0  0  0  0  0  0  0  0  0  0  0  0
   50.0931   12.0994   13.1638 C   0  0  0  0  0  0  0  0  0  0  0  0
   48.4516   14.4703    7.3810 O   0  0  0  0  0  0  0  0  0  0  0  0
   48.9569   12.4016   14.1613 C   0  0  0  0  0  0  0  0  0  0  0  0
   48.7976   13.8581   14.3337 N   0  0  0  0  0  0  0  0  0  0  0  0
   47.5425   14.2072   15.0303 C   0  0  0  0  0  0  0  0  0  0  0  0
   47.7006   14.2816   16.5653 C   0  0  1  0  0  0  0  0  0  0  0  0
   47.7027   12.9053   17.2455 C   0  0  0  0  0  0  0  0  0  0  0  0
   48.9340   14.9727   16.8379 O   0  0  0  0  0  0  0  0  0  0  0  0
   47.0628   12.9712   18.5285 O   0  0  0  0  0  0  0  0  0  0  0  0
   47.8344   13.0397   19.6523 C   0  0  0  0  0  0  0  0  0  0  0  0
   49.1737   13.4230   19.7100 C   0  0  0  0  0  0  0  0  0  0  0  0
   47.1666   12.7165   20.8382 C   0  0  0  0  0  0  0  0  0  0  0  0
   49.8451   13.4648   20.9379 C   0  0  0  0  0  0  0  0  0  0  0  0
   47.8325   12.7544   22.0644 C   0  0  0  0  0  0  0  0  0  0  0  0
   49.1687   13.1263   22.1048 C   0  0  0  0  0  0  0  0  0  0  0  0
   49.7874   13.1536   23.3190 O   0  0  0  0  0  0  0  0  0  0  0  0
   48.0544   13.5516   13.9302 C   0  0  0  0  0  0  0  0  0  0  0  0
   48.6270   13.1711   15.0793 C   0  0  0  0  0  0  0  0  0  0  0  0
   48.0759   13.6578   16.3445 C   0  0  0  0  0  0  0  0  0  0  0  0
   48.7807   13.1701   17.3758 O   0  0  0  0  0  0  0  0  0  0  0  0
   47.1228   14.3963   16.4975 O   0  0  0  0  0  0  0  0  0  0  0  0
   48.6058   13.0649   12.6650 C   0  0  0  0  0  0  0  0  0  0  0  0
   47.9008   13.5527   11.6338 O   0  0  0  0  0  0  0  0  0  0  0  0
   49.5589   12.3262   12.5126 O   0  0  0  0  0  0  0  0  0  0  0  0
   49.4359   11.3129   20.4879 H   0  0  0  0  0  0  0  0  0  0  0  0
   47.7296   10.8783   20.2684 H   0  0  0  0  0  0  0  0  0  0  0  0
   49.0565   14.8185   19.7573 H   0  0  0  0  0  0  0  0  0  0  0  0
   47.6471   14.5546   20.8121 H   0  0  0  0  0  0  0  0  0  0  0  0
   47.3211   14.5982   18.3328 H   0  0  0  0  0  0  0  0  0  0  0  0
   48.2776   11.0752   22.7058 H   0  0  0  0  0  0  0  0  0  0  0  0
   47.1042   12.3044   22.2316 H   0  0  0  0  0  0  0  0  0  0  0  0
   49.7503   14.8377   22.1560 H   0  0  0  0  0  0  0  0  0  0  0  0
   50.4820   13.4680   21.3157 H   0  0  0  0  0  0  0  0  0  0  0  0
   47.0483   14.8709   16.1393 H   0  0  0  0  0  0  0  0  0  0  0  0
   46.6381   13.1487   16.2114 H   0  0  0  0  0  0  0  0  0  0  0  0
   49.0474   12.5704   15.7401 H   0  0  0  0  0  0  0  0  0  0  0  0
   49.4642   14.2626   15.6589 H   0  0  0  0  0  0  0  0  0  0  0  0
   47.4959   12.9558   13.8757 H   0  0  0  0  0  0  0  0  0  0  0  0
   47.3668   15.3761   13.9793 H   0  0  0  0  0  0  0  0  0  0  0  0
   49.0774   15.4109   13.4984 H   0  0  0  0  0  0  0  0  0  0  0  0
   47.5550   15.7297   11.5571 H   0  0  0  0  0  0  0  0  0  0  0  0
   49.7124   14.4452   11.1840 H   0  0  0  0  0  0  0  0  0  0  0  0
   48.7707   12.9174   11.3946 H   0  0  0  0  0  0  0  0  0  0  0  0
   46.2975   13.8371   10.9642 H   0  0  0  0  0  0  0  0  0  0  0  0
   47.5894   14.0127    7.3031 H   0  0  0  0  0  0  0  0  0  0  0  0
   50.6500   12.6310   10.0152 H   0  0  0  0  0  0  0  0  0  0  0  0
   48.7670   12.9274    5.4286 H   0  0  0  0  0  0  0  0  0  0  0  0
   51.8117   11.5593    8.1410 H   0  0  0  0  0  0  0  0  0  0  0  0
   50.5722   11.6868    4.8418 H   0  0  0  0  0  0  0  0  0  0  0  0
   47.6971   11.5353    8.8893 H   0  0  0  0  0  0  0  0  0  0  0  0
   46.9295   13.1022    9.2101 H   0  0  0  0  0  0  0  0  0  0  0  0
   48.5272   15.0157   10.0727 H   0  0  0  0  0  0  0  0  0  0  0  0
   50.2370   14.6069   10.2504 H   0  0  0  0  0  0  0  0  0  0  0  0
   50.7717   13.0183   11.4128 H   0  0  0  0  0  0  0  0  0  0  0  0
   47.3078   12.8723    6.7823 H   0  0  0  0  0  0  0  0  0  0  0  0
   49.0243   12.5124    7.0293 H   0  0  0  0  0  0  0  0  0  0  0  0
   49.7793   15.8517    8.1152 H   0  0  0  0  0  0  0  0  0  0  0  0
   50.4659   14.2502    7.8029 H   0  0  0  0  0  0  0  0  0  0  0  0
   50.1717   11.0192   12.9973 H   0  0  0  0  0  0  0  0  0  0  0  0
   51.0478   12.4516   13.5699 H   0  0  0  0  0  0  0  0  0  0  0  0
   49.2014   11.9297   15.1162 H   0  0  0  0  0  0  0  0  0  0  0  0
   48.0244   11.9598   13.7943 H   0  0  0  0  0  0  0  0  0  0  0  0
   48.7426   14.2391   13.3829 H   0  0  0  0  0  0  0  0  0  0  0  0
   46.7008   13.5712   14.7324 H   0  0  0  0  0  0  0  0  0  0  0  0
   47.2926   15.2219   14.6935 H   0  0  0  0  0  0  0  0  0  0  0  0
   46.8940   14.8983   16.9778 H   0  0  0  0  0  0  0  0  0  0  0  0
   48.7013   12.4596   17.3077 H   0  0  0  0  0  0  0  0  0  0  0  0
   47.0805   12.2143   16.6657 H   0  0  0  0  0  0  0  0  0  0  0  0
   49.4985   14.7760   16.0603 H   0  0  0  0  0  0  0  0  0  0  0  0
   49.7200   13.7186   18.8213 H   0  0  0  0  0  0  0  0  0  0  0  0
   46.1184   12.4297   20.8063 H   0  0  0  0  0  0  0  0  0  0  0  0
   50.8858   13.7720   20.9588 H   0  0  0  0  0  0  0  0  0  0  0  0
   47.3079   12.4987   22.9800 H   0  0  0  0  0  0  0  0  0  0  0  0
   50.7035   13.4480   23.1895 H   0  0  0  0  0  0  0  0  0  0  0  0
   47.1939   14.2094   13.8892 H   0  0  0  0  0  0  0  0  0  0  0  0
   49.4875   12.5134   15.1205 H   0  0  0  0  0  0  0  0  0  0  0  0
   48.3413   13.5470   18.1666 H   0  0  0  0  0  0  0  0  0  0  0  0
   48.3406   13.1756   10.8433 H   0  0  0  0  0  0  0  0  0  0  0  0
  3  7  1  0
  4  8  1  0
  5  9  1  0
  7 10  1  0
  9 11  1  0
 11 12  1  0
 12 13  1  0
 13 14  1  0
 14 15  1  0
 14 16  1  0
 15 17  1  0
 17 18  1  0
 18 19  2  0
 18 20  1  0
 19 21  1  0
 20 22  2  0
 21 23  2  0
 23 24  1  0
  8 10  1  0
 22 23  1  0
  1  2  1  0
  1  3  1  0
  1  4  1  0
  2  5  1  0
  2  6  2  0
 27 31  1  0
 28 32  1  0
 29 33  1  0
 31 34  1  0
 33 35  1  0
 35 36  1  0
 36 37  1  0
 37 38  1  0
 38 39  1  0
 38 40  1  0
 39 41  1  0
 41 42  1  0
 42 43  2  0
 42 44  1  0
 43 45  1  0
 44 46  2  0
 45 47  2  0
 47 48  1  0
 32 34  1  0
 46 47  1  0
 25 26  1  0
 25 27  1  0
 25 28  1  0
 26 29  1  0
 26 30  2  0
 49 50  2  0
 49 54  1  0
 50 51  1  0
 51 52  1  0
 51 53  2  0
 54 55  1  0
 54 56  2  0
  3 57  1  0
  3 58  1  0
  4 59  1  0
  4 60  1  0
  5 61  1  0
  7 62  1  0
  7 63  1  0
  8 64  1  0
  8 65  1  0
  9 66  1  0
  9 67  1  0
 11 68  1  0
 11 69  1  0
 12 70  1  0
 13 71  1  0
 13 72  1  0
 14 73  1  6
 15 74  1  0
 15 75  1  0
 16 76  1  0
 19 77  1  0
 20 78  1  0
 21 79  1  0
 22 80  1  0
 24 81  1  0
 27 82  1  0
 27 83  1  0
 28 84  1  0
 28 85  1  0
 29 86  1  0
 31 87  1  0
 31 88  1  0
 32 89  1  0
 32 90  1  0
 33 91  1  0
 33 92  1  0
 35 93  1  0
 35 94  1  0
 36 95  1  0
 37 96  1  0
 37 97  1  0
 38 98  1  6
 39 99  1  0
 39100  1  0
 40101  1  0
 43102  1  0
 44103  1  0
 45104  1  0
 46105  1  0
 48106  1  0
 49107  1  0
 50108  1  0
 52109  1  0
 55110  1  0
M  END
> <Uni-Dock RESULT> 
ENERGY=   -4.884  LOWER_BOUND=    6.495  UPPER_BOUND=    9.190
INTER + INTRA:          -4.884
INTER:                  -4.884
INTRA:                   0.000
UNBOUND:                 0.000

$$$$
