
     RDKit          3D

110111  0  0  0  0  0  0  0  0999 V2000
   45.1252    5.5694   12.3953 N   0  0  0  0  0  0  0  0  0  0  0  0
   46.4764    5.4842   12.6984 C   0  0  0  0  0  0  0  0  0  0  0  0
   44.2942    4.4271   12.7875 C   0  0  0  0  0  0  0  0  0  0  0  0
   44.6080    6.3021   11.2325 C   0  0  0  0  0  0  0  0  0  0  0  0
   47.2224    6.5550   12.2639 N   0  0  0  0  0  0  0  0  0  0  0  0
   46.9718    4.5440   13.3144 O   0  0  0  0  0  0  0  0  0  0  0  0
   42.8155    4.8103   12.8729 C   0  0  0  0  0  0  0  0  0  0  0  0
   43.1155    6.6090   11.3792 C   0  0  0  0  0  0  0  0  0  0  0  0
   48.6338    6.6112   12.6089 C   0  0  0  0  0  0  0  0  0  0  0  0
   42.3648    5.4160   11.6519 O   0  0  0  0  0  0  0  0  0  0  0  0
   49.3691    7.6897   11.8018 C   0  0  0  0  0  0  0  0  0  0  0  0
   50.7690    7.8112   12.2242 N   0  0  0  0  0  0  0  0  0  0  0  0
   51.4663    8.8265   11.4090 C   0  0  0  0  0  0  0  0  0  0  0  0
   52.7992    9.2532   12.0600 C   0  0  1  0  0  0  0  0  0  0  0  0
   52.6020   10.1502   13.2952 C   0  0  0  0  0  0  0  0  0  0  0  0
   53.5430    8.0820   12.4327 O   0  0  0  0  0  0  0  0  0  0  0  0
   51.9596   11.3838   12.9701 O   0  0  0  0  0  0  0  0  0  0  0  0
   52.7297   12.4256   12.5319 C   0  0  0  0  0  0  0  0  0  0  0  0
   52.0129   13.5966   12.2640 C   0  0  0  0  0  0  0  0  0  0  0  0
   54.1151   12.4158   12.3424 C   0  0  0  0  0  0  0  0  0  0  0  0
   52.6651   14.7438   11.8093 C   0  0  0  0  0  0  0  0  0  0  0  0
   54.7734   13.5654   11.8870 C   0  0  0  0  0  0  0  0  0  0  0  0
   54.0414   14.7203   11.6253 C   0  0  0  0  0  0  0  0  0  0  0  0
   54.6462   15.8627   11.1921 O   0  0  0  0  0  0  0  0  0  0  0  0
   44.8890    5.6404   12.5049 N   0  0  0  0  0  0  0  0  0  0  0  0
   46.0166    6.1466   13.1260 C   0  0  0  0  0  0  0  0  0  0  0  0
   44.5571    5.8354   11.0873 C   0  0  0  0  0  0  0  0  0  0  0  0
   44.2726    4.4406   13.0730 C   0  0  0  0  0  0  0  0  0  0  0  0
   46.5093    7.2948   12.5572 N   0  0  0  0  0  0  0  0  0  0  0  0
   46.5217    5.6350   14.1218 O   0  0  0  0  0  0  0  0  0  0  0  0
   44.8763    4.5596   10.2919 C   0  0  0  0  0  0  0  0  0  0  0  0
   44.6305    3.2158   12.2269 C   0  0  0  0  0  0  0  0  0  0  0  0
   47.6118    8.0084   13.1817 C   0  0  0  0  0  0  0  0  0  0  0  0
   44.2145    3.4133   10.8598 O   0  0  0  0  0  0  0  0  0  0  0  0
   48.9867    7.4005   12.8467 C   0  0  0  0  0  0  0  0  0  0  0  0
   50.1079    8.0788   13.5123 N   0  0  0  0  0  0  0  0  0  0  0  0
   50.9395    8.9074   12.6214 C   0  0  0  0  0  0  0  0  0  0  0  0
   50.3561   10.3016   12.2927 C   0  0  1  0  0  0  0  0  0  0  0  0
   51.4113   11.2111   11.6374 C   0  0  0  0  0  0  0  0  0  0  0  0
   49.2413   10.1696   11.4014 O   0  0  0  0  0  0  0  0  0  0  0  0
   52.4469   11.4820   12.5791 O   0  0  0  0  0  0  0  0  0  0  0  0
   53.4222   12.3635   12.2027 C   0  0  0  0  0  0  0  0  0  0  0  0
   53.4882   13.0511   10.9878 C   0  0  0  0  0  0  0  0  0  0  0  0
   54.4269   12.5557   13.1567 C   0  0  0  0  0  0  0  0  0  0  0  0
   54.5445   13.9360   10.7436 C   0  0  0  0  0  0  0  0  0  0  0  0
   55.4832   13.4381   12.9149 C   0  0  0  0  0  0  0  0  0  0  0  0
   55.5286   14.1268   11.7087 C   0  0  0  0  0  0  0  0  0  0  0  0
   56.5358   14.9996   11.4275 O   0  0  0  0  0  0  0  0  0  0  0  0
   49.0148    8.1303   11.7438 C   0  0  0  0  0  0  0  0  0  0  0  0
   49.6106    9.1676   12.3468 C   0  0  0  0  0  0  0  0  0  0  0  0
   50.8895    9.6517   11.8225 C   0  0  0  0  0  0  0  0  0  0  0  0
   51.3232   10.6943   12.5479 O   0  0  0  0  0  0  0  0  0  0  0  0
   51.5039    9.2217   10.8665 O   0  0  0  0  0  0  0  0  0  0  0  0
   47.7381    7.5730   12.1960 C   0  0  0  0  0  0  0  0  0  0  0  0
   47.2229    8.1900   13.2700 O   0  0  0  0  0  0  0  0  0  0  0  0
   47.1684    6.6409   11.6610 O   0  0  0  0  0  0  0  0  0  0  0  0
   44.6309    4.0250   13.7472 H   0  0  0  0  0  0  0  0  0  0  0  0
   44.4414    3.6539   12.0250 H   0  0  0  0  0  0  0  0  0  0  0  0
   44.7690    5.6566   10.3590 H   0  0  0  0  0  0  0  0  0  0  0  0
   45.1578    7.2325   11.0655 H   0  0  0  0  0  0  0  0  0  0  0  0
   46.7281    7.4300   12.3549 H   0  0  0  0  0  0  0  0  0  0  0  0
   42.2025    3.9202   13.0483 H   0  0  0  0  0  0  0  0  0  0  0  0
   42.6376    5.5100   13.6962 H   0  0  0  0  0  0  0  0  0  0  0  0
   42.7329    7.0413   10.4494 H   0  0  0  0  0  0  0  0  0  0  0  0
   42.9343    7.3297   12.1894 H   0  0  0  0  0  0  0  0  0  0  0  0
   49.0851    5.6261   12.4270 H   0  0  0  0  0  0  0  0  0  0  0  0
   48.7026    6.8214   13.6845 H   0  0  0  0  0  0  0  0  0  0  0  0
   48.8572    8.6506   11.9408 H   0  0  0  0  0  0  0  0  0  0  0  0
   49.3125    7.4418   10.7355 H   0  0  0  0  0  0  0  0  0  0  0  0
   51.2310    6.9119   12.0633 H   0  0  0  0  0  0  0  0  0  0  0  0
   51.6742    8.3812   10.4274 H   0  0  0  0  0  0  0  0  0  0  0  0
   50.8362    9.7091   11.2464 H   0  0  0  0  0  0  0  0  0  0  0  0
   53.3860    9.7857   11.3040 H   0  0  0  0  0  0  0  0  0  0  0  0
   51.9476    9.6377   14.0128 H   0  0  0  0  0  0  0  0  0  0  0  0
   53.5390   10.3022   13.8459 H   0  0  0  0  0  0  0  0  0  0  0  0
   52.9714    7.6055   13.0659 H   0  0  0  0  0  0  0  0  0  0  0  0
   50.9366   13.6176   12.4146 H   0  0  0  0  0  0  0  0  0  0  0  0
   54.7201   11.5355   12.5407 H   0  0  0  0  0  0  0  0  0  0  0  0
   52.1023   15.6504   11.6049 H   0  0  0  0  0  0  0  0  0  0  0  0
   55.8485   13.5359   11.7395 H   0  0  0  0  0  0  0  0  0  0  0  0
   55.5994   15.6943   11.1005 H   0  0  0  0  0  0  0  0  0  0  0  0
   43.4802    6.0426   11.0415 H   0  0  0  0  0  0  0  0  0  0  0  0
   45.0934    6.6793   10.6469 H   0  0  0  0  0  0  0  0  0  0  0  0
   43.1892    4.6056   13.0477 H   0  0  0  0  0  0  0  0  0  0  0  0
   44.5685    4.2910   14.1175 H   0  0  0  0  0  0  0  0  0  0  0  0
   45.7970    7.8794   12.1451 H   0  0  0  0  0  0  0  0  0  0  0  0
   45.9590    4.3668   10.2658 H   0  0  0  0  0  0  0  0  0  0  0  0
   44.5233    4.6679    9.2588 H   0  0  0  0  0  0  0  0  0  0  0  0
   44.1124    2.3277   12.6100 H   0  0  0  0  0  0  0  0  0  0  0  0
   45.7108    3.0153   12.2426 H   0  0  0  0  0  0  0  0  0  0  0  0
   47.4536    8.0098   14.2665 H   0  0  0  0  0  0  0  0  0  0  0  0
   47.5475    9.0430   12.8388 H   0  0  0  0  0  0  0  0  0  0  0  0
   49.0010    6.3595   13.1925 H   0  0  0  0  0  0  0  0  0  0  0  0
   49.1197    7.3480   11.7597 H   0  0  0  0  0  0  0  0  0  0  0  0
   49.7726    8.6323   14.2972 H   0  0  0  0  0  0  0  0  0  0  0  0
   51.1638    8.3581   11.6979 H   0  0  0  0  0  0  0  0  0  0  0  0
   51.8952    9.0414   13.1438 H   0  0  0  0  0  0  0  0  0  0  0  0
   50.0014   10.7663   13.2226 H   0  0  0  0  0  0  0  0  0  0  0  0
   51.8175   10.7293   10.7371 H   0  0  0  0  0  0  0  0  0  0  0  0
   50.9170   12.1443   11.3391 H   0  0  0  0  0  0  0  0  0  0  0  0
   48.8306   11.0500   11.3176 H   0  0  0  0  0  0  0  0  0  0  0  0
   52.7386   12.9302   10.2125 H   0  0  0  0  0  0  0  0  0  0  0  0
   54.3843   12.0141   14.0998 H   0  0  0  0  0  0  0  0  0  0  0  0
   54.6026   14.4708    9.7992 H   0  0  0  0  0  0  0  0  0  0  0  0
   56.2484   13.5729   13.6736 H   0  0  0  0  0  0  0  0  0  0  0  0
   57.1379   15.0270   12.1905 H   0  0  0  0  0  0  0  0  0  0  0  0
   49.4473    7.6371   10.8785 H   0  0  0  0  0  0  0  0  0  0  0  0
   49.1959    9.6704   13.2111 H   0  0  0  0  0  0  0  0  0  0  0  0
   52.1691   10.9493   12.1224 H   0  0  0  0  0  0  0  0  0  0  0  0
   46.3901    7.7021   13.4396 H   0  0  0  0  0  0  0  0  0  0  0  0
  3  7  1  0
  4  8  1  0
  5  9  1  0
  7 10  1  0
  9 11  1  0
 11 12  1  0
 12 13  1  0
 13 14  1  0
 14 15  1  0
 14 16  1  0
 15 17  1  0
 17 18  1  0
 18 19  2  0
 18 20  1  0
 19 21  1  0
 20 22  2  0
 21 23  2  0
 23 24  1  0
  8 10  1  0
 22 23  1  0
  1  2  1  0
  1  3  1  0
  1  4  1  0
  2  5  1  0
  2  6  2  0
 27 31  1  0
 28 32  1  0
 29 33  1  0
 31 34  1  0
 33 35  1  0
 35 36  1  0
 36 37  1  0
 37 38  1  0
 38 39  1  0
 38 40  1  0
 39 41  1  0
 41 42  1  0
 42 43  2  0
 42 44  1  0
 43 45  1  0
 44 46  2  0
 45 47  2  0
 47 48  1  0
 32 34  1  0
 46 47  1  0
 25 26  1  0
 25 27  1  0
 25 28  1  0
 26 29  1  0
 26 30  2  0
 49 50  2  0
 49 54  1  0
 50 51  1  0
 51 52  1  0
 51 53  2  0
 54 55  1  0
 54 56  2  0
  3 57  1  0
  3 58  1  0
  4 59  1  0
  4 60  1  0
  5 61  1  0
  7 62  1  0
  7 63  1  0
  8 64  1  0
  8 65  1  0
  9 66  1  0
  9 67  1  0
 11 68  1  0
 11 69  1  0
 12 70  1  0
 13 71  1  0
 13 72  1  0
 14 73  1  1
 15 74  1  0
 15 75  1  0
 16 76  1  0
 19 77  1  0
 20 78  1  0
 21 79  1  0
 22 80  1  0
 24 81  1  0
 27 82  1  0
 27 83  1  0
 28 84  1  0
 28 85  1  0
 29 86  1  0
 31 87  1  0
 31 88  1  0
 32 89  1  0
 32 90  1  0
 33 91  1  0
 33 92  1  0
 35 93  1  0
 35 94  1  0
 36 95  1  0
 37 96  1  0
 37 97  1  0
 38 98  1  6
 39 99  1  0
 39100  1  0
 40101  1  0
 43102  1  0
 44103  1  0
 45104  1  0
 46105  1  0
 48106  1  0
 49107  1  0
 50108  1  0
 52109  1  0
 55110  1  0
M  END
> <Uni-Dock RESULT> 
ENERGY=   -6.077  LOWER_BOUND=    0.000  UPPER_BOUND=    0.000
INTER + INTRA:          -6.077
INTER:                  -6.077
INTRA:                   0.000
UNBOUND:                 0.000

$$$$

     RDKit          3D

110111  0  0  0  0  0  0  0  0999 V2000
   45.1669    5.3882   11.9091 N   0  0  0  0  0  0  0  0  0  0  0  0
   45.6863    6.6367   12.2192 C   0  0  0  0  0  0  0  0  0  0  0  0
   44.0947    5.3562   10.9098 C   0  0  0  0  0  0  0  0  0  0  0  0
   45.1067    4.2819   12.8729 C   0  0  0  0  0  0  0  0  0  0  0  0
   46.6516    6.6207   13.1989 N   0  0  0  0  0  0  0  0  0  0  0  0
   45.3316    7.6725   11.6620 O   0  0  0  0  0  0  0  0  0  0  0  0
   43.9473    3.9665   10.2872 C   0  0  0  0  0  0  0  0  0  0  0  0
   44.9169    2.9345   12.1717 C   0  0  0  0  0  0  0  0  0  0  0  0
   47.3278    7.8629   13.5362 C   0  0  0  0  0  0  0  0  0  0  0  0
   43.7786    2.9604   11.2972 O   0  0  0  0  0  0  0  0  0  0  0  0
   48.1366    7.7305   14.8337 C   0  0  0  0  0  0  0  0  0  0  0  0
   48.8966    8.9533   15.1163 N   0  0  0  0  0  0  0  0  0  0  0  0
   49.6361    8.8174   16.3877 C   0  0  0  0  0  0  0  0  0  0  0  0
   50.7264    9.9015   16.5238 C   0  0  1  0  0  0  0  0  0  0  0  0
   51.9380    9.6500   15.6084 C   0  0  0  0  0  0  0  0  0  0  0  0
   50.1591   11.1870   16.2248 O   0  0  0  0  0  0  0  0  0  0  0  0
   52.6125    8.4320   15.9272 O   0  0  0  0  0  0  0  0  0  0  0  0
   53.5602    8.4489   16.9131 C   0  0  0  0  0  0  0  0  0  0  0  0
   54.1812    7.2150   17.1338 C   0  0  0  0  0  0  0  0  0  0  0  0
   53.9437    9.5524   17.6816 C   0  0  0  0  0  0  0  0  0  0  0  0
   55.1698    7.0786   18.1096 C   0  0  0  0  0  0  0  0  0  0  0  0
   54.9361    9.4197   18.6613 C   0  0  0  0  0  0  0  0  0  0  0  0
   55.5412    8.1828   18.8657 C   0  0  0  0  0  0  0  0  0  0  0  0
   56.5188    8.0152   19.8010 O   0  0  0  0  0  0  0  0  0  0  0  0
   45.1926    5.1882   11.7297 N   0  0  0  0  0  0  0  0  0  0  0  0
   46.2667    6.0550   11.8221 C   0  0  0  0  0  0  0  0  0  0  0  0
   44.6365    4.4237   12.8540 C   0  0  0  0  0  0  0  0  0  0  0  0
   44.2206    5.4112   10.6584 C   0  0  0  0  0  0  0  0  0  0  0  0
   47.1529    5.7537   12.8264 N   0  0  0  0  0  0  0  0  0  0  0  0
   46.4364    6.9983   11.0541 O   0  0  0  0  0  0  0  0  0  0  0  0
   43.3375    5.0813   13.3461 C   0  0  0  0  0  0  0  0  0  0  0  0
   42.9558    6.0624   11.2243 C   0  0  0  0  0  0  0  0  0  0  0  0
   48.3934    6.5008   12.9587 C   0  0  0  0  0  0  0  0  0  0  0  0
   42.3947    5.2408   12.2689 O   0  0  0  0  0  0  0  0  0  0  0  0
   48.2106    7.8428   13.6920 C   0  0  0  0  0  0  0  0  0  0  0  0
   49.4456    8.6338   13.7881 N   0  0  0  0  0  0  0  0  0  0  0  0
   50.0422    8.6783   15.1349 C   0  0  0  0  0  0  0  0  0  0  0  0
   50.8697    7.4311   15.5244 C   0  0  1  0  0  0  0  0  0  0  0  0
   51.7111    7.6881   16.7878 C   0  0  0  0  0  0  0  0  0  0  0  0
   49.9978    6.3196   15.7674 O   0  0  0  0  0  0  0  0  0  0  0  0
   52.6939    8.6810   16.5029 O   0  0  0  0  0  0  0  0  0  0  0  0
   53.6038    8.9627   17.4839 C   0  0  0  0  0  0  0  0  0  0  0  0
   53.6826    8.3484   18.7368 C   0  0  0  0  0  0  0  0  0  0  0  0
   54.5154    9.9711   17.1544 C   0  0  0  0  0  0  0  0  0  0  0  0
   54.6795    8.7326   19.6406 C   0  0  0  0  0  0  0  0  0  0  0  0
   55.5112   10.3573   18.0555 C   0  0  0  0  0  0  0  0  0  0  0  0
   55.5876    9.7277   19.2921 C   0  0  0  0  0  0  0  0  0  0  0  0
   56.5418   10.0667   20.2031 O   0  0  0  0  0  0  0  0  0  0  0  0
   48.3597    7.2079   14.8428 C   0  0  0  0  0  0  0  0  0  0  0  0
   49.6892    7.3720   14.8557 C   0  0  0  0  0  0  0  0  0  0  0  0
   50.3067    8.0561   15.9937 C   0  0  0  0  0  0  0  0  0  0  0  0
   51.6376    8.1172   15.8316 O   0  0  0  0  0  0  0  0  0  0  0  0
   49.7478    8.5074   16.9737 O   0  0  0  0  0  0  0  0  0  0  0  0
   47.6507    6.5407   13.7485 C   0  0  0  0  0  0  0  0  0  0  0  0
   48.4505    6.1148   12.7594 O   0  0  0  0  0  0  0  0  0  0  0  0
   46.4473    6.3666   13.7161 O   0  0  0  0  0  0  0  0  0  0  0  0
   44.2832    6.0969   10.1275 H   0  0  0  0  0  0  0  0  0  0  0  0
   43.1717    5.6382   11.4290 H   0  0  0  0  0  0  0  0  0  0  0  0
   44.2479    4.4830   13.5268 H   0  0  0  0  0  0  0  0  0  0  0  0
   46.0018    4.2448   13.5000 H   0  0  0  0  0  0  0  0  0  0  0  0
   47.2542    5.8142   13.1315 H   0  0  0  0  0  0  0  0  0  0  0  0
   43.0680    3.9341    9.6358 H   0  0  0  0  0  0  0  0  0  0  0  0
   44.8242    3.7112    9.6832 H   0  0  0  0  0  0  0  0  0  0  0  0
   44.7509    2.1495   12.9160 H   0  0  0  0  0  0  0  0  0  0  0  0
   45.8048    2.6628   11.5829 H   0  0  0  0  0  0  0  0  0  0  0  0
   46.5793    8.6614   13.6343 H   0  0  0  0  0  0  0  0  0  0  0  0
   47.9870    8.1186   12.6961 H   0  0  0  0  0  0  0  0  0  0  0  0
   48.8257    6.8814   14.7397 H   0  0  0  0  0  0  0  0  0  0  0  0
   47.4539    7.5057   15.6615 H   0  0  0  0  0  0  0  0  0  0  0  0
   48.2326    9.7252   15.2234 H   0  0  0  0  0  0  0  0  0  0  0  0
   48.9146    8.9311   17.2073 H   0  0  0  0  0  0  0  0  0  0  0  0
   50.0903    7.8238   16.4808 H   0  0  0  0  0  0  0  0  0  0  0  0
   51.0492    9.9225   17.5701 H   0  0  0  0  0  0  0  0  0  0  0  0
   51.5925    9.5525   14.5706 H   0  0  0  0  0  0  0  0  0  0  0  0
   52.6205   10.5092   15.5855 H   0  0  0  0  0  0  0  0  0  0  0  0
   49.8359   11.1175   15.3054 H   0  0  0  0  0  0  0  0  0  0  0  0
   53.8959    6.3522   16.5374 H   0  0  0  0  0  0  0  0  0  0  0  0
   53.4981   10.5340   17.5473 H   0  0  0  0  0  0  0  0  0  0  0  0
   55.6494    6.1177   18.2744 H   0  0  0  0  0  0  0  0  0  0  0  0
   55.2153   10.2865   19.2522 H   0  0  0  0  0  0  0  0  0  0  0  0
   56.6640    8.8630   20.2542 H   0  0  0  0  0  0  0  0  0  0  0  0
   44.4229    3.4161   12.4748 H   0  0  0  0  0  0  0  0  0  0  0  0
   45.3378    4.3408   13.6877 H   0  0  0  0  0  0  0  0  0  0  0  0
   43.9782    4.4242   10.2476 H   0  0  0  0  0  0  0  0  0  0  0  0
   44.6429    6.0202    9.8509 H   0  0  0  0  0  0  0  0  0  0  0  0
   47.2230    4.7656   13.0204 H   0  0  0  0  0  0  0  0  0  0  0  0
   43.5344    6.0668   13.7935 H   0  0  0  0  0  0  0  0  0  0  0  0
   42.8660    4.4480   14.1079 H   0  0  0  0  0  0  0  0  0  0  0  0
   42.1992    6.1657   10.4363 H   0  0  0  0  0  0  0  0  0  0  0  0
   43.1634    7.0612   11.6327 H   0  0  0  0  0  0  0  0  0  0  0  0
   48.8044    6.6707   11.9567 H   0  0  0  0  0  0  0  0  0  0  0  0
   49.0911    5.8541   13.4947 H   0  0  0  0  0  0  0  0  0  0  0  0
   47.4918    8.4519   13.1299 H   0  0  0  0  0  0  0  0  0  0  0  0
   47.7473    7.6758   14.6715 H   0  0  0  0  0  0  0  0  0  0  0  0
   50.1300    8.3074   13.1100 H   0  0  0  0  0  0  0  0  0  0  0  0
   49.2642    8.8718   15.8847 H   0  0  0  0  0  0  0  0  0  0  0  0
   50.7039    9.5538   15.1399 H   0  0  0  0  0  0  0  0  0  0  0  0
   51.5353    7.1717   14.6900 H   0  0  0  0  0  0  0  0  0  0  0  0
   51.0616    8.0067   17.6150 H   0  0  0  0  0  0  0  0  0  0  0  0
   52.1961    6.7452   17.0704 H   0  0  0  0  0  0  0  0  0  0  0  0
   50.5588    5.5314   15.8885 H   0  0  0  0  0  0  0  0  0  0  0  0
   52.9941    7.5675   19.0431 H   0  0  0  0  0  0  0  0  0  0  0  0
   54.4506   10.4589   16.1836 H   0  0  0  0  0  0  0  0  0  0  0  0
   54.7433    8.2606   20.6176 H   0  0  0  0  0  0  0  0  0  0  0  0
   56.2095   11.1397   17.7739 H   0  0  0  0  0  0  0  0  0  0  0  0
   57.0964   10.7665   19.8182 H   0  0  0  0  0  0  0  0  0  0  0  0
   47.7245    7.5636   15.6485 H   0  0  0  0  0  0  0  0  0  0  0  0
   50.3380    7.0261   14.0611 H   0  0  0  0  0  0  0  0  0  0  0  0
   51.9579    8.5791   16.6351 H   0  0  0  0  0  0  0  0  0  0  0  0
   47.8303    5.7044   12.1211 H   0  0  0  0  0  0  0  0  0  0  0  0
  3  7  1  0
  4  8  1  0
  5  9  1  0
  7 10  1  0
  9 11  1  0
 11 12  1  0
 12 13  1  0
 13 14  1  0
 14 15  1  0
 14 16  1  0
 15 17  1  0
 17 18  1  0
 18 19  2  0
 18 20  1  0
 19 21  1  0
 20 22  2  0
 21 23  2  0
 23 24  1  0
  8 10  1  0
 22 23  1  0
  1  2  1  0
  1  3  1  0
  1  4  1  0
  2  5  1  0
  2  6  2  0
 27 31  1  0
 28 32  1  0
 29 33  1  0
 31 34  1  0
 33 35  1  0
 35 36  1  0
 36 37  1  0
 37 38  1  0
 38 39  1  0
 38 40  1  0
 39 41  1  0
 41 42  1  0
 42 43  2  0
 42 44  1  0
 43 45  1  0
 44 46  2  0
 45 47  2  0
 47 48  1  0
 32 34  1  0
 46 47  1  0
 25 26  1  0
 25 27  1  0
 25 28  1  0
 26 29  1  0
 26 30  2  0
 49 50  2  0
 49 54  1  0
 50 51  1  0
 51 52  1  0
 51 53  2  0
 54 55  1  0
 54 56  2  0
  3 57  1  0
  3 58  1  0
  4 59  1  0
  4 60  1  0
  5 61  1  0
  7 62  1  0
  7 63  1  0
  8 64  1  0
  8 65  1  0
  9 66  1  0
  9 67  1  0
 11 68  1  0
 11 69  1  0
 12 70  1  0
 13 71  1  0
 13 72  1  0
 14 73  1  1
 15 74  1  0
 15 75  1  0
 16 76  1  0
 19 77  1  0
 20 78  1  0
 21 79  1  0
 22 80  1  0
 24 81  1  0
 27 82  1  0
 27 83  1  0
 28 84  1  0
 28 85  1  0
 29 86  1  0
 31 87  1  0
 31 88  1  0
 32 89  1  0
 32 90  1  0
 33 91  1  0
 33 92  1  0
 35 93  1  0
 35 94  1  0
 36 95  1  0
 37 96  1  0
 37 97  1  0
 38 98  1  6
 39 99  1  0
 39100  1  0
 40101  1  0
 43102  1  0
 44103  1  0
 45104  1  0
 46105  1  0
 48106  1  0
 49107  1  0
 50108  1  0
 52109  1  0
 55110  1  0
M  END
> <Uni-Dock RESULT> 
ENERGY=   -5.361  LOWER_BOUND=    3.711  UPPER_BOUND=    5.207
INTER + INTRA:          -5.361
INTER:                  -5.361
INTRA:                   0.000
UNBOUND:                 0.000

$$$$

     RDKit          3D

110111  0  0  0  0  0  0  0  0999 V2000
   45.1664    5.3880   11.9097 N   0  0  0  0  0  0  0  0  0  0  0  0
   45.6859    6.6364   12.2199 C   0  0  0  0  0  0  0  0  0  0  0  0
   44.0942    5.3561   10.9105 C   0  0  0  0  0  0  0  0  0  0  0  0
   45.1063    4.2816   12.8734 C   0  0  0  0  0  0  0  0  0  0  0  0
   46.6512    6.6203   13.1996 N   0  0  0  0  0  0  0  0  0  0  0  0
   45.3312    7.6723   11.6628 O   0  0  0  0  0  0  0  0  0  0  0  0
   43.9466    3.9665   10.2878 C   0  0  0  0  0  0  0  0  0  0  0  0
   44.9164    2.9342   12.1720 C   0  0  0  0  0  0  0  0  0  0  0  0
   47.3275    7.8624   13.5369 C   0  0  0  0  0  0  0  0  0  0  0  0
   43.7780    2.9603   11.2976 O   0  0  0  0  0  0  0  0  0  0  0  0
   48.1364    7.7298   14.8343 C   0  0  0  0  0  0  0  0  0  0  0  0
   48.8965    8.9526   15.1170 N   0  0  0  0  0  0  0  0  0  0  0  0
   49.6361    8.8165   16.3884 C   0  0  0  0  0  0  0  0  0  0  0  0
   50.7264    9.9005   16.5245 C   0  0  1  0  0  0  0  0  0  0  0  0
   51.9380    9.6491   15.6090 C   0  0  0  0  0  0  0  0  0  0  0  0
   50.1592   11.1861   16.2256 O   0  0  0  0  0  0  0  0  0  0  0  0
   52.6125    8.4310   15.9276 O   0  0  0  0  0  0  0  0  0  0  0  0
   53.5602    8.4477   16.9135 C   0  0  0  0  0  0  0  0  0  0  0  0
   54.1812    7.2138   17.1340 C   0  0  0  0  0  0  0  0  0  0  0  0
   53.9439    9.5511   17.6820 C   0  0  0  0  0  0  0  0  0  0  0  0
   55.1698    7.0772   18.1098 C   0  0  0  0  0  0  0  0  0  0  0  0
   54.9363    9.4183   18.6617 C   0  0  0  0  0  0  0  0  0  0  0  0
   55.5414    8.1813   18.8659 C   0  0  0  0  0  0  0  0  0  0  0  0
   56.5189    8.0136   19.8012 O   0  0  0  0  0  0  0  0  0  0  0  0
   45.1921    5.1880   11.7302 N   0  0  0  0  0  0  0  0  0  0  0  0
   46.2662    6.0547   11.8227 C   0  0  0  0  0  0  0  0  0  0  0  0
   44.6361    4.4234   12.8546 C   0  0  0  0  0  0  0  0  0  0  0  0
   44.2201    5.4112   10.6590 C   0  0  0  0  0  0  0  0  0  0  0  0
   47.1525    5.7533   12.8268 N   0  0  0  0  0  0  0  0  0  0  0  0
   46.4360    6.9981   11.0548 O   0  0  0  0  0  0  0  0  0  0  0  0
   43.3371    5.0810   13.3468 C   0  0  0  0  0  0  0  0  0  0  0  0
   42.9553    6.0623   11.2251 C   0  0  0  0  0  0  0  0  0  0  0  0
   48.3931    6.5003   12.9592 C   0  0  0  0  0  0  0  0  0  0  0  0
   42.3943    5.2407   12.2697 O   0  0  0  0  0  0  0  0  0  0  0  0
   48.2103    7.8422   13.6927 C   0  0  0  0  0  0  0  0  0  0  0  0
   49.4454    8.6332   13.7888 N   0  0  0  0  0  0  0  0  0  0  0  0
   50.0421    8.6775   15.1355 C   0  0  0  0  0  0  0  0  0  0  0  0
   50.8696    7.4302   15.5249 C   0  0  1  0  0  0  0  0  0  0  0  0
   51.7110    7.6870   16.7882 C   0  0  0  0  0  0  0  0  0  0  0  0
   49.9976    6.3188   15.7678 O   0  0  0  0  0  0  0  0  0  0  0  0
   52.6939    8.6799   16.5033 O   0  0  0  0  0  0  0  0  0  0  0  0
   53.6038    8.9615   17.4844 C   0  0  0  0  0  0  0  0  0  0  0  0
   53.6827    8.3470   18.7372 C   0  0  0  0  0  0  0  0  0  0  0  0
   54.5154    9.9698   17.1549 C   0  0  0  0  0  0  0  0  0  0  0  0
   54.6797    8.7311   19.6409 C   0  0  0  0  0  0  0  0  0  0  0  0
   55.5114   10.3559   18.0560 C   0  0  0  0  0  0  0  0  0  0  0  0
   55.5878    9.7262   19.2925 C   0  0  0  0  0  0  0  0  0  0  0  0
   56.5420   10.0650   20.2035 O   0  0  0  0  0  0  0  0  0  0  0  0
   48.3595    7.2072   14.8434 C   0  0  0  0  0  0  0  0  0  0  0  0
   49.6890    7.3713   14.8562 C   0  0  0  0  0  0  0  0  0  0  0  0
   50.3066    8.0552   15.9943 C   0  0  0  0  0  0  0  0  0  0  0  0
   51.6375    8.1162   15.8320 O   0  0  0  0  0  0  0  0  0  0  0  0
   49.7478    8.5065   16.9743 O   0  0  0  0  0  0  0  0  0  0  0  0
   47.6504    6.5401   13.7491 C   0  0  0  0  0  0  0  0  0  0  0  0
   48.4501    6.1143   12.7599 O   0  0  0  0  0  0  0  0  0  0  0  0
   46.4470    6.3661   13.7167 O   0  0  0  0  0  0  0  0  0  0  0  0
   44.2826    6.0969   10.1282 H   0  0  0  0  0  0  0  0  0  0  0  0
   43.1712    5.6381   11.4297 H   0  0  0  0  0  0  0  0  0  0  0  0
   44.2475    4.4827   13.5274 H   0  0  0  0  0  0  0  0  0  0  0  0
   46.0014    4.2443   13.5004 H   0  0  0  0  0  0  0  0  0  0  0  0
   47.2538    5.8137   13.1320 H   0  0  0  0  0  0  0  0  0  0  0  0
   43.0673    3.9342    9.6363 H   0  0  0  0  0  0  0  0  0  0  0  0
   44.8235    3.7113    9.6837 H   0  0  0  0  0  0  0  0  0  0  0  0
   44.7503    2.1492   12.9163 H   0  0  0  0  0  0  0  0  0  0  0  0
   45.8042    2.6625   11.5832 H   0  0  0  0  0  0  0  0  0  0  0  0
   46.5791    8.6609   13.6351 H   0  0  0  0  0  0  0  0  0  0  0  0
   47.9867    8.1181   12.6968 H   0  0  0  0  0  0  0  0  0  0  0  0
   48.8255    6.8807   14.7402 H   0  0  0  0  0  0  0  0  0  0  0  0
   47.4537    7.5050   15.6621 H   0  0  0  0  0  0  0  0  0  0  0  0
   48.2326    9.7245   15.2243 H   0  0  0  0  0  0  0  0  0  0  0  0
   48.9147    8.9301   17.2080 H   0  0  0  0  0  0  0  0  0  0  0  0
   50.0902    7.8228   16.4813 H   0  0  0  0  0  0  0  0  0  0  0  0
   51.0494    9.9214   17.5708 H   0  0  0  0  0  0  0  0  0  0  0  0
   51.5924    9.5517   14.5713 H   0  0  0  0  0  0  0  0  0  0  0  0
   52.6205   10.5082   15.5861 H   0  0  0  0  0  0  0  0  0  0  0  0
   49.8359   11.1167   15.3062 H   0  0  0  0  0  0  0  0  0  0  0  0
   53.8958    6.3511   16.5375 H   0  0  0  0  0  0  0  0  0  0  0  0
   53.4982   10.5328   17.5479 H   0  0  0  0  0  0  0  0  0  0  0  0
   55.6494    6.1163   18.2744 H   0  0  0  0  0  0  0  0  0  0  0  0
   55.2155   10.2850   19.2527 H   0  0  0  0  0  0  0  0  0  0  0  0
   56.6642    8.8613   20.2545 H   0  0  0  0  0  0  0  0  0  0  0  0
   44.4224    3.4158   12.4752 H   0  0  0  0  0  0  0  0  0  0  0  0
   45.3374    4.3404   13.6882 H   0  0  0  0  0  0  0  0  0  0  0  0
   43.9776    4.4242   10.2482 H   0  0  0  0  0  0  0  0  0  0  0  0
   44.6423    6.0202    9.8516 H   0  0  0  0  0  0  0  0  0  0  0  0
   47.2226    4.7651   13.0207 H   0  0  0  0  0  0  0  0  0  0  0  0
   43.5341    6.0664   13.7942 H   0  0  0  0  0  0  0  0  0  0  0  0
   42.8657    4.4477   14.1085 H   0  0  0  0  0  0  0  0  0  0  0  0
   42.1987    6.1658   10.4372 H   0  0  0  0  0  0  0  0  0  0  0  0
   43.1630    7.0611   11.6335 H   0  0  0  0  0  0  0  0  0  0  0  0
   48.8040    6.6703   11.9572 H   0  0  0  0  0  0  0  0  0  0  0  0
   49.0907    5.8535   13.4951 H   0  0  0  0  0  0  0  0  0  0  0  0
   47.4916    8.4514   13.1306 H   0  0  0  0  0  0  0  0  0  0  0  0
   47.7472    7.6752   14.6722 H   0  0  0  0  0  0  0  0  0  0  0  0
   50.1298    8.3068   13.1105 H   0  0  0  0  0  0  0  0  0  0  0  0
   49.2642    8.8710   15.8853 H   0  0  0  0  0  0  0  0  0  0  0  0
   50.7038    9.5530   15.1405 H   0  0  0  0  0  0  0  0  0  0  0  0
   51.5351    7.1708   14.6904 H   0  0  0  0  0  0  0  0  0  0  0  0
   51.0616    8.0056   17.6155 H   0  0  0  0  0  0  0  0  0  0  0  0
   52.1960    6.7440   17.0707 H   0  0  0  0  0  0  0  0  0  0  0  0
   50.5586    5.5305   15.8888 H   0  0  0  0  0  0  0  0  0  0  0  0
   52.9942    7.5661   19.0435 H   0  0  0  0  0  0  0  0  0  0  0  0
   54.4506   10.4578   16.1841 H   0  0  0  0  0  0  0  0  0  0  0  0
   54.7435    8.2590   20.6179 H   0  0  0  0  0  0  0  0  0  0  0  0
   56.2097   11.1383   17.7743 H   0  0  0  0  0  0  0  0  0  0  0  0
   57.0967   10.7648   19.8186 H   0  0  0  0  0  0  0  0  0  0  0  0
   47.7244    7.5629   15.6491 H   0  0  0  0  0  0  0  0  0  0  0  0
   50.3377    7.0254   14.0616 H   0  0  0  0  0  0  0  0  0  0  0  0
   51.9579    8.5780   16.6356 H   0  0  0  0  0  0  0  0  0  0  0  0
   47.8299    5.7040   12.1216 H   0  0  0  0  0  0  0  0  0  0  0  0
  3  7  1  0
  4  8  1  0
  5  9  1  0
  7 10  1  0
  9 11  1  0
 11 12  1  0
 12 13  1  0
 13 14  1  0
 14 15  1  0
 14 16  1  0
 15 17  1  0
 17 18  1  0
 18 19  2  0
 18 20  1  0
 19 21  1  0
 20 22  2  0
 21 23  2  0
 23 24  1  0
  8 10  1  0
 22 23  1  0
  1  2  1  0
  1  3  1  0
  1  4  1  0
  2  5  1  0
  2  6  2  0
 27 31  1  0
 28 32  1  0
 29 33  1  0
 31 34  1  0
 33 35  1  0
 35 36  1  0
 36 37  1  0
 37 38  1  0
 38 39  1  0
 38 40  1  0
 39 41  1  0
 41 42  1  0
 42 43  2  0
 42 44  1  0
 43 45  1  0
 44 46  2  0
 45 47  2  0
 47 48  1  0
 32 34  1  0
 46 47  1  0
 25 26  1  0
 25 27  1  0
 25 28  1  0
 26 29  1  0
 26 30  2  0
 49 50  2  0
 49 54  1  0
 50 51  1  0
 51 52  1  0
 51 53  2  0
 54 55  1  0
 54 56  2  0
  3 57  1  0
  3 58  1  0
  4 59  1  0
  4 60  1  0
  5 61  1  0
  7 62  1  0
  7 63  1  0
  8 64  1  0
  8 65  1  0
  9 66  1  0
  9 67  1  0
 11 68  1  0
 11 69  1  0
 12 70  1  0
 13 71  1  0
 13 72  1  0
 14 73  1  1
 15 74  1  0
 15 75  1  0
 16 76  1  0
 19 77  1  0
 20 78  1  0
 21 79  1  0
 22 80  1  0
 24 81  1  0
 27 82  1  0
 27 83  1  0
 28 84  1  0
 28 85  1  0
 29 86  1  0
 31 87  1  0
 31 88  1  0
 32 89  1  0
 32 90  1  0
 33 91  1  0
 33 92  1  0
 35 93  1  0
 35 94  1  0
 36 95  1  0
 37 96  1  0
 37 97  1  0
 38 98  1  6
 39 99  1  0
 39100  1  0
 40101  1  0
 43102  1  0
 44103  1  0
 45104  1  0
 46105  1  0
 48106  1  0
 49107  1  0
 50108  1  0
 52109  1  0
 55110  1  0
M  END
> <Uni-Dock RESULT> 
ENERGY=   -5.360  LOWER_BOUND=    3.711  UPPER_BOUND=    5.208
INTER + INTRA:          -5.360
INTER:                  -5.360
INTRA:                   0.000
UNBOUND:                 0.000

$$$$

     RDKit          3D

110111  0  0  0  0  0  0  0  0999 V2000
   40.1434   11.6244   10.3940 N   0  0  0  0  0  0  0  0  0  0  0  0
   41.2583   12.4162   10.1599 C   0  0  0  0  0  0  0  0  0  0  0  0
   38.8770   12.0938    9.8239 C   0  0  0  0  0  0  0  0  0  0  0  0
   39.9780   10.8084   11.6037 C   0  0  0  0  0  0  0  0  0  0  0  0
   42.4105   11.9626   10.7588 N   0  0  0  0  0  0  0  0  0  0  0  0
   41.2324   13.4301    9.4667 O   0  0  0  0  0  0  0  0  0  0  0  0
   37.8601   10.9575    9.7006 C   0  0  0  0  0  0  0  0  0  0  0  0
   38.9152    9.7239   11.4099 C   0  0  0  0  0  0  0  0  0  0  0  0
   43.6566   12.6668   10.5032 C   0  0  0  0  0  0  0  0  0  0  0  0
   37.6750   10.2878   10.9568 O   0  0  0  0  0  0  0  0  0  0  0  0
   44.7624   12.2260   11.4717 C   0  0  0  0  0  0  0  0  0  0  0  0
   46.0428   12.8644   11.1464 N   0  0  0  0  0  0  0  0  0  0  0  0
   47.0820   12.4558   12.1135 C   0  0  0  0  0  0  0  0  0  0  0  0
   48.4969   12.7877   11.5936 C   0  0  1  0  0  0  0  0  0  0  0  0
   48.9548   11.8487   10.4632 C   0  0  0  0  0  0  0  0  0  0  0  0
   48.5263   14.1467   11.1285 O   0  0  0  0  0  0  0  0  0  0  0  0
   49.0491   10.4902   10.8941 O   0  0  0  0  0  0  0  0  0  0  0  0
   50.2053   10.0742   11.4946 C   0  0  0  0  0  0  0  0  0  0  0  0
   50.2099    8.7231   11.8572 C   0  0  0  0  0  0  0  0  0  0  0  0
   51.3344   10.8552   11.7598 C   0  0  0  0  0  0  0  0  0  0  0  0
   51.3228    8.1556   12.4798 C   0  0  0  0  0  0  0  0  0  0  0  0
   52.4537   10.2891   12.3836 C   0  0  0  0  0  0  0  0  0  0  0  0
   52.4377    8.9428   12.7373 C   0  0  0  0  0  0  0  0  0  0  0  0
   53.5109    8.3519   13.3353 O   0  0  0  0  0  0  0  0  0  0  0  0
   39.9970   11.4282   10.2803 N   0  0  0  0  0  0  0  0  0  0  0  0
   41.2803   11.5832    9.7878 C   0  0  0  0  0  0  0  0  0  0  0  0
   39.6672   11.1793   11.6900 C   0  0  0  0  0  0  0  0  0  0  0  0
   38.8981   12.0515    9.5413 C   0  0  0  0  0  0  0  0  0  0  0  0
   42.2480   10.9351   10.5146 N   0  0  0  0  0  0  0  0  0  0  0  0
   41.5364   12.2194    8.7690 O   0  0  0  0  0  0  0  0  0  0  0  0
   39.1556   12.4712   12.3467 C   0  0  0  0  0  0  0  0  0  0  0  0
   38.4406   13.3256   10.2564 C   0  0  0  0  0  0  0  0  0  0  0  0
   43.6228   10.9032   10.0417 C   0  0  0  0  0  0  0  0  0  0  0  0
   38.0477   13.0250   11.6115 O   0  0  0  0  0  0  0  0  0  0  0  0
   44.4039   12.1867   10.3802 C   0  0  0  0  0  0  0  0  0  0  0  0
   45.7798   12.1918    9.8634 N   0  0  0  0  0  0  0  0  0  0  0  0
   46.8216   12.0177   10.8911 C   0  0  0  0  0  0  0  0  0  0  0  0
   47.0513   10.5580   11.3478 C   0  0  1  0  0  0  0  0  0  0  0  0
   48.3496   10.4232   12.1641 C   0  0  0  0  0  0  0  0  0  0  0  0
   45.9506   10.1163   12.1529 O   0  0  0  0  0  0  0  0  0  0  0  0
   49.4649   10.7021   11.3209 O   0  0  0  0  0  0  0  0  0  0  0  0
   50.7126   10.5280   11.8528 C   0  0  0  0  0  0  0  0  0  0  0  0
   51.0034   10.0732   13.1420 C   0  0  0  0  0  0  0  0  0  0  0  0
   51.7609   10.8548   10.9865 C   0  0  0  0  0  0  0  0  0  0  0  0
   52.3352    9.9318   13.5478 C   0  0  0  0  0  0  0  0  0  0  0  0
   53.0917   10.7153   11.3897 C   0  0  0  0  0  0  0  0  0  0  0  0
   53.3668   10.2477   12.6691 C   0  0  0  0  0  0  0  0  0  0  0  0
   54.6471   10.0920   13.1074 O   0  0  0  0  0  0  0  0  0  0  0  0
   44.6984   11.6684   11.5610 C   0  0  0  0  0  0  0  0  0  0  0  0
   45.8231   11.0902   11.1188 C   0  0  0  0  0  0  0  0  0  0  0  0
   47.0927   11.4238   11.7678 C   0  0  0  0  0  0  0  0  0  0  0  0
   48.0987   10.7441   11.1957 O   0  0  0  0  0  0  0  0  0  0  0  0
   47.2662   12.1837   12.6999 O   0  0  0  0  0  0  0  0  0  0  0  0
   43.3829   11.4018   10.9749 C   0  0  0  0  0  0  0  0  0  0  0  0
   43.4064   10.5326    9.9535 O   0  0  0  0  0  0  0  0  0  0  0  0
   42.3445   11.9020   11.3636 O   0  0  0  0  0  0  0  0  0  0  0  0
   39.0478   12.5490    8.8442 H   0  0  0  0  0  0  0  0  0  0  0  0
   38.4970   12.8704   10.4974 H   0  0  0  0  0  0  0  0  0  0  0  0
   39.6661   11.4936   12.4030 H   0  0  0  0  0  0  0  0  0  0  0  0
   40.9205   10.3461   11.9097 H   0  0  0  0  0  0  0  0  0  0  0  0
   42.4809   10.9561   10.7434 H   0  0  0  0  0  0  0  0  0  0  0  0
   36.8876   11.3511    9.3874 H   0  0  0  0  0  0  0  0  0  0  0  0
   38.1815   10.2212    8.9565 H   0  0  0  0  0  0  0  0  0  0  0  0
   38.7258    9.2165   12.3609 H   0  0  0  0  0  0  0  0  0  0  0  0
   39.2438    8.9693   10.6810 H   0  0  0  0  0  0  0  0  0  0  0  0
   43.4806   13.7477   10.5934 H   0  0  0  0  0  0  0  0  0  0  0  0
   43.9476   12.4569    9.4655 H   0  0  0  0  0  0  0  0  0  0  0  0
   44.8700   11.1350   11.4179 H   0  0  0  0  0  0  0  0  0  0  0  0
   44.4623   12.4735   12.4967 H   0  0  0  0  0  0  0  0  0  0  0  0
   45.9245   13.8781   11.2265 H   0  0  0  0  0  0  0  0  0  0  0  0
   46.9053   13.0072   13.0461 H   0  0  0  0  0  0  0  0  0  0  0  0
   47.0149   11.3857   12.3428 H   0  0  0  0  0  0  0  0  0  0  0  0
   49.1896   12.7170   12.4390 H   0  0  0  0  0  0  0  0  0  0  0  0
   48.2123   11.8683    9.6544 H   0  0  0  0  0  0  0  0  0  0  0  0
   49.8800   12.1990    9.9881 H   0  0  0  0  0  0  0  0  0  0  0  0
   47.8629   14.1874   10.4124 H   0  0  0  0  0  0  0  0  0  0  0  0
   49.3403    8.1049   11.6494 H   0  0  0  0  0  0  0  0  0  0  0  0
   51.3856   11.9073   11.4939 H   0  0  0  0  0  0  0  0  0  0  0  0
   51.3204    7.1051   12.7571 H   0  0  0  0  0  0  0  0  0  0  0  0
   53.3180   10.9136   12.5872 H   0  0  0  0  0  0  0  0  0  0  0  0
   54.2048    9.0213   13.4603 H   0  0  0  0  0  0  0  0  0  0  0  0
   38.8758   10.4188   11.6988 H   0  0  0  0  0  0  0  0  0  0  0  0
   40.5212   10.7999   12.2561 H   0  0  0  0  0  0  0  0  0  0  0  0
   38.0807   11.3213    9.5244 H   0  0  0  0  0  0  0  0  0  0  0  0
   39.1808   12.2681    8.5048 H   0  0  0  0  0  0  0  0  0  0  0  0
   41.9236   10.0849   10.9516 H   0  0  0  0  0  0  0  0  0  0  0  0
   39.9516   13.2277   12.4112 H   0  0  0  0  0  0  0  0  0  0  0  0
   38.8043   12.2570   13.3637 H   0  0  0  0  0  0  0  0  0  0  0  0
   37.5715   13.7556    9.7429 H   0  0  0  0  0  0  0  0  0  0  0  0
   39.2352   14.0843   10.2784 H   0  0  0  0  0  0  0  0  0  0  0  0
   43.6127   10.7420    8.9573 H   0  0  0  0  0  0  0  0  0  0  0  0
   44.0898   10.0289   10.4995 H   0  0  0  0  0  0  0  0  0  0  0  0
   43.8921   13.0388    9.9158 H   0  0  0  0  0  0  0  0  0  0  0  0
   44.3651   12.3768   11.4592 H   0  0  0  0  0  0  0  0  0  0  0  0
   45.8867   11.4936    9.1313 H   0  0  0  0  0  0  0  0  0  0  0  0
   46.6089   12.6607   11.7549 H   0  0  0  0  0  0  0  0  0  0  0  0
   47.7495   12.3951   10.4430 H   0  0  0  0  0  0  0  0  0  0  0  0
   47.1104    9.9133   10.4604 H   0  0  0  0  0  0  0  0  0  0  0  0
   48.3277   11.1082   13.0232 H   0  0  0  0  0  0  0  0  0  0  0  0
   48.4081    9.3944   12.5416 H   0  0  0  0  0  0  0  0  0  0  0  0
   46.0743    9.1630   12.3162 H   0  0  0  0  0  0  0  0  0  0  0  0
   50.2263    9.8149   13.8539 H   0  0  0  0  0  0  0  0  0  0  0  0
   51.5381   11.2191    9.9853 H   0  0  0  0  0  0  0  0  0  0  0  0
   52.5672    9.5817   14.5503 H   0  0  0  0  0  0  0  0  0  0  0  0
   53.8874   10.9716   10.6966 H   0  0  0  0  0  0  0  0  0  0  0  0
   55.2493   10.3480   12.3883 H   0  0  0  0  0  0  0  0  0  0  0  0
   44.6962   12.3750   12.3855 H   0  0  0  0  0  0  0  0  0  0  0  0
   45.8452   10.3854   10.2974 H   0  0  0  0  0  0  0  0  0  0  0  0
   48.8945   11.0244   11.6954 H   0  0  0  0  0  0  0  0  0  0  0  0
   42.4671   10.4707    9.6809 H   0  0  0  0  0  0  0  0  0  0  0  0
  3  7  1  0
  4  8  1  0
  5  9  1  0
  7 10  1  0
  9 11  1  0
 11 12  1  0
 12 13  1  0
 13 14  1  0
 14 15  1  0
 14 16  1  0
 15 17  1  0
 17 18  1  0
 18 19  2  0
 18 20  1  0
 19 21  1  0
 20 22  2  0
 21 23  2  0
 23 24  1  0
  8 10  1  0
 22 23  1  0
  1  2  1  0
  1  3  1  0
  1  4  1  0
  2  5  1  0
  2  6  2  0
 27 31  1  0
 28 32  1  0
 29 33  1  0
 31 34  1  0
 33 35  1  0
 35 36  1  0
 36 37  1  0
 37 38  1  0
 38 39  1  0
 38 40  1  0
 39 41  1  0
 41 42  1  0
 42 43  2  0
 42 44  1  0
 43 45  1  0
 44 46  2  0
 45 47  2  0
 47 48  1  0
 32 34  1  0
 46 47  1  0
 25 26  1  0
 25 27  1  0
 25 28  1  0
 26 29  1  0
 26 30  2  0
 49 50  2  0
 49 54  1  0
 50 51  1  0
 51 52  1  0
 51 53  2  0
 54 55  1  0
 54 56  2  0
  3 57  1  0
  3 58  1  0
  4 59  1  0
  4 60  1  0
  5 61  1  0
  7 62  1  0
  7 63  1  0
  8 64  1  0
  8 65  1  0
  9 66  1  0
  9 67  1  0
 11 68  1  0
 11 69  1  0
 12 70  1  0
 13 71  1  0
 13 72  1  0
 14 73  1  1
 15 74  1  0
 15 75  1  0
 16 76  1  0
 19 77  1  0
 20 78  1  0
 21 79  1  0
 22 80  1  0
 24 81  1  0
 27 82  1  0
 27 83  1  0
 28 84  1  0
 28 85  1  0
 29 86  1  0
 31 87  1  0
 31 88  1  0
 32 89  1  0
 32 90  1  0
 33 91  1  0
 33 92  1  0
 35 93  1  0
 35 94  1  0
 36 95  1  0
 37 96  1  0
 37 97  1  0
 38 98  1  6
 39 99  1  0
 39100  1  0
 40101  1  0
 43102  1  0
 44103  1  0
 45104  1  0
 46105  1  0
 48106  1  0
 49107  1  0
 50108  1  0
 52109  1  0
 55110  1  0
M  END
> <Uni-Dock RESULT> 
ENERGY=   -4.659  LOWER_BOUND=    4.867  UPPER_BOUND=    6.693
INTER + INTRA:          -4.659
INTER:                  -4.659
INTRA:                   0.000
UNBOUND:                 0.000

$$$$

     RDKit          3D

110111  0  0  0  0  0  0  0  0999 V2000
   48.4382   15.9760   13.9347 N   0  0  0  0  0  0  0  0  0  0  0  0
   48.4471   15.9053   15.3203 C   0  0  0  0  0  0  0  0  0  0  0  0
   48.6826   17.2962   13.3461 C   0  0  0  0  0  0  0  0  0  0  0  0
   47.6167   15.0983   13.0915 C   0  0  0  0  0  0  0  0  0  0  0  0
   48.1608   14.6583   15.8252 N   0  0  0  0  0  0  0  0  0  0  0  0
   48.7018   16.8653   16.0433 O   0  0  0  0  0  0  0  0  0  0  0  0
   49.1414   17.1870   11.8907 C   0  0  0  0  0  0  0  0  0  0  0  0
   48.1171   15.0782   11.6450 C   0  0  0  0  0  0  0  0  0  0  0  0
   48.2335   14.4512   17.2625 C   0  0  0  0  0  0  0  0  0  0  0  0
   48.2201   16.4078   11.1130 O   0  0  0  0  0  0  0  0  0  0  0  0
   47.5975   13.1161   17.6727 C   0  0  0  0  0  0  0  0  0  0  0  0
   47.7621   12.8652   19.1090 N   0  0  0  0  0  0  0  0  0  0  0  0
   47.1099   11.5952   19.4877 C   0  0  0  0  0  0  0  0  0  0  0  0
   47.5807   11.1123   20.8760 C   0  0  1  0  0  0  0  0  0  0  0  0
   49.0154   10.5550   20.8612 C   0  0  0  0  0  0  0  0  0  0  0  0
   47.4993   12.2001   21.8109 O   0  0  0  0  0  0  0  0  0  0  0  0
   49.1384    9.4013   20.0282 O   0  0  0  0  0  0  0  0  0  0  0  0
   48.8368    8.1774   20.5588 C   0  0  0  0  0  0  0  0  0  0  0  0
   49.0124    7.1087   19.6735 C   0  0  0  0  0  0  0  0  0  0  0  0
   48.3904    7.9197   21.8587 C   0  0  0  0  0  0  0  0  0  0  0  0
   48.7440    5.7989   20.0744 C   0  0  0  0  0  0  0  0  0  0  0  0
   48.1208    6.6065   22.2651 C   0  0  0  0  0  0  0  0  0  0  0  0
   48.3013    5.5571   21.3684 C   0  0  0  0  0  0  0  0  0  0  0  0
   48.0610    4.2645   21.7288 O   0  0  0  0  0  0  0  0  0  0  0  0
   48.6050   15.9703   13.7227 N   0  0  0  0  0  0  0  0  0  0  0  0
   49.1065   15.4377   14.8966 C   0  0  0  0  0  0  0  0  0  0  0  0
   47.3715   15.5233   13.0620 C   0  0  0  0  0  0  0  0  0  0  0  0
   48.9610   17.3499   13.3876 C   0  0  0  0  0  0  0  0  0  0  0  0
   48.7604   14.1277   15.1175 N   0  0  0  0  0  0  0  0  0  0  0  0
   49.8272   16.0678   15.6660 O   0  0  0  0  0  0  0  0  0  0  0  0
   46.2361   16.5221   13.3360 C   0  0  0  0  0  0  0  0  0  0  0  0
   47.7828   18.2824   13.6819 C   0  0  0  0  0  0  0  0  0  0  0  0
   49.3219   13.4005   16.2447 C   0  0  0  0  0  0  0  0  0  0  0  0
   46.6140   17.8576   12.9509 O   0  0  0  0  0  0  0  0  0  0  0  0
   48.5896   13.6875   17.5690 C   0  0  0  0  0  0  0  0  0  0  0  0
   49.1777   13.0002   18.7274 N   0  0  0  0  0  0  0  0  0  0  0  0
   48.3813   11.8712   19.2401 C   0  0  0  0  0  0  0  0  0  0  0  0
   48.5298   10.5527   18.4454 C   0  0  1  0  0  0  0  0  0  0  0  0
   47.9346    9.3617   19.2182 C   0  0  0  0  0  0  0  0  0  0  0  0
   47.8632   10.6637   17.1813 O   0  0  0  0  0  0  0  0  0  0  0  0
   48.6990    9.1412   20.4014 O   0  0  0  0  0  0  0  0  0  0  0  0
   48.3768    8.0518   21.1624 C   0  0  0  0  0  0  0  0  0  0  0  0
   47.3833    7.1111   20.8772 C   0  0  0  0  0  0  0  0  0  0  0  0
   49.1390    7.9147   22.3272 C   0  0  0  0  0  0  0  0  0  0  0  0
   47.1720    6.0345   21.7459 C   0  0  0  0  0  0  0  0  0  0  0  0
   48.9293    6.8410   23.1968 C   0  0  0  0  0  0  0  0  0  0  0  0
   47.9483    5.9046   22.8933 C   0  0  0  0  0  0  0  0  0  0  0  0
   47.7082    4.8394   23.7076 O   0  0  0  0  0  0  0  0  0  0  0  0
   47.7203   12.7372   17.2673 C   0  0  0  0  0  0  0  0  0  0  0  0
   48.4390   11.7762   17.8629 C   0  0  0  0  0  0  0  0  0  0  0  0
   47.8190   10.9870   18.9293 C   0  0  0  0  0  0  0  0  0  0  0  0
   48.6861   10.0744   19.3948 O   0  0  0  0  0  0  0  0  0  0  0  0
   46.6868   11.0891   19.3582 O   0  0  0  0  0  0  0  0  0  0  0  0
   48.2532   13.5806   16.1951 C   0  0  0  0  0  0  0  0  0  0  0  0
   49.5253   13.3086   15.8677 O   0  0  0  0  0  0  0  0  0  0  0  0
   47.6204   14.4511   15.6282 O   0  0  0  0  0  0  0  0  0  0  0  0
   49.4286   17.8405   13.9321 H   0  0  0  0  0  0  0  0  0  0  0  0
   47.7371   17.8471   13.4045 H   0  0  0  0  0  0  0  0  0  0  0  0
   46.5951   15.4996   13.1241 H   0  0  0  0  0  0  0  0  0  0  0  0
   47.5865   14.0773   13.4820 H   0  0  0  0  0  0  0  0  0  0  0  0
   48.5606   13.9174   15.2689 H   0  0  0  0  0  0  0  0  0  0  0  0
   49.2016   18.1813   11.4364 H   0  0  0  0  0  0  0  0  0  0  0  0
   50.1320   16.7252   11.8243 H   0  0  0  0  0  0  0  0  0  0  0  0
   47.4158   14.5190   11.0179 H   0  0  0  0  0  0  0  0  0  0  0  0
   49.1013   14.5938   11.5702 H   0  0  0  0  0  0  0  0  0  0  0  0
   47.7279   15.2849   17.7692 H   0  0  0  0  0  0  0  0  0  0  0  0
   49.2938   14.4758   17.5465 H   0  0  0  0  0  0  0  0  0  0  0  0
   48.0677   12.3060   17.1005 H   0  0  0  0  0  0  0  0  0  0  0  0
   46.5340   13.1278   17.4070 H   0  0  0  0  0  0  0  0  0  0  0  0
   47.2960   13.6192   19.6210 H   0  0  0  0  0  0  0  0  0  0  0  0
   46.0270   11.7725   19.5191 H   0  0  0  0  0  0  0  0  0  0  0  0
   47.2967   10.8130   18.7423 H   0  0  0  0  0  0  0  0  0  0  0  0
   46.8847   10.3376   21.2152 H   0  0  0  0  0  0  0  0  0  0  0  0
   49.6929   11.3129   20.4458 H   0  0  0  0  0  0  0  0  0  0  0  0
   49.3977   10.3784   21.8746 H   0  0  0  0  0  0  0  0  0  0  0  0
   48.0899   12.8912   21.4528 H   0  0  0  0  0  0  0  0  0  0  0  0
   49.3657    7.2967   18.6629 H   0  0  0  0  0  0  0  0  0  0  0  0
   48.2428    8.7117   22.5874 H   0  0  0  0  0  0  0  0  0  0  0  0
   48.8844    4.9734   19.3822 H   0  0  0  0  0  0  0  0  0  0  0  0
   47.7686    6.4276   23.2762 H   0  0  0  0  0  0  0  0  0  0  0  0
   47.7503    4.2512   22.6499 H   0  0  0  0  0  0  0  0  0  0  0  0
   47.5852   15.4889   11.9859 H   0  0  0  0  0  0  0  0  0  0  0  0
   47.0628   14.5271   13.3879 H   0  0  0  0  0  0  0  0  0  0  0  0
   49.1848   17.3617   12.3145 H   0  0  0  0  0  0  0  0  0  0  0  0
   49.8586   17.6768   13.9248 H   0  0  0  0  0  0  0  0  0  0  0  0
   48.6514   13.5902   14.2701 H   0  0  0  0  0  0  0  0  0  0  0  0
   45.9567   16.5259   14.3999 H   0  0  0  0  0  0  0  0  0  0  0  0
   45.3499   16.2469   12.7507 H   0  0  0  0  0  0  0  0  0  0  0  0
   48.0226   19.3053   13.3658 H   0  0  0  0  0  0  0  0  0  0  0  0
   47.5417   18.3030   14.7538 H   0  0  0  0  0  0  0  0  0  0  0  0
   50.3821   13.6648   16.3343 H   0  0  0  0  0  0  0  0  0  0  0  0
   49.2679   12.3402   15.9897 H   0  0  0  0  0  0  0  0  0  0  0  0
   48.6543   14.7627   17.7770 H   0  0  0  0  0  0  0  0  0  0  0  0
   47.5194   13.4759   17.4601 H   0  0  0  0  0  0  0  0  0  0  0  0
   50.1253   12.6961   18.5165 H   0  0  0  0  0  0  0  0  0  0  0  0
   47.3243   12.1586   19.3121 H   0  0  0  0  0  0  0  0  0  0  0  0
   48.7286   11.7026   20.2673 H   0  0  0  0  0  0  0  0  0  0  0  0
   49.5965   10.3692   18.2581 H   0  0  0  0  0  0  0  0  0  0  0  0
   46.8819    9.5597   19.4638 H   0  0  0  0  0  0  0  0  0  0  0  0
   47.9794    8.4787   18.5682 H   0  0  0  0  0  0  0  0  0  0  0  0
   48.0824    9.8653   16.6662 H   0  0  0  0  0  0  0  0  0  0  0  0
   46.7600    7.1777   19.9914 H   0  0  0  0  0  0  0  0  0  0  0  0
   49.9066    8.6511   22.5578 H   0  0  0  0  0  0  0  0  0  0  0  0
   46.3985    5.3018   21.5307 H   0  0  0  0  0  0  0  0  0  0  0  0
   49.5375    6.7548   24.0923 H   0  0  0  0  0  0  0  0  0  0  0  0
   48.3245    4.8839   24.4583 H   0  0  0  0  0  0  0  0  0  0  0  0
   46.6930   12.9497   17.5476 H   0  0  0  0  0  0  0  0  0  0  0  0
   49.4644   11.5514   17.5986 H   0  0  0  0  0  0  0  0  0  0  0  0
   48.1850    9.5975   20.0898 H   0  0  0  0  0  0  0  0  0  0  0  0
   49.7227   13.9507   15.1540 H   0  0  0  0  0  0  0  0  0  0  0  0
  3  7  1  0
  4  8  1  0
  5  9  1  0
  7 10  1  0
  9 11  1  0
 11 12  1  0
 12 13  1  0
 13 14  1  0
 14 15  1  0
 14 16  1  0
 15 17  1  0
 17 18  1  0
 18 19  2  0
 18 20  1  0
 19 21  1  0
 20 22  2  0
 21 23  2  0
 23 24  1  0
  8 10  1  0
 22 23  1  0
  1  2  1  0
  1  3  1  0
  1  4  1  0
  2  5  1  0
  2  6  2  0
 27 31  1  0
 28 32  1  0
 29 33  1  0
 31 34  1  0
 33 35  1  0
 35 36  1  0
 36 37  1  0
 37 38  1  0
 38 39  1  0
 38 40  1  0
 39 41  1  0
 41 42  1  0
 42 43  2  0
 42 44  1  0
 43 45  1  0
 44 46  2  0
 45 47  2  0
 47 48  1  0
 32 34  1  0
 46 47  1  0
 25 26  1  0
 25 27  1  0
 25 28  1  0
 26 29  1  0
 26 30  2  0
 49 50  2  0
 49 54  1  0
 50 51  1  0
 51 52  1  0
 51 53  2  0
 54 55  1  0
 54 56  2  0
  3 57  1  0
  3 58  1  0
  4 59  1  0
  4 60  1  0
  5 61  1  0
  7 62  1  0
  7 63  1  0
  8 64  1  0
  8 65  1  0
  9 66  1  0
  9 67  1  0
 11 68  1  0
 11 69  1  0
 12 70  1  0
 13 71  1  0
 13 72  1  0
 14 73  1  1
 15 74  1  0
 15 75  1  0
 16 76  1  0
 19 77  1  0
 20 78  1  0
 21 79  1  0
 22 80  1  0
 24 81  1  0
 27 82  1  0
 27 83  1  0
 28 84  1  0
 28 85  1  0
 29 86  1  0
 31 87  1  0
 31 88  1  0
 32 89  1  0
 32 90  1  0
 33 91  1  0
 33 92  1  0
 35 93  1  0
 35 94  1  0
 36 95  1  0
 37 96  1  0
 37 97  1  0
 38 98  1  6
 39 99  1  0
 39100  1  0
 40101  1  0
 43102  1  0
 44103  1  0
 45104  1  0
 46105  1  0
 48106  1  0
 49107  1  0
 50108  1  0
 52109  1  0
 55110  1  0
M  END
> <Uni-Dock RESULT> 
ENERGY=   -4.650  LOWER_BOUND=    7.123  UPPER_BOUND=   11.011
INTER + INTRA:          -4.650
INTER:                  -4.650
INTRA:                   0.000
UNBOUND:                 0.000

$$$$

     RDKit          3D

110111  0  0  0  0  0  0  0  0999 V2000
   55.2739    1.5262   17.4664 N   0  0  0  0  0  0  0  0  0  0  0  0
   54.5288    1.8911   18.5784 C   0  0  0  0  0  0  0  0  0  0  0  0
   55.9201    0.2113   17.5154 C   0  0  0  0  0  0  0  0  0  0  0  0
   55.9771    2.4966   16.6178 C   0  0  0  0  0  0  0  0  0  0  0  0
   53.9867    3.1532   18.5072 N   0  0  0  0  0  0  0  0  0  0  0  0
   54.3504    1.1520   19.5433 O   0  0  0  0  0  0  0  0  0  0  0  0
   56.2737   -0.2943   16.1154 C   0  0  0  0  0  0  0  0  0  0  0  0
   56.3304    1.8990   15.2535 C   0  0  0  0  0  0  0  0  0  0  0  0
   53.1119    3.6011   19.5787 C   0  0  0  0  0  0  0  0  0  0  0  0
   57.0586    0.6701   15.3981 O   0  0  0  0  0  0  0  0  0  0  0  0
   52.8484    5.1108   19.4977 C   0  0  0  0  0  0  0  0  0  0  0  0
   51.8868    5.5405   20.5192 N   0  0  0  0  0  0  0  0  0  0  0  0
   51.6779    7.0010   20.4474 C   0  0  0  0  0  0  0  0  0  0  0  0
   50.4152    7.4283   21.2256 C   0  0  1  0  0  0  0  0  0  0  0  0
   49.1100    7.0462   20.5048 C   0  0  0  0  0  0  0  0  0  0  0  0
   50.4347    6.8281   22.5307 O   0  0  0  0  0  0  0  0  0  0  0  0
   48.9802    7.6979   19.2404 O   0  0  0  0  0  0  0  0  0  0  0  0
   48.4459    8.9564   19.2060 C   0  0  0  0  0  0  0  0  0  0  0  0
   48.3370    9.4990   17.9213 C   0  0  0  0  0  0  0  0  0  0  0  0
   48.0152    9.7092   20.3029 C   0  0  0  0  0  0  0  0  0  0  0  0
   47.8094   10.7769   17.7292 C   0  0  0  0  0  0  0  0  0  0  0  0
   47.4843   10.9917   20.1142 C   0  0  0  0  0  0  0  0  0  0  0  0
   47.3854   11.5138   18.8274 C   0  0  0  0  0  0  0  0  0  0  0  0
   46.8641   12.7529   18.6009 O   0  0  0  0  0  0  0  0  0  0  0  0
   55.2536    1.3874   17.2358 N   0  0  0  0  0  0  0  0  0  0  0  0
   54.0575    1.7879   17.8037 C   0  0  0  0  0  0  0  0  0  0  0  0
   56.3490    2.2944   16.8676 C   0  0  0  0  0  0  0  0  0  0  0  0
   55.7090    0.0194   17.4875 C   0  0  0  0  0  0  0  0  0  0  0  0
   53.6811    3.0695   17.4867 N   0  0  0  0  0  0  0  0  0  0  0  0
   53.3692    1.0537   18.5077 O   0  0  0  0  0  0  0  0  0  0  0  0
   57.4716    2.2158   17.9143 C   0  0  0  0  0  0  0  0  0  0  0  0
   56.8269    0.0223   18.5336 C   0  0  0  0  0  0  0  0  0  0  0  0
   52.3853    3.5787   17.9066 C   0  0  0  0  0  0  0  0  0  0  0  0
   57.9182    0.8587   18.0972 O   0  0  0  0  0  0  0  0  0  0  0  0
   52.3779    4.0702   19.3662 C   0  0  0  0  0  0  0  0  0  0  0  0
   51.0619    4.5398   19.8222 N   0  0  0  0  0  0  0  0  0  0  0  0
   50.9505    6.0016   19.9722 C   0  0  0  0  0  0  0  0  0  0  0  0
   50.7155    6.7774   18.6550 C   0  0  1  0  0  0  0  0  0  0  0  0
   50.2931    8.2323   18.9284 C   0  0  0  0  0  0  0  0  0  0  0  0
   51.9138    6.7836   17.8684 O   0  0  0  0  0  0  0  0  0  0  0  0
   49.0181    8.2386   19.5664 O   0  0  0  0  0  0  0  0  0  0  0  0
   48.4353    9.4548   19.7918 C   0  0  0  0  0  0  0  0  0  0  0  0
   48.9579   10.6995   19.4300 C   0  0  0  0  0  0  0  0  0  0  0  0
   47.2048    9.3923   20.4540 C   0  0  0  0  0  0  0  0  0  0  0  0
   48.2409   11.8668   19.7157 C   0  0  0  0  0  0  0  0  0  0  0  0
   46.4873   10.5565   20.7413 C   0  0  0  0  0  0  0  0  0  0  0  0
   47.0115   11.7866   20.3625 C   0  0  0  0  0  0  0  0  0  0  0  0
   46.3488   12.9490   20.6175 O   0  0  0  0  0  0  0  0  0  0  0  0
   52.8107    5.2480   18.9475 C   0  0  0  0  0  0  0  0  0  0  0  0
   51.5741    5.7314   18.7692 C   0  0  0  0  0  0  0  0  0  0  0  0
   51.1815    6.9499   19.4802 C   0  0  0  0  0  0  0  0  0  0  0  0
   49.9183    7.2811   19.1702 O   0  0  0  0  0  0  0  0  0  0  0  0
   51.8622    7.6126   20.2378 O   0  0  0  0  0  0  0  0  0  0  0  0
   53.2943    4.0350   18.2841 C   0  0  0  0  0  0  0  0  0  0  0  0
   52.3872    3.4497   17.4879 O   0  0  0  0  0  0  0  0  0  0  0  0
   54.4146    3.5805   18.4172 O   0  0  0  0  0  0  0  0  0  0  0  0
   55.2721   -0.5112   18.0198 H   0  0  0  0  0  0  0  0  0  0  0  0
   56.8291    0.3291   18.1161 H   0  0  0  0  0  0  0  0  0  0  0  0
   56.8970    2.7701   17.1514 H   0  0  0  0  0  0  0  0  0  0  0  0
   55.3900    3.4083   16.4765 H   0  0  0  0  0  0  0  0  0  0  0  0
   53.6708    3.3838   17.5770 H   0  0  0  0  0  0  0  0  0  0  0  0
   56.8600   -1.2165   16.1820 H   0  0  0  0  0  0  0  0  0  0  0  0
   55.3703   -0.5100   15.5355 H   0  0  0  0  0  0  0  0  0  0  0  0
   56.9595    2.5983   14.6942 H   0  0  0  0  0  0  0  0  0  0  0  0
   55.4271    1.7028   14.6581 H   0  0  0  0  0  0  0  0  0  0  0  0
   53.5708    3.3464   20.5440 H   0  0  0  0  0  0  0  0  0  0  0  0
   52.1714    3.0410   19.4930 H   0  0  0  0  0  0  0  0  0  0  0  0
   52.4594    5.3522   18.5002 H   0  0  0  0  0  0  0  0  0  0  0  0
   53.7966    5.6481   19.6164 H   0  0  0  0  0  0  0  0  0  0  0  0
   52.2810    5.3274   21.4397 H   0  0  0  0  0  0  0  0  0  0  0  0
   52.5550    7.4861   20.8952 H   0  0  0  0  0  0  0  0  0  0  0  0
   51.6039    7.3429   19.4082 H   0  0  0  0  0  0  0  0  0  0  0  0
   50.4587    8.5138   21.3648 H   0  0  0  0  0  0  0  0  0  0  0  0
   49.1128    5.9673   20.3004 H   0  0  0  0  0  0  0  0  0  0  0  0
   48.2296    7.1973   21.1423 H   0  0  0  0  0  0  0  0  0  0  0  0
   50.4475    5.8644   22.3700 H   0  0  0  0  0  0  0  0  0  0  0  0
   48.6621    8.9199   17.0609 H   0  0  0  0  0  0  0  0  0  0  0  0
   48.0718    9.3334   21.3206 H   0  0  0  0  0  0  0  0  0  0  0  0
   47.7260   11.1915   16.7284 H   0  0  0  0  0  0  0  0  0  0  0  0
   47.1617   11.5632   20.9789 H   0  0  0  0  0  0  0  0  0  0  0  0
   46.6226   13.1495   19.4550 H   0  0  0  0  0  0  0  0  0  0  0  0
   56.7243    1.9556   15.8933 H   0  0  0  0  0  0  0  0  0  0  0  0
   56.0163    3.3307   16.7716 H   0  0  0  0  0  0  0  0  0  0  0  0
   56.0937   -0.3609   16.5340 H   0  0  0  0  0  0  0  0  0  0  0  0
   54.8836   -0.6289   17.8030 H   0  0  0  0  0  0  0  0  0  0  0  0
   53.9822    3.3638   16.5693 H   0  0  0  0  0  0  0  0  0  0  0  0
   57.1400    2.6135   18.8849 H   0  0  0  0  0  0  0  0  0  0  0  0
   58.3336    2.8060   17.5795 H   0  0  0  0  0  0  0  0  0  0  0  0
   57.2177   -0.9936   18.6717 H   0  0  0  0  0  0  0  0  0  0  0  0
   56.4691    0.3866   19.5066 H   0  0  0  0  0  0  0  0  0  0  0  0
   51.6407    2.7855   17.7713 H   0  0  0  0  0  0  0  0  0  0  0  0
   52.1312    4.3886   17.2198 H   0  0  0  0  0  0  0  0  0  0  0  0
   52.6539    3.2318   20.0176 H   0  0  0  0  0  0  0  0  0  0  0  0
   53.1611    4.8231   19.5132 H   0  0  0  0  0  0  0  0  0  0  0  0
   50.3286    4.1914   19.2093 H   0  0  0  0  0  0  0  0  0  0  0  0
   51.8313    6.3941   20.4965 H   0  0  0  0  0  0  0  0  0  0  0  0
   50.0928    6.1694   20.6358 H   0  0  0  0  0  0  0  0  0  0  0  0
   49.9281    6.2713   18.0803 H   0  0  0  0  0  0  0  0  0  0  0  0
   51.0459    8.7323   19.5538 H   0  0  0  0  0  0  0  0  0  0  0  0
   50.2376    8.7564   17.9659 H   0  0  0  0  0  0  0  0  0  0  0  0
   51.6907    7.1720   17.0022 H   0  0  0  0  0  0  0  0  0  0  0  0
   49.9116   10.8018   18.9226 H   0  0  0  0  0  0  0  0  0  0  0  0
   46.7996    8.4253   20.7465 H   0  0  0  0  0  0  0  0  0  0  0  0
   48.6441   12.8377   19.4396 H   0  0  0  0  0  0  0  0  0  0  0  0
   45.5322   10.4806   21.2524 H   0  0  0  0  0  0  0  0  0  0  0  0
   45.5142   12.7324   21.0668 H   0  0  0  0  0  0  0  0  0  0  0  0
   53.5323    5.7299   19.6003 H   0  0  0  0  0  0  0  0  0  0  0  0
   50.8409    5.2639   18.1245 H   0  0  0  0  0  0  0  0  0  0  0  0
   49.7511    8.1010   19.6815 H   0  0  0  0  0  0  0  0  0  0  0  0
   52.8608    2.6685   17.1331 H   0  0  0  0  0  0  0  0  0  0  0  0
  3  7  1  0
  4  8  1  0
  5  9  1  0
  7 10  1  0
  9 11  1  0
 11 12  1  0
 12 13  1  0
 13 14  1  0
 14 15  1  0
 14 16  1  0
 15 17  1  0
 17 18  1  0
 18 19  2  0
 18 20  1  0
 19 21  1  0
 20 22  2  0
 21 23  2  0
 23 24  1  0
  8 10  1  0
 22 23  1  0
  1  2  1  0
  1  3  1  0
  1  4  1  0
  2  5  1  0
  2  6  2  0
 27 31  1  0
 28 32  1  0
 29 33  1  0
 31 34  1  0
 33 35  1  0
 35 36  1  0
 36 37  1  0
 37 38  1  0
 38 39  1  0
 38 40  1  0
 39 41  1  0
 41 42  1  0
 42 43  2  0
 42 44  1  0
 43 45  1  0
 44 46  2  0
 45 47  2  0
 47 48  1  0
 32 34  1  0
 46 47  1  0
 25 26  1  0
 25 27  1  0
 25 28  1  0
 26 29  1  0
 26 30  2  0
 49 50  2  0
 49 54  1  0
 50 51  1  0
 51 52  1  0
 51 53  2  0
 54 55  1  0
 54 56  2  0
  3 57  1  0
  3 58  1  0
  4 59  1  0
  4 60  1  0
  5 61  1  0
  7 62  1  0
  7 63  1  0
  8 64  1  0
  8 65  1  0
  9 66  1  0
  9 67  1  0
 11 68  1  0
 11 69  1  0
 12 70  1  0
 13 71  1  0
 13 72  1  0
 14 73  1  1
 15 74  1  0
 15 75  1  0
 16 76  1  0
 19 77  1  0
 20 78  1  0
 21 79  1  0
 22 80  1  0
 24 81  1  0
 27 82  1  0
 27 83  1  0
 28 84  1  0
 28 85  1  0
 29 86  1  0
 31 87  1  0
 31 88  1  0
 32 89  1  0
 32 90  1  0
 33 91  1  0
 33 92  1  0
 35 93  1  0
 35 94  1  0
 36 95  1  0
 37 96  1  0
 37 97  1  0
 38 98  1  6
 39 99  1  0
 39100  1  0
 40101  1  0
 43102  1  0
 44103  1  0
 45104  1  0
 46105  1  0
 48106  1  0
 49107  1  0
 50108  1  0
 52109  1  0
 55110  1  0
M  END
> <Uni-Dock RESULT> 
ENERGY=   -4.470  LOWER_BOUND=    8.109  UPPER_BOUND=   10.606
INTER + INTRA:          -4.470
INTER:                  -4.470
INTRA:                   0.000
UNBOUND:                 0.000

$$$$

     RDKit          3D

110111  0  0  0  0  0  0  0  0999 V2000
   53.9959    7.5477    8.8292 N   0  0  0  0  0  0  0  0  0  0  0  0
   53.3273    8.6426    9.3574 C   0  0  0  0  0  0  0  0  0  0  0  0
   54.7737    7.7832    7.6091 C   0  0  0  0  0  0  0  0  0  0  0  0
   53.5064    6.1693    8.9585 C   0  0  0  0  0  0  0  0  0  0  0  0
   52.5697    8.3603   10.4701 N   0  0  0  0  0  0  0  0  0  0  0  0
   53.4096    9.7746    8.8875 O   0  0  0  0  0  0  0  0  0  0  0  0
   55.8344    6.7005    7.4004 C   0  0  0  0  0  0  0  0  0  0  0  0
   54.6178    5.1504    8.6940 C   0  0  0  0  0  0  0  0  0  0  0  0
   51.9008    9.4530   11.1576 C   0  0  0  0  0  0  0  0  0  0  0  0
   55.2503    5.3895    7.4276 O   0  0  0  0  0  0  0  0  0  0  0  0
   50.8714    8.9355   12.1714 C   0  0  0  0  0  0  0  0  0  0  0  0
   50.2717   10.0369   12.9330 N   0  0  0  0  0  0  0  0  0  0  0  0
   49.2577    9.5195   13.8743 C   0  0  0  0  0  0  0  0  0  0  0  0
   48.8907   10.5725   14.9415 C   0  0  1  0  0  0  0  0  0  0  0  0
   49.9971   10.7695   15.9934 C   0  0  0  0  0  0  0  0  0  0  0  0
   48.6139   11.8264   14.2974 O   0  0  0  0  0  0  0  0  0  0  0  0
   50.2462    9.5805   16.7447 O   0  0  0  0  0  0  0  0  0  0  0  0
   49.4683    9.3251   17.8402 C   0  0  0  0  0  0  0  0  0  0  0  0
   49.8059    8.1518   18.5231 C   0  0  0  0  0  0  0  0  0  0  0  0
   48.4121   10.1096   18.3135 C   0  0  0  0  0  0  0  0  0  0  0  0
   49.0994    7.7609   19.6616 C   0  0  0  0  0  0  0  0  0  0  0  0
   47.7012    9.7211   19.4563 C   0  0  0  0  0  0  0  0  0  0  0  0
   48.0525    8.5495   20.1209 C   0  0  0  0  0  0  0  0  0  0  0  0
   47.3930    8.1432   21.2428 O   0  0  0  0  0  0  0  0  0  0  0  0
   54.2378    7.4280    8.8307 N   0  0  0  0  0  0  0  0  0  0  0  0
   53.9882    8.2931    9.8808 C   0  0  0  0  0  0  0  0  0  0  0  0
   53.4048    6.2677    8.4878 C   0  0  0  0  0  0  0  0  0  0  0  0
   55.0028    7.9350    7.6906 C   0  0  0  0  0  0  0  0  0  0  0  0
   53.3013    7.7300   10.9276 N   0  0  0  0  0  0  0  0  0  0  0  0
   54.3729    9.4594    9.8962 O   0  0  0  0  0  0  0  0  0  0  0  0
   52.5264    6.5922    7.2691 C   0  0  0  0  0  0  0  0  0  0  0  0
   54.0637    8.2301    6.5178 C   0  0  0  0  0  0  0  0  0  0  0  0
   53.0825    8.4837   12.1518 C   0  0  0  0  0  0  0  0  0  0  0  0
   53.3243    7.0447    6.1586 O   0  0  0  0  0  0  0  0  0  0  0  0
   51.8905    9.4542   12.0542 C   0  0  0  0  0  0  0  0  0  0  0  0
   51.6882   10.2613   13.2658 N   0  0  0  0  0  0  0  0  0  0  0  0
   50.5185    9.8726   14.0734 C   0  0  0  0  0  0  0  0  0  0  0  0
   50.7351    8.6443   14.9880 C   0  0  1  0  0  0  0  0  0  0  0  0
   49.5991    8.5039   16.0174 C   0  0  0  0  0  0  0  0  0  0  0  0
   50.7947    7.4490   14.1989 O   0  0  0  0  0  0  0  0  0  0  0  0
   49.6372    9.6133   16.9123 O   0  0  0  0  0  0  0  0  0  0  0  0
   48.7615    9.6027   17.9623 C   0  0  0  0  0  0  0  0  0  0  0  0
   47.8457    8.5904   18.2624 C   0  0  0  0  0  0  0  0  0  0  0  0
   48.8248   10.7363   18.7792 C   0  0  0  0  0  0  0  0  0  0  0  0
   47.0158    8.7102   19.3828 C   0  0  0  0  0  0  0  0  0  0  0  0
   47.9965   10.8588   19.8981 C   0  0  0  0  0  0  0  0  0  0  0  0
   47.1010    9.8379   20.1934 C   0  0  0  0  0  0  0  0  0  0  0  0
   46.2750    9.9094   21.2741 O   0  0  0  0  0  0  0  0  0  0  0  0
   51.0862    8.4652   12.4074 C   0  0  0  0  0  0  0  0  0  0  0  0
   51.2036    8.7272   13.7160 C   0  0  0  0  0  0  0  0  0  0  0  0
   49.9944    9.0097   14.4923 C   0  0  0  0  0  0  0  0  0  0  0  0
   50.3107    9.2383   15.7764 O   0  0  0  0  0  0  0  0  0  0  0  0
   48.8484    9.0314   14.0890 O   0  0  0  0  0  0  0  0  0  0  0  0
   52.2359    8.1750   11.5476 C   0  0  0  0  0  0  0  0  0  0  0  0
   53.4153    8.2008   12.1862 O   0  0  0  0  0  0  0  0  0  0  0  0
   52.1582    7.9216   10.3605 O   0  0  0  0  0  0  0  0  0  0  0  0
   55.2486    8.7678    7.6462 H   0  0  0  0  0  0  0  0  0  0  0  0
   54.0617    7.7810    6.7761 H   0  0  0  0  0  0  0  0  0  0  0  0
   52.7091    6.0491    8.2131 H   0  0  0  0  0  0  0  0  0  0  0  0
   53.0708    5.9873    9.9449 H   0  0  0  0  0  0  0  0  0  0  0  0
   53.0129    7.6859   11.0758 H   0  0  0  0  0  0  0  0  0  0  0  0
   56.3201    6.8279    6.4275 H   0  0  0  0  0  0  0  0  0  0  0  0
   56.6082    6.7540    8.1734 H   0  0  0  0  0  0  0  0  0  0  0  0
   54.1973    4.1402    8.6740 H   0  0  0  0  0  0  0  0  0  0  0  0
   55.3851    5.1841    9.4807 H   0  0  0  0  0  0  0  0  0  0  0  0
   51.4115   10.0965   10.4134 H   0  0  0  0  0  0  0  0  0  0  0  0
   52.6734   10.0474   11.6629 H   0  0  0  0  0  0  0  0  0  0  0  0
   51.3670    8.2384   12.8591 H   0  0  0  0  0  0  0  0  0  0  0  0
   50.0953    8.3722   11.6400 H   0  0  0  0  0  0  0  0  0  0  0  0
   49.7959   10.6596   12.2743 H   0  0  0  0  0  0  0  0  0  0  0  0
   48.3597    9.2707   13.2939 H   0  0  0  0  0  0  0  0  0  0  0  0
   49.6008    8.6010   14.3651 H   0  0  0  0  0  0  0  0  0  0  0  0
   47.9668   10.2459   15.4307 H   0  0  0  0  0  0  0  0  0  0  0  0
   50.9378   11.0200   15.4854 H   0  0  0  0  0  0  0  0  0  0  0  0
   49.8005   11.6351   16.6387 H   0  0  0  0  0  0  0  0  0  0  0  0
   49.4388   12.0626   13.8299 H   0  0  0  0  0  0  0  0  0  0  0  0
   50.6298    7.5380   18.1681 H   0  0  0  0  0  0  0  0  0  0  0  0
   48.1125   11.0324   17.8247 H   0  0  0  0  0  0  0  0  0  0  0  0
   49.3682    6.8494   20.1883 H   0  0  0  0  0  0  0  0  0  0  0  0
   46.8800   10.3401   19.8042 H   0  0  0  0  0  0  0  0  0  0  0  0
   46.6864    8.7821   21.4366 H   0  0  0  0  0  0  0  0  0  0  0  0
   54.0923    5.4477    8.2431 H   0  0  0  0  0  0  0  0  0  0  0  0
   52.7684    5.9527    9.3182 H   0  0  0  0  0  0  0  0  0  0  0  0
   55.7075    7.1431    7.4117 H   0  0  0  0  0  0  0  0  0  0  0  0
   55.5823    8.8261    7.9577 H   0  0  0  0  0  0  0  0  0  0  0  0
   53.4949    6.7476   11.0560 H   0  0  0  0  0  0  0  0  0  0  0  0
   51.7821    7.3658    7.5091 H   0  0  0  0  0  0  0  0  0  0  0  0
   51.9909    5.6907    6.9466 H   0  0  0  0  0  0  0  0  0  0  0  0
   54.6427    8.5430    5.6399 H   0  0  0  0  0  0  0  0  0  0  0  0
   53.3519    9.0309    6.7616 H   0  0  0  0  0  0  0  0  0  0  0  0
   54.0002    9.0350   12.3882 H   0  0  0  0  0  0  0  0  0  0  0  0
   52.9259    7.7504   12.9456 H   0  0  0  0  0  0  0  0  0  0  0  0
   52.0820   10.1600   11.2364 H   0  0  0  0  0  0  0  0  0  0  0  0
   50.9851    8.9093   11.7625 H   0  0  0  0  0  0  0  0  0  0  0  0
   52.5288   10.2586   13.8387 H   0  0  0  0  0  0  0  0  0  0  0  0
   49.6474    9.7180   13.4237 H   0  0  0  0  0  0  0  0  0  0  0  0
   50.2874   10.7417   14.7023 H   0  0  0  0  0  0  0  0  0  0  0  0
   51.6922    8.7581   15.5148 H   0  0  0  0  0  0  0  0  0  0  0  0
   48.6292    8.4491   15.5036 H   0  0  0  0  0  0  0  0  0  0  0  0
   49.7537    7.5675   16.5683 H   0  0  0  0  0  0  0  0  0  0  0  0
   51.0520    6.7207   14.7940 H   0  0  0  0  0  0  0  0  0  0  0  0
   47.7521    7.6957   17.6554 H   0  0  0  0  0  0  0  0  0  0  0  0
   49.5296   11.5314   18.5427 H   0  0  0  0  0  0  0  0  0  0  0  0
   46.2995    7.9276   19.6189 H   0  0  0  0  0  0  0  0  0  0  0  0
   48.0683   11.7470   20.5187 H   0  0  0  0  0  0  0  0  0  0  0  0
   46.4515   10.7453   21.7385 H   0  0  0  0  0  0  0  0  0  0  0  0
   50.1246    8.4539   11.9031 H   0  0  0  0  0  0  0  0  0  0  0  0
   52.1532    8.7449   14.2353 H   0  0  0  0  0  0  0  0  0  0  0  0
   49.4482    9.4083   16.2110 H   0  0  0  0  0  0  0  0  0  0  0  0
   54.0643    7.9941   11.4815 H   0  0  0  0  0  0  0  0  0  0  0  0
  3  7  1  0
  4  8  1  0
  5  9  1  0
  7 10  1  0
  9 11  1  0
 11 12  1  0
 12 13  1  0
 13 14  1  0
 14 15  1  0
 14 16  1  0
 15 17  1  0
 17 18  1  0
 18 19  2  0
 18 20  1  0
 19 21  1  0
 20 22  2  0
 21 23  2  0
 23 24  1  0
  8 10  1  0
 22 23  1  0
  1  2  1  0
  1  3  1  0
  1  4  1  0
  2  5  1  0
  2  6  2  0
 27 31  1  0
 28 32  1  0
 29 33  1  0
 31 34  1  0
 33 35  1  0
 35 36  1  0
 36 37  1  0
 37 38  1  0
 38 39  1  0
 38 40  1  0
 39 41  1  0
 41 42  1  0
 42 43  2  0
 42 44  1  0
 43 45  1  0
 44 46  2  0
 45 47  2  0
 47 48  1  0
 32 34  1  0
 46 47  1  0
 25 26  1  0
 25 27  1  0
 25 28  1  0
 26 29  1  0
 26 30  2  0
 49 50  2  0
 49 54  1  0
 50 51  1  0
 51 52  1  0
 51 53  2  0
 54 55  1  0
 54 56  2  0
  3 57  1  0
  3 58  1  0
  4 59  1  0
  4 60  1  0
  5 61  1  0
  7 62  1  0
  7 63  1  0
  8 64  1  0
  8 65  1  0
  9 66  1  0
  9 67  1  0
 11 68  1  0
 11 69  1  0
 12 70  1  0
 13 71  1  0
 13 72  1  0
 14 73  1  1
 15 74  1  0
 15 75  1  0
 16 76  1  0
 19 77  1  0
 20 78  1  0
 21 79  1  0
 22 80  1  0
 24 81  1  0
 27 82  1  0
 27 83  1  0
 28 84  1  0
 28 85  1  0
 29 86  1  0
 31 87  1  0
 31 88  1  0
 32 89  1  0
 32 90  1  0
 33 91  1  0
 33 92  1  0
 35 93  1  0
 35 94  1  0
 36 95  1  0
 37 96  1  0
 37 97  1  0
 38 98  1  6
 39 99  1  0
 39100  1  0
 40101  1  0
 43102  1  0
 44103  1  0
 45104  1  0
 46105  1  0
 48106  1  0
 49107  1  0
 50108  1  0
 52109  1  0
 55110  1  0
M  END
> <Uni-Dock RESULT> 
ENERGY=   -4.437  LOWER_BOUND=    4.711  UPPER_BOUND=    8.525
INTER + INTRA:          -4.437
INTER:                  -4.437
INTRA:                   0.000
UNBOUND:                 0.000

$$$$

     RDKit          3D

110111  0  0  0  0  0  0  0  0999 V2000
   48.2161   10.6213   19.3390 N   0  0  0  0  0  0  0  0  0  0  0  0
   47.8651    9.7835   18.2903 C   0  0  0  0  0  0  0  0  0  0  0  0
   47.4322   10.4901   20.5708 C   0  0  0  0  0  0  0  0  0  0  0  0
   48.7809   11.9622   19.1405 C   0  0  0  0  0  0  0  0  0  0  0  0
   48.5934    9.9806   17.1403 N   0  0  0  0  0  0  0  0  0  0  0  0
   46.9898    8.9257   18.3759 O   0  0  0  0  0  0  0  0  0  0  0  0
   48.1813   11.0588   21.7775 C   0  0  0  0  0  0  0  0  0  0  0  0
   49.4750   12.4732   20.4056 C   0  0  0  0  0  0  0  0  0  0  0  0
   48.3699    9.0945   16.0094 C   0  0  0  0  0  0  0  0  0  0  0  0
   48.5970   12.4121   21.5399 O   0  0  0  0  0  0  0  0  0  0  0  0
   49.0264    9.6345   14.7316 C   0  0  0  0  0  0  0  0  0  0  0  0
   48.8843    8.6897   13.6180 N   0  0  0  0  0  0  0  0  0  0  0  0
   49.4890    9.2462   12.3906 C   0  0  0  0  0  0  0  0  0  0  0  0
   49.7016    8.1530   11.3219 C   0  0  1  0  0  0  0  0  0  0  0  0
   50.8680    7.2064   11.6577 C   0  0  0  0  0  0  0  0  0  0  0  0
   48.4932    7.3901   11.1746 O   0  0  0  0  0  0  0  0  0  0  0  0
   52.1204    7.8908   11.7135 O   0  0  0  0  0  0  0  0  0  0  0  0
   52.8146    8.0785   10.5502 C   0  0  0  0  0  0  0  0  0  0  0  0
   54.0391    8.7353   10.7118 C   0  0  0  0  0  0  0  0  0  0  0  0
   52.4180    7.6807    9.2696 C   0  0  0  0  0  0  0  0  0  0  0  0
   54.8585    8.9971    9.6126 C   0  0  0  0  0  0  0  0  0  0  0  0
   53.2380    7.9408    8.1641 C   0  0  0  0  0  0  0  0  0  0  0  0
   54.4524    8.5965    8.3463 C   0  0  0  0  0  0  0  0  0  0  0  0
   55.2838    8.8578    7.2980 O   0  0  0  0  0  0  0  0  0  0  0  0
   48.3661   10.6262   19.5633 N   0  0  0  0  0  0  0  0  0  0  0  0
   48.6984    9.6525   18.6387 C   0  0  0  0  0  0  0  0  0  0  0  0
   48.3215   12.0670   19.2802 C   0  0  0  0  0  0  0  0  0  0  0  0
   47.5130   10.2417   20.6887 C   0  0  0  0  0  0  0  0  0  0  0  0
   49.5335   10.0832   17.6378 N   0  0  0  0  0  0  0  0  0  0  0  0
   48.3084    8.4905   18.7175 O   0  0  0  0  0  0  0  0  0  0  0  0
   46.8640   12.5261   19.1162 C   0  0  0  0  0  0  0  0  0  0  0  0
   46.0827   10.7361   20.4563 C   0  0  0  0  0  0  0  0  0  0  0  0
   50.0684    9.1379   16.6710 C   0  0  0  0  0  0  0  0  0  0  0  0
   46.0727   12.1658   20.2645 O   0  0  0  0  0  0  0  0  0  0  0  0
   49.0784    8.8151   15.5361 C   0  0  0  0  0  0  0  0  0  0  0  0
   49.5845    7.8212   14.5788 N   0  0  0  0  0  0  0  0  0  0  0  0
   49.9628    8.3720   13.2653 C   0  0  0  0  0  0  0  0  0  0  0  0
   51.3512    9.0519   13.2173 C   0  0  1  0  0  0  0  0  0  0  0  0
   51.8018    9.3058   11.7674 C   0  0  0  0  0  0  0  0  0  0  0  0
   51.3093   10.3036   13.9147 O   0  0  0  0  0  0  0  0  0  0  0  0
   52.0056    8.0552   11.1137 O   0  0  0  0  0  0  0  0  0  0  0  0
   52.5109    8.0863    9.8435 C   0  0  0  0  0  0  0  0  0  0  0  0
   52.8762    9.2305    9.1289 C   0  0  0  0  0  0  0  0  0  0  0  0
   52.6509    6.8292    9.2463 C   0  0  0  0  0  0  0  0  0  0  0  0
   53.3936    9.1088    7.8344 C   0  0  0  0  0  0  0  0  0  0  0  0
   53.1665    6.7051    7.9534 C   0  0  0  0  0  0  0  0  0  0  0  0
   53.5398    7.8500    7.2598 C   0  0  0  0  0  0  0  0  0  0  0  0
   54.0499    7.7808    5.9987 O   0  0  0  0  0  0  0  0  0  0  0  0
   49.5176    9.8776   14.8820 C   0  0  0  0  0  0  0  0  0  0  0  0
   50.4796    9.1928   14.2493 C   0  0  0  0  0  0  0  0  0  0  0  0
   50.5019    9.1926   12.7851 C   0  0  0  0  0  0  0  0  0  0  0  0
   51.5362    8.4640   12.3371 O   0  0  0  0  0  0  0  0  0  0  0  0
   49.7332    9.7628   12.0365 O   0  0  0  0  0  0  0  0  0  0  0  0
   49.4099    9.9347   16.3416 C   0  0  0  0  0  0  0  0  0  0  0  0
   50.3561    9.2361   16.9865 O   0  0  0  0  0  0  0  0  0  0  0  0
   48.5555   10.5579   16.9425 O   0  0  0  0  0  0  0  0  0  0  0  0
   47.1796    9.4411   20.7496 H   0  0  0  0  0  0  0  0  0  0  0  0
   46.4988   11.0415   20.4106 H   0  0  0  0  0  0  0  0  0  0  0  0
   47.9401   12.6216   18.8876 H   0  0  0  0  0  0  0  0  0  0  0  0
   49.4845   11.9832   18.3037 H   0  0  0  0  0  0  0  0  0  0  0  0
   49.5619   10.1906   17.3300 H   0  0  0  0  0  0  0  0  0  0  0  0
   47.5334   11.0603   22.6600 H   0  0  0  0  0  0  0  0  0  0  0  0
   49.0664   10.4574   22.0099 H   0  0  0  0  0  0  0  0  0  0  0  0
   49.7741   13.5170   20.2683 H   0  0  0  0  0  0  0  0  0  0  0  0
   50.3779   11.8871   20.6295 H   0  0  0  0  0  0  0  0  0  0  0  0
   47.2882    8.9734   15.8592 H   0  0  0  0  0  0  0  0  0  0  0  0
   48.7871    8.1132   16.2713 H   0  0  0  0  0  0  0  0  0  0  0  0
   50.0909    9.8170   14.9269 H   0  0  0  0  0  0  0  0  0  0  0  0
   48.5726   10.5987   14.4741 H   0  0  0  0  0  0  0  0  0  0  0  0
   47.8855    8.5540   13.4390 H   0  0  0  0  0  0  0  0  0  0  0  0
   48.8016   10.0047   11.9942 H   0  0  0  0  0  0  0  0  0  0  0  0
   50.4429    9.7424   12.6054 H   0  0  0  0  0  0  0  0  0  0  0  0
   49.8914    8.6517   10.3655 H   0  0  0  0  0  0  0  0  0  0  0  0
   50.7055    6.7722   12.6532 H   0  0  0  0  0  0  0  0  0  0  0  0
   50.8984    6.3384   10.9869 H   0  0  0  0  0  0  0  0  0  0  0  0
   48.3255    7.0021   12.0555 H   0  0  0  0  0  0  0  0  0  0  0  0
   54.3605    9.0426   11.7036 H   0  0  0  0  0  0  0  0  0  0  0  0
   51.4804    7.1627    9.0891 H   0  0  0  0  0  0  0  0  0  0  0  0
   55.8092    9.5060    9.7456 H   0  0  0  0  0  0  0  0  0  0  0  0
   52.9095    7.6303    7.1771 H   0  0  0  0  0  0  0  0  0  0  0  0
   54.8671    8.5324    6.4821 H   0  0  0  0  0  0  0  0  0  0  0  0
   48.7757   12.5716   20.1427 H   0  0  0  0  0  0  0  0  0  0  0  0
   48.8870   12.3323   18.3838 H   0  0  0  0  0  0  0  0  0  0  0  0
   47.9334   10.7261   21.5777 H   0  0  0  0  0  0  0  0  0  0  0  0
   47.5273    9.1583   20.8541 H   0  0  0  0  0  0  0  0  0  0  0  0
   50.1721   10.8088   17.9287 H   0  0  0  0  0  0  0  0  0  0  0  0
   46.4062   12.0857   18.2181 H   0  0  0  0  0  0  0  0  0  0  0  0
   46.8274   13.6182   19.0181 H   0  0  0  0  0  0  0  0  0  0  0  0
   45.4585   10.5107   21.3300 H   0  0  0  0  0  0  0  0  0  0  0  0
   45.6275   10.2580   19.5778 H   0  0  0  0  0  0  0  0  0  0  0  0
   50.3474    8.2199   17.2014 H   0  0  0  0  0  0  0  0  0  0  0  0
   50.9850    9.5809   16.2762 H   0  0  0  0  0  0  0  0  0  0  0  0
   48.1689    8.3893   15.9778 H   0  0  0  0  0  0  0  0  0  0  0  0
   48.7571    9.7401   15.0432 H   0  0  0  0  0  0  0  0  0  0  0  0
   50.3625    7.3042   14.9817 H   0  0  0  0  0  0  0  0  0  0  0  0
   49.1861    9.0606   12.9084 H   0  0  0  0  0  0  0  0  0  0  0  0
   49.9654    7.5202   12.5736 H   0  0  0  0  0  0  0  0  0  0  0  0
   52.0822    8.4024   13.7176 H   0  0  0  0  0  0  0  0  0  0  0  0
   51.0484    9.9057   11.2379 H   0  0  0  0  0  0  0  0  0  0  0  0
   52.7398    9.8745   11.7979 H   0  0  0  0  0  0  0  0  0  0  0  0
   52.2237   10.6382   13.9661 H   0  0  0  0  0  0  0  0  0  0  0  0
   52.7791   10.2282    9.5444 H   0  0  0  0  0  0  0  0  0  0  0  0
   52.3578    5.9366    9.7960 H   0  0  0  0  0  0  0  0  0  0  0  0
   53.6762    9.9955    7.2728 H   0  0  0  0  0  0  0  0  0  0  0  0
   53.2692    5.7174    7.5139 H   0  0  0  0  0  0  0  0  0  0  0  0
   54.0930    6.8451    5.7377 H   0  0  0  0  0  0  0  0  0  0  0  0
   48.7546   10.4338   14.3458 H   0  0  0  0  0  0  0  0  0  0  0  0
   51.2471    8.6312   14.7666 H   0  0  0  0  0  0  0  0  0  0  0  0
   51.4723    8.5286   11.3608 H   0  0  0  0  0  0  0  0  0  0  0  0
   50.1411    9.3743   17.9326 H   0  0  0  0  0  0  0  0  0  0  0  0
  3  7  1  0
  4  8  1  0
  5  9  1  0
  7 10  1  0
  9 11  1  0
 11 12  1  0
 12 13  1  0
 13 14  1  0
 14 15  1  0
 14 16  1  0
 15 17  1  0
 17 18  1  0
 18 19  2  0
 18 20  1  0
 19 21  1  0
 20 22  2  0
 21 23  2  0
 23 24  1  0
  8 10  1  0
 22 23  1  0
  1  2  1  0
  1  3  1  0
  1  4  1  0
  2  5  1  0
  2  6  2  0
 27 31  1  0
 28 32  1  0
 29 33  1  0
 31 34  1  0
 33 35  1  0
 35 36  1  0
 36 37  1  0
 37 38  1  0
 38 39  1  0
 38 40  1  0
 39 41  1  0
 41 42  1  0
 42 43  2  0
 42 44  1  0
 43 45  1  0
 44 46  2  0
 45 47  2  0
 47 48  1  0
 32 34  1  0
 46 47  1  0
 25 26  1  0
 25 27  1  0
 25 28  1  0
 26 29  1  0
 26 30  2  0
 49 50  2  0
 49 54  1  0
 50 51  1  0
 51 52  1  0
 51 53  2  0
 54 55  1  0
 54 56  2  0
  3 57  1  0
  3 58  1  0
  4 59  1  0
  4 60  1  0
  5 61  1  0
  7 62  1  0
  7 63  1  0
  8 64  1  0
  8 65  1  0
  9 66  1  0
  9 67  1  0
 11 68  1  0
 11 69  1  0
 12 70  1  0
 13 71  1  0
 13 72  1  0
 14 73  1  1
 15 74  1  0
 15 75  1  0
 16 76  1  0
 19 77  1  0
 20 78  1  0
 21 79  1  0
 22 80  1  0
 24 81  1  0
 27 82  1  0
 27 83  1  0
 28 84  1  0
 28 85  1  0
 29 86  1  0
 31 87  1  0
 31 88  1  0
 32 89  1  0
 32 90  1  0
 33 91  1  0
 33 92  1  0
 35 93  1  0
 35 94  1  0
 36 95  1  0
 37 96  1  0
 37 97  1  0
 38 98  1  6
 39 99  1  0
 39100  1  0
 40101  1  0
 43102  1  0
 44103  1  0
 45104  1  0
 46105  1  0
 48106  1  0
 49107  1  0
 50108  1  0
 52109  1  0
 55110  1  0
M  END
> <Uni-Dock RESULT> 
ENERGY=   -4.386  LOWER_BOUND=    4.682  UPPER_BOUND=    6.996
INTER + INTRA:          -4.386
INTER:                  -4.386
INTRA:                   0.000
UNBOUND:                 0.000

$$$$

     RDKit          3D

110111  0  0  0  0  0  0  0  0999 V2000
   52.9969    8.3628    9.0148 N   0  0  0  0  0  0  0  0  0  0  0  0
   52.6420    7.6853   10.1722 C   0  0  0  0  0  0  0  0  0  0  0  0
   53.4023    7.5379    7.8728 C   0  0  0  0  0  0  0  0  0  0  0  0
   53.6059    9.6991    9.0215 C   0  0  0  0  0  0  0  0  0  0  0  0
   52.3208    8.5028   11.2307 N   0  0  0  0  0  0  0  0  0  0  0  0
   52.6012    6.4600   10.2513 O   0  0  0  0  0  0  0  0  0  0  0  0
   53.2860    8.3057    6.5546 C   0  0  0  0  0  0  0  0  0  0  0  0
   53.4830   10.3803    7.6562 C   0  0  0  0  0  0  0  0  0  0  0  0
   51.8461    7.8972   12.4644 C   0  0  0  0  0  0  0  0  0  0  0  0
   54.0060    9.5463    6.6112 O   0  0  0  0  0  0  0  0  0  0  0  0
   51.8286    8.9085   13.6187 C   0  0  0  0  0  0  0  0  0  0  0  0
   51.2552    8.3209   14.8347 N   0  0  0  0  0  0  0  0  0  0  0  0
   51.2839    9.2985   15.9416 C   0  0  0  0  0  0  0  0  0  0  0  0
   50.3602    8.8652   17.0998 C   0  0  1  0  0  0  0  0  0  0  0  0
   48.8665    9.0409   16.7721 C   0  0  0  0  0  0  0  0  0  0  0  0
   50.6200    7.4906   17.4268 O   0  0  0  0  0  0  0  0  0  0  0  0
   48.5213   10.4075   16.5405 O   0  0  0  0  0  0  0  0  0  0  0  0
   48.2165   11.1955   17.6159 C   0  0  0  0  0  0  0  0  0  0  0  0
   47.8675   12.5090   17.2847 C   0  0  0  0  0  0  0  0  0  0  0  0
   48.2218   10.8096   18.9599 C   0  0  0  0  0  0  0  0  0  0  0  0
   47.5310   13.4297   18.2783 C   0  0  0  0  0  0  0  0  0  0  0  0
   47.8838   11.7305   19.9600 C   0  0  0  0  0  0  0  0  0  0  0  0
   47.5403   13.0331   19.6093 C   0  0  0  0  0  0  0  0  0  0  0  0
   47.1941   13.9555   20.5516 O   0  0  0  0  0  0  0  0  0  0  0  0
   52.8938    8.4460    8.7796 N   0  0  0  0  0  0  0  0  0  0  0  0
   51.9737    8.1610    9.7724 C   0  0  0  0  0  0  0  0  0  0  0  0
   53.9907    9.4144    8.9098 C   0  0  0  0  0  0  0  0  0  0  0  0
   53.1621    7.4152    7.7758 C   0  0  0  0  0  0  0  0  0  0  0  0
   51.7486    9.1931   10.6493 N   0  0  0  0  0  0  0  0  0  0  0  0
   51.3807    7.0883    9.8506 O   0  0  0  0  0  0  0  0  0  0  0  0
   55.3187    8.6769    9.1434 C   0  0  0  0  0  0  0  0  0  0  0  0
   54.4992    6.7303    8.0712 C   0  0  0  0  0  0  0  0  0  0  0  0
   50.7133    9.0809   11.6642 C   0  0  0  0  0  0  0  0  0  0  0  0
   55.5625    7.7044    8.1093 O   0  0  0  0  0  0  0  0  0  0  0  0
   51.1719    8.2916   12.9048 C   0  0  0  0  0  0  0  0  0  0  0  0
   50.1201    8.1247   13.9178 N   0  0  0  0  0  0  0  0  0  0  0  0
   50.2997    8.9444   15.1292 C   0  0  0  0  0  0  0  0  0  0  0  0
   49.8616   10.4211   14.9897 C   0  0  1  0  0  0  0  0  0  0  0  0
   49.7770   11.1133   16.3622 C   0  0  0  0  0  0  0  0  0  0  0  0
   50.7950   11.1346   14.1684 O   0  0  0  0  0  0  0  0  0  0  0  0
   48.7339   10.5131   17.1267 O   0  0  0  0  0  0  0  0  0  0  0  0
   48.4440   11.0725   18.3403 C   0  0  0  0  0  0  0  0  0  0  0  0
   49.0553   12.1998   18.8960 C   0  0  0  0  0  0  0  0  0  0  0  0
   47.4381   10.4138   19.0548 C   0  0  0  0  0  0  0  0  0  0  0  0
   48.6455   12.6691   20.1491 C   0  0  0  0  0  0  0  0  0  0  0  0
   47.0277   10.8799   20.3067 C   0  0  0  0  0  0  0  0  0  0  0  0
   47.6335   12.0108   20.8409 C   0  0  0  0  0  0  0  0  0  0  0  0
   47.2665   12.5053   22.0558 O   0  0  0  0  0  0  0  0  0  0  0  0
   51.6716    9.4104   13.4032 C   0  0  0  0  0  0  0  0  0  0  0  0
   50.5313    9.7404   14.0239 C   0  0  0  0  0  0  0  0  0  0  0  0
   50.5499    9.9513   15.4730 C   0  0  0  0  0  0  0  0  0  0  0  0
   49.3241   10.2804   15.9095 O   0  0  0  0  0  0  0  0  0  0  0  0
   51.5070    9.8697   16.2171 O   0  0  0  0  0  0  0  0  0  0  0  0
   51.7529    9.1757   11.9597 C   0  0  0  0  0  0  0  0  0  0  0  0
   50.5835    9.3151   11.3174 O   0  0  0  0  0  0  0  0  0  0  0  0
   52.7758    8.8874   11.3681 O   0  0  0  0  0  0  0  0  0  0  0  0
   52.7972    6.6278    7.8285 H   0  0  0  0  0  0  0  0  0  0  0  0
   54.4434    7.2449    8.0495 H   0  0  0  0  0  0  0  0  0  0  0  0
   54.6660    9.5585    9.2709 H   0  0  0  0  0  0  0  0  0  0  0  0
   53.1645   10.3391    9.7905 H   0  0  0  0  0  0  0  0  0  0  0  0
   51.8155    9.3266   10.9404 H   0  0  0  0  0  0  0  0  0  0  0  0
   53.7052    7.7153    5.7334 H   0  0  0  0  0  0  0  0  0  0  0  0
   52.2391    8.5202    6.3157 H   0  0  0  0  0  0  0  0  0  0  0  0
   54.0519   11.3153    7.6561 H   0  0  0  0  0  0  0  0  0  0  0  0
   52.4356   10.6192    7.4226 H   0  0  0  0  0  0  0  0  0  0  0  0
   52.4924    7.0448   12.7152 H   0  0  0  0  0  0  0  0  0  0  0  0
   50.8356    7.5115   12.2753 H   0  0  0  0  0  0  0  0  0  0  0  0
   51.2380    9.7834   13.3179 H   0  0  0  0  0  0  0  0  0  0  0  0
   52.8512    9.2553   13.8082 H   0  0  0  0  0  0  0  0  0  0  0  0
   51.8354    7.5232   15.1089 H   0  0  0  0  0  0  0  0  0  0  0  0
   52.3164    9.3555   16.3100 H   0  0  0  0  0  0  0  0  0  0  0  0
   50.9986   10.2996   15.5971 H   0  0  0  0  0  0  0  0  0  0  0  0
   50.6208    9.4646   17.9786 H   0  0  0  0  0  0  0  0  0  0  0  0
   48.6340    8.4994   15.8456 H   0  0  0  0  0  0  0  0  0  0  0  0
   48.2227    8.5720   17.5270 H   0  0  0  0  0  0  0  0  0  0  0  0
   50.4276    6.9913   16.6093 H   0  0  0  0  0  0  0  0  0  0  0  0
   47.8532   12.8178   16.2426 H   0  0  0  0  0  0  0  0  0  0  0  0
   48.4792    9.8013   19.2714 H   0  0  0  0  0  0  0  0  0  0  0  0
   47.2591   14.4478   18.0138 H   0  0  0  0  0  0  0  0  0  0  0  0
   47.9004   11.4137   20.9982 H   0  0  0  0  0  0  0  0  0  0  0  0
   47.2555   13.5415   21.4291 H   0  0  0  0  0  0  0  0  0  0  0  0
   54.0348    9.9694    7.9638 H   0  0  0  0  0  0  0  0  0  0  0  0
   53.8240   10.1247    9.7230 H   0  0  0  0  0  0  0  0  0  0  0  0
   53.2135    7.9285    6.8086 H   0  0  0  0  0  0  0  0  0  0  0  0
   52.3514    6.6793    7.7266 H   0  0  0  0  0  0  0  0  0  0  0  0
   51.8437   10.1068   10.2308 H   0  0  0  0  0  0  0  0  0  0  0  0
   55.3251    8.1669   10.1180 H   0  0  0  0  0  0  0  0  0  0  0  0
   56.1493    9.3934    9.1269 H   0  0  0  0  0  0  0  0  0  0  0  0
   54.7356    6.0067    7.2810 H   0  0  0  0  0  0  0  0  0  0  0  0
   54.4757    6.1944    9.0302 H   0  0  0  0  0  0  0  0  0  0  0  0
   49.8367    8.6007   11.2137 H   0  0  0  0  0  0  0  0  0  0  0  0
   50.4281   10.1002   11.9325 H   0  0  0  0  0  0  0  0  0  0  0  0
   51.4638    7.2828   12.5876 H   0  0  0  0  0  0  0  0  0  0  0  0
   52.0814    8.7406   13.3208 H   0  0  0  0  0  0  0  0  0  0  0  0
   49.2039    8.2946   13.5098 H   0  0  0  0  0  0  0  0  0  0  0  0
   51.3403    8.8840   15.4733 H   0  0  0  0  0  0  0  0  0  0  0  0
   49.6871    8.4686   15.9055 H   0  0  0  0  0  0  0  0  0  0  0  0
   48.8774   10.4551   14.5032 H   0  0  0  0  0  0  0  0  0  0  0  0
   50.7405   11.0336   16.8847 H   0  0  0  0  0  0  0  0  0  0  0  0
   49.5600   12.1758   16.1938 H   0  0  0  0  0  0  0  0  0  0  0  0
   50.4212   12.0205   14.0064 H   0  0  0  0  0  0  0  0  0  0  0  0
   49.8457   12.7406   18.3857 H   0  0  0  0  0  0  0  0  0  0  0  0
   46.9669    9.5294   18.6298 H   0  0  0  0  0  0  0  0  0  0  0  0
   49.1198   13.5434   20.5874 H   0  0  0  0  0  0  0  0  0  0  0  0
   46.2415   10.3531   20.8392 H   0  0  0  0  0  0  0  0  0  0  0  0
   46.5548   11.9460   22.4108 H   0  0  0  0  0  0  0  0  0  0  0  0
   52.6097    9.2953   13.9379 H   0  0  0  0  0  0  0  0  0  0  0  0
   49.5868    9.8577   13.5082 H   0  0  0  0  0  0  0  0  0  0  0  0
   49.4374   10.4066   16.8753 H   0  0  0  0  0  0  0  0  0  0  0  0
   50.8089    9.1244   10.3829 H   0  0  0  0  0  0  0  0  0  0  0  0
  3  7  1  0
  4  8  1  0
  5  9  1  0
  7 10  1  0
  9 11  1  0
 11 12  1  0
 12 13  1  0
 13 14  1  0
 14 15  1  0
 14 16  1  0
 15 17  1  0
 17 18  1  0
 18 19  2  0
 18 20  1  0
 19 21  1  0
 20 22  2  0
 21 23  2  0
 23 24  1  0
  8 10  1  0
 22 23  1  0
  1  2  1  0
  1  3  1  0
  1  4  1  0
  2  5  1  0
  2  6  2  0
 27 31  1  0
 28 32  1  0
 29 33  1  0
 31 34  1  0
 33 35  1  0
 35 36  1  0
 36 37  1  0
 37 38  1  0
 38 39  1  0
 38 40  1  0
 39 41  1  0
 41 42  1  0
 42 43  2  0
 42 44  1  0
 43 45  1  0
 44 46  2  0
 45 47  2  0
 47 48  1  0
 32 34  1  0
 46 47  1  0
 25 26  1  0
 25 27  1  0
 25 28  1  0
 26 29  1  0
 26 30  2  0
 49 50  2  0
 49 54  1  0
 50 51  1  0
 51 52  1  0
 51 53  2  0
 54 55  1  0
 54 56  2  0
  3 57  1  0
  3 58  1  0
  4 59  1  0
  4 60  1  0
  5 61  1  0
  7 62  1  0
  7 63  1  0
  8 64  1  0
  8 65  1  0
  9 66  1  0
  9 67  1  0
 11 68  1  0
 11 69  1  0
 12 70  1  0
 13 71  1  0
 13 72  1  0
 14 73  1  1
 15 74  1  0
 15 75  1  0
 16 76  1  0
 19 77  1  0
 20 78  1  0
 21 79  1  0
 22 80  1  0
 24 81  1  0
 27 82  1  0
 27 83  1  0
 28 84  1  0
 28 85  1  0
 29 86  1  0
 31 87  1  0
 31 88  1  0
 32 89  1  0
 32 90  1  0
 33 91  1  0
 33 92  1  0
 35 93  1  0
 35 94  1  0
 36 95  1  0
 37 96  1  0
 37 97  1  0
 38 98  1  6
 39 99  1  0
 39100  1  0
 40101  1  0
 43102  1  0
 44103  1  0
 45104  1  0
 46105  1  0
 48106  1  0
 49107  1  0
 50108  1  0
 52109  1  0
 55110  1  0
M  END
> <Uni-Dock RESULT> 
ENERGY=   -4.314  LOWER_BOUND=    4.851  UPPER_BOUND=    8.044
INTER + INTRA:          -4.314
INTER:                  -4.314
INTRA:                   0.000
UNBOUND:                 0.000

$$$$
