
     RDKit          3D

110111  0  0  0  0  0  0  0  0999 V2000
   51.2039   12.2190   17.9809 N   0  0  0  0  0  0  0  0  0  0  0  0
   49.9689   11.7445   17.5966 C   0  0  0  0  0  0  0  0  0  0  0  0
   51.3975   13.6605   18.1310 C   0  0  0  0  0  0  0  0  0  0  0  0
   52.3460   11.3907   18.3780 C   0  0  0  0  0  0  0  0  0  0  0  0
   49.9164   10.3866   17.4097 N   0  0  0  0  0  0  0  0  0  0  0  0
   48.9920   12.4714   17.4390 O   0  0  0  0  0  0  0  0  0  0  0  0
   52.8641   14.0418   17.9107 C   0  0  0  0  0  0  0  0  0  0  0  0
   53.2697   12.1442   19.3385 C   0  0  0  0  0  0  0  0  0  0  0  0
   48.7142    9.7830   16.8613 C   0  0  0  0  0  0  0  0  0  0  0  0
   53.7809   13.3668   18.7885 O   0  0  0  0  0  0  0  0  0  0  0  0
   48.6762    9.9129   15.3269 C   0  0  0  0  0  0  0  0  0  0  0  0
   49.8867    9.4183   14.6640 N   0  0  0  0  0  0  0  0  0  0  0  0
   50.1238    7.9707   14.7049 C   0  0  0  0  0  0  0  0  0  0  0  0
   49.2369    7.0715   13.8111 C   0  0  1  0  0  0  0  0  0  0  0  0
   47.8845    6.7116   14.4466 C   0  0  0  0  0  0  0  0  0  0  0  0
   49.0587    7.7070   12.5353 O   0  0  0  0  0  0  0  0  0  0  0  0
   47.4947    5.3820   14.0667 O   0  0  0  0  0  0  0  0  0  0  0  0
   46.5078    5.2259   13.1365 C   0  0  0  0  0  0  0  0  0  0  0  0
   46.1293    6.1676   12.1791 C   0  0  0  0  0  0  0  0  0  0  0  0
   45.8819    3.9774   13.1496 C   0  0  0  0  0  0  0  0  0  0  0  0
   45.1059    5.8799   11.2682 C   0  0  0  0  0  0  0  0  0  0  0  0
   44.8624    3.6818   12.2421 C   0  0  0  0  0  0  0  0  0  0  0  0
   44.4784    4.6381   11.3120 C   0  0  0  0  0  0  0  0  0  0  0  0
   43.4775    4.3170   10.4428 O   0  0  0  0  0  0  0  0  0  0  0  0
   51.9148   12.3349   18.4785 N   0  0  0  0  0  0  0  0  0  0  0  0
   51.4977   12.0871   17.1857 C   0  0  0  0  0  0  0  0  0  0  0  0
   52.1096   11.3315   19.5298 C   0  0  0  0  0  0  0  0  0  0  0  0
   52.3948   13.6819   18.8122 C   0  0  0  0  0  0  0  0  0  0  0  0
   51.0671   10.8036   16.9497 N   0  0  0  0  0  0  0  0  0  0  0  0
   51.5091   12.9444   16.3056 O   0  0  0  0  0  0  0  0  0  0  0  0
   52.1280   11.9863   20.9113 C   0  0  0  0  0  0  0  0  0  0  0  0
   53.5233   13.6317   19.8460 C   0  0  0  0  0  0  0  0  0  0  0  0
   50.5420   10.4737   15.6323 C   0  0  0  0  0  0  0  0  0  0  0  0
   53.1666   12.9633   21.0644 O   0  0  0  0  0  0  0  0  0  0  0  0
   50.2592    8.9704   15.4882 C   0  0  0  0  0  0  0  0  0  0  0  0
   49.6276    8.6678   14.2005 N   0  0  0  0  0  0  0  0  0  0  0  0
   49.2852    7.2453   14.0850 C   0  0  0  0  0  0  0  0  0  0  0  0
   48.8150    6.8753   12.6648 C   0  0  1  0  0  0  0  0  0  0  0  0
   47.6169    7.7175   12.1976 C   0  0  0  0  0  0  0  0  0  0  0  0
   49.9127    7.0614   11.7545 O   0  0  0  0  0  0  0  0  0  0  0  0
   46.9328    7.0639   11.1192 O   0  0  0  0  0  0  0  0  0  0  0  0
   45.9855    6.1220   11.4043 C   0  0  0  0  0  0  0  0  0  0  0  0
   45.5065    5.7750   12.6706 C   0  0  0  0  0  0  0  0  0  0  0  0
   45.4709    5.4673   10.2796 C   0  0  0  0  0  0  0  0  0  0  0  0
   44.5200    4.7891   12.8054 C   0  0  0  0  0  0  0  0  0  0  0  0
   44.4937    4.4790   10.4123 C   0  0  0  0  0  0  0  0  0  0  0  0
   44.0213    4.1497   11.6745 C   0  0  0  0  0  0  0  0  0  0  0  0
   43.0607    3.1864   11.7635 O   0  0  0  0  0  0  0  0  0  0  0  0
   49.0856    8.4996   14.7705 C   0  0  0  0  0  0  0  0  0  0  0  0
   49.2872    9.6216   15.4722 C   0  0  0  0  0  0  0  0  0  0  0  0
   50.6166    9.8840   16.0260 C   0  0  0  0  0  0  0  0  0  0  0  0
   50.6229   11.0504   16.6876 O   0  0  0  0  0  0  0  0  0  0  0  0
   51.6047    9.1818   15.9352 O   0  0  0  0  0  0  0  0  0  0  0  0
   47.7541    8.2377   14.2225 C   0  0  0  0  0  0  0  0  0  0  0  0
   47.7531    7.0769   13.5513 O   0  0  0  0  0  0  0  0  0  0  0  0
   46.7639    8.9344   14.3308 O   0  0  0  0  0  0  0  0  0  0  0  0
   50.7519   14.2041   17.4319 H   0  0  0  0  0  0  0  0  0  0  0  0
   51.0874   13.9241   19.1505 H   0  0  0  0  0  0  0  0  0  0  0  0
   52.8835   11.1437   17.4551 H   0  0  0  0  0  0  0  0  0  0  0  0
   51.9922   10.4648   18.8465 H   0  0  0  0  0  0  0  0  0  0  0  0
   50.7592   10.0131   16.9991 H   0  0  0  0  0  0  0  0  0  0  0  0
   53.1656   13.8075   16.8824 H   0  0  0  0  0  0  0  0  0  0  0  0
   53.0016   15.1189   18.0547 H   0  0  0  0  0  0  0  0  0  0  0  0
   54.1261   11.5193   19.6099 H   0  0  0  0  0  0  0  0  0  0  0  0
   52.7388   12.3934   20.2647 H   0  0  0  0  0  0  0  0  0  0  0  0
   47.8318   10.2627   17.2983 H   0  0  0  0  0  0  0  0  0  0  0  0
   48.7181    8.7306   17.1612 H   0  0  0  0  0  0  0  0  0  0  0  0
   48.5910   10.9800   15.0800 H   0  0  0  0  0  0  0  0  0  0  0  0
   47.7763    9.4419   14.9251 H   0  0  0  0  0  0  0  0  0  0  0  0
   49.9406    9.7523   13.7020 H   0  0  0  0  0  0  0  0  0  0  0  0
   50.1506    7.6016   15.7352 H   0  0  0  0  0  0  0  0  0  0  0  0
   51.1516    7.8504   14.3377 H   0  0  0  0  0  0  0  0  0  0  0  0
   49.7883    6.1460   13.6135 H   0  0  0  0  0  0  0  0  0  0  0  0
   47.9914    6.6656   15.5368 H   0  0  0  0  0  0  0  0  0  0  0  0
   47.1012    7.4463   14.2329 H   0  0  0  0  0  0  0  0  0  0  0  0
   48.5942    8.5447   12.7017 H   0  0  0  0  0  0  0  0  0  0  0  0
   46.6252    7.1278   12.0979 H   0  0  0  0  0  0  0  0  0  0  0  0
   46.1831    3.2285   13.8765 H   0  0  0  0  0  0  0  0  0  0  0  0
   44.8275    6.6274   10.5327 H   0  0  0  0  0  0  0  0  0  0  0  0
   44.3803    2.7099   12.2611 H   0  0  0  0  0  0  0  0  0  0  0  0
   43.3312    5.0698    9.8479 H   0  0  0  0  0  0  0  0  0  0  0  0
   51.3292   10.5673   19.4922 H   0  0  0  0  0  0  0  0  0  0  0  0
   53.0735   10.8435   19.3243 H   0  0  0  0  0  0  0  0  0  0  0  0
   52.7288   14.2121   17.9176 H   0  0  0  0  0  0  0  0  0  0  0  0
   51.5332   14.2186   19.2241 H   0  0  0  0  0  0  0  0  0  0  0  0
   50.5304   10.4252   17.7124 H   0  0  0  0  0  0  0  0  0  0  0  0
   51.1695   12.4825   21.1056 H   0  0  0  0  0  0  0  0  0  0  0  0
   52.2724   11.2293   21.6895 H   0  0  0  0  0  0  0  0  0  0  0  0
   54.3942   13.1141   19.4334 H   0  0  0  0  0  0  0  0  0  0  0  0
   53.8387   14.6471   20.1083 H   0  0  0  0  0  0  0  0  0  0  0  0
   51.2639   10.8049   14.8748 H   0  0  0  0  0  0  0  0  0  0  0  0
   49.6167   11.0482   15.4952 H   0  0  0  0  0  0  0  0  0  0  0  0
   51.2006    8.4163   15.5956 H   0  0  0  0  0  0  0  0  0  0  0  0
   49.5977    8.6579   16.3053 H   0  0  0  0  0  0  0  0  0  0  0  0
   50.2638    8.9102   13.4351 H   0  0  0  0  0  0  0  0  0  0  0  0
   50.1685    6.6381   14.3222 H   0  0  0  0  0  0  0  0  0  0  0  0
   48.4946    6.9991   14.8028 H   0  0  0  0  0  0  0  0  0  0  0  0
   48.5642    5.8088   12.6374 H   0  0  0  0  0  0  0  0  0  0  0  0
   46.9259    7.9767   13.0063 H   0  0  0  0  0  0  0  0  0  0  0  0
   47.9768    8.6658   11.7812 H   0  0  0  0  0  0  0  0  0  0  0  0
   50.4938    6.2872   11.8423 H   0  0  0  0  0  0  0  0  0  0  0  0
   45.8685    6.2540   13.5740 H   0  0  0  0  0  0  0  0  0  0  0  0
   45.8388    5.7292    9.2907 H   0  0  0  0  0  0  0  0  0  0  0  0
   44.1554    4.5351   13.7970 H   0  0  0  0  0  0  0  0  0  0  0  0
   44.1038    3.9732    9.5356 H   0  0  0  0  0  0  0  0  0  0  0  0
   42.7563    3.1352   12.6833 H   0  0  0  0  0  0  0  0  0  0  0  0
   49.8636    7.7679   14.5915 H   0  0  0  0  0  0  0  0  0  0  0  0
   48.5101   10.3553   15.6534 H   0  0  0  0  0  0  0  0  0  0  0  0
   51.5411   11.1331   17.0205 H   0  0  0  0  0  0  0  0  0  0  0  0
   46.8302    6.9821   13.2341 H   0  0  0  0  0  0  0  0  0  0  0  0
  3  7  1  0
  4  8  1  0
  5  9  1  0
  7 10  1  0
  9 11  1  0
 11 12  1  0
 12 13  1  0
 13 14  1  0
 14 15  1  0
 14 16  1  0
 15 17  1  0
 17 18  1  0
 18 19  2  0
 18 20  1  0
 19 21  1  0
 20 22  2  0
 21 23  2  0
 23 24  1  0
  8 10  1  0
 22 23  1  0
  1  2  1  0
  1  3  1  0
  1  4  1  0
  2  5  1  0
  2  6  2  0
 27 31  1  0
 28 32  1  0
 29 33  1  0
 31 34  1  0
 33 35  1  0
 35 36  1  0
 36 37  1  0
 37 38  1  0
 38 39  1  0
 38 40  1  0
 39 41  1  0
 41 42  1  0
 42 43  2  0
 42 44  1  0
 43 45  1  0
 44 46  2  0
 45 47  2  0
 47 48  1  0
 32 34  1  0
 46 47  1  0
 25 26  1  0
 25 27  1  0
 25 28  1  0
 26 29  1  0
 26 30  2  0
 49 50  2  0
 49 54  1  0
 50 51  1  0
 51 52  1  0
 51 53  2  0
 54 55  1  0
 54 56  2  0
  3 57  1  0
  3 58  1  0
  4 59  1  0
  4 60  1  0
  5 61  1  0
  7 62  1  0
  7 63  1  0
  8 64  1  0
  8 65  1  0
  9 66  1  0
  9 67  1  0
 11 68  1  0
 11 69  1  0
 12 70  1  0
 13 71  1  0
 13 72  1  0
 14 73  1  6
 15 74  1  0
 15 75  1  0
 16 76  1  0
 19 77  1  0
 20 78  1  0
 21 79  1  0
 22 80  1  0
 24 81  1  0
 27 82  1  0
 27 83  1  0
 28 84  1  0
 28 85  1  0
 29 86  1  0
 31 87  1  0
 31 88  1  0
 32 89  1  0
 32 90  1  0
 33 91  1  0
 33 92  1  0
 35 93  1  0
 35 94  1  0
 36 95  1  0
 37 96  1  0
 37 97  1  0
 38 98  1  6
 39 99  1  0
 39100  1  0
 40101  1  0
 43102  1  0
 44103  1  0
 45104  1  0
 46105  1  0
 48106  1  0
 49107  1  0
 50108  1  0
 52109  1  0
 55110  1  0
M  END
> <Uni-Dock RESULT> 
ENERGY=   -5.836  LOWER_BOUND=    0.000  UPPER_BOUND=    0.000
INTER + INTRA:          -5.836
INTER:                  -5.836
INTRA:                   0.000
UNBOUND:                 0.000

$$$$

     RDKit          3D

110111  0  0  0  0  0  0  0  0999 V2000
   51.1083   12.2524   17.9662 N   0  0  0  0  0  0  0  0  0  0  0  0
   49.8785   11.7726   17.5722 C   0  0  0  0  0  0  0  0  0  0  0  0
   51.2973   13.6954   18.1080 C   0  0  0  0  0  0  0  0  0  0  0  0
   52.2478   11.4295   18.3814 C   0  0  0  0  0  0  0  0  0  0  0  0
   49.8308   10.4133   17.3944 N   0  0  0  0  0  0  0  0  0  0  0  0
   48.9018   12.4963   17.3990 O   0  0  0  0  0  0  0  0  0  0  0  0
   52.7654   14.0782   17.9007 C   0  0  0  0  0  0  0  0  0  0  0  0
   53.1597   12.1917   19.3463 C   0  0  0  0  0  0  0  0  0  0  0  0
   48.6358    9.8032   16.8375 C   0  0  0  0  0  0  0  0  0  0  0  0
   53.6742   13.4115   18.7930 O   0  0  0  0  0  0  0  0  0  0  0  0
   48.6139    9.9221   15.3020 C   0  0  0  0  0  0  0  0  0  0  0  0
   49.8324    9.4253   14.6556 N   0  0  0  0  0  0  0  0  0  0  0  0
   50.0721    7.9786   14.7093 C   0  0  0  0  0  0  0  0  0  0  0  0
   49.1967    7.0712   13.8126 C   0  0  1  0  0  0  0  0  0  0  0  0
   47.8383    6.7128   14.4362 C   0  0  0  0  0  0  0  0  0  0  0  0
   49.0308    7.6972   12.5304 O   0  0  0  0  0  0  0  0  0  0  0  0
   47.4553    5.3797   14.0617 O   0  0  0  0  0  0  0  0  0  0  0  0
   46.4788    5.2149   13.1221 C   0  0  0  0  0  0  0  0  0  0  0  0
   46.1086    6.1489   12.1540 C   0  0  0  0  0  0  0  0  0  0  0  0
   45.8553    3.9652   13.1375 C   0  0  0  0  0  0  0  0  0  0  0  0
   45.0956    5.8525   11.2344 C   0  0  0  0  0  0  0  0  0  0  0  0
   44.8462    3.6609   12.2213 C   0  0  0  0  0  0  0  0  0  0  0  0
   44.4702    4.6097   11.2803 C   0  0  0  0  0  0  0  0  0  0  0  0
   43.4793    4.2803   10.4029 O   0  0  0  0  0  0  0  0  0  0  0  0
   51.8136   12.3734   18.4705 N   0  0  0  0  0  0  0  0  0  0  0  0
   51.4109   12.1155   17.1751 C   0  0  0  0  0  0  0  0  0  0  0  0
   51.9993   11.3779   19.5310 C   0  0  0  0  0  0  0  0  0  0  0  0
   52.2872   13.7237   18.7997 C   0  0  0  0  0  0  0  0  0  0  0  0
   50.9855   10.8294   16.9437 N   0  0  0  0  0  0  0  0  0  0  0  0
   51.4299   12.9666   16.2892 O   0  0  0  0  0  0  0  0  0  0  0  0
   52.0015   12.0426   20.9079 C   0  0  0  0  0  0  0  0  0  0  0  0
   53.4047   13.6834   19.8458 C   0  0  0  0  0  0  0  0  0  0  0  0
   50.4752   10.4891   15.6232 C   0  0  0  0  0  0  0  0  0  0  0  0
   53.0364   13.0229   21.0651 O   0  0  0  0  0  0  0  0  0  0  0  0
   50.1970    8.9842   15.4869 C   0  0  0  0  0  0  0  0  0  0  0  0
   49.5799    8.6710   14.1947 N   0  0  0  0  0  0  0  0  0  0  0  0
   49.2417    7.2470   14.0858 C   0  0  0  0  0  0  0  0  0  0  0  0
   48.7874    6.8658   12.6633 C   0  0  1  0  0  0  0  0  0  0  0  0
   47.5927    7.7021   12.1773 C   0  0  0  0  0  0  0  0  0  0  0  0
   49.8944    7.0478   11.7634 O   0  0  0  0  0  0  0  0  0  0  0  0
   46.9215    7.0394   11.0964 O   0  0  0  0  0  0  0  0  0  0  0  0
   45.9732    6.0975   11.3781 C   0  0  0  0  0  0  0  0  0  0  0  0
   45.4814    5.7585   12.6417 C   0  0  0  0  0  0  0  0  0  0  0  0
   45.4720    5.4337   10.2527 C   0  0  0  0  0  0  0  0  0  0  0  0
   44.4956    4.7715   12.7730 C   0  0  0  0  0  0  0  0  0  0  0  0
   44.4954    4.4443   10.3820 C   0  0  0  0  0  0  0  0  0  0  0  0
   44.0103    4.1230   11.6415 C   0  0  0  0  0  0  0  0  0  0  0  0
   43.0508    3.1582   11.7270 O   0  0  0  0  0  0  0  0  0  0  0  0
   49.0322    8.5057   14.7601 C   0  0  0  0  0  0  0  0  0  0  0  0
   49.2239    9.6331   15.4558 C   0  0  0  0  0  0  0  0  0  0  0  0
   50.5468    9.9023   16.0219 C   0  0  0  0  0  0  0  0  0  0  0  0
   50.5436   11.0734   16.6751 O   0  0  0  0  0  0  0  0  0  0  0  0
   51.5373    9.2017   15.9466 O   0  0  0  0  0  0  0  0  0  0  0  0
   47.7072    8.2370   14.1998 C   0  0  0  0  0  0  0  0  0  0  0  0
   47.7157    7.0714   13.5369 O   0  0  0  0  0  0  0  0  0  0  0  0
   46.7144    8.9323   14.2925 O   0  0  0  0  0  0  0  0  0  0  0  0
   50.6581   14.2326   17.3982 H   0  0  0  0  0  0  0  0  0  0  0  0
   50.9758   13.9656   19.1222 H   0  0  0  0  0  0  0  0  0  0  0  0
   52.7957   11.1770   17.4661 H   0  0  0  0  0  0  0  0  0  0  0  0
   51.8910   10.5061   18.8527 H   0  0  0  0  0  0  0  0  0  0  0  0
   50.6787   10.0387   16.9955 H   0  0  0  0  0  0  0  0  0  0  0  0
   53.0783   13.8373   16.8773 H   0  0  0  0  0  0  0  0  0  0  0  0
   52.8991   15.1567   18.0384 H   0  0  0  0  0  0  0  0  0  0  0  0
   54.0144   11.5706   19.6313 H   0  0  0  0  0  0  0  0  0  0  0  0
   52.6184   12.4464   20.2649 H   0  0  0  0  0  0  0  0  0  0  0  0
   47.7477   10.2841   17.2617 H   0  0  0  0  0  0  0  0  0  0  0  0
   48.6387    8.7530   17.1450 H   0  0  0  0  0  0  0  0  0  0  0  0
   48.5291   10.9872   15.0466 H   0  0  0  0  0  0  0  0  0  0  0  0
   47.7194    9.4462   14.8939 H   0  0  0  0  0  0  0  0  0  0  0  0
   49.8959    9.7526   13.6918 H   0  0  0  0  0  0  0  0  0  0  0  0
   50.0887    7.6169   15.7424 H   0  0  0  0  0  0  0  0  0  0  0  0
   51.1040    7.8579   14.3540 H   0  0  0  0  0  0  0  0  0  0  0  0
   49.7521    6.1454   13.6275 H   0  0  0  0  0  0  0  0  0  0  0  0
   47.9336    6.6748   15.5277 H   0  0  0  0  0  0  0  0  0  0  0  0
   47.0558    7.4443   14.2089 H   0  0  0  0  0  0  0  0  0  0  0  0
   48.5628    8.5350   12.6859 H   0  0  0  0  0  0  0  0  0  0  0  0
   46.6033    7.1096   12.0713 H   0  0  0  0  0  0  0  0  0  0  0  0
   46.1503    3.2221   13.8729 H   0  0  0  0  0  0  0  0  0  0  0  0
   44.8235    6.5942   10.4906 H   0  0  0  0  0  0  0  0  0  0  0  0
   44.3660    2.6881   12.2420 H   0  0  0  0  0  0  0  0  0  0  0  0
   43.3378    5.0286    9.8010 H   0  0  0  0  0  0  0  0  0  0  0  0
   51.2209   10.6118   19.4905 H   0  0  0  0  0  0  0  0  0  0  0  0
   52.9663   10.8906   19.3393 H   0  0  0  0  0  0  0  0  0  0  0  0
   52.6296   14.2483   17.9049 H   0  0  0  0  0  0  0  0  0  0  0  0
   51.4202   14.2616   19.1985 H   0  0  0  0  0  0  0  0  0  0  0  0
   50.4414   10.4553   17.7034 H   0  0  0  0  0  0  0  0  0  0  0  0
   51.0400   12.5381   21.0884 H   0  0  0  0  0  0  0  0  0  0  0  0
   52.1392   11.2915   21.6929 H   0  0  0  0  0  0  0  0  0  0  0  0
   54.2811   13.1647   19.4463 H   0  0  0  0  0  0  0  0  0  0  0  0
   53.7151   14.7013   20.1042 H   0  0  0  0  0  0  0  0  0  0  0  0
   51.2045   10.8164   14.8711 H   0  0  0  0  0  0  0  0  0  0  0  0
   49.5502   11.0605   15.4721 H   0  0  0  0  0  0  0  0  0  0  0  0
   51.1384    8.4329   15.6083 H   0  0  0  0  0  0  0  0  0  0  0  0
   49.5275    8.6760   16.2991 H   0  0  0  0  0  0  0  0  0  0  0  0
   50.2237    8.9093   13.4344 H   0  0  0  0  0  0  0  0  0  0  0  0
   50.1236    6.6433   14.3367 H   0  0  0  0  0  0  0  0  0  0  0  0
   48.4440    7.0042   14.7968 H   0  0  0  0  0  0  0  0  0  0  0  0
   48.5392    5.7986   12.6408 H   0  0  0  0  0  0  0  0  0  0  0  0
   46.8925    7.9656   12.9767 H   0  0  0  0  0  0  0  0  0  0  0  0
   47.9550    8.6482   11.7580 H   0  0  0  0  0  0  0  0  0  0  0  0
   50.4762    6.2755   11.8630 H   0  0  0  0  0  0  0  0  0  0  0  0
   45.8327    6.2447   13.5454 H   0  0  0  0  0  0  0  0  0  0  0  0
   45.8499    5.6894    9.2659 H   0  0  0  0  0  0  0  0  0  0  0  0
   44.1209    4.5238   13.7624 H   0  0  0  0  0  0  0  0  0  0  0  0
   44.1160    3.9314    9.5049 H   0  0  0  0  0  0  0  0  0  0  0  0
   42.7367    3.1130   12.6439 H   0  0  0  0  0  0  0  0  0  0  0  0
   49.8136    7.7744   14.5946 H   0  0  0  0  0  0  0  0  0  0  0  0
   48.4434   10.3664   15.6235 H   0  0  0  0  0  0  0  0  0  0  0  0
   51.4580   11.1604   17.0172 H   0  0  0  0  0  0  0  0  0  0  0  0
   46.7964    6.9724   13.2105 H   0  0  0  0  0  0  0  0  0  0  0  0
  3  7  1  0
  4  8  1  0
  5  9  1  0
  7 10  1  0
  9 11  1  0
 11 12  1  0
 12 13  1  0
 13 14  1  0
 14 15  1  0
 14 16  1  0
 15 17  1  0
 17 18  1  0
 18 19  2  0
 18 20  1  0
 19 21  1  0
 20 22  2  0
 21 23  2  0
 23 24  1  0
  8 10  1  0
 22 23  1  0
  1  2  1  0
  1  3  1  0
  1  4  1  0
  2  5  1  0
  2  6  2  0
 27 31  1  0
 28 32  1  0
 29 33  1  0
 31 34  1  0
 33 35  1  0
 35 36  1  0
 36 37  1  0
 37 38  1  0
 38 39  1  0
 38 40  1  0
 39 41  1  0
 41 42  1  0
 42 43  2  0
 42 44  1  0
 43 45  1  0
 44 46  2  0
 45 47  2  0
 47 48  1  0
 32 34  1  0
 46 47  1  0
 25 26  1  0
 25 27  1  0
 25 28  1  0
 26 29  1  0
 26 30  2  0
 49 50  2  0
 49 54  1  0
 50 51  1  0
 51 52  1  0
 51 53  2  0
 54 55  1  0
 54 56  2  0
  3 57  1  0
  3 58  1  0
  4 59  1  0
  4 60  1  0
  5 61  1  0
  7 62  1  0
  7 63  1  0
  8 64  1  0
  8 65  1  0
  9 66  1  0
  9 67  1  0
 11 68  1  0
 11 69  1  0
 12 70  1  0
 13 71  1  0
 13 72  1  0
 14 73  1  6
 15 74  1  0
 15 75  1  0
 16 76  1  0
 19 77  1  0
 20 78  1  0
 21 79  1  0
 22 80  1  0
 24 81  1  0
 27 82  1  0
 27 83  1  0
 28 84  1  0
 28 85  1  0
 29 86  1  0
 31 87  1  0
 31 88  1  0
 32 89  1  0
 32 90  1  0
 33 91  1  0
 33 92  1  0
 35 93  1  0
 35 94  1  0
 36 95  1  0
 37 96  1  0
 37 97  1  0
 38 98  1  6
 39 99  1  0
 39100  1  0
 40101  1  0
 43102  1  0
 44103  1  0
 45104  1  0
 46105  1  0
 48106  1  0
 49107  1  0
 50108  1  0
 52109  1  0
 55110  1  0
M  END
> <Uni-Dock RESULT> 
ENERGY=   -5.829  LOWER_BOUND=    0.075  UPPER_BOUND=    0.075
INTER + INTRA:          -5.829
INTER:                  -5.829
INTRA:                   0.000
UNBOUND:                 0.000

$$$$

     RDKit          3D

110111  0  0  0  0  0  0  0  0999 V2000
   50.5339   16.6525   16.5133 N   0  0  0  0  0  0  0  0  0  0  0  0
   50.9640   15.4364   16.9973 C   0  0  0  0  0  0  0  0  0  0  0  0
   51.2754   17.8620   16.8671 C   0  0  0  0  0  0  0  0  0  0  0  0
   49.4413   16.8473   15.5560 C   0  0  0  0  0  0  0  0  0  0  0  0
   50.1546   14.3781   16.6712 N   0  0  0  0  0  0  0  0  0  0  0  0
   51.9888   15.3046   17.6607 O   0  0  0  0  0  0  0  0  0  0  0  0
   50.3657   19.0931   16.8274 C   0  0  0  0  0  0  0  0  0  0  0  0
   49.6389   18.1290   14.7426 C   0  0  0  0  0  0  0  0  0  0  0  0
   50.4170   13.0696   17.2450 C   0  0  0  0  0  0  0  0  0  0  0  0
   49.7278   19.3069   15.5569 O   0  0  0  0  0  0  0  0  0  0  0  0
   49.8445   12.9619   18.6709 C   0  0  0  0  0  0  0  0  0  0  0  0
   48.4272   13.3251   18.7652 N   0  0  0  0  0  0  0  0  0  0  0  0
   47.4641   12.4197   18.1279 C   0  0  0  0  0  0  0  0  0  0  0  0
   47.1879   11.0628   18.8180 C   0  0  1  0  0  0  0  0  0  0  0  0
   48.2116    9.9715   18.4660 C   0  0  0  0  0  0  0  0  0  0  0  0
   47.1115   11.2648   20.2381 O   0  0  0  0  0  0  0  0  0  0  0  0
   47.5699    8.6874   18.4094 O   0  0  0  0  0  0  0  0  0  0  0  0
   47.7661    7.8078   19.4348 C   0  0  0  0  0  0  0  0  0  0  0  0
   48.1419    8.1395   20.7369 C   0  0  0  0  0  0  0  0  0  0  0  0
   47.5078    6.4720   19.1190 C   0  0  0  0  0  0  0  0  0  0  0  0
   48.2980    7.1408   21.7054 C   0  0  0  0  0  0  0  0  0  0  0  0
   47.6582    5.4705   20.0806 C   0  0  0  0  0  0  0  0  0  0  0  0
   48.0580    5.8125   21.3652 C   0  0  0  0  0  0  0  0  0  0  0  0
   48.1979    4.8090   22.2783 O   0  0  0  0  0  0  0  0  0  0  0  0
   50.3190   17.2686   15.9297 N   0  0  0  0  0  0  0  0  0  0  0  0
   49.9053   16.6583   17.0972 C   0  0  0  0  0  0  0  0  0  0  0  0
   50.0783   16.7801   14.5682 C   0  0  0  0  0  0  0  0  0  0  0  0
   50.8870   18.6202   16.0107 C   0  0  0  0  0  0  0  0  0  0  0  0
   49.3812   15.3976   16.9400 N   0  0  0  0  0  0  0  0  0  0  0  0
   49.9943   17.1960   18.1983 O   0  0  0  0  0  0  0  0  0  0  0  0
   51.0394   17.4358   13.5762 C   0  0  0  0  0  0  0  0  0  0  0  0
   50.5209   19.4539   14.7795 C   0  0  0  0  0  0  0  0  0  0  0  0
   48.9863   14.6520   18.1267 C   0  0  0  0  0  0  0  0  0  0  0  0
   50.9285   18.8651   13.5362 O   0  0  0  0  0  0  0  0  0  0  0  0
   48.2752   13.3382   17.7675 C   0  0  0  0  0  0  0  0  0  0  0  0
   47.9833   12.5453   18.9654 N   0  0  0  0  0  0  0  0  0  0  0  0
   47.3719   11.2549   18.6261 C   0  0  0  0  0  0  0  0  0  0  0  0
   46.8709   10.5042   19.8753 C   0  0  1  0  0  0  0  0  0  0  0  0
   47.9799   10.2744   20.9147 C   0  0  0  0  0  0  0  0  0  0  0  0
   45.8074   11.2658   20.4731 O   0  0  0  0  0  0  0  0  0  0  0  0
   47.6189    9.2119   21.8086 O   0  0  0  0  0  0  0  0  0  0  0  0
   47.8775    7.9202   21.4476 C   0  0  0  0  0  0  0  0  0  0  0  0
   48.5728    7.4928   20.3130 C   0  0  0  0  0  0  0  0  0  0  0  0
   47.3769    6.9644   22.3387 C   0  0  0  0  0  0  0  0  0  0  0  0
   48.7683    6.1251   20.0796 C   0  0  0  0  0  0  0  0  0  0  0  0
   47.5636    5.6008   22.1039 C   0  0  0  0  0  0  0  0  0  0  0  0
   48.2623    5.1904   20.9778 C   0  0  0  0  0  0  0  0  0  0  0  0
   48.4323    3.8512   20.7870 O   0  0  0  0  0  0  0  0  0  0  0  0
   48.5182   12.1270   18.5343 C   0  0  0  0  0  0  0  0  0  0  0  0
   49.3159   13.1703   18.2752 C   0  0  0  0  0  0  0  0  0  0  0  0
   48.7746   14.3123   17.5366 C   0  0  0  0  0  0  0  0  0  0  0  0
   49.7167   15.2538   17.3802 O   0  0  0  0  0  0  0  0  0  0  0  0
   47.6471   14.4410   17.1010 O   0  0  0  0  0  0  0  0  0  0  0  0
   49.0638   10.9845   19.2684 C   0  0  0  0  0  0  0  0  0  0  0  0
   48.1170   10.0496   19.4341 O   0  0  0  0  0  0  0  0  0  0  0  0
   50.1973   10.8525   19.6869 O   0  0  0  0  0  0  0  0  0  0  0  0
   51.7275   17.7525   17.8593 H   0  0  0  0  0  0  0  0  0  0  0  0
   52.0878   17.9687   16.1366 H   0  0  0  0  0  0  0  0  0  0  0  0
   48.5211   16.9153   16.1479 H   0  0  0  0  0  0  0  0  0  0  0  0
   49.3733   15.9833   14.8844 H   0  0  0  0  0  0  0  0  0  0  0  0
   49.1738   14.6155   16.6806 H   0  0  0  0  0  0  0  0  0  0  0  0
   49.5719   19.0014   17.5789 H   0  0  0  0  0  0  0  0  0  0  0  0
   50.9386   19.9959   17.0652 H   0  0  0  0  0  0  0  0  0  0  0  0
   48.8059   18.2691   14.0469 H   0  0  0  0  0  0  0  0  0  0  0  0
   50.5571   18.0673   14.1469 H   0  0  0  0  0  0  0  0  0  0  0  0
   51.4970   12.8873   17.2618 H   0  0  0  0  0  0  0  0  0  0  0  0
   49.9533   12.3307   16.5842 H   0  0  0  0  0  0  0  0  0  0  0  0
   50.3966   13.6637   19.3107 H   0  0  0  0  0  0  0  0  0  0  0  0
   50.0339   11.9692   19.0854 H   0  0  0  0  0  0  0  0  0  0  0  0
   48.1559   13.4956   19.7333 H   0  0  0  0  0  0  0  0  0  0  0  0
   47.6890   12.2850   17.0650 H   0  0  0  0  0  0  0  0  0  0  0  0
   46.5153   12.9719   18.1453 H   0  0  0  0  0  0  0  0  0  0  0  0
   46.1939   10.7238   18.5069 H   0  0  0  0  0  0  0  0  0  0  0  0
   48.5885   10.1353   17.4496 H   0  0  0  0  0  0  0  0  0  0  0  0
   49.0805    9.9677   19.1324 H   0  0  0  0  0  0  0  0  0  0  0  0
   47.9814   11.5931   20.5218 H   0  0  0  0  0  0  0  0  0  0  0  0
   48.2993    9.1682   21.0394 H   0  0  0  0  0  0  0  0  0  0  0  0
   47.1936    6.2044   18.1142 H   0  0  0  0  0  0  0  0  0  0  0  0
   48.5917    7.4216   22.7115 H   0  0  0  0  0  0  0  0  0  0  0  0
   47.4573    4.4352   19.8256 H   0  0  0  0  0  0  0  0  0  0  0  0
   48.4635    5.1979   23.1270 H   0  0  0  0  0  0  0  0  0  0  0  0
   50.1786   15.6929   14.5181 H   0  0  0  0  0  0  0  0  0  0  0  0
   49.0381   17.0374   14.3209 H   0  0  0  0  0  0  0  0  0  0  0  0
   50.5594   19.1296   16.9196 H   0  0  0  0  0  0  0  0  0  0  0  0
   51.9734   18.4910   16.0658 H   0  0  0  0  0  0  0  0  0  0  0  0
   49.8786   14.8501   16.2574 H   0  0  0  0  0  0  0  0  0  0  0  0
   52.0755   17.1870   13.8352 H   0  0  0  0  0  0  0  0  0  0  0  0
   50.8531   17.0639   12.5632 H   0  0  0  0  0  0  0  0  0  0  0  0
   49.4384   19.6034   14.7297 H   0  0  0  0  0  0  0  0  0  0  0  0
   50.9863   20.4431   14.8429 H   0  0  0  0  0  0  0  0  0  0  0  0
   48.3349   15.2885   18.7392 H   0  0  0  0  0  0  0  0  0  0  0  0
   49.8980   14.4444   18.7016 H   0  0  0  0  0  0  0  0  0  0  0  0
   47.3506   13.5681   17.2224 H   0  0  0  0  0  0  0  0  0  0  0  0
   48.9209   12.7626   17.0932 H   0  0  0  0  0  0  0  0  0  0  0  0
   47.3384   13.0584   19.5739 H   0  0  0  0  0  0  0  0  0  0  0  0
   46.5150   11.4219   17.9606 H   0  0  0  0  0  0  0  0  0  0  0  0
   48.1019   10.6308   18.0984 H   0  0  0  0  0  0  0  0  0  0  0  0
   46.4343    9.5475   19.5668 H   0  0  0  0  0  0  0  0  0  0  0  0
   48.9644   10.0999   20.4687 H   0  0  0  0  0  0  0  0  0  0  0  0
   48.0790   11.1649   21.5466 H   0  0  0  0  0  0  0  0  0  0  0  0
   45.0029   11.0914   19.9564 H   0  0  0  0  0  0  0  0  0  0  0  0
   48.9845    8.1918   19.5930 H   0  0  0  0  0  0  0  0  0  0  0  0
   46.8331    7.2874   23.2229 H   0  0  0  0  0  0  0  0  0  0  0  0
   49.3153    5.8104   19.1951 H   0  0  0  0  0  0  0  0  0  0  0  0
   47.1679    4.8665   22.7972 H   0  0  0  0  0  0  0  0  0  0  0  0
   49.0199    3.7178   20.0265 H   0  0  0  0  0  0  0  0  0  0  0  0
   47.4826   12.0839   18.2204 H   0  0  0  0  0  0  0  0  0  0  0  0
   50.3529   13.2156   18.5876 H   0  0  0  0  0  0  0  0  0  0  0  0
   49.2655   15.9641   16.8775 H   0  0  0  0  0  0  0  0  0  0  0  0
   48.5714    9.3290   19.9195 H   0  0  0  0  0  0  0  0  0  0  0  0
  3  7  1  0
  4  8  1  0
  5  9  1  0
  7 10  1  0
  9 11  1  0
 11 12  1  0
 12 13  1  0
 13 14  1  0
 14 15  1  0
 14 16  1  0
 15 17  1  0
 17 18  1  0
 18 19  2  0
 18 20  1  0
 19 21  1  0
 20 22  2  0
 21 23  2  0
 23 24  1  0
  8 10  1  0
 22 23  1  0
  1  2  1  0
  1  3  1  0
  1  4  1  0
  2  5  1  0
  2  6  2  0
 27 31  1  0
 28 32  1  0
 29 33  1  0
 31 34  1  0
 33 35  1  0
 35 36  1  0
 36 37  1  0
 37 38  1  0
 38 39  1  0
 38 40  1  0
 39 41  1  0
 41 42  1  0
 42 43  2  0
 42 44  1  0
 43 45  1  0
 44 46  2  0
 45 47  2  0
 47 48  1  0
 32 34  1  0
 46 47  1  0
 25 26  1  0
 25 27  1  0
 25 28  1  0
 26 29  1  0
 26 30  2  0
 49 50  2  0
 49 54  1  0
 50 51  1  0
 51 52  1  0
 51 53  2  0
 54 55  1  0
 54 56  2  0
  3 57  1  0
  3 58  1  0
  4 59  1  0
  4 60  1  0
  5 61  1  0
  7 62  1  0
  7 63  1  0
  8 64  1  0
  8 65  1  0
  9 66  1  0
  9 67  1  0
 11 68  1  0
 11 69  1  0
 12 70  1  0
 13 71  1  0
 13 72  1  0
 14 73  1  6
 15 74  1  0
 15 75  1  0
 16 76  1  0
 19 77  1  0
 20 78  1  0
 21 79  1  0
 22 80  1  0
 24 81  1  0
 27 82  1  0
 27 83  1  0
 28 84  1  0
 28 85  1  0
 29 86  1  0
 31 87  1  0
 31 88  1  0
 32 89  1  0
 32 90  1  0
 33 91  1  0
 33 92  1  0
 35 93  1  0
 35 94  1  0
 36 95  1  0
 37 96  1  0
 37 97  1  0
 38 98  1  6
 39 99  1  0
 39100  1  0
 40101  1  0
 43102  1  0
 44103  1  0
 45104  1  0
 46105  1  0
 48106  1  0
 49107  1  0
 50108  1  0
 52109  1  0
 55110  1  0
M  END
> <Uni-Dock RESULT> 
ENERGY=   -5.477  LOWER_BOUND=    5.497  UPPER_BOUND=    7.585
INTER + INTRA:          -5.477
INTER:                  -5.477
INTRA:                   0.000
UNBOUND:                 0.000

$$$$

     RDKit          3D

110111  0  0  0  0  0  0  0  0999 V2000
   53.4096    8.2253    9.4238 N   0  0  0  0  0  0  0  0  0  0  0  0
   53.4665    8.4657   10.7791 C   0  0  0  0  0  0  0  0  0  0  0  0
   54.1695    9.0836    8.5160 C   0  0  0  0  0  0  0  0  0  0  0  0
   52.7343    7.0891    8.7903 C   0  0  0  0  0  0  0  0  0  0  0  0
   52.6573    7.6545   11.5332 N   0  0  0  0  0  0  0  0  0  0  0  0
   54.1845    9.3289   11.2762 O   0  0  0  0  0  0  0  0  0  0  0  0
   53.5219    9.1224    7.1289 C   0  0  0  0  0  0  0  0  0  0  0  0
   53.3805    6.7386    7.4476 C   0  0  0  0  0  0  0  0  0  0  0  0
   52.5144    7.9058   12.9569 C   0  0  0  0  0  0  0  0  0  0  0  0
   53.3761    7.8301    6.5163 O   0  0  0  0  0  0  0  0  0  0  0  0
   51.4969    9.0309   13.2242 C   0  0  0  0  0  0  0  0  0  0  0  0
   50.1999    8.8183   12.5745 N   0  0  0  0  0  0  0  0  0  0  0  0
   49.3727    7.7182   13.0835 C   0  0  0  0  0  0  0  0  0  0  0  0
   48.6821    7.9129   14.4543 C   0  0  1  0  0  0  0  0  0  0  0  0
   49.5856    7.5825   15.6532 C   0  0  0  0  0  0  0  0  0  0  0  0
   48.1763    9.2546   14.5392 O   0  0  0  0  0  0  0  0  0  0  0  0
   48.8100    7.0061   16.7163 O   0  0  0  0  0  0  0  0  0  0  0  0
   48.5228    7.7703   17.8104 C   0  0  0  0  0  0  0  0  0  0  0  0
   48.4970    9.1647   17.8509 C   0  0  0  0  0  0  0  0  0  0  0  0
   48.1818    7.0485   18.9565 C   0  0  0  0  0  0  0  0  0  0  0  0
   48.1729    9.8332   19.0373 C   0  0  0  0  0  0  0  0  0  0  0  0
   47.8541    7.7083   20.1430 C   0  0  0  0  0  0  0  0  0  0  0  0
   47.8581    9.0960   20.1754 C   0  0  0  0  0  0  0  0  0  0  0  0
   47.5363    9.7076   21.3514 O   0  0  0  0  0  0  0  0  0  0  0  0
   53.4944    7.7925    8.6675 N   0  0  0  0  0  0  0  0  0  0  0  0
   52.6330    8.5890    9.3957 C   0  0  0  0  0  0  0  0  0  0  0  0
   53.6417    6.3391    8.7948 C   0  0  0  0  0  0  0  0  0  0  0  0
   54.2035    8.3888    7.5285 C   0  0  0  0  0  0  0  0  0  0  0  0
   52.0036    7.9591   10.4425 N   0  0  0  0  0  0  0  0  0  0  0  0
   52.4371    9.7731    9.1329 O   0  0  0  0  0  0  0  0  0  0  0  0
   54.9629    5.8699    8.1849 C   0  0  0  0  0  0  0  0  0  0  0  0
   54.3928    7.3751    6.3965 C   0  0  0  0  0  0  0  0  0  0  0  0
   51.1328    8.7423   11.3077 C   0  0  0  0  0  0  0  0  0  0  0  0
   55.0905    6.1854    6.7918 O   0  0  0  0  0  0  0  0  0  0  0  0
   50.3872    7.8596   12.3204 C   0  0  0  0  0  0  0  0  0  0  0  0
   49.6015    8.6692   13.2563 N   0  0  0  0  0  0  0  0  0  0  0  0
   48.9459    7.8392   14.2738 C   0  0  0  0  0  0  0  0  0  0  0  0
   47.9549    8.6488   15.1325 C   0  0  1  0  0  0  0  0  0  0  0  0
   48.6132    9.8559   15.8200 C   0  0  0  0  0  0  0  0  0  0  0  0
   46.8836    9.1062   14.2890 O   0  0  0  0  0  0  0  0  0  0  0  0
   47.8217   10.2937   16.9336 O   0  0  0  0  0  0  0  0  0  0  0  0
   47.9842    9.6868   18.1464 C   0  0  0  0  0  0  0  0  0  0  0  0
   48.9391    8.7211   18.4765 C   0  0  0  0  0  0  0  0  0  0  0  0
   47.0796   10.1115   19.1260 C   0  0  0  0  0  0  0  0  0  0  0  0
   48.9893    8.1939   19.7737 C   0  0  0  0  0  0  0  0  0  0  0  0
   47.1227    9.5817   20.4171 C   0  0  0  0  0  0  0  0  0  0  0  0
   48.0807    8.6293   20.7336 C   0  0  0  0  0  0  0  0  0  0  0  0
   48.0975    8.1418   22.0067 O   0  0  0  0  0  0  0  0  0  0  0  0
   50.1778    8.3095   13.6871 C   0  0  0  0  0  0  0  0  0  0  0  0
   51.1655    8.5740   12.8232 C   0  0  0  0  0  0  0  0  0  0  0  0
   51.0770    8.0480   11.4600 C   0  0  0  0  0  0  0  0  0  0  0  0
   52.1502    8.4202   10.7473 O   0  0  0  0  0  0  0  0  0  0  0  0
   50.1881    7.3652   10.9897 O   0  0  0  0  0  0  0  0  0  0  0  0
   50.2717    8.8325   15.0507 C   0  0  0  0  0  0  0  0  0  0  0  0
   49.1920    8.4693   15.7581 O   0  0  0  0  0  0  0  0  0  0  0  0
   51.1713    9.5004   15.5221 O   0  0  0  0  0  0  0  0  0  0  0  0
   54.2490   10.0954    8.9293 H   0  0  0  0  0  0  0  0  0  0  0  0
   55.1826    8.6664    8.4486 H   0  0  0  0  0  0  0  0  0  0  0  0
   51.6927    7.3953    8.6381 H   0  0  0  0  0  0  0  0  0  0  0  0
   52.7592    6.2193    9.4573 H   0  0  0  0  0  0  0  0  0  0  0  0
   51.7760    7.4521   11.0853 H   0  0  0  0  0  0  0  0  0  0  0  0
   52.5215    9.5682    7.1907 H   0  0  0  0  0  0  0  0  0  0  0  0
   54.1159    9.7443    6.4504 H   0  0  0  0  0  0  0  0  0  0  0  0
   52.8532    5.9016    6.9797 H   0  0  0  0  0  0  0  0  0  0  0  0
   54.4224    6.4302    7.5925 H   0  0  0  0  0  0  0  0  0  0  0  0
   53.4881    8.1750   13.3804 H   0  0  0  0  0  0  0  0  0  0  0  0
   52.1860    6.9687   13.4167 H   0  0  0  0  0  0  0  0  0  0  0  0
   51.9090    9.9636   12.8156 H   0  0  0  0  0  0  0  0  0  0  0  0
   51.3863    9.1998   14.2977 H   0  0  0  0  0  0  0  0  0  0  0  0
   49.6557    9.6804   12.5512 H   0  0  0  0  0  0  0  0  0  0  0  0
   49.9103    6.7654   13.0426 H   0  0  0  0  0  0  0  0  0  0  0  0
   48.5666    7.6166   12.3451 H   0  0  0  0  0  0  0  0  0  0  0  0
   47.8056    7.2567   14.4851 H   0  0  0  0  0  0  0  0  0  0  0  0
   50.2951    6.7952   15.3726 H   0  0  0  0  0  0  0  0  0  0  0  0
   50.1767    8.4391   15.9935 H   0  0  0  0  0  0  0  0  0  0  0  0
   48.9445    9.8479   14.4845 H   0  0  0  0  0  0  0  0  0  0  0  0
   48.7015    9.7635   16.9711 H   0  0  0  0  0  0  0  0  0  0  0  0
   48.1773    5.9625   18.9310 H   0  0  0  0  0  0  0  0  0  0  0  0
   48.1598   10.9181   19.0460 H   0  0  0  0  0  0  0  0  0  0  0  0
   47.5925    7.1392   21.0290 H   0  0  0  0  0  0  0  0  0  0  0  0
   47.5651   10.6687   21.2181 H   0  0  0  0  0  0  0  0  0  0  0  0
   53.5859    6.0293    9.8415 H   0  0  0  0  0  0  0  0  0  0  0  0
   52.7920    5.8888    8.2612 H   0  0  0  0  0  0  0  0  0  0  0  0
   53.6779    9.2715    7.1576 H   0  0  0  0  0  0  0  0  0  0  0  0
   55.1787    8.7092    7.9110 H   0  0  0  0  0  0  0  0  0  0  0  0
   52.6076    7.3224   10.9354 H   0  0  0  0  0  0  0  0  0  0  0  0
   55.8062    6.3321    8.7121 H   0  0  0  0  0  0  0  0  0  0  0  0
   55.0644    4.7841    8.2860 H   0  0  0  0  0  0  0  0  0  0  0  0
   53.4226    7.0660    5.9966 H   0  0  0  0  0  0  0  0  0  0  0  0
   54.9568    7.8293    5.5750 H   0  0  0  0  0  0  0  0  0  0  0  0
   50.4218    9.2951   10.6805 H   0  0  0  0  0  0  0  0  0  0  0  0
   51.7628    9.4719   11.8327 H   0  0  0  0  0  0  0  0  0  0  0  0
   49.7388    7.1599   11.7774 H   0  0  0  0  0  0  0  0  0  0  0  0
   51.1225    7.2646   12.8756 H   0  0  0  0  0  0  0  0  0  0  0  0
   48.8791    9.1871   12.7472 H   0  0  0  0  0  0  0  0  0  0  0  0
   48.3905    7.0305   13.7811 H   0  0  0  0  0  0  0  0  0  0  0  0
   49.7043    7.3898   14.9248 H   0  0  0  0  0  0  0  0  0  0  0  0
   47.5030    7.9855   15.8787 H   0  0  0  0  0  0  0  0  0  0  0  0
   49.6507    9.6737   16.1184 H   0  0  0  0  0  0  0  0  0  0  0  0
   48.6343   10.7049   15.1267 H   0  0  0  0  0  0  0  0  0  0  0  0
   46.2762    8.3578   14.1639 H   0  0  0  0  0  0  0  0  0  0  0  0
   49.6655    8.3604   17.7563 H   0  0  0  0  0  0  0  0  0  0  0  0
   46.3320   10.8609   18.8780 H   0  0  0  0  0  0  0  0  0  0  0  0
   49.7412    7.4475   20.0147 H   0  0  0  0  0  0  0  0  0  0  0  0
   46.4146    9.9129   21.1689 H   0  0  0  0  0  0  0  0  0  0  0  0
   48.8742    7.5697   22.1100 H   0  0  0  0  0  0  0  0  0  0  0  0
   49.3085    7.7186   13.4264 H   0  0  0  0  0  0  0  0  0  0  0  0
   52.0370    9.1646   13.0817 H   0  0  0  0  0  0  0  0  0  0  0  0
   52.0026    8.0211    9.8643 H   0  0  0  0  0  0  0  0  0  0  0  0
   49.3468    8.8507   16.6480 H   0  0  0  0  0  0  0  0  0  0  0  0
  3  7  1  0
  4  8  1  0
  5  9  1  0
  7 10  1  0
  9 11  1  0
 11 12  1  0
 12 13  1  0
 13 14  1  0
 14 15  1  0
 14 16  1  0
 15 17  1  0
 17 18  1  0
 18 19  2  0
 18 20  1  0
 19 21  1  0
 20 22  2  0
 21 23  2  0
 23 24  1  0
  8 10  1  0
 22 23  1  0
  1  2  1  0
  1  3  1  0
  1  4  1  0
  2  5  1  0
  2  6  2  0
 27 31  1  0
 28 32  1  0
 29 33  1  0
 31 34  1  0
 33 35  1  0
 35 36  1  0
 36 37  1  0
 37 38  1  0
 38 39  1  0
 38 40  1  0
 39 41  1  0
 41 42  1  0
 42 43  2  0
 42 44  1  0
 43 45  1  0
 44 46  2  0
 45 47  2  0
 47 48  1  0
 32 34  1  0
 46 47  1  0
 25 26  1  0
 25 27  1  0
 25 28  1  0
 26 29  1  0
 26 30  2  0
 49 50  2  0
 49 54  1  0
 50 51  1  0
 51 52  1  0
 51 53  2  0
 54 55  1  0
 54 56  2  0
  3 57  1  0
  3 58  1  0
  4 59  1  0
  4 60  1  0
  5 61  1  0
  7 62  1  0
  7 63  1  0
  8 64  1  0
  8 65  1  0
  9 66  1  0
  9 67  1  0
 11 68  1  0
 11 69  1  0
 12 70  1  0
 13 71  1  0
 13 72  1  0
 14 73  1  6
 15 74  1  0
 15 75  1  0
 16 76  1  0
 19 77  1  0
 20 78  1  0
 21 79  1  0
 22 80  1  0
 24 81  1  0
 27 82  1  0
 27 83  1  0
 28 84  1  0
 28 85  1  0
 29 86  1  0
 31 87  1  0
 31 88  1  0
 32 89  1  0
 32 90  1  0
 33 91  1  0
 33 92  1  0
 35 93  1  0
 35 94  1  0
 36 95  1  0
 37 96  1  0
 37 97  1  0
 38 98  1  6
 39 99  1  0
 39100  1  0
 40101  1  0
 43102  1  0
 44103  1  0
 45104  1  0
 46105  1  0
 48106  1  0
 49107  1  0
 50108  1  0
 52109  1  0
 55110  1  0
M  END
> <Uni-Dock RESULT> 
ENERGY=   -5.309  LOWER_BOUND=    4.196  UPPER_BOUND=    8.389
INTER + INTRA:          -5.309
INTER:                  -5.309
INTRA:                   0.000
UNBOUND:                 0.000

$$$$

     RDKit          3D

110111  0  0  0  0  0  0  0  0999 V2000
   43.8707    6.1336   11.5202 N   0  0  0  0  0  0  0  0  0  0  0  0
   43.4707    7.4109   11.1937 C   0  0  0  0  0  0  0  0  0  0  0  0
   42.9112    5.2254   12.1466 C   0  0  0  0  0  0  0  0  0  0  0  0
   45.1682    5.5388   11.1873 C   0  0  0  0  0  0  0  0  0  0  0  0
   44.4671    8.2042   10.6843 N   0  0  0  0  0  0  0  0  0  0  0  0
   42.3183    7.8091   11.3390 O   0  0  0  0  0  0  0  0  0  0  0  0
   43.6281    4.1743   12.9987 C   0  0  0  0  0  0  0  0  0  0  0  0
   45.0667    4.0156   11.0726 C   0  0  0  0  0  0  0  0  0  0  0  0
   44.2099    9.6131   10.4412 C   0  0  0  0  0  0  0  0  0  0  0  0
   44.5883    3.3893   12.2717 O   0  0  0  0  0  0  0  0  0  0  0  0
   44.3330   10.4335   11.7391 C   0  0  0  0  0  0  0  0  0  0  0  0
   45.5978   10.2242   12.4502 N   0  0  0  0  0  0  0  0  0  0  0  0
   46.8143   10.7378   11.8100 C   0  0  0  0  0  0  0  0  0  0  0  0
   47.0370   12.2689   11.8136 C   0  0  1  0  0  0  0  0  0  0  0  0
   46.3133   13.0006   10.6719 C   0  0  0  0  0  0  0  0  0  0  0  0
   46.6541   12.7963   13.0937 O   0  0  0  0  0  0  0  0  0  0  0  0
   47.0980   14.1159   10.2199 O   0  0  0  0  0  0  0  0  0  0  0  0
   46.7128   15.3774   10.5720 C   0  0  0  0  0  0  0  0  0  0  0  0
   45.9222   15.7149   11.6709 C   0  0  0  0  0  0  0  0  0  0  0  0
   47.2203   16.3936    9.7593 C   0  0  0  0  0  0  0  0  0  0  0  0
   45.6071   17.0535   11.9326 C   0  0  0  0  0  0  0  0  0  0  0  0
   46.9131   17.7316   10.0158 C   0  0  0  0  0  0  0  0  0  0  0  0
   46.1037   18.0505   11.0976 C   0  0  0  0  0  0  0  0  0  0  0  0
   45.8213   19.3667   11.3170 O   0  0  0  0  0  0  0  0  0  0  0  0
   44.1730    5.3196   11.4087 N   0  0  0  0  0  0  0  0  0  0  0  0
   44.2873    6.4429   12.2036 C   0  0  0  0  0  0  0  0  0  0  0  0
   44.8737    5.0835   10.1424 C   0  0  0  0  0  0  0  0  0  0  0  0
   43.4421    4.1608   11.9368 C   0  0  0  0  0  0  0  0  0  0  0  0
   44.9883    7.4832   11.6426 N   0  0  0  0  0  0  0  0  0  0  0  0
   43.8025    6.5143   13.3303 O   0  0  0  0  0  0  0  0  0  0  0  0
   44.1834    3.9841    9.3345 C   0  0  0  0  0  0  0  0  0  0  0  0
   44.0557    2.8450   11.4501 C   0  0  0  0  0  0  0  0  0  0  0  0
   45.0961    8.7327   12.3823 C   0  0  0  0  0  0  0  0  0  0  0  0
   44.1208    2.7269   10.0216 O   0  0  0  0  0  0  0  0  0  0  0  0
   46.0416    9.7276   11.6919 C   0  0  0  0  0  0  0  0  0  0  0  0
   46.0547   11.0193   12.3847 N   0  0  0  0  0  0  0  0  0  0  0  0
   46.8970   11.9996   11.6892 C   0  0  0  0  0  0  0  0  0  0  0  0
   47.0867   13.2888   12.5121 C   0  0  1  0  0  0  0  0  0  0  0  0
   45.7533   13.9539   12.8898 C   0  0  0  0  0  0  0  0  0  0  0  0
   47.8150   12.9663   13.7096 O   0  0  0  0  0  0  0  0  0  0  0  0
   45.9574   15.3330   13.2282 O   0  0  0  0  0  0  0  0  0  0  0  0
   45.9845   16.2668   12.2317 C   0  0  0  0  0  0  0  0  0  0  0  0
   45.7246   16.0498   10.8757 C   0  0  0  0  0  0  0  0  0  0  0  0
   46.3080   17.5578   12.6641 C   0  0  0  0  0  0  0  0  0  0  0  0
   45.7823   17.1153    9.9675 C   0  0  0  0  0  0  0  0  0  0  0  0
   46.3739   18.6194   11.7597 C   0  0  0  0  0  0  0  0  0  0  0  0
   46.1060   18.3917   10.4175 C   0  0  0  0  0  0  0  0  0  0  0  0
   46.1713   19.4544    9.5661 O   0  0  0  0  0  0  0  0  0  0  0  0
   45.7322   11.1479   11.6591 C   0  0  0  0  0  0  0  0  0  0  0  0
   44.9259   10.0798   11.6876 C   0  0  0  0  0  0  0  0  0  0  0  0
   45.5173    8.7461   11.8072 C   0  0  0  0  0  0  0  0  0  0  0  0
   44.5563    7.8110   11.8239 O   0  0  0  0  0  0  0  0  0  0  0  0
   46.6983    8.4673   11.8797 O   0  0  0  0  0  0  0  0  0  0  0  0
   45.1382   12.4795   11.5343 C   0  0  0  0  0  0  0  0  0  0  0  0
   46.1000   13.4138   11.5298 O   0  0  0  0  0  0  0  0  0  0  0  0
   43.9571   12.7527   11.4443 O   0  0  0  0  0  0  0  0  0  0  0  0
   42.1976    5.7905   12.7569 H   0  0  0  0  0  0  0  0  0  0  0  0
   42.3512    4.7384   11.3377 H   0  0  0  0  0  0  0  0  0  0  0  0
   45.8500    5.8102   12.0018 H   0  0  0  0  0  0  0  0  0  0  0  0
   45.5442    5.9616   10.2482 H   0  0  0  0  0  0  0  0  0  0  0  0
   45.3611    8.0439   11.1242 H   0  0  0  0  0  0  0  0  0  0  0  0
   44.1622    4.6579   13.8258 H   0  0  0  0  0  0  0  0  0  0  0  0
   42.9014    3.4826   13.4384 H   0  0  0  0  0  0  0  0  0  0  0  0
   46.0465    3.5862   10.8427 H   0  0  0  0  0  0  0  0  0  0  0  0
   44.3871    3.7369   10.2589 H   0  0  0  0  0  0  0  0  0  0  0  0
   43.2073    9.7342   10.0169 H   0  0  0  0  0  0  0  0  0  0  0  0
   44.9407    9.9493    9.6993 H   0  0  0  0  0  0  0  0  0  0  0  0
   43.5295   10.1156   12.4174 H   0  0  0  0  0  0  0  0  0  0  0  0
   44.1532   11.4926   11.5409 H   0  0  0  0  0  0  0  0  0  0  0  0
   45.5398   10.5646   13.4097 H   0  0  0  0  0  0  0  0  0  0  0  0
   46.9403   10.3216   10.8053 H   0  0  0  0  0  0  0  0  0  0  0  0
   47.6362   10.3065   12.3966 H   0  0  0  0  0  0  0  0  0  0  0  0
   48.1128   12.4522   11.7205 H   0  0  0  0  0  0  0  0  0  0  0  0
   46.2441   12.3415    9.7986 H   0  0  0  0  0  0  0  0  0  0  0  0
   45.2913   13.2956   10.9315 H   0  0  0  0  0  0  0  0  0  0  0  0
   45.7051   12.6140   13.1997 H   0  0  0  0  0  0  0  0  0  0  0  0
   45.5528   14.9632   12.3587 H   0  0  0  0  0  0  0  0  0  0  0  0
   47.8548   16.1444    8.9135 H   0  0  0  0  0  0  0  0  0  0  0  0
   44.9900   17.2928   12.7924 H   0  0  0  0  0  0  0  0  0  0  0  0
   47.3101   18.5143    9.3778 H   0  0  0  0  0  0  0  0  0  0  0  0
   45.2647   19.4357   12.1092 H   0  0  0  0  0  0  0  0  0  0  0  0
   44.9306    5.9994    9.5488 H   0  0  0  0  0  0  0  0  0  0  0  0
   45.8990    4.7820   10.4016 H   0  0  0  0  0  0  0  0  0  0  0  0
   43.4126    4.1799   13.0285 H   0  0  0  0  0  0  0  0  0  0  0  0
   42.4152    4.2544   11.5670 H   0  0  0  0  0  0  0  0  0  0  0  0
   44.7937    7.6017   10.6622 H   0  0  0  0  0  0  0  0  0  0  0  0
   43.1573    4.2843    9.0902 H   0  0  0  0  0  0  0  0  0  0  0  0
   44.7127    3.8160    8.3906 H   0  0  0  0  0  0  0  0  0  0  0  0
   45.0748    2.7363   11.8326 H   0  0  0  0  0  0  0  0  0  0  0  0
   43.4725    1.9968   11.8238 H   0  0  0  0  0  0  0  0  0  0  0  0
   45.4463    8.5089   13.3981 H   0  0  0  0  0  0  0  0  0  0  0  0
   44.0868    9.1579   12.4559 H   0  0  0  0  0  0  0  0  0  0  0  0
   47.0513    9.2983   11.6575 H   0  0  0  0  0  0  0  0  0  0  0  0
   45.7079    9.8683   10.6566 H   0  0  0  0  0  0  0  0  0  0  0  0
   46.4153   10.9005   13.3361 H   0  0  0  0  0  0  0  0  0  0  0  0
   47.8870   11.5626   11.5045 H   0  0  0  0  0  0  0  0  0  0  0  0
   46.4454   12.2511   10.7230 H   0  0  0  0  0  0  0  0  0  0  0  0
   47.7128   13.9867   11.9446 H   0  0  0  0  0  0  0  0  0  0  0  0
   44.9800   13.8441   12.1227 H   0  0  0  0  0  0  0  0  0  0  0  0
   45.3567   13.4871   13.7992 H   0  0  0  0  0  0  0  0  0  0  0  0
   48.7534   12.8972   13.4659 H   0  0  0  0  0  0  0  0  0  0  0  0
   45.4656   15.0701   10.4889 H   0  0  0  0  0  0  0  0  0  0  0  0
   46.5136   17.7358   13.7167 H   0  0  0  0  0  0  0  0  0  0  0  0
   45.5726   16.9299    8.9176 H   0  0  0  0  0  0  0  0  0  0  0  0
   46.6302   19.6159   12.1026 H   0  0  0  0  0  0  0  0  0  0  0  0
   45.8630   19.1708    8.6909 H   0  0  0  0  0  0  0  0  0  0  0  0
   46.8111   11.0745   11.7188 H   0  0  0  0  0  0  0  0  0  0  0  0
   43.8459   10.1505   11.6273 H   0  0  0  0  0  0  0  0  0  0  0  0
   45.0454    6.9650   11.9002 H   0  0  0  0  0  0  0  0  0  0  0  0
   45.6143   14.2601   11.4335 H   0  0  0  0  0  0  0  0  0  0  0  0
  3  7  1  0
  4  8  1  0
  5  9  1  0
  7 10  1  0
  9 11  1  0
 11 12  1  0
 12 13  1  0
 13 14  1  0
 14 15  1  0
 14 16  1  0
 15 17  1  0
 17 18  1  0
 18 19  2  0
 18 20  1  0
 19 21  1  0
 20 22  2  0
 21 23  2  0
 23 24  1  0
  8 10  1  0
 22 23  1  0
  1  2  1  0
  1  3  1  0
  1  4  1  0
  2  5  1  0
  2  6  2  0
 27 31  1  0
 28 32  1  0
 29 33  1  0
 31 34  1  0
 33 35  1  0
 35 36  1  0
 36 37  1  0
 37 38  1  0
 38 39  1  0
 38 40  1  0
 39 41  1  0
 41 42  1  0
 42 43  2  0
 42 44  1  0
 43 45  1  0
 44 46  2  0
 45 47  2  0
 47 48  1  0
 32 34  1  0
 46 47  1  0
 25 26  1  0
 25 27  1  0
 25 28  1  0
 26 29  1  0
 26 30  2  0
 49 50  2  0
 49 54  1  0
 50 51  1  0
 51 52  1  0
 51 53  2  0
 54 55  1  0
 54 56  2  0
  3 57  1  0
  3 58  1  0
  4 59  1  0
  4 60  1  0
  5 61  1  0
  7 62  1  0
  7 63  1  0
  8 64  1  0
  8 65  1  0
  9 66  1  0
  9 67  1  0
 11 68  1  0
 11 69  1  0
 12 70  1  0
 13 71  1  0
 13 72  1  0
 14 73  1  6
 15 74  1  0
 15 75  1  0
 16 76  1  0
 19 77  1  0
 20 78  1  0
 21 79  1  0
 22 80  1  0
 24 81  1  0
 27 82  1  0
 27 83  1  0
 28 84  1  0
 28 85  1  0
 29 86  1  0
 31 87  1  0
 31 88  1  0
 32 89  1  0
 32 90  1  0
 33 91  1  0
 33 92  1  0
 35 93  1  0
 35 94  1  0
 36 95  1  0
 37 96  1  0
 37 97  1  0
 38 98  1  6
 39 99  1  0
 39100  1  0
 40101  1  0
 43102  1  0
 44103  1  0
 45104  1  0
 46105  1  0
 48106  1  0
 49107  1  0
 50108  1  0
 52109  1  0
 55110  1  0
M  END
> <Uni-Dock RESULT> 
ENERGY=   -5.262  LOWER_BOUND=    5.686  UPPER_BOUND=   10.712
INTER + INTRA:          -5.262
INTER:                  -5.262
INTRA:                   0.000
UNBOUND:                 0.000

$$$$

     RDKit          3D

110111  0  0  0  0  0  0  0  0999 V2000
   48.7513    6.1300   17.3651 N   0  0  0  0  0  0  0  0  0  0  0  0
   49.6399    7.1827   17.3693 C   0  0  0  0  0  0  0  0  0  0  0  0
   48.9403    5.0427   16.4058 C   0  0  0  0  0  0  0  0  0  0  0  0
   47.6690    5.9283   18.3325 C   0  0  0  0  0  0  0  0  0  0  0  0
   49.3277    8.1846   18.2526 N   0  0  0  0  0  0  0  0  0  0  0  0
   50.6333    7.2230   16.6487 O   0  0  0  0  0  0  0  0  0  0  0  0
   47.6092    4.3555   16.0881 C   0  0  0  0  0  0  0  0  0  0  0  0
   47.3258    4.4436   18.4789 C   0  0  0  0  0  0  0  0  0  0  0  0
   50.1011    9.4144   18.2466 C   0  0  0  0  0  0  0  0  0  0  0  0
   46.9333    3.8299   17.2428 O   0  0  0  0  0  0  0  0  0  0  0  0
   49.6283   10.3639   17.1296 C   0  0  0  0  0  0  0  0  0  0  0  0
   48.1861   10.6261   17.1511 N   0  0  0  0  0  0  0  0  0  0  0  0
   47.6698   11.4168   18.2744 C   0  0  0  0  0  0  0  0  0  0  0  0
   47.9710   12.9344   18.2836 C   0  0  1  0  0  0  0  0  0  0  0  0
   49.3476   13.2869   18.8696 C   0  0  0  0  0  0  0  0  0  0  0  0
   47.8261   13.4503   16.9509 O   0  0  0  0  0  0  0  0  0  0  0  0
   49.2816   14.5350   19.5781 O   0  0  0  0  0  0  0  0  0  0  0  0
   49.8226   15.6482   19.0022 C   0  0  0  0  0  0  0  0  0  0  0  0
   50.0379   15.8409   17.6372 C   0  0  0  0  0  0  0  0  0  0  0  0
   50.1267   16.6802   19.8928 C   0  0  0  0  0  0  0  0  0  0  0  0
   50.5904   17.0391   17.1693 C   0  0  0  0  0  0  0  0  0  0  0  0
   50.6750   17.8796   19.4333 C   0  0  0  0  0  0  0  0  0  0  0  0
   50.9080   18.0472   18.0752 C   0  0  0  0  0  0  0  0  0  0  0  0
   51.4473   19.2298   17.6615 O   0  0  0  0  0  0  0  0  0  0  0  0
   48.3021    5.4401   17.6630 N   0  0  0  0  0  0  0  0  0  0  0  0
   48.1772    6.6211   16.9585 C   0  0  0  0  0  0  0  0  0  0  0  0
   48.2736    5.2984   19.1222 C   0  0  0  0  0  0  0  0  0  0  0  0
   48.2736    4.1752   16.9179 C   0  0  0  0  0  0  0  0  0  0  0  0
   48.2087    7.7613   17.7250 N   0  0  0  0  0  0  0  0  0  0  0  0
   48.0458    6.6584   15.7375 O   0  0  0  0  0  0  0  0  0  0  0  0
   48.8814    3.9628   19.5519 C   0  0  0  0  0  0  0  0  0  0  0  0
   47.5948    3.0664   17.7268 C   0  0  0  0  0  0  0  0  0  0  0  0
   48.1559    9.0541   17.0571 C   0  0  0  0  0  0  0  0  0  0  0  0
   48.2001    2.8253   19.0052 O   0  0  0  0  0  0  0  0  0  0  0  0
   48.0370   10.2124   18.0595 C   0  0  0  0  0  0  0  0  0  0  0  0
   48.0975   11.5113   17.3829 N   0  0  0  0  0  0  0  0  0  0  0  0
   48.0604   12.6237   18.3395 C   0  0  0  0  0  0  0  0  0  0  0  0
   47.9129   13.9878   17.6376 C   0  0  1  0  0  0  0  0  0  0  0  0
   49.0249   14.2497   16.6090 C   0  0  0  0  0  0  0  0  0  0  0  0
   46.6349   14.0298   16.9794 O   0  0  0  0  0  0  0  0  0  0  0  0
   49.1301   15.6527   16.3285 O   0  0  0  0  0  0  0  0  0  0  0  0
   49.8886   16.4409   17.1465 C   0  0  0  0  0  0  0  0  0  0  0  0
   50.6919   16.0147   18.2078 C   0  0  0  0  0  0  0  0  0  0  0  0
   49.8230   17.8067   16.8491 C   0  0  0  0  0  0  0  0  0  0  0  0
   51.4242   16.9460   18.9560 C   0  0  0  0  0  0  0  0  0  0  0  0
   50.5455   18.7373   17.5983 C   0  0  0  0  0  0  0  0  0  0  0  0
   51.3452   18.2999   18.6443 C   0  0  0  0  0  0  0  0  0  0  0  0
   52.0428   19.2369   19.3472 O   0  0  0  0  0  0  0  0  0  0  0  0
   48.7540   11.4589   17.8446 C   0  0  0  0  0  0  0  0  0  0  0  0
   49.0588   10.2047   17.4896 C   0  0  0  0  0  0  0  0  0  0  0  0
   48.0973    9.1354   17.7631 C   0  0  0  0  0  0  0  0  0  0  0  0
   48.5758    7.9586   17.3335 O   0  0  0  0  0  0  0  0  0  0  0  0
   47.0123    9.2395   18.3013 O   0  0  0  0  0  0  0  0  0  0  0  0
   49.7196   12.5250   17.5746 C   0  0  0  0  0  0  0  0  0  0  0  0
   49.2342   13.7024   17.9940 O   0  0  0  0  0  0  0  0  0  0  0  0
   50.8113   12.4135   17.0518 O   0  0  0  0  0  0  0  0  0  0  0  0
   49.4027    5.4234   15.4882 H   0  0  0  0  0  0  0  0  0  0  0  0
   49.6360    4.3264   16.8617 H   0  0  0  0  0  0  0  0  0  0  0  0
   46.8031    6.4783   17.9458 H   0  0  0  0  0  0  0  0  0  0  0  0
   47.9539    6.3453   19.3057 H   0  0  0  0  0  0  0  0  0  0  0  0
   48.3350    8.3518   18.3229 H   0  0  0  0  0  0  0  0  0  0  0  0
   46.9246    5.0627   15.6038 H   0  0  0  0  0  0  0  0  0  0  0  0
   47.7680    3.5249   15.3918 H   0  0  0  0  0  0  0  0  0  0  0  0
   46.5042    4.3123   19.1896 H   0  0  0  0  0  0  0  0  0  0  0  0
   48.1872    3.8874   18.8667 H   0  0  0  0  0  0  0  0  0  0  0  0
   51.1622    9.1786   18.1116 H   0  0  0  0  0  0  0  0  0  0  0  0
   49.9737    9.8783   19.2294 H   0  0  0  0  0  0  0  0  0  0  0  0
   49.8515    9.8885   16.1648 H   0  0  0  0  0  0  0  0  0  0  0  0
   50.2061   11.2908   17.1452 H   0  0  0  0  0  0  0  0  0  0  0  0
   47.8737   11.0307   16.2686 H   0  0  0  0  0  0  0  0  0  0  0  0
   47.9249   10.9565   19.2343 H   0  0  0  0  0  0  0  0  0  0  0  0
   46.5787   11.3207   18.1991 H   0  0  0  0  0  0  0  0  0  0  0  0
   47.1984   13.4266   18.8841 H   0  0  0  0  0  0  0  0  0  0  0  0
   49.6207   12.5508   19.6348 H   0  0  0  0  0  0  0  0  0  0  0  0
   50.1466   13.2812   18.1209 H   0  0  0  0  0  0  0  0  0  0  0  0
   48.4896   12.9990   16.4019 H   0  0  0  0  0  0  0  0  0  0  0  0
   49.7660   15.0884   16.9062 H   0  0  0  0  0  0  0  0  0  0  0  0
   49.9432   16.5498   20.9555 H   0  0  0  0  0  0  0  0  0  0  0  0
   50.7498   17.1669   16.1037 H   0  0  0  0  0  0  0  0  0  0  0  0
   50.9100   18.6751   20.1328 H   0  0  0  0  0  0  0  0  0  0  0  0
   51.5365   19.2078   16.6952 H   0  0  0  0  0  0  0  0  0  0  0  0
   48.8060    6.1208   19.6067 H   0  0  0  0  0  0  0  0  0  0  0  0
   47.2173    5.3531   19.4230 H   0  0  0  0  0  0  0  0  0  0  0  0
   47.7720    4.2981   15.9554 H   0  0  0  0  0  0  0  0  0  0  0  0
   49.3193    3.9117   16.7253 H   0  0  0  0  0  0  0  0  0  0  0  0
   48.8820    7.7118   18.4715 H   0  0  0  0  0  0  0  0  0  0  0  0
   49.9307    3.9082   19.2378 H   0  0  0  0  0  0  0  0  0  0  0  0
   48.8570    3.8668   20.6425 H   0  0  0  0  0  0  0  0  0  0  0  0
   46.5445    3.3144   17.9055 H   0  0  0  0  0  0  0  0  0  0  0  0
   47.6194    2.1245   17.1688 H   0  0  0  0  0  0  0  0  0  0  0  0
   47.3053    9.0551   16.3635 H   0  0  0  0  0  0  0  0  0  0  0  0
   49.0762    9.1562   16.4677 H   0  0  0  0  0  0  0  0  0  0  0  0
   47.0959   10.1107   18.6154 H   0  0  0  0  0  0  0  0  0  0  0  0
   48.8573   10.1357   18.7834 H   0  0  0  0  0  0  0  0  0  0  0  0
   47.3030   11.6082   16.7436 H   0  0  0  0  0  0  0  0  0  0  0  0
   47.2061   12.4931   19.0166 H   0  0  0  0  0  0  0  0  0  0  0  0
   48.9782   12.6231   18.9383 H   0  0  0  0  0  0  0  0  0  0  0  0
   47.9003   14.7803   18.3944 H   0  0  0  0  0  0  0  0  0  0  0  0
   49.9934   13.8297   16.8993 H   0  0  0  0  0  0  0  0  0  0  0  0
   48.7574   13.7816   15.6542 H   0  0  0  0  0  0  0  0  0  0  0  0
   45.9677   14.2255   17.6586 H   0  0  0  0  0  0  0  0  0  0  0  0
   50.7813   14.9679   18.4777 H   0  0  0  0  0  0  0  0  0  0  0  0
   49.1993   18.1478   16.0265 H   0  0  0  0  0  0  0  0  0  0  0  0
   52.0476   16.5969   19.7746 H   0  0  0  0  0  0  0  0  0  0  0  0
   50.4850   19.7945   17.3640 H   0  0  0  0  0  0  0  0  0  0  0  0
   52.6302   18.7830   19.9719 H   0  0  0  0  0  0  0  0  0  0  0  0
   47.8234   11.7250   18.3304 H   0  0  0  0  0  0  0  0  0  0  0  0
   49.9898    9.9356   17.0040 H   0  0  0  0  0  0  0  0  0  0  0  0
   47.8729    7.3151   17.5629 H   0  0  0  0  0  0  0  0  0  0  0  0
   49.9441   14.3451   17.7837 H   0  0  0  0  0  0  0  0  0  0  0  0
  3  7  1  0
  4  8  1  0
  5  9  1  0
  7 10  1  0
  9 11  1  0
 11 12  1  0
 12 13  1  0
 13 14  1  0
 14 15  1  0
 14 16  1  0
 15 17  1  0
 17 18  1  0
 18 19  2  0
 18 20  1  0
 19 21  1  0
 20 22  2  0
 21 23  2  0
 23 24  1  0
  8 10  1  0
 22 23  1  0
  1  2  1  0
  1  3  1  0
  1  4  1  0
  2  5  1  0
  2  6  2  0
 27 31  1  0
 28 32  1  0
 29 33  1  0
 31 34  1  0
 33 35  1  0
 35 36  1  0
 36 37  1  0
 37 38  1  0
 38 39  1  0
 38 40  1  0
 39 41  1  0
 41 42  1  0
 42 43  2  0
 42 44  1  0
 43 45  1  0
 44 46  2  0
 45 47  2  0
 47 48  1  0
 32 34  1  0
 46 47  1  0
 25 26  1  0
 25 27  1  0
 25 28  1  0
 26 29  1  0
 26 30  2  0
 49 50  2  0
 49 54  1  0
 50 51  1  0
 51 52  1  0
 51 53  2  0
 54 55  1  0
 54 56  2  0
  3 57  1  0
  3 58  1  0
  4 59  1  0
  4 60  1  0
  5 61  1  0
  7 62  1  0
  7 63  1  0
  8 64  1  0
  8 65  1  0
  9 66  1  0
  9 67  1  0
 11 68  1  0
 11 69  1  0
 12 70  1  0
 13 71  1  0
 13 72  1  0
 14 73  1  6
 15 74  1  0
 15 75  1  0
 16 76  1  0
 19 77  1  0
 20 78  1  0
 21 79  1  0
 22 80  1  0
 24 81  1  0
 27 82  1  0
 27 83  1  0
 28 84  1  0
 28 85  1  0
 29 86  1  0
 31 87  1  0
 31 88  1  0
 32 89  1  0
 32 90  1  0
 33 91  1  0
 33 92  1  0
 35 93  1  0
 35 94  1  0
 36 95  1  0
 37 96  1  0
 37 97  1  0
 38 98  1  6
 39 99  1  0
 39100  1  0
 40101  1  0
 43102  1  0
 44103  1  0
 45104  1  0
 46105  1  0
 48106  1  0
 49107  1  0
 50108  1  0
 52109  1  0
 55110  1  0
M  END
> <Uni-Dock RESULT> 
ENERGY=   -5.237  LOWER_BOUND=    3.758  UPPER_BOUND=   10.017
INTER + INTRA:          -5.237
INTER:                  -5.237
INTRA:                   0.000
UNBOUND:                 0.000

$$$$

     RDKit          3D

110111  0  0  0  0  0  0  0  0999 V2000
   53.8314    9.1838   17.8882 N   0  0  0  0  0  0  0  0  0  0  0  0
   52.5075    8.8028   17.8936 C   0  0  0  0  0  0  0  0  0  0  0  0
   54.2823   10.2050   18.8326 C   0  0  0  0  0  0  0  0  0  0  0  0
   54.8896    8.5661   17.0839 C   0  0  0  0  0  0  0  0  0  0  0  0
   52.1739    7.8980   16.9182 N   0  0  0  0  0  0  0  0  0  0  0  0
   51.6914    9.2301   18.7055 O   0  0  0  0  0  0  0  0  0  0  0  0
   55.5069   10.9483   18.2917 C   0  0  0  0  0  0  0  0  0  0  0  0
   56.2576    8.7234   17.7528 C   0  0  0  0  0  0  0  0  0  0  0  0
   50.7816    7.5316   16.7240 C   0  0  0  0  0  0  0  0  0  0  0  0
   56.6200   10.0925   17.9829 O   0  0  0  0  0  0  0  0  0  0  0  0
   50.0401    8.5876   15.8829 C   0  0  0  0  0  0  0  0  0  0  0  0
   50.7039    8.9017   14.6140 N   0  0  0  0  0  0  0  0  0  0  0  0
   50.7167    7.8497   13.5910 C   0  0  0  0  0  0  0  0  0  0  0  0
   49.3910    7.5499   12.8518 C   0  0  1  0  0  0  0  0  0  0  0  0
   48.4654    6.5855   13.6107 C   0  0  0  0  0  0  0  0  0  0  0  0
   48.7245    8.7886   12.5611 O   0  0  0  0  0  0  0  0  0  0  0  0
   47.7517    5.7497   12.6855 O   0  0  0  0  0  0  0  0  0  0  0  0
   46.4310    6.0043   12.4522 C   0  0  0  0  0  0  0  0  0  0  0  0
   45.7867    7.2266   12.6457 C   0  0  0  0  0  0  0  0  0  0  0  0
   45.7106    4.9295   11.9265 C   0  0  0  0  0  0  0  0  0  0  0  0
   44.4241    7.3631   12.3549 C   0  0  0  0  0  0  0  0  0  0  0  0
   44.3518    5.0588   11.6308 C   0  0  0  0  0  0  0  0  0  0  0  0
   43.7179    6.2735   11.8531 C   0  0  0  0  0  0  0  0  0  0  0  0
   42.3896    6.3638   11.5562 O   0  0  0  0  0  0  0  0  0  0  0  0
   54.7015    9.1117   17.9525 N   0  0  0  0  0  0  0  0  0  0  0  0
   53.6900    9.6512   17.1827 C   0  0  0  0  0  0  0  0  0  0  0  0
   55.2219    7.7441   17.8583 C   0  0  0  0  0  0  0  0  0  0  0  0
   55.4742   10.0093   18.8205 C   0  0  0  0  0  0  0  0  0  0  0  0
   53.0159    8.7501   16.3941 N   0  0  0  0  0  0  0  0  0  0  0  0
   53.4085   10.8471   17.1951 O   0  0  0  0  0  0  0  0  0  0  0  0
   55.9891    7.3646   19.1253 C   0  0  0  0  0  0  0  0  0  0  0  0
   56.9367    9.5667   18.9200 C   0  0  0  0  0  0  0  0  0  0  0  0
   51.8869    9.2204   15.6039 C   0  0  0  0  0  0  0  0  0  0  0  0
   57.1067    8.2226   19.3924 O   0  0  0  0  0  0  0  0  0  0  0  0
   51.3524    8.1299   14.6628 C   0  0  0  0  0  0  0  0  0  0  0  0
   50.1490    8.5785   13.9561 N   0  0  0  0  0  0  0  0  0  0  0  0
   49.5883    7.5171   13.1117 C   0  0  0  0  0  0  0  0  0  0  0  0
   48.4523    8.0343   12.2078 C   0  0  1  0  0  0  0  0  0  0  0  0
   47.3143    8.6943   13.0031 C   0  0  0  0  0  0  0  0  0  0  0  0
   49.0008    8.9868   11.2804 O   0  0  0  0  0  0  0  0  0  0  0  0
   46.1131    8.7380   12.2199 O   0  0  0  0  0  0  0  0  0  0  0  0
   45.2878    7.6498   12.2041 C   0  0  0  0  0  0  0  0  0  0  0  0
   45.4215    6.4882   12.9697 C   0  0  0  0  0  0  0  0  0  0  0  0
   44.2116    7.7590   11.3163 C   0  0  0  0  0  0  0  0  0  0  0  0
   44.4844    5.4534   12.8504 C   0  0  0  0  0  0  0  0  0  0  0  0
   43.2811    6.7258   11.1899 C   0  0  0  0  0  0  0  0  0  0  0  0
   43.4213    5.5814   11.9616 C   0  0  0  0  0  0  0  0  0  0  0  0
   42.4882    4.5979   11.8173 O   0  0  0  0  0  0  0  0  0  0  0  0
   49.9242    7.9753   14.4384 C   0  0  0  0  0  0  0  0  0  0  0  0
   50.5966    8.4125   15.5101 C   0  0  0  0  0  0  0  0  0  0  0  0
   52.0518    8.5492   15.4287 C   0  0  0  0  0  0  0  0  0  0  0  0
   52.5422    9.0021   16.5917 O   0  0  0  0  0  0  0  0  0  0  0  0
   52.7634    8.2995   14.4753 O   0  0  0  0  0  0  0  0  0  0  0  0
   48.4700    7.8348   14.5247 C   0  0  0  0  0  0  0  0  0  0  0  0
   47.9804    7.3934   13.3570 O   0  0  0  0  0  0  0  0  0  0  0  0
   47.7641    8.0690   15.4861 O   0  0  0  0  0  0  0  0  0  0  0  0
   53.4701   10.9096   19.0446 H   0  0  0  0  0  0  0  0  0  0  0  0
   54.5353    9.6907   19.7687 H   0  0  0  0  0  0  0  0  0  0  0  0
   54.8823    9.0816   16.1164 H   0  0  0  0  0  0  0  0  0  0  0  0
   54.6688    7.5038   16.9266 H   0  0  0  0  0  0  0  0  0  0  0  0
   52.6560    8.0629   16.0471 H   0  0  0  0  0  0  0  0  0  0  0  0
   55.2466   11.4882   17.3730 H   0  0  0  0  0  0  0  0  0  0  0  0
   55.8527   11.6898   19.0201 H   0  0  0  0  0  0  0  0  0  0  0  0
   57.0379    8.2741   17.1310 H   0  0  0  0  0  0  0  0  0  0  0  0
   56.2725    8.2090   18.7207 H   0  0  0  0  0  0  0  0  0  0  0  0
   50.2933    7.4204   17.6982 H   0  0  0  0  0  0  0  0  0  0  0  0
   50.7728    6.5595   16.2215 H   0  0  0  0  0  0  0  0  0  0  0  0
   50.0057    9.5193   16.4638 H   0  0  0  0  0  0  0  0  0  0  0  0
   48.9992    8.2935   15.7304 H   0  0  0  0  0  0  0  0  0  0  0  0
   50.3436    9.7689   14.2164 H   0  0  0  0  0  0  0  0  0  0  0  0
   51.1744    6.9310   13.9718 H   0  0  0  0  0  0  0  0  0  0  0  0
   51.4171    8.2163   12.8290 H   0  0  0  0  0  0  0  0  0  0  0  0
   49.6400    7.1056   11.8820 H   0  0  0  0  0  0  0  0  0  0  0  0
   49.0684    5.8872   14.2030 H   0  0  0  0  0  0  0  0  0  0  0  0
   47.7920    7.0962   14.3069 H   0  0  0  0  0  0  0  0  0  0  0  0
   48.5232    9.2061   13.4157 H   0  0  0  0  0  0  0  0  0  0  0  0
   46.3196    8.1013   12.9999 H   0  0  0  0  0  0  0  0  0  0  0  0
   46.2069    3.9792   11.7512 H   0  0  0  0  0  0  0  0  0  0  0  0
   43.9434    8.3228   12.5138 H   0  0  0  0  0  0  0  0  0  0  0  0
   43.7997    4.2177   11.2246 H   0  0  0  0  0  0  0  0  0  0  0  0
   42.0910    7.2676   11.7459 H   0  0  0  0  0  0  0  0  0  0  0  0
   54.4144    7.0281   17.6855 H   0  0  0  0  0  0  0  0  0  0  0  0
   55.8896    7.7209   16.9847 H   0  0  0  0  0  0  0  0  0  0  0  0
   55.4177   11.0413   18.4672 H   0  0  0  0  0  0  0  0  0  0  0  0
   55.0004    9.9610   19.8070 H   0  0  0  0  0  0  0  0  0  0  0  0
   52.8562    7.8700   16.8556 H   0  0  0  0  0  0  0  0  0  0  0  0
   55.3220    7.4022   19.9949 H   0  0  0  0  0  0  0  0  0  0  0  0
   56.3724    6.3417   19.0462 H   0  0  0  0  0  0  0  0  0  0  0  0
   57.4211    9.6316   17.9413 H   0  0  0  0  0  0  0  0  0  0  0  0
   57.4839   10.2263   19.6016 H   0  0  0  0  0  0  0  0  0  0  0  0
   52.2030   10.1024   15.0324 H   0  0  0  0  0  0  0  0  0  0  0  0
   51.1030    9.5324   16.3061 H   0  0  0  0  0  0  0  0  0  0  0  0
   52.1393    7.8552   13.9485 H   0  0  0  0  0  0  0  0  0  0  0  0
   51.1198    7.2373   15.2562 H   0  0  0  0  0  0  0  0  0  0  0  0
   50.3740    9.3807   13.3601 H   0  0  0  0  0  0  0  0  0  0  0  0
   50.3784    7.1083   12.4684 H   0  0  0  0  0  0  0  0  0  0  0  0
   49.2062    6.7083   13.7448 H   0  0  0  0  0  0  0  0  0  0  0  0
   48.0650    7.2026   11.6084 H   0  0  0  0  0  0  0  0  0  0  0  0
   47.1360    8.2264   13.9767 H   0  0  0  0  0  0  0  0  0  0  0  0
   47.5685    9.7417   13.2042 H   0  0  0  0  0  0  0  0  0  0  0  0
   49.4333    8.4819   10.5713 H   0  0  0  0  0  0  0  0  0  0  0  0
   46.2345    6.3544   13.6753 H   0  0  0  0  0  0  0  0  0  0  0  0
   44.1004    8.6580   10.7152 H   0  0  0  0  0  0  0  0  0  0  0  0
   44.6007    4.5593   13.4568 H   0  0  0  0  0  0  0  0  0  0  0  0
   42.4527    6.8167   10.4958 H   0  0  0  0  0  0  0  0  0  0  0  0
   42.6526    3.9133   12.4848 H   0  0  0  0  0  0  0  0  0  0  0  0
   50.4073    7.7133   13.5053 H   0  0  0  0  0  0  0  0  0  0  0  0
   50.1157    8.6748   16.4455 H   0  0  0  0  0  0  0  0  0  0  0  0
   53.5093    9.0544   16.4408 H   0  0  0  0  0  0  0  0  0  0  0  0
   47.0149    7.3211   13.5118 H   0  0  0  0  0  0  0  0  0  0  0  0
  3  7  1  0
  4  8  1  0
  5  9  1  0
  7 10  1  0
  9 11  1  0
 11 12  1  0
 12 13  1  0
 13 14  1  0
 14 15  1  0
 14 16  1  0
 15 17  1  0
 17 18  1  0
 18 19  2  0
 18 20  1  0
 19 21  1  0
 20 22  2  0
 21 23  2  0
 23 24  1  0
  8 10  1  0
 22 23  1  0
  1  2  1  0
  1  3  1  0
  1  4  1  0
  2  5  1  0
  2  6  2  0
 27 31  1  0
 28 32  1  0
 29 33  1  0
 31 34  1  0
 33 35  1  0
 35 36  1  0
 36 37  1  0
 37 38  1  0
 38 39  1  0
 38 40  1  0
 39 41  1  0
 41 42  1  0
 42 43  2  0
 42 44  1  0
 43 45  1  0
 44 46  2  0
 45 47  2  0
 47 48  1  0
 32 34  1  0
 46 47  1  0
 25 26  1  0
 25 27  1  0
 25 28  1  0
 26 29  1  0
 26 30  2  0
 49 50  2  0
 49 54  1  0
 50 51  1  0
 51 52  1  0
 51 53  2  0
 54 55  1  0
 54 56  2  0
  3 57  1  0
  3 58  1  0
  4 59  1  0
  4 60  1  0
  5 61  1  0
  7 62  1  0
  7 63  1  0
  8 64  1  0
  8 65  1  0
  9 66  1  0
  9 67  1  0
 11 68  1  0
 11 69  1  0
 12 70  1  0
 13 71  1  0
 13 72  1  0
 14 73  1  6
 15 74  1  0
 15 75  1  0
 16 76  1  0
 19 77  1  0
 20 78  1  0
 21 79  1  0
 22 80  1  0
 24 81  1  0
 27 82  1  0
 27 83  1  0
 28 84  1  0
 28 85  1  0
 29 86  1  0
 31 87  1  0
 31 88  1  0
 32 89  1  0
 32 90  1  0
 33 91  1  0
 33 92  1  0
 35 93  1  0
 35 94  1  0
 36 95  1  0
 37 96  1  0
 37 97  1  0
 38 98  1  6
 39 99  1  0
 39100  1  0
 40101  1  0
 43102  1  0
 44103  1  0
 45104  1  0
 46105  1  0
 48106  1  0
 49107  1  0
 50108  1  0
 52109  1  0
 55110  1  0
M  END
> <Uni-Dock RESULT> 
ENERGY=   -5.026  LOWER_BOUND=    2.461  UPPER_BOUND=    2.911
INTER + INTRA:          -5.026
INTER:                  -5.026
INTRA:                   0.000
UNBOUND:                 0.000

$$$$

     RDKit          3D

110111  0  0  0  0  0  0  0  0999 V2000
   48.7083   11.4751   17.8868 N   0  0  0  0  0  0  0  0  0  0  0  0
   48.7897   10.3951   17.0354 C   0  0  0  0  0  0  0  0  0  0  0  0
   47.3913   11.9828   18.2688 C   0  0  0  0  0  0  0  0  0  0  0  0
   49.8431   12.1134   18.5599 C   0  0  0  0  0  0  0  0  0  0  0  0
   50.0684   10.0490   16.6794 N   0  0  0  0  0  0  0  0  0  0  0  0
   47.8033    9.7859   16.6308 O   0  0  0  0  0  0  0  0  0  0  0  0
   47.4615   13.4690   18.6306 C   0  0  0  0  0  0  0  0  0  0  0  0
   49.4089   12.7777   19.8689 C   0  0  0  0  0  0  0  0  0  0  0  0
   50.2811    9.0244   15.6717 C   0  0  0  0  0  0  0  0  0  0  0  0
   48.3880   13.7695   19.6879 O   0  0  0  0  0  0  0  0  0  0  0  0
   50.1293    9.6005   14.2513 C   0  0  0  0  0  0  0  0  0  0  0  0
   50.9547   10.7871   14.0059 N   0  0  0  0  0  0  0  0  0  0  0  0
   52.4076   10.5880   13.9530 C   0  0  0  0  0  0  0  0  0  0  0  0
   52.9926    9.8918   12.7012 C   0  0  1  0  0  0  0  0  0  0  0  0
   52.9405    8.3570   12.7675 C   0  0  0  0  0  0  0  0  0  0  0  0
   52.3193   10.3844   11.5319 O   0  0  0  0  0  0  0  0  0  0  0  0
   54.0898    7.7919   12.1164 O   0  0  0  0  0  0  0  0  0  0  0  0
   53.9352    7.2229   10.8852 C   0  0  0  0  0  0  0  0  0  0  0  0
   52.9134    7.5021    9.9771 C   0  0  0  0  0  0  0  0  0  0  0  0
   54.9410    6.3234   10.5246 C   0  0  0  0  0  0  0  0  0  0  0  0
   52.8739    6.8577    8.7350 C   0  0  0  0  0  0  0  0  0  0  0  0
   54.9102    5.6790    9.2859 C   0  0  0  0  0  0  0  0  0  0  0  0
   53.8731    5.9471    8.4030 C   0  0  0  0  0  0  0  0  0  0  0  0
   53.8725    5.2978    7.2035 O   0  0  0  0  0  0  0  0  0  0  0  0
   48.8145   11.9505   18.6142 N   0  0  0  0  0  0  0  0  0  0  0  0
   48.9132   11.9974   17.2377 C   0  0  0  0  0  0  0  0  0  0  0  0
   49.8416   11.4566   19.5368 C   0  0  0  0  0  0  0  0  0  0  0  0
   47.6750   12.6176   19.2566 C   0  0  0  0  0  0  0  0  0  0  0  0
   50.0078   11.3547   16.7111 N   0  0  0  0  0  0  0  0  0  0  0  0
   48.0888   12.5703   16.5294 O   0  0  0  0  0  0  0  0  0  0  0  0
   49.2366   11.1338   20.9034 C   0  0  0  0  0  0  0  0  0  0  0  0
   48.0697   13.2173   20.6091 C   0  0  0  0  0  0  0  0  0  0  0  0
   50.1524   11.2927   15.2636 C   0  0  0  0  0  0  0  0  0  0  0  0
   48.6147   12.2630   21.5316 O   0  0  0  0  0  0  0  0  0  0  0  0
   51.5019   10.6868   14.8481 C   0  0  0  0  0  0  0  0  0  0  0  0
   51.5891   10.5267   13.3936 N   0  0  0  0  0  0  0  0  0  0  0  0
   52.8439    9.8794   12.9933 C   0  0  0  0  0  0  0  0  0  0  0  0
   53.0422    9.8935   11.4650 C   0  0  1  0  0  0  0  0  0  0  0  0
   51.8767    9.2356   10.7089 C   0  0  0  0  0  0  0  0  0  0  0  0
   53.1814   11.2580   11.0326 O   0  0  0  0  0  0  0  0  0  0  0  0
   52.2856    8.8550    9.3875 O   0  0  0  0  0  0  0  0  0  0  0  0
   52.9059    7.6523    9.2022 C   0  0  0  0  0  0  0  0  0  0  0  0
   53.1081    6.6592   10.1646 C   0  0  0  0  0  0  0  0  0  0  0  0
   53.3658    7.4390    7.8979 C   0  0  0  0  0  0  0  0  0  0  0  0
   53.7572    5.4660    9.8208 C   0  0  0  0  0  0  0  0  0  0  0  0
   54.0199    6.2541    7.5550 C   0  0  0  0  0  0  0  0  0  0  0  0
   54.2071    5.2732    8.5181 C   0  0  0  0  0  0  0  0  0  0  0  0
   54.8419    4.1263    8.1437 O   0  0  0  0  0  0  0  0  0  0  0  0
   51.5945    9.7871   13.7097 C   0  0  0  0  0  0  0  0  0  0  0  0
   50.5908   10.0084   14.5674 C   0  0  0  0  0  0  0  0  0  0  0  0
   50.7418   11.0509   15.5838 C   0  0  0  0  0  0  0  0  0  0  0  0
   49.6372   11.1262   16.3405 O   0  0  0  0  0  0  0  0  0  0  0  0
   51.7052   11.7698   15.7651 O   0  0  0  0  0  0  0  0  0  0  0  0
   51.4425    8.7407   12.6979 C   0  0  0  0  0  0  0  0  0  0  0  0
   52.5432    8.6752   11.9349 O   0  0  0  0  0  0  0  0  0  0  0  0
   50.4839    8.0120   12.5315 O   0  0  0  0  0  0  0  0  0  0  0  0
   46.6729   11.8202   17.4574 H   0  0  0  0  0  0  0  0  0  0  0  0
   47.0583   11.3980   19.1360 H   0  0  0  0  0  0  0  0  0  0  0  0
   50.2290   12.8682   17.8648 H   0  0  0  0  0  0  0  0  0  0  0  0
   50.6268   11.3725   18.7569 H   0  0  0  0  0  0  0  0  0  0  0  0
   50.6713   10.8482   16.5523 H   0  0  0  0  0  0  0  0  0  0  0  0
   47.7639   14.0575   17.7556 H   0  0  0  0  0  0  0  0  0  0  0  0
   46.4756   13.8302   18.9430 H   0  0  0  0  0  0  0  0  0  0  0  0
   50.2632   13.2651   20.3486 H   0  0  0  0  0  0  0  0  0  0  0  0
   49.0229   12.0282   20.5696 H   0  0  0  0  0  0  0  0  0  0  0  0
   49.5651    8.2091   15.8221 H   0  0  0  0  0  0  0  0  0  0  0  0
   51.2900    8.6292   15.8240 H   0  0  0  0  0  0  0  0  0  0  0  0
   49.0827    9.9077   14.1211 H   0  0  0  0  0  0  0  0  0  0  0  0
   50.3070    8.8251   13.5027 H   0  0  0  0  0  0  0  0  0  0  0  0
   50.6416   11.2859   13.1734 H   0  0  0  0  0  0  0  0  0  0  0  0
   52.7789   10.1257   14.8732 H   0  0  0  0  0  0  0  0  0  0  0  0
   52.8243   11.6038   13.9623 H   0  0  0  0  0  0  0  0  0  0  0  0
   54.0381   10.2027   12.6016 H   0  0  0  0  0  0  0  0  0  0  0  0
   53.0279    8.0312   13.8106 H   0  0  0  0  0  0  0  0  0  0  0  0
   52.0038    7.9427   12.3805 H   0  0  0  0  0  0  0  0  0  0  0  0
   51.3831   10.1383   11.6227 H   0  0  0  0  0  0  0  0  0  0  0  0
   52.1435    8.2333   10.1936 H   0  0  0  0  0  0  0  0  0  0  0  0
   55.7533    6.1145   11.2148 H   0  0  0  0  0  0  0  0  0  0  0  0
   52.0695    7.0896    8.0446 H   0  0  0  0  0  0  0  0  0  0  0  0
   55.6948    4.9801    9.0152 H   0  0  0  0  0  0  0  0  0  0  0  0
   53.1040    5.5957    6.6910 H   0  0  0  0  0  0  0  0  0  0  0  0
   50.3385   10.5708   19.1329 H   0  0  0  0  0  0  0  0  0  0  0  0
   50.5920   12.2551   19.6290 H   0  0  0  0  0  0  0  0  0  0  0  0
   47.2586   13.3929   18.6096 H   0  0  0  0  0  0  0  0  0  0  0  0
   46.9106   11.8457   19.3979 H   0  0  0  0  0  0  0  0  0  0  0  0
   50.2175   10.4904   17.1824 H   0  0  0  0  0  0  0  0  0  0  0  0
   48.4798   10.3464   20.8037 H   0  0  0  0  0  0  0  0  0  0  0  0
   50.0105   10.7645   21.5847 H   0  0  0  0  0  0  0  0  0  0  0  0
   48.8186   14.0029   20.4728 H   0  0  0  0  0  0  0  0  0  0  0  0
   47.1970   13.6749   21.0869 H   0  0  0  0  0  0  0  0  0  0  0  0
   50.0430   12.3063   14.8572 H   0  0  0  0  0  0  0  0  0  0  0  0
   49.3273   10.6802   14.8779 H   0  0  0  0  0  0  0  0  0  0  0  0
   52.3121   11.3304   15.2145 H   0  0  0  0  0  0  0  0  0  0  0  0
   51.6121    9.7095   15.3335 H   0  0  0  0  0  0  0  0  0  0  0  0
   51.5388   11.4432   12.9388 H   0  0  0  0  0  0  0  0  0  0  0  0
   53.6890   10.4083   13.4530 H   0  0  0  0  0  0  0  0  0  0  0  0
   52.8514    8.8428   13.3488 H   0  0  0  0  0  0  0  0  0  0  0  0
   53.9854    9.3913   11.2218 H   0  0  0  0  0  0  0  0  0  0  0  0
   51.4322    8.3908   11.2451 H   0  0  0  0  0  0  0  0  0  0  0  0
   51.0740    9.9686   10.5650 H   0  0  0  0  0  0  0  0  0  0  0  0
   54.0943   11.5296   11.2265 H   0  0  0  0  0  0  0  0  0  0  0  0
   52.7682    6.7722   11.1885 H   0  0  0  0  0  0  0  0  0  0  0  0
   53.2147    8.2067    7.1430 H   0  0  0  0  0  0  0  0  0  0  0  0
   53.9017    4.7024   10.5801 H   0  0  0  0  0  0  0  0  0  0  0  0
   54.3774    6.0991    6.5428 H   0  0  0  0  0  0  0  0  0  0  0  0
   54.8100    3.4981    8.8824 H   0  0  0  0  0  0  0  0  0  0  0  0
   52.5226   10.3447   13.7311 H   0  0  0  0  0  0  0  0  0  0  0  0
   49.6611    9.4514   14.5486 H   0  0  0  0  0  0  0  0  0  0  0  0
   49.8351   11.8380   16.9846 H   0  0  0  0  0  0  0  0  0  0  0  0
   52.3557    7.9500   11.3021 H   0  0  0  0  0  0  0  0  0  0  0  0
  3  7  1  0
  4  8  1  0
  5  9  1  0
  7 10  1  0
  9 11  1  0
 11 12  1  0
 12 13  1  0
 13 14  1  0
 14 15  1  0
 14 16  1  0
 15 17  1  0
 17 18  1  0
 18 19  2  0
 18 20  1  0
 19 21  1  0
 20 22  2  0
 21 23  2  0
 23 24  1  0
  8 10  1  0
 22 23  1  0
  1  2  1  0
  1  3  1  0
  1  4  1  0
  2  5  1  0
  2  6  2  0
 27 31  1  0
 28 32  1  0
 29 33  1  0
 31 34  1  0
 33 35  1  0
 35 36  1  0
 36 37  1  0
 37 38  1  0
 38 39  1  0
 38 40  1  0
 39 41  1  0
 41 42  1  0
 42 43  2  0
 42 44  1  0
 43 45  1  0
 44 46  2  0
 45 47  2  0
 47 48  1  0
 32 34  1  0
 46 47  1  0
 25 26  1  0
 25 27  1  0
 25 28  1  0
 26 29  1  0
 26 30  2  0
 49 50  2  0
 49 54  1  0
 50 51  1  0
 51 52  1  0
 51 53  2  0
 54 55  1  0
 54 56  2  0
  3 57  1  0
  3 58  1  0
  4 59  1  0
  4 60  1  0
  5 61  1  0
  7 62  1  0
  7 63  1  0
  8 64  1  0
  8 65  1  0
  9 66  1  0
  9 67  1  0
 11 68  1  0
 11 69  1  0
 12 70  1  0
 13 71  1  0
 13 72  1  0
 14 73  1  6
 15 74  1  0
 15 75  1  0
 16 76  1  0
 19 77  1  0
 20 78  1  0
 21 79  1  0
 22 80  1  0
 24 81  1  0
 27 82  1  0
 27 83  1  0
 28 84  1  0
 28 85  1  0
 29 86  1  0
 31 87  1  0
 31 88  1  0
 32 89  1  0
 32 90  1  0
 33 91  1  0
 33 92  1  0
 35 93  1  0
 35 94  1  0
 36 95  1  0
 37 96  1  0
 37 97  1  0
 38 98  1  6
 39 99  1  0
 39100  1  0
 40101  1  0
 43102  1  0
 44103  1  0
 45104  1  0
 46105  1  0
 48106  1  0
 49107  1  0
 50108  1  0
 52109  1  0
 55110  1  0
M  END
> <Uni-Dock RESULT> 
ENERGY=   -4.890  LOWER_BOUND=    4.330  UPPER_BOUND=    5.811
INTER + INTRA:          -4.890
INTER:                  -4.890
INTRA:                   0.000
UNBOUND:                 0.000

$$$$

     RDKit          3D

110111  0  0  0  0  0  0  0  0999 V2000
   49.3430    6.9662   19.3448 N   0  0  0  0  0  0  0  0  0  0  0  0
   49.1921    8.1754   18.7022 C   0  0  0  0  0  0  0  0  0  0  0  0
   50.3570    6.8374   20.3904 C   0  0  0  0  0  0  0  0  0  0  0  0
   48.4844    5.7929   19.1594 C   0  0  0  0  0  0  0  0  0  0  0  0
   48.2697    8.1667   17.6869 N   0  0  0  0  0  0  0  0  0  0  0  0
   49.8239    9.1816   19.0122 O   0  0  0  0  0  0  0  0  0  0  0  0
   50.8305    5.3868   20.5179 C   0  0  0  0  0  0  0  0  0  0  0  0
   48.4709    4.9125   20.4117 C   0  0  0  0  0  0  0  0  0  0  0  0
   48.1261    9.3359   16.8368 C   0  0  0  0  0  0  0  0  0  0  0  0
   49.7749    4.4499   20.7913 O   0  0  0  0  0  0  0  0  0  0  0  0
   49.2091    9.3644   15.7418 C   0  0  0  0  0  0  0  0  0  0  0  0
   49.2883    8.1270   14.9596 N   0  0  0  0  0  0  0  0  0  0  0  0
   48.1588    7.8272   14.0719 C   0  0  0  0  0  0  0  0  0  0  0  0
   48.0189    8.6651   12.7788 C   0  0  1  0  0  0  0  0  0  0  0  0
   47.2983   10.0067   12.9874 C   0  0  0  0  0  0  0  0  0  0  0  0
   49.3197    8.8584   12.2011 O   0  0  0  0  0  0  0  0  0  0  0  0
   46.5122   10.3342   11.8303 O   0  0  0  0  0  0  0  0  0  0  0  0
   46.9625   11.3041   10.9818 C   0  0  0  0  0  0  0  0  0  0  0  0
   48.2883   11.7140   10.8373 C   0  0  0  0  0  0  0  0  0  0  0  0
   45.9799   11.8749   10.1697 C   0  0  0  0  0  0  0  0  0  0  0  0
   48.6243   12.7148    9.9179 C   0  0  0  0  0  0  0  0  0  0  0  0
   46.3078   12.8715    9.2479 C   0  0  0  0  0  0  0  0  0  0  0  0
   47.6271   13.2878    9.1336 C   0  0  0  0  0  0  0  0  0  0  0  0
   47.9114   14.2652    8.2256 O   0  0  0  0  0  0  0  0  0  0  0  0
   49.1320    6.2660   19.8260 N   0  0  0  0  0  0  0  0  0  0  0  0
   49.7601    6.6591   18.6609 C   0  0  0  0  0  0  0  0  0  0  0  0
   47.6936    6.0378   19.9964 C   0  0  0  0  0  0  0  0  0  0  0  0
   49.9635    5.8487   20.9620 C   0  0  0  0  0  0  0  0  0  0  0  0
   48.9159    7.0308   17.6422 N   0  0  0  0  0  0  0  0  0  0  0  0
   50.9822    6.6766   18.5356 O   0  0  0  0  0  0  0  0  0  0  0  0
   47.3096    6.0617   21.4762 C   0  0  0  0  0  0  0  0  0  0  0  0
   49.2925    4.7293   21.7630 C   0  0  0  0  0  0  0  0  0  0  0  0
   49.4940    7.5281   16.4018 C   0  0  0  0  0  0  0  0  0  0  0  0
   47.9887    5.0683   22.2565 O   0  0  0  0  0  0  0  0  0  0  0  0
   48.4263    7.7434   15.3180 C   0  0  0  0  0  0  0  0  0  0  0  0
   49.0033    8.3485   14.1140 N   0  0  0  0  0  0  0  0  0  0  0  0
   47.9776    8.6271   13.1020 C   0  0  0  0  0  0  0  0  0  0  0  0
   48.5924    9.0668   11.7588 C   0  0  1  0  0  0  0  0  0  0  0  0
   49.5051   10.2959   11.8975 C   0  0  0  0  0  0  0  0  0  0  0  0
   49.3490    7.9694   11.2189 O   0  0  0  0  0  0  0  0  0  0  0  0
   49.6773   10.9402   10.6272 O   0  0  0  0  0  0  0  0  0  0  0  0
   48.7465   11.8481   10.2087 C   0  0  0  0  0  0  0  0  0  0  0  0
   47.6550   12.3238   10.9406 C   0  0  0  0  0  0  0  0  0  0  0  0
   48.9522   12.3225    8.9084 C   0  0  0  0  0  0  0  0  0  0  0  0
   46.7859   13.2675   10.3772 C   0  0  0  0  0  0  0  0  0  0  0  0
   48.0829   13.2568    8.3421 C   0  0  0  0  0  0  0  0  0  0  0  0
   47.0077   13.7267    9.0825 C   0  0  0  0  0  0  0  0  0  0  0  0
   46.1860   14.6450    8.4993 O   0  0  0  0  0  0  0  0  0  0  0  0
   48.4939    8.8882   14.4242 C   0  0  0  0  0  0  0  0  0  0  0  0
   48.9093    8.7427   15.6884 C   0  0  0  0  0  0  0  0  0  0  0  0
   48.7913    7.4316   16.3286 C   0  0  0  0  0  0  0  0  0  0  0  0
   49.2612    7.4828   17.5835 O   0  0  0  0  0  0  0  0  0  0  0  0
   48.3383    6.4129   15.8442 O   0  0  0  0  0  0  0  0  0  0  0  0
   48.6083   10.2015   13.7887 C   0  0  0  0  0  0  0  0  0  0  0  0
   48.1492   10.1452   12.5301 O   0  0  0  0  0  0  0  0  0  0  0  0
   49.0459   11.2222   14.2828 O   0  0  0  0  0  0  0  0  0  0  0  0
   51.2046    7.4992   20.1795 H   0  0  0  0  0  0  0  0  0  0  0  0
   49.8965    7.1687   21.3302 H   0  0  0  0  0  0  0  0  0  0  0  0
   48.9018    5.2361   18.3124 H   0  0  0  0  0  0  0  0  0  0  0  0
   47.4644    6.1104   18.9129 H   0  0  0  0  0  0  0  0  0  0  0  0
   48.2698    7.3043   17.1627 H   0  0  0  0  0  0  0  0  0  0  0  0
   51.3190    5.0652   19.5898 H   0  0  0  0  0  0  0  0  0  0  0  0
   51.5676    5.2979   21.3233 H   0  0  0  0  0  0  0  0  0  0  0  0
   47.8411    4.0324   20.2500 H   0  0  0  0  0  0  0  0  0  0  0  0
   48.0533    5.4629   21.2628 H   0  0  0  0  0  0  0  0  0  0  0  0
   48.1894   10.2427   17.4479 H   0  0  0  0  0  0  0  0  0  0  0  0
   47.1271    9.2889   16.3927 H   0  0  0  0  0  0  0  0  0  0  0  0
   50.1832    9.4938   16.2331 H   0  0  0  0  0  0  0  0  0  0  0  0
   49.0813   10.2389   15.0998 H   0  0  0  0  0  0  0  0  0  0  0  0
   50.1631    8.0784   14.4377 H   0  0  0  0  0  0  0  0  0  0  0  0
   47.2156    7.7944   14.6266 H   0  0  0  0  0  0  0  0  0  0  0  0
   48.3303    6.7916   13.7498 H   0  0  0  0  0  0  0  0  0  0  0  0
   47.4512    8.0718   12.0538 H   0  0  0  0  0  0  0  0  0  0  0  0
   46.5665    9.9086   13.7979 H   0  0  0  0  0  0  0  0  0  0  0  0
   47.9772   10.8192   13.2663 H   0  0  0  0  0  0  0  0  0  0  0  0
   49.8424    9.3607   12.8489 H   0  0  0  0  0  0  0  0  0  0  0  0
   49.0899   11.2598   11.4079 H   0  0  0  0  0  0  0  0  0  0  0  0
   44.9477   11.5483   10.2580 H   0  0  0  0  0  0  0  0  0  0  0  0
   49.6616   13.0185    9.8228 H   0  0  0  0  0  0  0  0  0  0  0  0
   45.5375   13.3108    8.6226 H   0  0  0  0  0  0  0  0  0  0  0  0
   48.8662   14.4384    8.2464 H   0  0  0  0  0  0  0  0  0  0  0  0
   47.1106    6.7837   19.4502 H   0  0  0  0  0  0  0  0  0  0  0  0
   47.4777    5.0515   19.5605 H   0  0  0  0  0  0  0  0  0  0  0  0
   50.9530    5.5295   20.6275 H   0  0  0  0  0  0  0  0  0  0  0  0
   50.0871    6.7369   21.5912 H   0  0  0  0  0  0  0  0  0  0  0  0
   48.1218    7.5579   17.9657 H   0  0  0  0  0  0  0  0  0  0  0  0
   47.5392    7.0428   21.9090 H   0  0  0  0  0  0  0  0  0  0  0  0
   46.2341    5.8919   21.5932 H   0  0  0  0  0  0  0  0  0  0  0  0
   49.1842    3.8325   21.1459 H   0  0  0  0  0  0  0  0  0  0  0  0
   49.9111    4.4612   22.6260 H   0  0  0  0  0  0  0  0  0  0  0  0
   50.2535    6.8139   16.0587 H   0  0  0  0  0  0  0  0  0  0  0  0
   49.9970    8.4762   16.6317 H   0  0  0  0  0  0  0  0  0  0  0  0
   47.9583    6.7797   15.0790 H   0  0  0  0  0  0  0  0  0  0  0  0
   47.6444    8.3986   15.7210 H   0  0  0  0  0  0  0  0  0  0  0  0
   49.6975    7.7160   13.7050 H   0  0  0  0  0  0  0  0  0  0  0  0
   47.3840    7.7205   12.9262 H   0  0  0  0  0  0  0  0  0  0  0  0
   47.3068    9.4132   13.4665 H   0  0  0  0  0  0  0  0  0  0  0  0
   47.7856    9.2703   11.0456 H   0  0  0  0  0  0  0  0  0  0  0  0
   49.1660   11.0055   12.6592 H   0  0  0  0  0  0  0  0  0  0  0  0
   50.5089    9.9738   12.1985 H   0  0  0  0  0  0  0  0  0  0  0  0
   48.7151    7.3558   10.8110 H   0  0  0  0  0  0  0  0  0  0  0  0
   47.4524   11.9920   11.9532 H   0  0  0  0  0  0  0  0  0  0  0  0
   49.7975   11.9567    8.3308 H   0  0  0  0  0  0  0  0  0  0  0  0
   45.9451   13.6304   10.9620 H   0  0  0  0  0  0  0  0  0  0  0  0
   48.2470   13.6155    7.3318 H   0  0  0  0  0  0  0  0  0  0  0  0
   45.5483   14.9559    9.1612 H   0  0  0  0  0  0  0  0  0  0  0  0
   48.0690    8.0771   13.8457 H   0  0  0  0  0  0  0  0  0  0  0  0
   49.3342    9.5529   16.2697 H   0  0  0  0  0  0  0  0  0  0  0  0
   49.1359    6.5724   17.9245 H   0  0  0  0  0  0  0  0  0  0  0  0
   48.2549   11.0598   12.1932 H   0  0  0  0  0  0  0  0  0  0  0  0
  3  7  1  0
  4  8  1  0
  5  9  1  0
  7 10  1  0
  9 11  1  0
 11 12  1  0
 12 13  1  0
 13 14  1  0
 14 15  1  0
 14 16  1  0
 15 17  1  0
 17 18  1  0
 18 19  2  0
 18 20  1  0
 19 21  1  0
 20 22  2  0
 21 23  2  0
 23 24  1  0
  8 10  1  0
 22 23  1  0
  1  2  1  0
  1  3  1  0
  1  4  1  0
  2  5  1  0
  2  6  2  0
 27 31  1  0
 28 32  1  0
 29 33  1  0
 31 34  1  0
 33 35  1  0
 35 36  1  0
 36 37  1  0
 37 38  1  0
 38 39  1  0
 38 40  1  0
 39 41  1  0
 41 42  1  0
 42 43  2  0
 42 44  1  0
 43 45  1  0
 44 46  2  0
 45 47  2  0
 47 48  1  0
 32 34  1  0
 46 47  1  0
 25 26  1  0
 25 27  1  0
 25 28  1  0
 26 29  1  0
 26 30  2  0
 49 50  2  0
 49 54  1  0
 50 51  1  0
 51 52  1  0
 51 53  2  0
 54 55  1  0
 54 56  2  0
  3 57  1  0
  3 58  1  0
  4 59  1  0
  4 60  1  0
  5 61  1  0
  7 62  1  0
  7 63  1  0
  8 64  1  0
  8 65  1  0
  9 66  1  0
  9 67  1  0
 11 68  1  0
 11 69  1  0
 12 70  1  0
 13 71  1  0
 13 72  1  0
 14 73  1  6
 15 74  1  0
 15 75  1  0
 16 76  1  0
 19 77  1  0
 20 78  1  0
 21 79  1  0
 22 80  1  0
 24 81  1  0
 27 82  1  0
 27 83  1  0
 28 84  1  0
 28 85  1  0
 29 86  1  0
 31 87  1  0
 31 88  1  0
 32 89  1  0
 32 90  1  0
 33 91  1  0
 33 92  1  0
 35 93  1  0
 35 94  1  0
 36 95  1  0
 37 96  1  0
 37 97  1  0
 38 98  1  6
 39 99  1  0
 39100  1  0
 40101  1  0
 43102  1  0
 44103  1  0
 45104  1  0
 46105  1  0
 48106  1  0
 49107  1  0
 50108  1  0
 52109  1  0
 55110  1  0
M  END
> <Uni-Dock RESULT> 
ENERGY=   -4.773  LOWER_BOUND=    4.379  UPPER_BOUND=    6.330
INTER + INTRA:          -4.773
INTER:                  -4.773
INTRA:                   0.000
UNBOUND:                 0.000

$$$$
