
     RDKit          3D

110111  0  0  0  0  0  0  0  0999 V2000
   50.5129   14.1718   15.0034 N   0  0  0  0  0  0  0  0  0  0  0  0
   50.2830   12.9053   15.4954 C   0  0  0  0  0  0  0  0  0  0  0  0
   49.9424   15.3284   15.6943 C   0  0  0  0  0  0  0  0  0  0  0  0
   51.3782   14.5235   13.8721 C   0  0  0  0  0  0  0  0  0  0  0  0
   50.7558   11.8875   14.7070 N   0  0  0  0  0  0  0  0  0  0  0  0
   49.7043   12.6948   16.5584 O   0  0  0  0  0  0  0  0  0  0  0  0
   51.0368   16.3343   16.0567 C   0  0  0  0  0  0  0  0  0  0  0  0
   52.4126   15.5751   14.2940 C   0  0  0  0  0  0  0  0  0  0  0  0
   50.4733   10.5082   15.0687 C   0  0  0  0  0  0  0  0  0  0  0  0
   51.7848   16.7205   14.8905 O   0  0  0  0  0  0  0  0  0  0  0  0
   49.0676   10.0880   14.6060 C   0  0  0  0  0  0  0  0  0  0  0  0
   48.9450   10.2360   13.1443 N   0  0  0  0  0  0  0  0  0  0  0  0
   47.5511   10.1211   12.6807 C   0  0  0  0  0  0  0  0  0  0  0  0
   46.9370    8.7186   12.8528 C   0  0  1  0  0  0  0  0  0  0  0  0
   45.5482    8.6538   12.2015 C   0  0  0  0  0  0  0  0  0  0  0  0
   47.8163    7.7620   12.2396 O   0  0  0  0  0  0  0  0  0  0  0  0
   44.7816    7.5845   12.7663 O   0  0  0  0  0  0  0  0  0  0  0  0
   44.7266    6.3816   12.1252 C   0  0  0  0  0  0  0  0  0  0  0  0
   45.4947    5.9831   11.0305 C   0  0  0  0  0  0  0  0  0  0  0  0
   43.8044    5.4835   12.6720 C   0  0  0  0  0  0  0  0  0  0  0  0
   45.3350    4.7041   10.4833 C   0  0  0  0  0  0  0  0  0  0  0  0
   43.6391    4.2094   12.1268 C   0  0  0  0  0  0  0  0  0  0  0  0
   44.4068    3.8278   11.0360 C   0  0  0  0  0  0  0  0  0  0  0  0
   44.2239    2.5734   10.5344 O   0  0  0  0  0  0  0  0  0  0  0  0
   50.6259   14.9063   15.0164 N   0  0  0  0  0  0  0  0  0  0  0  0
   50.6756   14.2123   13.8224 C   0  0  0  0  0  0  0  0  0  0  0  0
   49.9870   14.4259   16.2462 C   0  0  0  0  0  0  0  0  0  0  0  0
   51.5030   16.0668   15.1916 C   0  0  0  0  0  0  0  0  0  0  0  0
   49.9266   13.0634   13.7908 N   0  0  0  0  0  0  0  0  0  0  0  0
   51.3578   14.5736   12.8678 O   0  0  0  0  0  0  0  0  0  0  0  0
   49.9983   15.4919   17.3466 C   0  0  0  0  0  0  0  0  0  0  0  0
   52.2101   15.9988   16.5474 C   0  0  0  0  0  0  0  0  0  0  0  0
   49.8613   12.2838   12.5663 C   0  0  0  0  0  0  0  0  0  0  0  0
   51.3132   15.9593   17.6701 O   0  0  0  0  0  0  0  0  0  0  0  0
   49.3198   10.8677   12.8200 C   0  0  0  0  0  0  0  0  0  0  0  0
   49.1833   10.1221   11.5632 N   0  0  0  0  0  0  0  0  0  0  0  0
   48.8852    8.6934   11.7765 C   0  0  0  0  0  0  0  0  0  0  0  0
   47.5605    8.3939   12.5098 C   0  0  1  0  0  0  0  0  0  0  0  0
   47.1127    6.9453   12.2562 C   0  0  0  0  0  0  0  0  0  0  0  0
   47.7341    8.5699   13.9270 O   0  0  0  0  0  0  0  0  0  0  0  0
   45.8442    6.7653   12.9058 O   0  0  0  0  0  0  0  0  0  0  0  0
   45.1556    5.6292   12.5797 C   0  0  0  0  0  0  0  0  0  0  0  0
   45.7121    4.4765   12.0227 C   0  0  0  0  0  0  0  0  0  0  0  0
   43.7870    5.6634   12.8683 C   0  0  0  0  0  0  0  0  0  0  0  0
   44.8974    3.3777   11.7357 C   0  0  0  0  0  0  0  0  0  0  0  0
   42.9712    4.5664   12.5788 C   0  0  0  0  0  0  0  0  0  0  0  0
   43.5361    3.4305   12.0102 C   0  0  0  0  0  0  0  0  0  0  0  0
   42.7839    2.3361   11.7037 O   0  0  0  0  0  0  0  0  0  0  0  0
   47.9018   10.8671   13.6058 C   0  0  0  0  0  0  0  0  0  0  0  0
   48.3458    9.6100   13.4834 C   0  0  0  0  0  0  0  0  0  0  0  0
   47.4069    8.5613   13.0822 C   0  0  0  0  0  0  0  0  0  0  0  0
   48.0309    7.3751   13.0382 O   0  0  0  0  0  0  0  0  0  0  0  0
   46.2287    8.6917   12.8164 O   0  0  0  0  0  0  0  0  0  0  0  0
   48.8391   11.9185   14.0017 C   0  0  0  0  0  0  0  0  0  0  0  0
   48.2049   13.0961   14.0936 O   0  0  0  0  0  0  0  0  0  0  0  0
   50.0285   11.7979   14.2239 O   0  0  0  0  0  0  0  0  0  0  0  0
   49.3876   15.0336   16.5891 H   0  0  0  0  0  0  0  0  0  0  0  0
   49.2361   15.7876   14.9924 H   0  0  0  0  0  0  0  0  0  0  0  0
   50.7230   14.9362   13.0961 H   0  0  0  0  0  0  0  0  0  0  0  0
   51.8964   13.6533   13.4614 H   0  0  0  0  0  0  0  0  0  0  0  0
   50.6132   12.0544   13.7210 H   0  0  0  0  0  0  0  0  0  0  0  0
   50.5920   17.2397   16.4814 H   0  0  0  0  0  0  0  0  0  0  0  0
   51.7297   15.9206   16.7980 H   0  0  0  0  0  0  0  0  0  0  0  0
   52.9735   15.9197   13.4196 H   0  0  0  0  0  0  0  0  0  0  0  0
   53.1297   15.1557   15.0091 H   0  0  0  0  0  0  0  0  0  0  0  0
   50.5678   10.3829   16.1530 H   0  0  0  0  0  0  0  0  0  0  0  0
   51.2347    9.8871   14.5850 H   0  0  0  0  0  0  0  0  0  0  0  0
   48.8914    9.0490   14.9024 H   0  0  0  0  0  0  0  0  0  0  0  0
   48.3214   10.7128   15.1087 H   0  0  0  0  0  0  0  0  0  0  0  0
   49.4883    9.5010   12.6847 H   0  0  0  0  0  0  0  0  0  0  0  0
   47.5630   10.3714   11.6130 H   0  0  0  0  0  0  0  0  0  0  0  0
   46.9289   10.8786   13.1733 H   0  0  0  0  0  0  0  0  0  0  0  0
   46.8511    8.4623   13.9156 H   0  0  0  0  0  0  0  0  0  0  0  0
   45.5921    8.6094   11.1079 H   0  0  0  0  0  0  0  0  0  0  0  0
   44.9937    9.5654   12.4523 H   0  0  0  0  0  0  0  0  0  0  0  0
   48.2749    7.3007   12.9648 H   0  0  0  0  0  0  0  0  0  0  0  0
   46.2401    6.6340   10.5855 H   0  0  0  0  0  0  0  0  0  0  0  0
   43.2037    5.7814   13.5279 H   0  0  0  0  0  0  0  0  0  0  0  0
   45.9464    4.4148    9.6347 H   0  0  0  0  0  0  0  0  0  0  0  0
   42.9160    3.5212   12.5534 H   0  0  0  0  0  0  0  0  0  0  0  0
   44.8164    2.4560    9.7740 H   0  0  0  0  0  0  0  0  0  0  0  0
   48.9568   14.1283   16.0338 H   0  0  0  0  0  0  0  0  0  0  0  0
   50.5479   13.5422   16.5715 H   0  0  0  0  0  0  0  0  0  0  0  0
   50.8612   16.9542   15.1458 H   0  0  0  0  0  0  0  0  0  0  0  0
   52.2397   16.1380   14.3850 H   0  0  0  0  0  0  0  0  0  0  0  0
   49.0598   13.1168   14.3001 H   0  0  0  0  0  0  0  0  0  0  0  0
   49.5574   15.0908   18.2635 H   0  0  0  0  0  0  0  0  0  0  0  0
   49.3999   16.3604   17.0485 H   0  0  0  0  0  0  0  0  0  0  0  0
   52.8639   16.8661   16.6777 H   0  0  0  0  0  0  0  0  0  0  0  0
   52.8393   15.1031   16.6030 H   0  0  0  0  0  0  0  0  0  0  0  0
   50.8636   12.2318   12.1231 H   0  0  0  0  0  0  0  0  0  0  0  0
   49.2140   12.8294   11.8672 H   0  0  0  0  0  0  0  0  0  0  0  0
   49.9986   10.3490   13.5081 H   0  0  0  0  0  0  0  0  0  0  0  0
   48.3438   10.9586   13.3085 H   0  0  0  0  0  0  0  0  0  0  0  0
   50.0614   10.1909   11.0459 H   0  0  0  0  0  0  0  0  0  0  0  0
   49.7253    8.2274   12.3068 H   0  0  0  0  0  0  0  0  0  0  0  0
   48.8428    8.2450   10.7772 H   0  0  0  0  0  0  0  0  0  0  0  0
   46.7694    9.0834   12.1898 H   0  0  0  0  0  0  0  0  0  0  0  0
   47.8368    6.2509   12.6976 H   0  0  0  0  0  0  0  0  0  0  0  0
   47.0150    6.7725   11.1778 H   0  0  0  0  0  0  0  0  0  0  0  0
   46.9229    8.2161   14.3387 H   0  0  0  0  0  0  0  0  0  0  0  0
   46.7738    4.3953   11.8146 H   0  0  0  0  0  0  0  0  0  0  0  0
   43.3503    6.5567   13.3075 H   0  0  0  0  0  0  0  0  0  0  0  0
   45.3256    2.4801   11.2986 H   0  0  0  0  0  0  0  0  0  0  0  0
   41.9103    4.6186   12.8031 H   0  0  0  0  0  0  0  0  0  0  0  0
   41.8601    2.5179   11.9420 H   0  0  0  0  0  0  0  0  0  0  0  0
   46.8719   11.1496   13.4249 H   0  0  0  0  0  0  0  0  0  0  0  0
   49.3754    9.3270   13.6680 H   0  0  0  0  0  0  0  0  0  0  0  0
   47.3310    6.7453   12.7681 H   0  0  0  0  0  0  0  0  0  0  0  0
   48.9058   13.7251   14.3652 H   0  0  0  0  0  0  0  0  0  0  0  0
  3  7  1  0
  4  8  1  0
  5  9  1  0
  7 10  1  0
  9 11  1  0
 11 12  1  0
 12 13  1  0
 13 14  1  0
 14 15  1  0
 14 16  1  0
 15 17  1  0
 17 18  1  0
 18 19  2  0
 18 20  1  0
 19 21  1  0
 20 22  2  0
 21 23  2  0
 23 24  1  0
  8 10  1  0
 22 23  1  0
  1  2  1  0
  1  3  1  0
  1  4  1  0
  2  5  1  0
  2  6  2  0
 27 31  1  0
 28 32  1  0
 29 33  1  0
 31 34  1  0
 33 35  1  0
 35 36  1  0
 36 37  1  0
 37 38  1  0
 38 39  1  0
 38 40  1  0
 39 41  1  0
 41 42  1  0
 42 43  2  0
 42 44  1  0
 43 45  1  0
 44 46  2  0
 45 47  2  0
 47 48  1  0
 32 34  1  0
 46 47  1  0
 25 26  1  0
 25 27  1  0
 25 28  1  0
 26 29  1  0
 26 30  2  0
 49 50  2  0
 49 54  1  0
 50 51  1  0
 51 52  1  0
 51 53  2  0
 54 55  1  0
 54 56  2  0
  3 57  1  0
  3 58  1  0
  4 59  1  0
  4 60  1  0
  5 61  1  0
  7 62  1  0
  7 63  1  0
  8 64  1  0
  8 65  1  0
  9 66  1  0
  9 67  1  0
 11 68  1  0
 11 69  1  0
 12 70  1  0
 13 71  1  0
 13 72  1  0
 14 73  1  6
 15 74  1  0
 15 75  1  0
 16 76  1  0
 19 77  1  0
 20 78  1  0
 21 79  1  0
 22 80  1  0
 24 81  1  0
 27 82  1  0
 27 83  1  0
 28 84  1  0
 28 85  1  0
 29 86  1  0
 31 87  1  0
 31 88  1  0
 32 89  1  0
 32 90  1  0
 33 91  1  0
 33 92  1  0
 35 93  1  0
 35 94  1  0
 36 95  1  0
 37 96  1  0
 37 97  1  0
 38 98  1  6
 39 99  1  0
 39100  1  0
 40101  1  0
 43102  1  0
 44103  1  0
 45104  1  0
 46105  1  0
 48106  1  0
 49107  1  0
 50108  1  0
 52109  1  0
 55110  1  0
M  END
> <Uni-Dock RESULT> 
ENERGY=   -5.864  LOWER_BOUND=    0.000  UPPER_BOUND=    0.000
INTER + INTRA:          -5.864
INTER:                  -5.864
INTRA:                   0.000
UNBOUND:                 0.000

$$$$

     RDKit          3D

110111  0  0  0  0  0  0  0  0999 V2000
   51.2129   14.6423   12.5118 N   0  0  0  0  0  0  0  0  0  0  0  0
   49.8926   14.3137   12.2937 C   0  0  0  0  0  0  0  0  0  0  0  0
   52.0170   15.1683   11.4085 C   0  0  0  0  0  0  0  0  0  0  0  0
   51.9165   14.6153   13.7989 C   0  0  0  0  0  0  0  0  0  0  0  0
   49.2658   13.7150   13.3565 N   0  0  0  0  0  0  0  0  0  0  0  0
   49.3127   14.5394   11.2344 O   0  0  0  0  0  0  0  0  0  0  0  0
   52.6399   16.5132   11.7882 C   0  0  0  0  0  0  0  0  0  0  0  0
   52.5616   15.9773   14.0867 C   0  0  0  0  0  0  0  0  0  0  0  0
   47.9062   13.2236   13.2047 C   0  0  0  0  0  0  0  0  0  0  0  0
   53.4026   16.4004   13.0024 O   0  0  0  0  0  0  0  0  0  0  0  0
   47.8862   11.8394   12.5336 C   0  0  0  0  0  0  0  0  0  0  0  0
   48.6599   10.8723   13.3331 N   0  0  0  0  0  0  0  0  0  0  0  0
   48.9126    9.6149   12.6077 C   0  0  0  0  0  0  0  0  0  0  0  0
   47.6508    8.7746   12.3325 C   0  0  1  0  0  0  0  0  0  0  0  0
   48.0284    7.4189   11.7189 C   0  0  0  0  0  0  0  0  0  0  0  0
   46.9579    8.5794   13.5760 O   0  0  0  0  0  0  0  0  0  0  0  0
   46.9139    6.8632   11.0126 O   0  0  0  0  0  0  0  0  0  0  0  0
   46.1171    5.9416   11.6266 C   0  0  0  0  0  0  0  0  0  0  0  0
   46.1436    5.5808   12.9743 C   0  0  0  0  0  0  0  0  0  0  0  0
   45.1812    5.3394   10.7796 C   0  0  0  0  0  0  0  0  0  0  0  0
   45.2502    4.6216   13.4668 C   0  0  0  0  0  0  0  0  0  0  0  0
   44.2920    4.3797   11.2656 C   0  0  0  0  0  0  0  0  0  0  0  0
   44.3319    4.0279   12.6070 C   0  0  0  0  0  0  0  0  0  0  0  0
   43.4437    3.0925   13.0482 O   0  0  0  0  0  0  0  0  0  0  0  0
   51.8529   15.0123   12.4350 N   0  0  0  0  0  0  0  0  0  0  0  0
   51.7379   14.0013   13.3700 C   0  0  0  0  0  0  0  0  0  0  0  0
   50.9663   15.2007   11.2818 C   0  0  0  0  0  0  0  0  0  0  0  0
   52.7192   16.1544   12.7381 C   0  0  0  0  0  0  0  0  0  0  0  0
   50.8060   13.0404   13.0697 N   0  0  0  0  0  0  0  0  0  0  0  0
   52.3948   13.9725   14.4068 O   0  0  0  0  0  0  0  0  0  0  0  0
   51.4481   16.3370   10.3739 C   0  0  0  0  0  0  0  0  0  0  0  0
   51.9969   17.4672   12.4255 C   0  0  0  0  0  0  0  0  0  0  0  0
   50.6403   11.9008   13.9558 C   0  0  0  0  0  0  0  0  0  0  0  0
   51.5803   17.5902   11.0551 O   0  0  0  0  0  0  0  0  0  0  0  0
   49.3232   11.1555   13.6861 C   0  0  0  0  0  0  0  0  0  0  0  0
   49.2098    9.9617   14.5323 N   0  0  0  0  0  0  0  0  0  0  0  0
   47.8714    9.3448   14.4728 C   0  0  0  0  0  0  0  0  0  0  0  0
   47.4370    8.8340   13.0826 C   0  0  1  0  0  0  0  0  0  0  0  0
   46.2980    7.8095   13.2098 C   0  0  0  0  0  0  0  0  0  0  0  0
   46.9670    9.9327   12.2816 O   0  0  0  0  0  0  0  0  0  0  0  0
   46.0004    7.3283   11.8896 O   0  0  0  0  0  0  0  0  0  0  0  0
   45.1996    6.2216   11.8174 C   0  0  0  0  0  0  0  0  0  0  0  0
   44.3431    5.7744   12.8249 C   0  0  0  0  0  0  0  0  0  0  0  0
   45.2601    5.5253   10.6053 C   0  0  0  0  0  0  0  0  0  0  0  0
   43.5732    4.6251   12.6262 C   0  0  0  0  0  0  0  0  0  0  0  0
   44.4929    4.3743   10.4069 C   0  0  0  0  0  0  0  0  0  0  0  0
   43.6555    3.9317   11.4245 C   0  0  0  0  0  0  0  0  0  0  0  0
   42.8908    2.8125   11.2838 O   0  0  0  0  0  0  0  0  0  0  0  0
   49.1447   10.7347   12.1308 C   0  0  0  0  0  0  0  0  0  0  0  0
   48.0207   10.4539   12.8018 C   0  0  0  0  0  0  0  0  0  0  0  0
   47.3587    9.1690   12.5718 C   0  0  0  0  0  0  0  0  0  0  0  0
   46.2443    9.0845   13.3132 O   0  0  0  0  0  0  0  0  0  0  0  0
   47.7219    8.2768   11.8317 O   0  0  0  0  0  0  0  0  0  0  0  0
   49.8117   12.0162   12.3624 C   0  0  0  0  0  0  0  0  0  0  0  0
   50.8988   12.1216   11.5850 O   0  0  0  0  0  0  0  0  0  0  0  0
   49.4746   12.8914   13.1363 O   0  0  0  0  0  0  0  0  0  0  0  0
   51.4311   15.2679   10.4908 H   0  0  0  0  0  0  0  0  0  0  0  0
   52.8092   14.4320   11.2277 H   0  0  0  0  0  0  0  0  0  0  0  0
   52.6930   13.8464   13.7127 H   0  0  0  0  0  0  0  0  0  0  0  0
   51.2547   14.3484   14.6267 H   0  0  0  0  0  0  0  0  0  0  0  0
   49.8546   13.0496   13.8371 H   0  0  0  0  0  0  0  0  0  0  0  0
   53.3190   16.8511   10.9991 H   0  0  0  0  0  0  0  0  0  0  0  0
   51.8731   17.2840   11.9247 H   0  0  0  0  0  0  0  0  0  0  0  0
   53.1828   15.9144   14.9856 H   0  0  0  0  0  0  0  0  0  0  0  0
   51.7982   16.7448   14.2589 H   0  0  0  0  0  0  0  0  0  0  0  0
   47.3179   13.9372   12.6174 H   0  0  0  0  0  0  0  0  0  0  0  0
   47.4716   13.1662   14.2084 H   0  0  0  0  0  0  0  0  0  0  0  0
   46.8476   11.5087   12.4315 H   0  0  0  0  0  0  0  0  0  0  0  0
   48.3142   11.9205   11.5284 H   0  0  0  0  0  0  0  0  0  0  0  0
   48.1375   10.6431   14.1823 H   0  0  0  0  0  0  0  0  0  0  0  0
   49.5939    9.0305   13.2380 H   0  0  0  0  0  0  0  0  0  0  0  0
   49.4499    9.8225   11.6741 H   0  0  0  0  0  0  0  0  0  0  0  0
   46.9746    9.3050   11.6513 H   0  0  0  0  0  0  0  0  0  0  0  0
   48.4531    6.7234   12.4509 H   0  0  0  0  0  0  0  0  0  0  0  0
   48.8000    7.5750   10.9562 H   0  0  0  0  0  0  0  0  0  0  0  0
   46.1817    9.1677   13.5574 H   0  0  0  0  0  0  0  0  0  0  0  0
   46.8342    6.0363   13.6765 H   0  0  0  0  0  0  0  0  0  0  0  0
   45.1482    5.6160    9.7287 H   0  0  0  0  0  0  0  0  0  0  0  0
   45.2865    4.3601   14.5193 H   0  0  0  0  0  0  0  0  0  0  0  0
   43.5734    3.9124   10.5995 H   0  0  0  0  0  0  0  0  0  0  0  0
   43.5983    2.9430   13.9952 H   0  0  0  0  0  0  0  0  0  0  0  0
   50.9065   14.2723   10.7078 H   0  0  0  0  0  0  0  0  0  0  0  0
   49.9717   15.4321   11.6800 H   0  0  0  0  0  0  0  0  0  0  0  0
   53.6062   16.0522   12.1023 H   0  0  0  0  0  0  0  0  0  0  0  0
   53.0465   16.1434   13.7826 H   0  0  0  0  0  0  0  0  0  0  0  0
   50.7327   12.8229   12.0893 H   0  0  0  0  0  0  0  0  0  0  0  0
   50.7445   16.4838    9.5496 H   0  0  0  0  0  0  0  0  0  0  0  0
   52.4216   16.0926    9.9336 H   0  0  0  0  0  0  0  0  0  0  0  0
   52.6448   18.3192   12.6511 H   0  0  0  0  0  0  0  0  0  0  0  0
   51.0996   17.5643   13.0474 H   0  0  0  0  0  0  0  0  0  0  0  0
   50.6714   12.2503   14.9953 H   0  0  0  0  0  0  0  0  0  0  0  0
   51.5020   11.2387   13.7992 H   0  0  0  0  0  0  0  0  0  0  0  0
   48.4867   11.8416   13.8676 H   0  0  0  0  0  0  0  0  0  0  0  0
   49.3046   10.8678   12.6296 H   0  0  0  0  0  0  0  0  0  0  0  0
   49.3949   10.2293   15.5007 H   0  0  0  0  0  0  0  0  0  0  0  0
   47.1318   10.0552   14.8633 H   0  0  0  0  0  0  0  0  0  0  0  0
   47.9032    8.4955   15.1650 H   0  0  0  0  0  0  0  0  0  0  0  0
   48.2811    8.3793   12.5495 H   0  0  0  0  0  0  0  0  0  0  0  0
   45.4048    8.2969   13.6173 H   0  0  0  0  0  0  0  0  0  0  0  0
   46.6170    6.9808   13.8531 H   0  0  0  0  0  0  0  0  0  0  0  0
   46.5643    9.5290   11.4894 H   0  0  0  0  0  0  0  0  0  0  0  0
   44.2404    6.3033   13.7667 H   0  0  0  0  0  0  0  0  0  0  0  0
   45.9212    5.8732    9.8156 H   0  0  0  0  0  0  0  0  0  0  0  0
   42.9082    4.2713   13.4090 H   0  0  0  0  0  0  0  0  0  0  0  0
   44.5627    3.8451    9.4616 H   0  0  0  0  0  0  0  0  0  0  0  0
   43.0553    2.4328   10.4052 H   0  0  0  0  0  0  0  0  0  0  0  0
   49.5912   10.0540   11.4162 H   0  0  0  0  0  0  0  0  0  0  0  0
   47.5722   11.1366   13.5139 H   0  0  0  0  0  0  0  0  0  0  0  0
   45.8745    8.2050   13.0918 H   0  0  0  0  0  0  0  0  0  0  0  0
   51.2671   13.0024   11.8064 H   0  0  0  0  0  0  0  0  0  0  0  0
  3  7  1  0
  4  8  1  0
  5  9  1  0
  7 10  1  0
  9 11  1  0
 11 12  1  0
 12 13  1  0
 13 14  1  0
 14 15  1  0
 14 16  1  0
 15 17  1  0
 17 18  1  0
 18 19  2  0
 18 20  1  0
 19 21  1  0
 20 22  2  0
 21 23  2  0
 23 24  1  0
  8 10  1  0
 22 23  1  0
  1  2  1  0
  1  3  1  0
  1  4  1  0
  2  5  1  0
  2  6  2  0
 27 31  1  0
 28 32  1  0
 29 33  1  0
 31 34  1  0
 33 35  1  0
 35 36  1  0
 36 37  1  0
 37 38  1  0
 38 39  1  0
 38 40  1  0
 39 41  1  0
 41 42  1  0
 42 43  2  0
 42 44  1  0
 43 45  1  0
 44 46  2  0
 45 47  2  0
 47 48  1  0
 32 34  1  0
 46 47  1  0
 25 26  1  0
 25 27  1  0
 25 28  1  0
 26 29  1  0
 26 30  2  0
 49 50  2  0
 49 54  1  0
 50 51  1  0
 51 52  1  0
 51 53  2  0
 54 55  1  0
 54 56  2  0
  3 57  1  0
  3 58  1  0
  4 59  1  0
  4 60  1  0
  5 61  1  0
  7 62  1  0
  7 63  1  0
  8 64  1  0
  8 65  1  0
  9 66  1  0
  9 67  1  0
 11 68  1  0
 11 69  1  0
 12 70  1  0
 13 71  1  0
 13 72  1  0
 14 73  1  6
 15 74  1  0
 15 75  1  0
 16 76  1  0
 19 77  1  0
 20 78  1  0
 21 79  1  0
 22 80  1  0
 24 81  1  0
 27 82  1  0
 27 83  1  0
 28 84  1  0
 28 85  1  0
 29 86  1  0
 31 87  1  0
 31 88  1  0
 32 89  1  0
 32 90  1  0
 33 91  1  0
 33 92  1  0
 35 93  1  0
 35 94  1  0
 36 95  1  0
 37 96  1  0
 37 97  1  0
 38 98  1  6
 39 99  1  0
 39100  1  0
 40101  1  0
 43102  1  0
 44103  1  0
 45104  1  0
 46105  1  0
 48106  1  0
 49107  1  0
 50108  1  0
 52109  1  0
 55110  1  0
M  END
> <Uni-Dock RESULT> 
ENERGY=   -5.712  LOWER_BOUND=    1.645  UPPER_BOUND=    2.824
INTER + INTRA:          -5.712
INTER:                  -5.712
INTRA:                   0.000
UNBOUND:                 0.000

$$$$

     RDKit          3D

110111  0  0  0  0  0  0  0  0999 V2000
   51.1967   14.6473   12.4976 N   0  0  0  0  0  0  0  0  0  0  0  0
   49.8768   14.3166   12.2802 C   0  0  0  0  0  0  0  0  0  0  0  0
   51.9996   15.1732   11.3933 C   0  0  0  0  0  0  0  0  0  0  0  0
   51.9007   14.6230   13.7844 C   0  0  0  0  0  0  0  0  0  0  0  0
   49.2511   13.7183   13.3440 N   0  0  0  0  0  0  0  0  0  0  0  0
   49.2961   14.5402   11.2209 O   0  0  0  0  0  0  0  0  0  0  0  0
   52.6208   16.5194   11.7711 C   0  0  0  0  0  0  0  0  0  0  0  0
   52.5440   15.9862   14.0703 C   0  0  0  0  0  0  0  0  0  0  0  0
   47.8922   13.2248   13.1933 C   0  0  0  0  0  0  0  0  0  0  0  0
   53.3840   16.4092   12.9852 O   0  0  0  0  0  0  0  0  0  0  0  0
   47.8739   11.8398   12.5239 C   0  0  0  0  0  0  0  0  0  0  0  0
   48.6493   10.8747   13.3243 N   0  0  0  0  0  0  0  0  0  0  0  0
   48.9035    9.6168   12.6004 C   0  0  0  0  0  0  0  0  0  0  0  0
   47.6428    8.7744   12.3266 C   0  0  1  0  0  0  0  0  0  0  0  0
   48.0221    7.4185   11.7145 C   0  0  0  0  0  0  0  0  0  0  0  0
   46.9507    8.5797   13.5705 O   0  0  0  0  0  0  0  0  0  0  0  0
   46.9081    6.8603   11.0093 O   0  0  0  0  0  0  0  0  0  0  0  0
   46.1129    5.9383   11.6247 C   0  0  0  0  0  0  0  0  0  0  0  0
   46.1404    5.5793   12.9728 C   0  0  0  0  0  0  0  0  0  0  0  0
   45.1776    5.3338   10.7787 C   0  0  0  0  0  0  0  0  0  0  0  0
   45.2485    4.6193   13.4668 C   0  0  0  0  0  0  0  0  0  0  0  0
   44.2899    4.3734   11.2662 C   0  0  0  0  0  0  0  0  0  0  0  0
   44.3308    4.0233   12.6081 C   0  0  0  0  0  0  0  0  0  0  0  0
   43.4440    3.0872   13.0506 O   0  0  0  0  0  0  0  0  0  0  0  0
   51.8361   15.0182   12.4201 N   0  0  0  0  0  0  0  0  0  0  0  0
   51.7228   14.0082   13.3563 C   0  0  0  0  0  0  0  0  0  0  0  0
   50.9488   15.2039   11.2670 C   0  0  0  0  0  0  0  0  0  0  0  0
   52.7008   16.1619   12.7214 C   0  0  0  0  0  0  0  0  0  0  0  0
   50.7922   13.0455   13.0575 N   0  0  0  0  0  0  0  0  0  0  0  0
   52.3802   13.9815   14.3929 O   0  0  0  0  0  0  0  0  0  0  0  0
   51.4287   16.3397   10.3575 C   0  0  0  0  0  0  0  0  0  0  0  0
   51.9766   17.4733   12.4075 C   0  0  0  0  0  0  0  0  0  0  0  0
   50.6284   11.9068   13.9450 C   0  0  0  0  0  0  0  0  0  0  0  0
   51.5593   17.5940   11.0371 O   0  0  0  0  0  0  0  0  0  0  0  0
   49.3123   11.1593   13.6768 C   0  0  0  0  0  0  0  0  0  0  0  0
   49.2009    9.9664   14.5244 N   0  0  0  0  0  0  0  0  0  0  0  0
   47.8633    9.3475   14.4662 C   0  0  0  0  0  0  0  0  0  0  0  0
   47.4292    8.8344   13.0767 C   0  0  1  0  0  0  0  0  0  0  0  0
   46.2917    7.8085   13.2056 C   0  0  0  0  0  0  0  0  0  0  0  0
   46.9573    9.9314   12.2746 O   0  0  0  0  0  0  0  0  0  0  0  0
   45.9943    7.3252   11.8860 O   0  0  0  0  0  0  0  0  0  0  0  0
   45.1951    6.2172   11.8154 C   0  0  0  0  0  0  0  0  0  0  0  0
   44.3395    5.7701   12.8238 C   0  0  0  0  0  0  0  0  0  0  0  0
   45.2561    5.5196   10.6042 C   0  0  0  0  0  0  0  0  0  0  0  0
   43.5712    4.6194   12.6267 C   0  0  0  0  0  0  0  0  0  0  0  0
   44.4905    4.3673   10.4075 C   0  0  0  0  0  0  0  0  0  0  0  0
   43.6541    3.9248   11.4259 C   0  0  0  0  0  0  0  0  0  0  0  0
   42.8910    2.8042   11.2868 O   0  0  0  0  0  0  0  0  0  0  0  0
   49.1338   10.7364   12.1220 C   0  0  0  0  0  0  0  0  0  0  0  0
   48.0105   10.4548   12.7937 C   0  0  0  0  0  0  0  0  0  0  0  0
   47.3502    9.1686   12.5655 C   0  0  0  0  0  0  0  0  0  0  0  0
   46.2362    9.0835   13.3074 O   0  0  0  0  0  0  0  0  0  0  0  0
   47.7145    8.2761   11.8264 O   0  0  0  0  0  0  0  0  0  0  0  0
   49.7991   12.0191   12.3518 C   0  0  0  0  0  0  0  0  0  0  0  0
   50.8858   12.1251   11.5739 O   0  0  0  0  0  0  0  0  0  0  0  0
   49.4610   12.8948   13.1248 O   0  0  0  0  0  0  0  0  0  0  0  0
   51.4132   15.2708   10.4757 H   0  0  0  0  0  0  0  0  0  0  0  0
   52.7928   14.4377   11.2131 H   0  0  0  0  0  0  0  0  0  0  0  0
   52.6783   13.8550   13.6989 H   0  0  0  0  0  0  0  0  0  0  0  0
   51.2396   14.3561   14.6128 H   0  0  0  0  0  0  0  0  0  0  0  0
   49.8411   13.0544   13.8253 H   0  0  0  0  0  0  0  0  0  0  0  0
   53.2991   16.8573   10.9814 H   0  0  0  0  0  0  0  0  0  0  0  0
   51.8529   17.2893   11.9069 H   0  0  0  0  0  0  0  0  0  0  0  0
   53.1655   15.9253   14.9691 H   0  0  0  0  0  0  0  0  0  0  0  0
   51.7796   16.7528   14.2418 H   0  0  0  0  0  0  0  0  0  0  0  0
   47.3026   13.9369   12.6053 H   0  0  0  0  0  0  0  0  0  0  0  0
   47.4580   13.1680   14.1971 H   0  0  0  0  0  0  0  0  0  0  0  0
   46.8358   11.5074   12.4225 H   0  0  0  0  0  0  0  0  0  0  0  0
   48.3014   11.9202   11.5185 H   0  0  0  0  0  0  0  0  0  0  0  0
   48.1275   10.6459   14.1740 H   0  0  0  0  0  0  0  0  0  0  0  0
   49.5859    9.0342   13.2311 H   0  0  0  0  0  0  0  0  0  0  0  0
   49.4402    9.8241   11.6663 H   0  0  0  0  0  0  0  0  0  0  0  0
   46.9657    9.3029   11.6450 H   0  0  0  0  0  0  0  0  0  0  0  0
   48.4481    6.7244   12.4472 H   0  0  0  0  0  0  0  0  0  0  0  0
   48.7932    7.5747   10.9514 H   0  0  0  0  0  0  0  0  0  0  0  0
   46.1736    9.1669   13.5515 H   0  0  0  0  0  0  0  0  0  0  0  0
   46.8306    6.0365   13.6742 H   0  0  0  0  0  0  0  0  0  0  0  0
   45.1439    5.6091    9.7275 H   0  0  0  0  0  0  0  0  0  0  0  0
   45.2855    4.3593   14.5196 H   0  0  0  0  0  0  0  0  0  0  0  0
   43.5717    3.9043   10.6009 H   0  0  0  0  0  0  0  0  0  0  0  0
   43.5992    2.9391   13.9978 H   0  0  0  0  0  0  0  0  0  0  0  0
   50.8902   14.2747   10.6941 H   0  0  0  0  0  0  0  0  0  0  0  0
   49.9541   15.4344   11.6652 H   0  0  0  0  0  0  0  0  0  0  0  0
   53.5878   16.0602   12.0855 H   0  0  0  0  0  0  0  0  0  0  0  0
   53.0285   16.1526   13.7659 H   0  0  0  0  0  0  0  0  0  0  0  0
   50.7188   12.8268   12.0774 H   0  0  0  0  0  0  0  0  0  0  0  0
   50.7246   16.4846    9.5332 H   0  0  0  0  0  0  0  0  0  0  0  0
   52.4024   16.0962    9.9172 H   0  0  0  0  0  0  0  0  0  0  0  0
   52.6233   18.3265   12.6319 H   0  0  0  0  0  0  0  0  0  0  0  0
   51.0793   17.5699   13.0296 H   0  0  0  0  0  0  0  0  0  0  0  0
   50.6593   12.2576   14.9841 H   0  0  0  0  0  0  0  0  0  0  0  0
   51.4910   11.2458   13.7890 H   0  0  0  0  0  0  0  0  0  0  0  0
   48.4748   11.8444   13.8576 H   0  0  0  0  0  0  0  0  0  0  0  0
   49.2937   10.8703   12.6206 H   0  0  0  0  0  0  0  0  0  0  0  0
   49.3859   10.2354   15.4924 H   0  0  0  0  0  0  0  0  0  0  0  0
   47.1228   10.0573   14.8560 H   0  0  0  0  0  0  0  0  0  0  0  0
   47.8966    8.4991   15.1594 H   0  0  0  0  0  0  0  0  0  0  0  0
   48.2738    8.3802   12.5438 H   0  0  0  0  0  0  0  0  0  0  0  0
   45.3980    8.2951   13.6127 H   0  0  0  0  0  0  0  0  0  0  0  0
   46.6121    6.9810   13.8498 H   0  0  0  0  0  0  0  0  0  0  0  0
   46.5549    9.5262   11.4829 H   0  0  0  0  0  0  0  0  0  0  0  0
   44.2364    6.3000   13.7649 H   0  0  0  0  0  0  0  0  0  0  0  0
   45.9165    5.8675    9.8138 H   0  0  0  0  0  0  0  0  0  0  0  0
   42.9070    4.2657   13.4103 H   0  0  0  0  0  0  0  0  0  0  0  0
   44.5607    3.8370    9.4628 H   0  0  0  0  0  0  0  0  0  0  0  0
   43.0556    2.4237   10.4086 H   0  0  0  0  0  0  0  0  0  0  0  0
   49.5811   10.0555   11.4081 H   0  0  0  0  0  0  0  0  0  0  0  0
   47.5612   11.1377   13.5052 H   0  0  0  0  0  0  0  0  0  0  0  0
   45.8676    8.2032   13.0872 H   0  0  0  0  0  0  0  0  0  0  0  0
   51.2530   13.0067   11.7941 H   0  0  0  0  0  0  0  0  0  0  0  0
  3  7  1  0
  4  8  1  0
  5  9  1  0
  7 10  1  0
  9 11  1  0
 11 12  1  0
 12 13  1  0
 13 14  1  0
 14 15  1  0
 14 16  1  0
 15 17  1  0
 17 18  1  0
 18 19  2  0
 18 20  1  0
 19 21  1  0
 20 22  2  0
 21 23  2  0
 23 24  1  0
  8 10  1  0
 22 23  1  0
  1  2  1  0
  1  3  1  0
  1  4  1  0
  2  5  1  0
  2  6  2  0
 27 31  1  0
 28 32  1  0
 29 33  1  0
 31 34  1  0
 33 35  1  0
 35 36  1  0
 36 37  1  0
 37 38  1  0
 38 39  1  0
 38 40  1  0
 39 41  1  0
 41 42  1  0
 42 43  2  0
 42 44  1  0
 43 45  1  0
 44 46  2  0
 45 47  2  0
 47 48  1  0
 32 34  1  0
 46 47  1  0
 25 26  1  0
 25 27  1  0
 25 28  1  0
 26 29  1  0
 26 30  2  0
 49 50  2  0
 49 54  1  0
 50 51  1  0
 51 52  1  0
 51 53  2  0
 54 55  1  0
 54 56  2  0
  3 57  1  0
  3 58  1  0
  4 59  1  0
  4 60  1  0
  5 61  1  0
  7 62  1  0
  7 63  1  0
  8 64  1  0
  8 65  1  0
  9 66  1  0
  9 67  1  0
 11 68  1  0
 11 69  1  0
 12 70  1  0
 13 71  1  0
 13 72  1  0
 14 73  1  6
 15 74  1  0
 15 75  1  0
 16 76  1  0
 19 77  1  0
 20 78  1  0
 21 79  1  0
 22 80  1  0
 24 81  1  0
 27 82  1  0
 27 83  1  0
 28 84  1  0
 28 85  1  0
 29 86  1  0
 31 87  1  0
 31 88  1  0
 32 89  1  0
 32 90  1  0
 33 91  1  0
 33 92  1  0
 35 93  1  0
 35 94  1  0
 36 95  1  0
 37 96  1  0
 37 97  1  0
 38 98  1  6
 39 99  1  0
 39100  1  0
 40101  1  0
 43102  1  0
 44103  1  0
 45104  1  0
 46105  1  0
 48106  1  0
 49107  1  0
 50108  1  0
 52109  1  0
 55110  1  0
M  END
> <Uni-Dock RESULT> 
ENERGY=   -5.707  LOWER_BOUND=    1.647  UPPER_BOUND=    2.828
INTER + INTRA:          -5.707
INTER:                  -5.707
INTRA:                   0.000
UNBOUND:                 0.000

$$$$

     RDKit          3D

110111  0  0  0  0  0  0  0  0999 V2000
   48.2546   10.0778   18.4648 N   0  0  0  0  0  0  0  0  0  0  0  0
   49.4863    9.5535   18.1379 C   0  0  0  0  0  0  0  0  0  0  0  0
   47.2646    9.2316   19.1315 C   0  0  0  0  0  0  0  0  0  0  0  0
   47.8302   11.4726   18.3021 C   0  0  0  0  0  0  0  0  0  0  0  0
   50.2916   10.3894   17.4073 N   0  0  0  0  0  0  0  0  0  0  0  0
   49.8454    8.4277   18.4739 O   0  0  0  0  0  0  0  0  0  0  0  0
   46.7922    9.8785   20.4351 C   0  0  0  0  0  0  0  0  0  0  0  0
   47.3179   12.0367   19.6337 C   0  0  0  0  0  0  0  0  0  0  0  0
   51.5682    9.9035   16.9101 C   0  0  0  0  0  0  0  0  0  0  0  0
   46.2912   11.2055   20.1968 O   0  0  0  0  0  0  0  0  0  0  0  0
   51.3896    9.0953   15.6134 C   0  0  0  0  0  0  0  0  0  0  0  0
   50.7554    9.9279   14.5753 N   0  0  0  0  0  0  0  0  0  0  0  0
   50.3046    9.1378   13.4161 C   0  0  0  0  0  0  0  0  0  0  0  0
   51.4450    8.5142   12.5889 C   0  0  1  0  0  0  0  0  0  0  0  0
   50.8907    7.8481   11.3215 C   0  0  0  0  0  0  0  0  0  0  0  0
   52.3695    9.5561   12.2365 O   0  0  0  0  0  0  0  0  0  0  0  0
   51.8109    6.8677   10.8299 O   0  0  0  0  0  0  0  0  0  0  0  0
   52.6760    7.1965    9.8275 C   0  0  0  0  0  0  0  0  0  0  0  0
   52.9114    8.4720    9.3129 C   0  0  0  0  0  0  0  0  0  0  0  0
   53.3907    6.1115    9.3097 C   0  0  0  0  0  0  0  0  0  0  0  0
   53.8444    8.6583    8.2854 C   0  0  0  0  0  0  0  0  0  0  0  0
   54.3182    6.2925    8.2826 C   0  0  0  0  0  0  0  0  0  0  0  0
   54.5396    7.5656    7.7779 C   0  0  0  0  0  0  0  0  0  0  0  0
   55.4580    7.7058    6.7802 O   0  0  0  0  0  0  0  0  0  0  0  0
   47.6292   10.1776   18.8539 N   0  0  0  0  0  0  0  0  0  0  0  0
   47.8899   10.9511   17.7388 C   0  0  0  0  0  0  0  0  0  0  0  0
   48.2672    8.8923   19.1577 C   0  0  0  0  0  0  0  0  0  0  0  0
   46.8943   10.7787   19.9698 C   0  0  0  0  0  0  0  0  0  0  0  0
   48.6974   10.3588   16.8012 N   0  0  0  0  0  0  0  0  0  0  0  0
   47.4595   12.0928   17.6024 O   0  0  0  0  0  0  0  0  0  0  0  0
   47.6590    8.2356   20.4012 C   0  0  0  0  0  0  0  0  0  0  0  0
   47.5934   10.4680   21.2955 C   0  0  0  0  0  0  0  0  0  0  0  0
   48.9920   11.0601   15.5631 C   0  0  0  0  0  0  0  0  0  0  0  0
   47.7244    9.0627   21.5690 O   0  0  0  0  0  0  0  0  0  0  0  0
   50.1918   10.4407   14.8285 C   0  0  0  0  0  0  0  0  0  0  0  0
   50.4247   11.1082   13.5423 N   0  0  0  0  0  0  0  0  0  0  0  0
   51.6941   10.7027   12.9102 C   0  0  0  0  0  0  0  0  0  0  0  0
   51.8108    9.2048   12.5563 C   0  0  1  0  0  0  0  0  0  0  0  0
   52.9059    8.9778   11.5017 C   0  0  0  0  0  0  0  0  0  0  0  0
   52.1535    8.4489   13.7312 O   0  0  0  0  0  0  0  0  0  0  0  0
   52.9045    7.5798   11.1716 O   0  0  0  0  0  0  0  0  0  0  0  0
   53.6244    7.2206   10.0653 C   0  0  0  0  0  0  0  0  0  0  0  0
   54.6495    7.9714    9.4871 C   0  0  0  0  0  0  0  0  0  0  0  0
   53.2858    5.9791    9.5162 C   0  0  0  0  0  0  0  0  0  0  0  0
   55.3113    7.4910    8.3537 C   0  0  0  0  0  0  0  0  0  0  0  0
   53.9450    5.4995    8.3812 C   0  0  0  0  0  0  0  0  0  0  0  0
   54.9536    6.2645    7.8067 C   0  0  0  0  0  0  0  0  0  0  0  0
   55.6236    5.8449    6.6966 O   0  0  0  0  0  0  0  0  0  0  0  0
   50.0283    8.8459   14.5882 C   0  0  0  0  0  0  0  0  0  0  0  0
   51.2529    9.2320   14.2090 C   0  0  0  0  0  0  0  0  0  0  0  0
   51.7969    8.7289   12.9468 C   0  0  0  0  0  0  0  0  0  0  0  0
   53.0351    9.2069   12.7547 O   0  0  0  0  0  0  0  0  0  0  0  0
   51.2508    7.9879   12.1542 O   0  0  0  0  0  0  0  0  0  0  0  0
   49.4796    9.3511   15.8468 C   0  0  0  0  0  0  0  0  0  0  0  0
   48.2615    8.8347   16.0635 O   0  0  0  0  0  0  0  0  0  0  0  0
   50.0064   10.1287   16.6192 O   0  0  0  0  0  0  0  0  0  0  0  0
   47.6531    8.2283   19.3256 H   0  0  0  0  0  0  0  0  0  0  0  0
   46.4209    9.1408   18.4370 H   0  0  0  0  0  0  0  0  0  0  0  0
   47.0198   11.4669   17.5639 H   0  0  0  0  0  0  0  0  0  0  0  0
   48.6357   12.1092   17.9276 H   0  0  0  0  0  0  0  0  0  0  0  0
   49.7857   10.9066   16.7022 H   0  0  0  0  0  0  0  0  0  0  0  0
   45.9807    9.2909   20.8759 H   0  0  0  0  0  0  0  0  0  0  0  0
   47.6034    9.9353   21.1695 H   0  0  0  0  0  0  0  0  0  0  0  0
   46.8927   13.0332   19.4789 H   0  0  0  0  0  0  0  0  0  0  0  0
   48.1330   12.1286   20.3608 H   0  0  0  0  0  0  0  0  0  0  0  0
   52.0537    9.2881   17.6756 H   0  0  0  0  0  0  0  0  0  0  0  0
   52.1969   10.7815   16.7277 H   0  0  0  0  0  0  0  0  0  0  0  0
   52.3696    8.7425   15.2764 H   0  0  0  0  0  0  0  0  0  0  0  0
   50.7681    8.2170   15.8194 H   0  0  0  0  0  0  0  0  0  0  0  0
   51.4307   10.6186   14.2385 H   0  0  0  0  0  0  0  0  0  0  0  0
   49.7425    9.8287   12.7759 H   0  0  0  0  0  0  0  0  0  0  0  0
   49.5963    8.3659   13.7416 H   0  0  0  0  0  0  0  0  0  0  0  0
   51.9891    7.7691   13.1814 H   0  0  0  0  0  0  0  0  0  0  0  0
   50.5956    8.5719   10.5540 H   0  0  0  0  0  0  0  0  0  0  0  0
   49.9863    7.2856   11.5805 H   0  0  0  0  0  0  0  0  0  0  0  0
   53.1502    9.4402   12.8076 H   0  0  0  0  0  0  0  0  0  0  0  0
   52.4004    9.3487    9.6970 H   0  0  0  0  0  0  0  0  0  0  0  0
   53.2189    5.1138    9.7061 H   0  0  0  0  0  0  0  0  0  0  0  0
   54.0139    9.6600    7.9040 H   0  0  0  0  0  0  0  0  0  0  0  0
   54.8635    5.4436    7.8819 H   0  0  0  0  0  0  0  0  0  0  0  0
   55.4950    8.6419    6.5245 H   0  0  0  0  0  0  0  0  0  0  0  0
   48.1672    8.2201   18.3015 H   0  0  0  0  0  0  0  0  0  0  0  0
   49.3315    9.0965   19.3215 H   0  0  0  0  0  0  0  0  0  0  0  0
   45.8919   10.3353   19.9598 H   0  0  0  0  0  0  0  0  0  0  0  0
   46.7886   11.8610   19.8437 H   0  0  0  0  0  0  0  0  0  0  0  0
   48.5581    9.3670   16.6979 H   0  0  0  0  0  0  0  0  0  0  0  0
   48.1838    7.3035   20.6292 H   0  0  0  0  0  0  0  0  0  0  0  0
   46.6061    7.9846   20.2290 H   0  0  0  0  0  0  0  0  0  0  0  0
   47.0434   10.9163   22.1281 H   0  0  0  0  0  0  0  0  0  0  0  0
   48.6027   10.8952   21.3018 H   0  0  0  0  0  0  0  0  0  0  0  0
   49.1905   12.1151   15.7898 H   0  0  0  0  0  0  0  0  0  0  0  0
   48.0885   11.0156   14.9409 H   0  0  0  0  0  0  0  0  0  0  0  0
   51.0768   10.5173   15.4721 H   0  0  0  0  0  0  0  0  0  0  0  0
   49.9803    9.3787   14.6654 H   0  0  0  0  0  0  0  0  0  0  0  0
   50.4545   12.1172   13.6989 H   0  0  0  0  0  0  0  0  0  0  0  0
   52.5284   11.0053   13.5555 H   0  0  0  0  0  0  0  0  0  0  0  0
   51.7683   11.2887   11.9868 H   0  0  0  0  0  0  0  0  0  0  0  0
   50.8561    8.8135   12.1834 H   0  0  0  0  0  0  0  0  0  0  0  0
   53.8841    9.2403   11.9206 H   0  0  0  0  0  0  0  0  0  0  0  0
   52.6902    9.5786   10.6101 H   0  0  0  0  0  0  0  0  0  0  0  0
   52.3667    7.5505   13.4147 H   0  0  0  0  0  0  0  0  0  0  0  0
   54.9665    8.9230    9.9005 H   0  0  0  0  0  0  0  0  0  0  0  0
   52.4922    5.3882    9.9666 H   0  0  0  0  0  0  0  0  0  0  0  0
   56.1070    8.0738    7.8981 H   0  0  0  0  0  0  0  0  0  0  0  0
   53.6594    4.5374    7.9671 H   0  0  0  0  0  0  0  0  0  0  0  0
   55.2657    4.9839    6.4251 H   0  0  0  0  0  0  0  0  0  0  0  0
   49.4152    8.1703   14.0043 H   0  0  0  0  0  0  0  0  0  0  0  0
   51.8675    9.9050   14.7951 H   0  0  0  0  0  0  0  0  0  0  0  0
   53.3129    8.8179   11.8998 H   0  0  0  0  0  0  0  0  0  0  0  0
   47.9852    9.2236   16.9196 H   0  0  0  0  0  0  0  0  0  0  0  0
  3  7  1  0
  4  8  1  0
  5  9  1  0
  7 10  1  0
  9 11  1  0
 11 12  1  0
 12 13  1  0
 13 14  1  0
 14 15  1  0
 14 16  1  0
 15 17  1  0
 17 18  1  0
 18 19  2  0
 18 20  1  0
 19 21  1  0
 20 22  2  0
 21 23  2  0
 23 24  1  0
  8 10  1  0
 22 23  1  0
  1  2  1  0
  1  3  1  0
  1  4  1  0
  2  5  1  0
  2  6  2  0
 27 31  1  0
 28 32  1  0
 29 33  1  0
 31 34  1  0
 33 35  1  0
 35 36  1  0
 36 37  1  0
 37 38  1  0
 38 39  1  0
 38 40  1  0
 39 41  1  0
 41 42  1  0
 42 43  2  0
 42 44  1  0
 43 45  1  0
 44 46  2  0
 45 47  2  0
 47 48  1  0
 32 34  1  0
 46 47  1  0
 25 26  1  0
 25 27  1  0
 25 28  1  0
 26 29  1  0
 26 30  2  0
 49 50  2  0
 49 54  1  0
 50 51  1  0
 51 52  1  0
 51 53  2  0
 54 55  1  0
 54 56  2  0
  3 57  1  0
  3 58  1  0
  4 59  1  0
  4 60  1  0
  5 61  1  0
  7 62  1  0
  7 63  1  0
  8 64  1  0
  8 65  1  0
  9 66  1  0
  9 67  1  0
 11 68  1  0
 11 69  1  0
 12 70  1  0
 13 71  1  0
 13 72  1  0
 14 73  1  6
 15 74  1  0
 15 75  1  0
 16 76  1  0
 19 77  1  0
 20 78  1  0
 21 79  1  0
 22 80  1  0
 24 81  1  0
 27 82  1  0
 27 83  1  0
 28 84  1  0
 28 85  1  0
 29 86  1  0
 31 87  1  0
 31 88  1  0
 32 89  1  0
 32 90  1  0
 33 91  1  0
 33 92  1  0
 35 93  1  0
 35 94  1  0
 36 95  1  0
 37 96  1  0
 37 97  1  0
 38 98  1  6
 39 99  1  0
 39100  1  0
 40101  1  0
 43102  1  0
 44103  1  0
 45104  1  0
 46105  1  0
 48106  1  0
 49107  1  0
 50108  1  0
 52109  1  0
 55110  1  0
M  END
> <Uni-Dock RESULT> 
ENERGY=   -5.220  LOWER_BOUND=    4.960  UPPER_BOUND=    7.338
INTER + INTRA:          -5.220
INTER:                  -5.220
INTRA:                   0.000
UNBOUND:                 0.000

$$$$

     RDKit          3D

110111  0  0  0  0  0  0  0  0999 V2000
   54.7031   11.0919   14.5555 N   0  0  0  0  0  0  0  0  0  0  0  0
   54.3390   10.0162   13.7752 C   0  0  0  0  0  0  0  0  0  0  0  0
   55.5243   10.8737   15.7466 C   0  0  0  0  0  0  0  0  0  0  0  0
   54.4329   12.5057   14.2716 C   0  0  0  0  0  0  0  0  0  0  0  0
   53.4693   10.3125   12.7570 N   0  0  0  0  0  0  0  0  0  0  0  0
   54.7588    8.8776   13.9664 O   0  0  0  0  0  0  0  0  0  0  0  0
   56.7878   11.7351   15.6960 C   0  0  0  0  0  0  0  0  0  0  0  0
   55.7356   13.3159   14.2923 C   0  0  0  0  0  0  0  0  0  0  0  0
   52.9290    9.2395   11.9385 C   0  0  0  0  0  0  0  0  0  0  0  0
   56.4553   13.1233   15.5200 O   0  0  0  0  0  0  0  0  0  0  0  0
   51.7376    8.5564   12.6317 C   0  0  0  0  0  0  0  0  0  0  0  0
   50.6714    9.5382   12.9013 N   0  0  0  0  0  0  0  0  0  0  0  0
   49.6351    9.0112   13.8065 C   0  0  0  0  0  0  0  0  0  0  0  0
   48.7915    7.8679   13.2107 C   0  0  1  0  0  0  0  0  0  0  0  0
   47.6431    7.4938   14.1585 C   0  0  0  0  0  0  0  0  0  0  0  0
   48.2673    8.3047   11.9462 O   0  0  0  0  0  0  0  0  0  0  0  0
   47.1851    6.1648   13.8872 O   0  0  0  0  0  0  0  0  0  0  0  0
   46.0924    5.9764   13.0924 C   0  0  0  0  0  0  0  0  0  0  0  0
   45.4355    6.9454   12.3329 C   0  0  0  0  0  0  0  0  0  0  0  0
   45.6344    4.6556   13.0530 C   0  0  0  0  0  0  0  0  0  0  0  0
   44.3272    6.5984   11.5505 C   0  0  0  0  0  0  0  0  0  0  0  0
   44.5275    4.3066   12.2779 C   0  0  0  0  0  0  0  0  0  0  0  0
   43.8816    5.2809   11.5307 C   0  0  0  0  0  0  0  0  0  0  0  0
   42.8086    4.9024   10.7797 O   0  0  0  0  0  0  0  0  0  0  0  0
   55.1260   11.5048   15.0062 N   0  0  0  0  0  0  0  0  0  0  0  0
   53.9222   11.9934   14.5355 C   0  0  0  0  0  0  0  0  0  0  0  0
   55.5091   10.0892   15.0357 C   0  0  0  0  0  0  0  0  0  0  0  0
   56.2277   12.4450   15.2273 C   0  0  0  0  0  0  0  0  0  0  0  0
   52.9910   11.0345   14.2265 N   0  0  0  0  0  0  0  0  0  0  0  0
   53.7041   13.1909   14.3756 O   0  0  0  0  0  0  0  0  0  0  0  0
   56.8547    9.8788   15.7375 C   0  0  0  0  0  0  0  0  0  0  0  0
   57.5217   11.9007   14.6172 C   0  0  0  0  0  0  0  0  0  0  0  0
   51.6699   11.4373   13.7752 C   0  0  0  0  0  0  0  0  0  0  0  0
   57.9248   10.6272   15.1484 O   0  0  0  0  0  0  0  0  0  0  0  0
   50.9133   10.2734   13.1151 C   0  0  0  0  0  0  0  0  0  0  0  0
   49.5525   10.6746   12.7392 N   0  0  0  0  0  0  0  0  0  0  0  0
   48.8708    9.6681   11.9038 C   0  0  0  0  0  0  0  0  0  0  0  0
   48.6620    8.2886   12.5641 C   0  0  1  0  0  0  0  0  0  0  0  0
   47.5563    7.5010   11.8429 C   0  0  0  0  0  0  0  0  0  0  0  0
   49.8781    7.5232   12.4953 O   0  0  0  0  0  0  0  0  0  0  0  0
   47.3700    6.2675   12.5549 O   0  0  0  0  0  0  0  0  0  0  0  0
   46.2545    5.5457   12.2293 C   0  0  0  0  0  0  0  0  0  0  0  0
   45.5280    5.6683   11.0436 C   0  0  0  0  0  0  0  0  0  0  0  0
   45.8605    4.6021   13.1842 C   0  0  0  0  0  0  0  0  0  0  0  0
   44.4023    4.8681   10.8298 C   0  0  0  0  0  0  0  0  0  0  0  0
   44.7333    3.8037   12.9726 C   0  0  0  0  0  0  0  0  0  0  0  0
   44.0104    3.9470   11.7939 C   0  0  0  0  0  0  0  0  0  0  0  0
   42.9009    3.1969   11.5412 O   0  0  0  0  0  0  0  0  0  0  0  0
   50.8481    8.9524   14.0525 C   0  0  0  0  0  0  0  0  0  0  0  0
   50.3408    8.6701   12.8460 C   0  0  0  0  0  0  0  0  0  0  0  0
   49.0985    7.9011   12.7604 C   0  0  0  0  0  0  0  0  0  0  0  0
   48.7665    7.7018   11.4764 O   0  0  0  0  0  0  0  0  0  0  0  0
   48.4281    7.4822   13.6827 O   0  0  0  0  0  0  0  0  0  0  0  0
   52.0871    9.7255   14.1415 C   0  0  0  0  0  0  0  0  0  0  0  0
   52.4457    9.8827   15.4237 O   0  0  0  0  0  0  0  0  0  0  0  0
   52.7352   10.1846   13.2207 O   0  0  0  0  0  0  0  0  0  0  0  0
   55.7889    9.8200   15.8696 H   0  0  0  0  0  0  0  0  0  0  0  0
   54.9080   11.1716   16.6032 H   0  0  0  0  0  0  0  0  0  0  0  0
   53.7622   12.8591   15.0633 H   0  0  0  0  0  0  0  0  0  0  0  0
   53.9366   12.6467   13.3082 H   0  0  0  0  0  0  0  0  0  0  0  0
   52.7557   10.9740   13.0285 H   0  0  0  0  0  0  0  0  0  0  0  0
   57.3454   11.6430   16.6333 H   0  0  0  0  0  0  0  0  0  0  0  0
   57.4496   11.4255   14.8793 H   0  0  0  0  0  0  0  0  0  0  0  0
   55.5135   14.3835   14.1999 H   0  0  0  0  0  0  0  0  0  0  0  0
   56.3863   13.0346   13.4563 H   0  0  0  0  0  0  0  0  0  0  0  0
   53.7139    8.5056   11.7250 H   0  0  0  0  0  0  0  0  0  0  0  0
   52.6122    9.6871   10.9905 H   0  0  0  0  0  0  0  0  0  0  0  0
   51.3651    7.7526   11.9887 H   0  0  0  0  0  0  0  0  0  0  0  0
   52.0773    8.1063   13.5709 H   0  0  0  0  0  0  0  0  0  0  0  0
   50.2169    9.7920   12.0206 H   0  0  0  0  0  0  0  0  0  0  0  0
   48.9726    9.8547   14.0359 H   0  0  0  0  0  0  0  0  0  0  0  0
   50.0891    8.7022   14.7561 H   0  0  0  0  0  0  0  0  0  0  0  0
   49.4136    6.9834   13.0284 H   0  0  0  0  0  0  0  0  0  0  0  0
   46.8309    8.2289   14.1547 H   0  0  0  0  0  0  0  0  0  0  0  0
   48.0248    7.4597   15.1854 H   0  0  0  0  0  0  0  0  0  0  0  0
   48.7868    7.8514   11.2581 H   0  0  0  0  0  0  0  0  0  0  0  0
   45.7666    7.9784   12.3108 H   0  0  0  0  0  0  0  0  0  0  0  0
   46.1412    3.8912   13.6370 H   0  0  0  0  0  0  0  0  0  0  0  0
   43.8351    7.3680   10.9649 H   0  0  0  0  0  0  0  0  0  0  0  0
   44.1745    3.2801   12.2587 H   0  0  0  0  0  0  0  0  0  0  0  0
   42.4578    5.6863   10.3263 H   0  0  0  0  0  0  0  0  0  0  0  0
   54.7350    9.5088   15.5444 H   0  0  0  0  0  0  0  0  0  0  0  0
   55.5709    9.7549   13.9937 H   0  0  0  0  0  0  0  0  0  0  0  0
   56.3380   12.5486   16.3130 H   0  0  0  0  0  0  0  0  0  0  0  0
   56.0014   13.4325   14.8128 H   0  0  0  0  0  0  0  0  0  0  0  0
   52.9991   10.2337   14.8368 H   0  0  0  0  0  0  0  0  0  0  0  0
   57.1354    8.8223   15.7039 H   0  0  0  0  0  0  0  0  0  0  0  0
   56.7884   10.1664   16.7930 H   0  0  0  0  0  0  0  0  0  0  0  0
   58.3438   12.6028   14.7837 H   0  0  0  0  0  0  0  0  0  0  0  0
   57.4089   11.7793   13.5337 H   0  0  0  0  0  0  0  0  0  0  0  0
   51.7734   12.2705   13.0688 H   0  0  0  0  0  0  0  0  0  0  0  0
   51.1251   11.8085   14.6532 H   0  0  0  0  0  0  0  0  0  0  0  0
   51.4775    9.9404   12.2352 H   0  0  0  0  0  0  0  0  0  0  0  0
   50.8746    9.4438   13.8288 H   0  0  0  0  0  0  0  0  0  0  0  0
   49.6038   11.5466   12.2096 H   0  0  0  0  0  0  0  0  0  0  0  0
   49.4177    9.5567   10.9590 H   0  0  0  0  0  0  0  0  0  0  0  0
   47.8901   10.0945   11.6633 H   0  0  0  0  0  0  0  0  0  0  0  0
   48.4034    8.3956   13.6249 H   0  0  0  0  0  0  0  0  0  0  0  0
   47.8718    7.2727   10.8183 H   0  0  0  0  0  0  0  0  0  0  0  0
   46.6275    8.0838   11.8435 H   0  0  0  0  0  0  0  0  0  0  0  0
   49.6386    6.6204   12.7787 H   0  0  0  0  0  0  0  0  0  0  0  0
   45.8184    6.3632   10.2626 H   0  0  0  0  0  0  0  0  0  0  0  0
   46.4267    4.4990   14.1065 H   0  0  0  0  0  0  0  0  0  0  0  0
   43.8317    4.9629    9.9102 H   0  0  0  0  0  0  0  0  0  0  0  0
   44.4410    3.0844   13.7314 H   0  0  0  0  0  0  0  0  0  0  0  0
   42.7454    2.6083   12.2978 H   0  0  0  0  0  0  0  0  0  0  0  0
   50.3831    8.6340   14.9775 H   0  0  0  0  0  0  0  0  0  0  0  0
   50.8082    8.9857   11.9206 H   0  0  0  0  0  0  0  0  0  0  0  0
   47.9367    7.1832   11.5204 H   0  0  0  0  0  0  0  0  0  0  0  0
   53.2766   10.4005   15.3782 H   0  0  0  0  0  0  0  0  0  0  0  0
  3  7  1  0
  4  8  1  0
  5  9  1  0
  7 10  1  0
  9 11  1  0
 11 12  1  0
 12 13  1  0
 13 14  1  0
 14 15  1  0
 14 16  1  0
 15 17  1  0
 17 18  1  0
 18 19  2  0
 18 20  1  0
 19 21  1  0
 20 22  2  0
 21 23  2  0
 23 24  1  0
  8 10  1  0
 22 23  1  0
  1  2  1  0
  1  3  1  0
  1  4  1  0
  2  5  1  0
  2  6  2  0
 27 31  1  0
 28 32  1  0
 29 33  1  0
 31 34  1  0
 33 35  1  0
 35 36  1  0
 36 37  1  0
 37 38  1  0
 38 39  1  0
 38 40  1  0
 39 41  1  0
 41 42  1  0
 42 43  2  0
 42 44  1  0
 43 45  1  0
 44 46  2  0
 45 47  2  0
 47 48  1  0
 32 34  1  0
 46 47  1  0
 25 26  1  0
 25 27  1  0
 25 28  1  0
 26 29  1  0
 26 30  2  0
 49 50  2  0
 49 54  1  0
 50 51  1  0
 51 52  1  0
 51 53  2  0
 54 55  1  0
 54 56  2  0
  3 57  1  0
  3 58  1  0
  4 59  1  0
  4 60  1  0
  5 61  1  0
  7 62  1  0
  7 63  1  0
  8 64  1  0
  8 65  1  0
  9 66  1  0
  9 67  1  0
 11 68  1  0
 11 69  1  0
 12 70  1  0
 13 71  1  0
 13 72  1  0
 14 73  1  6
 15 74  1  0
 15 75  1  0
 16 76  1  0
 19 77  1  0
 20 78  1  0
 21 79  1  0
 22 80  1  0
 24 81  1  0
 27 82  1  0
 27 83  1  0
 28 84  1  0
 28 85  1  0
 29 86  1  0
 31 87  1  0
 31 88  1  0
 32 89  1  0
 32 90  1  0
 33 91  1  0
 33 92  1  0
 35 93  1  0
 35 94  1  0
 36 95  1  0
 37 96  1  0
 37 97  1  0
 38 98  1  6
 39 99  1  0
 39100  1  0
 40101  1  0
 43102  1  0
 44103  1  0
 45104  1  0
 46105  1  0
 48106  1  0
 49107  1  0
 50108  1  0
 52109  1  0
 55110  1  0
M  END
> <Uni-Dock RESULT> 
ENERGY=   -5.025  LOWER_BOUND=    3.163  UPPER_BOUND=    3.945
INTER + INTRA:          -5.025
INTER:                  -5.025
INTRA:                   0.000
UNBOUND:                 0.000

$$$$

     RDKit          3D

110111  0  0  0  0  0  0  0  0999 V2000
   44.6008   16.6517    9.8253 N   0  0  0  0  0  0  0  0  0  0  0  0
   44.7147   15.4916    9.0905 C   0  0  0  0  0  0  0  0  0  0  0  0
   45.7763   17.5012   10.0186 C   0  0  0  0  0  0  0  0  0  0  0  0
   43.3653   17.2117   10.3841 C   0  0  0  0  0  0  0  0  0  0  0  0
   43.5892   14.7081    9.0746 N   0  0  0  0  0  0  0  0  0  0  0  0
   45.7392   15.1774    8.4896 O   0  0  0  0  0  0  0  0  0  0  0  0
   45.4918   18.9303    9.5518 C   0  0  0  0  0  0  0  0  0  0  0  0
   43.1747   18.6614    9.9194 C   0  0  0  0  0  0  0  0  0  0  0  0
   43.6279   13.4082    8.4251 C   0  0  0  0  0  0  0  0  0  0  0  0
   44.3298   19.4632   10.2108 O   0  0  0  0  0  0  0  0  0  0  0  0
   44.2430   12.3426    9.3486 C   0  0  0  0  0  0  0  0  0  0  0  0
   43.4627   12.2338   10.5946 N   0  0  0  0  0  0  0  0  0  0  0  0
   44.1555   11.4430   11.6268 C   0  0  0  0  0  0  0  0  0  0  0  0
   44.3109    9.9485   11.2857 C   0  0  1  0  0  0  0  0  0  0  0  0
   44.8971    9.1806   12.4789 C   0  0  0  0  0  0  0  0  0  0  0  0
   43.0160    9.4252   10.9483 O   0  0  0  0  0  0  0  0  0  0  0  0
   45.5032    7.9607   12.0380 O   0  0  0  0  0  0  0  0  0  0  0  0
   44.8011    6.7933   12.1110 C   0  0  0  0  0  0  0  0  0  0  0  0
   43.4457    6.6517   12.4110 C   0  0  0  0  0  0  0  0  0  0  0  0
   45.5580    5.6518   11.8280 C   0  0  0  0  0  0  0  0  0  0  0  0
   42.8567    5.3815   12.4369 C   0  0  0  0  0  0  0  0  0  0  0  0
   44.9756    4.3838   11.8572 C   0  0  0  0  0  0  0  0  0  0  0  0
   43.6278    4.2573   12.1606 C   0  0  0  0  0  0  0  0  0  0  0  0
   43.0912    3.0041   12.1726 O   0  0  0  0  0  0  0  0  0  0  0  0
   44.7356   17.3529   10.0318 N   0  0  0  0  0  0  0  0  0  0  0  0
   43.7573   16.6127   10.6677 C   0  0  0  0  0  0  0  0  0  0  0  0
   45.8312   16.7942    9.2324 C   0  0  0  0  0  0  0  0  0  0  0  0
   44.5367   18.7964    9.8792 C   0  0  0  0  0  0  0  0  0  0  0  0
   43.9558   15.2553   10.6480 N   0  0  0  0  0  0  0  0  0  0  0  0
   42.7679   17.1204   11.1880 O   0  0  0  0  0  0  0  0  0  0  0  0
   46.8127   17.8787    8.7764 C   0  0  0  0  0  0  0  0  0  0  0  0
   44.8483   19.2272    8.4438 C   0  0  0  0  0  0  0  0  0  0  0  0
   43.0177   14.3837   11.3346 C   0  0  0  0  0  0  0  0  0  0  0  0
   46.1903   18.9273    8.0246 O   0  0  0  0  0  0  0  0  0  0  0  0
   43.1673   12.9204   10.8881 C   0  0  0  0  0  0  0  0  0  0  0  0
   42.2706   12.0424   11.6490 N   0  0  0  0  0  0  0  0  0  0  0  0
   42.2141   10.6732   11.1036 C   0  0  0  0  0  0  0  0  0  0  0  0
   43.5506    9.9011   11.1079 C   0  0  1  0  0  0  0  0  0  0  0  0
   43.3062    8.3879   10.9923 C   0  0  0  0  0  0  0  0  0  0  0  0
   44.3583   10.3134    9.9912 O   0  0  0  0  0  0  0  0  0  0  0  0
   44.5836    7.7363   11.0769 O   0  0  0  0  0  0  0  0  0  0  0  0
   44.5582    6.3806   11.2581 C   0  0  0  0  0  0  0  0  0  0  0  0
   43.4777    5.5450   10.9701 C   0  0  0  0  0  0  0  0  0  0  0  0
   45.7442    5.8274   11.7528 C   0  0  0  0  0  0  0  0  0  0  0  0
   43.5790    4.1702   11.2000 C   0  0  0  0  0  0  0  0  0  0  0  0
   45.8453    4.4533   11.9859 C   0  0  0  0  0  0  0  0  0  0  0  0
   44.7563    3.6348   11.7088 C   0  0  0  0  0  0  0  0  0  0  0  0
   44.8013    2.2897   11.9232 O   0  0  0  0  0  0  0  0  0  0  0  0
   44.6895   12.3767   11.0117 C   0  0  0  0  0  0  0  0  0  0  0  0
   43.9323   11.4526   10.4074 C   0  0  0  0  0  0  0  0  0  0  0  0
   44.0671   10.0513   10.8081 C   0  0  0  0  0  0  0  0  0  0  0  0
   43.2479    9.2813   10.0771 O   0  0  0  0  0  0  0  0  0  0  0  0
   44.7961    9.5996   11.6684 O   0  0  0  0  0  0  0  0  0  0  0  0
   44.5533   13.7789   10.6170 C   0  0  0  0  0  0  0  0  0  0  0  0
   45.4074   14.5428   11.3130 O   0  0  0  0  0  0  0  0  0  0  0  0
   43.7918   14.2390    9.7881 O   0  0  0  0  0  0  0  0  0  0  0  0
   46.6544   17.1023    9.5038 H   0  0  0  0  0  0  0  0  0  0  0  0
   45.9832   17.4985   11.0954 H   0  0  0  0  0  0  0  0  0  0  0  0
   43.4756   17.1817   11.4743 H   0  0  0  0  0  0  0  0  0  0  0  0
   42.4843   16.6266   10.1086 H   0  0  0  0  0  0  0  0  0  0  0  0
   43.1254   14.6668    9.9710 H   0  0  0  0  0  0  0  0  0  0  0  0
   46.3381   19.5815    9.7918 H   0  0  0  0  0  0  0  0  0  0  0  0
   45.3321   18.9721    8.4685 H   0  0  0  0  0  0  0  0  0  0  0  0
   42.3191   19.1096   10.4340 H   0  0  0  0  0  0  0  0  0  0  0  0
   42.9795   18.7058    8.8417 H   0  0  0  0  0  0  0  0  0  0  0  0
   44.1999   13.4768    7.4932 H   0  0  0  0  0  0  0  0  0  0  0  0
   42.5952   13.1438    8.1739 H   0  0  0  0  0  0  0  0  0  0  0  0
   44.2606   11.3830    8.8221 H   0  0  0  0  0  0  0  0  0  0  0  0
   45.2777   12.6195    9.5786 H   0  0  0  0  0  0  0  0  0  0  0  0
   42.5713   11.7733   10.3945 H   0  0  0  0  0  0  0  0  0  0  0  0
   43.5520   11.5350   12.5381 H   0  0  0  0  0  0  0  0  0  0  0  0
   45.1312   11.8918   11.8506 H   0  0  0  0  0  0  0  0  0  0  0  0
   44.9634    9.8171   10.4143 H   0  0  0  0  0  0  0  0  0  0  0  0
   44.1704    9.0238   13.2834 H   0  0  0  0  0  0  0  0  0  0  0  0
   45.7166    9.7657   12.9119 H   0  0  0  0  0  0  0  0  0  0  0  0
   43.0033    9.3169    9.9802 H   0  0  0  0  0  0  0  0  0  0  0  0
   42.8107    7.5078   12.6139 H   0  0  0  0  0  0  0  0  0  0  0  0
   46.6139    5.7504   11.5884 H   0  0  0  0  0  0  0  0  0  0  0  0
   41.7999    5.2963   12.6685 H   0  0  0  0  0  0  0  0  0  0  0  0
   45.5723    3.5025   11.6430 H   0  0  0  0  0  0  0  0  0  0  0  0
   42.1521    3.0732   12.4103 H   0  0  0  0  0  0  0  0  0  0  0  0
   46.3640   16.0384    9.8153 H   0  0  0  0  0  0  0  0  0  0  0  0
   45.3744   16.3090    8.3622 H   0  0  0  0  0  0  0  0  0  0  0  0
   45.2279   19.2834   10.5768 H   0  0  0  0  0  0  0  0  0  0  0  0
   43.5176   19.0914   10.1487 H   0  0  0  0  0  0  0  0  0  0  0  0
   44.9198   14.9741   10.7213 H   0  0  0  0  0  0  0  0  0  0  0  0
   47.5915   17.4403    8.1460 H   0  0  0  0  0  0  0  0  0  0  0  0
   47.3095   18.3369    9.6393 H   0  0  0  0  0  0  0  0  0  0  0  0
   44.7005   20.3051    8.3311 H   0  0  0  0  0  0  0  0  0  0  0  0
   44.1700   18.7284    7.7420 H   0  0  0  0  0  0  0  0  0  0  0  0
   41.9968   14.7359   11.1411 H   0  0  0  0  0  0  0  0  0  0  0  0
   43.2081   14.4842   12.4112 H   0  0  0  0  0  0  0  0  0  0  0  0
   42.9548   12.8564    9.8138 H   0  0  0  0  0  0  0  0  0  0  0  0
   44.2083   12.6201   11.0477 H   0  0  0  0  0  0  0  0  0  0  0  0
   41.3282   12.4356   11.6217 H   0  0  0  0  0  0  0  0  0  0  0  0
   41.8007   10.7089   10.0877 H   0  0  0  0  0  0  0  0  0  0  0  0
   41.4940   10.1324   11.7286 H   0  0  0  0  0  0  0  0  0  0  0  0
   44.1231   10.1113   12.0199 H   0  0  0  0  0  0  0  0  0  0  0  0
   42.8569    8.1582   10.0193 H   0  0  0  0  0  0  0  0  0  0  0  0
   42.6554    8.0554   11.8098 H   0  0  0  0  0  0  0  0  0  0  0  0
   45.1050    9.6855    9.9588 H   0  0  0  0  0  0  0  0  0  0  0  0
   42.5519    5.9279   10.5538 H   0  0  0  0  0  0  0  0  0  0  0  0
   46.5903    6.4734   11.9729 H   0  0  0  0  0  0  0  0  0  0  0  0
   42.7392    3.5167   10.9810 H   0  0  0  0  0  0  0  0  0  0  0  0
   46.7724    4.0472   12.3786 H   0  0  0  0  0  0  0  0  0  0  0  0
   45.6741    2.0619   12.2830 H   0  0  0  0  0  0  0  0  0  0  0  0
   45.4068   12.1369   11.7871 H   0  0  0  0  0  0  0  0  0  0  0  0
   43.2174   11.6922    9.6291 H   0  0  0  0  0  0  0  0  0  0  0  0
   43.4097    8.3745   10.4102 H   0  0  0  0  0  0  0  0  0  0  0  0
   45.2456   15.4495   10.9779 H   0  0  0  0  0  0  0  0  0  0  0  0
  3  7  1  0
  4  8  1  0
  5  9  1  0
  7 10  1  0
  9 11  1  0
 11 12  1  0
 12 13  1  0
 13 14  1  0
 14 15  1  0
 14 16  1  0
 15 17  1  0
 17 18  1  0
 18 19  2  0
 18 20  1  0
 19 21  1  0
 20 22  2  0
 21 23  2  0
 23 24  1  0
  8 10  1  0
 22 23  1  0
  1  2  1  0
  1  3  1  0
  1  4  1  0
  2  5  1  0
  2  6  2  0
 27 31  1  0
 28 32  1  0
 29 33  1  0
 31 34  1  0
 33 35  1  0
 35 36  1  0
 36 37  1  0
 37 38  1  0
 38 39  1  0
 38 40  1  0
 39 41  1  0
 41 42  1  0
 42 43  2  0
 42 44  1  0
 43 45  1  0
 44 46  2  0
 45 47  2  0
 47 48  1  0
 32 34  1  0
 46 47  1  0
 25 26  1  0
 25 27  1  0
 25 28  1  0
 26 29  1  0
 26 30  2  0
 49 50  2  0
 49 54  1  0
 50 51  1  0
 51 52  1  0
 51 53  2  0
 54 55  1  0
 54 56  2  0
  3 57  1  0
  3 58  1  0
  4 59  1  0
  4 60  1  0
  5 61  1  0
  7 62  1  0
  7 63  1  0
  8 64  1  0
  8 65  1  0
  9 66  1  0
  9 67  1  0
 11 68  1  0
 11 69  1  0
 12 70  1  0
 13 71  1  0
 13 72  1  0
 14 73  1  6
 15 74  1  0
 15 75  1  0
 16 76  1  0
 19 77  1  0
 20 78  1  0
 21 79  1  0
 22 80  1  0
 24 81  1  0
 27 82  1  0
 27 83  1  0
 28 84  1  0
 28 85  1  0
 29 86  1  0
 31 87  1  0
 31 88  1  0
 32 89  1  0
 32 90  1  0
 33 91  1  0
 33 92  1  0
 35 93  1  0
 35 94  1  0
 36 95  1  0
 37 96  1  0
 37 97  1  0
 38 98  1  6
 39 99  1  0
 39100  1  0
 40101  1  0
 43102  1  0
 44103  1  0
 45104  1  0
 46105  1  0
 48106  1  0
 49107  1  0
 50108  1  0
 52109  1  0
 55110  1  0
M  END
> <Uni-Dock RESULT> 
ENERGY=   -4.788  LOWER_BOUND=    5.259  UPPER_BOUND=    6.434
INTER + INTRA:          -4.788
INTER:                  -4.788
INTRA:                   0.000
UNBOUND:                 0.000

$$$$

     RDKit          3D

110111  0  0  0  0  0  0  0  0999 V2000
   48.3824   13.3629   18.4512 N   0  0  0  0  0  0  0  0  0  0  0  0
   48.5296   12.4052   17.4715 C   0  0  0  0  0  0  0  0  0  0  0  0
   47.2026   13.3346   19.3160 C   0  0  0  0  0  0  0  0  0  0  0  0
   49.3565   14.3997   18.8098 C   0  0  0  0  0  0  0  0  0  0  0  0
   49.6027   12.5945   16.6387 N   0  0  0  0  0  0  0  0  0  0  0  0
   47.7664   11.4503   17.3485 O   0  0  0  0  0  0  0  0  0  0  0  0
   47.6143   13.2975   20.7891 C   0  0  0  0  0  0  0  0  0  0  0  0
   49.6788   14.3382   20.3085 C   0  0  0  0  0  0  0  0  0  0  0  0
   49.7934   11.7107   15.5005 C   0  0  0  0  0  0  0  0  0  0  0  0
   48.4859   14.3969   21.1058 O   0  0  0  0  0  0  0  0  0  0  0  0
   48.9149   12.1365   14.3116 C   0  0  0  0  0  0  0  0  0  0  0  0
   49.2366   13.5170   13.9068 N   0  0  0  0  0  0  0  0  0  0  0  0
   48.2462   14.0753   12.9695 C   0  0  0  0  0  0  0  0  0  0  0  0
   48.2259   13.3965   11.5865 C   0  0  1  0  0  0  0  0  0  0  0  0
   47.2823   14.1427   10.6327 C   0  0  0  0  0  0  0  0  0  0  0  0
   49.5636   13.3996   11.0621 O   0  0  0  0  0  0  0  0  0  0  0  0
   46.8680   13.2821    9.5661 O   0  0  0  0  0  0  0  0  0  0  0  0
   47.5155   13.3342    8.3665 C   0  0  0  0  0  0  0  0  0  0  0  0
   48.6947   14.0245    8.0836 C   0  0  0  0  0  0  0  0  0  0  0  0
   46.9057   12.5862    7.3543 C   0  0  0  0  0  0  0  0  0  0  0  0
   49.2522   13.9746    6.8000 C   0  0  0  0  0  0  0  0  0  0  0  0
   47.4558   12.5375    6.0725 C   0  0  0  0  0  0  0  0  0  0  0  0
   48.6266   13.2317    5.8042 C   0  0  0  0  0  0  0  0  0  0  0  0
   49.1391   13.1554    4.5433 O   0  0  0  0  0  0  0  0  0  0  0  0
   48.1806   13.6562   19.1036 N   0  0  0  0  0  0  0  0  0  0  0  0
   48.8976   14.4070   18.1915 C   0  0  0  0  0  0  0  0  0  0  0  0
   47.4186   12.4439   18.7859 C   0  0  0  0  0  0  0  0  0  0  0  0
   48.4069   13.8837   20.5332 C   0  0  0  0  0  0  0  0  0  0  0  0
   48.7284   14.0390   16.8808 N   0  0  0  0  0  0  0  0  0  0  0  0
   49.6528   15.3168   18.5221 O   0  0  0  0  0  0  0  0  0  0  0  0
   46.6359   11.9301   19.9987 C   0  0  0  0  0  0  0  0  0  0  0  0
   48.5875   12.5497   21.2617 C   0  0  0  0  0  0  0  0  0  0  0  0
   49.3915   14.7957   15.8325 C   0  0  0  0  0  0  0  0  0  0  0  0
   47.4643   11.6613   21.1361 O   0  0  0  0  0  0  0  0  0  0  0  0
   49.4115   14.0282   14.5008 C   0  0  0  0  0  0  0  0  0  0  0  0
   50.0110   14.8385   13.4340 N   0  0  0  0  0  0  0  0  0  0  0  0
   50.2575   14.0671   12.2012 C   0  0  0  0  0  0  0  0  0  0  0  0
   49.0024   13.4716   11.5286 C   0  0  1  0  0  0  0  0  0  0  0  0
   49.2841   13.1275   10.0571 C   0  0  0  0  0  0  0  0  0  0  0  0
   48.6093   12.2649   12.2059 O   0  0  0  0  0  0  0  0  0  0  0  0
   48.0570   12.6506    9.4824 O   0  0  0  0  0  0  0  0  0  0  0  0
   48.0320   12.5413    8.1191 C   0  0  0  0  0  0  0  0  0  0  0  0
   49.1538   12.4543    7.2928 C   0  0  0  0  0  0  0  0  0  0  0  0
   46.7537   12.4928    7.5526 C   0  0  0  0  0  0  0  0  0  0  0  0
   48.9933   12.3444    5.9088 C   0  0  0  0  0  0  0  0  0  0  0  0
   46.5923   12.3860    6.1687 C   0  0  0  0  0  0  0  0  0  0  0  0
   47.7183   12.3155    5.3564 C   0  0  0  0  0  0  0  0  0  0  0  0
   47.6159   12.2159    4.0011 O   0  0  0  0  0  0  0  0  0  0  0  0
   47.9397   13.5297   14.0389 C   0  0  0  0  0  0  0  0  0  0  0  0
   48.8627   13.0269   13.2097 C   0  0  0  0  0  0  0  0  0  0  0  0
   48.6140   13.0579   11.7677 C   0  0  0  0  0  0  0  0  0  0  0  0
   49.6364   12.4909   11.1106 O   0  0  0  0  0  0  0  0  0  0  0  0
   47.6440   13.5170   11.1987 O   0  0  0  0  0  0  0  0  0  0  0  0
   48.1877   13.5050   15.4806 C   0  0  0  0  0  0  0  0  0  0  0  0
   47.1442   14.0269   16.1409 O   0  0  0  0  0  0  0  0  0  0  0  0
   49.1780   13.0871   16.0494 O   0  0  0  0  0  0  0  0  0  0  0  0
   46.5495   12.4891   19.0838 H   0  0  0  0  0  0  0  0  0  0  0  0
   46.6488   14.2583   19.1101 H   0  0  0  0  0  0  0  0  0  0  0  0
   48.8896   15.3617   18.5686 H   0  0  0  0  0  0  0  0  0  0  0  0
   50.2839   14.3115   18.2382 H   0  0  0  0  0  0  0  0  0  0  0  0
   49.7418   13.5636   16.3897 H   0  0  0  0  0  0  0  0  0  0  0  0
   46.7308   13.3783   21.4302 H   0  0  0  0  0  0  0  0  0  0  0  0
   48.1253   12.3606   21.0374 H   0  0  0  0  0  0  0  0  0  0  0  0
   50.3104   15.1865   20.5903 H   0  0  0  0  0  0  0  0  0  0  0  0
   50.2214   13.4186   20.5561 H   0  0  0  0  0  0  0  0  0  0  0  0
   49.5640   10.6792   15.7901 H   0  0  0  0  0  0  0  0  0  0  0  0
   50.8530   11.7618   15.2283 H   0  0  0  0  0  0  0  0  0  0  0  0
   49.0818   11.4442   13.4801 H   0  0  0  0  0  0  0  0  0  0  0  0
   47.8604   12.0679   14.6004 H   0  0  0  0  0  0  0  0  0  0  0  0
   50.1475   13.5278   13.4413 H   0  0  0  0  0  0  0  0  0  0  0  0
   48.5109   15.1317   12.8391 H   0  0  0  0  0  0  0  0  0  0  0  0
   47.2480   14.0562   13.4241 H   0  0  0  0  0  0  0  0  0  0  0  0
   47.9021   12.3525   11.6734 H   0  0  0  0  0  0  0  0  0  0  0  0
   47.7009   15.0889   10.2728 H   0  0  0  0  0  0  0  0  0  0  0  0
   46.3604   14.3962   11.1688 H   0  0  0  0  0  0  0  0  0  0  0  0
   49.8989   12.4892   11.1496 H   0  0  0  0  0  0  0  0  0  0  0  0
   49.2187   14.5990    8.8405 H   0  0  0  0  0  0  0  0  0  0  0  0
   45.9891   12.0405    7.5644 H   0  0  0  0  0  0  0  0  0  0  0  0
   50.1721   14.5160    6.6046 H   0  0  0  0  0  0  0  0  0  0  0  0
   46.9720   11.9599    5.2910 H   0  0  0  0  0  0  0  0  0  0  0  0
   49.9448   13.6963    4.5048 H   0  0  0  0  0  0  0  0  0  0  0  0
   46.7285   12.6478   17.9631 H   0  0  0  0  0  0  0  0  0  0  0  0
   48.1433   11.6899   18.4578 H   0  0  0  0  0  0  0  0  0  0  0  0
   47.5187   14.4024   20.9123 H   0  0  0  0  0  0  0  0  0  0  0  0
   49.2755   14.5276   20.7042 H   0  0  0  0  0  0  0  0  0  0  0  0
   47.7974   13.7320   16.6510 H   0  0  0  0  0  0  0  0  0  0  0  0
   46.1153   11.0024   19.7450 H   0  0  0  0  0  0  0  0  0  0  0  0
   45.8762   12.6586   20.3043 H   0  0  0  0  0  0  0  0  0  0  0  0
   48.7553   12.7205   22.3291 H   0  0  0  0  0  0  0  0  0  0  0  0
   49.4650   12.0204   20.8727 H   0  0  0  0  0  0  0  0  0  0  0  0
   50.4156   15.0255   16.1523 H   0  0  0  0  0  0  0  0  0  0  0  0
   48.8525   15.7463   15.7266 H   0  0  0  0  0  0  0  0  0  0  0  0
   49.9703   13.0946   14.6405 H   0  0  0  0  0  0  0  0  0  0  0  0
   48.3794   13.7715   14.2399 H   0  0  0  0  0  0  0  0  0  0  0  0
   50.9053   15.2044   13.7654 H   0  0  0  0  0  0  0  0  0  0  0  0
   50.9853   13.2740   12.4143 H   0  0  0  0  0  0  0  0  0  0  0  0
   50.7329   14.7652   11.5024 H   0  0  0  0  0  0  0  0  0  0  0  0
   48.1571   14.1685   11.5866 H   0  0  0  0  0  0  0  0  0  0  0  0
   50.0338   12.3299    9.9999 H   0  0  0  0  0  0  0  0  0  0  0  0
   49.6282   14.0239    9.5276 H   0  0  0  0  0  0  0  0  0  0  0  0
   47.9214   11.8589   11.6449 H   0  0  0  0  0  0  0  0  0  0  0  0
   50.1621   12.4541    7.6931 H   0  0  0  0  0  0  0  0  0  0  0  0
   45.8771   12.5542    8.1927 H   0  0  0  0  0  0  0  0  0  0  0  0
   49.8635   12.2804    5.2616 H   0  0  0  0  0  0  0  0  0  0  0  0
   45.5908   12.3591    5.7505 H   0  0  0  0  0  0  0  0  0  0  0  0
   46.6750   12.2138    3.7604 H   0  0  0  0  0  0  0  0  0  0  0  0
   47.0071   13.9590   13.6935 H   0  0  0  0  0  0  0  0  0  0  0  0
   49.7940   12.5941   13.5557 H   0  0  0  0  0  0  0  0  0  0  0  0
   49.3806   12.5545   10.1672 H   0  0  0  0  0  0  0  0  0  0  0  0
   47.4008   13.9615   17.0845 H   0  0  0  0  0  0  0  0  0  0  0  0
  3  7  1  0
  4  8  1  0
  5  9  1  0
  7 10  1  0
  9 11  1  0
 11 12  1  0
 12 13  1  0
 13 14  1  0
 14 15  1  0
 14 16  1  0
 15 17  1  0
 17 18  1  0
 18 19  2  0
 18 20  1  0
 19 21  1  0
 20 22  2  0
 21 23  2  0
 23 24  1  0
  8 10  1  0
 22 23  1  0
  1  2  1  0
  1  3  1  0
  1  4  1  0
  2  5  1  0
  2  6  2  0
 27 31  1  0
 28 32  1  0
 29 33  1  0
 31 34  1  0
 33 35  1  0
 35 36  1  0
 36 37  1  0
 37 38  1  0
 38 39  1  0
 38 40  1  0
 39 41  1  0
 41 42  1  0
 42 43  2  0
 42 44  1  0
 43 45  1  0
 44 46  2  0
 45 47  2  0
 47 48  1  0
 32 34  1  0
 46 47  1  0
 25 26  1  0
 25 27  1  0
 25 28  1  0
 26 29  1  0
 26 30  2  0
 49 50  2  0
 49 54  1  0
 50 51  1  0
 51 52  1  0
 51 53  2  0
 54 55  1  0
 54 56  2  0
  3 57  1  0
  3 58  1  0
  4 59  1  0
  4 60  1  0
  5 61  1  0
  7 62  1  0
  7 63  1  0
  8 64  1  0
  8 65  1  0
  9 66  1  0
  9 67  1  0
 11 68  1  0
 11 69  1  0
 12 70  1  0
 13 71  1  0
 13 72  1  0
 14 73  1  6
 15 74  1  0
 15 75  1  0
 16 76  1  0
 19 77  1  0
 20 78  1  0
 21 79  1  0
 22 80  1  0
 24 81  1  0
 27 82  1  0
 27 83  1  0
 28 84  1  0
 28 85  1  0
 29 86  1  0
 31 87  1  0
 31 88  1  0
 32 89  1  0
 32 90  1  0
 33 91  1  0
 33 92  1  0
 35 93  1  0
 35 94  1  0
 36 95  1  0
 37 96  1  0
 37 97  1  0
 38 98  1  6
 39 99  1  0
 39100  1  0
 40101  1  0
 43102  1  0
 44103  1  0
 45104  1  0
 46105  1  0
 48106  1  0
 49107  1  0
 50108  1  0
 52109  1  0
 55110  1  0
M  END
> <Uni-Dock RESULT> 
ENERGY=   -4.778  LOWER_BOUND=    5.432  UPPER_BOUND=    6.877
INTER + INTRA:          -4.778
INTER:                  -4.778
INTRA:                   0.000
UNBOUND:                 0.000

$$$$

     RDKit          3D

110111  0  0  0  0  0  0  0  0999 V2000
   45.5758    5.7671   12.6364 N   0  0  0  0  0  0  0  0  0  0  0  0
   46.3285    6.6908   11.9444 C   0  0  0  0  0  0  0  0  0  0  0  0
   44.1244    5.9338   12.7161 C   0  0  0  0  0  0  0  0  0  0  0  0
   46.0659    4.5289   13.2521 C   0  0  0  0  0  0  0  0  0  0  0  0
   47.6852    6.5115   12.0355 N   0  0  0  0  0  0  0  0  0  0  0  0
   45.8318    7.6047   11.2905 O   0  0  0  0  0  0  0  0  0  0  0  0
   43.4088    4.6795   12.2104 C   0  0  0  0  0  0  0  0  0  0  0  0
   45.2671    3.3227   12.7414 C   0  0  0  0  0  0  0  0  0  0  0  0
   48.5806    7.4892   11.4393 C   0  0  0  0  0  0  0  0  0  0  0  0
   43.8552    3.5122   12.9222 O   0  0  0  0  0  0  0  0  0  0  0  0
   48.7734    8.7039   12.3634 C   0  0  0  0  0  0  0  0  0  0  0  0
   49.3253    8.2761   13.6618 N   0  0  0  0  0  0  0  0  0  0  0  0
   49.2678    9.3417   14.6778 C   0  0  0  0  0  0  0  0  0  0  0  0
   50.1845   10.5459   14.3893 C   0  0  1  0  0  0  0  0  0  0  0  0
   50.1776   11.5250   15.5719 C   0  0  0  0  0  0  0  0  0  0  0  0
   51.5155   10.0558   14.1603 O   0  0  0  0  0  0  0  0  0  0  0  0
   50.5856   12.8286   15.1428 O   0  0  0  0  0  0  0  0  0  0  0  0
   51.8819   13.2194   15.3103 C   0  0  0  0  0  0  0  0  0  0  0  0
   52.9518   12.4153   15.7050 C   0  0  0  0  0  0  0  0  0  0  0  0
   52.1140   14.5688   15.0255 C   0  0  0  0  0  0  0  0  0  0  0  0
   54.2375   12.9576   15.8225 C   0  0  0  0  0  0  0  0  0  0  0  0
   53.3931   15.1141   15.1456 C   0  0  0  0  0  0  0  0  0  0  0  0
   54.4470   14.3039   15.5426 C   0  0  0  0  0  0  0  0  0  0  0  0
   55.6838   14.8687   15.6420 O   0  0  0  0  0  0  0  0  0  0  0  0
   44.9892    5.3427   12.8043 N   0  0  0  0  0  0  0  0  0  0  0  0
   46.1584    5.2396   13.5337 C   0  0  0  0  0  0  0  0  0  0  0  0
   44.6198    6.4822   11.9580 C   0  0  0  0  0  0  0  0  0  0  0  0
   44.1768    4.1398   12.6055 C   0  0  0  0  0  0  0  0  0  0  0  0
   46.9264    6.3761   13.5572 N   0  0  0  0  0  0  0  0  0  0  0  0
   46.5053    4.2053   14.0969 O   0  0  0  0  0  0  0  0  0  0  0  0
   43.2030    6.3355   11.3935 C   0  0  0  0  0  0  0  0  0  0  0  0
   43.7680    4.0112   11.1360 C   0  0  0  0  0  0  0  0  0  0  0  0
   48.1504    6.3981   14.3399 C   0  0  0  0  0  0  0  0  0  0  0  0
   43.0139    5.1308   10.6417 O   0  0  0  0  0  0  0  0  0  0  0  0
   49.0585    7.5739   13.9455 C   0  0  0  0  0  0  0  0  0  0  0  0
   50.2506    7.6294   14.7998 N   0  0  0  0  0  0  0  0  0  0  0  0
   51.2548    8.5956   14.3165 C   0  0  0  0  0  0  0  0  0  0  0  0
   50.7897   10.0664   14.2643 C   0  0  1  0  0  0  0  0  0  0  0  0
   51.9960   11.0185   14.2279 C   0  0  0  0  0  0  0  0  0  0  0  0
   50.0037   10.2902   13.0805 O   0  0  0  0  0  0  0  0  0  0  0  0
   51.4873   12.3615   14.2548 O   0  0  0  0  0  0  0  0  0  0  0  0
   52.4037   13.3489   14.4933 C   0  0  0  0  0  0  0  0  0  0  0  0
   53.7831   13.2345   14.3123 C   0  0  0  0  0  0  0  0  0  0  0  0
   51.8646   14.5635   14.9309 C   0  0  0  0  0  0  0  0  0  0  0  0
   54.6153   14.3220   14.5918 C   0  0  0  0  0  0  0  0  0  0  0  0
   52.6962   15.6503   15.2135 C   0  0  0  0  0  0  0  0  0  0  0  0
   54.0696   15.5177   15.0433 C   0  0  0  0  0  0  0  0  0  0  0  0
   54.9245   16.5451   15.3098 O   0  0  0  0  0  0  0  0  0  0  0  0
   48.2940    9.0028   13.9905 C   0  0  0  0  0  0  0  0  0  0  0  0
   49.5193    9.1671   13.4764 C   0  0  0  0  0  0  0  0  0  0  0  0
   50.3315   10.2991   13.9251 C   0  0  0  0  0  0  0  0  0  0  0  0
   51.5085   10.3062   13.2824 O   0  0  0  0  0  0  0  0  0  0  0  0
   50.0325   11.1360   14.7532 O   0  0  0  0  0  0  0  0  0  0  0  0
   47.4817    7.8692   13.5479 C   0  0  0  0  0  0  0  0  0  0  0  0
   46.2859    7.8897   14.1536 O   0  0  0  0  0  0  0  0  0  0  0  0
   47.7967    7.0047   12.7529 O   0  0  0  0  0  0  0  0  0  0  0  0
   43.7858    6.8128   12.1613 H   0  0  0  0  0  0  0  0  0  0  0  0
   43.8912    6.0903   13.7761 H   0  0  0  0  0  0  0  0  0  0  0  0
   45.9211    4.6407   14.3329 H   0  0  0  0  0  0  0  0  0  0  0  0
   47.1291    4.3641   13.0600 H   0  0  0  0  0  0  0  0  0  0  0  0
   47.9855    6.2422   12.9616 H   0  0  0  0  0  0  0  0  0  0  0  0
   42.3294    4.7717   12.3666 H   0  0  0  0  0  0  0  0  0  0  0  0
   43.5815    4.5259   11.1392 H   0  0  0  0  0  0  0  0  0  0  0  0
   45.5561    2.4224   13.2924 H   0  0  0  0  0  0  0  0  0  0  0  0
   45.4637    3.1433   11.6780 H   0  0  0  0  0  0  0  0  0  0  0  0
   48.1851    7.8107   10.4695 H   0  0  0  0  0  0  0  0  0  0  0  0
   49.5379    6.9855   11.2682 H   0  0  0  0  0  0  0  0  0  0  0  0
   49.4462    9.4175   11.8771 H   0  0  0  0  0  0  0  0  0  0  0  0
   47.8079    9.1994   12.5128 H   0  0  0  0  0  0  0  0  0  0  0  0
   50.3065    8.0133   13.5404 H   0  0  0  0  0  0  0  0  0  0  0  0
   49.5801    8.8800   15.6224 H   0  0  0  0  0  0  0  0  0  0  0  0
   48.2305    9.6703   14.8176 H   0  0  0  0  0  0  0  0  0  0  0  0
   49.8595   11.0703   13.4828 H   0  0  0  0  0  0  0  0  0  0  0  0
   50.7563   11.1627   16.4285 H   0  0  0  0  0  0  0  0  0  0  0  0
   49.1476   11.6507   15.9250 H   0  0  0  0  0  0  0  0  0  0  0  0
   51.6721   10.1137   13.2006 H   0  0  0  0  0  0  0  0  0  0  0  0
   52.8280   11.3578   15.9139 H   0  0  0  0  0  0  0  0  0  0  0  0
   51.2888   15.2038   14.7126 H   0  0  0  0  0  0  0  0  0  0  0  0
   55.0550   12.3121   16.1269 H   0  0  0  0  0  0  0  0  0  0  0  0
   53.5629   16.1642   14.9291 H   0  0  0  0  0  0  0  0  0  0  0  0
   56.3105   14.1885   15.9383 H   0  0  0  0  0  0  0  0  0  0  0  0
   44.6910    7.4079   12.5351 H   0  0  0  0  0  0  0  0  0  0  0  0
   45.3492    6.5209   11.1408 H   0  0  0  0  0  0  0  0  0  0  0  0
   43.2869    4.2552   13.2350 H   0  0  0  0  0  0  0  0  0  0  0  0
   44.7079    3.2391   12.9295 H   0  0  0  0  0  0  0  0  0  0  0  0
   46.4003    7.2343   13.5781 H   0  0  0  0  0  0  0  0  0  0  0  0
   42.9729    7.1752   10.7316 H   0  0  0  0  0  0  0  0  0  0  0  0
   42.4629    6.3437   12.2018 H   0  0  0  0  0  0  0  0  0  0  0  0
   43.1606    3.1134   10.9888 H   0  0  0  0  0  0  0  0  0  0  0  0
   44.6566    3.9131   10.5019 H   0  0  0  0  0  0  0  0  0  0  0  0
   48.6799    5.4474   14.1999 H   0  0  0  0  0  0  0  0  0  0  0  0
   47.8599    6.4671   15.3965 H   0  0  0  0  0  0  0  0  0  0  0  0
   49.3406    7.4630   12.8912 H   0  0  0  0  0  0  0  0  0  0  0  0
   48.4818    8.4992   14.0481 H   0  0  0  0  0  0  0  0  0  0  0  0
   50.6820    6.7037   14.8187 H   0  0  0  0  0  0  0  0  0  0  0  0
   51.6131    8.2765   13.3297 H   0  0  0  0  0  0  0  0  0  0  0  0
   52.1005    8.5189   15.0097 H   0  0  0  0  0  0  0  0  0  0  0  0
   50.1569   10.3095   15.1269 H   0  0  0  0  0  0  0  0  0  0  0  0
   52.5560   10.8719   13.2972 H   0  0  0  0  0  0  0  0  0  0  0  0
   52.6359   10.8373   15.0999 H   0  0  0  0  0  0  0  0  0  0  0  0
   49.8787   11.2566   13.0249 H   0  0  0  0  0  0  0  0  0  0  0  0
   54.2392   12.3221   13.9427 H   0  0  0  0  0  0  0  0  0  0  0  0
   50.7903   14.6590   15.0676 H   0  0  0  0  0  0  0  0  0  0  0  0
   55.6898   14.2362   14.4561 H   0  0  0  0  0  0  0  0  0  0  0  0
   52.2566   16.5803   15.5604 H   0  0  0  0  0  0  0  0  0  0  0  0
   54.4075   17.3064   15.6201 H   0  0  0  0  0  0  0  0  0  0  0  0
   47.8676    9.6739   14.7260 H   0  0  0  0  0  0  0  0  0  0  0  0
   49.9442    8.4976   12.7379 H   0  0  0  0  0  0  0  0  0  0  0  0
   51.9736   11.0899   13.6414 H   0  0  0  0  0  0  0  0  0  0  0  0
   45.8211    7.1060   13.7927 H   0  0  0  0  0  0  0  0  0  0  0  0
  3  7  1  0
  4  8  1  0
  5  9  1  0
  7 10  1  0
  9 11  1  0
 11 12  1  0
 12 13  1  0
 13 14  1  0
 14 15  1  0
 14 16  1  0
 15 17  1  0
 17 18  1  0
 18 19  2  0
 18 20  1  0
 19 21  1  0
 20 22  2  0
 21 23  2  0
 23 24  1  0
  8 10  1  0
 22 23  1  0
  1  2  1  0
  1  3  1  0
  1  4  1  0
  2  5  1  0
  2  6  2  0
 27 31  1  0
 28 32  1  0
 29 33  1  0
 31 34  1  0
 33 35  1  0
 35 36  1  0
 36 37  1  0
 37 38  1  0
 38 39  1  0
 38 40  1  0
 39 41  1  0
 41 42  1  0
 42 43  2  0
 42 44  1  0
 43 45  1  0
 44 46  2  0
 45 47  2  0
 47 48  1  0
 32 34  1  0
 46 47  1  0
 25 26  1  0
 25 27  1  0
 25 28  1  0
 26 29  1  0
 26 30  2  0
 49 50  2  0
 49 54  1  0
 50 51  1  0
 51 52  1  0
 51 53  2  0
 54 55  1  0
 54 56  2  0
  3 57  1  0
  3 58  1  0
  4 59  1  0
  4 60  1  0
  5 61  1  0
  7 62  1  0
  7 63  1  0
  8 64  1  0
  8 65  1  0
  9 66  1  0
  9 67  1  0
 11 68  1  0
 11 69  1  0
 12 70  1  0
 13 71  1  0
 13 72  1  0
 14 73  1  6
 15 74  1  0
 15 75  1  0
 16 76  1  0
 19 77  1  0
 20 78  1  0
 21 79  1  0
 22 80  1  0
 24 81  1  0
 27 82  1  0
 27 83  1  0
 28 84  1  0
 28 85  1  0
 29 86  1  0
 31 87  1  0
 31 88  1  0
 32 89  1  0
 32 90  1  0
 33 91  1  0
 33 92  1  0
 35 93  1  0
 35 94  1  0
 36 95  1  0
 37 96  1  0
 37 97  1  0
 38 98  1  6
 39 99  1  0
 39100  1  0
 40101  1  0
 43102  1  0
 44103  1  0
 45104  1  0
 46105  1  0
 48106  1  0
 49107  1  0
 50108  1  0
 52109  1  0
 55110  1  0
M  END
> <Uni-Dock RESULT> 
ENERGY=   -4.673  LOWER_BOUND=    2.277  UPPER_BOUND=   10.289
INTER + INTRA:          -4.673
INTER:                  -4.673
INTRA:                   0.000
UNBOUND:                 0.000

$$$$

     RDKit          3D

110111  0  0  0  0  0  0  0  0999 V2000
   47.2666   13.7603   12.7362 N   0  0  0  0  0  0  0  0  0  0  0  0
   47.3175   12.3840   12.6942 C   0  0  0  0  0  0  0  0  0  0  0  0
   46.3424   14.4751   11.8555 C   0  0  0  0  0  0  0  0  0  0  0  0
   47.9933   14.6313   13.6667 C   0  0  0  0  0  0  0  0  0  0  0  0
   48.3011   11.8210   13.4665 N   0  0  0  0  0  0  0  0  0  0  0  0
   46.5435   11.7055   12.0234 O   0  0  0  0  0  0  0  0  0  0  0  0
   45.4275   15.3953   12.6661 C   0  0  0  0  0  0  0  0  0  0  0  0
   47.0202   15.5625   14.4015 C   0  0  0  0  0  0  0  0  0  0  0  0
   48.5217   10.3851   13.4143 C   0  0  0  0  0  0  0  0  0  0  0  0
   46.1979   16.2961   13.4808 O   0  0  0  0  0  0  0  0  0  0  0  0
   49.3835    9.9980   12.2002 C   0  0  0  0  0  0  0  0  0  0  0  0
   50.6878   10.6825   12.2599 N   0  0  0  0  0  0  0  0  0  0  0  0
   51.4391   10.5760   10.9968 C   0  0  0  0  0  0  0  0  0  0  0  0
   51.9092    9.1492   10.6546 C   0  0  1  0  0  0  0  0  0  0  0  0
   52.8126    9.1618    9.4132 C   0  0  0  0  0  0  0  0  0  0  0  0
   52.6275    8.6271   11.7841 O   0  0  0  0  0  0  0  0  0  0  0  0
   52.8377    7.8677    8.8013 O   0  0  0  0  0  0  0  0  0  0  0  0
   53.8621    7.0101    9.0775 C   0  0  0  0  0  0  0  0  0  0  0  0
   54.8430    7.1694   10.0571 C   0  0  0  0  0  0  0  0  0  0  0  0
   53.8746    5.8591    8.2832 C   0  0  0  0  0  0  0  0  0  0  0  0
   55.8307    6.1925   10.2334 C   0  0  0  0  0  0  0  0  0  0  0  0
   54.8598    4.8852    8.4530 C   0  0  0  0  0  0  0  0  0  0  0  0
   55.8312    5.0583    9.4283 C   0  0  0  0  0  0  0  0  0  0  0  0
   56.7734    4.0833    9.5707 O   0  0  0  0  0  0  0  0  0  0  0  0
   46.9695   14.4406   12.6985 N   0  0  0  0  0  0  0  0  0  0  0  0
   48.2945   14.2752   13.0540 C   0  0  0  0  0  0  0  0  0  0  0  0
   46.1522   13.4435   11.9991 C   0  0  0  0  0  0  0  0  0  0  0  0
   46.2149   15.5462   13.2942 C   0  0  0  0  0  0  0  0  0  0  0  0
   48.8878   13.1413   12.5598 N   0  0  0  0  0  0  0  0  0  0  0  0
   48.8947   15.0628   13.7799 O   0  0  0  0  0  0  0  0  0  0  0  0
   44.7671   13.9927   11.6423 C   0  0  0  0  0  0  0  0  0  0  0  0
   44.8578   15.0516   13.8006 C   0  0  0  0  0  0  0  0  0  0  0  0
   50.2949   12.8946   12.8251 C   0  0  0  0  0  0  0  0  0  0  0  0
   44.0341   14.4648   12.7788 O   0  0  0  0  0  0  0  0  0  0  0  0
   50.6806   11.4334   12.5443 C   0  0  0  0  0  0  0  0  0  0  0  0
   52.1198   11.2210   12.7385 N   0  0  0  0  0  0  0  0  0  0  0  0
   52.4965    9.7954   12.7021 C   0  0  0  0  0  0  0  0  0  0  0  0
   52.2088    9.0664   11.3724 C   0  0  1  0  0  0  0  0  0  0  0  0
   53.0489    7.7838   11.2612 C   0  0  0  0  0  0  0  0  0  0  0  0
   50.8189    8.7016   11.3042 O   0  0  0  0  0  0  0  0  0  0  0  0
   52.7832    7.2037    9.9743 O   0  0  0  0  0  0  0  0  0  0  0  0
   53.6277    6.2031    9.5779 C   0  0  0  0  0  0  0  0  0  0  0  0
   54.4313    5.4383   10.4252 C   0  0  0  0  0  0  0  0  0  0  0  0
   53.6352    5.9451    8.2029 C   0  0  0  0  0  0  0  0  0  0  0  0
   55.2529    4.4404    9.8937 C   0  0  0  0  0  0  0  0  0  0  0  0
   54.4587    4.9496    7.6702 C   0  0  0  0  0  0  0  0  0  0  0  0
   55.2652    4.2057    8.5239 C   0  0  0  0  0  0  0  0  0  0  0  0
   56.0900    3.2275    8.0549 O   0  0  0  0  0  0  0  0  0  0  0  0
   50.2577   10.9449   11.0575 C   0  0  0  0  0  0  0  0  0  0  0  0
   50.7259    9.9021   11.7545 C   0  0  0  0  0  0  0  0  0  0  0  0
   51.6593    8.9780   11.1088 C   0  0  0  0  0  0  0  0  0  0  0  0
   51.9935    7.9929   11.9552 O   0  0  0  0  0  0  0  0  0  0  0  0
   52.0982    9.0469    9.9782 O   0  0  0  0  0  0  0  0  0  0  0  0
   49.3285   11.8733   11.7019 C   0  0  0  0  0  0  0  0  0  0  0  0
   48.9557   12.8306   10.8405 O   0  0  0  0  0  0  0  0  0  0  0  0
   48.9234   11.8316   12.8477 O   0  0  0  0  0  0  0  0  0  0  0  0
   45.7469   13.7879   11.2485 H   0  0  0  0  0  0  0  0  0  0  0  0
   46.9641   15.0742   11.1794 H   0  0  0  0  0  0  0  0  0  0  0  0
   48.6884   15.2232   13.0599 H   0  0  0  0  0  0  0  0  0  0  0  0
   48.5707   14.0629   14.4001 H   0  0  0  0  0  0  0  0  0  0  0  0
   49.1694   12.3362   13.4354 H   0  0  0  0  0  0  0  0  0  0  0  0
   44.8095   16.0000   11.9949 H   0  0  0  0  0  0  0  0  0  0  0  0
   44.7565   14.8208   13.3145 H   0  0  0  0  0  0  0  0  0  0  0  0
   47.5781   16.2881   15.0015 H   0  0  0  0  0  0  0  0  0  0  0  0
   46.3701   14.9960   15.0782 H   0  0  0  0  0  0  0  0  0  0  0  0
   47.5590    9.8636   13.3765 H   0  0  0  0  0  0  0  0  0  0  0  0
   49.0267   10.1039   14.3446 H   0  0  0  0  0  0  0  0  0  0  0  0
   49.5203    8.9119   12.1930 H   0  0  0  0  0  0  0  0  0  0  0  0
   48.8567   10.2772   11.2811 H   0  0  0  0  0  0  0  0  0  0  0  0
   51.2565   10.2597   12.9978 H   0  0  0  0  0  0  0  0  0  0  0  0
   52.3202   11.2191   11.1106 H   0  0  0  0  0  0  0  0  0  0  0  0
   50.8487   10.9964   10.1733 H   0  0  0  0  0  0  0  0  0  0  0  0
   51.0501    8.4931   10.4709 H   0  0  0  0  0  0  0  0  0  0  0  0
   53.8158    9.5499    9.6202 H   0  0  0  0  0  0  0  0  0  0  0  0
   52.3735    9.8251    8.6592 H   0  0  0  0  0  0  0  0  0  0  0  0
   52.0365    7.9850   12.2171 H   0  0  0  0  0  0  0  0  0  0  0  0
   54.8624    8.0325   10.7143 H   0  0  0  0  0  0  0  0  0  0  0  0
   53.1126    5.7220    7.5200 H   0  0  0  0  0  0  0  0  0  0  0  0
   56.5807    6.3359   11.0044 H   0  0  0  0  0  0  0  0  0  0  0  0
   54.8659    3.9981    7.8273 H   0  0  0  0  0  0  0  0  0  0  0  0
   57.3857    4.3471   10.2768 H   0  0  0  0  0  0  0  0  0  0  0  0
   46.6646   13.1202   11.0891 H   0  0  0  0  0  0  0  0  0  0  0  0
   46.0552   12.5836   12.6717 H   0  0  0  0  0  0  0  0  0  0  0  0
   46.0727   16.2909   12.5025 H   0  0  0  0  0  0  0  0  0  0  0  0
   46.7722   16.0188   14.1093 H   0  0  0  0  0  0  0  0  0  0  0  0
   48.5837   12.8806   11.6361 H   0  0  0  0  0  0  0  0  0  0  0  0
   44.1658   13.2146   11.1637 H   0  0  0  0  0  0  0  0  0  0  0  0
   44.8526   14.8232   10.9322 H   0  0  0  0  0  0  0  0  0  0  0  0
   44.2947   15.8779   14.2442 H   0  0  0  0  0  0  0  0  0  0  0  0
   44.9966   14.2939   14.5803 H   0  0  0  0  0  0  0  0  0  0  0  0
   50.5103   13.1487   13.8705 H   0  0  0  0  0  0  0  0  0  0  0  0
   50.8710   13.5791   12.1887 H   0  0  0  0  0  0  0  0  0  0  0  0
   50.0985   10.7817   13.2075 H   0  0  0  0  0  0  0  0  0  0  0  0
   50.4047   11.2007   11.5104 H   0  0  0  0  0  0  0  0  0  0  0  0
   52.3853   11.5978   13.6501 H   0  0  0  0  0  0  0  0  0  0  0  0
   52.0060    9.2739   13.5337 H   0  0  0  0  0  0  0  0  0  0  0  0
   53.5757    9.7669   12.8920 H   0  0  0  0  0  0  0  0  0  0  0  0
   52.4178    9.7170   10.5141 H   0  0  0  0  0  0  0  0  0  0  0  0
   52.7448    7.0730   12.0382 H   0  0  0  0  0  0  0  0  0  0  0  0
   54.1133    8.0304   11.3541 H   0  0  0  0  0  0  0  0  0  0  0  0
   50.7375    8.1140   10.5291 H   0  0  0  0  0  0  0  0  0  0  0  0
   54.4307    5.5825   11.5005 H   0  0  0  0  0  0  0  0  0  0  0  0
   53.0066    6.5342    7.5398 H   0  0  0  0  0  0  0  0  0  0  0  0
   55.8829    3.8455   10.5490 H   0  0  0  0  0  0  0  0  0  0  0  0
   54.4548    4.7729    6.5991 H   0  0  0  0  0  0  0  0  0  0  0  0
   55.9989    3.1814    7.0891 H   0  0  0  0  0  0  0  0  0  0  0  0
   50.5345   11.1391   10.0285 H   0  0  0  0  0  0  0  0  0  0  0  0
   50.4460    9.7059   12.7829 H   0  0  0  0  0  0  0  0  0  0  0  0
   52.6088    7.4315   11.4397 H   0  0  0  0  0  0  0  0  0  0  0  0
   48.3393   13.3908   11.3569 H   0  0  0  0  0  0  0  0  0  0  0  0
  3  7  1  0
  4  8  1  0
  5  9  1  0
  7 10  1  0
  9 11  1  0
 11 12  1  0
 12 13  1  0
 13 14  1  0
 14 15  1  0
 14 16  1  0
 15 17  1  0
 17 18  1  0
 18 19  2  0
 18 20  1  0
 19 21  1  0
 20 22  2  0
 21 23  2  0
 23 24  1  0
  8 10  1  0
 22 23  1  0
  1  2  1  0
  1  3  1  0
  1  4  1  0
  2  5  1  0
  2  6  2  0
 27 31  1  0
 28 32  1  0
 29 33  1  0
 31 34  1  0
 33 35  1  0
 35 36  1  0
 36 37  1  0
 37 38  1  0
 38 39  1  0
 38 40  1  0
 39 41  1  0
 41 42  1  0
 42 43  2  0
 42 44  1  0
 43 45  1  0
 44 46  2  0
 45 47  2  0
 47 48  1  0
 32 34  1  0
 46 47  1  0
 25 26  1  0
 25 27  1  0
 25 28  1  0
 26 29  1  0
 26 30  2  0
 49 50  2  0
 49 54  1  0
 50 51  1  0
 51 52  1  0
 51 53  2  0
 54 55  1  0
 54 56  2  0
  3 57  1  0
  3 58  1  0
  4 59  1  0
  4 60  1  0
  5 61  1  0
  7 62  1  0
  7 63  1  0
  8 64  1  0
  8 65  1  0
  9 66  1  0
  9 67  1  0
 11 68  1  0
 11 69  1  0
 12 70  1  0
 13 71  1  0
 13 72  1  0
 14 73  1  6
 15 74  1  0
 15 75  1  0
 16 76  1  0
 19 77  1  0
 20 78  1  0
 21 79  1  0
 22 80  1  0
 24 81  1  0
 27 82  1  0
 27 83  1  0
 28 84  1  0
 28 85  1  0
 29 86  1  0
 31 87  1  0
 31 88  1  0
 32 89  1  0
 32 90  1  0
 33 91  1  0
 33 92  1  0
 35 93  1  0
 35 94  1  0
 36 95  1  0
 37 96  1  0
 37 97  1  0
 38 98  1  6
 39 99  1  0
 39100  1  0
 40101  1  0
 43102  1  0
 44103  1  0
 45104  1  0
 46105  1  0
 48106  1  0
 49107  1  0
 50108  1  0
 52109  1  0
 55110  1  0
M  END
> <Uni-Dock RESULT> 
ENERGY=   -4.567  LOWER_BOUND=    4.857  UPPER_BOUND=    7.043
INTER + INTRA:          -4.567
INTER:                  -4.567
INTRA:                   0.000
UNBOUND:                 0.000

$$$$
