
     RDKit          3D

110111  0  0  0  0  0  0  0  0999 V2000
   49.9248   14.3197   22.1638 N   0  0  0  0  0  0  0  0  0  0  0  0
   48.9087   13.7461   21.4299 C   0  0  0  0  0  0  0  0  0  0  0  0
   50.2287   15.7347   21.9598 C   0  0  0  0  0  0  0  0  0  0  0  0
   50.6698   13.6701   23.2497 C   0  0  0  0  0  0  0  0  0  0  0  0
   48.7434   12.4014   21.6323 N   0  0  0  0  0  0  0  0  0  0  0  0
   48.1996   14.3865   20.6644 O   0  0  0  0  0  0  0  0  0  0  0  0
   51.7037   16.0212   22.2661 C   0  0  0  0  0  0  0  0  0  0  0  0
   51.2491   14.7011   24.2249 C   0  0  0  0  0  0  0  0  0  0  0  0
   47.7740   11.6455   20.8595 C   0  0  0  0  0  0  0  0  0  0  0  0
   52.1184   15.6485   23.5897 O   0  0  0  0  0  0  0  0  0  0  0  0
   48.3028   11.2943   19.4556 C   0  0  0  0  0  0  0  0  0  0  0  0
   47.3657   10.5851   18.5728 N   0  0  0  0  0  0  0  0  0  0  0  0
   46.9002    9.2861   19.0783 C   0  0  0  0  0  0  0  0  0  0  0  0
   47.9634    8.1908   19.3202 C   0  0  1  0  0  0  0  0  0  0  0  0
   48.9397    8.0215   18.1484 C   0  0  0  0  0  0  0  0  0  0  0  0
   48.6934    8.4544   20.5319 O   0  0  0  0  0  0  0  0  0  0  0  0
   49.8145    6.9176   18.4221 O   0  0  0  0  0  0  0  0  0  0  0  0
   49.5137    5.6844   17.9164 C   0  0  0  0  0  0  0  0  0  0  0  0
   48.3438    5.3196   17.2451 C   0  0  0  0  0  0  0  0  0  0  0  0
   50.5090    4.7228   18.1266 C   0  0  0  0  0  0  0  0  0  0  0  0
   48.1848    4.0132   16.7672 C   0  0  0  0  0  0  0  0  0  0  0  0
   50.3488    3.4179   17.6592 C   0  0  0  0  0  0  0  0  0  0  0  0
   49.1931    3.0757   16.9763 C   0  0  0  0  0  0  0  0  0  0  0  0
   49.0819    1.7995   16.5203 O   0  0  0  0  0  0  0  0  0  0  0  0
   50.3878   13.9203   21.5644 N   0  0  0  0  0  0  0  0  0  0  0  0
   49.7147   13.2148   20.5850 C   0  0  0  0  0  0  0  0  0  0  0  0
   49.8197   14.4037   22.8243 C   0  0  0  0  0  0  0  0  0  0  0  0
   51.7948   14.2542   21.3456 C   0  0  0  0  0  0  0  0  0  0  0  0
   48.4301   12.8634   20.8994 N   0  0  0  0  0  0  0  0  0  0  0  0
   50.2271   12.9369   19.5032 O   0  0  0  0  0  0  0  0  0  0  0  0
   50.6347   15.5716   23.3891 C   0  0  0  0  0  0  0  0  0  0  0  0
   52.5556   14.3137   22.6746 C   0  0  0  0  0  0  0  0  0  0  0  0
   47.6486   11.9962   20.0349 C   0  0  0  0  0  0  0  0  0  0  0  0
   52.0054   15.2311   23.6330 O   0  0  0  0  0  0  0  0  0  0  0  0
   47.2978   10.6553   20.7184 C   0  0  0  0  0  0  0  0  0  0  0  0
   48.3783   10.0227   21.4845 N   0  0  0  0  0  0  0  0  0  0  0  0
   49.5268    9.6076   20.6641 C   0  0  0  0  0  0  0  0  0  0  0  0
   49.6802    8.0824   20.4836 C   0  0  1  0  0  0  0  0  0  0  0  0
   48.5577    7.4740   19.6352 C   0  0  0  0  0  0  0  0  0  0  0  0
   50.9391    7.8149   19.8420 O   0  0  0  0  0  0  0  0  0  0  0  0
   48.8159    6.0610   19.5300 O   0  0  0  0  0  0  0  0  0  0  0  0
   48.3813    5.5275   18.3475 C   0  0  0  0  0  0  0  0  0  0  0  0
   48.9031    5.9292   17.1177 C   0  0  0  0  0  0  0  0  0  0  0  0
   47.4653    4.4796   18.4141 C   0  0  0  0  0  0  0  0  0  0  0  0
   48.4708    5.3144   15.9412 C   0  0  0  0  0  0  0  0  0  0  0  0
   47.0335    3.8627   17.2403 C   0  0  0  0  0  0  0  0  0  0  0  0
   47.5349    4.2882   16.0139 C   0  0  0  0  0  0  0  0  0  0  0  0
   47.0883    3.6571   14.8945 O   0  0  0  0  0  0  0  0  0  0  0  0
   49.2315    9.4416   20.8140 C   0  0  0  0  0  0  0  0  0  0  0  0
   49.0867   10.1903   19.7131 C   0  0  0  0  0  0  0  0  0  0  0  0
   49.4903    9.6416   18.4184 C   0  0  0  0  0  0  0  0  0  0  0  0
   49.2564   10.5349   17.4454 O   0  0  0  0  0  0  0  0  0  0  0  0
   49.9672    8.5456   18.1999 O   0  0  0  0  0  0  0  0  0  0  0  0
   48.8534    9.9007   22.1529 C   0  0  0  0  0  0  0  0  0  0  0  0
   48.3607   11.1484   22.1773 O   0  0  0  0  0  0  0  0  0  0  0  0
   48.9712    9.2362   23.1662 O   0  0  0  0  0  0  0  0  0  0  0  0
   49.9888   16.0373   20.9344 H   0  0  0  0  0  0  0  0  0  0  0  0
   49.5797   16.2987   22.6436 H   0  0  0  0  0  0  0  0  0  0  0  0
   51.4807   13.1015   22.7767 H   0  0  0  0  0  0  0  0  0  0  0  0
   50.0196   12.9706   23.7837 H   0  0  0  0  0  0  0  0  0  0  0  0
   49.5651   11.8931   21.9163 H   0  0  0  0  0  0  0  0  0  0  0  0
   52.3440   15.4770   21.5632 H   0  0  0  0  0  0  0  0  0  0  0  0
   51.9142   17.0862   22.1412 H   0  0  0  0  0  0  0  0  0  0  0  0
   51.8228   14.2018   25.0143 H   0  0  0  0  0  0  0  0  0  0  0  0
   50.4410   15.2612   24.7134 H   0  0  0  0  0  0  0  0  0  0  0  0
   46.8482   12.2275   20.7795 H   0  0  0  0  0  0  0  0  0  0  0  0
   47.5598   10.7422   21.4378 H   0  0  0  0  0  0  0  0  0  0  0  0
   49.2454   10.7424   19.5377 H   0  0  0  0  0  0  0  0  0  0  0  0
   48.5750   12.2234   18.9398 H   0  0  0  0  0  0  0  0  0  0  0  0
   46.5564   11.1915   18.4295 H   0  0  0  0  0  0  0  0  0  0  0  0
   46.2038    8.8984   18.3234 H   0  0  0  0  0  0  0  0  0  0  0  0
   46.3157    9.4408   19.9934 H   0  0  0  0  0  0  0  0  0  0  0  0
   47.4419    7.2426   19.4947 H   0  0  0  0  0  0  0  0  0  0  0  0
   49.6008    8.8938   18.0831 H   0  0  0  0  0  0  0  0  0  0  0  0
   48.4383    7.9374   17.1781 H   0  0  0  0  0  0  0  0  0  0  0  0
   49.4214    7.8030   20.5404 H   0  0  0  0  0  0  0  0  0  0  0  0
   47.5321    6.0203   17.0825 H   0  0  0  0  0  0  0  0  0  0  0  0
   51.4206    4.9935   18.6533 H   0  0  0  0  0  0  0  0  0  0  0  0
   47.2763    3.7503   16.2336 H   0  0  0  0  0  0  0  0  0  0  0  0
   51.1312    2.6794   17.8146 H   0  0  0  0  0  0  0  0  0  0  0  0
   48.2434    1.7101   16.0365 H   0  0  0  0  0  0  0  0  0  0  0  0
   49.8454   13.5581   23.5201 H   0  0  0  0  0  0  0  0  0  0  0  0
   48.7810   14.7059   22.6752 H   0  0  0  0  0  0  0  0  0  0  0  0
   52.2661   13.5322   20.6718 H   0  0  0  0  0  0  0  0  0  0  0  0
   51.8093   15.2349   20.8546 H   0  0  0  0  0  0  0  0  0  0  0  0
   48.2138   12.8011   21.8812 H   0  0  0  0  0  0  0  0  0  0  0  0
   50.2037   15.9141   24.3360 H   0  0  0  0  0  0  0  0  0  0  0  0
   50.6215   16.4190   22.6967 H   0  0  0  0  0  0  0  0  0  0  0  0
   53.5966   14.6053   22.5000 H   0  0  0  0  0  0  0  0  0  0  0  0
   52.5669   13.3222   23.1444 H   0  0  0  0  0  0  0  0  0  0  0  0
   48.1728   11.8178   19.0896 H   0  0  0  0  0  0  0  0  0  0  0  0
   46.7230   12.5321   19.7981 H   0  0  0  0  0  0  0  0  0  0  0  0
   46.8876    9.9614   19.9763 H   0  0  0  0  0  0  0  0  0  0  0  0
   46.4875   10.8579   21.4332 H   0  0  0  0  0  0  0  0  0  0  0  0
   48.0228    9.2350   22.0266 H   0  0  0  0  0  0  0  0  0  0  0  0
   50.4297    9.9795   21.1672 H   0  0  0  0  0  0  0  0  0  0  0  0
   49.5399   10.0877   19.6786 H   0  0  0  0  0  0  0  0  0  0  0  0
   49.7256    7.5866   21.4600 H   0  0  0  0  0  0  0  0  0  0  0  0
   47.5837    7.5985   20.1223 H   0  0  0  0  0  0  0  0  0  0  0  0
   48.5276    7.9646   18.6560 H   0  0  0  0  0  0  0  0  0  0  0  0
   50.9442    6.8539   19.6660 H   0  0  0  0  0  0  0  0  0  0  0  0
   49.6642    6.7026   17.0677 H   0  0  0  0  0  0  0  0  0  0  0  0
   47.0879    4.1451   19.3759 H   0  0  0  0  0  0  0  0  0  0  0  0
   48.8821    5.6409   14.9912 H   0  0  0  0  0  0  0  0  0  0  0  0
   46.3195    3.0463   17.2828 H   0  0  0  0  0  0  0  0  0  0  0  0
   47.4465    4.1193   14.1127 H   0  0  0  0  0  0  0  0  0  0  0  0
   49.6440    8.4388   20.7756 H   0  0  0  0  0  0  0  0  0  0  0  0
   48.6751   11.1909   19.7286 H   0  0  0  0  0  0  0  0  0  0  0  0
   49.5462   10.0740   16.6312 H   0  0  0  0  0  0  0  0  0  0  0  0
   48.1619   11.3052   23.1243 H   0  0  0  0  0  0  0  0  0  0  0  0
  3  7  1  0
  4  8  1  0
  5  9  1  0
  7 10  1  0
  9 11  1  0
 11 12  1  0
 12 13  1  0
 13 14  1  0
 14 15  1  0
 14 16  1  0
 15 17  1  0
 17 18  1  0
 18 19  2  0
 18 20  1  0
 19 21  1  0
 20 22  2  0
 21 23  2  0
 23 24  1  0
  8 10  1  0
 22 23  1  0
  1  2  1  0
  1  3  1  0
  1  4  1  0
  2  5  1  0
  2  6  2  0
 27 31  1  0
 28 32  1  0
 29 33  1  0
 31 34  1  0
 33 35  1  0
 35 36  1  0
 36 37  1  0
 37 38  1  0
 38 39  1  0
 38 40  1  0
 39 41  1  0
 41 42  1  0
 42 43  2  0
 42 44  1  0
 43 45  1  0
 44 46  2  0
 45 47  2  0
 47 48  1  0
 32 34  1  0
 46 47  1  0
 25 26  1  0
 25 27  1  0
 25 28  1  0
 26 29  1  0
 26 30  2  0
 49 50  2  0
 49 54  1  0
 50 51  1  0
 51 52  1  0
 51 53  2  0
 54 55  1  0
 54 56  2  0
  3 57  1  0
  3 58  1  0
  4 59  1  0
  4 60  1  0
  5 61  1  0
  7 62  1  0
  7 63  1  0
  8 64  1  0
  8 65  1  0
  9 66  1  0
  9 67  1  0
 11 68  1  0
 11 69  1  0
 12 70  1  0
 13 71  1  0
 13 72  1  0
 14 73  1  6
 15 74  1  0
 15 75  1  0
 16 76  1  0
 19 77  1  0
 20 78  1  0
 21 79  1  0
 22 80  1  0
 24 81  1  0
 27 82  1  0
 27 83  1  0
 28 84  1  0
 28 85  1  0
 29 86  1  0
 31 87  1  0
 31 88  1  0
 32 89  1  0
 32 90  1  0
 33 91  1  0
 33 92  1  0
 35 93  1  0
 35 94  1  0
 36 95  1  0
 37 96  1  0
 37 97  1  0
 38 98  1  6
 39 99  1  0
 39100  1  0
 40101  1  0
 43102  1  0
 44103  1  0
 45104  1  0
 46105  1  0
 48106  1  0
 49107  1  0
 50108  1  0
 52109  1  0
 55110  1  0
M  END
> <Uni-Dock RESULT> 
ENERGY=   -5.319  LOWER_BOUND=    0.000  UPPER_BOUND=    0.000
INTER + INTRA:          -5.319
INTER:                  -5.319
INTRA:                   0.000
UNBOUND:                 0.000

$$$$

     RDKit          3D

110111  0  0  0  0  0  0  0  0999 V2000
   52.7263   11.8254   15.2245 N   0  0  0  0  0  0  0  0  0  0  0  0
   51.7510   11.9184   14.2548 C   0  0  0  0  0  0  0  0  0  0  0  0
   54.0497   12.3808   14.9479 C   0  0  0  0  0  0  0  0  0  0  0  0
   52.5310   11.3250   16.5912 C   0  0  0  0  0  0  0  0  0  0  0  0
   50.5669   11.3069   14.5716 N   0  0  0  0  0  0  0  0  0  0  0  0
   51.9215   12.5100   13.1965 O   0  0  0  0  0  0  0  0  0  0  0  0
   55.1279   11.6296   15.7383 C   0  0  0  0  0  0  0  0  0  0  0  0
   53.5736   11.9056   17.5532 C   0  0  0  0  0  0  0  0  0  0  0  0
   49.4810   11.2431   13.6099 C   0  0  0  0  0  0  0  0  0  0  0  0
   54.9225   11.6183   17.1597 O   0  0  0  0  0  0  0  0  0  0  0  0
   49.6951   10.1256   12.5710 C   0  0  0  0  0  0  0  0  0  0  0  0
   48.6789   10.0251   11.5139 N   0  0  0  0  0  0  0  0  0  0  0  0
   47.3125    9.7678   11.9898 C   0  0  0  0  0  0  0  0  0  0  0  0
   47.0613    8.4550   12.7657 C   0  0  1  0  0  0  0  0  0  0  0  0
   47.6604    7.2195   12.0806 C   0  0  0  0  0  0  0  0  0  0  0  0
   47.5612    8.5599   14.1110 O   0  0  0  0  0  0  0  0  0  0  0  0
   47.2849    6.0464   12.8165 O   0  0  0  0  0  0  0  0  0  0  0  0
   46.1936    5.3274   12.4177 C   0  0  0  0  0  0  0  0  0  0  0  0
   45.2824    5.6777   11.4180 C   0  0  0  0  0  0  0  0  0  0  0  0
   46.0107    4.1304   13.1201 C   0  0  0  0  0  0  0  0  0  0  0  0
   44.2155    4.8256   11.1081 C   0  0  0  0  0  0  0  0  0  0  0  0
   44.9429    3.2841   12.8192 C   0  0  0  0  0  0  0  0  0  0  0  0
   44.0595    3.6334   11.8109 C   0  0  0  0  0  0  0  0  0  0  0  0
   43.0426    2.7741   11.5346 O   0  0  0  0  0  0  0  0  0  0  0  0
   52.7643   11.0318   14.9054 N   0  0  0  0  0  0  0  0  0  0  0  0
   51.9221   10.7107   13.8577 C   0  0  0  0  0  0  0  0  0  0  0  0
   52.6483   12.2013   15.7785 C   0  0  0  0  0  0  0  0  0  0  0  0
   53.9031   10.1569   15.1823 C   0  0  0  0  0  0  0  0  0  0  0  0
   50.8316   11.5252   13.7166 N   0  0  0  0  0  0  0  0  0  0  0  0
   52.1447    9.7713   13.0974 O   0  0  0  0  0  0  0  0  0  0  0  0
   53.9911   12.5413   16.4328 C   0  0  0  0  0  0  0  0  0  0  0  0
   54.2465   10.1626   16.6758 C   0  0  0  0  0  0  0  0  0  0  0  0
   49.7826   11.2274   12.7570 C   0  0  0  0  0  0  0  0  0  0  0  0
   54.5200   11.4645   17.2171 O   0  0  0  0  0  0  0  0  0  0  0  0
   48.4306   10.9321   13.4449 C   0  0  0  0  0  0  0  0  0  0  0  0
   48.4903   10.0837   14.6413 N   0  0  0  0  0  0  0  0  0  0  0  0
   48.9566    8.7135   14.3778 C   0  0  0  0  0  0  0  0  0  0  0  0
   47.8694    7.6235   14.4885 C   0  0  1  0  0  0  0  0  0  0  0  0
   46.8165    7.7270   13.3792 C   0  0  0  0  0  0  0  0  0  0  0  0
   48.4968    6.3319   14.4090 O   0  0  0  0  0  0  0  0  0  0  0  0
   45.8718    6.6591   13.5821 O   0  0  0  0  0  0  0  0  0  0  0  0
   45.3339    6.1956   12.4126 C   0  0  0  0  0  0  0  0  0  0  0  0
   46.1159    5.6001   11.4226 C   0  0  0  0  0  0  0  0  0  0  0  0
   43.9473    6.2390   12.2820 C   0  0  0  0  0  0  0  0  0  0  0  0
   45.5145    5.0885   10.2711 C   0  0  0  0  0  0  0  0  0  0  0  0
   43.3443    5.7269   11.1335 C   0  0  0  0  0  0  0  0  0  0  0  0
   44.1323    5.1612   10.1357 C   0  0  0  0  0  0  0  0  0  0  0  0
   43.5025    4.6718    9.0336 O   0  0  0  0  0  0  0  0  0  0  0  0
   48.6293    8.8792   14.4288 C   0  0  0  0  0  0  0  0  0  0  0  0
   49.2666    9.0103   13.2582 C   0  0  0  0  0  0  0  0  0  0  0  0
   49.2363    7.9043   12.3011 C   0  0  0  0  0  0  0  0  0  0  0  0
   49.9181    8.2335   11.1938 O   0  0  0  0  0  0  0  0  0  0  0  0
   48.6871    6.8288   12.4362 O   0  0  0  0  0  0  0  0  0  0  0  0
   48.5990    9.9304   15.4488 C   0  0  0  0  0  0  0  0  0  0  0  0
   49.2819   11.0339   15.1081 O   0  0  0  0  0  0  0  0  0  0  0  0
   48.0224    9.8355   16.5169 O   0  0  0  0  0  0  0  0  0  0  0  0
   54.2689   12.3405   13.8751 H   0  0  0  0  0  0  0  0  0  0  0  0
   54.0188   13.4362   15.2513 H   0  0  0  0  0  0  0  0  0  0  0  0
   52.6302   10.2331   16.5421 H   0  0  0  0  0  0  0  0  0  0  0  0
   51.5221   11.5678   16.9382 H   0  0  0  0  0  0  0  0  0  0  0  0
   50.6274   10.5317   15.2117 H   0  0  0  0  0  0  0  0  0  0  0  0
   55.1715   10.5849   15.4112 H   0  0  0  0  0  0  0  0  0  0  0  0
   56.1094   12.0713   15.5495 H   0  0  0  0  0  0  0  0  0  0  0  0
   53.4297   11.5030   18.5626 H   0  0  0  0  0  0  0  0  0  0  0  0
   53.4675   12.9963   17.6189 H   0  0  0  0  0  0  0  0  0  0  0  0
   49.3907   12.2135   13.1073 H   0  0  0  0  0  0  0  0  0  0  0  0
   48.5691   11.0734   14.1896 H   0  0  0  0  0  0  0  0  0  0  0  0
   49.8189    9.1623   13.0775 H   0  0  0  0  0  0  0  0  0  0  0  0
   50.6546   10.2936   12.0666 H   0  0  0  0  0  0  0  0  0  0  0  0
   48.6859   10.9038   10.9933 H   0  0  0  0  0  0  0  0  0  0  0  0
   46.6792    9.7389   11.0935 H   0  0  0  0  0  0  0  0  0  0  0  0
   46.9697   10.6208   12.5880 H   0  0  0  0  0  0  0  0  0  0  0  0
   45.9781    8.3213   12.8670 H   0  0  0  0  0  0  0  0  0  0  0  0
   48.7548    7.2510   12.1424 H   0  0  0  0  0  0  0  0  0  0  0  0
   47.4104    7.1529   11.0161 H   0  0  0  0  0  0  0  0  0  0  0  0
   47.4861    7.6602   14.4841 H   0  0  0  0  0  0  0  0  0  0  0  0
   45.3647    6.6073   10.8653 H   0  0  0  0  0  0  0  0  0  0  0  0
   46.7096    3.8508   13.9043 H   0  0  0  0  0  0  0  0  0  0  0  0
   43.5255    5.1051   10.3177 H   0  0  0  0  0  0  0  0  0  0  0  0
   44.8141    2.3497   13.3598 H   0  0  0  0  0  0  0  0  0  0  0  0
   42.5255    3.1271   10.7910 H   0  0  0  0  0  0  0  0  0  0  0  0
   51.9122   11.9419   16.5472 H   0  0  0  0  0  0  0  0  0  0  0  0
   52.2778   13.0573   15.2107 H   0  0  0  0  0  0  0  0  0  0  0  0
   53.7011    9.1359   14.8443 H   0  0  0  0  0  0  0  0  0  0  0  0
   54.7448   10.5469   14.5969 H   0  0  0  0  0  0  0  0  0  0  0  0
   50.5318   12.0142   14.5446 H   0  0  0  0  0  0  0  0  0  0  0  0
   53.8851   13.4107   17.0906 H   0  0  0  0  0  0  0  0  0  0  0  0
   54.7357   12.7943   15.6717 H   0  0  0  0  0  0  0  0  0  0  0  0
   55.1257    9.5371   16.8626 H   0  0  0  0  0  0  0  0  0  0  0  0
   53.4145    9.7399   17.2529 H   0  0  0  0  0  0  0  0  0  0  0  0
   50.0740   10.3912   12.1119 H   0  0  0  0  0  0  0  0  0  0  0  0
   49.6753   12.1102   12.1175 H   0  0  0  0  0  0  0  0  0  0  0  0
   47.7271   10.5230   12.7112 H   0  0  0  0  0  0  0  0  0  0  0  0
   48.0138   11.8965   13.7684 H   0  0  0  0  0  0  0  0  0  0  0  0
   47.5887   10.0690   15.1184 H   0  0  0  0  0  0  0  0  0  0  0  0
   49.7329    8.4916   15.1226 H   0  0  0  0  0  0  0  0  0  0  0  0
   49.4634    8.6164   13.4105 H   0  0  0  0  0  0  0  0  0  0  0  0
   47.3866    7.6665   15.4716 H   0  0  0  0  0  0  0  0  0  0  0  0
   46.2673    8.6734   13.4441 H   0  0  0  0  0  0  0  0  0  0  0  0
   47.3048    7.6691   12.4001 H   0  0  0  0  0  0  0  0  0  0  0  0
   47.7641    5.6859   14.3876 H   0  0  0  0  0  0  0  0  0  0  0  0
   47.1906    5.5078   11.5500 H   0  0  0  0  0  0  0  0  0  0  0  0
   43.3382    6.6710   13.0706 H   0  0  0  0  0  0  0  0  0  0  0  0
   46.1363    4.6324    9.5072 H   0  0  0  0  0  0  0  0  0  0  0  0
   42.2649    5.7574   11.0230 H   0  0  0  0  0  0  0  0  0  0  0  0
   44.1786    4.3984    8.3844 H   0  0  0  0  0  0  0  0  0  0  0  0
   48.0927    7.9735   14.6915 H   0  0  0  0  0  0  0  0  0  0  0  0
   49.8049    9.9053   12.9752 H   0  0  0  0  0  0  0  0  0  0  0  0
   49.8295    7.4432   10.6220 H   0  0  0  0  0  0  0  0  0  0  0  0
   49.1696   11.6285   15.8792 H   0  0  0  0  0  0  0  0  0  0  0  0
  3  7  1  0
  4  8  1  0
  5  9  1  0
  7 10  1  0
  9 11  1  0
 11 12  1  0
 12 13  1  0
 13 14  1  0
 14 15  1  0
 14 16  1  0
 15 17  1  0
 17 18  1  0
 18 19  2  0
 18 20  1  0
 19 21  1  0
 20 22  2  0
 21 23  2  0
 23 24  1  0
  8 10  1  0
 22 23  1  0
  1  2  1  0
  1  3  1  0
  1  4  1  0
  2  5  1  0
  2  6  2  0
 27 31  1  0
 28 32  1  0
 29 33  1  0
 31 34  1  0
 33 35  1  0
 35 36  1  0
 36 37  1  0
 37 38  1  0
 38 39  1  0
 38 40  1  0
 39 41  1  0
 41 42  1  0
 42 43  2  0
 42 44  1  0
 43 45  1  0
 44 46  2  0
 45 47  2  0
 47 48  1  0
 32 34  1  0
 46 47  1  0
 25 26  1  0
 25 27  1  0
 25 28  1  0
 26 29  1  0
 26 30  2  0
 49 50  2  0
 49 54  1  0
 50 51  1  0
 51 52  1  0
 51 53  2  0
 54 55  1  0
 54 56  2  0
  3 57  1  0
  3 58  1  0
  4 59  1  0
  4 60  1  0
  5 61  1  0
  7 62  1  0
  7 63  1  0
  8 64  1  0
  8 65  1  0
  9 66  1  0
  9 67  1  0
 11 68  1  0
 11 69  1  0
 12 70  1  0
 13 71  1  0
 13 72  1  0
 14 73  1  6
 15 74  1  0
 15 75  1  0
 16 76  1  0
 19 77  1  0
 20 78  1  0
 21 79  1  0
 22 80  1  0
 24 81  1  0
 27 82  1  0
 27 83  1  0
 28 84  1  0
 28 85  1  0
 29 86  1  0
 31 87  1  0
 31 88  1  0
 32 89  1  0
 32 90  1  0
 33 91  1  0
 33 92  1  0
 35 93  1  0
 35 94  1  0
 36 95  1  0
 37 96  1  0
 37 97  1  0
 38 98  1  6
 39 99  1  0
 39100  1  0
 40101  1  0
 43102  1  0
 44103  1  0
 45104  1  0
 46105  1  0
 48106  1  0
 49107  1  0
 50108  1  0
 52109  1  0
 55110  1  0
M  END
> <Uni-Dock RESULT> 
ENERGY=   -5.104  LOWER_BOUND=    5.436  UPPER_BOUND=    7.167
INTER + INTRA:          -5.104
INTER:                  -5.104
INTRA:                   0.000
UNBOUND:                 0.000

$$$$

     RDKit          3D

110111  0  0  0  0  0  0  0  0999 V2000
   47.9030    7.1650   21.5742 N   0  0  0  0  0  0  0  0  0  0  0  0
   47.3270    8.4165   21.5274 C   0  0  0  0  0  0  0  0  0  0  0  0
   47.9468    6.4572   22.8523 C   0  0  0  0  0  0  0  0  0  0  0  0
   48.3765    6.3957   20.4165 C   0  0  0  0  0  0  0  0  0  0  0  0
   47.3964    9.0346   20.3070 N   0  0  0  0  0  0  0  0  0  0  0  0
   46.7847    8.9342   22.4954 O   0  0  0  0  0  0  0  0  0  0  0  0
   49.1456    5.5022   22.9013 C   0  0  0  0  0  0  0  0  0  0  0  0
   48.3739    4.8906   20.7067 C   0  0  0  0  0  0  0  0  0  0  0  0
   46.9150   10.3933   20.1319 C   0  0  0  0  0  0  0  0  0  0  0  0
   49.1785    4.5356   21.8396 O   0  0  0  0  0  0  0  0  0  0  0  0
   47.9323   11.4353   20.6351 C   0  0  0  0  0  0  0  0  0  0  0  0
   47.5064   12.8401   20.5605 N   0  0  0  0  0  0  0  0  0  0  0  0
   47.1912   13.3214   19.2082 C   0  0  0  0  0  0  0  0  0  0  0  0
   48.3267   13.3017   18.1599 C   0  0  1  0  0  0  0  0  0  0  0  0
   49.6423   13.8987   18.6772 C   0  0  0  0  0  0  0  0  0  0  0  0
   48.5504   11.9628   17.6827 O   0  0  0  0  0  0  0  0  0  0  0  0
   50.5957   13.9327   17.6055 O   0  0  0  0  0  0  0  0  0  0  0  0
   50.7460   15.0807   16.8800 C   0  0  0  0  0  0  0  0  0  0  0  0
   49.9634   16.2347   16.9709 C   0  0  0  0  0  0  0  0  0  0  0  0
   51.8007   15.0411   15.9603 C   0  0  0  0  0  0  0  0  0  0  0  0
   50.2509   17.3452   16.1681 C   0  0  0  0  0  0  0  0  0  0  0  0
   52.0833   16.1434   15.1528 C   0  0  0  0  0  0  0  0  0  0  0  0
   51.3127   17.2887   15.2688 C   0  0  0  0  0  0  0  0  0  0  0  0
   51.6306   18.3481   14.4780 O   0  0  0  0  0  0  0  0  0  0  0  0
   48.6093    7.6490   21.5816 N   0  0  0  0  0  0  0  0  0  0  0  0
   48.4571    9.0225   21.5627 C   0  0  0  0  0  0  0  0  0  0  0  0
   47.5741    6.6617   21.2694 C   0  0  0  0  0  0  0  0  0  0  0  0
   49.9054    7.0929   21.9684 C   0  0  0  0  0  0  0  0  0  0  0  0
   47.2465    9.4679   21.1062 N   0  0  0  0  0  0  0  0  0  0  0  0
   49.3393    9.7885   21.9435 O   0  0  0  0  0  0  0  0  0  0  0  0
   47.8926    5.3038   21.9031 C   0  0  0  0  0  0  0  0  0  0  0  0
   50.1632    5.7606   21.2564 C   0  0  0  0  0  0  0  0  0  0  0  0
   46.9918   10.8816   20.8897 C   0  0  0  0  0  0  0  0  0  0  0  0
   49.1495    4.7663   21.4724 O   0  0  0  0  0  0  0  0  0  0  0  0
   46.7335   11.2057   19.4010 C   0  0  0  0  0  0  0  0  0  0  0  0
   47.6162   10.5393   18.4359 N   0  0  0  0  0  0  0  0  0  0  0  0
   49.0292   10.9328   18.5498 C   0  0  0  0  0  0  0  0  0  0  0  0
   49.5550   11.8120   17.3954 C   0  0  1  0  0  0  0  0  0  0  0  0
   48.9255   13.2098   17.3858 C   0  0  0  0  0  0  0  0  0  0  0  0
   50.9803   11.9496   17.5284 O   0  0  0  0  0  0  0  0  0  0  0  0
   49.4995   13.9323   16.2801 O   0  0  0  0  0  0  0  0  0  0  0  0
   49.5962   15.2764   16.5159 C   0  0  0  0  0  0  0  0  0  0  0  0
   50.3898   15.7934   17.5402 C   0  0  0  0  0  0  0  0  0  0  0  0
   48.9544   16.1327   15.6235 C   0  0  0  0  0  0  0  0  0  0  0  0
   50.5041   17.1750   17.7056 C   0  0  0  0  0  0  0  0  0  0  0  0
   49.0686   17.5131   15.7857 C   0  0  0  0  0  0  0  0  0  0  0  0
   49.8374   18.0229   16.8277 C   0  0  0  0  0  0  0  0  0  0  0  0
   49.9233   19.3752   16.9475 O   0  0  0  0  0  0  0  0  0  0  0  0
   48.7440   11.0212   18.3306 C   0  0  0  0  0  0  0  0  0  0  0  0
   48.8073   11.5168   19.5732 C   0  0  0  0  0  0  0  0  0  0  0  0
   49.7161   12.6286   19.8529 C   0  0  0  0  0  0  0  0  0  0  0  0
   49.6249   12.9859   21.1426 O   0  0  0  0  0  0  0  0  0  0  0  0
   50.4606   13.1853   19.0705 O   0  0  0  0  0  0  0  0  0  0  0  0
   47.8635    9.9132   17.9519 C   0  0  0  0  0  0  0  0  0  0  0  0
   47.1349    9.4297   18.9694 O   0  0  0  0  0  0  0  0  0  0  0  0
   47.7856    9.4501   16.8286 O   0  0  0  0  0  0  0  0  0  0  0  0
   47.9933    7.1672   23.6855 H   0  0  0  0  0  0  0  0  0  0  0  0
   47.0065    5.8949   22.9341 H   0  0  0  0  0  0  0  0  0  0  0  0
   49.3985    6.7380   20.2099 H   0  0  0  0  0  0  0  0  0  0  0  0
   47.7537    6.6118   19.5432 H   0  0  0  0  0  0  0  0  0  0  0  0
   48.1702    8.7682   19.7202 H   0  0  0  0  0  0  0  0  0  0  0  0
   50.0798    6.0720   22.8468 H   0  0  0  0  0  0  0  0  0  0  0  0
   49.1525    4.9550   23.8471 H   0  0  0  0  0  0  0  0  0  0  0  0
   48.7535    4.3331   19.8426 H   0  0  0  0  0  0  0  0  0  0  0  0
   47.3512    4.5399   20.8975 H   0  0  0  0  0  0  0  0  0  0  0  0
   45.9634   10.5071   20.6645 H   0  0  0  0  0  0  0  0  0  0  0  0
   46.7232   10.5139   19.0618 H   0  0  0  0  0  0  0  0  0  0  0  0
   48.8923   11.2976   20.1259 H   0  0  0  0  0  0  0  0  0  0  0  0
   48.1518   11.2314   21.6903 H   0  0  0  0  0  0  0  0  0  0  0  0
   46.6774   12.9437   21.1481 H   0  0  0  0  0  0  0  0  0  0  0  0
   46.8769   14.3669   19.3237 H   0  0  0  0  0  0  0  0  0  0  0  0
   46.3230   12.7743   18.8212 H   0  0  0  0  0  0  0  0  0  0  0  0
   47.9922   13.8708   17.2849 H   0  0  0  0  0  0  0  0  0  0  0  0
   50.0864   13.2327   19.4266 H   0  0  0  0  0  0  0  0  0  0  0  0
   49.5127   14.8719   19.1632 H   0  0  0  0  0  0  0  0  0  0  0  0
   49.3578   12.0164   17.1353 H   0  0  0  0  0  0  0  0  0  0  0  0
   49.1182   16.3042   17.6471 H   0  0  0  0  0  0  0  0  0  0  0  0
   52.4122   14.1463   15.8763 H   0  0  0  0  0  0  0  0  0  0  0  0
   49.6428   18.2398   16.2625 H   0  0  0  0  0  0  0  0  0  0  0  0
   52.9118   16.1105   14.4498 H   0  0  0  0  0  0  0  0  0  0  0  0
   51.0339   19.0867   14.6863 H   0  0  0  0  0  0  0  0  0  0  0  0
   47.5530    6.5700   20.1781 H   0  0  0  0  0  0  0  0  0  0  0  0
   46.6006    7.0188   21.6118 H   0  0  0  0  0  0  0  0  0  0  0  0
   50.7125    7.7997   21.7524 H   0  0  0  0  0  0  0  0  0  0  0  0
   49.8683    6.9431   23.0543 H   0  0  0  0  0  0  0  0  0  0  0  0
   46.7423    8.8416   20.4994 H   0  0  0  0  0  0  0  0  0  0  0  0
   47.1153    4.5742   21.6513 H   0  0  0  0  0  0  0  0  0  0  0  0
   47.9237    5.3872   22.9939 H   0  0  0  0  0  0  0  0  0  0  0  0
   51.1168    5.3354   21.5865 H   0  0  0  0  0  0  0  0  0  0  0  0
   50.2333    5.9221   20.1734 H   0  0  0  0  0  0  0  0  0  0  0  0
   47.8193   11.4874   21.2749 H   0  0  0  0  0  0  0  0  0  0  0  0
   46.1010   11.1381   21.4734 H   0  0  0  0  0  0  0  0  0  0  0  0
   46.7443   12.2915   19.2545 H   0  0  0  0  0  0  0  0  0  0  0  0
   45.7118   10.8727   19.1690 H   0  0  0  0  0  0  0  0  0  0  0  0
   47.2812   10.6813   17.4828 H   0  0  0  0  0  0  0  0  0  0  0  0
   49.6187   10.0060   18.5625 H   0  0  0  0  0  0  0  0  0  0  0  0
   49.2580   11.4211   19.5044 H   0  0  0  0  0  0  0  0  0  0  0  0
   49.3863   11.3162   16.4325 H   0  0  0  0  0  0  0  0  0  0  0  0
   47.8434   13.1536   17.2204 H   0  0  0  0  0  0  0  0  0  0  0  0
   49.1102   13.7045   18.3458 H   0  0  0  0  0  0  0  0  0  0  0  0
   51.2474   12.5863   16.8370 H   0  0  0  0  0  0  0  0  0  0  0  0
   50.9421   15.1291   18.1986 H   0  0  0  0  0  0  0  0  0  0  0  0
   48.3663   15.7272   14.8054 H   0  0  0  0  0  0  0  0  0  0  0  0
   51.1212   17.5626   18.5101 H   0  0  0  0  0  0  0  0  0  0  0  0
   48.5714   18.1874   15.0957 H   0  0  0  0  0  0  0  0  0  0  0  0
   50.4080   19.5848   17.7686 H   0  0  0  0  0  0  0  0  0  0  0  0
   49.3509   11.4177   17.5233 H   0  0  0  0  0  0  0  0  0  0  0  0
   48.2091   11.1385   20.3917 H   0  0  0  0  0  0  0  0  0  0  0  0
   50.2544   13.7320   21.2228 H   0  0  0  0  0  0  0  0  0  0  0  0
   46.6113    8.7077   18.5628 H   0  0  0  0  0  0  0  0  0  0  0  0
  3  7  1  0
  4  8  1  0
  5  9  1  0
  7 10  1  0
  9 11  1  0
 11 12  1  0
 12 13  1  0
 13 14  1  0
 14 15  1  0
 14 16  1  0
 15 17  1  0
 17 18  1  0
 18 19  2  0
 18 20  1  0
 19 21  1  0
 20 22  2  0
 21 23  2  0
 23 24  1  0
  8 10  1  0
 22 23  1  0
  1  2  1  0
  1  3  1  0
  1  4  1  0
  2  5  1  0
  2  6  2  0
 27 31  1  0
 28 32  1  0
 29 33  1  0
 31 34  1  0
 33 35  1  0
 35 36  1  0
 36 37  1  0
 37 38  1  0
 38 39  1  0
 38 40  1  0
 39 41  1  0
 41 42  1  0
 42 43  2  0
 42 44  1  0
 43 45  1  0
 44 46  2  0
 45 47  2  0
 47 48  1  0
 32 34  1  0
 46 47  1  0
 25 26  1  0
 25 27  1  0
 25 28  1  0
 26 29  1  0
 26 30  2  0
 49 50  2  0
 49 54  1  0
 50 51  1  0
 51 52  1  0
 51 53  2  0
 54 55  1  0
 54 56  2  0
  3 57  1  0
  3 58  1  0
  4 59  1  0
  4 60  1  0
  5 61  1  0
  7 62  1  0
  7 63  1  0
  8 64  1  0
  8 65  1  0
  9 66  1  0
  9 67  1  0
 11 68  1  0
 11 69  1  0
 12 70  1  0
 13 71  1  0
 13 72  1  0
 14 73  1  6
 15 74  1  0
 15 75  1  0
 16 76  1  0
 19 77  1  0
 20 78  1  0
 21 79  1  0
 22 80  1  0
 24 81  1  0
 27 82  1  0
 27 83  1  0
 28 84  1  0
 28 85  1  0
 29 86  1  0
 31 87  1  0
 31 88  1  0
 32 89  1  0
 32 90  1  0
 33 91  1  0
 33 92  1  0
 35 93  1  0
 35 94  1  0
 36 95  1  0
 37 96  1  0
 37 97  1  0
 38 98  1  6
 39 99  1  0
 39100  1  0
 40101  1  0
 43102  1  0
 44103  1  0
 45104  1  0
 46105  1  0
 48106  1  0
 49107  1  0
 50108  1  0
 52109  1  0
 55110  1  0
M  END
> <Uni-Dock RESULT> 
ENERGY=   -5.082  LOWER_BOUND=    3.362  UPPER_BOUND=    8.443
INTER + INTRA:          -5.082
INTER:                  -5.082
INTRA:                   0.000
UNBOUND:                 0.000

$$$$

     RDKit          3D

110111  0  0  0  0  0  0  0  0999 V2000
   50.5344   10.9251   11.2128 N   0  0  0  0  0  0  0  0  0  0  0  0
   50.8323    9.7599   11.8865 C   0  0  0  0  0  0  0  0  0  0  0  0
   51.5546   11.5220   10.3530 C   0  0  0  0  0  0  0  0  0  0  0  0
   49.2197   11.5778   11.1696 C   0  0  0  0  0  0  0  0  0  0  0  0
   49.8451    9.3133   12.7245 N   0  0  0  0  0  0  0  0  0  0  0  0
   51.8906    9.1615   11.7417 O   0  0  0  0  0  0  0  0  0  0  0  0
   51.3643   13.0409   10.2617 C   0  0  0  0  0  0  0  0  0  0  0  0
   49.0630   12.4360    9.9093 C   0  0  0  0  0  0  0  0  0  0  0  0
   50.0541    8.1504   13.5685 C   0  0  0  0  0  0  0  0  0  0  0  0
   50.0704   13.4499    9.7913 O   0  0  0  0  0  0  0  0  0  0  0  0
   50.8689    8.4924   14.8306 C   0  0  0  0  0  0  0  0  0  0  0  0
   51.1893    7.3640   15.7163 N   0  0  0  0  0  0  0  0  0  0  0  0
   50.0241    6.6559   16.2645 C   0  0  0  0  0  0  0  0  0  0  0  0
   49.0516    7.4623   17.1548 C   0  0  1  0  0  0  0  0  0  0  0  0
   49.7610    8.2956   18.2306 C   0  0  0  0  0  0  0  0  0  0  0  0
   48.2157    8.3122   16.3488 O   0  0  0  0  0  0  0  0  0  0  0  0
   48.7757    8.9190   19.0669 O   0  0  0  0  0  0  0  0  0  0  0  0
   48.4175    8.3180   20.2405 C   0  0  0  0  0  0  0  0  0  0  0  0
   48.8125    7.0540   20.6862 C   0  0  0  0  0  0  0  0  0  0  0  0
   47.5598    9.0861   21.0368 C   0  0  0  0  0  0  0  0  0  0  0  0
   48.3739    6.5765   21.9271 C   0  0  0  0  0  0  0  0  0  0  0  0
   47.1142    8.6083   22.2697 C   0  0  0  0  0  0  0  0  0  0  0  0
   47.5310    7.3624   22.7090 C   0  0  0  0  0  0  0  0  0  0  0  0
   47.0902    6.9395   23.9237 O   0  0  0  0  0  0  0  0  0  0  0  0
   50.7037   11.2463   11.9882 N   0  0  0  0  0  0  0  0  0  0  0  0
   51.0771   10.3689   12.9886 C   0  0  0  0  0  0  0  0  0  0  0  0
   50.0870   10.8858   10.7102 C   0  0  0  0  0  0  0  0  0  0  0  0
   50.9548   12.6744   12.1790 C   0  0  0  0  0  0  0  0  0  0  0  0
   50.7300    9.0624   12.7767 N   0  0  0  0  0  0  0  0  0  0  0  0
   51.6907   10.7329   13.9892 O   0  0  0  0  0  0  0  0  0  0  0  0
   50.3117   11.9763    9.6579 C   0  0  0  0  0  0  0  0  0  0  0  0
   49.8973   13.5166   11.4574 C   0  0  0  0  0  0  0  0  0  0  0  0
   50.9227    8.0513   13.8017 C   0  0  0  0  0  0  0  0  0  0  0  0
   49.7846   13.2500   10.0507 O   0  0  0  0  0  0  0  0  0  0  0  0
   49.5833    7.4573   14.2931 C   0  0  0  0  0  0  0  0  0  0  0  0
   48.4957    8.4187   14.5112 N   0  0  0  0  0  0  0  0  0  0  0  0
   48.7635    9.3883   15.5848 C   0  0  0  0  0  0  0  0  0  0  0  0
   47.9294    9.1859   16.8675 C   0  0  1  0  0  0  0  0  0  0  0  0
   48.3035    7.9018   17.6167 C   0  0  0  0  0  0  0  0  0  0  0  0
   48.1419   10.3078   17.7417 O   0  0  0  0  0  0  0  0  0  0  0  0
   47.4722    7.8313   18.7907 O   0  0  0  0  0  0  0  0  0  0  0  0
   48.0889    7.2106   19.8425 C   0  0  0  0  0  0  0  0  0  0  0  0
   49.2436    7.7252   20.4324 C   0  0  0  0  0  0  0  0  0  0  0  0
   47.4614    6.0909   20.3847 C   0  0  0  0  0  0  0  0  0  0  0  0
   49.8042    7.0890   21.5415 C   0  0  0  0  0  0  0  0  0  0  0  0
   48.0186    5.4549   21.4937 C   0  0  0  0  0  0  0  0  0  0  0  0
   49.1874    5.9552   22.0595 C   0  0  0  0  0  0  0  0  0  0  0  0
   49.6951    5.3053   23.1414 O   0  0  0  0  0  0  0  0  0  0  0  0
   48.5702    9.0743   15.5504 C   0  0  0  0  0  0  0  0  0  0  0  0
   49.9043    9.0264   15.6578 C   0  0  0  0  0  0  0  0  0  0  0  0
   50.5218    9.2100   16.9713 C   0  0  0  0  0  0  0  0  0  0  0  0
   51.8562    9.1161   16.8710 O   0  0  0  0  0  0  0  0  0  0  0  0
   49.9576    9.4152   18.0277 O   0  0  0  0  0  0  0  0  0  0  0  0
   47.8598    8.8984   14.2812 C   0  0  0  0  0  0  0  0  0  0  0  0
   48.6708    8.6987   13.2312 O   0  0  0  0  0  0  0  0  0  0  0  0
   46.6489    8.9329   14.1607 O   0  0  0  0  0  0  0  0  0  0  0  0
   52.5583   11.2873   10.7245 H   0  0  0  0  0  0  0  0  0  0  0  0
   51.4405   11.0622    9.3618 H   0  0  0  0  0  0  0  0  0  0  0  0
   49.1534   12.2082   12.0655 H   0  0  0  0  0  0  0  0  0  0  0  0
   48.4265   10.8254   11.2137 H   0  0  0  0  0  0  0  0  0  0  0  0
   49.2314   10.0183   13.0994 H   0  0  0  0  0  0  0  0  0  0  0  0
   51.5064   13.4954   11.2484 H   0  0  0  0  0  0  0  0  0  0  0  0
   52.1116   13.4743    9.5926 H   0  0  0  0  0  0  0  0  0  0  0  0
   48.0873   12.9357    9.9049 H   0  0  0  0  0  0  0  0  0  0  0  0
   49.1116   11.8075    9.0104 H   0  0  0  0  0  0  0  0  0  0  0  0
   50.5662    7.3742   12.9875 H   0  0  0  0  0  0  0  0  0  0  0  0
   49.0588    7.7797   13.8298 H   0  0  0  0  0  0  0  0  0  0  0  0
   50.3726    9.2918   15.3915 H   0  0  0  0  0  0  0  0  0  0  0  0
   51.8269    8.9295   14.5231 H   0  0  0  0  0  0  0  0  0  0  0  0
   51.7549    6.7023   15.1821 H   0  0  0  0  0  0  0  0  0  0  0  0
   50.4262    5.8417   16.8814 H   0  0  0  0  0  0  0  0  0  0  0  0
   49.4681    6.1832   15.4458 H   0  0  0  0  0  0  0  0  0  0  0  0
   48.3677    6.7557   17.6390 H   0  0  0  0  0  0  0  0  0  0  0  0
   50.3001    9.1285   17.7637 H   0  0  0  0  0  0  0  0  0  0  0  0
   50.5027    7.7243   18.7993 H   0  0  0  0  0  0  0  0  0  0  0  0
   47.7332    8.8758   16.9843 H   0  0  0  0  0  0  0  0  0  0  0  0
   49.4526    6.4096   20.0934 H   0  0  0  0  0  0  0  0  0  0  0  0
   47.2407   10.0682   20.6973 H   0  0  0  0  0  0  0  0  0  0  0  0
   48.7029    5.5986   22.2658 H   0  0  0  0  0  0  0  0  0  0  0  0
   46.4584    9.2153   22.8889 H   0  0  0  0  0  0  0  0  0  0  0  0
   47.4836    6.0718   24.1167 H   0  0  0  0  0  0  0  0  0  0  0  0
   49.0155   10.7691   10.9056 H   0  0  0  0  0  0  0  0  0  0  0  0
   50.4865    9.9328   10.3571 H   0  0  0  0  0  0  0  0  0  0  0  0
   50.9779   12.9269   13.2436 H   0  0  0  0  0  0  0  0  0  0  0  0
   51.9496   12.8739   11.7621 H   0  0  0  0  0  0  0  0  0  0  0  0
   49.9525    8.9039   12.1562 H   0  0  0  0  0  0  0  0  0  0  0  0
   49.8354   11.6969    8.7119 H   0  0  0  0  0  0  0  0  0  0  0  0
   51.3805   12.1058    9.4617 H   0  0  0  0  0  0  0  0  0  0  0  0
   50.1209   14.5823   11.5735 H   0  0  0  0  0  0  0  0  0  0  0  0
   48.9098   13.3384   11.9012 H   0  0  0  0  0  0  0  0  0  0  0  0
   51.4926    8.4580   14.6444 H   0  0  0  0  0  0  0  0  0  0  0  0
   51.5267    7.2545   13.3542 H   0  0  0  0  0  0  0  0  0  0  0  0
   49.7569    6.8541   15.1913 H   0  0  0  0  0  0  0  0  0  0  0  0
   49.2326    6.7623   13.5170 H   0  0  0  0  0  0  0  0  0  0  0  0
   47.6140    7.9339   14.6791 H   0  0  0  0  0  0  0  0  0  0  0  0
   48.5271   10.3830   15.1830 H   0  0  0  0  0  0  0  0  0  0  0  0
   49.8252    9.4419   15.8530 H   0  0  0  0  0  0  0  0  0  0  0  0
   46.8595    9.1850   16.6292 H   0  0  0  0  0  0  0  0  0  0  0  0
   48.0943    7.0149   17.0076 H   0  0  0  0  0  0  0  0  0  0  0  0
   49.3708    7.9162   17.8639 H   0  0  0  0  0  0  0  0  0  0  0  0
   47.6727   10.0869   18.5698 H   0  0  0  0  0  0  0  0  0  0  0  0
   49.6996    8.6343   20.0510 H   0  0  0  0  0  0  0  0  0  0  0  0
   46.5427    5.7137   19.9450 H   0  0  0  0  0  0  0  0  0  0  0  0
   50.7056    7.4981   21.9869 H   0  0  0  0  0  0  0  0  0  0  0  0
   47.5370    4.5815   21.9221 H   0  0  0  0  0  0  0  0  0  0  0  0
   50.5568    5.7042   23.3681 H   0  0  0  0  0  0  0  0  0  0  0  0
   47.9315    9.2496   16.4098 H   0  0  0  0  0  0  0  0  0  0  0  0
   50.5592    8.8499   14.8147 H   0  0  0  0  0  0  0  0  0  0  0  0
   52.1684    9.2409   17.7909 H   0  0  0  0  0  0  0  0  0  0  0  0
   48.0565    8.6037   12.4732 H   0  0  0  0  0  0  0  0  0  0  0  0
  3  7  1  0
  4  8  1  0
  5  9  1  0
  7 10  1  0
  9 11  1  0
 11 12  1  0
 12 13  1  0
 13 14  1  0
 14 15  1  0
 14 16  1  0
 15 17  1  0
 17 18  1  0
 18 19  2  0
 18 20  1  0
 19 21  1  0
 20 22  2  0
 21 23  2  0
 23 24  1  0
  8 10  1  0
 22 23  1  0
  1  2  1  0
  1  3  1  0
  1  4  1  0
  2  5  1  0
  2  6  2  0
 27 31  1  0
 28 32  1  0
 29 33  1  0
 31 34  1  0
 33 35  1  0
 35 36  1  0
 36 37  1  0
 37 38  1  0
 38 39  1  0
 38 40  1  0
 39 41  1  0
 41 42  1  0
 42 43  2  0
 42 44  1  0
 43 45  1  0
 44 46  2  0
 45 47  2  0
 47 48  1  0
 32 34  1  0
 46 47  1  0
 25 26  1  0
 25 27  1  0
 25 28  1  0
 26 29  1  0
 26 30  2  0
 49 50  2  0
 49 54  1  0
 50 51  1  0
 51 52  1  0
 51 53  2  0
 54 55  1  0
 54 56  2  0
  3 57  1  0
  3 58  1  0
  4 59  1  0
  4 60  1  0
  5 61  1  0
  7 62  1  0
  7 63  1  0
  8 64  1  0
  8 65  1  0
  9 66  1  0
  9 67  1  0
 11 68  1  0
 11 69  1  0
 12 70  1  0
 13 71  1  0
 13 72  1  0
 14 73  1  6
 15 74  1  0
 15 75  1  0
 16 76  1  0
 19 77  1  0
 20 78  1  0
 21 79  1  0
 22 80  1  0
 24 81  1  0
 27 82  1  0
 27 83  1  0
 28 84  1  0
 28 85  1  0
 29 86  1  0
 31 87  1  0
 31 88  1  0
 32 89  1  0
 32 90  1  0
 33 91  1  0
 33 92  1  0
 35 93  1  0
 35 94  1  0
 36 95  1  0
 37 96  1  0
 37 97  1  0
 38 98  1  6
 39 99  1  0
 39100  1  0
 40101  1  0
 43102  1  0
 44103  1  0
 45104  1  0
 46105  1  0
 48106  1  0
 49107  1  0
 50108  1  0
 52109  1  0
 55110  1  0
M  END
> <Uni-Dock RESULT> 
ENERGY=   -4.803  LOWER_BOUND=    4.856  UPPER_BOUND=    8.048
INTER + INTRA:          -4.803
INTER:                  -4.803
INTRA:                   0.000
UNBOUND:                 0.000

$$$$

     RDKit          3D

110111  0  0  0  0  0  0  0  0999 V2000
   47.8369   11.5744   18.6966 N   0  0  0  0  0  0  0  0  0  0  0  0
   48.1899   10.6694   17.7185 C   0  0  0  0  0  0  0  0  0  0  0  0
   47.7658   12.9928   18.3510 C   0  0  0  0  0  0  0  0  0  0  0  0
   47.3901   11.2382   20.0544 C   0  0  0  0  0  0  0  0  0  0  0  0
   48.3028    9.3740   18.1495 N   0  0  0  0  0  0  0  0  0  0  0  0
   48.3776   10.9918   16.5524 O   0  0  0  0  0  0  0  0  0  0  0  0
   48.0548   13.8643   19.5792 C   0  0  0  0  0  0  0  0  0  0  0  0
   46.5202   12.3517   20.6483 C   0  0  0  0  0  0  0  0  0  0  0  0
   48.7579    8.3275   17.2517 C   0  0  0  0  0  0  0  0  0  0  0  0
   47.1878   13.6200   20.6978 O   0  0  0  0  0  0  0  0  0  0  0  0
   50.2903    8.3303   17.0920 C   0  0  0  0  0  0  0  0  0  0  0  0
   50.8418    7.3469   16.1490 N   0  0  0  0  0  0  0  0  0  0  0  0
   50.5526    5.9438   16.4768 C   0  0  0  0  0  0  0  0  0  0  0  0
   51.0897    5.3981   17.8193 C   0  0  1  0  0  0  0  0  0  0  0  0
   52.5643    5.7418   18.0690 C   0  0  0  0  0  0  0  0  0  0  0  0
   50.2844    5.8697   18.9146 O   0  0  0  0  0  0  0  0  0  0  0  0
   52.9958    5.1054   19.2805 O   0  0  0  0  0  0  0  0  0  0  0  0
   53.6330    3.8986   19.2118 C   0  0  0  0  0  0  0  0  0  0  0  0
   53.8105    3.1115   18.0710 C   0  0  0  0  0  0  0  0  0  0  0  0
   54.1329    3.4462   20.4386 C   0  0  0  0  0  0  0  0  0  0  0  0
   54.5037    1.8979   18.1541 C   0  0  0  0  0  0  0  0  0  0  0  0
   54.8161    2.2328   20.5254 C   0  0  0  0  0  0  0  0  0  0  0  0
   55.0037    1.4729   19.3825 C   0  0  0  0  0  0  0  0  0  0  0  0
   55.6903    0.3056   19.5042 O   0  0  0  0  0  0  0  0  0  0  0  0
   48.6590   11.4529   18.9027 N   0  0  0  0  0  0  0  0  0  0  0  0
   49.4057   10.5925   18.1203 C   0  0  0  0  0  0  0  0  0  0  0  0
   47.1990   11.5617   18.9139 C   0  0  0  0  0  0  0  0  0  0  0  0
   49.3601   12.3722   19.7984 C   0  0  0  0  0  0  0  0  0  0  0  0
   48.6791    9.7036   17.3757 N   0  0  0  0  0  0  0  0  0  0  0  0
   50.6333   10.6331   18.0832 O   0  0  0  0  0  0  0  0  0  0  0  0
   46.7478   12.9266   19.4436 C   0  0  0  0  0  0  0  0  0  0  0  0
   48.5210   12.6656   21.0468 C   0  0  0  0  0  0  0  0  0  0  0  0
   49.3233    8.6435   16.6199 C   0  0  0  0  0  0  0  0  0  0  0  0
   47.2134   13.1927   20.7728 O   0  0  0  0  0  0  0  0  0  0  0  0
   48.9403    7.2403   17.1421 C   0  0  0  0  0  0  0  0  0  0  0  0
   48.9087    7.0845   18.6014 N   0  0  0  0  0  0  0  0  0  0  0  0
   50.2188    7.2576   19.2480 C   0  0  0  0  0  0  0  0  0  0  0  0
   50.8468    5.9617   19.8032 C   0  0  1  0  0  0  0  0  0  0  0  0
   51.2626    4.9871   18.6953 C   0  0  0  0  0  0  0  0  0  0  0  0
   52.0102    6.3036   20.5763 O   0  0  0  0  0  0  0  0  0  0  0  0
   51.8404    3.8323   19.3330 O   0  0  0  0  0  0  0  0  0  0  0  0
   52.8186    3.2426   18.5799 C   0  0  0  0  0  0  0  0  0  0  0  0
   53.9969    3.9092   18.2432 C   0  0  0  0  0  0  0  0  0  0  0  0
   52.6491    1.9010   18.2439 C   0  0  0  0  0  0  0  0  0  0  0  0
   54.9927    3.2468   17.5228 C   0  0  0  0  0  0  0  0  0  0  0  0
   53.6432    1.2368   17.5260 C   0  0  0  0  0  0  0  0  0  0  0  0
   54.8036    1.9158   17.1667 C   0  0  0  0  0  0  0  0  0  0  0  0
   55.7481    1.2289   16.4690 O   0  0  0  0  0  0  0  0  0  0  0  0
   50.0073    6.9715   19.1449 C   0  0  0  0  0  0  0  0  0  0  0  0
   50.6971    7.6558   18.2231 C   0  0  0  0  0  0  0  0  0  0  0  0
   52.1344    7.4198   18.0861 C   0  0  0  0  0  0  0  0  0  0  0  0
   52.6369    8.1876   17.1077 O   0  0  0  0  0  0  0  0  0  0  0  0
   52.8190    6.6518   18.7325 O   0  0  0  0  0  0  0  0  0  0  0  0
   48.5667    7.1349   19.3550 C   0  0  0  0  0  0  0  0  0  0  0  0
   48.0025    8.0454   18.5470 O   0  0  0  0  0  0  0  0  0  0  0  0
   47.9186    6.5206   20.1825 O   0  0  0  0  0  0  0  0  0  0  0  0
   48.4685   13.2295   17.5443 H   0  0  0  0  0  0  0  0  0  0  0  0
   46.7474   13.1772   17.9825 H   0  0  0  0  0  0  0  0  0  0  0  0
   48.2968   11.1054   20.6585 H   0  0  0  0  0  0  0  0  0  0  0  0
   46.8375   10.2939   20.0436 H   0  0  0  0  0  0  0  0  0  0  0  0
   48.5440    9.2505   19.1194 H   0  0  0  0  0  0  0  0  0  0  0  0
   49.0808   13.6953   19.9243 H   0  0  0  0  0  0  0  0  0  0  0  0
   47.9687   14.9221   19.3189 H   0  0  0  0  0  0  0  0  0  0  0  0
   46.2164   12.0967   21.6702 H   0  0  0  0  0  0  0  0  0  0  0  0
   45.6036   12.4770   20.0572 H   0  0  0  0  0  0  0  0  0  0  0  0
   48.2764    8.4593   16.2754 H   0  0  0  0  0  0  0  0  0  0  0  0
   48.4076    7.3840   17.6800 H   0  0  0  0  0  0  0  0  0  0  0  0
   50.7692    8.2327   18.0723 H   0  0  0  0  0  0  0  0  0  0  0  0
   50.6046    9.3178   16.7323 H   0  0  0  0  0  0  0  0  0  0  0  0
   50.4583    7.5548   15.2255 H   0  0  0  0  0  0  0  0  0  0  0  0
   51.0106    5.3450   15.6788 H   0  0  0  0  0  0  0  0  0  0  0  0
   49.4710    5.7721   16.4155 H   0  0  0  0  0  0  0  0  0  0  0  0
   50.9690    4.3087   17.8167 H   0  0  0  0  0  0  0  0  0  0  0  0
   52.6706    6.8157   18.2632 H   0  0  0  0  0  0  0  0  0  0  0  0
   53.2108    5.5143   17.2145 H   0  0  0  0  0  0  0  0  0  0  0  0
   50.7617    5.5952   19.7215 H   0  0  0  0  0  0  0  0  0  0  0  0
   53.4174    3.4046   17.1036 H   0  0  0  0  0  0  0  0  0  0  0  0
   53.9951    4.0471   21.3339 H   0  0  0  0  0  0  0  0  0  0  0  0
   54.6467    1.3059   17.2552 H   0  0  0  0  0  0  0  0  0  0  0  0
   55.2130    1.8935   21.4790 H   0  0  0  0  0  0  0  0  0  0  0  0
   55.7740   -0.1034   18.6262 H   0  0  0  0  0  0  0  0  0  0  0  0
   46.8342   10.7655   19.5718 H   0  0  0  0  0  0  0  0  0  0  0  0
   46.8035   11.3974   17.9093 H   0  0  0  0  0  0  0  0  0  0  0  0
   50.3361   11.9685   20.0847 H   0  0  0  0  0  0  0  0  0  0  0  0
   49.5290   13.2940   19.2283 H   0  0  0  0  0  0  0  0  0  0  0  0
   47.7550    9.4902   17.7152 H   0  0  0  0  0  0  0  0  0  0  0  0
   45.6543   12.9880   19.4559 H   0  0  0  0  0  0  0  0  0  0  0  0
   47.1145   13.7295   18.7966 H   0  0  0  0  0  0  0  0  0  0  0  0
   49.0389   13.3867   21.6878 H   0  0  0  0  0  0  0  0  0  0  0  0
   48.3843   11.7466   21.6305 H   0  0  0  0  0  0  0  0  0  0  0  0
   50.4115    8.7699   16.6262 H   0  0  0  0  0  0  0  0  0  0  0  0
   48.9896    8.7441   15.5814 H   0  0  0  0  0  0  0  0  0  0  0  0
   49.5913    6.4877   16.6833 H   0  0  0  0  0  0  0  0  0  0  0  0
   47.9227    7.0279   16.7848 H   0  0  0  0  0  0  0  0  0  0  0  0
   48.4985    6.1868   18.8594 H   0  0  0  0  0  0  0  0  0  0  0  0
   50.0706    7.9475   20.0898 H   0  0  0  0  0  0  0  0  0  0  0  0
   50.9478    7.7603   18.6016 H   0  0  0  0  0  0  0  0  0  0  0  0
   50.1548    5.4706   20.4969 H   0  0  0  0  0  0  0  0  0  0  0  0
   50.3924    4.6490   18.1208 H   0  0  0  0  0  0  0  0  0  0  0  0
   51.9649    5.4802   18.0141 H   0  0  0  0  0  0  0  0  0  0  0  0
   52.4207    5.4517   20.8222 H   0  0  0  0  0  0  0  0  0  0  0  0
   54.1591    4.9359   18.5585 H   0  0  0  0  0  0  0  0  0  0  0  0
   51.7461    1.3746   18.5386 H   0  0  0  0  0  0  0  0  0  0  0  0
   55.9021    3.7798   17.2638 H   0  0  0  0  0  0  0  0  0  0  0  0
   53.5191    0.1920   17.2592 H   0  0  0  0  0  0  0  0  0  0  0  0
   56.4534    1.8503   16.2051 H   0  0  0  0  0  0  0  0  0  0  0  0
   50.4841    6.2480   19.7979 H   0  0  0  0  0  0  0  0  0  0  0  0
   50.2411    8.3792   17.5600 H   0  0  0  0  0  0  0  0  0  0  0  0
   53.5870    7.9504   17.0899 H   0  0  0  0  0  0  0  0  0  0  0  0
   47.0577    8.0392   18.8078 H   0  0  0  0  0  0  0  0  0  0  0  0
  3  7  1  0
  4  8  1  0
  5  9  1  0
  7 10  1  0
  9 11  1  0
 11 12  1  0
 12 13  1  0
 13 14  1  0
 14 15  1  0
 14 16  1  0
 15 17  1  0
 17 18  1  0
 18 19  2  0
 18 20  1  0
 19 21  1  0
 20 22  2  0
 21 23  2  0
 23 24  1  0
  8 10  1  0
 22 23  1  0
  1  2  1  0
  1  3  1  0
  1  4  1  0
  2  5  1  0
  2  6  2  0
 27 31  1  0
 28 32  1  0
 29 33  1  0
 31 34  1  0
 33 35  1  0
 35 36  1  0
 36 37  1  0
 37 38  1  0
 38 39  1  0
 38 40  1  0
 39 41  1  0
 41 42  1  0
 42 43  2  0
 42 44  1  0
 43 45  1  0
 44 46  2  0
 45 47  2  0
 47 48  1  0
 32 34  1  0
 46 47  1  0
 25 26  1  0
 25 27  1  0
 25 28  1  0
 26 29  1  0
 26 30  2  0
 49 50  2  0
 49 54  1  0
 50 51  1  0
 51 52  1  0
 51 53  2  0
 54 55  1  0
 54 56  2  0
  3 57  1  0
  3 58  1  0
  4 59  1  0
  4 60  1  0
  5 61  1  0
  7 62  1  0
  7 63  1  0
  8 64  1  0
  8 65  1  0
  9 66  1  0
  9 67  1  0
 11 68  1  0
 11 69  1  0
 12 70  1  0
 13 71  1  0
 13 72  1  0
 14 73  1  6
 15 74  1  0
 15 75  1  0
 16 76  1  0
 19 77  1  0
 20 78  1  0
 21 79  1  0
 22 80  1  0
 24 81  1  0
 27 82  1  0
 27 83  1  0
 28 84  1  0
 28 85  1  0
 29 86  1  0
 31 87  1  0
 31 88  1  0
 32 89  1  0
 32 90  1  0
 33 91  1  0
 33 92  1  0
 35 93  1  0
 35 94  1  0
 36 95  1  0
 37 96  1  0
 37 97  1  0
 38 98  1  6
 39 99  1  0
 39100  1  0
 40101  1  0
 43102  1  0
 44103  1  0
 45104  1  0
 46105  1  0
 48106  1  0
 49107  1  0
 50108  1  0
 52109  1  0
 55110  1  0
M  END
> <Uni-Dock RESULT> 
ENERGY=   -4.765  LOWER_BOUND=    2.941  UPPER_BOUND=    5.061
INTER + INTRA:          -4.765
INTER:                  -4.765
INTRA:                   0.000
UNBOUND:                 0.000

$$$$

     RDKit          3D

110111  0  0  0  0  0  0  0  0999 V2000
   51.0721   12.7694   10.3105 N   0  0  0  0  0  0  0  0  0  0  0  0
   49.9447   12.0207   10.5728 C   0  0  0  0  0  0  0  0  0  0  0  0
   51.4523   13.0061    8.9193 C   0  0  0  0  0  0  0  0  0  0  0  0
   51.8813   13.4788   11.3097 C   0  0  0  0  0  0  0  0  0  0  0  0
   49.7067   11.7884   11.9016 N   0  0  0  0  0  0  0  0  0  0  0  0
   49.2049   11.6037    9.6909 O   0  0  0  0  0  0  0  0  0  0  0  0
   52.9684   13.2027    8.7985 C   0  0  0  0  0  0  0  0  0  0  0  0
   52.6339   14.6584   10.6840 C   0  0  0  0  0  0  0  0  0  0  0  0
   48.6086   10.9375   12.3239 C   0  0  0  0  0  0  0  0  0  0  0  0
   53.4953   14.2670    9.6061 O   0  0  0  0  0  0  0  0  0  0  0  0
   48.9570    9.4418   12.2004 C   0  0  0  0  0  0  0  0  0  0  0  0
   47.8823    8.4993   12.5429 N   0  0  0  0  0  0  0  0  0  0  0  0
   47.3825    8.6031   13.9209 C   0  0  0  0  0  0  0  0  0  0  0  0
   48.3848    8.3360   15.0667 C   0  0  1  0  0  0  0  0  0  0  0  0
   49.2149    7.0614   14.8637 C   0  0  0  0  0  0  0  0  0  0  0  0
   49.2577    9.4656   15.2476 O   0  0  0  0  0  0  0  0  0  0  0  0
   50.0332    6.8449   16.0223 O   0  0  0  0  0  0  0  0  0  0  0  0
   49.5927    6.0033   17.0045 C   0  0  0  0  0  0  0  0  0  0  0  0
   48.3344    5.4012   17.0863 C   0  0  0  0  0  0  0  0  0  0  0  0
   50.5338    5.7590   18.0117 C   0  0  0  0  0  0  0  0  0  0  0  0
   48.0323    4.5438   18.1512 C   0  0  0  0  0  0  0  0  0  0  0  0
   50.2317    4.9122   19.0786 C   0  0  0  0  0  0  0  0  0  0  0  0
   48.9879    4.3049   19.1357 C   0  0  0  0  0  0  0  0  0  0  0  0
   48.7376    3.4720   20.1809 O   0  0  0  0  0  0  0  0  0  0  0  0
   51.4383   12.0190   10.5002 N   0  0  0  0  0  0  0  0  0  0  0  0
   50.6153   10.9544   10.8150 C   0  0  0  0  0  0  0  0  0  0  0  0
   51.0448   13.4284   10.4496 C   0  0  0  0  0  0  0  0  0  0  0  0
   52.8338   11.7482   10.1565 C   0  0  0  0  0  0  0  0  0  0  0  0
   49.3502   11.2936   11.2110 N   0  0  0  0  0  0  0  0  0  0  0  0
   50.9874    9.7863   10.7300 O   0  0  0  0  0  0  0  0  0  0  0  0
   51.9969   14.2394    9.5648 C   0  0  0  0  0  0  0  0  0  0  0  0
   53.7354   12.9165   10.5698 C   0  0  0  0  0  0  0  0  0  0  0  0
   48.4206   10.2968   11.7133 C   0  0  0  0  0  0  0  0  0  0  0  0
   53.3582   14.1842   10.0102 O   0  0  0  0  0  0  0  0  0  0  0  0
   48.0506   10.5391   13.1940 C   0  0  0  0  0  0  0  0  0  0  0  0
   49.1593   10.9128   14.0804 N   0  0  0  0  0  0  0  0  0  0  0  0
   50.1805    9.8646   14.2322 C   0  0  0  0  0  0  0  0  0  0  0  0
   50.2045    9.1745   15.6125 C   0  0  1  0  0  0  0  0  0  0  0  0
   48.9569    8.3206   15.8659 C   0  0  0  0  0  0  0  0  0  0  0  0
   51.3650    8.3286   15.6887 O   0  0  0  0  0  0  0  0  0  0  0  0
   49.1010    7.7248   17.1691 O   0  0  0  0  0  0  0  0  0  0  0  0
   48.5049    6.4968   17.2614 C   0  0  0  0  0  0  0  0  0  0  0  0
   48.9188    5.4127   16.4871 C   0  0  0  0  0  0  0  0  0  0  0  0
   47.5291    6.3288   18.2417 C   0  0  0  0  0  0  0  0  0  0  0  0
   48.3198    4.1632   16.6580 C   0  0  0  0  0  0  0  0  0  0  0  0
   46.9307    5.0812   18.4155 C   0  0  0  0  0  0  0  0  0  0  0  0
   47.3265    4.0106   17.6194 C   0  0  0  0  0  0  0  0  0  0  0  0
   46.7184    2.8111   17.8243 O   0  0  0  0  0  0  0  0  0  0  0  0
   49.8920    9.9873   14.4295 C   0  0  0  0  0  0  0  0  0  0  0  0
   49.6834    9.2213   13.3508 C   0  0  0  0  0  0  0  0  0  0  0  0
   49.9054    7.7785   13.4460 C   0  0  0  0  0  0  0  0  0  0  0  0
   49.6325    7.1911   12.2714 O   0  0  0  0  0  0  0  0  0  0  0  0
   50.2768    7.1536   14.4197 O   0  0  0  0  0  0  0  0  0  0  0  0
   49.6936   11.4388   14.4343 C   0  0  0  0  0  0  0  0  0  0  0  0
   49.2966   11.9339   13.2522 O   0  0  0  0  0  0  0  0  0  0  0  0
   49.8720   12.1538   15.4034 O   0  0  0  0  0  0  0  0  0  0  0  0
   51.1258   12.1760    8.2830 H   0  0  0  0  0  0  0  0  0  0  0  0
   50.9224   13.9130    8.5972 H   0  0  0  0  0  0  0  0  0  0  0  0
   52.5941   12.7475   11.7118 H   0  0  0  0  0  0  0  0  0  0  0  0
   51.2441   13.8297   12.1270 H   0  0  0  0  0  0  0  0  0  0  0  0
   50.5159   11.7841   12.5012 H   0  0  0  0  0  0  0  0  0  0  0  0
   53.4890   12.2855    9.0952 H   0  0  0  0  0  0  0  0  0  0  0  0
   53.2395   13.4100    7.7604 H   0  0  0  0  0  0  0  0  0  0  0  0
   53.2521   15.1611   11.4368 H   0  0  0  0  0  0  0  0  0  0  0  0
   51.9250   15.4011   10.2951 H   0  0  0  0  0  0  0  0  0  0  0  0
   47.7233   11.1699   11.7200 H   0  0  0  0  0  0  0  0  0  0  0  0
   48.3939   11.2083   13.3617 H   0  0  0  0  0  0  0  0  0  0  0  0
   49.8612    9.2191   12.7771 H   0  0  0  0  0  0  0  0  0  0  0  0
   49.2377    9.2307   11.1612 H   0  0  0  0  0  0  0  0  0  0  0  0
   47.1076    8.6659   11.8985 H   0  0  0  0  0  0  0  0  0  0  0  0
   46.5832    7.8560   14.0110 H   0  0  0  0  0  0  0  0  0  0  0  0
   46.9123    9.5836   14.0638 H   0  0  0  0  0  0  0  0  0  0  0  0
   47.8188    8.2525   16.0016 H   0  0  0  0  0  0  0  0  0  0  0  0
   49.9257    7.2048   14.0412 H   0  0  0  0  0  0  0  0  0  0  0  0
   48.6074    6.1883   14.6019 H   0  0  0  0  0  0  0  0  0  0  0  0
   49.9341    9.1681   15.8866 H   0  0  0  0  0  0  0  0  0  0  0  0
   47.5619    5.5812   16.3466 H   0  0  0  0  0  0  0  0  0  0  0  0
   51.5137    6.2271   17.9618 H   0  0  0  0  0  0  0  0  0  0  0  0
   47.0554    4.0715   18.1914 H   0  0  0  0  0  0  0  0  0  0  0  0
   50.9717    4.7167   19.8506 H   0  0  0  0  0  0  0  0  0  0  0  0
   47.8479    3.0947   20.0767 H   0  0  0  0  0  0  0  0  0  0  0  0
   51.0848   13.7981   11.4799 H   0  0  0  0  0  0  0  0  0  0  0  0
   50.0203   13.5182   10.0826 H   0  0  0  0  0  0  0  0  0  0  0  0
   53.1774   10.8208   10.6252 H   0  0  0  0  0  0  0  0  0  0  0  0
   52.8653   11.6096    9.0689 H   0  0  0  0  0  0  0  0  0  0  0  0
   49.2368   12.2191   11.5922 H   0  0  0  0  0  0  0  0  0  0  0  0
   51.6957   15.2924    9.5463 H   0  0  0  0  0  0  0  0  0  0  0  0
   51.9698   13.8719    8.5344 H   0  0  0  0  0  0  0  0  0  0  0  0
   54.7697   12.7188   10.2694 H   0  0  0  0  0  0  0  0  0  0  0  0
   53.7265   13.0284   11.6613 H   0  0  0  0  0  0  0  0  0  0  0  0
   48.8260    9.2877   11.5807 H   0  0  0  0  0  0  0  0  0  0  0  0
   47.5155   10.3673   11.1003 H   0  0  0  0  0  0  0  0  0  0  0  0
   47.5146    9.6674   13.5858 H   0  0  0  0  0  0  0  0  0  0  0  0
   47.3383   11.3761   13.2176 H   0  0  0  0  0  0  0  0  0  0  0  0
   48.8089   11.2053   14.9927 H   0  0  0  0  0  0  0  0  0  0  0  0
   51.1564   10.3450   14.0789 H   0  0  0  0  0  0  0  0  0  0  0  0
   50.1217    9.0986   13.4501 H   0  0  0  0  0  0  0  0  0  0  0  0
   50.3192    9.9196   16.4082 H   0  0  0  0  0  0  0  0  0  0  0  0
   48.0523    8.9393   15.8814 H   0  0  0  0  0  0  0  0  0  0  0  0
   48.8568    7.5693   15.0746 H   0  0  0  0  0  0  0  0  0  0  0  0
   51.2826    7.8469   16.5348 H   0  0  0  0  0  0  0  0  0  0  0  0
   49.7233    5.5252   15.7660 H   0  0  0  0  0  0  0  0  0  0  0  0
   47.2343    7.1662   18.8673 H   0  0  0  0  0  0  0  0  0  0  0  0
   48.6489    3.3301   16.0450 H   0  0  0  0  0  0  0  0  0  0  0  0
   46.1691    4.9415   19.1761 H   0  0  0  0  0  0  0  0  0  0  0  0
   47.0225    2.1866   17.1382 H   0  0  0  0  0  0  0  0  0  0  0  0
   50.2254    9.5696   15.3738 H   0  0  0  0  0  0  0  0  0  0  0  0
   49.3482    9.6167   12.4010 H   0  0  0  0  0  0  0  0  0  0  0  0
   49.7996    6.2411   12.4414 H   0  0  0  0  0  0  0  0  0  0  0  0
   49.2124   12.8967   13.4158 H   0  0  0  0  0  0  0  0  0  0  0  0
  3  7  1  0
  4  8  1  0
  5  9  1  0
  7 10  1  0
  9 11  1  0
 11 12  1  0
 12 13  1  0
 13 14  1  0
 14 15  1  0
 14 16  1  0
 15 17  1  0
 17 18  1  0
 18 19  2  0
 18 20  1  0
 19 21  1  0
 20 22  2  0
 21 23  2  0
 23 24  1  0
  8 10  1  0
 22 23  1  0
  1  2  1  0
  1  3  1  0
  1  4  1  0
  2  5  1  0
  2  6  2  0
 27 31  1  0
 28 32  1  0
 29 33  1  0
 31 34  1  0
 33 35  1  0
 35 36  1  0
 36 37  1  0
 37 38  1  0
 38 39  1  0
 38 40  1  0
 39 41  1  0
 41 42  1  0
 42 43  2  0
 42 44  1  0
 43 45  1  0
 44 46  2  0
 45 47  2  0
 47 48  1  0
 32 34  1  0
 46 47  1  0
 25 26  1  0
 25 27  1  0
 25 28  1  0
 26 29  1  0
 26 30  2  0
 49 50  2  0
 49 54  1  0
 50 51  1  0
 51 52  1  0
 51 53  2  0
 54 55  1  0
 54 56  2  0
  3 57  1  0
  3 58  1  0
  4 59  1  0
  4 60  1  0
  5 61  1  0
  7 62  1  0
  7 63  1  0
  8 64  1  0
  8 65  1  0
  9 66  1  0
  9 67  1  0
 11 68  1  0
 11 69  1  0
 12 70  1  0
 13 71  1  0
 13 72  1  0
 14 73  1  6
 15 74  1  0
 15 75  1  0
 16 76  1  0
 19 77  1  0
 20 78  1  0
 21 79  1  0
 22 80  1  0
 24 81  1  0
 27 82  1  0
 27 83  1  0
 28 84  1  0
 28 85  1  0
 29 86  1  0
 31 87  1  0
 31 88  1  0
 32 89  1  0
 32 90  1  0
 33 91  1  0
 33 92  1  0
 35 93  1  0
 35 94  1  0
 36 95  1  0
 37 96  1  0
 37 97  1  0
 38 98  1  6
 39 99  1  0
 39100  1  0
 40101  1  0
 43102  1  0
 44103  1  0
 45104  1  0
 46105  1  0
 48106  1  0
 49107  1  0
 50108  1  0
 52109  1  0
 55110  1  0
M  END
> <Uni-Dock RESULT> 
ENERGY=   -4.715  LOWER_BOUND=    5.834  UPPER_BOUND=    8.036
INTER + INTRA:          -4.715
INTER:                  -4.715
INTRA:                   0.000
UNBOUND:                 0.000

$$$$

     RDKit          3D

110111  0  0  0  0  0  0  0  0999 V2000
   54.4372    2.6588   18.4572 N   0  0  0  0  0  0  0  0  0  0  0  0
   53.1458    2.9760   18.0940 C   0  0  0  0  0  0  0  0  0  0  0  0
   54.7307    1.2959   18.8963 C   0  0  0  0  0  0  0  0  0  0  0  0
   55.6054    3.5386   18.3245 C   0  0  0  0  0  0  0  0  0  0  0  0
   52.9485    4.2916   17.7675 N   0  0  0  0  0  0  0  0  0  0  0  0
   52.2451    2.1476   18.0539 O   0  0  0  0  0  0  0  0  0  0  0  0
   55.9162    1.2841   19.8689 C   0  0  0  0  0  0  0  0  0  0  0  0
   56.9042    2.7312   18.2209 C   0  0  0  0  0  0  0  0  0  0  0  0
   51.6211    4.7905   17.4554 C   0  0  0  0  0  0  0  0  0  0  0  0
   57.1197    1.8671   19.3451 O   0  0  0  0  0  0  0  0  0  0  0  0
   50.7915    5.0577   18.7260 C   0  0  0  0  0  0  0  0  0  0  0  0
   49.4076    5.5034   18.5102 N   0  0  0  0  0  0  0  0  0  0  0  0
   49.2707    6.7614   17.7630 C   0  0  0  0  0  0  0  0  0  0  0  0
   49.8963    8.0319   18.3820 C   0  0  1  0  0  0  0  0  0  0  0  0
   49.5517    8.2184   19.8657 C   0  0  0  0  0  0  0  0  0  0  0  0
   51.3246    8.0282   18.2074 O   0  0  0  0  0  0  0  0  0  0  0  0
   50.0859    9.4711   20.3177 O   0  0  0  0  0  0  0  0  0  0  0  0
   49.2804   10.5747   20.3342 C   0  0  0  0  0  0  0  0  0  0  0  0
   47.9834   10.6700   19.8231 C   0  0  0  0  0  0  0  0  0  0  0  0
   49.8655   11.6998   20.9272 C   0  0  0  0  0  0  0  0  0  0  0  0
   47.2718   11.8710   19.9288 C   0  0  0  0  0  0  0  0  0  0  0  0
   49.1614   12.9004   21.0253 C   0  0  0  0  0  0  0  0  0  0  0  0
   47.8683   12.9744   20.5338 C   0  0  0  0  0  0  0  0  0  0  0  0
   47.2083   14.1559   20.6646 O   0  0  0  0  0  0  0  0  0  0  0  0
   54.1800    3.0551   19.1712 N   0  0  0  0  0  0  0  0  0  0  0  0
   52.8823    3.5279   19.2216 C   0  0  0  0  0  0  0  0  0  0  0  0
   54.8993    2.6354   17.9671 C   0  0  0  0  0  0  0  0  0  0  0  0
   54.9276    2.9258   20.4215 C   0  0  0  0  0  0  0  0  0  0  0  0
   52.2794    3.7048   18.0060 N   0  0  0  0  0  0  0  0  0  0  0  0
   52.3054    3.7577   20.2820 O   0  0  0  0  0  0  0  0  0  0  0  0
   56.0500    1.6842   18.3107 C   0  0  0  0  0  0  0  0  0  0  0  0
   56.4267    3.1405   20.1868 C   0  0  0  0  0  0  0  0  0  0  0  0
   50.9743    4.3321   17.8916 C   0  0  0  0  0  0  0  0  0  0  0  0
   57.0059    2.2636   19.2080 O   0  0  0  0  0  0  0  0  0  0  0  0
   51.0366    5.6698   17.1202 C   0  0  0  0  0  0  0  0  0  0  0  0
   52.1646    6.5495   17.4497 N   0  0  0  0  0  0  0  0  0  0  0  0
   52.1496    7.0447   18.8349 C   0  0  0  0  0  0  0  0  0  0  0  0
   51.8159    8.5439   18.9865 C   0  0  1  0  0  0  0  0  0  0  0  0
   50.3650    8.8653   18.6102 C   0  0  0  0  0  0  0  0  0  0  0  0
   52.0339    8.9324   20.3539 O   0  0  0  0  0  0  0  0  0  0  0  0
   50.1742   10.2798   18.8022 O   0  0  0  0  0  0  0  0  0  0  0  0
   48.8968   10.5984   19.1744 C   0  0  0  0  0  0  0  0  0  0  0  0
   48.3393   10.1462   20.3706 C   0  0  0  0  0  0  0  0  0  0  0  0
   48.1949   11.4884   18.3639 C   0  0  0  0  0  0  0  0  0  0  0  0
   47.0526   10.5457   20.7365 C   0  0  0  0  0  0  0  0  0  0  0  0
   46.9102   11.8902   18.7283 C   0  0  0  0  0  0  0  0  0  0  0  0
   46.3475   11.4119   19.9078 C   0  0  0  0  0  0  0  0  0  0  0  0
   45.0932   11.8316   20.2260 O   0  0  0  0  0  0  0  0  0  0  0  0
   52.0550    7.1778   18.5025 C   0  0  0  0  0  0  0  0  0  0  0  0
   51.2580    6.2943   19.1173 C   0  0  0  0  0  0  0  0  0  0  0  0
   50.3996    6.7480   20.2117 C   0  0  0  0  0  0  0  0  0  0  0  0
   49.6747    5.7233   20.6847 O   0  0  0  0  0  0  0  0  0  0  0  0
   50.3137    7.8734   20.6617 O   0  0  0  0  0  0  0  0  0  0  0  0
   52.9460    6.8211   17.3956 C   0  0  0  0  0  0  0  0  0  0  0  0
   52.9011    5.5222   17.0626 O   0  0  0  0  0  0  0  0  0  0  0  0
   53.6748    7.6076   16.8190 O   0  0  0  0  0  0  0  0  0  0  0  0
   53.8503    0.8435   19.3661 H   0  0  0  0  0  0  0  0  0  0  0  0
   54.9713    0.7183   17.9933 H   0  0  0  0  0  0  0  0  0  0  0  0
   55.6250    4.1705   19.2216 H   0  0  0  0  0  0  0  0  0  0  0  0
   55.4915    4.1826   17.4474 H   0  0  0  0  0  0  0  0  0  0  0  0
   53.5706    4.9530   18.2032 H   0  0  0  0  0  0  0  0  0  0  0  0
   55.6592    1.8387   20.7781 H   0  0  0  0  0  0  0  0  0  0  0  0
   56.1481    0.2588   20.1672 H   0  0  0  0  0  0  0  0  0  0  0  0
   57.7678    3.4024   18.1481 H   0  0  0  0  0  0  0  0  0  0  0  0
   56.8968    2.1098   17.3158 H   0  0  0  0  0  0  0  0  0  0  0  0
   51.1072    4.0637   16.8151 H   0  0  0  0  0  0  0  0  0  0  0  0
   51.7675    5.7087   16.8794 H   0  0  0  0  0  0  0  0  0  0  0  0
   51.3229    5.7579   19.3797 H   0  0  0  0  0  0  0  0  0  0  0  0
   50.7334    4.1307   19.3095 H   0  0  0  0  0  0  0  0  0  0  0  0
   48.9202    4.7640   18.0015 H   0  0  0  0  0  0  0  0  0  0  0  0
   48.1922    6.9445   17.6718 H   0  0  0  0  0  0  0  0  0  0  0  0
   49.6519    6.6219   16.7441 H   0  0  0  0  0  0  0  0  0  0  0  0
   49.5359    8.8991   17.8166 H   0  0  0  0  0  0  0  0  0  0  0  0
   50.0669    7.4604   20.4677 H   0  0  0  0  0  0  0  0  0  0  0  0
   48.4824    8.1100   20.0771 H   0  0  0  0  0  0  0  0  0  0  0  0
   51.6501    8.7834   18.7346 H   0  0  0  0  0  0  0  0  0  0  0  0
   47.4975    9.8354   19.3295 H   0  0  0  0  0  0  0  0  0  0  0  0
   50.8763   11.6392   21.3224 H   0  0  0  0  0  0  0  0  0  0  0  0
   46.2590   11.9236   19.5406 H   0  0  0  0  0  0  0  0  0  0  0  0
   49.6170   13.7666   21.4986 H   0  0  0  0  0  0  0  0  0  0  0  0
   46.3091   14.0551   20.3091 H   0  0  0  0  0  0  0  0  0  0  0  0
   55.2928    3.5486   17.5075 H   0  0  0  0  0  0  0  0  0  0  0  0
   54.2109    2.1573   17.2671 H   0  0  0  0  0  0  0  0  0  0  0  0
   54.5571    3.6314   21.1715 H   0  0  0  0  0  0  0  0  0  0  0  0
   54.7421    1.9100   20.7915 H   0  0  0  0  0  0  0  0  0  0  0  0
   52.8947    3.8442   17.2207 H   0  0  0  0  0  0  0  0  0  0  0  0
   56.5844    1.3885   17.4014 H   0  0  0  0  0  0  0  0  0  0  0  0
   55.6670    0.7717   18.7780 H   0  0  0  0  0  0  0  0  0  0  0  0
   56.9784    2.9997   21.1222 H   0  0  0  0  0  0  0  0  0  0  0  0
   56.6096    4.1685   19.8496 H   0  0  0  0  0  0  0  0  0  0  0  0
   50.5287    4.4818   18.8812 H   0  0  0  0  0  0  0  0  0  0  0  0
   50.3308    3.6326   17.3470 H   0  0  0  0  0  0  0  0  0  0  0  0
   50.0838    6.2002   17.2278 H   0  0  0  0  0  0  0  0  0  0  0  0
   51.1351    5.4246   16.0532 H   0  0  0  0  0  0  0  0  0  0  0  0
   52.2190    7.3277   16.7924 H   0  0  0  0  0  0  0  0  0  0  0  0
   53.1560    6.8808   19.2435 H   0  0  0  0  0  0  0  0  0  0  0  0
   51.4869    6.4629   19.4864 H   0  0  0  0  0  0  0  0  0  0  0  0
   52.5040    9.1494   18.3854 H   0  0  0  0  0  0  0  0  0  0  0  0
   50.1737    8.6445   17.5537 H   0  0  0  0  0  0  0  0  0  0  0  0
   49.6830    8.2671   19.2245 H   0  0  0  0  0  0  0  0  0  0  0  0
   51.7199    9.8555   20.4169 H   0  0  0  0  0  0  0  0  0  0  0  0
   48.9082    9.5028   21.0356 H   0  0  0  0  0  0  0  0  0  0  0  0
   48.6457   11.8668   17.4511 H   0  0  0  0  0  0  0  0  0  0  0  0
   46.6301   10.1818   21.6678 H   0  0  0  0  0  0  0  0  0  0  0  0
   46.3560   12.5825   18.1024 H   0  0  0  0  0  0  0  0  0  0  0  0
   44.7939   11.3455   21.0180 H   0  0  0  0  0  0  0  0  0  0  0  0
   52.0865    8.2222   18.7947 H   0  0  0  0  0  0  0  0  0  0  0  0
   51.2088    5.2495   18.8399 H   0  0  0  0  0  0  0  0  0  0  0  0
   49.1350    6.1278   21.3949 H   0  0  0  0  0  0  0  0  0  0  0  0
   53.5413    5.4454   16.3243 H   0  0  0  0  0  0  0  0  0  0  0  0
  3  7  1  0
  4  8  1  0
  5  9  1  0
  7 10  1  0
  9 11  1  0
 11 12  1  0
 12 13  1  0
 13 14  1  0
 14 15  1  0
 14 16  1  0
 15 17  1  0
 17 18  1  0
 18 19  2  0
 18 20  1  0
 19 21  1  0
 20 22  2  0
 21 23  2  0
 23 24  1  0
  8 10  1  0
 22 23  1  0
  1  2  1  0
  1  3  1  0
  1  4  1  0
  2  5  1  0
  2  6  2  0
 27 31  1  0
 28 32  1  0
 29 33  1  0
 31 34  1  0
 33 35  1  0
 35 36  1  0
 36 37  1  0
 37 38  1  0
 38 39  1  0
 38 40  1  0
 39 41  1  0
 41 42  1  0
 42 43  2  0
 42 44  1  0
 43 45  1  0
 44 46  2  0
 45 47  2  0
 47 48  1  0
 32 34  1  0
 46 47  1  0
 25 26  1  0
 25 27  1  0
 25 28  1  0
 26 29  1  0
 26 30  2  0
 49 50  2  0
 49 54  1  0
 50 51  1  0
 51 52  1  0
 51 53  2  0
 54 55  1  0
 54 56  2  0
  3 57  1  0
  3 58  1  0
  4 59  1  0
  4 60  1  0
  5 61  1  0
  7 62  1  0
  7 63  1  0
  8 64  1  0
  8 65  1  0
  9 66  1  0
  9 67  1  0
 11 68  1  0
 11 69  1  0
 12 70  1  0
 13 71  1  0
 13 72  1  0
 14 73  1  6
 15 74  1  0
 15 75  1  0
 16 76  1  0
 19 77  1  0
 20 78  1  0
 21 79  1  0
 22 80  1  0
 24 81  1  0
 27 82  1  0
 27 83  1  0
 28 84  1  0
 28 85  1  0
 29 86  1  0
 31 87  1  0
 31 88  1  0
 32 89  1  0
 32 90  1  0
 33 91  1  0
 33 92  1  0
 35 93  1  0
 35 94  1  0
 36 95  1  0
 37 96  1  0
 37 97  1  0
 38 98  1  6
 39 99  1  0
 39100  1  0
 40101  1  0
 43102  1  0
 44103  1  0
 45104  1  0
 46105  1  0
 48106  1  0
 49107  1  0
 50108  1  0
 52109  1  0
 55110  1  0
M  END
> <Uni-Dock RESULT> 
ENERGY=   -4.413  LOWER_BOUND=    4.156  UPPER_BOUND=    9.169
INTER + INTRA:          -4.413
INTER:                  -4.413
INTRA:                   0.000
UNBOUND:                 0.000

$$$$

     RDKit          3D

110111  0  0  0  0  0  0  0  0999 V2000
   48.6982   13.7501   16.9706 N   0  0  0  0  0  0  0  0  0  0  0  0
   49.0188   14.3587   15.7760 C   0  0  0  0  0  0  0  0  0  0  0  0
   49.7710   13.4425   17.9145 C   0  0  0  0  0  0  0  0  0  0  0  0
   47.3392   13.4863   17.4605 C   0  0  0  0  0  0  0  0  0  0  0  0
   47.9621   14.5418   14.9238 N   0  0  0  0  0  0  0  0  0  0  0  0
   50.1555   14.7194   15.4989 O   0  0  0  0  0  0  0  0  0  0  0  0
   49.4010   12.2306   18.7782 C   0  0  0  0  0  0  0  0  0  0  0  0
   47.3050   13.3916   18.9899 C   0  0  0  0  0  0  0  0  0  0  0  0
   48.1645   15.0851   13.5926 C   0  0  0  0  0  0  0  0  0  0  0  0
   48.1733   12.3752   19.5094 O   0  0  0  0  0  0  0  0  0  0  0  0
   48.6800   14.0194   12.6065 C   0  0  0  0  0  0  0  0  0  0  0  0
   48.9785   14.4904   11.2466 N   0  0  0  0  0  0  0  0  0  0  0  0
   47.8366   15.0722   10.5273 C   0  0  0  0  0  0  0  0  0  0  0  0
   46.6185   14.1587   10.2621 C   0  0  1  0  0  0  0  0  0  0  0  0
   47.0006   12.7853    9.6940 C   0  0  0  0  0  0  0  0  0  0  0  0
   45.8403   13.9937   11.4611 O   0  0  0  0  0  0  0  0  0  0  0  0
   45.8043   12.0564    9.3838 O   0  0  0  0  0  0  0  0  0  0  0  0
   45.3190   12.0798    8.1067 C   0  0  0  0  0  0  0  0  0  0  0  0
   45.7891   12.8621    7.0487 C   0  0  0  0  0  0  0  0  0  0  0  0
   44.2350   11.2204    7.8920 C   0  0  0  0  0  0  0  0  0  0  0  0
   45.1967   12.7646    5.7839 C   0  0  0  0  0  0  0  0  0  0  0  0
   43.6372   11.1284    6.6346 C   0  0  0  0  0  0  0  0  0  0  0  0
   44.1275   11.8938    5.5892 C   0  0  0  0  0  0  0  0  0  0  0  0
   43.5304   11.7628    4.3746 O   0  0  0  0  0  0  0  0  0  0  0  0
   48.6776   13.0692   16.4520 N   0  0  0  0  0  0  0  0  0  0  0  0
   48.9733   13.2601   15.1155 C   0  0  0  0  0  0  0  0  0  0  0  0
   48.3603   14.1173   17.4237 C   0  0  0  0  0  0  0  0  0  0  0  0
   48.6976   11.7080   16.9865 C   0  0  0  0  0  0  0  0  0  0  0  0
   48.8476   14.5476   14.6694 N   0  0  0  0  0  0  0  0  0  0  0  0
   49.3383   12.3427   14.3838 O   0  0  0  0  0  0  0  0  0  0  0  0
   48.6284   13.6458   18.8565 C   0  0  0  0  0  0  0  0  0  0  0  0
   47.6889   11.5549   18.1300 C   0  0  0  0  0  0  0  0  0  0  0  0
   48.9805   14.8780   13.2612 C   0  0  0  0  0  0  0  0  0  0  0  0
   47.8738   12.4804   19.2126 O   0  0  0  0  0  0  0  0  0  0  0  0
   47.6644   15.4259   12.6647 C   0  0  0  0  0  0  0  0  0  0  0  0
   46.4375   14.7265   13.0651 N   0  0  0  0  0  0  0  0  0  0  0  0
   46.3718   13.3293   12.6091 C   0  0  0  0  0  0  0  0  0  0  0  0
   45.3500   13.0591   11.4844 C   0  0  1  0  0  0  0  0  0  0  0  0
   45.7465   13.7171   10.1578 C   0  0  0  0  0  0  0  0  0  0  0  0
   45.2471   11.6391   11.2816 O   0  0  0  0  0  0  0  0  0  0  0  0
   44.7300   13.3860    9.1929 O   0  0  0  0  0  0  0  0  0  0  0  0
   45.2191   13.2831    7.9193 C   0  0  0  0  0  0  0  0  0  0  0  0
   46.1667   12.3223    7.5653 C   0  0  0  0  0  0  0  0  0  0  0  0
   44.6566   14.1074    6.9469 C   0  0  0  0  0  0  0  0  0  0  0  0
   46.5927   12.2167    6.2400 C   0  0  0  0  0  0  0  0  0  0  0  0
   45.0793   14.0024    5.6221 C   0  0  0  0  0  0  0  0  0  0  0  0
   46.0470   13.0625    5.2803 C   0  0  0  0  0  0  0  0  0  0  0  0
   46.4282   12.9926    3.9763 O   0  0  0  0  0  0  0  0  0  0  0  0
   46.2315   13.6536   12.4980 C   0  0  0  0  0  0  0  0  0  0  0  0
   47.5173   13.3669   12.2569 C   0  0  0  0  0  0  0  0  0  0  0  0
   47.8524   12.4524   11.1653 C   0  0  0  0  0  0  0  0  0  0  0  0
   49.1828   12.3044   11.0791 O   0  0  0  0  0  0  0  0  0  0  0  0
   47.0810   11.8874   10.4155 O   0  0  0  0  0  0  0  0  0  0  0  0
   45.7969   14.5594   13.5643 C   0  0  0  0  0  0  0  0  0  0  0  0
   46.8066   15.0657   14.2883 O   0  0  0  0  0  0  0  0  0  0  0  0
   44.6352   14.8384   13.7983 O   0  0  0  0  0  0  0  0  0  0  0  0
   50.7112   13.2568   17.3833 H   0  0  0  0  0  0  0  0  0  0  0  0
   49.9035   14.3338   18.5430 H   0  0  0  0  0  0  0  0  0  0  0  0
   47.0260   12.5327   17.0166 H   0  0  0  0  0  0  0  0  0  0  0  0
   46.6584   14.2708   17.1165 H   0  0  0  0  0  0  0  0  0  0  0  0
   47.2019   13.8877   15.0158 H   0  0  0  0  0  0  0  0  0  0  0  0
   49.2974   11.3404   18.1481 H   0  0  0  0  0  0  0  0  0  0  0  0
   50.1946   12.0274   19.5013 H   0  0  0  0  0  0  0  0  0  0  0  0
   46.2894   13.1695   19.3374 H   0  0  0  0  0  0  0  0  0  0  0  0
   47.6014   14.3487   19.4388 H   0  0  0  0  0  0  0  0  0  0  0  0
   48.8732   15.9198   13.6508 H   0  0  0  0  0  0  0  0  0  0  0  0
   47.1962   15.4818   13.2741 H   0  0  0  0  0  0  0  0  0  0  0  0
   47.9873   13.1714   12.5758 H   0  0  0  0  0  0  0  0  0  0  0  0
   49.6116   13.5961   13.0016 H   0  0  0  0  0  0  0  0  0  0  0  0
   49.7156   15.1938   11.3175 H   0  0  0  0  0  0  0  0  0  0  0  0
   48.2226   15.3873    9.5491 H   0  0  0  0  0  0  0  0  0  0  0  0
   47.5087   15.9831   11.0428 H   0  0  0  0  0  0  0  0  0  0  0  0
   45.9570   14.6704    9.5535 H   0  0  0  0  0  0  0  0  0  0  0  0
   47.5012   12.1875   10.4650 H   0  0  0  0  0  0  0  0  0  0  0  0
   47.6940   12.8462    8.8481 H   0  0  0  0  0  0  0  0  0  0  0  0
   45.1785   13.3081   11.2459 H   0  0  0  0  0  0  0  0  0  0  0  0
   46.6072   13.5634    7.1718 H   0  0  0  0  0  0  0  0  0  0  0  0
   43.8566   10.6118    8.7094 H   0  0  0  0  0  0  0  0  0  0  0  0
   45.5844   13.3678    4.9684 H   0  0  0  0  0  0  0  0  0  0  0  0
   42.8040   10.4495    6.4714 H   0  0  0  0  0  0  0  0  0  0  0  0
   43.9931   12.3287    3.7338 H   0  0  0  0  0  0  0  0  0  0  0  0
   47.2962   14.3448   17.2973 H   0  0  0  0  0  0  0  0  0  0  0  0
   48.9408   15.0166   17.2077 H   0  0  0  0  0  0  0  0  0  0  0  0
   48.4905   10.9772   16.1987 H   0  0  0  0  0  0  0  0  0  0  0  0
   49.7167   11.5321   17.3520 H   0  0  0  0  0  0  0  0  0  0  0  0
   48.2258   15.1413   15.1944 H   0  0  0  0  0  0  0  0  0  0  0  0
   48.3759   14.4365   19.5713 H   0  0  0  0  0  0  0  0  0  0  0  0
   49.6883   13.4084   18.9903 H   0  0  0  0  0  0  0  0  0  0  0  0
   47.7440   10.5443   18.5481 H   0  0  0  0  0  0  0  0  0  0  0  0
   46.6691   11.6982   17.7515 H   0  0  0  0  0  0  0  0  0  0  0  0
   49.3263   14.0090   12.6906 H   0  0  0  0  0  0  0  0  0  0  0  0
   49.7569   15.6471   13.1859 H   0  0  0  0  0  0  0  0  0  0  0  0
   47.7479   15.4733   11.5732 H   0  0  0  0  0  0  0  0  0  0  0  0
   47.5580   16.4634   13.0120 H   0  0  0  0  0  0  0  0  0  0  0  0
   45.6121   15.2418   12.7585 H   0  0  0  0  0  0  0  0  0  0  0  0
   46.0837   12.7229   13.4786 H   0  0  0  0  0  0  0  0  0  0  0  0
   47.3492   12.9352   12.3068 H   0  0  0  0  0  0  0  0  0  0  0  0
   44.3521   13.3955   11.7884 H   0  0  0  0  0  0  0  0  0  0  0  0
   45.7727   14.8089   10.2517 H   0  0  0  0  0  0  0  0  0  0  0  0
   46.7385   13.3655    9.8533 H   0  0  0  0  0  0  0  0  0  0  0  0
   44.6668   11.5272   10.5035 H   0  0  0  0  0  0  0  0  0  0  0  0
   46.5605   11.6359    8.3093 H   0  0  0  0  0  0  0  0  0  0  0  0
   43.8930   14.8300    7.2194 H   0  0  0  0  0  0  0  0  0  0  0  0
   47.3342   11.4677    5.9804 H   0  0  0  0  0  0  0  0  0  0  0  0
   44.6472   14.6412    4.8583 H   0  0  0  0  0  0  0  0  0  0  0  0
   47.1728   12.3654    3.9029 H   0  0  0  0  0  0  0  0  0  0  0  0
   45.4279   13.2239   11.9090 H   0  0  0  0  0  0  0  0  0  0  0  0
   48.3339   13.7863   12.8297 H   0  0  0  0  0  0  0  0  0  0  0  0
   49.3008   11.6921   10.3238 H   0  0  0  0  0  0  0  0  0  0  0  0
   46.3607   15.6374   14.9479 H   0  0  0  0  0  0  0  0  0  0  0  0
  3  7  1  0
  4  8  1  0
  5  9  1  0
  7 10  1  0
  9 11  1  0
 11 12  1  0
 12 13  1  0
 13 14  1  0
 14 15  1  0
 14 16  1  0
 15 17  1  0
 17 18  1  0
 18 19  2  0
 18 20  1  0
 19 21  1  0
 20 22  2  0
 21 23  2  0
 23 24  1  0
  8 10  1  0
 22 23  1  0
  1  2  1  0
  1  3  1  0
  1  4  1  0
  2  5  1  0
  2  6  2  0
 27 31  1  0
 28 32  1  0
 29 33  1  0
 31 34  1  0
 33 35  1  0
 35 36  1  0
 36 37  1  0
 37 38  1  0
 38 39  1  0
 38 40  1  0
 39 41  1  0
 41 42  1  0
 42 43  2  0
 42 44  1  0
 43 45  1  0
 44 46  2  0
 45 47  2  0
 47 48  1  0
 32 34  1  0
 46 47  1  0
 25 26  1  0
 25 27  1  0
 25 28  1  0
 26 29  1  0
 26 30  2  0
 49 50  2  0
 49 54  1  0
 50 51  1  0
 51 52  1  0
 51 53  2  0
 54 55  1  0
 54 56  2  0
  3 57  1  0
  3 58  1  0
  4 59  1  0
  4 60  1  0
  5 61  1  0
  7 62  1  0
  7 63  1  0
  8 64  1  0
  8 65  1  0
  9 66  1  0
  9 67  1  0
 11 68  1  0
 11 69  1  0
 12 70  1  0
 13 71  1  0
 13 72  1  0
 14 73  1  6
 15 74  1  0
 15 75  1  0
 16 76  1  0
 19 77  1  0
 20 78  1  0
 21 79  1  0
 22 80  1  0
 24 81  1  0
 27 82  1  0
 27 83  1  0
 28 84  1  0
 28 85  1  0
 29 86  1  0
 31 87  1  0
 31 88  1  0
 32 89  1  0
 32 90  1  0
 33 91  1  0
 33 92  1  0
 35 93  1  0
 35 94  1  0
 36 95  1  0
 37 96  1  0
 37 97  1  0
 38 98  1  6
 39 99  1  0
 39100  1  0
 40101  1  0
 43102  1  0
 44103  1  0
 45104  1  0
 46105  1  0
 48106  1  0
 49107  1  0
 50108  1  0
 52109  1  0
 55110  1  0
M  END
> <Uni-Dock RESULT> 
ENERGY=   -4.409  LOWER_BOUND=    8.430  UPPER_BOUND=   10.143
INTER + INTRA:          -4.409
INTER:                  -4.409
INTRA:                   0.000
UNBOUND:                 0.000

$$$$

     RDKit          3D

110111  0  0  0  0  0  0  0  0999 V2000
   47.6417   10.9497   20.5979 N   0  0  0  0  0  0  0  0  0  0  0  0
   47.6817    9.6318   21.0003 C   0  0  0  0  0  0  0  0  0  0  0  0
   46.3431   11.5657   20.3324 C   0  0  0  0  0  0  0  0  0  0  0  0
   48.7919   11.8599   20.5286 C   0  0  0  0  0  0  0  0  0  0  0  0
   48.9418    9.1172   21.1546 N   0  0  0  0  0  0  0  0  0  0  0  0
   46.6727    8.9725   21.2152 O   0  0  0  0  0  0  0  0  0  0  0  0
   46.4775   12.6850   19.2928 C   0  0  0  0  0  0  0  0  0  0  0  0
   48.3547   13.3236   20.6546 C   0  0  0  0  0  0  0  0  0  0  0  0
   49.1392    7.7169   21.4839 C   0  0  0  0  0  0  0  0  0  0  0  0
   47.4113   13.7167   19.6485 O   0  0  0  0  0  0  0  0  0  0  0  0
   48.9992    6.8081   20.2476 C   0  0  0  0  0  0  0  0  0  0  0  0
   49.1172    5.3637   20.4929 N   0  0  0  0  0  0  0  0  0  0  0  0
   50.4005    4.9351   21.0667 C   0  0  0  0  0  0  0  0  0  0  0  0
   51.6777    5.1984   20.2374 C   0  0  1  0  0  0  0  0  0  0  0  0
   51.5479    4.7725   18.7688 C   0  0  0  0  0  0  0  0  0  0  0  0
   52.0526    6.5856   20.3139 O   0  0  0  0  0  0  0  0  0  0  0  0
   52.8108    4.9572   18.1132 O   0  0  0  0  0  0  0  0  0  0  0  0
   53.6663    3.8979   17.9990 C   0  0  0  0  0  0  0  0  0  0  0  0
   53.5148    2.6355   18.5785 C   0  0  0  0  0  0  0  0  0  0  0  0
   54.7983    4.1599   17.2181 C   0  0  0  0  0  0  0  0  0  0  0  0
   54.4733    1.6395   18.3564 C   0  0  0  0  0  0  0  0  0  0  0  0
   55.7594    3.1715   17.0030 C   0  0  0  0  0  0  0  0  0  0  0  0
   55.5855    1.9177   17.5658 C   0  0  0  0  0  0  0  0  0  0  0  0
   56.5342    0.9757   17.3182 O   0  0  0  0  0  0  0  0  0  0  0  0
   47.8502   10.5785   19.8550 N   0  0  0  0  0  0  0  0  0  0  0  0
   47.9753    9.2024   19.8277 C   0  0  0  0  0  0  0  0  0  0  0  0
   47.8071   11.4174   21.0542 C   0  0  0  0  0  0  0  0  0  0  0  0
   47.7223   11.2957   18.5869 C   0  0  0  0  0  0  0  0  0  0  0  0
   48.1791    8.6120   21.0452 N   0  0  0  0  0  0  0  0  0  0  0  0
   47.8934    8.5538   18.7872 O   0  0  0  0  0  0  0  0  0  0  0  0
   47.1283   12.7607   20.7682 C   0  0  0  0  0  0  0  0  0  0  0  0
   48.3328   12.6978   18.6878 C   0  0  0  0  0  0  0  0  0  0  0  0
   48.4753    7.1945   21.1599 C   0  0  0  0  0  0  0  0  0  0  0  0
   47.7834   13.5103   19.7370 O   0  0  0  0  0  0  0  0  0  0  0  0
   49.8875    6.9390   21.7332 C   0  0  0  0  0  0  0  0  0  0  0  0
   50.9580    7.7962   21.2099 N   0  0  0  0  0  0  0  0  0  0  0  0
   51.2198    7.6136   19.7738 C   0  0  0  0  0  0  0  0  0  0  0  0
   52.5500    6.9058   19.4396 C   0  0  1  0  0  0  0  0  0  0  0  0
   52.5567    5.4331   19.8652 C   0  0  0  0  0  0  0  0  0  0  0  0
   52.7697    6.9761   18.0201 O   0  0  0  0  0  0  0  0  0  0  0  0
   53.8350    4.8838   19.4930 O   0  0  0  0  0  0  0  0  0  0  0  0
   53.7691    3.5566   19.1677 C   0  0  0  0  0  0  0  0  0  0  0  0
   53.0186    3.0957   18.0858 C   0  0  0  0  0  0  0  0  0  0  0  0
   54.5702    2.6771   19.8931 C   0  0  0  0  0  0  0  0  0  0  0  0
   53.0287    1.7391   17.7560 C   0  0  0  0  0  0  0  0  0  0  0  0
   54.5834    1.3219   19.5644 C   0  0  0  0  0  0  0  0  0  0  0  0
   53.8091    0.8631   18.5029 C   0  0  0  0  0  0  0  0  0  0  0  0
   53.8537   -0.4658   18.2154 O   0  0  0  0  0  0  0  0  0  0  0  0
   51.3740    7.4985   20.0903 C   0  0  0  0  0  0  0  0  0  0  0  0
   50.2391    6.9333   19.6587 C   0  0  0  0  0  0  0  0  0  0  0  0
   50.2970    5.9548   18.5727 C   0  0  0  0  0  0  0  0  0  0  0  0
   49.0661    5.4994   18.2958 O   0  0  0  0  0  0  0  0  0  0  0  0
   51.2855    5.5723   17.9785 O   0  0  0  0  0  0  0  0  0  0  0  0
   51.4189    8.4844   21.1730 C   0  0  0  0  0  0  0  0  0  0  0  0
   50.2144    8.7808   21.6845 O   0  0  0  0  0  0  0  0  0  0  0  0
   52.4383    9.0071   21.5850 O   0  0  0  0  0  0  0  0  0  0  0  0
   45.6222   10.8150   19.9901 H   0  0  0  0  0  0  0  0  0  0  0  0
   45.9854   11.9726   21.2881 H   0  0  0  0  0  0  0  0  0  0  0  0
   49.2666   11.6910   19.5536 H   0  0  0  0  0  0  0  0  0  0  0  0
   49.5125   11.6132   21.3141 H   0  0  0  0  0  0  0  0  0  0  0  0
   49.6627    9.5374   20.5907 H   0  0  0  0  0  0  0  0  0  0  0  0
   46.8082   12.2680   18.3352 H   0  0  0  0  0  0  0  0  0  0  0  0
   45.5082   13.1603   19.1239 H   0  0  0  0  0  0  0  0  0  0  0  0
   49.2211   13.9905   20.5756 H   0  0  0  0  0  0  0  0  0  0  0  0
   47.8943   13.5018   21.6353 H   0  0  0  0  0  0  0  0  0  0  0  0
   48.4132    7.4242   22.2517 H   0  0  0  0  0  0  0  0  0  0  0  0
   50.1411    7.6431   21.9164 H   0  0  0  0  0  0  0  0  0  0  0  0
   49.7021    7.1241   19.4691 H   0  0  0  0  0  0  0  0  0  0  0  0
   48.0095    6.9693   19.8029 H   0  0  0  0  0  0  0  0  0  0  0  0
   48.3658    5.0957   21.1306 H   0  0  0  0  0  0  0  0  0  0  0  0
   50.3237    3.8487   21.2045 H   0  0  0  0  0  0  0  0  0  0  0  0
   50.5144    5.3703   22.0670 H   0  0  0  0  0  0  0  0  0  0  0  0
   52.5042    4.6473   20.7007 H   0  0  0  0  0  0  0  0  0  0  0  0
   50.8585    5.4444   18.2439 H   0  0  0  0  0  0  0  0  0  0  0  0
   51.1487    3.7597   18.6472 H   0  0  0  0  0  0  0  0  0  0  0  0
   52.7764    6.6925   19.6666 H   0  0  0  0  0  0  0  0  0  0  0  0
   52.6703    2.3926   19.2143 H   0  0  0  0  0  0  0  0  0  0  0  0
   54.9300    5.1404   16.7676 H   0  0  0  0  0  0  0  0  0  0  0  0
   54.3324    0.6589   18.8011 H   0  0  0  0  0  0  0  0  0  0  0  0
   56.6296    3.3776   16.3850 H   0  0  0  0  0  0  0  0  0  0  0  0
   56.2697    0.1429   17.7441 H   0  0  0  0  0  0  0  0  0  0  0  0
   48.8475   11.5802   21.3557 H   0  0  0  0  0  0  0  0  0  0  0  0
   47.2850   10.8947   21.8584 H   0  0  0  0  0  0  0  0  0  0  0  0
   48.1935   10.7355   17.7735 H   0  0  0  0  0  0  0  0  0  0  0  0
   46.6484   11.3627   18.3741 H   0  0  0  0  0  0  0  0  0  0  0  0
   48.5826    9.1955   21.7603 H   0  0  0  0  0  0  0  0  0  0  0  0
   47.1139   13.3803   21.6713 H   0  0  0  0  0  0  0  0  0  0  0  0
   46.0899   12.6076   20.4583 H   0  0  0  0  0  0  0  0  0  0  0  0
   48.1931   13.2382   17.7457 H   0  0  0  0  0  0  0  0  0  0  0  0
   49.4128   12.6241   18.8668 H   0  0  0  0  0  0  0  0  0  0  0  0
   48.3597    6.6953   20.1915 H   0  0  0  0  0  0  0  0  0  0  0  0
   47.7291    6.7667   21.8381 H   0  0  0  0  0  0  0  0  0  0  0  0
   50.1442    5.8800   21.6181 H   0  0  0  0  0  0  0  0  0  0  0  0
   49.8377    7.1292   22.8147 H   0  0  0  0  0  0  0  0  0  0  0  0
   51.8155    7.6715   21.7483 H   0  0  0  0  0  0  0  0  0  0  0  0
   51.2494    8.6156   19.3247 H   0  0  0  0  0  0  0  0  0  0  0  0
   50.4013    7.1005   19.2552 H   0  0  0  0  0  0  0  0  0  0  0  0
   53.3898    7.4359   19.9034 H   0  0  0  0  0  0  0  0  0  0  0  0
   52.4574    5.3366   20.9525 H   0  0  0  0  0  0  0  0  0  0  0  0
   51.7234    4.9067   19.3868 H   0  0  0  0  0  0  0  0  0  0  0  0
   53.5666    6.4364   17.8516 H   0  0  0  0  0  0  0  0  0  0  0  0
   52.4427    3.7886   17.4790 H   0  0  0  0  0  0  0  0  0  0  0  0
   55.1811    3.0449   20.7123 H   0  0  0  0  0  0  0  0  0  0  0  0
   52.4360    1.3944   16.9146 H   0  0  0  0  0  0  0  0  0  0  0  0
   55.2038    0.6296   20.1247 H   0  0  0  0  0  0  0  0  0  0  0  0
   53.1953   -0.6561   17.5201 H   0  0  0  0  0  0  0  0  0  0  0  0
   52.3376    7.2550   19.6552 H   0  0  0  0  0  0  0  0  0  0  0  0
   49.2686    7.1594   20.0803 H   0  0  0  0  0  0  0  0  0  0  0  0
   49.2134    4.8531   17.5746 H   0  0  0  0  0  0  0  0  0  0  0  0
   50.4099    9.4418   22.3813 H   0  0  0  0  0  0  0  0  0  0  0  0
  3  7  1  0
  4  8  1  0
  5  9  1  0
  7 10  1  0
  9 11  1  0
 11 12  1  0
 12 13  1  0
 13 14  1  0
 14 15  1  0
 14 16  1  0
 15 17  1  0
 17 18  1  0
 18 19  2  0
 18 20  1  0
 19 21  1  0
 20 22  2  0
 21 23  2  0
 23 24  1  0
  8 10  1  0
 22 23  1  0
  1  2  1  0
  1  3  1  0
  1  4  1  0
  2  5  1  0
  2  6  2  0
 27 31  1  0
 28 32  1  0
 29 33  1  0
 31 34  1  0
 33 35  1  0
 35 36  1  0
 36 37  1  0
 37 38  1  0
 38 39  1  0
 38 40  1  0
 39 41  1  0
 41 42  1  0
 42 43  2  0
 42 44  1  0
 43 45  1  0
 44 46  2  0
 45 47  2  0
 47 48  1  0
 32 34  1  0
 46 47  1  0
 25 26  1  0
 25 27  1  0
 25 28  1  0
 26 29  1  0
 26 30  2  0
 49 50  2  0
 49 54  1  0
 50 51  1  0
 51 52  1  0
 51 53  2  0
 54 55  1  0
 54 56  2  0
  3 57  1  0
  3 58  1  0
  4 59  1  0
  4 60  1  0
  5 61  1  0
  7 62  1  0
  7 63  1  0
  8 64  1  0
  8 65  1  0
  9 66  1  0
  9 67  1  0
 11 68  1  0
 11 69  1  0
 12 70  1  0
 13 71  1  0
 13 72  1  0
 14 73  1  6
 15 74  1  0
 15 75  1  0
 16 76  1  0
 19 77  1  0
 20 78  1  0
 21 79  1  0
 22 80  1  0
 24 81  1  0
 27 82  1  0
 27 83  1  0
 28 84  1  0
 28 85  1  0
 29 86  1  0
 31 87  1  0
 31 88  1  0
 32 89  1  0
 32 90  1  0
 33 91  1  0
 33 92  1  0
 35 93  1  0
 35 94  1  0
 36 95  1  0
 37 96  1  0
 37 97  1  0
 38 98  1  6
 39 99  1  0
 39100  1  0
 40101  1  0
 43102  1  0
 44103  1  0
 45104  1  0
 46105  1  0
 48106  1  0
 49107  1  0
 50108  1  0
 52109  1  0
 55110  1  0
M  END
> <Uni-Dock RESULT> 
ENERGY=   -4.323  LOWER_BOUND=    2.959  UPPER_BOUND=    5.161
INTER + INTRA:          -4.323
INTER:                  -4.323
INTRA:                   0.000
UNBOUND:                 0.000

$$$$
