
     RDKit          3D

110111  0  0  0  0  0  0  0  0999 V2000
   51.1471   10.5842   15.1575 N   0  0  0  0  0  0  0  0  0  0  0  0
   51.3511   10.4194   13.8012 C   0  0  0  0  0  0  0  0  0  0  0  0
   52.3115   10.6611   16.0425 C   0  0  0  0  0  0  0  0  0  0  0  0
   49.8825   11.0065   15.7657 C   0  0  0  0  0  0  0  0  0  0  0  0
   50.2128   10.4405   13.0378 N   0  0  0  0  0  0  0  0  0  0  0  0
   52.4666   10.2904   13.3030 O   0  0  0  0  0  0  0  0  0  0  0  0
   52.1923   11.8656   16.9824 C   0  0  0  0  0  0  0  0  0  0  0  0
   49.9613   11.0217   17.2952 C   0  0  0  0  0  0  0  0  0  0  0  0
   50.2871   10.2320   11.6005 C   0  0  0  0  0  0  0  0  0  0  0  0
   51.0105   11.8585   17.8001 O   0  0  0  0  0  0  0  0  0  0  0  0
   50.5216    8.7602   11.2063 C   0  0  0  0  0  0  0  0  0  0  0  0
   49.8068    7.7516   11.9977 N   0  0  0  0  0  0  0  0  0  0  0  0
   48.3898    7.5683   11.6731 C   0  0  0  0  0  0  0  0  0  0  0  0
   47.4379    8.6148   12.2869 C   0  0  1  0  0  0  0  0  0  0  0  0
   45.9614    8.2008   12.1989 C   0  0  0  0  0  0  0  0  0  0  0  0
   47.7944    8.8290   13.6652 O   0  0  0  0  0  0  0  0  0  0  0  0
   45.7515    7.0290   12.9956 O   0  0  0  0  0  0  0  0  0  0  0  0
   45.1420    5.9586   12.4036 C   0  0  0  0  0  0  0  0  0  0  0  0
   44.3753    5.1664   13.2620 C   0  0  0  0  0  0  0  0  0  0  0  0
   45.2934    5.5786   11.0689 C   0  0  0  0  0  0  0  0  0  0  0  0
   43.7378    4.0203   12.7850 C   0  0  0  0  0  0  0  0  0  0  0  0
   44.6539    4.4301   10.5879 C   0  0  0  0  0  0  0  0  0  0  0  0
   43.8787    3.6628   11.4517 C   0  0  0  0  0  0  0  0  0  0  0  0
   43.2447    2.5333   11.0273 O   0  0  0  0  0  0  0  0  0  0  0  0
   45.0447    5.1277   11.2826 N   0  0  0  0  0  0  0  0  0  0  0  0
   45.2242    6.0463   12.2930 C   0  0  0  0  0  0  0  0  0  0  0  0
   45.6636    5.1873    9.9548 C   0  0  0  0  0  0  0  0  0  0  0  0
   44.0310    4.0864   11.4511 C   0  0  0  0  0  0  0  0  0  0  0  0
   46.2547    6.9283   12.0931 N   0  0  0  0  0  0  0  0  0  0  0  0
   44.5206    6.0775   13.2987 O   0  0  0  0  0  0  0  0  0  0  0  0
   44.7790    4.5209    8.8970 C   0  0  0  0  0  0  0  0  0  0  0  0
   44.3563    2.8632   10.5891 C   0  0  0  0  0  0  0  0  0  0  0  0
   46.5916    7.9123   13.1057 C   0  0  0  0  0  0  0  0  0  0  0  0
   44.4846    3.1494    9.1876 O   0  0  0  0  0  0  0  0  0  0  0  0
   47.3905    7.3018   14.2727 C   0  0  0  0  0  0  0  0  0  0  0  0
   47.7150    8.2251   15.3675 N   0  0  0  0  0  0  0  0  0  0  0  0
   48.5715    9.3672   14.9972 C   0  0  0  0  0  0  0  0  0  0  0  0
   50.0045    8.9354   14.6186 C   0  0  1  0  0  0  0  0  0  0  0  0
   50.9471   10.1262   14.3788 C   0  0  0  0  0  0  0  0  0  0  0  0
   50.5285    8.0923   15.6555 O   0  0  0  0  0  0  0  0  0  0  0  0
   50.8510   11.0619   15.4557 O   0  0  0  0  0  0  0  0  0  0  0  0
   51.6219   12.1889   15.3785 C   0  0  0  0  0  0  0  0  0  0  0  0
   52.5257   12.4998   14.3596 C   0  0  0  0  0  0  0  0  0  0  0  0
   51.4578   13.0817   16.4408 C   0  0  0  0  0  0  0  0  0  0  0  0
   53.2563   13.6937   14.4046 C   0  0  0  0  0  0  0  0  0  0  0  0
   52.1847   14.2720   16.4891 C   0  0  0  0  0  0  0  0  0  0  0  0
   53.0795   14.5701   15.4705 C   0  0  0  0  0  0  0  0  0  0  0  0
   53.7751   15.7388   15.5543 O   0  0  0  0  0  0  0  0  0  0  0  0
   47.7111    8.3446   13.1751 C   0  0  0  0  0  0  0  0  0  0  0  0
   49.0085    8.5386   13.4502 C   0  0  0  0  0  0  0  0  0  0  0  0
   49.5514    9.8357   13.8620 C   0  0  0  0  0  0  0  0  0  0  0  0
   48.6328   10.8102   13.9386 O   0  0  0  0  0  0  0  0  0  0  0  0
   50.7242   10.0412   14.1149 O   0  0  0  0  0  0  0  0  0  0  0  0
   47.1654    7.0463   12.7689 C   0  0  0  0  0  0  0  0  0  0  0  0
   48.0823    6.0702   12.6988 O   0  0  0  0  0  0  0  0  0  0  0  0
   45.9936    6.8438   12.5100 O   0  0  0  0  0  0  0  0  0  0  0  0
   53.2456   10.7190   15.4757 H   0  0  0  0  0  0  0  0  0  0  0  0
   52.3248    9.7315   16.6226 H   0  0  0  0  0  0  0  0  0  0  0  0
   49.6689   12.0136   15.3880 H   0  0  0  0  0  0  0  0  0  0  0  0
   49.0764   10.3402   15.4496 H   0  0  0  0  0  0  0  0  0  0  0  0
   49.3793   10.0686   13.4755 H   0  0  0  0  0  0  0  0  0  0  0  0
   53.0567   11.9098   17.6538 H   0  0  0  0  0  0  0  0  0  0  0  0
   52.1790   12.7956   16.4011 H   0  0  0  0  0  0  0  0  0  0  0  0
   49.0178   11.3828   17.7180 H   0  0  0  0  0  0  0  0  0  0  0  0
   50.1260   10.0081   17.6803 H   0  0  0  0  0  0  0  0  0  0  0  0
   51.0944   10.8521   11.1944 H   0  0  0  0  0  0  0  0  0  0  0  0
   49.3505   10.6019   11.1743 H   0  0  0  0  0  0  0  0  0  0  0  0
   51.5898    8.5488   11.3432 H   0  0  0  0  0  0  0  0  0  0  0  0
   50.3318    8.6244   10.1350 H   0  0  0  0  0  0  0  0  0  0  0  0
   49.8966    7.9964   12.9856 H   0  0  0  0  0  0  0  0  0  0  0  0
   48.1343    6.5837   12.0815 H   0  0  0  0  0  0  0  0  0  0  0  0
   48.2374    7.4963   10.5902 H   0  0  0  0  0  0  0  0  0  0  0  0
   47.5515    9.5698   11.7699 H   0  0  0  0  0  0  0  0  0  0  0  0
   45.3495    8.9861   12.6594 H   0  0  0  0  0  0  0  0  0  0  0  0
   45.6343    8.1112   11.1583 H   0  0  0  0  0  0  0  0  0  0  0  0
   47.4791    8.0303   14.1347 H   0  0  0  0  0  0  0  0  0  0  0  0
   44.2708    5.4415   14.3081 H   0  0  0  0  0  0  0  0  0  0  0  0
   45.9245    6.1357   10.3843 H   0  0  0  0  0  0  0  0  0  0  0  0
   43.1383    3.4085   13.4534 H   0  0  0  0  0  0  0  0  0  0  0  0
   44.7824    4.1489    9.5481 H   0  0  0  0  0  0  0  0  0  0  0  0
   43.4614    2.3868   10.0914 H   0  0  0  0  0  0  0  0  0  0  0  0
   46.6205    4.6588   10.0343 H   0  0  0  0  0  0  0  0  0  0  0  0
   45.8601    6.2271    9.6779 H   0  0  0  0  0  0  0  0  0  0  0  0
   43.9555    3.7991   12.5051 H   0  0  0  0  0  0  0  0  0  0  0  0
   43.0721    4.5235   11.1480 H   0  0  0  0  0  0  0  0  0  0  0  0
   47.0161    6.5830   11.5310 H   0  0  0  0  0  0  0  0  0  0  0  0
   43.8264    5.0558    8.8037 H   0  0  0  0  0  0  0  0  0  0  0  0
   45.2687    4.5531    7.9182 H   0  0  0  0  0  0  0  0  0  0  0  0
   45.3037    2.4164   10.9142 H   0  0  0  0  0  0  0  0  0  0  0  0
   43.5783    2.1006   10.6996 H   0  0  0  0  0  0  0  0  0  0  0  0
   45.6657    8.3658   13.4786 H   0  0  0  0  0  0  0  0  0  0  0  0
   47.1721    8.6882   12.5975 H   0  0  0  0  0  0  0  0  0  0  0  0
   48.3009    6.8263   13.8906 H   0  0  0  0  0  0  0  0  0  0  0  0
   46.8077    6.4816   14.7104 H   0  0  0  0  0  0  0  0  0  0  0  0
   46.8381    8.5859   15.7521 H   0  0  0  0  0  0  0  0  0  0  0  0
   48.6167    9.9995   15.8921 H   0  0  0  0  0  0  0  0  0  0  0  0
   48.1183    9.9724   14.2054 H   0  0  0  0  0  0  0  0  0  0  0  0
   49.9896    8.3310   13.7048 H   0  0  0  0  0  0  0  0  0  0  0  0
   51.9767    9.7530   14.3082 H   0  0  0  0  0  0  0  0  0  0  0  0
   50.6571   10.6187   13.4415 H   0  0  0  0  0  0  0  0  0  0  0  0
   49.7395    7.6645   16.0502 H   0  0  0  0  0  0  0  0  0  0  0  0
   52.6889   11.8352   13.5186 H   0  0  0  0  0  0  0  0  0  0  0  0
   50.7618   12.8437   17.2411 H   0  0  0  0  0  0  0  0  0  0  0  0
   53.9568   13.9161   13.6057 H   0  0  0  0  0  0  0  0  0  0  0  0
   52.0550   14.9579   17.3209 H   0  0  0  0  0  0  0  0  0  0  0  0
   54.3872   15.7923   14.8023 H   0  0  0  0  0  0  0  0  0  0  0  0
   46.9780    9.1410   13.2390 H   0  0  0  0  0  0  0  0  0  0  0  0
   49.7415    7.7420   13.3869 H   0  0  0  0  0  0  0  0  0  0  0  0
   49.1475   11.5957   14.2195 H   0  0  0  0  0  0  0  0  0  0  0  0
   47.5686    5.2826   12.4206 H   0  0  0  0  0  0  0  0  0  0  0  0
  3  7  1  0
  4  8  1  0
  5  9  1  0
  7 10  1  0
  9 11  1  0
 11 12  1  0
 12 13  1  0
 13 14  1  0
 14 15  1  0
 14 16  1  0
 15 17  1  0
 17 18  1  0
 18 19  2  0
 18 20  1  0
 19 21  1  0
 20 22  2  0
 21 23  2  0
 23 24  1  0
  8 10  1  0
 22 23  1  0
  1  2  1  0
  1  3  1  0
  1  4  1  0
  2  5  1  0
  2  6  2  0
 27 31  1  0
 28 32  1  0
 29 33  1  0
 31 34  1  0
 33 35  1  0
 35 36  1  0
 36 37  1  0
 37 38  1  0
 38 39  1  0
 38 40  1  0
 39 41  1  0
 41 42  1  0
 42 43  2  0
 42 44  1  0
 43 45  1  0
 44 46  2  0
 45 47  2  0
 47 48  1  0
 32 34  1  0
 46 47  1  0
 25 26  1  0
 25 27  1  0
 25 28  1  0
 26 29  1  0
 26 30  2  0
 49 50  2  0
 49 54  1  0
 50 51  1  0
 51 52  1  0
 51 53  2  0
 54 55  1  0
 54 56  2  0
  3 57  1  0
  3 58  1  0
  4 59  1  0
  4 60  1  0
  5 61  1  0
  7 62  1  0
  7 63  1  0
  8 64  1  0
  8 65  1  0
  9 66  1  0
  9 67  1  0
 11 68  1  0
 11 69  1  0
 12 70  1  0
 13 71  1  0
 13 72  1  0
 14 73  1  1
 15 74  1  0
 15 75  1  0
 16 76  1  0
 19 77  1  0
 20 78  1  0
 21 79  1  0
 22 80  1  0
 24 81  1  0
 27 82  1  0
 27 83  1  0
 28 84  1  0
 28 85  1  0
 29 86  1  0
 31 87  1  0
 31 88  1  0
 32 89  1  0
 32 90  1  0
 33 91  1  0
 33 92  1  0
 35 93  1  0
 35 94  1  0
 36 95  1  0
 37 96  1  0
 37 97  1  0
 38 98  1  6
 39 99  1  0
 39100  1  0
 40101  1  0
 43102  1  0
 44103  1  0
 45104  1  0
 46105  1  0
 48106  1  0
 49107  1  0
 50108  1  0
 52109  1  0
 55110  1  0
M  END
> <Uni-Dock RESULT> 
ENERGY=   -5.435  LOWER_BOUND=    0.000  UPPER_BOUND=    0.000
INTER + INTRA:          -5.435
INTER:                  -5.435
INTRA:                   0.000
UNBOUND:                 0.000

$$$$

     RDKit          3D

110111  0  0  0  0  0  0  0  0999 V2000
   51.8828   11.5453   15.0110 N   0  0  0  0  0  0  0  0  0  0  0  0
   52.0564   10.2490   15.4555 C   0  0  0  0  0  0  0  0  0  0  0  0
   52.2561   12.6511   15.8957 C   0  0  0  0  0  0  0  0  0  0  0  0
   51.6538   11.9248   13.6142 C   0  0  0  0  0  0  0  0  0  0  0  0
   51.7599    9.2769   14.5355 N   0  0  0  0  0  0  0  0  0  0  0  0
   52.4709    9.9767   16.5794 O   0  0  0  0  0  0  0  0  0  0  0  0
   53.1267   13.6663   15.1474 C   0  0  0  0  0  0  0  0  0  0  0  0
   51.4267   13.4317   13.4615 C   0  0  0  0  0  0  0  0  0  0  0  0
   51.8572    7.8709   14.8938 C   0  0  0  0  0  0  0  0  0  0  0  0
   52.5065   14.2222   13.9763 O   0  0  0  0  0  0  0  0  0  0  0  0
   50.6945    7.3829   15.7808 C   0  0  0  0  0  0  0  0  0  0  0  0
   49.3620    7.9047   15.4542 N   0  0  0  0  0  0  0  0  0  0  0  0
   48.6930    7.2824   14.3087 C   0  0  0  0  0  0  0  0  0  0  0  0
   49.1492    7.7951   12.9276 C   0  0  1  0  0  0  0  0  0  0  0  0
   48.2067    7.3674   11.7927 C   0  0  0  0  0  0  0  0  0  0  0  0
   49.2383    9.2315   12.9611 O   0  0  0  0  0  0  0  0  0  0  0  0
   46.9264    7.9798   11.9863 O   0  0  0  0  0  0  0  0  0  0  0  0
   45.8260    7.1696   11.9762 C   0  0  0  0  0  0  0  0  0  0  0  0
   44.6559    7.7684   11.5023 C   0  0  0  0  0  0  0  0  0  0  0  0
   45.7811    5.8613   12.4613 C   0  0  0  0  0  0  0  0  0  0  0  0
   43.4558    7.0565   11.4828 C   0  0  0  0  0  0  0  0  0  0  0  0
   44.5787    5.1450   12.4416 C   0  0  0  0  0  0  0  0  0  0  0  0
   43.4267    5.7499   11.9488 C   0  0  0  0  0  0  0  0  0  0  0  0
   42.2335    5.0917   11.9179 O   0  0  0  0  0  0  0  0  0  0  0  0
   45.2383    5.9726   12.3986 N   0  0  0  0  0  0  0  0  0  0  0  0
   45.9572    7.0876   12.0285 C   0  0  0  0  0  0  0  0  0  0  0  0
   45.7735    4.8112   13.1160 C   0  0  0  0  0  0  0  0  0  0  0  0
   43.8687    5.8239   11.9065 C   0  0  0  0  0  0  0  0  0  0  0  0
   47.1956    7.1927   12.6073 N   0  0  0  0  0  0  0  0  0  0  0  0
   45.5276    7.9274   11.2427 O   0  0  0  0  0  0  0  0  0  0  0  0
   45.0107    3.5330   12.7550 C   0  0  0  0  0  0  0  0  0  0  0  0
   43.0491    4.9243   12.8362 C   0  0  0  0  0  0  0  0  0  0  0  0
   48.0354    8.3484   12.3503 C   0  0  0  0  0  0  0  0  0  0  0  0
   43.6070    3.6151   13.0289 O   0  0  0  0  0  0  0  0  0  0  0  0
   47.5946    9.5838   13.1578 C   0  0  0  0  0  0  0  0  0  0  0  0
   48.3603   10.8110   12.9035 N   0  0  0  0  0  0  0  0  0  0  0  0
   49.7942   10.7417   13.2410 C   0  0  0  0  0  0  0  0  0  0  0  0
   50.0406   10.6190   14.7601 C   0  0  1  0  0  0  0  0  0  0  0  0
   51.5294   10.6993   15.1355 C   0  0  0  0  0  0  0  0  0  0  0  0
   49.3045   11.6481   15.4381 O   0  0  0  0  0  0  0  0  0  0  0  0
   52.1427   11.8249   14.5020 O   0  0  0  0  0  0  0  0  0  0  0  0
   53.4770   12.0221   14.7276 C   0  0  0  0  0  0  0  0  0  0  0  0
   54.2965   11.2452   15.5501 C   0  0  0  0  0  0  0  0  0  0  0  0
   54.0273   13.1153   14.0533 C   0  0  0  0  0  0  0  0  0  0  0  0
   55.6534   11.5601   15.6941 C   0  0  0  0  0  0  0  0  0  0  0  0
   55.3789   13.4323   14.1950 C   0  0  0  0  0  0  0  0  0  0  0  0
   56.1831   12.6525   15.0149 C   0  0  0  0  0  0  0  0  0  0  0  0
   57.4966   12.9956   15.1327 O   0  0  0  0  0  0  0  0  0  0  0  0
   48.8562    8.6875   13.1604 C   0  0  0  0  0  0  0  0  0  0  0  0
   49.4962    9.2384   14.2013 C   0  0  0  0  0  0  0  0  0  0  0  0
   50.8065    9.8831   14.0817 C   0  0  0  0  0  0  0  0  0  0  0  0
   51.3065    9.8719   12.8370 O   0  0  0  0  0  0  0  0  0  0  0  0
   51.4114   10.3884   15.0093 O   0  0  0  0  0  0  0  0  0  0  0  0
   47.5427    8.0475   13.2772 C   0  0  0  0  0  0  0  0  0  0  0  0
   47.0394    8.0646   14.5202 O   0  0  0  0  0  0  0  0  0  0  0  0
   46.9419    7.5370   12.3501 O   0  0  0  0  0  0  0  0  0  0  0  0
   52.7793   12.2945   16.7880 H   0  0  0  0  0  0  0  0  0  0  0  0
   51.3210   13.1229   16.2177 H   0  0  0  0  0  0  0  0  0  0  0  0
   52.5434   11.6174   13.0514 H   0  0  0  0  0  0  0  0  0  0  0  0
   50.7903   11.3848   13.2183 H   0  0  0  0  0  0  0  0  0  0  0  0
   51.0168    9.4959   13.8840 H   0  0  0  0  0  0  0  0  0  0  0  0
   53.3897   14.4999   15.8076 H   0  0  0  0  0  0  0  0  0  0  0  0
   54.0624   13.1934   14.8254 H   0  0  0  0  0  0  0  0  0  0  0  0
   51.3028   13.6893   12.4043 H   0  0  0  0  0  0  0  0  0  0  0  0
   50.5105   13.7357   13.9821 H   0  0  0  0  0  0  0  0  0  0  0  0
   52.8079    7.7030   15.4126 H   0  0  0  0  0  0  0  0  0  0  0  0
   51.8949    7.3040   13.9594 H   0  0  0  0  0  0  0  0  0  0  0  0
   50.9032    7.7110   16.8071 H   0  0  0  0  0  0  0  0  0  0  0  0
   50.6875    6.2872   15.8200 H   0  0  0  0  0  0  0  0  0  0  0  0
   49.4424    8.9102   15.2912 H   0  0  0  0  0  0  0  0  0  0  0  0
   47.6323    7.5269   14.4376 H   0  0  0  0  0  0  0  0  0  0  0  0
   48.7604    6.1896   14.3561 H   0  0  0  0  0  0  0  0  0  0  0  0
   50.1464    7.4130   12.6997 H   0  0  0  0  0  0  0  0  0  0  0  0
   48.5896    7.7727   10.8482 H   0  0  0  0  0  0  0  0  0  0  0  0
   48.1814    6.2784   11.6852 H   0  0  0  0  0  0  0  0  0  0  0  0
   48.3105    9.5425   12.9493 H   0  0  0  0  0  0  0  0  0  0  0  0
   44.6763    8.7942   11.1443 H   0  0  0  0  0  0  0  0  0  0  0  0
   46.6547    5.3800   12.8885 H   0  0  0  0  0  0  0  0  0  0  0  0
   42.5483    7.5228   11.1094 H   0  0  0  0  0  0  0  0  0  0  0  0
   44.5612    4.1294   12.8227 H   0  0  0  0  0  0  0  0  0  0  0  0
   42.3539    4.2092   12.3065 H   0  0  0  0  0  0  0  0  0  0  0  0
   45.6625    5.0282   14.1846 H   0  0  0  0  0  0  0  0  0  0  0  0
   46.8372    4.6885   12.8924 H   0  0  0  0  0  0  0  0  0  0  0  0
   43.3926    6.8054   11.8108 H   0  0  0  0  0  0  0  0  0  0  0  0
   43.9363    5.3793   10.9064 H   0  0  0  0  0  0  0  0  0  0  0  0
   47.2863    6.7641   13.5146 H   0  0  0  0  0  0  0  0  0  0  0  0
   45.1315    3.3042   11.6895 H   0  0  0  0  0  0  0  0  0  0  0  0
   45.4079    2.6825   13.3187 H   0  0  0  0  0  0  0  0  0  0  0  0
   42.9644    5.3870   13.8269 H   0  0  0  0  0  0  0  0  0  0  0  0
   42.0343    4.7956   12.4457 H   0  0  0  0  0  0  0  0  0  0  0  0
   48.0106    8.5706   11.2769 H   0  0  0  0  0  0  0  0  0  0  0  0
   49.0548    8.0512   12.6147 H   0  0  0  0  0  0  0  0  0  0  0  0
   47.5951    9.3474   14.2278 H   0  0  0  0  0  0  0  0  0  0  0  0
   46.5471    9.8074   12.9200 H   0  0  0  0  0  0  0  0  0  0  0  0
   48.2692   11.0448   11.9115 H   0  0  0  0  0  0  0  0  0  0  0  0
   50.2225   11.6874   12.8878 H   0  0  0  0  0  0  0  0  0  0  0  0
   50.3006    9.9411   12.6920 H   0  0  0  0  0  0  0  0  0  0  0  0
   49.6527    9.6638   15.1313 H   0  0  0  0  0  0  0  0  0  0  0  0
   51.6139   10.8008   16.2250 H   0  0  0  0  0  0  0  0  0  0  0  0
   52.0248    9.7785   14.8009 H   0  0  0  0  0  0  0  0  0  0  0  0
   48.5363   11.8284   14.8562 H   0  0  0  0  0  0  0  0  0  0  0  0
   53.9121   10.3909   16.0960 H   0  0  0  0  0  0  0  0  0  0  0  0
   53.3947   13.7290   13.4170 H   0  0  0  0  0  0  0  0  0  0  0  0
   56.2734   10.9471   16.3408 H   0  0  0  0  0  0  0  0  0  0  0  0
   55.7973   14.2867   13.6715 H   0  0  0  0  0  0  0  0  0  0  0  0
   57.9212   12.3929   15.7647 H   0  0  0  0  0  0  0  0  0  0  0  0
   49.2716    8.6832   12.1588 H   0  0  0  0  0  0  0  0  0  0  0  0
   49.0805    9.2433   15.2027 H   0  0  0  0  0  0  0  0  0  0  0  0
   52.1681   10.3307   12.9266 H   0  0  0  0  0  0  0  0  0  0  0  0
   46.1758    7.6084   14.4320 H   0  0  0  0  0  0  0  0  0  0  0  0
  3  7  1  0
  4  8  1  0
  5  9  1  0
  7 10  1  0
  9 11  1  0
 11 12  1  0
 12 13  1  0
 13 14  1  0
 14 15  1  0
 14 16  1  0
 15 17  1  0
 17 18  1  0
 18 19  2  0
 18 20  1  0
 19 21  1  0
 20 22  2  0
 21 23  2  0
 23 24  1  0
  8 10  1  0
 22 23  1  0
  1  2  1  0
  1  3  1  0
  1  4  1  0
  2  5  1  0
  2  6  2  0
 27 31  1  0
 28 32  1  0
 29 33  1  0
 31 34  1  0
 33 35  1  0
 35 36  1  0
 36 37  1  0
 37 38  1  0
 38 39  1  0
 38 40  1  0
 39 41  1  0
 41 42  1  0
 42 43  2  0
 42 44  1  0
 43 45  1  0
 44 46  2  0
 45 47  2  0
 47 48  1  0
 32 34  1  0
 46 47  1  0
 25 26  1  0
 25 27  1  0
 25 28  1  0
 26 29  1  0
 26 30  2  0
 49 50  2  0
 49 54  1  0
 50 51  1  0
 51 52  1  0
 51 53  2  0
 54 55  1  0
 54 56  2  0
  3 57  1  0
  3 58  1  0
  4 59  1  0
  4 60  1  0
  5 61  1  0
  7 62  1  0
  7 63  1  0
  8 64  1  0
  8 65  1  0
  9 66  1  0
  9 67  1  0
 11 68  1  0
 11 69  1  0
 12 70  1  0
 13 71  1  0
 13 72  1  0
 14 73  1  1
 15 74  1  0
 15 75  1  0
 16 76  1  0
 19 77  1  0
 20 78  1  0
 21 79  1  0
 22 80  1  0
 24 81  1  0
 27 82  1  0
 27 83  1  0
 28 84  1  0
 28 85  1  0
 29 86  1  0
 31 87  1  0
 31 88  1  0
 32 89  1  0
 32 90  1  0
 33 91  1  0
 33 92  1  0
 35 93  1  0
 35 94  1  0
 36 95  1  0
 37 96  1  0
 37 97  1  0
 38 98  1  6
 39 99  1  0
 39100  1  0
 40101  1  0
 43102  1  0
 44103  1  0
 45104  1  0
 46105  1  0
 48106  1  0
 49107  1  0
 50108  1  0
 52109  1  0
 55110  1  0
M  END
> <Uni-Dock RESULT> 
ENERGY=   -4.890  LOWER_BOUND=    1.685  UPPER_BOUND=    2.796
INTER + INTRA:          -4.890
INTER:                  -4.890
INTRA:                   0.000
UNBOUND:                 0.000

$$$$

     RDKit          3D

110111  0  0  0  0  0  0  0  0999 V2000
   52.4335   11.4962   12.9669 N   0  0  0  0  0  0  0  0  0  0  0  0
   51.3101   12.0188   12.3560 C   0  0  0  0  0  0  0  0  0  0  0  0
   53.7528   11.8409   12.4325 C   0  0  0  0  0  0  0  0  0  0  0  0
   52.4497   10.8793   14.2961 C   0  0  0  0  0  0  0  0  0  0  0  0
   50.1227   11.7130   12.9689 N   0  0  0  0  0  0  0  0  0  0  0  0
   51.3619   12.7281   11.3543 O   0  0  0  0  0  0  0  0  0  0  0  0
   54.6854   12.2976   13.5594 C   0  0  0  0  0  0  0  0  0  0  0  0
   53.8345   10.3324   14.6552 C   0  0  0  0  0  0  0  0  0  0  0  0
   48.8633   12.1643   12.3990 C   0  0  0  0  0  0  0  0  0  0  0  0
   54.8670   11.3259   14.6024 O   0  0  0  0  0  0  0  0  0  0  0  0
   48.4282   11.3582   11.1590 C   0  0  0  0  0  0  0  0  0  0  0  0
   48.6666    9.9106   11.2060 N   0  0  0  0  0  0  0  0  0  0  0  0
   47.7118    9.1291   11.9963 C   0  0  0  0  0  0  0  0  0  0  0  0
   47.9577    9.1425   13.5186 C   0  0  1  0  0  0  0  0  0  0  0  0
   47.1537    8.0647   14.2611 C   0  0  0  0  0  0  0  0  0  0  0  0
   49.3620    8.9539   13.7735 O   0  0  0  0  0  0  0  0  0  0  0  0
   47.6049    6.7699   13.8466 O   0  0  0  0  0  0  0  0  0  0  0  0
   46.6649    5.8779   13.4129 C   0  0  0  0  0  0  0  0  0  0  0  0
   46.9673    4.5358   13.6568 C   0  0  0  0  0  0  0  0  0  0  0  0
   45.5081    6.2040   12.7027 C   0  0  0  0  0  0  0  0  0  0  0  0
   46.1057    3.5273   13.2232 C   0  0  0  0  0  0  0  0  0  0  0  0
   44.6418    5.1942   12.2679 C   0  0  0  0  0  0  0  0  0  0  0  0
   44.9484    3.8638   12.5357 C   0  0  0  0  0  0  0  0  0  0  0  0
   44.1369    2.8487   12.1246 O   0  0  0  0  0  0  0  0  0  0  0  0
   45.5235    5.6506   12.6369 N   0  0  0  0  0  0  0  0  0  0  0  0
   46.6165    6.0311   13.3836 C   0  0  0  0  0  0  0  0  0  0  0  0
   44.6437    6.5545   11.8895 C   0  0  0  0  0  0  0  0  0  0  0  0
   45.0731    4.2605   12.7078 C   0  0  0  0  0  0  0  0  0  0  0  0
   47.0258    7.3249   13.1875 N   0  0  0  0  0  0  0  0  0  0  0  0
   47.1861    5.2748   14.1652 O   0  0  0  0  0  0  0  0  0  0  0  0
   43.2215    5.9942   11.7926 C   0  0  0  0  0  0  0  0  0  0  0  0
   44.3002    3.8718   11.4442 C   0  0  0  0  0  0  0  0  0  0  0  0
   48.2009    7.8389   13.8672 C   0  0  0  0  0  0  0  0  0  0  0  0
   43.1622    4.7045   11.1720 O   0  0  0  0  0  0  0  0  0  0  0  0
   49.5113    7.3645   13.2111 C   0  0  0  0  0  0  0  0  0  0  0  0
   50.7452    7.7946   13.8813 N   0  0  0  0  0  0  0  0  0  0  0  0
   50.9597    9.2527   13.9340 C   0  0  0  0  0  0  0  0  0  0  0  0
   51.2212    9.8642   12.5408 C   0  0  1  0  0  0  0  0  0  0  0  0
   51.5962   11.3542   12.5997 C   0  0  0  0  0  0  0  0  0  0  0  0
   52.2612    9.1189   11.8903 O   0  0  0  0  0  0  0  0  0  0  0  0
   52.6245   11.5709   13.5692 O   0  0  0  0  0  0  0  0  0  0  0  0
   53.0562   12.8559   13.7497 C   0  0  0  0  0  0  0  0  0  0  0  0
   52.6113   13.9798   13.0494 C   0  0  0  0  0  0  0  0  0  0  0  0
   54.0351   13.0094   14.7350 C   0  0  0  0  0  0  0  0  0  0  0  0
   53.1410   15.2444   13.3347 C   0  0  0  0  0  0  0  0  0  0  0  0
   54.5657   14.2680   15.0214 C   0  0  0  0  0  0  0  0  0  0  0  0
   54.1151   15.3773   14.3190 C   0  0  0  0  0  0  0  0  0  0  0  0
   54.6599   16.5889   14.6226 O   0  0  0  0  0  0  0  0  0  0  0  0
   48.8285    8.7426   13.3830 C   0  0  0  0  0  0  0  0  0  0  0  0
   49.6866    9.4862   12.6709 C   0  0  0  0  0  0  0  0  0  0  0  0
   50.4677   10.5806   13.2534 C   0  0  0  0  0  0  0  0  0  0  0  0
   50.2461   10.7700   14.5626 O   0  0  0  0  0  0  0  0  0  0  0  0
   51.2512   11.2734   12.6306 O   0  0  0  0  0  0  0  0  0  0  0  0
   48.0508    7.6437   12.8033 C   0  0  0  0  0  0  0  0  0  0  0  0
   48.2773    7.4495   11.4957 O   0  0  0  0  0  0  0  0  0  0  0  0
   47.2630    6.9559   13.4257 O   0  0  0  0  0  0  0  0  0  0  0  0
   53.6863   12.6164   11.6636 H   0  0  0  0  0  0  0  0  0  0  0  0
   54.1468   10.9323   11.9634 H   0  0  0  0  0  0  0  0  0  0  0  0
   52.1529   11.6564   15.0107 H   0  0  0  0  0  0  0  0  0  0  0  0
   51.7164   10.0705   14.3402 H   0  0  0  0  0  0  0  0  0  0  0  0
   50.0799   10.8108   13.4259 H   0  0  0  0  0  0  0  0  0  0  0  0
   55.6759   12.5383   13.1579 H   0  0  0  0  0  0  0  0  0  0  0  0
   54.2905   13.2070   14.0284 H   0  0  0  0  0  0  0  0  0  0  0  0
   53.8252    9.9183   15.6690 H   0  0  0  0  0  0  0  0  0  0  0  0
   54.1146    9.5209   13.9727 H   0  0  0  0  0  0  0  0  0  0  0  0
   48.9548   13.2235   12.1326 H   0  0  0  0  0  0  0  0  0  0  0  0
   48.1106   12.0942   13.1892 H   0  0  0  0  0  0  0  0  0  0  0  0
   49.0068   11.7311   10.3042 H   0  0  0  0  0  0  0  0  0  0  0  0
   47.3805   11.5752   10.9197 H   0  0  0  0  0  0  0  0  0  0  0  0
   49.6099    9.7524   11.5656 H   0  0  0  0  0  0  0  0  0  0  0  0
   47.8251    8.1005   11.6346 H   0  0  0  0  0  0  0  0  0  0  0  0
   46.6794    9.4183   11.7696 H   0  0  0  0  0  0  0  0  0  0  0  0
   47.6803   10.1144   13.9317 H   0  0  0  0  0  0  0  0  0  0  0  0
   47.3847    8.1308   15.3313 H   0  0  0  0  0  0  0  0  0  0  0  0
   46.0766    8.2289   14.1569 H   0  0  0  0  0  0  0  0  0  0  0  0
   49.5264    8.0062   13.5927 H   0  0  0  0  0  0  0  0  0  0  0  0
   47.8773    4.2711   14.1885 H   0  0  0  0  0  0  0  0  0  0  0  0
   45.2659    7.2298   12.4450 H   0  0  0  0  0  0  0  0  0  0  0  0
   46.3407    2.4846   13.4183 H   0  0  0  0  0  0  0  0  0  0  0  0
   43.7473    5.4650   11.7171 H   0  0  0  0  0  0  0  0  0  0  0  0
   43.3919    3.2264   11.6280 H   0  0  0  0  0  0  0  0  0  0  0  0
   45.0792    6.6545   10.8887 H   0  0  0  0  0  0  0  0  0  0  0  0
   44.6266    7.5400   12.3638 H   0  0  0  0  0  0  0  0  0  0  0  0
   45.9290    3.5924   12.8502 H   0  0  0  0  0  0  0  0  0  0  0  0
   44.4277    4.1797   13.5906 H   0  0  0  0  0  0  0  0  0  0  0  0
   46.8315    7.7059   12.2753 H   0  0  0  0  0  0  0  0  0  0  0  0
   42.7767    5.9067   12.7910 H   0  0  0  0  0  0  0  0  0  0  0  0
   42.5866    6.6702   11.2104 H   0  0  0  0  0  0  0  0  0  0  0  0
   44.9586    3.9306   10.5690 H   0  0  0  0  0  0  0  0  0  0  0  0
   43.9428    2.8394   11.5178 H   0  0  0  0  0  0  0  0  0  0  0  0
   48.1680    7.5225   14.9164 H   0  0  0  0  0  0  0  0  0  0  0  0
   48.1200    8.9297   13.8361 H   0  0  0  0  0  0  0  0  0  0  0  0
   49.5262    7.6598   12.1559 H   0  0  0  0  0  0  0  0  0  0  0  0
   49.5233    6.2675   13.1959 H   0  0  0  0  0  0  0  0  0  0  0  0
   50.7326    7.4316   14.8380 H   0  0  0  0  0  0  0  0  0  0  0  0
   51.8519    9.3935   14.5560 H   0  0  0  0  0  0  0  0  0  0  0  0
   50.1362    9.7644   14.4427 H   0  0  0  0  0  0  0  0  0  0  0  0
   50.3297    9.7681   11.9110 H   0  0  0  0  0  0  0  0  0  0  0  0
   51.9531   11.6679   11.6104 H   0  0  0  0  0  0  0  0  0  0  0  0
   50.7040   11.9288   12.8807 H   0  0  0  0  0  0  0  0  0  0  0  0
   52.1933    8.2166   12.2677 H   0  0  0  0  0  0  0  0  0  0  0  0
   51.8570   13.9077   12.2738 H   0  0  0  0  0  0  0  0  0  0  0  0
   54.3918   12.1388   15.2794 H   0  0  0  0  0  0  0  0  0  0  0  0
   52.7855   16.1053   12.7772 H   0  0  0  0  0  0  0  0  0  0  0  0
   55.3298   14.3777   15.7850 H   0  0  0  0  0  0  0  0  0  0  0  0
   54.2831   17.2583   14.0284 H   0  0  0  0  0  0  0  0  0  0  0  0
   48.6565    8.9066   14.4410 H   0  0  0  0  0  0  0  0  0  0  0  0
   49.8590    9.3218   11.6131 H   0  0  0  0  0  0  0  0  0  0  0  0
   50.8314   11.5218   14.7929 H   0  0  0  0  0  0  0  0  0  0  0  0
   47.6945    6.6956   11.2642 H   0  0  0  0  0  0  0  0  0  0  0  0
  3  7  1  0
  4  8  1  0
  5  9  1  0
  7 10  1  0
  9 11  1  0
 11 12  1  0
 12 13  1  0
 13 14  1  0
 14 15  1  0
 14 16  1  0
 15 17  1  0
 17 18  1  0
 18 19  2  0
 18 20  1  0
 19 21  1  0
 20 22  2  0
 21 23  2  0
 23 24  1  0
  8 10  1  0
 22 23  1  0
  1  2  1  0
  1  3  1  0
  1  4  1  0
  2  5  1  0
  2  6  2  0
 27 31  1  0
 28 32  1  0
 29 33  1  0
 31 34  1  0
 33 35  1  0
 35 36  1  0
 36 37  1  0
 37 38  1  0
 38 39  1  0
 38 40  1  0
 39 41  1  0
 41 42  1  0
 42 43  2  0
 42 44  1  0
 43 45  1  0
 44 46  2  0
 45 47  2  0
 47 48  1  0
 32 34  1  0
 46 47  1  0
 25 26  1  0
 25 27  1  0
 25 28  1  0
 26 29  1  0
 26 30  2  0
 49 50  2  0
 49 54  1  0
 50 51  1  0
 51 52  1  0
 51 53  2  0
 54 55  1  0
 54 56  2  0
  3 57  1  0
  3 58  1  0
  4 59  1  0
  4 60  1  0
  5 61  1  0
  7 62  1  0
  7 63  1  0
  8 64  1  0
  8 65  1  0
  9 66  1  0
  9 67  1  0
 11 68  1  0
 11 69  1  0
 12 70  1  0
 13 71  1  0
 13 72  1  0
 14 73  1  1
 15 74  1  0
 15 75  1  0
 16 76  1  0
 19 77  1  0
 20 78  1  0
 21 79  1  0
 22 80  1  0
 24 81  1  0
 27 82  1  0
 27 83  1  0
 28 84  1  0
 28 85  1  0
 29 86  1  0
 31 87  1  0
 31 88  1  0
 32 89  1  0
 32 90  1  0
 33 91  1  0
 33 92  1  0
 35 93  1  0
 35 94  1  0
 36 95  1  0
 37 96  1  0
 37 97  1  0
 38 98  1  6
 39 99  1  0
 39100  1  0
 40101  1  0
 43102  1  0
 44103  1  0
 45104  1  0
 46105  1  0
 48106  1  0
 49107  1  0
 50108  1  0
 52109  1  0
 55110  1  0
M  END
> <Uni-Dock RESULT> 
ENERGY=   -4.883  LOWER_BOUND=    1.802  UPPER_BOUND=    2.507
INTER + INTRA:          -4.883
INTER:                  -4.883
INTRA:                   0.000
UNBOUND:                 0.000

$$$$

     RDKit          3D

110111  0  0  0  0  0  0  0  0999 V2000
   52.1687   11.4184   15.0760 N   0  0  0  0  0  0  0  0  0  0  0  0
   52.2989   10.1194   15.5273 C   0  0  0  0  0  0  0  0  0  0  0  0
   52.5777   12.5158   15.9554 C   0  0  0  0  0  0  0  0  0  0  0  0
   51.9536   11.7981   13.6770 C   0  0  0  0  0  0  0  0  0  0  0  0
   51.9712    9.1529   14.6120 N   0  0  0  0  0  0  0  0  0  0  0  0
   52.7032    9.8394   16.6530 O   0  0  0  0  0  0  0  0  0  0  0  0
   53.4820   13.4978   15.2028 C   0  0  0  0  0  0  0  0  0  0  0  0
   51.7767   13.3109   13.5163 C   0  0  0  0  0  0  0  0  0  0  0  0
   52.0216    7.7464   14.9776 C   0  0  0  0  0  0  0  0  0  0  0  0
   52.8816   14.0679   14.0282 O   0  0  0  0  0  0  0  0  0  0  0  0
   50.8426    7.3017   15.8659 C   0  0  0  0  0  0  0  0  0  0  0  0
   49.5284    7.8656   15.5352 N   0  0  0  0  0  0  0  0  0  0  0  0
   48.8402    7.2599   14.3922 C   0  0  0  0  0  0  0  0  0  0  0  0
   49.3142    7.7501   13.0090 C   0  0  1  0  0  0  0  0  0  0  0  0
   48.3591    7.3480   11.8754 C   0  0  0  0  0  0  0  0  0  0  0  0
   49.4509    9.1829   13.0353 O   0  0  0  0  0  0  0  0  0  0  0  0
   47.0996    8.0034   12.0646 O   0  0  0  0  0  0  0  0  0  0  0  0
   45.9730    7.2300   12.0574 C   0  0  0  0  0  0  0  0  0  0  0  0
   44.8238    7.8648   11.5793 C   0  0  0  0  0  0  0  0  0  0  0  0
   45.8844    5.9265   12.5492 C   0  0  0  0  0  0  0  0  0  0  0  0
   43.6008    7.1929   11.5622 C   0  0  0  0  0  0  0  0  0  0  0  0
   44.6589    5.2503   12.5319 C   0  0  0  0  0  0  0  0  0  0  0  0
   43.5281    5.8904   12.0349 C   0  0  0  0  0  0  0  0  0  0  0  0
   42.3137    5.2719   12.0061 O   0  0  0  0  0  0  0  0  0  0  0  0
   45.3457    6.0553   12.4854 N   0  0  0  0  0  0  0  0  0  0  0  0
   46.1014    7.1440   12.1103 C   0  0  0  0  0  0  0  0  0  0  0  0
   45.8414    4.8806   13.2092 C   0  0  0  0  0  0  0  0  0  0  0  0
   43.9723    5.9495   11.9926 C   0  0  0  0  0  0  0  0  0  0  0  0
   47.3421    7.2110   12.6899 N   0  0  0  0  0  0  0  0  0  0  0  0
   45.7005    7.9935   11.3198 O   0  0  0  0  0  0  0  0  0  0  0  0
   45.0371    3.6265   12.8540 C   0  0  0  0  0  0  0  0  0  0  0  0
   43.1226    5.0823   12.9260 C   0  0  0  0  0  0  0  0  0  0  0  0
   48.2199    8.3370   12.4277 C   0  0  0  0  0  0  0  0  0  0  0  0
   43.6367    3.7564   13.1261 O   0  0  0  0  0  0  0  0  0  0  0  0
   47.8196    9.5905   13.2285 C   0  0  0  0  0  0  0  0  0  0  0  0
   48.6256   10.7902   12.9687 N   0  0  0  0  0  0  0  0  0  0  0  0
   50.0562   10.6753   13.3080 C   0  0  0  0  0  0  0  0  0  0  0  0
   50.2970   10.5524   14.8279 C   0  0  1  0  0  0  0  0  0  0  0  0
   51.7874   10.5853   15.2045 C   0  0  0  0  0  0  0  0  0  0  0  0
   49.5949   11.6087   15.4999 O   0  0  0  0  0  0  0  0  0  0  0  0
   52.4381   11.6867   14.5658 O   0  0  0  0  0  0  0  0  0  0  0  0
   53.7781   11.8407   14.7918 C   0  0  0  0  0  0  0  0  0  0  0  0
   54.5707   11.0415   15.6191 C   0  0  0  0  0  0  0  0  0  0  0  0
   54.3648   12.9117   14.1124 C   0  0  0  0  0  0  0  0  0  0  0  0
   55.9371   11.3120   15.7629 C   0  0  0  0  0  0  0  0  0  0  0  0
   55.7261   13.1845   14.2540 C   0  0  0  0  0  0  0  0  0  0  0  0
   56.5033   12.3828   15.0786 C   0  0  0  0  0  0  0  0  0  0  0  0
   57.8273   12.6828   15.1960 O   0  0  0  0  0  0  0  0  0  0  0  0
   49.0508    8.6529   13.2370 C   0  0  0  0  0  0  0  0  0  0  0  0
   49.7077    9.1877   14.2757 C   0  0  0  0  0  0  0  0  0  0  0  0
   51.0388    9.7881   14.1541 C   0  0  0  0  0  0  0  0  0  0  0  0
   51.5392    9.7539   12.9100 O   0  0  0  0  0  0  0  0  0  0  0  0
   51.6593   10.2778   15.0797 O   0  0  0  0  0  0  0  0  0  0  0  0
   47.7167    8.0574   13.3557 C   0  0  0  0  0  0  0  0  0  0  0  0
   47.2131    8.0975   14.5980 O   0  0  0  0  0  0  0  0  0  0  0  0
   47.1001    7.5622   12.4306 O   0  0  0  0  0  0  0  0  0  0  0  0
   53.0880   12.1467   16.8501 H   0  0  0  0  0  0  0  0  0  0  0  0
   51.6584   13.0200   16.2740 H   0  0  0  0  0  0  0  0  0  0  0  0
   52.8330   11.4585   13.1168 H   0  0  0  0  0  0  0  0  0  0  0  0
   51.0731   11.2850   13.2830 H   0  0  0  0  0  0  0  0  0  0  0  0
   51.2363    9.3931   13.9586 H   0  0  0  0  0  0  0  0  0  0  0  0
   53.7719   14.3257   15.8590 H   0  0  0  0  0  0  0  0  0  0  0  0
   54.4019   12.9926   14.8842 H   0  0  0  0  0  0  0  0  0  0  0  0
   51.6623   13.5670   12.4577 H   0  0  0  0  0  0  0  0  0  0  0  0
   50.8706   13.6477   14.0345 H   0  0  0  0  0  0  0  0  0  0  0  0
   52.9658    7.5497   15.4982 H   0  0  0  0  0  0  0  0  0  0  0  0
   52.0413    7.1737   14.0462 H   0  0  0  0  0  0  0  0  0  0  0  0
   51.0611    7.6280   16.8907 H   0  0  0  0  0  0  0  0  0  0  0  0
   50.7993    6.2071   15.9107 H   0  0  0  0  0  0  0  0  0  0  0  0
   49.6422    8.8671   15.3672 H   0  0  0  0  0  0  0  0  0  0  0  0
   47.7880    7.5400   14.5188 H   0  0  0  0  0  0  0  0  0  0  0  0
   48.8713    6.1658   14.4454 H   0  0  0  0  0  0  0  0  0  0  0  0
   50.2984    7.3340   12.7841 H   0  0  0  0  0  0  0  0  0  0  0  0
   48.7561    7.7355   10.9292 H   0  0  0  0  0  0  0  0  0  0  0  0
   48.2979    6.2599   11.7734 H   0  0  0  0  0  0  0  0  0  0  0  0
   48.5338    9.5244   13.0209 H   0  0  0  0  0  0  0  0  0  0  0  0
   44.8784    8.8875   11.2161 H   0  0  0  0  0  0  0  0  0  0  0  0
   46.7412    5.4187   12.9797 H   0  0  0  0  0  0  0  0  0  0  0  0
   42.7095    7.6871   11.1855 H   0  0  0  0  0  0  0  0  0  0  0  0
   44.6075    4.2378   12.9182 H   0  0  0  0  0  0  0  0  0  0  0  0
   42.4045    4.3879   12.3993 H   0  0  0  0  0  0  0  0  0  0  0  0
   45.7368    5.1066   14.2766 H   0  0  0  0  0  0  0  0  0  0  0  0
   46.9007    4.7216   12.9873 H   0  0  0  0  0  0  0  0  0  0  0  0
   43.5290    6.9457   11.8914 H   0  0  0  0  0  0  0  0  0  0  0  0
   44.0260    5.4978   10.9949 H   0  0  0  0  0  0  0  0  0  0  0  0
   47.4178    6.7843   13.5994 H   0  0  0  0  0  0  0  0  0  0  0  0
   45.1512    3.3883   11.7898 H   0  0  0  0  0  0  0  0  0  0  0  0
   45.4054    2.7663   13.4225 H   0  0  0  0  0  0  0  0  0  0  0  0
   43.0524    5.5527   13.9144 H   0  0  0  0  0  0  0  0  0  0  0  0
   42.1044    4.9853   12.5352 H   0  0  0  0  0  0  0  0  0  0  0  0
   48.2034    8.5543   11.3532 H   0  0  0  0  0  0  0  0  0  0  0  0
   49.2287    8.0075   12.6947 H   0  0  0  0  0  0  0  0  0  0  0  0
   47.8113    9.3597   14.2997 H   0  0  0  0  0  0  0  0  0  0  0  0
   46.7802    9.8474   12.9885 H   0  0  0  0  0  0  0  0  0  0  0  0
   48.5432   11.0219   11.9754 H   0  0  0  0  0  0  0  0  0  0  0  0
   50.5159   11.6045   12.9503 H   0  0  0  0  0  0  0  0  0  0  0  0
   50.5362    9.8556   12.7636 H   0  0  0  0  0  0  0  0  0  0  0  0
   49.8775    9.6125   15.2036 H   0  0  0  0  0  0  0  0  0  0  0  0
   51.8743   10.6895   16.2935 H   0  0  0  0  0  0  0  0  0  0  0  0
   52.2523    9.6469   14.8751 H   0  0  0  0  0  0  0  0  0  0  0  0
   48.8336   11.8114   14.9163 H   0  0  0  0  0  0  0  0  0  0  0  0
   54.1577   10.2031   16.1690 H   0  0  0  0  0  0  0  0  0  0  0  0
   53.7535   13.5427   13.4724 H   0  0  0  0  0  0  0  0  0  0  0  0
   56.5359   10.6821   16.4134 H   0  0  0  0  0  0  0  0  0  0  0  0
   56.1730   14.0218   13.7265 H   0  0  0  0  0  0  0  0  0  0  0  0
   58.2312   12.0696   15.8316 H   0  0  0  0  0  0  0  0  0  0  0  0
   49.4666    8.6296   12.2358 H   0  0  0  0  0  0  0  0  0  0  0  0
   49.2916    9.2115   15.2766 H   0  0  0  0  0  0  0  0  0  0  0  0
   52.4154   10.1843   12.9981 H   0  0  0  0  0  0  0  0  0  0  0  0
   46.3351    7.6697   14.5113 H   0  0  0  0  0  0  0  0  0  0  0  0
  3  7  1  0
  4  8  1  0
  5  9  1  0
  7 10  1  0
  9 11  1  0
 11 12  1  0
 12 13  1  0
 13 14  1  0
 14 15  1  0
 14 16  1  0
 15 17  1  0
 17 18  1  0
 18 19  2  0
 18 20  1  0
 19 21  1  0
 20 22  2  0
 21 23  2  0
 23 24  1  0
  8 10  1  0
 22 23  1  0
  1  2  1  0
  1  3  1  0
  1  4  1  0
  2  5  1  0
  2  6  2  0
 27 31  1  0
 28 32  1  0
 29 33  1  0
 31 34  1  0
 33 35  1  0
 35 36  1  0
 36 37  1  0
 37 38  1  0
 38 39  1  0
 38 40  1  0
 39 41  1  0
 41 42  1  0
 42 43  2  0
 42 44  1  0
 43 45  1  0
 44 46  2  0
 45 47  2  0
 47 48  1  0
 32 34  1  0
 46 47  1  0
 25 26  1  0
 25 27  1  0
 25 28  1  0
 26 29  1  0
 26 30  2  0
 49 50  2  0
 49 54  1  0
 50 51  1  0
 51 52  1  0
 51 53  2  0
 54 55  1  0
 54 56  2  0
  3 57  1  0
  3 58  1  0
  4 59  1  0
  4 60  1  0
  5 61  1  0
  7 62  1  0
  7 63  1  0
  8 64  1  0
  8 65  1  0
  9 66  1  0
  9 67  1  0
 11 68  1  0
 11 69  1  0
 12 70  1  0
 13 71  1  0
 13 72  1  0
 14 73  1  1
 15 74  1  0
 15 75  1  0
 16 76  1  0
 19 77  1  0
 20 78  1  0
 21 79  1  0
 22 80  1  0
 24 81  1  0
 27 82  1  0
 27 83  1  0
 28 84  1  0
 28 85  1  0
 29 86  1  0
 31 87  1  0
 31 88  1  0
 32 89  1  0
 32 90  1  0
 33 91  1  0
 33 92  1  0
 35 93  1  0
 35 94  1  0
 36 95  1  0
 37 96  1  0
 37 97  1  0
 38 98  1  6
 39 99  1  0
 39100  1  0
 40101  1  0
 43102  1  0
 44103  1  0
 45104  1  0
 46105  1  0
 48106  1  0
 49107  1  0
 50108  1  0
 52109  1  0
 55110  1  0
M  END
> <Uni-Dock RESULT> 
ENERGY=   -4.820  LOWER_BOUND=    1.759  UPPER_BOUND=    2.922
INTER + INTRA:          -4.820
INTER:                  -4.820
INTRA:                   0.000
UNBOUND:                 0.000

$$$$

     RDKit          3D

110111  0  0  0  0  0  0  0  0999 V2000
   48.8081    7.8440   15.0776 N   0  0  0  0  0  0  0  0  0  0  0  0
   48.9066    7.2892   16.3388 C   0  0  0  0  0  0  0  0  0  0  0  0
   49.4415    7.1544   13.9514 C   0  0  0  0  0  0  0  0  0  0  0  0
   47.8610    8.8968   14.7008 C   0  0  0  0  0  0  0  0  0  0  0  0
   48.2167    7.9540   17.3192 N   0  0  0  0  0  0  0  0  0  0  0  0
   49.5395    6.2621   16.5706 O   0  0  0  0  0  0  0  0  0  0  0  0
   48.4594    7.0220   12.7825 C   0  0  0  0  0  0  0  0  0  0  0  0
   48.0546    9.3469   13.2497 C   0  0  0  0  0  0  0  0  0  0  0  0
   48.2764    7.4980   18.6988 C   0  0  0  0  0  0  0  0  0  0  0  0
   47.9422    8.2747   12.3044 O   0  0  0  0  0  0  0  0  0  0  0  0
   49.6042    7.8442   19.4015 C   0  0  0  0  0  0  0  0  0  0  0  0
   50.1759    9.1625   19.1019 N   0  0  0  0  0  0  0  0  0  0  0  0
   49.5628   10.2993   19.7936 C   0  0  0  0  0  0  0  0  0  0  0  0
   48.2484   10.8118   19.1709 C   0  0  1  0  0  0  0  0  0  0  0  0
   47.8259   12.1838   19.7173 C   0  0  0  0  0  0  0  0  0  0  0  0
   48.4005   10.8912   17.7416 O   0  0  0  0  0  0  0  0  0  0  0  0
   48.7981   13.1638   19.3350 O   0  0  0  0  0  0  0  0  0  0  0  0
   49.3268   13.9520   20.3182 C   0  0  0  0  0  0  0  0  0  0  0  0
   49.6954   15.2368   19.9110 C   0  0  0  0  0  0  0  0  0  0  0  0
   49.5831   13.5462   21.6291 C   0  0  0  0  0  0  0  0  0  0  0  0
   50.2864   16.1218   20.8138 C   0  0  0  0  0  0  0  0  0  0  0  0
   50.1747   14.4326   22.5366 C   0  0  0  0  0  0  0  0  0  0  0  0
   50.5182   15.7148   22.1199 C   0  0  0  0  0  0  0  0  0  0  0  0
   51.1027   16.6073   22.9682 O   0  0  0  0  0  0  0  0  0  0  0  0
   49.8602   14.0296   21.6089 N   0  0  0  0  0  0  0  0  0  0  0  0
   49.2831   13.8066   20.3785 C   0  0  0  0  0  0  0  0  0  0  0  0
   49.9861   13.0411   22.6845 C   0  0  0  0  0  0  0  0  0  0  0  0
   50.2375   15.3958   21.9714 C   0  0  0  0  0  0  0  0  0  0  0  0
   49.0462   12.4888   20.0837 N   0  0  0  0  0  0  0  0  0  0  0  0
   49.0013   14.7133   19.5999 O   0  0  0  0  0  0  0  0  0  0  0  0
   49.9792   13.7116   24.0615 C   0  0  0  0  0  0  0  0  0  0  0  0
   51.3506   15.3941   23.0231 C   0  0  0  0  0  0  0  0  0  0  0  0
   48.4953   12.1074   18.7960 C   0  0  0  0  0  0  0  0  0  0  0  0
   51.0222   14.6798   24.2250 O   0  0  0  0  0  0  0  0  0  0  0  0
   49.5534   12.1286   17.6768 C   0  0  0  0  0  0  0  0  0  0  0  0
   49.0564   11.8132   16.3314 N   0  0  0  0  0  0  0  0  0  0  0  0
   48.4904   10.4612   16.1684 C   0  0  0  0  0  0  0  0  0  0  0  0
   49.5576    9.3527   16.2928 C   0  0  1  0  0  0  0  0  0  0  0  0
   49.0089    7.9521   15.9743 C   0  0  0  0  0  0  0  0  0  0  0  0
   50.6567    9.6616   15.4228 O   0  0  0  0  0  0  0  0  0  0  0  0
   48.2817    7.9704   14.7433 O   0  0  0  0  0  0  0  0  0  0  0  0
   47.7159    6.7955   14.3312 C   0  0  0  0  0  0  0  0  0  0  0  0
   47.8095    5.5635   14.9831 C   0  0  0  0  0  0  0  0  0  0  0  0
   46.9883    6.8843   13.1414 C   0  0  0  0  0  0  0  0  0  0  0  0
   47.1793    4.4328   14.4488 C   0  0  0  0  0  0  0  0  0  0  0  0
   46.3597    5.7594   12.6059 C   0  0  0  0  0  0  0  0  0  0  0  0
   46.4595    4.5408   13.2632 C   0  0  0  0  0  0  0  0  0  0  0  0
   45.8368    3.4635   12.7076 O   0  0  0  0  0  0  0  0  0  0  0  0
   48.7154   11.0140   18.3477 C   0  0  0  0  0  0  0  0  0  0  0  0
   49.2522    9.9536   17.7281 C   0  0  0  0  0  0  0  0  0  0  0  0
   48.4769    9.0549   16.8689 C   0  0  0  0  0  0  0  0  0  0  0  0
   47.1827    9.3898   16.7589 O   0  0  0  0  0  0  0  0  0  0  0  0
   48.9371    8.0840   16.2967 O   0  0  0  0  0  0  0  0  0  0  0  0
   49.4907   11.9174   19.2028 C   0  0  0  0  0  0  0  0  0  0  0  0
   50.7863   11.5869   19.3075 O   0  0  0  0  0  0  0  0  0  0  0  0
   49.0280   12.8841   19.7795 O   0  0  0  0  0  0  0  0  0  0  0  0
   49.8145    6.1675   14.2411 H   0  0  0  0  0  0  0  0  0  0  0  0
   50.3002    7.7665   13.6534 H   0  0  0  0  0  0  0  0  0  0  0  0
   46.8547    8.4828   14.8374 H   0  0  0  0  0  0  0  0  0  0  0  0
   47.9749    9.7558   15.3664 H   0  0  0  0  0  0  0  0  0  0  0  0
   48.1483    8.9579   17.2092 H   0  0  0  0  0  0  0  0  0  0  0  0
   48.9421    6.5209   11.9364 H   0  0  0  0  0  0  0  0  0  0  0  0
   47.6002    6.4093   13.0814 H   0  0  0  0  0  0  0  0  0  0  0  0
   47.3056   10.1008   12.9855 H   0  0  0  0  0  0  0  0  0  0  0  0
   49.0418    9.8066   13.1198 H   0  0  0  0  0  0  0  0  0  0  0  0
   48.1240    6.4129   18.7196 H   0  0  0  0  0  0  0  0  0  0  0  0
   47.4314    7.9527   19.2233 H   0  0  0  0  0  0  0  0  0  0  0  0
   50.3514    7.1103   19.0735 H   0  0  0  0  0  0  0  0  0  0  0  0
   49.5051    7.6967   20.4834 H   0  0  0  0  0  0  0  0  0  0  0  0
   50.1217    9.3137   18.0928 H   0  0  0  0  0  0  0  0  0  0  0  0
   50.3105   11.0987   19.7351 H   0  0  0  0  0  0  0  0  0  0  0  0
   49.4277   10.0880   20.8605 H   0  0  0  0  0  0  0  0  0  0  0  0
   47.4407   10.1053   19.3729 H   0  0  0  0  0  0  0  0  0  0  0  0
   46.8926   12.4841   19.2256 H   0  0  0  0  0  0  0  0  0  0  0  0
   47.6198   12.1384   20.7913 H   0  0  0  0  0  0  0  0  0  0  0  0
   48.9661   11.6755   17.5909 H   0  0  0  0  0  0  0  0  0  0  0  0
   49.5211   15.5536   18.8862 H   0  0  0  0  0  0  0  0  0  0  0  0
   49.3629   12.5395   21.9690 H   0  0  0  0  0  0  0  0  0  0  0  0
   50.5677   17.1219   20.4959 H   0  0  0  0  0  0  0  0  0  0  0  0
   50.3672   14.1010   23.5515 H   0  0  0  0  0  0  0  0  0  0  0  0
   51.2377   16.1771   23.8290 H   0  0  0  0  0  0  0  0  0  0  0  0
   50.9387   12.5241   22.5210 H   0  0  0  0  0  0  0  0  0  0  0  0
   49.1754   12.3097   22.6198 H   0  0  0  0  0  0  0  0  0  0  0  0
   50.5565   15.9487   21.0816 H   0  0  0  0  0  0  0  0  0  0  0  0
   49.3373   15.8799   22.3684 H   0  0  0  0  0  0  0  0  0  0  0  0
   49.6725   11.8297   20.5176 H   0  0  0  0  0  0  0  0  0  0  0  0
   49.0219   14.2174   24.2351 H   0  0  0  0  0  0  0  0  0  0  0  0
   50.0992   12.9607   24.8494 H   0  0  0  0  0  0  0  0  0  0  0  0
   52.2554   14.9313   22.6108 H   0  0  0  0  0  0  0  0  0  0  0  0
   51.6071   16.4194   23.3091 H   0  0  0  0  0  0  0  0  0  0  0  0
   47.6715   12.7876   18.5495 H   0  0  0  0  0  0  0  0  0  0  0  0
   48.0821   11.1024   18.9252 H   0  0  0  0  0  0  0  0  0  0  0  0
   50.3868   11.4681   17.9414 H   0  0  0  0  0  0  0  0  0  0  0  0
   49.9953   13.1316   17.6257 H   0  0  0  0  0  0  0  0  0  0  0  0
   48.3379   12.4996   16.0869 H   0  0  0  0  0  0  0  0  0  0  0  0
   48.0741   10.4401   15.1540 H   0  0  0  0  0  0  0  0  0  0  0  0
   47.6563   10.2865   16.8557 H   0  0  0  0  0  0  0  0  0  0  0  0
   49.9638    9.3297   17.3101 H   0  0  0  0  0  0  0  0  0  0  0  0
   49.8509    7.2531   15.8923 H   0  0  0  0  0  0  0  0  0  0  0  0
   48.3392    7.6453   16.7882 H   0  0  0  0  0  0  0  0  0  0  0  0
   50.6541   10.6398   15.3571 H   0  0  0  0  0  0  0  0  0  0  0  0
   48.3669    5.4466   15.9057 H   0  0  0  0  0  0  0  0  0  0  0  0
   46.9167    7.8377   12.6244 H   0  0  0  0  0  0  0  0  0  0  0  0
   47.2666    3.4833   14.9676 H   0  0  0  0  0  0  0  0  0  0  0  0
   45.8006    5.8359   11.6782 H   0  0  0  0  0  0  0  0  0  0  0  0
   46.0267    2.6799   13.2488 H   0  0  0  0  0  0  0  0  0  0  0  0
   47.6669   11.2736   18.2525 H   0  0  0  0  0  0  0  0  0  0  0  0
   50.3007    9.6944   17.8229 H   0  0  0  0  0  0  0  0  0  0  0  0
   46.8129    8.7036   16.1646 H   0  0  0  0  0  0  0  0  0  0  0  0
   51.1586   12.2741   19.8996 H   0  0  0  0  0  0  0  0  0  0  0  0
  3  7  1  0
  4  8  1  0
  5  9  1  0
  7 10  1  0
  9 11  1  0
 11 12  1  0
 12 13  1  0
 13 14  1  0
 14 15  1  0
 14 16  1  0
 15 17  1  0
 17 18  1  0
 18 19  2  0
 18 20  1  0
 19 21  1  0
 20 22  2  0
 21 23  2  0
 23 24  1  0
  8 10  1  0
 22 23  1  0
  1  2  1  0
  1  3  1  0
  1  4  1  0
  2  5  1  0
  2  6  2  0
 27 31  1  0
 28 32  1  0
 29 33  1  0
 31 34  1  0
 33 35  1  0
 35 36  1  0
 36 37  1  0
 37 38  1  0
 38 39  1  0
 38 40  1  0
 39 41  1  0
 41 42  1  0
 42 43  2  0
 42 44  1  0
 43 45  1  0
 44 46  2  0
 45 47  2  0
 47 48  1  0
 32 34  1  0
 46 47  1  0
 25 26  1  0
 25 27  1  0
 25 28  1  0
 26 29  1  0
 26 30  2  0
 49 50  2  0
 49 54  1  0
 50 51  1  0
 51 52  1  0
 51 53  2  0
 54 55  1  0
 54 56  2  0
  3 57  1  0
  3 58  1  0
  4 59  1  0
  4 60  1  0
  5 61  1  0
  7 62  1  0
  7 63  1  0
  8 64  1  0
  8 65  1  0
  9 66  1  0
  9 67  1  0
 11 68  1  0
 11 69  1  0
 12 70  1  0
 13 71  1  0
 13 72  1  0
 14 73  1  1
 15 74  1  0
 15 75  1  0
 16 76  1  0
 19 77  1  0
 20 78  1  0
 21 79  1  0
 22 80  1  0
 24 81  1  0
 27 82  1  0
 27 83  1  0
 28 84  1  0
 28 85  1  0
 29 86  1  0
 31 87  1  0
 31 88  1  0
 32 89  1  0
 32 90  1  0
 33 91  1  0
 33 92  1  0
 35 93  1  0
 35 94  1  0
 36 95  1  0
 37 96  1  0
 37 97  1  0
 38 98  1  6
 39 99  1  0
 39100  1  0
 40101  1  0
 43102  1  0
 44103  1  0
 45104  1  0
 46105  1  0
 48106  1  0
 49107  1  0
 50108  1  0
 52109  1  0
 55110  1  0
M  END
> <Uni-Dock RESULT> 
ENERGY=   -4.746  LOWER_BOUND=    3.677  UPPER_BOUND=   10.351
INTER + INTRA:          -4.746
INTER:                  -4.746
INTRA:                   0.000
UNBOUND:                 0.000

$$$$

     RDKit          3D

110111  0  0  0  0  0  0  0  0999 V2000
   48.5128   13.5610   11.4199 N   0  0  0  0  0  0  0  0  0  0  0  0
   49.2132   13.6035   12.6097 C   0  0  0  0  0  0  0  0  0  0  0  0
   47.7466   14.7396   11.0090 C   0  0  0  0  0  0  0  0  0  0  0  0
   48.7143   12.5604   10.3684 C   0  0  0  0  0  0  0  0  0  0  0  0
   49.9680   12.4909   12.8773 N   0  0  0  0  0  0  0  0  0  0  0  0
   49.1902   14.5716   13.3656 O   0  0  0  0  0  0  0  0  0  0  0  0
   48.0596   15.1020    9.5533 C   0  0  0  0  0  0  0  0  0  0  0  0
   47.7306   12.7440    9.2089 C   0  0  0  0  0  0  0  0  0  0  0  0
   50.7167   12.3915   14.1200 C   0  0  0  0  0  0  0  0  0  0  0  0
   47.7927   14.0473    8.6144 O   0  0  0  0  0  0  0  0  0  0  0  0
   49.8325   12.0834   15.3448 C   0  0  0  0  0  0  0  0  0  0  0  0
   48.7415   11.1238   15.1364 N   0  0  0  0  0  0  0  0  0  0  0  0
   49.1269    9.7104   15.1125 C   0  0  0  0  0  0  0  0  0  0  0  0
   49.7157    9.2159   13.7757 C   0  0  1  0  0  0  0  0  0  0  0  0
   49.7930    7.6843   13.6895 C   0  0  0  0  0  0  0  0  0  0  0  0
   48.9139    9.7173   12.6903 O   0  0  0  0  0  0  0  0  0  0  0  0
   48.4669    7.1430   13.7077 O   0  0  0  0  0  0  0  0  0  0  0  0
   48.1913    6.1666   14.6232 C   0  0  0  0  0  0  0  0  0  0  0  0
   47.2283    5.2366   14.2232 C   0  0  0  0  0  0  0  0  0  0  0  0
   48.7310    6.0880   15.9083 C   0  0  0  0  0  0  0  0  0  0  0  0
   46.8297    4.2161   15.0875 C   0  0  0  0  0  0  0  0  0  0  0  0
   48.3335    5.0645   16.7765 C   0  0  0  0  0  0  0  0  0  0  0  0
   47.3874    4.1354   16.3554 C   0  0  0  0  0  0  0  0  0  0  0  0
   46.9665    3.1273   17.1706 O   0  0  0  0  0  0  0  0  0  0  0  0
   48.3172    5.7159   15.9414 N   0  0  0  0  0  0  0  0  0  0  0  0
   48.3084    6.2660   14.6788 C   0  0  0  0  0  0  0  0  0  0  0  0
   49.0731    6.2259   17.0896 C   0  0  0  0  0  0  0  0  0  0  0  0
   47.6662    4.4223   16.1491 C   0  0  0  0  0  0  0  0  0  0  0  0
   48.8584    7.5189   14.5926 N   0  0  0  0  0  0  0  0  0  0  0  0
   47.8440    5.6855   13.7016 O   0  0  0  0  0  0  0  0  0  0  0  0
   49.4536    5.0971   18.0523 C   0  0  0  0  0  0  0  0  0  0  0  0
   47.2442    4.2520   17.6114 C   0  0  0  0  0  0  0  0  0  0  0  0
   48.8617    8.2391   13.3323 C   0  0  0  0  0  0  0  0  0  0  0  0
   48.3225    4.3740   18.5521 O   0  0  0  0  0  0  0  0  0  0  0  0
   47.4897    8.8602   13.0091 C   0  0  0  0  0  0  0  0  0  0  0  0
   47.3985    9.5537   11.7179 N   0  0  0  0  0  0  0  0  0  0  0  0
   48.2873   10.7204   11.5637 C   0  0  0  0  0  0  0  0  0  0  0  0
   47.8948   11.8913   12.4900 C   0  0  1  0  0  0  0  0  0  0  0  0
   48.7172   13.1643   12.2304 C   0  0  0  0  0  0  0  0  0  0  0  0
   46.4953   12.1666   12.3287 O   0  0  0  0  0  0  0  0  0  0  0  0
   48.7394   13.4663   10.8330 O   0  0  0  0  0  0  0  0  0  0  0  0
   49.4488   14.5676   10.4402 C   0  0  0  0  0  0  0  0  0  0  0  0
   50.1295   15.4514   11.2811 C   0  0  0  0  0  0  0  0  0  0  0  0
   49.4638   14.7902    9.0607 C   0  0  0  0  0  0  0  0  0  0  0  0
   50.8190   16.5460   10.7449 C   0  0  0  0  0  0  0  0  0  0  0  0
   50.1493   15.8804    8.5231 C   0  0  0  0  0  0  0  0  0  0  0  0
   50.8223   16.7513    9.3689 C   0  0  0  0  0  0  0  0  0  0  0  0
   51.4761   17.8073    8.8082 O   0  0  0  0  0  0  0  0  0  0  0  0
   48.8886    9.4409   13.3264 C   0  0  0  0  0  0  0  0  0  0  0  0
   48.5692   10.7424   13.3500 C   0  0  0  0  0  0  0  0  0  0  0  0
   49.1417   11.7212   12.4221 C   0  0  0  0  0  0  0  0  0  0  0  0
   50.0135   11.1967   11.5479 O   0  0  0  0  0  0  0  0  0  0  0  0
   48.8724   12.9083   12.4225 O   0  0  0  0  0  0  0  0  0  0  0  0
   48.3123    8.4593   14.2500 C   0  0  0  0  0  0  0  0  0  0  0  0
   47.4355    8.9822   15.1197 O   0  0  0  0  0  0  0  0  0  0  0  0
   48.5874    7.2738   14.2527 O   0  0  0  0  0  0  0  0  0  0  0  0
   47.9452   15.5965   11.6596 H   0  0  0  0  0  0  0  0  0  0  0  0
   46.6881   14.4753   11.1113 H   0  0  0  0  0  0  0  0  0  0  0  0
   49.7449   12.6771   10.0120 H   0  0  0  0  0  0  0  0  0  0  0  0
   48.6036   11.5560   10.7839 H   0  0  0  0  0  0  0  0  0  0  0  0
   49.5983   11.6127   12.5359 H   0  0  0  0  0  0  0  0  0  0  0  0
   47.4721   15.9736    9.2447 H   0  0  0  0  0  0  0  0  0  0  0  0
   49.1191   15.3664    9.4515 H   0  0  0  0  0  0  0  0  0  0  0  0
   47.9347   12.0110    8.4214 H   0  0  0  0  0  0  0  0  0  0  0  0
   46.7013   12.5797    9.5503 H   0  0  0  0  0  0  0  0  0  0  0  0
   51.2548   13.3319   14.2851 H   0  0  0  0  0  0  0  0  0  0  0  0
   51.4684   11.6098   13.9795 H   0  0  0  0  0  0  0  0  0  0  0  0
   49.3534   13.0226   15.6496 H   0  0  0  0  0  0  0  0  0  0  0  0
   50.4592   11.7860   16.1939 H   0  0  0  0  0  0  0  0  0  0  0  0
   48.2706   11.3589   14.2606 H   0  0  0  0  0  0  0  0  0  0  0  0
   48.1969    9.1636   15.3065 H   0  0  0  0  0  0  0  0  0  0  0  0
   49.7996    9.4690   15.9433 H   0  0  0  0  0  0  0  0  0  0  0  0
   50.7247    9.6122   13.6443 H   0  0  0  0  0  0  0  0  0  0  0  0
   50.2123    7.4093   12.7140 H   0  0  0  0  0  0  0  0  0  0  0  0
   50.4644    7.2759   14.4514 H   0  0  0  0  0  0  0  0  0  0  0  0
   48.0950    9.1819   12.7129 H   0  0  0  0  0  0  0  0  0  0  0  0
   46.7855    5.3038   13.2331 H   0  0  0  0  0  0  0  0  0  0  0  0
   49.4396    6.8227   16.2763 H   0  0  0  0  0  0  0  0  0  0  0  0
   46.0841    3.4913   14.7723 H   0  0  0  0  0  0  0  0  0  0  0  0
   48.7627    5.0182   17.7718 H   0  0  0  0  0  0  0  0  0  0  0  0
   47.4090    3.2167   18.0312 H   0  0  0  0  0  0  0  0  0  0  0  0
   48.4216    6.9487   17.5938 H   0  0  0  0  0  0  0  0  0  0  0  0
   49.9727    6.7452   16.7468 H   0  0  0  0  0  0  0  0  0  0  0  0
   46.7975    4.3258   15.4894 H   0  0  0  0  0  0  0  0  0  0  0  0
   48.3937    3.6512   15.8691 H   0  0  0  0  0  0  0  0  0  0  0  0
   48.7952    8.0770   15.4290 H   0  0  0  0  0  0  0  0  0  0  0  0
   50.1177    4.3795   17.5560 H   0  0  0  0  0  0  0  0  0  0  0  0
   49.9948    5.5005   18.9144 H   0  0  0  0  0  0  0  0  0  0  0  0
   46.4980    5.0107   17.8772 H   0  0  0  0  0  0  0  0  0  0  0  0
   46.7836    3.2705   17.7639 H   0  0  0  0  0  0  0  0  0  0  0  0
   49.1619    7.5507   12.5336 H   0  0  0  0  0  0  0  0  0  0  0  0
   49.6300    9.0129   13.4238 H   0  0  0  0  0  0  0  0  0  0  0  0
   47.1825    9.5260   13.8235 H   0  0  0  0  0  0  0  0  0  0  0  0
   46.7344    8.0644   12.9969 H   0  0  0  0  0  0  0  0  0  0  0  0
   47.6121    8.8804   10.9775 H   0  0  0  0  0  0  0  0  0  0  0  0
   48.1712   11.0391   10.5208 H   0  0  0  0  0  0  0  0  0  0  0  0
   49.3394   10.4472   11.6952 H   0  0  0  0  0  0  0  0  0  0  0  0
   48.0369   11.6091   13.5391 H   0  0  0  0  0  0  0  0  0  0  0  0
   48.2600   13.9980   12.7784 H   0  0  0  0  0  0  0  0  0  0  0  0
   49.7431   12.9959   12.5829 H   0  0  0  0  0  0  0  0  0  0  0  0
   46.1021   11.3081   12.0649 H   0  0  0  0  0  0  0  0  0  0  0  0
   50.1413   15.3207   12.3574 H   0  0  0  0  0  0  0  0  0  0  0  0
   48.9307   14.1112    8.4003 H   0  0  0  0  0  0  0  0  0  0  0  0
   51.3387   17.2240   11.4146 H   0  0  0  0  0  0  0  0  0  0  0  0
   50.1516   16.0491    7.4504 H   0  0  0  0  0  0  0  0  0  0  0  0
   51.8611   18.3480    9.5170 H   0  0  0  0  0  0  0  0  0  0  0  0
   49.5964    9.0288   12.6158 H   0  0  0  0  0  0  0  0  0  0  0  0
   47.8610   11.1542   14.0603 H   0  0  0  0  0  0  0  0  0  0  0  0
   50.2990   11.9660   11.0117 H   0  0  0  0  0  0  0  0  0  0  0  0
   47.1465    8.2133   15.6554 H   0  0  0  0  0  0  0  0  0  0  0  0
  3  7  1  0
  4  8  1  0
  5  9  1  0
  7 10  1  0
  9 11  1  0
 11 12  1  0
 12 13  1  0
 13 14  1  0
 14 15  1  0
 14 16  1  0
 15 17  1  0
 17 18  1  0
 18 19  2  0
 18 20  1  0
 19 21  1  0
 20 22  2  0
 21 23  2  0
 23 24  1  0
  8 10  1  0
 22 23  1  0
  1  2  1  0
  1  3  1  0
  1  4  1  0
  2  5  1  0
  2  6  2  0
 27 31  1  0
 28 32  1  0
 29 33  1  0
 31 34  1  0
 33 35  1  0
 35 36  1  0
 36 37  1  0
 37 38  1  0
 38 39  1  0
 38 40  1  0
 39 41  1  0
 41 42  1  0
 42 43  2  0
 42 44  1  0
 43 45  1  0
 44 46  2  0
 45 47  2  0
 47 48  1  0
 32 34  1  0
 46 47  1  0
 25 26  1  0
 25 27  1  0
 25 28  1  0
 26 29  1  0
 26 30  2  0
 49 50  2  0
 49 54  1  0
 50 51  1  0
 51 52  1  0
 51 53  2  0
 54 55  1  0
 54 56  2  0
  3 57  1  0
  3 58  1  0
  4 59  1  0
  4 60  1  0
  5 61  1  0
  7 62  1  0
  7 63  1  0
  8 64  1  0
  8 65  1  0
  9 66  1  0
  9 67  1  0
 11 68  1  0
 11 69  1  0
 12 70  1  0
 13 71  1  0
 13 72  1  0
 14 73  1  1
 15 74  1  0
 15 75  1  0
 16 76  1  0
 19 77  1  0
 20 78  1  0
 21 79  1  0
 22 80  1  0
 24 81  1  0
 27 82  1  0
 27 83  1  0
 28 84  1  0
 28 85  1  0
 29 86  1  0
 31 87  1  0
 31 88  1  0
 32 89  1  0
 32 90  1  0
 33 91  1  0
 33 92  1  0
 35 93  1  0
 35 94  1  0
 36 95  1  0
 37 96  1  0
 37 97  1  0
 38 98  1  6
 39 99  1  0
 39100  1  0
 40101  1  0
 43102  1  0
 44103  1  0
 45104  1  0
 46105  1  0
 48106  1  0
 49107  1  0
 50108  1  0
 52109  1  0
 55110  1  0
M  END
> <Uni-Dock RESULT> 
ENERGY=   -4.743  LOWER_BOUND=    3.541  UPPER_BOUND=    5.570
INTER + INTRA:          -4.743
INTER:                  -4.743
INTRA:                   0.000
UNBOUND:                 0.000

$$$$

     RDKit          3D

110111  0  0  0  0  0  0  0  0999 V2000
   49.0762   12.1451   11.0255 N   0  0  0  0  0  0  0  0  0  0  0  0
   47.8677   11.4764   11.0465 C   0  0  0  0  0  0  0  0  0  0  0  0
   49.5733   12.6654    9.7500 C   0  0  0  0  0  0  0  0  0  0  0  0
   49.7640   12.6626   12.2115 C   0  0  0  0  0  0  0  0  0  0  0  0
   47.4380   11.0959   12.2914 N   0  0  0  0  0  0  0  0  0  0  0  0
   47.2061   11.2578   10.0346 O   0  0  0  0  0  0  0  0  0  0  0  0
   50.0056   14.1280    9.8991 C   0  0  0  0  0  0  0  0  0  0  0  0
   51.1174   13.2874   11.8598 C   0  0  0  0  0  0  0  0  0  0  0  0
   46.2028   10.3440   12.4452 C   0  0  0  0  0  0  0  0  0  0  0  0
   51.0203   14.3426   10.8939 O   0  0  0  0  0  0  0  0  0  0  0  0
   46.3331    8.8623   12.0398 C   0  0  0  0  0  0  0  0  0  0  0  0
   47.5826    8.1907   12.4171 N   0  0  0  0  0  0  0  0  0  0  0  0
   47.6880    7.7727   13.8175 C   0  0  0  0  0  0  0  0  0  0  0  0
   48.0790    8.8903   14.8056 C   0  0  1  0  0  0  0  0  0  0  0  0
   48.4961    8.3495   16.1814 C   0  0  0  0  0  0  0  0  0  0  0  0
   49.1584    9.6613   14.2461 O   0  0  0  0  0  0  0  0  0  0  0  0
   49.6924    7.5743   16.0409 O   0  0  0  0  0  0  0  0  0  0  0  0
   49.6942    6.3089   16.5572 C   0  0  0  0  0  0  0  0  0  0  0  0
   50.9367    5.8572   17.0092 C   0  0  0  0  0  0  0  0  0  0  0  0
   48.5963    5.4472   16.5886 C   0  0  0  0  0  0  0  0  0  0  0  0
   51.0763    4.5656   17.5187 C   0  0  0  0  0  0  0  0  0  0  0  0
   48.7337    4.1517   17.1003 C   0  0  0  0  0  0  0  0  0  0  0  0
   49.9739    3.7242   17.5639 C   0  0  0  0  0  0  0  0  0  0  0  0
   50.1540    2.4688   18.0634 O   0  0  0  0  0  0  0  0  0  0  0  0
   49.0122    5.0978   16.7140 N   0  0  0  0  0  0  0  0  0  0  0  0
   49.5432    6.3525   16.5124 C   0  0  0  0  0  0  0  0  0  0  0  0
   47.6502    4.6813   16.3660 C   0  0  0  0  0  0  0  0  0  0  0  0
   49.7825    4.1245   17.4884 C   0  0  0  0  0  0  0  0  0  0  0  0
   48.7992    7.1691   15.7005 N   0  0  0  0  0  0  0  0  0  0  0  0
   50.6016    6.7176   17.0165 O   0  0  0  0  0  0  0  0  0  0  0  0
   47.1484    3.5776   17.3020 C   0  0  0  0  0  0  0  0  0  0  0  0
   49.3790    2.6933   17.1224 C   0  0  0  0  0  0  0  0  0  0  0  0
   49.2715    8.4981   15.3571 C   0  0  0  0  0  0  0  0  0  0  0  0
   47.9820    2.4126   17.3014 O   0  0  0  0  0  0  0  0  0  0  0  0
   50.3600    8.4695   14.2676 C   0  0  0  0  0  0  0  0  0  0  0  0
   50.9315    9.7745   13.9111 N   0  0  0  0  0  0  0  0  0  0  0  0
   49.9792   10.7466   13.3427 C   0  0  0  0  0  0  0  0  0  0  0  0
   49.4624   10.3257   11.9502 C   0  0  1  0  0  0  0  0  0  0  0  0
   48.5896   11.4015   11.2830 C   0  0  0  0  0  0  0  0  0  0  0  0
   50.5832   10.0093   11.1111 O   0  0  0  0  0  0  0  0  0  0  0  0
   49.2386   12.6743   11.3392 O   0  0  0  0  0  0  0  0  0  0  0  0
   48.5757   13.7411   10.7980 C   0  0  0  0  0  0  0  0  0  0  0  0
   47.3333   13.7010   10.1605 C   0  0  0  0  0  0  0  0  0  0  0  0
   49.2431   14.9631   10.9154 C   0  0  0  0  0  0  0  0  0  0  0  0
   46.7653   14.8737    9.6474 C   0  0  0  0  0  0  0  0  0  0  0  0
   48.6803   16.1335   10.4047 C   0  0  0  0  0  0  0  0  0  0  0  0
   47.4449   16.0810    9.7738 C   0  0  0  0  0  0  0  0  0  0  0  0
   46.9293   17.2430    9.2831 O   0  0  0  0  0  0  0  0  0  0  0  0
   48.9142    9.0175   14.3336 C   0  0  0  0  0  0  0  0  0  0  0  0
   48.7881    9.4154   13.0599 C   0  0  0  0  0  0  0  0  0  0  0  0
   48.5564   10.8113   12.6795 C   0  0  0  0  0  0  0  0  0  0  0  0
   48.4822   11.6536   13.7207 O   0  0  0  0  0  0  0  0  0  0  0  0
   48.4352   11.2002   11.5324 O   0  0  0  0  0  0  0  0  0  0  0  0
   49.1520    7.6225   14.7156 C   0  0  0  0  0  0  0  0  0  0  0  0
   49.2331    6.7811   13.6745 O   0  0  0  0  0  0  0  0  0  0  0  0
   49.2665    7.2340   15.8632 O   0  0  0  0  0  0  0  0  0  0  0  0
   48.8238   12.5750    8.9581 H   0  0  0  0  0  0  0  0  0  0  0  0
   50.4337   12.0454    9.4738 H   0  0  0  0  0  0  0  0  0  0  0  0
   49.1042   13.4162   12.6581 H   0  0  0  0  0  0  0  0  0  0  0  0
   49.9118   11.8588   12.9367 H   0  0  0  0  0  0  0  0  0  0  0  0
   48.1631   10.8568   12.9560 H   0  0  0  0  0  0  0  0  0  0  0  0
   50.3924   14.5082    8.9473 H   0  0  0  0  0  0  0  0  0  0  0  0
   49.1441   14.7479   10.1755 H   0  0  0  0  0  0  0  0  0  0  0  0
   51.5858   13.7032   12.7582 H   0  0  0  0  0  0  0  0  0  0  0  0
   51.7977   12.5266   11.4582 H   0  0  0  0  0  0  0  0  0  0  0  0
   45.4212   10.8204   11.8423 H   0  0  0  0  0  0  0  0  0  0  0  0
   45.9018   10.4332   13.4927 H   0  0  0  0  0  0  0  0  0  0  0  0
   46.2847    8.8152   10.9444 H   0  0  0  0  0  0  0  0  0  0  0  0
   45.4624    8.2987   12.3953 H   0  0  0  0  0  0  0  0  0  0  0  0
   48.3615    8.8126   12.1921 H   0  0  0  0  0  0  0  0  0  0  0  0
   48.4766    7.0114   13.8235 H   0  0  0  0  0  0  0  0  0  0  0  0
   46.7748    7.2661   14.1496 H   0  0  0  0  0  0  0  0  0  0  0  0
   47.2364    9.5693   14.9516 H   0  0  0  0  0  0  0  0  0  0  0  0
   48.7654    9.1969   16.8236 H   0  0  0  0  0  0  0  0  0  0  0  0
   47.6681    7.8284   16.6721 H   0  0  0  0  0  0  0  0  0  0  0  0
   49.9478    9.0890   14.3305 H   0  0  0  0  0  0  0  0  0  0  0  0
   51.8022    6.5130   16.9670 H   0  0  0  0  0  0  0  0  0  0  0  0
   47.6281    5.7408   16.1962 H   0  0  0  0  0  0  0  0  0  0  0  0
   52.0425    4.2183   17.8740 H   0  0  0  0  0  0  0  0  0  0  0  0
   47.8704    3.4949   17.1172 H   0  0  0  0  0  0  0  0  0  0  0  0
   49.3144    1.9839   17.9987 H   0  0  0  0  0  0  0  0  0  0  0  0
   47.6925    4.3117   15.3350 H   0  0  0  0  0  0  0  0  0  0  0  0
   46.9735    5.5399   16.4025 H   0  0  0  0  0  0  0  0  0  0  0  0
   50.8546    4.2715   17.3212 H   0  0  0  0  0  0  0  0  0  0  0  0
   49.5728    4.3219   18.5465 H   0  0  0  0  0  0  0  0  0  0  0  0
   48.2421    6.6969   15.0065 H   0  0  0  0  0  0  0  0  0  0  0  0
   47.0904    3.9479   18.3324 H   0  0  0  0  0  0  0  0  0  0  0  0
   46.1409    3.2628   17.0109 H   0  0  0  0  0  0  0  0  0  0  0  0
   49.6147    2.4948   16.0698 H   0  0  0  0  0  0  0  0  0  0  0  0
   49.9398    1.9724   17.7263 H   0  0  0  0  0  0  0  0  0  0  0  0
   49.6569    8.9804   16.2632 H   0  0  0  0  0  0  0  0  0  0  0  0
   48.3937    9.0572   15.0190 H   0  0  0  0  0  0  0  0  0  0  0  0
   49.9780    7.9622   13.3746 H   0  0  0  0  0  0  0  0  0  0  0  0
   51.1910    7.8420   14.6133 H   0  0  0  0  0  0  0  0  0  0  0  0
   51.3500   10.1807   14.7518 H   0  0  0  0  0  0  0  0  0  0  0  0
   50.5426   11.6823   13.2437 H   0  0  0  0  0  0  0  0  0  0  0  0
   49.1498   10.9484   14.0284 H   0  0  0  0  0  0  0  0  0  0  0  0
   48.8647    9.4107   12.0282 H   0  0  0  0  0  0  0  0  0  0  0  0
   48.4228   11.1210   10.2353 H   0  0  0  0  0  0  0  0  0  0  0  0
   47.6325   11.4567   11.8179 H   0  0  0  0  0  0  0  0  0  0  0  0
   51.2796    9.7059   11.7309 H   0  0  0  0  0  0  0  0  0  0  0  0
   46.7817   12.7750   10.0424 H   0  0  0  0  0  0  0  0  0  0  0  0
   50.2135   15.0015   11.4037 H   0  0  0  0  0  0  0  0  0  0  0  0
   45.8008   14.8219    9.1519 H   0  0  0  0  0  0  0  0  0  0  0  0
   49.2080   17.0782   10.4956 H   0  0  0  0  0  0  0  0  0  0  0  0
   46.0897   17.0478    8.8361 H   0  0  0  0  0  0  0  0  0  0  0  0
   48.8506    9.7079   15.1673 H   0  0  0  0  0  0  0  0  0  0  0  0
   48.8523    8.7250   12.2263 H   0  0  0  0  0  0  0  0  0  0  0  0
   48.3268   12.5274   13.3045 H   0  0  0  0  0  0  0  0  0  0  0  0
   49.3914    5.9065   14.0889 H   0  0  0  0  0  0  0  0  0  0  0  0
  3  7  1  0
  4  8  1  0
  5  9  1  0
  7 10  1  0
  9 11  1  0
 11 12  1  0
 12 13  1  0
 13 14  1  0
 14 15  1  0
 14 16  1  0
 15 17  1  0
 17 18  1  0
 18 19  2  0
 18 20  1  0
 19 21  1  0
 20 22  2  0
 21 23  2  0
 23 24  1  0
  8 10  1  0
 22 23  1  0
  1  2  1  0
  1  3  1  0
  1  4  1  0
  2  5  1  0
  2  6  2  0
 27 31  1  0
 28 32  1  0
 29 33  1  0
 31 34  1  0
 33 35  1  0
 35 36  1  0
 36 37  1  0
 37 38  1  0
 38 39  1  0
 38 40  1  0
 39 41  1  0
 41 42  1  0
 42 43  2  0
 42 44  1  0
 43 45  1  0
 44 46  2  0
 45 47  2  0
 47 48  1  0
 32 34  1  0
 46 47  1  0
 25 26  1  0
 25 27  1  0
 25 28  1  0
 26 29  1  0
 26 30  2  0
 49 50  2  0
 49 54  1  0
 50 51  1  0
 51 52  1  0
 51 53  2  0
 54 55  1  0
 54 56  2  0
  3 57  1  0
  3 58  1  0
  4 59  1  0
  4 60  1  0
  5 61  1  0
  7 62  1  0
  7 63  1  0
  8 64  1  0
  8 65  1  0
  9 66  1  0
  9 67  1  0
 11 68  1  0
 11 69  1  0
 12 70  1  0
 13 71  1  0
 13 72  1  0
 14 73  1  1
 15 74  1  0
 15 75  1  0
 16 76  1  0
 19 77  1  0
 20 78  1  0
 21 79  1  0
 22 80  1  0
 24 81  1  0
 27 82  1  0
 27 83  1  0
 28 84  1  0
 28 85  1  0
 29 86  1  0
 31 87  1  0
 31 88  1  0
 32 89  1  0
 32 90  1  0
 33 91  1  0
 33 92  1  0
 35 93  1  0
 35 94  1  0
 36 95  1  0
 37 96  1  0
 37 97  1  0
 38 98  1  6
 39 99  1  0
 39100  1  0
 40101  1  0
 43102  1  0
 44103  1  0
 45104  1  0
 46105  1  0
 48106  1  0
 49107  1  0
 50108  1  0
 52109  1  0
 55110  1  0
M  END
> <Uni-Dock RESULT> 
ENERGY=   -4.468  LOWER_BOUND=    3.624  UPPER_BOUND=    5.841
INTER + INTRA:          -4.468
INTER:                  -4.468
INTRA:                   0.000
UNBOUND:                 0.000

$$$$

     RDKit          3D

110111  0  0  0  0  0  0  0  0999 V2000
   50.3732   10.7657   16.4438 N   0  0  0  0  0  0  0  0  0  0  0  0
   50.0475   11.5728   15.3712 C   0  0  0  0  0  0  0  0  0  0  0  0
   50.7651   11.3944   17.7072 C   0  0  0  0  0  0  0  0  0  0  0  0
   50.0615    9.3369   16.5378 C   0  0  0  0  0  0  0  0  0  0  0  0
   49.6133   10.9055   14.2552 N   0  0  0  0  0  0  0  0  0  0  0  0
   50.1122   12.7990   15.4122 O   0  0  0  0  0  0  0  0  0  0  0  0
   49.9884   10.7791   18.8761 C   0  0  0  0  0  0  0  0  0  0  0  0
   50.6221    8.7130   17.8193 C   0  0  0  0  0  0  0  0  0  0  0  0
   49.2828   11.6371   13.0428 C   0  0  0  0  0  0  0  0  0  0  0  0
   50.1595    9.3588   19.0130 O   0  0  0  0  0  0  0  0  0  0  0  0
   50.5212   12.1262   12.2656 C   0  0  0  0  0  0  0  0  0  0  0  0
   51.6603   11.2023   12.2062 N   0  0  0  0  0  0  0  0  0  0  0  0
   51.5442   10.1026   11.2449 C   0  0  0  0  0  0  0  0  0  0  0  0
   50.6955    8.9059   11.7200 C   0  0  1  0  0  0  0  0  0  0  0  0
   50.8727    7.6621   10.8363 C   0  0  0  0  0  0  0  0  0  0  0  0
   51.0491    8.5836   13.0778 O   0  0  0  0  0  0  0  0  0  0  0  0
   52.2229    7.1960   10.9427 O   0  0  0  0  0  0  0  0  0  0  0  0
   52.9198    6.9966    9.7842 C   0  0  0  0  0  0  0  0  0  0  0  0
   53.8782    5.9813    9.8386 C   0  0  0  0  0  0  0  0  0  0  0  0
   52.7943    7.7622    8.6236 C   0  0  0  0  0  0  0  0  0  0  0  0
   54.6841    5.7104    8.7320 C   0  0  0  0  0  0  0  0  0  0  0  0
   53.6008    7.4914    7.5120 C   0  0  0  0  0  0  0  0  0  0  0  0
   54.5371    6.4643    7.5766 C   0  0  0  0  0  0  0  0  0  0  0  0
   55.3476    6.1714    6.5205 O   0  0  0  0  0  0  0  0  0  0  0  0
   53.2600    7.4756    8.5148 N   0  0  0  0  0  0  0  0  0  0  0  0
   52.8077    7.1138    9.7643 C   0  0  0  0  0  0  0  0  0  0  0  0
   52.7863    8.6231    7.7347 C   0  0  0  0  0  0  0  0  0  0  0  0
   54.1642    6.5705    7.8051 C   0  0  0  0  0  0  0  0  0  0  0  0
   52.0407    8.0590   10.3952 N   0  0  0  0  0  0  0  0  0  0  0  0
   53.0688    6.0306   10.2802 O   0  0  0  0  0  0  0  0  0  0  0  0
   52.9066    8.3622    6.2303 C   0  0  0  0  0  0  0  0  0  0  0  0
   55.0110    7.3350    6.7835 C   0  0  0  0  0  0  0  0  0  0  0  0
   51.5472    7.8316   11.7413 C   0  0  0  0  0  0  0  0  0  0  0  0
   54.2440    8.0641    5.8126 O   0  0  0  0  0  0  0  0  0  0  0  0
   52.6345    8.0553   12.8092 C   0  0  0  0  0  0  0  0  0  0  0  0
   52.2258    7.7837   14.1934 N   0  0  0  0  0  0  0  0  0  0  0  0
   51.1359    8.6335   14.7081 C   0  0  0  0  0  0  0  0  0  0  0  0
   51.5609   10.1086   14.8715 C   0  0  1  0  0  0  0  0  0  0  0  0
   50.4843   10.9724   15.5488 C   0  0  0  0  0  0  0  0  0  0  0  0
   52.7824   10.1632   15.6234 O   0  0  0  0  0  0  0  0  0  0  0  0
   50.0086   10.3343   16.7367 O   0  0  0  0  0  0  0  0  0  0  0  0
   49.0310   10.9763   17.4454 C   0  0  0  0  0  0  0  0  0  0  0  0
   48.4730   12.2196   17.1381 C   0  0  0  0  0  0  0  0  0  0  0  0
   48.5815   10.2873   18.5750 C   0  0  0  0  0  0  0  0  0  0  0  0
   47.4741   12.7658   17.9536 C   0  0  0  0  0  0  0  0  0  0  0  0
   47.5868   10.8289   19.3902 C   0  0  0  0  0  0  0  0  0  0  0  0
   47.0397   12.0650   19.0741 C   0  0  0  0  0  0  0  0  0  0  0  0
   46.0744   12.5642   19.8961 O   0  0  0  0  0  0  0  0  0  0  0  0
   51.3048    8.7651   12.4587 C   0  0  0  0  0  0  0  0  0  0  0  0
   51.3788    9.7802   13.3308 C   0  0  0  0  0  0  0  0  0  0  0  0
   50.3985    9.9862   14.4002 C   0  0  0  0  0  0  0  0  0  0  0  0
   49.4215    9.0675   14.4268 O   0  0  0  0  0  0  0  0  0  0  0  0
   50.4392   10.8998   15.2036 O   0  0  0  0  0  0  0  0  0  0  0  0
   52.2879    8.5541   11.3921 C   0  0  0  0  0  0  0  0  0  0  0  0
   53.2686    9.4686   11.3694 O   0  0  0  0  0  0  0  0  0  0  0  0
   52.2423    7.6440   10.5855 O   0  0  0  0  0  0  0  0  0  0  0  0
   50.6110   12.4773   17.6835 H   0  0  0  0  0  0  0  0  0  0  0  0
   51.8381   11.2079   17.8292 H   0  0  0  0  0  0  0  0  0  0  0  0
   48.9686    9.2483   16.5207 H   0  0  0  0  0  0  0  0  0  0  0  0
   50.4650    8.8098   15.6700 H   0  0  0  0  0  0  0  0  0  0  0  0
   50.0209    9.9921   14.0992 H   0  0  0  0  0  0  0  0  0  0  0  0
   50.2965   11.2402   19.8208 H   0  0  0  0  0  0  0  0  0  0  0  0
   48.9146   10.9661   18.7534 H   0  0  0  0  0  0  0  0  0  0  0  0
   50.3356    7.6579   17.8817 H   0  0  0  0  0  0  0  0  0  0  0  0
   51.7180    8.7553   17.8182 H   0  0  0  0  0  0  0  0  0  0  0  0
   48.6551   12.4956   13.3076 H   0  0  0  0  0  0  0  0  0  0  0  0
   48.6752   10.9720   12.4228 H   0  0  0  0  0  0  0  0  0  0  0  0
   50.8911   13.0282   12.7695 H   0  0  0  0  0  0  0  0  0  0  0  0
   50.2282   12.4522   11.2607 H   0  0  0  0  0  0  0  0  0  0  0  0
   51.8103   10.8176   13.1408 H   0  0  0  0  0  0  0  0  0  0  0  0
   52.5731    9.7589   11.0875 H   0  0  0  0  0  0  0  0  0  0  0  0
   51.1925   10.4627   10.2714 H   0  0  0  0  0  0  0  0  0  0  0  0
   49.6372    9.1749   11.7151 H   0  0  0  0  0  0  0  0  0  0  0  0
   50.2478    6.8553   11.2381 H   0  0  0  0  0  0  0  0  0  0  0  0
   50.5325    7.8490    9.8130 H   0  0  0  0  0  0  0  0  0  0  0  0
   51.9222    8.1461   13.0144 H   0  0  0  0  0  0  0  0  0  0  0  0
   53.9991    5.3955   10.7459 H   0  0  0  0  0  0  0  0  0  0  0  0
   52.1013    8.5947    8.5604 H   0  0  0  0  0  0  0  0  0  0  0  0
   55.4253    4.9172    8.7753 H   0  0  0  0  0  0  0  0  0  0  0  0
   53.4906    8.0961    6.6181 H   0  0  0  0  0  0  0  0  0  0  0  0
   55.1619    6.7982    5.8015 H   0  0  0  0  0  0  0  0  0  0  0  0
   53.4144    9.4742    8.0218 H   0  0  0  0  0  0  0  0  0  0  0  0
   51.7483    8.8511    7.9936 H   0  0  0  0  0  0  0  0  0  0  0  0
   54.8099    6.0459    8.5172 H   0  0  0  0  0  0  0  0  0  0  0  0
   53.5375    5.8253    7.3009 H   0  0  0  0  0  0  0  0  0  0  0  0
   52.2400    9.0144   10.1450 H   0  0  0  0  0  0  0  0  0  0  0  0
   52.2680    7.5207    5.9363 H   0  0  0  0  0  0  0  0  0  0  0  0
   52.5720    9.2387    5.6656 H   0  0  0  0  0  0  0  0  0  0  0  0
   55.6534    8.0607    7.2969 H   0  0  0  0  0  0  0  0  0  0  0  0
   55.6642    6.6464    6.2375 H   0  0  0  0  0  0  0  0  0  0  0  0
   51.1592    6.8082   11.8063 H   0  0  0  0  0  0  0  0  0  0  0  0
   50.7117    8.5239   11.8822 H   0  0  0  0  0  0  0  0  0  0  0  0
   53.0376    9.0705   12.7215 H   0  0  0  0  0  0  0  0  0  0  0  0
   53.4845    7.3959   12.5933 H   0  0  0  0  0  0  0  0  0  0  0  0
   51.9333    6.8051   14.2542 H   0  0  0  0  0  0  0  0  0  0  0  0
   50.8891    8.2244   15.6952 H   0  0  0  0  0  0  0  0  0  0  0  0
   50.2325    8.5474   14.0957 H   0  0  0  0  0  0  0  0  0  0  0  0
   51.7785   10.5512   13.8930 H   0  0  0  0  0  0  0  0  0  0  0  0
   50.9221   11.9454   15.8056 H   0  0  0  0  0  0  0  0  0  0  0  0
   49.6500   11.1051   14.8477 H   0  0  0  0  0  0  0  0  0  0  0  0
   53.2308    9.3128   15.4308 H   0  0  0  0  0  0  0  0  0  0  0  0
   48.7938   12.7917   16.2747 H   0  0  0  0  0  0  0  0  0  0  0  0
   49.0157    9.3226   18.8250 H   0  0  0  0  0  0  0  0  0  0  0  0
   47.0554   13.7349   17.7008 H   0  0  0  0  0  0  0  0  0  0  0  0
   47.2469   10.2893   20.2691 H   0  0  0  0  0  0  0  0  0  0  0  0
   45.8183   13.4451   19.5778 H   0  0  0  0  0  0  0  0  0  0  0  0
   50.5089    8.0293   12.4892 H   0  0  0  0  0  0  0  0  0  0  0  0
   52.1750   10.5156   13.3006 H   0  0  0  0  0  0  0  0  0  0  0  0
   48.8612    9.3432   15.1823 H   0  0  0  0  0  0  0  0  0  0  0  0
   53.8319    9.1926   10.6158 H   0  0  0  0  0  0  0  0  0  0  0  0
  3  7  1  0
  4  8  1  0
  5  9  1  0
  7 10  1  0
  9 11  1  0
 11 12  1  0
 12 13  1  0
 13 14  1  0
 14 15  1  0
 14 16  1  0
 15 17  1  0
 17 18  1  0
 18 19  2  0
 18 20  1  0
 19 21  1  0
 20 22  2  0
 21 23  2  0
 23 24  1  0
  8 10  1  0
 22 23  1  0
  1  2  1  0
  1  3  1  0
  1  4  1  0
  2  5  1  0
  2  6  2  0
 27 31  1  0
 28 32  1  0
 29 33  1  0
 31 34  1  0
 33 35  1  0
 35 36  1  0
 36 37  1  0
 37 38  1  0
 38 39  1  0
 38 40  1  0
 39 41  1  0
 41 42  1  0
 42 43  2  0
 42 44  1  0
 43 45  1  0
 44 46  2  0
 45 47  2  0
 47 48  1  0
 32 34  1  0
 46 47  1  0
 25 26  1  0
 25 27  1  0
 25 28  1  0
 26 29  1  0
 26 30  2  0
 49 50  2  0
 49 54  1  0
 50 51  1  0
 51 52  1  0
 51 53  2  0
 54 55  1  0
 54 56  2  0
  3 57  1  0
  3 58  1  0
  4 59  1  0
  4 60  1  0
  5 61  1  0
  7 62  1  0
  7 63  1  0
  8 64  1  0
  8 65  1  0
  9 66  1  0
  9 67  1  0
 11 68  1  0
 11 69  1  0
 12 70  1  0
 13 71  1  0
 13 72  1  0
 14 73  1  1
 15 74  1  0
 15 75  1  0
 16 76  1  0
 19 77  1  0
 20 78  1  0
 21 79  1  0
 22 80  1  0
 24 81  1  0
 27 82  1  0
 27 83  1  0
 28 84  1  0
 28 85  1  0
 29 86  1  0
 31 87  1  0
 31 88  1  0
 32 89  1  0
 32 90  1  0
 33 91  1  0
 33 92  1  0
 35 93  1  0
 35 94  1  0
 36 95  1  0
 37 96  1  0
 37 97  1  0
 38 98  1  6
 39 99  1  0
 39100  1  0
 40101  1  0
 43102  1  0
 44103  1  0
 45104  1  0
 46105  1  0
 48106  1  0
 49107  1  0
 50108  1  0
 52109  1  0
 55110  1  0
M  END
> <Uni-Dock RESULT> 
ENERGY=   -4.358  LOWER_BOUND=    4.553  UPPER_BOUND=    6.482
INTER + INTRA:          -4.358
INTER:                  -4.358
INTRA:                   0.000
UNBOUND:                 0.000

$$$$

     RDKit          3D

110111  0  0  0  0  0  0  0  0999 V2000
   49.9021    5.9597   17.5177 N   0  0  0  0  0  0  0  0  0  0  0  0
   51.0997    6.3541   16.9535 C   0  0  0  0  0  0  0  0  0  0  0  0
   49.7393    4.5620   17.9238 C   0  0  0  0  0  0  0  0  0  0  0  0
   48.8848    6.8754   18.0410 C   0  0  0  0  0  0  0  0  0  0  0  0
   51.1972    7.6937   16.6792 N   0  0  0  0  0  0  0  0  0  0  0  0
   52.0250    5.5760   16.7350 O   0  0  0  0  0  0  0  0  0  0  0  0
   49.1888    4.4790   19.3516 C   0  0  0  0  0  0  0  0  0  0  0  0
   47.6411    6.1278   18.5312 C   0  0  0  0  0  0  0  0  0  0  0  0
   52.3896    8.2291   16.0419 C   0  0  0  0  0  0  0  0  0  0  0  0
   47.9295    5.1464   19.5359 O   0  0  0  0  0  0  0  0  0  0  0  0
   52.4711    7.9168   14.5344 C   0  0  0  0  0  0  0  0  0  0  0  0
   51.2124    7.9952   13.7834 N   0  0  0  0  0  0  0  0  0  0  0  0
   50.7561    9.3435   13.4360 C   0  0  0  0  0  0  0  0  0  0  0  0
   50.0388   10.1034   14.5701 C   0  0  1  0  0  0  0  0  0  0  0  0
   49.2982   11.3539   14.0734 C   0  0  0  0  0  0  0  0  0  0  0  0
   49.1055    9.2186   15.2170 O   0  0  0  0  0  0  0  0  0  0  0  0
   48.2384   10.9571   13.1951 O   0  0  0  0  0  0  0  0  0  0  0  0
   48.1779   11.5481   11.9644 C   0  0  0  0  0  0  0  0  0  0  0  0
   46.8911   11.6835   11.4369 C   0  0  0  0  0  0  0  0  0  0  0  0
   49.2790   11.9375   11.1997 C   0  0  0  0  0  0  0  0  0  0  0  0
   46.7018   12.2331   10.1683 C   0  0  0  0  0  0  0  0  0  0  0  0
   49.0914   12.4901    9.9274 C   0  0  0  0  0  0  0  0  0  0  0  0
   47.8022   12.6354    9.4249 C   0  0  0  0  0  0  0  0  0  0  0  0
   47.5743   13.1617    8.1884 O   0  0  0  0  0  0  0  0  0  0  0  0
   48.8681   11.9730   10.8245 N   0  0  0  0  0  0  0  0  0  0  0  0
   48.3321   11.5423   12.0178 C   0  0  0  0  0  0  0  0  0  0  0  0
   50.2975   12.0350   10.5036 C   0  0  0  0  0  0  0  0  0  0  0  0
   47.9806   12.5839    9.8349 C   0  0  0  0  0  0  0  0  0  0  0  0
   49.2149   10.9000   12.8472 N   0  0  0  0  0  0  0  0  0  0  0  0
   47.1551   11.7153   12.3212 O   0  0  0  0  0  0  0  0  0  0  0  0
   50.5952   13.1518    9.4987 C   0  0  0  0  0  0  0  0  0  0  0  0
   48.5604   12.4486    8.4240 C   0  0  0  0  0  0  0  0  0  0  0  0
   48.7691   10.3433   14.1116 C   0  0  0  0  0  0  0  0  0  0  0  0
   49.8708   13.0160    8.2704 O   0  0  0  0  0  0  0  0  0  0  0  0
   48.0234    9.0074   13.9328 C   0  0  0  0  0  0  0  0  0  0  0  0
   47.4876    8.4133   15.1642 N   0  0  0  0  0  0  0  0  0  0  0  0
   48.4937    8.0490   16.1791 C   0  0  0  0  0  0  0  0  0  0  0  0
   49.3970    6.8818   15.7263 C   0  0  1  0  0  0  0  0  0  0  0  0
   50.3471    6.3936   16.8322 C   0  0  0  0  0  0  0  0  0  0  0  0
   48.5707    5.7995   15.2723 O   0  0  0  0  0  0  0  0  0  0  0  0
   49.6264    6.1775   18.0481 O   0  0  0  0  0  0  0  0  0  0  0  0
   50.3412    5.7546   19.1346 C   0  0  0  0  0  0  0  0  0  0  0  0
   51.7103    5.4782   19.1625 C   0  0  0  0  0  0  0  0  0  0  0  0
   49.5893    5.5963   20.3018 C   0  0  0  0  0  0  0  0  0  0  0  0
   52.3195    5.0490   20.3482 C   0  0  0  0  0  0  0  0  0  0  0  0
   50.1931    5.1681   21.4848 C   0  0  0  0  0  0  0  0  0  0  0  0
   51.5544    4.8970   21.5001 C   0  0  0  0  0  0  0  0  0  0  0  0
   52.1079    4.4762   22.6720 O   0  0  0  0  0  0  0  0  0  0  0  0
   49.3577    9.4167   14.6015 C   0  0  0  0  0  0  0  0  0  0  0  0
   49.8004    8.1971   14.9376 C   0  0  0  0  0  0  0  0  0  0  0  0
   50.0362    7.7883   16.3248 C   0  0  0  0  0  0  0  0  0  0  0  0
   49.7688    8.7446   17.2265 O   0  0  0  0  0  0  0  0  0  0  0  0
   50.4403    6.6897   16.6586 O   0  0  0  0  0  0  0  0  0  0  0  0
   49.1156    9.8253   13.2148 C   0  0  0  0  0  0  0  0  0  0  0  0
   49.3763    8.8672   12.3134 O   0  0  0  0  0  0  0  0  0  0  0  0
   48.7177   10.9263   12.8820 O   0  0  0  0  0  0  0  0  0  0  0  0
   50.6806    4.0091   17.8523 H   0  0  0  0  0  0  0  0  0  0  0  0
   49.0290    4.1131   17.2204 H   0  0  0  0  0  0  0  0  0  0  0  0
   49.3474    7.4242   18.8701 H   0  0  0  0  0  0  0  0  0  0  0  0
   48.5971    7.5931   17.2690 H   0  0  0  0  0  0  0  0  0  0  0  0
   50.3353    8.1558   16.4179 H   0  0  0  0  0  0  0  0  0  0  0  0
   49.0526    3.4325   19.6453 H   0  0  0  0  0  0  0  0  0  0  0  0
   49.9002    4.9284   20.0551 H   0  0  0  0  0  0  0  0  0  0  0  0
   46.9195    6.8338   18.9557 H   0  0  0  0  0  0  0  0  0  0  0  0
   47.1470    5.6173   17.6956 H   0  0  0  0  0  0  0  0  0  0  0  0
   53.2734    7.8235   16.5474 H   0  0  0  0  0  0  0  0  0  0  0  0
   52.3870    9.3091   16.2133 H   0  0  0  0  0  0  0  0  0  0  0  0
   52.8195    6.8812   14.4311 H   0  0  0  0  0  0  0  0  0  0  0  0
   53.2464    8.5341   14.0653 H   0  0  0  0  0  0  0  0  0  0  0  0
   50.4858    7.5234   14.3253 H   0  0  0  0  0  0  0  0  0  0  0  0
   50.0469    9.1955   12.6135 H   0  0  0  0  0  0  0  0  0  0  0  0
   51.5749    9.9455   13.0259 H   0  0  0  0  0  0  0  0  0  0  0  0
   50.7638   10.4181   15.3237 H   0  0  0  0  0  0  0  0  0  0  0  0
   48.8095   11.8346   14.9297 H   0  0  0  0  0  0  0  0  0  0  0  0
   49.9928   12.0865   13.6505 H   0  0  0  0  0  0  0  0  0  0  0  0
   48.3618    9.1315   14.5868 H   0  0  0  0  0  0  0  0  0  0  0  0
   46.0294   11.3615   12.0155 H   0  0  0  0  0  0  0  0  0  0  0  0
   50.2963   11.7978   11.5504 H   0  0  0  0  0  0  0  0  0  0  0  0
   45.6999   12.3417    9.7623 H   0  0  0  0  0  0  0  0  0  0  0  0
   49.9580   12.7872    9.3463 H   0  0  0  0  0  0  0  0  0  0  0  0
   48.4294   13.3612    7.7718 H   0  0  0  0  0  0  0  0  0  0  0  0
   50.5621   11.0614   10.0756 H   0  0  0  0  0  0  0  0  0  0  0  0
   50.8814   12.1866   11.4161 H   0  0  0  0  0  0  0  0  0  0  0  0
   46.9875   12.1249    9.8831 H   0  0  0  0  0  0  0  0  0  0  0  0
   47.8804   13.6414   10.1071 H   0  0  0  0  0  0  0  0  0  0  0  0
   49.9697   10.4184   12.3853 H   0  0  0  0  0  0  0  0  0  0  0  0
   50.3458   14.1291    9.9288 H   0  0  0  0  0  0  0  0  0  0  0  0
   51.6621   13.1660    9.2529 H   0  0  0  0  0  0  0  0  0  0  0  0
   48.6342   11.3894    8.1489 H   0  0  0  0  0  0  0  0  0  0  0  0
   47.9041   12.9329    7.6935 H   0  0  0  0  0  0  0  0  0  0  0  0
   48.1207   11.0739   14.6095 H   0  0  0  0  0  0  0  0  0  0  0  0
   49.6678   10.2115   14.7219 H   0  0  0  0  0  0  0  0  0  0  0  0
   48.6666    8.2903   13.4104 H   0  0  0  0  0  0  0  0  0  0  0  0
   47.1721    9.1642   13.2586 H   0  0  0  0  0  0  0  0  0  0  0  0
   46.8301    9.0779   15.5801 H   0  0  0  0  0  0  0  0  0  0  0  0
   47.9193    7.7323   17.0580 H   0  0  0  0  0  0  0  0  0  0  0  0
   49.0897    8.9145   16.4864 H   0  0  0  0  0  0  0  0  0  0  0  0
   50.0088    7.1860   14.8696 H   0  0  0  0  0  0  0  0  0  0  0  0
   50.8113    5.4531   16.5092 H   0  0  0  0  0  0  0  0  0  0  0  0
   51.1163    7.1595   16.9960 H   0  0  0  0  0  0  0  0  0  0  0  0
   47.7527    6.2312   14.9469 H   0  0  0  0  0  0  0  0  0  0  0  0
   52.3320    5.5826   18.2803 H   0  0  0  0  0  0  0  0  0  0  0  0
   48.5221    5.8024   20.2865 H   0  0  0  0  0  0  0  0  0  0  0  0
   53.3838    4.8353   20.3492 H   0  0  0  0  0  0  0  0  0  0  0  0
   49.6005    5.0427   22.3861 H   0  0  0  0  0  0  0  0  0  0  0  0
   53.0485    4.2865   22.5227 H   0  0  0  0  0  0  0  0  0  0  0  0
   49.1465   10.1823   15.3397 H   0  0  0  0  0  0  0  0  0  0  0  0
   50.0110    7.4313   14.1994 H   0  0  0  0  0  0  0  0  0  0  0  0
   49.9748    8.3205   18.0859 H   0  0  0  0  0  0  0  0  0  0  0  0
   49.1680    9.2889   11.4529 H   0  0  0  0  0  0  0  0  0  0  0  0
  3  7  1  0
  4  8  1  0
  5  9  1  0
  7 10  1  0
  9 11  1  0
 11 12  1  0
 12 13  1  0
 13 14  1  0
 14 15  1  0
 14 16  1  0
 15 17  1  0
 17 18  1  0
 18 19  2  0
 18 20  1  0
 19 21  1  0
 20 22  2  0
 21 23  2  0
 23 24  1  0
  8 10  1  0
 22 23  1  0
  1  2  1  0
  1  3  1  0
  1  4  1  0
  2  5  1  0
  2  6  2  0
 27 31  1  0
 28 32  1  0
 29 33  1  0
 31 34  1  0
 33 35  1  0
 35 36  1  0
 36 37  1  0
 37 38  1  0
 38 39  1  0
 38 40  1  0
 39 41  1  0
 41 42  1  0
 42 43  2  0
 42 44  1  0
 43 45  1  0
 44 46  2  0
 45 47  2  0
 47 48  1  0
 32 34  1  0
 46 47  1  0
 25 26  1  0
 25 27  1  0
 25 28  1  0
 26 29  1  0
 26 30  2  0
 49 50  2  0
 49 54  1  0
 50 51  1  0
 51 52  1  0
 51 53  2  0
 54 55  1  0
 54 56  2  0
  3 57  1  0
  3 58  1  0
  4 59  1  0
  4 60  1  0
  5 61  1  0
  7 62  1  0
  7 63  1  0
  8 64  1  0
  8 65  1  0
  9 66  1  0
  9 67  1  0
 11 68  1  0
 11 69  1  0
 12 70  1  0
 13 71  1  0
 13 72  1  0
 14 73  1  1
 15 74  1  0
 15 75  1  0
 16 76  1  0
 19 77  1  0
 20 78  1  0
 21 79  1  0
 22 80  1  0
 24 81  1  0
 27 82  1  0
 27 83  1  0
 28 84  1  0
 28 85  1  0
 29 86  1  0
 31 87  1  0
 31 88  1  0
 32 89  1  0
 32 90  1  0
 33 91  1  0
 33 92  1  0
 35 93  1  0
 35 94  1  0
 36 95  1  0
 37 96  1  0
 37 97  1  0
 38 98  1  6
 39 99  1  0
 39100  1  0
 40101  1  0
 43102  1  0
 44103  1  0
 45104  1  0
 46105  1  0
 48106  1  0
 49107  1  0
 50108  1  0
 52109  1  0
 55110  1  0
M  END
> <Uni-Dock RESULT> 
ENERGY=   -4.257  LOWER_BOUND=    4.122  UPPER_BOUND=    6.843
INTER + INTRA:          -4.257
INTER:                  -4.257
INTRA:                   0.000
UNBOUND:                 0.000

$$$$
