
     RDKit          3D

110111  0  0  0  0  0  0  0  0999 V2000
   45.1311    5.6218   12.8067 N   0  0  0  0  0  0  0  0  0  0  0  0
   46.4294    5.8372   13.2201 C   0  0  0  0  0  0  0  0  0  0  0  0
   44.5435    4.2950   13.0021 C   0  0  0  0  0  0  0  0  0  0  0  0
   44.3287    6.5505   12.0047 C   0  0  0  0  0  0  0  0  0  0  0  0
   46.8606    7.1321   13.0792 N   0  0  0  0  0  0  0  0  0  0  0  0
   47.1384    4.9460   13.6738 O   0  0  0  0  0  0  0  0  0  0  0  0
   43.0138    4.3700   13.0110 C   0  0  0  0  0  0  0  0  0  0  0  0
   43.3522    5.7937   11.0990 C   0  0  0  0  0  0  0  0  0  0  0  0
   48.1951    7.5173   13.5115 C   0  0  0  0  0  0  0  0  0  0  0  0
   42.4483    4.9468   11.8235 O   0  0  0  0  0  0  0  0  0  0  0  0
   49.3014    7.0038   12.5716 C   0  0  0  0  0  0  0  0  0  0  0  0
   50.6524    7.4581   12.9333 N   0  0  0  0  0  0  0  0  0  0  0  0
   50.8716    8.8820   12.6395 C   0  0  0  0  0  0  0  0  0  0  0  0
   52.3593    9.2620   12.7667 C   0  0  1  0  0  0  0  0  0  0  0  0
   52.9181    9.0037   14.1723 C   0  0  0  0  0  0  0  0  0  0  0  0
   53.1161    8.5149   11.7979 O   0  0  0  0  0  0  0  0  0  0  0  0
   54.2673    9.4883   14.2526 O   0  0  0  0  0  0  0  0  0  0  0  0
   54.4787   10.7502   14.7310 C   0  0  0  0  0  0  0  0  0  0  0  0
   53.5114   11.7433   14.9008 C   0  0  0  0  0  0  0  0  0  0  0  0
   55.8125   11.0351   15.0417 C   0  0  0  0  0  0  0  0  0  0  0  0
   53.8726   13.0041   15.3897 C   0  0  0  0  0  0  0  0  0  0  0  0
   56.1756   12.2891   15.5335 C   0  0  0  0  0  0  0  0  0  0  0  0
   55.2015   13.2638   15.7064 C   0  0  0  0  0  0  0  0  0  0  0  0
   55.5927   14.4751   16.1925 O   0  0  0  0  0  0  0  0  0  0  0  0
   45.8445    5.1992   12.3609 N   0  0  0  0  0  0  0  0  0  0  0  0
   46.6251    5.7435   13.3625 C   0  0  0  0  0  0  0  0  0  0  0  0
   45.1967    5.9621   11.2877 C   0  0  0  0  0  0  0  0  0  0  0  0
   45.3570    3.8246   12.5146 C   0  0  0  0  0  0  0  0  0  0  0  0
   46.9884    7.0517   13.1706 N   0  0  0  0  0  0  0  0  0  0  0  0
   46.9610    5.1184   14.3626 O   0  0  0  0  0  0  0  0  0  0  0  0
   44.4852    5.0446   10.2873 C   0  0  0  0  0  0  0  0  0  0  0  0
   43.8567    3.7464   12.2150 C   0  0  0  0  0  0  0  0  0  0  0  0
   47.8358    7.7349   14.1335 C   0  0  0  0  0  0  0  0  0  0  0  0
   43.5026    4.1981   10.8973 O   0  0  0  0  0  0  0  0  0  0  0  0
   49.3085    7.2783   14.0644 C   0  0  0  0  0  0  0  0  0  0  0  0
   50.2052    7.9314   15.0307 N   0  0  0  0  0  0  0  0  0  0  0  0
   50.4349    9.3534   14.7170 C   0  0  0  0  0  0  0  0  0  0  0  0
   51.6455    9.8886   15.5115 C   0  0  1  0  0  0  0  0  0  0  0  0
   51.8111   11.4030   15.3353 C   0  0  0  0  0  0  0  0  0  0  0  0
   51.4823    9.5915   16.9043 O   0  0  0  0  0  0  0  0  0  0  0  0
   52.0639   11.7578   13.9745 O   0  0  0  0  0  0  0  0  0  0  0  0
   53.3572   11.7543   13.5299 C   0  0  0  0  0  0  0  0  0  0  0  0
   54.4829   11.3639   14.2591 C   0  0  0  0  0  0  0  0  0  0  0  0
   53.5180   12.1860   12.2091 C   0  0  0  0  0  0  0  0  0  0  0  0
   55.7550   11.4128   13.6758 C   0  0  0  0  0  0  0  0  0  0  0  0
   54.7844   12.2338   11.6232 C   0  0  0  0  0  0  0  0  0  0  0  0
   55.8941   11.8500   12.3632 C   0  0  0  0  0  0  0  0  0  0  0  0
   57.1149   11.9183   11.7606 O   0  0  0  0  0  0  0  0  0  0  0  0
   50.1551    8.7686   13.0743 C   0  0  0  0  0  0  0  0  0  0  0  0
   49.1414    8.0120   13.5145 C   0  0  0  0  0  0  0  0  0  0  0  0
   48.0168    7.7401   12.6167 C   0  0  0  0  0  0  0  0  0  0  0  0
   47.1093    6.9677   13.2324 O   0  0  0  0  0  0  0  0  0  0  0  0
   47.8764    8.1270   11.4732 O   0  0  0  0  0  0  0  0  0  0  0  0
   51.3280    9.0887   13.8919 C   0  0  0  0  0  0  0  0  0  0  0  0
   51.2927    8.5543   15.1222 O   0  0  0  0  0  0  0  0  0  0  0  0
   52.2628    9.7729   13.5175 O   0  0  0  0  0  0  0  0  0  0  0  0
   44.9096    3.8577   13.9367 H   0  0  0  0  0  0  0  0  0  0  0  0
   44.8917    3.6667   12.1730 H   0  0  0  0  0  0  0  0  0  0  0  0
   44.9788    7.1914   11.4019 H   0  0  0  0  0  0  0  0  0  0  0  0
   43.7763    7.1768   12.7141 H   0  0  0  0  0  0  0  0  0  0  0  0
   46.1385    7.8144   13.2480 H   0  0  0  0  0  0  0  0  0  0  0  0
   42.6739    4.9774   13.8582 H   0  0  0  0  0  0  0  0  0  0  0  0
   42.5831    3.3707   13.1285 H   0  0  0  0  0  0  0  0  0  0  0  0
   42.7503    6.5005   10.5180 H   0  0  0  0  0  0  0  0  0  0  0  0
   43.8996    5.1665   10.3845 H   0  0  0  0  0  0  0  0  0  0  0  0
   48.3543    7.1499   14.5317 H   0  0  0  0  0  0  0  0  0  0  0  0
   48.1943    8.6118   13.5403 H   0  0  0  0  0  0  0  0  0  0  0  0
   49.3078    5.9083   12.5976 H   0  0  0  0  0  0  0  0  0  0  0  0
   49.0733    7.2769   11.5333 H   0  0  0  0  0  0  0  0  0  0  0  0
   51.3264    6.9344   12.3633 H   0  0  0  0  0  0  0  0  0  0  0  0
   50.2842    9.5046   13.3223 H   0  0  0  0  0  0  0  0  0  0  0  0
   50.5535    9.0938   11.6110 H   0  0  0  0  0  0  0  0  0  0  0  0
   52.4792   10.3169   12.4973 H   0  0  0  0  0  0  0  0  0  0  0  0
   52.2840    9.4080   14.9689 H   0  0  0  0  0  0  0  0  0  0  0  0
   52.9915    7.9245   14.3452 H   0  0  0  0  0  0  0  0  0  0  0  0
   54.0546    8.6633   12.0237 H   0  0  0  0  0  0  0  0  0  0  0  0
   52.4689   11.5772   14.6546 H   0  0  0  0  0  0  0  0  0  0  0  0
   56.5744   10.2710   14.9084 H   0  0  0  0  0  0  0  0  0  0  0  0
   53.1073   13.7650   15.5135 H   0  0  0  0  0  0  0  0  0  0  0  0
   57.2132   12.5009   15.7792 H   0  0  0  0  0  0  0  0  0  0  0  0
   54.8169   15.0554   16.2564 H   0  0  0  0  0  0  0  0  0  0  0  0
   45.9416    6.5679   10.7646 H   0  0  0  0  0  0  0  0  0  0  0  0
   44.4723    6.6336   11.7650 H   0  0  0  0  0  0  0  0  0  0  0  0
   45.5622    3.4327   13.5146 H   0  0  0  0  0  0  0  0  0  0  0  0
   45.9162    3.2178   11.7932 H   0  0  0  0  0  0  0  0  0  0  0  0
   47.0770    7.3559   12.2156 H   0  0  0  0  0  0  0  0  0  0  0  0
   45.2088    4.4018    9.7711 H   0  0  0  0  0  0  0  0  0  0  0  0
   43.9768    5.6425    9.5234 H   0  0  0  0  0  0  0  0  0  0  0  0
   43.5032    2.7149   12.3138 H   0  0  0  0  0  0  0  0  0  0  0  0
   43.2941    4.3592   12.9302 H   0  0  0  0  0  0  0  0  0  0  0  0
   47.7494    8.8048   13.9134 H   0  0  0  0  0  0  0  0  0  0  0  0
   47.4325    7.5597   15.1384 H   0  0  0  0  0  0  0  0  0  0  0  0
   49.6934    7.4087   13.0454 H   0  0  0  0  0  0  0  0  0  0  0  0
   49.3610    6.2009   14.2610 H   0  0  0  0  0  0  0  0  0  0  0  0
   49.7758    7.8620   15.9556 H   0  0  0  0  0  0  0  0  0  0  0  0
   50.6211    9.4903   13.6451 H   0  0  0  0  0  0  0  0  0  0  0  0
   49.5372    9.9212   14.9857 H   0  0  0  0  0  0  0  0  0  0  0  0
   52.5489    9.3692   15.1707 H   0  0  0  0  0  0  0  0  0  0  0  0
   52.5551   11.8236   16.0230 H   0  0  0  0  0  0  0  0  0  0  0  0
   50.8744   11.8979   15.6235 H   0  0  0  0  0  0  0  0  0  0  0  0
   51.4567    8.6165   16.9454 H   0  0  0  0  0  0  0  0  0  0  0  0
   54.4123   11.0124   15.2828 H   0  0  0  0  0  0  0  0  0  0  0  0
   52.6502   12.4919   11.6312 H   0  0  0  0  0  0  0  0  0  0  0  0
   56.6171   11.1072   14.2607 H   0  0  0  0  0  0  0  0  0  0  0  0
   54.9022   12.5696   10.5974 H   0  0  0  0  0  0  0  0  0  0  0  0
   57.7980   11.6876   12.4127 H   0  0  0  0  0  0  0  0  0  0  0  0
   50.1662    9.1899   12.0741 H   0  0  0  0  0  0  0  0  0  0  0  0
   49.1089    7.5798   14.5065 H   0  0  0  0  0  0  0  0  0  0  0  0
   46.4108    6.8368   12.5567 H   0  0  0  0  0  0  0  0  0  0  0  0
   52.1326    8.8531   15.5308 H   0  0  0  0  0  0  0  0  0  0  0  0
  3  7  1  0
  4  8  1  0
  5  9  1  0
  7 10  1  0
  9 11  1  0
 11 12  1  0
 12 13  1  0
 13 14  1  0
 14 15  1  0
 14 16  1  0
 15 17  1  0
 17 18  1  0
 18 19  2  0
 18 20  1  0
 19 21  1  0
 20 22  2  0
 21 23  2  0
 23 24  1  0
  8 10  1  0
 22 23  1  0
  1  2  1  0
  1  3  1  0
  1  4  1  0
  2  5  1  0
  2  6  2  0
 27 31  1  0
 28 32  1  0
 29 33  1  0
 31 34  1  0
 33 35  1  0
 35 36  1  0
 36 37  1  0
 37 38  1  0
 38 39  1  0
 38 40  1  0
 39 41  1  0
 41 42  1  0
 42 43  2  0
 42 44  1  0
 43 45  1  0
 44 46  2  0
 45 47  2  0
 47 48  1  0
 32 34  1  0
 46 47  1  0
 25 26  1  0
 25 27  1  0
 25 28  1  0
 26 29  1  0
 26 30  2  0
 49 50  2  0
 49 54  1  0
 50 51  1  0
 51 52  1  0
 51 53  2  0
 54 55  1  0
 54 56  2  0
  3 57  1  0
  3 58  1  0
  4 59  1  0
  4 60  1  0
  5 61  1  0
  7 62  1  0
  7 63  1  0
  8 64  1  0
  8 65  1  0
  9 66  1  0
  9 67  1  0
 11 68  1  0
 11 69  1  0
 12 70  1  0
 13 71  1  0
 13 72  1  0
 14 73  1  1
 15 74  1  0
 15 75  1  0
 16 76  1  0
 19 77  1  0
 20 78  1  0
 21 79  1  0
 22 80  1  0
 24 81  1  0
 27 82  1  0
 27 83  1  0
 28 84  1  0
 28 85  1  0
 29 86  1  0
 31 87  1  0
 31 88  1  0
 32 89  1  0
 32 90  1  0
 33 91  1  0
 33 92  1  0
 35 93  1  0
 35 94  1  0
 36 95  1  0
 37 96  1  0
 37 97  1  0
 38 98  1  1
 39 99  1  0
 39100  1  0
 40101  1  0
 43102  1  0
 44103  1  0
 45104  1  0
 46105  1  0
 48106  1  0
 49107  1  0
 50108  1  0
 52109  1  0
 55110  1  0
M  END
> <Uni-Dock RESULT> 
ENERGY=   -5.308  LOWER_BOUND=    0.000  UPPER_BOUND=    0.000
INTER + INTRA:          -5.308
INTER:                  -5.308
INTRA:                   0.000
UNBOUND:                 0.000

$$$$

     RDKit          3D

110111  0  0  0  0  0  0  0  0999 V2000
   45.5085    5.2917   11.8061 N   0  0  0  0  0  0  0  0  0  0  0  0
   46.3423    6.2905   12.2644 C   0  0  0  0  0  0  0  0  0  0  0  0
   44.4018    5.6538   10.9184 C   0  0  0  0  0  0  0  0  0  0  0  0
   45.5047    3.9036   12.2780 C   0  0  0  0  0  0  0  0  0  0  0  0
   47.4011    5.8440   13.0141 N   0  0  0  0  0  0  0  0  0  0  0  0
   46.1520    7.4773   12.0230 O   0  0  0  0  0  0  0  0  0  0  0  0
   43.9424    4.4461   10.0961 C   0  0  0  0  0  0  0  0  0  0  0  0
   44.0974    3.3026   12.2093 C   0  0  0  0  0  0  0  0  0  0  0  0
   48.3874    6.7805   13.5305 C   0  0  0  0  0  0  0  0  0  0  0  0
   43.5392    3.3174   10.8874 O   0  0  0  0  0  0  0  0  0  0  0  0
   47.8573    7.6217   14.7063 C   0  0  0  0  0  0  0  0  0  0  0  0
   48.8632    8.5096   15.3081 N   0  0  0  0  0  0  0  0  0  0  0  0
   49.8645    7.7806   16.1004 C   0  0  0  0  0  0  0  0  0  0  0  0
   50.7318    8.7416   16.9359 C   0  0  1  0  0  0  0  0  0  0  0  0
   51.4953    9.7534   16.0712 C   0  0  0  0  0  0  0  0  0  0  0  0
   49.8882    9.4389   17.8696 O   0  0  0  0  0  0  0  0  0  0  0  0
   52.3696   10.5349   16.8998 O   0  0  0  0  0  0  0  0  0  0  0  0
   53.6675   10.1327   17.0381 C   0  0  0  0  0  0  0  0  0  0  0  0
   54.1894    8.8860   16.6857 C   0  0  0  0  0  0  0  0  0  0  0  0
   54.5103   11.0873   17.6173 C   0  0  0  0  0  0  0  0  0  0  0  0
   55.5434    8.6021   16.8978 C   0  0  0  0  0  0  0  0  0  0  0  0
   55.8615   10.8096   17.8259 C   0  0  0  0  0  0  0  0  0  0  0  0
   56.3685    9.5691   17.4616 C   0  0  0  0  0  0  0  0  0  0  0  0
   57.6935    9.3352   17.6769 O   0  0  0  0  0  0  0  0  0  0  0  0
   45.1846    5.9359   12.4113 N   0  0  0  0  0  0  0  0  0  0  0  0
   46.4155    6.5374   12.2320 C   0  0  0  0  0  0  0  0  0  0  0  0
   44.9583    4.6749   13.1268 C   0  0  0  0  0  0  0  0  0  0  0  0
   44.0527    6.3885   11.5960 C   0  0  0  0  0  0  0  0  0  0  0  0
   47.4334    6.0156   12.9881 N   0  0  0  0  0  0  0  0  0  0  0  0
   46.6006    7.4596   11.4452 O   0  0  0  0  0  0  0  0  0  0  0  0
   43.4667    4.3375   13.2267 C   0  0  0  0  0  0  0  0  0  0  0  0
   43.3172    5.1935   10.9814 C   0  0  0  0  0  0  0  0  0  0  0  0
   48.7719    6.5774   12.9187 C   0  0  0  0  0  0  0  0  0  0  0  0
   42.8194    4.2561   11.9506 O   0  0  0  0  0  0  0  0  0  0  0  0
   48.8874    7.9384   13.6374 C   0  0  0  0  0  0  0  0  0  0  0  0
   50.2216    8.5560   13.5831 N   0  0  0  0  0  0  0  0  0  0  0  0
   51.2141    7.8298   14.3960 C   0  0  0  0  0  0  0  0  0  0  0  0
   52.4711    8.7001   14.6102 C   0  0  1  0  0  0  0  0  0  0  0  0
   53.5877    7.9158   15.3102 C   0  0  0  0  0  0  0  0  0  0  0  0
   52.9518    9.1785   13.3474 O   0  0  0  0  0  0  0  0  0  0  0  0
   53.1992    7.4831   16.6153 O   0  0  0  0  0  0  0  0  0  0  0  0
   53.3939    8.3337   17.6684 C   0  0  0  0  0  0  0  0  0  0  0  0
   53.8792    9.6417   17.5980 C   0  0  0  0  0  0  0  0  0  0  0  0
   53.0546    7.7998   18.9160 C   0  0  0  0  0  0  0  0  0  0  0  0
   54.0306   10.4032   18.7633 C   0  0  0  0  0  0  0  0  0  0  0  0
   53.2018    8.5568   20.0799 C   0  0  0  0  0  0  0  0  0  0  0  0
   53.6927    9.8523   19.9944 C   0  0  0  0  0  0  0  0  0  0  0  0
   53.8309   10.5575   21.1527 O   0  0  0  0  0  0  0  0  0  0  0  0
   49.7719    7.4334   15.3348 C   0  0  0  0  0  0  0  0  0  0  0  0
   49.0895    7.2245   14.2013 C   0  0  0  0  0  0  0  0  0  0  0  0
   48.0063    6.2388   14.1965 C   0  0  0  0  0  0  0  0  0  0  0  0
   47.4443    6.1746   12.9803 O   0  0  0  0  0  0  0  0  0  0  0  0
   47.6274    5.5557   15.1275 O   0  0  0  0  0  0  0  0  0  0  0  0
   50.8643    8.4036   15.4433 C   0  0  0  0  0  0  0  0  0  0  0  0
   51.1183    9.0630   14.3027 O   0  0  0  0  0  0  0  0  0  0  0  0
   51.5005    8.6138   16.4598 O   0  0  0  0  0  0  0  0  0  0  0  0
   44.7048    6.4725   10.2575 H   0  0  0  0  0  0  0  0  0  0  0  0
   43.5863    6.0157   11.5566 H   0  0  0  0  0  0  0  0  0  0  0  0
   45.8856    3.8496   13.3022 H   0  0  0  0  0  0  0  0  0  0  0  0
   46.1835    3.3496   11.6201 H   0  0  0  0  0  0  0  0  0  0  0  0
   47.7686    4.9599   12.7000 H   0  0  0  0  0  0  0  0  0  0  0  0
   44.7546    4.1081    9.4419 H   0  0  0  0  0  0  0  0  0  0  0  0
   43.0966    4.7187    9.4570 H   0  0  0  0  0  0  0  0  0  0  0  0
   44.1136    2.2622   12.5505 H   0  0  0  0  0  0  0  0  0  0  0  0
   43.4134    3.8518   12.8682 H   0  0  0  0  0  0  0  0  0  0  0  0
   48.7201    7.4283   12.7116 H   0  0  0  0  0  0  0  0  0  0  0  0
   49.2388    6.1703   13.8491 H   0  0  0  0  0  0  0  0  0  0  0  0
   47.0370    8.2538   14.3479 H   0  0  0  0  0  0  0  0  0  0  0  0
   47.4191    6.9688   15.4720 H   0  0  0  0  0  0  0  0  0  0  0  0
   48.3806    9.1421   15.9566 H   0  0  0  0  0  0  0  0  0  0  0  0
   50.5139    7.1936   15.4427 H   0  0  0  0  0  0  0  0  0  0  0  0
   49.3541    7.0966   16.7901 H   0  0  0  0  0  0  0  0  0  0  0  0
   51.4307    8.1529   17.5398 H   0  0  0  0  0  0  0  0  0  0  0  0
   52.0244    9.2897   15.2314 H   0  0  0  0  0  0  0  0  0  0  0  0
   50.7908   10.4733   15.6406 H   0  0  0  0  0  0  0  0  0  0  0  0
   50.4454   10.1423   18.2553 H   0  0  0  0  0  0  0  0  0  0  0  0
   53.5721    8.1068   16.2533 H   0  0  0  0  0  0  0  0  0  0  0  0
   54.1134   12.0592   17.9001 H   0  0  0  0  0  0  0  0  0  0  0  0
   55.9315    7.6265   16.6194 H   0  0  0  0  0  0  0  0  0  0  0  0
   56.5117   11.5590   18.2702 H   0  0  0  0  0  0  0  0  0  0  0  0
   57.9072    8.4348   17.3828 H   0  0  0  0  0  0  0  0  0  0  0  0
   45.3884    4.7379   14.1301 H   0  0  0  0  0  0  0  0  0  0  0  0
   45.4857    3.8914   12.5687 H   0  0  0  0  0  0  0  0  0  0  0  0
   44.3714    7.0791   10.8104 H   0  0  0  0  0  0  0  0  0  0  0  0
   43.3846    6.9329   12.2731 H   0  0  0  0  0  0  0  0  0  0  0  0
   47.1726    5.6130   13.8726 H   0  0  0  0  0  0  0  0  0  0  0  0
   42.9395    5.0920   13.8235 H   0  0  0  0  0  0  0  0  0  0  0  0
   43.3313    3.3727   13.7272 H   0  0  0  0  0  0  0  0  0  0  0  0
   42.4629    5.5373   10.3892 H   0  0  0  0  0  0  0  0  0  0  0  0
   43.9854    4.6410   10.3092 H   0  0  0  0  0  0  0  0  0  0  0  0
   49.4390    5.8381   13.3759 H   0  0  0  0  0  0  0  0  0  0  0  0
   49.0512    6.6824   11.8632 H   0  0  0  0  0  0  0  0  0  0  0  0
   48.5598    7.8403   14.6799 H   0  0  0  0  0  0  0  0  0  0  0  0
   48.1901    8.6488   13.1777 H   0  0  0  0  0  0  0  0  0  0  0  0
   50.5290    8.5563   12.6083 H   0  0  0  0  0  0  0  0  0  0  0  0
   50.7948    7.5598   15.3725 H   0  0  0  0  0  0  0  0  0  0  0  0
   51.4890    6.9075   13.8724 H   0  0  0  0  0  0  0  0  0  0  0  0
   52.1957    9.5769   15.2080 H   0  0  0  0  0  0  0  0  0  0  0  0
   54.5396    8.4610   15.3157 H   0  0  0  0  0  0  0  0  0  0  0  0
   53.8043    7.0108   14.7273 H   0  0  0  0  0  0  0  0  0  0  0  0
   52.2209    9.7228   12.9974 H   0  0  0  0  0  0  0  0  0  0  0  0
   54.1476   10.1063   16.6553 H   0  0  0  0  0  0  0  0  0  0  0  0
   52.6757    6.7838   18.9840 H   0  0  0  0  0  0  0  0  0  0  0  0
   54.4117   11.4169   18.6870 H   0  0  0  0  0  0  0  0  0  0  0  0
   52.9363    8.1365   21.0452 H   0  0  0  0  0  0  0  0  0  0  0  0
   54.2450   11.4132   20.9494 H   0  0  0  0  0  0  0  0  0  0  0  0
   49.5493    6.8913   16.2484 H   0  0  0  0  0  0  0  0  0  0  0  0
   49.2919    7.7538   13.2791 H   0  0  0  0  0  0  0  0  0  0  0  0
   46.7359    5.5042   13.0807 H   0  0  0  0  0  0  0  0  0  0  0  0
   51.8569    9.6632   14.5394 H   0  0  0  0  0  0  0  0  0  0  0  0
  3  7  1  0
  4  8  1  0
  5  9  1  0
  7 10  1  0
  9 11  1  0
 11 12  1  0
 12 13  1  0
 13 14  1  0
 14 15  1  0
 14 16  1  0
 15 17  1  0
 17 18  1  0
 18 19  2  0
 18 20  1  0
 19 21  1  0
 20 22  2  0
 21 23  2  0
 23 24  1  0
  8 10  1  0
 22 23  1  0
  1  2  1  0
  1  3  1  0
  1  4  1  0
  2  5  1  0
  2  6  2  0
 27 31  1  0
 28 32  1  0
 29 33  1  0
 31 34  1  0
 33 35  1  0
 35 36  1  0
 36 37  1  0
 37 38  1  0
 38 39  1  0
 38 40  1  0
 39 41  1  0
 41 42  1  0
 42 43  2  0
 42 44  1  0
 43 45  1  0
 44 46  2  0
 45 47  2  0
 47 48  1  0
 32 34  1  0
 46 47  1  0
 25 26  1  0
 25 27  1  0
 25 28  1  0
 26 29  1  0
 26 30  2  0
 49 50  2  0
 49 54  1  0
 50 51  1  0
 51 52  1  0
 51 53  2  0
 54 55  1  0
 54 56  2  0
  3 57  1  0
  3 58  1  0
  4 59  1  0
  4 60  1  0
  5 61  1  0
  7 62  1  0
  7 63  1  0
  8 64  1  0
  8 65  1  0
  9 66  1  0
  9 67  1  0
 11 68  1  0
 11 69  1  0
 12 70  1  0
 13 71  1  0
 13 72  1  0
 14 73  1  1
 15 74  1  0
 15 75  1  0
 16 76  1  0
 19 77  1  0
 20 78  1  0
 21 79  1  0
 22 80  1  0
 24 81  1  0
 27 82  1  0
 27 83  1  0
 28 84  1  0
 28 85  1  0
 29 86  1  0
 31 87  1  0
 31 88  1  0
 32 89  1  0
 32 90  1  0
 33 91  1  0
 33 92  1  0
 35 93  1  0
 35 94  1  0
 36 95  1  0
 37 96  1  0
 37 97  1  0
 38 98  1  1
 39 99  1  0
 39100  1  0
 40101  1  0
 43102  1  0
 44103  1  0
 45104  1  0
 46105  1  0
 48106  1  0
 49107  1  0
 50108  1  0
 52109  1  0
 55110  1  0
M  END
> <Uni-Dock RESULT> 
ENERGY=   -5.277  LOWER_BOUND=    2.198  UPPER_BOUND=    3.869
INTER + INTRA:          -5.277
INTER:                  -5.277
INTRA:                   0.000
UNBOUND:                 0.000

$$$$

     RDKit          3D

110111  0  0  0  0  0  0  0  0999 V2000
   53.9784    1.4954   17.5030 N   0  0  0  0  0  0  0  0  0  0  0  0
   52.8436    2.2030   17.8412 C   0  0  0  0  0  0  0  0  0  0  0  0
   53.8802    0.0424   17.3519 C   0  0  0  0  0  0  0  0  0  0  0  0
   55.3395    2.0388   17.4641 C   0  0  0  0  0  0  0  0  0  0  0  0
   53.0133    3.5642   17.8702 N   0  0  0  0  0  0  0  0  0  0  0  0
   51.7740    1.6607   18.0956 O   0  0  0  0  0  0  0  0  0  0  0  0
   55.0174   -0.4949   16.4779 C   0  0  0  0  0  0  0  0  0  0  0  0
   56.3709    0.9670   17.8300 C   0  0  0  0  0  0  0  0  0  0  0  0
   51.8928    4.4419   18.1711 C   0  0  0  0  0  0  0  0  0  0  0  0
   56.3308   -0.1766   16.9641 O   0  0  0  0  0  0  0  0  0  0  0  0
   51.4959    4.4189   19.6588 C   0  0  0  0  0  0  0  0  0  0  0  0
   50.4277    5.3673   20.0077 N   0  0  0  0  0  0  0  0  0  0  0  0
   50.8852    6.7647   20.0085 C   0  0  0  0  0  0  0  0  0  0  0  0
   49.8365    7.7015   20.6380 C   0  0  1  0  0  0  0  0  0  0  0  0
   48.4937    7.6706   19.8959 C   0  0  0  0  0  0  0  0  0  0  0  0
   49.6408    7.3259   22.0128 O   0  0  0  0  0  0  0  0  0  0  0  0
   47.6071    8.6491   20.4598 O   0  0  0  0  0  0  0  0  0  0  0  0
   47.5512    9.8862   19.8833 C   0  0  0  0  0  0  0  0  0  0  0  0
   48.4624   10.4130   18.9651 C   0  0  0  0  0  0  0  0  0  0  0  0
   46.4743   10.6728   20.3054 C   0  0  0  0  0  0  0  0  0  0  0  0
   48.2901   11.7083   18.4638 C   0  0  0  0  0  0  0  0  0  0  0  0
   46.2967   11.9627   19.8044 C   0  0  0  0  0  0  0  0  0  0  0  0
   47.2052   12.4698   18.8845 C   0  0  0  0  0  0  0  0  0  0  0  0
   46.9975   13.7317   18.4143 O   0  0  0  0  0  0  0  0  0  0  0  0
   53.5968    1.3948   18.3578 N   0  0  0  0  0  0  0  0  0  0  0  0
   52.5849    2.1930   17.8599 C   0  0  0  0  0  0  0  0  0  0  0  0
   54.9584    1.8502   18.6611 C   0  0  0  0  0  0  0  0  0  0  0  0
   53.4359   -0.0620   18.3072 C   0  0  0  0  0  0  0  0  0  0  0  0
   52.8394    3.5401   17.8885 N   0  0  0  0  0  0  0  0  0  0  0  0
   51.5385    1.7413   17.4074 O   0  0  0  0  0  0  0  0  0  0  0  0
   55.8038    0.7368   19.2892 C   0  0  0  0  0  0  0  0  0  0  0  0
   54.6917   -0.7249   17.7326 C   0  0  0  0  0  0  0  0  0  0  0  0
   51.8450    4.4927   17.4238 C   0  0  0  0  0  0  0  0  0  0  0  0
   55.8910   -0.4362   18.4703 O   0  0  0  0  0  0  0  0  0  0  0  0
   50.6684    4.6575   18.4089 C   0  0  0  0  0  0  0  0  0  0  0  0
   49.6265    5.6020   17.9764 N   0  0  0  0  0  0  0  0  0  0  0  0
   50.0880    7.0019   17.9994 C   0  0  0  0  0  0  0  0  0  0  0  0
   48.8844    7.9643   17.9066 C   0  0  1  0  0  0  0  0  0  0  0  0
   49.3376    9.4222   17.7619 C   0  0  0  0  0  0  0  0  0  0  0  0
   48.0658    7.6118   16.7840 O   0  0  0  0  0  0  0  0  0  0  0  0
   50.0889    9.8628   18.8945 O   0  0  0  0  0  0  0  0  0  0  0  0
   49.4116   10.3768   19.9657 C   0  0  0  0  0  0  0  0  0  0  0  0
   48.0242   10.4564   20.1079 C   0  0  0  0  0  0  0  0  0  0  0  0
   50.2298   10.8512   20.9964 C   0  0  0  0  0  0  0  0  0  0  0  0
   47.4628   11.0116   21.2643 C   0  0  0  0  0  0  0  0  0  0  0  0
   49.6738   11.4031   22.1521 C   0  0  0  0  0  0  0  0  0  0  0  0
   48.2935   11.4823   22.2751 C   0  0  0  0  0  0  0  0  0  0  0  0
   47.7874   12.0352   23.4137 O   0  0  0  0  0  0  0  0  0  0  0  0
   51.1103    6.3720   19.2941 C   0  0  0  0  0  0  0  0  0  0  0  0
   51.3512    5.2709   18.5705 C   0  0  0  0  0  0  0  0  0  0  0  0
   52.6358    4.5855   18.7275 C   0  0  0  0  0  0  0  0  0  0  0  0
   52.6875    3.5102   17.9273 O   0  0  0  0  0  0  0  0  0  0  0  0
   53.5527    4.8975   19.4615 O   0  0  0  0  0  0  0  0  0  0  0  0
   49.8540    7.1217   19.2157 C   0  0  0  0  0  0  0  0  0  0  0  0
   48.9673    6.6037   18.3520 O   0  0  0  0  0  0  0  0  0  0  0  0
   49.6085    8.1242   19.8613 O   0  0  0  0  0  0  0  0  0  0  0  0
   52.9094   -0.2243   16.9215 H   0  0  0  0  0  0  0  0  0  0  0  0
   53.9352   -0.3876   18.3596 H   0  0  0  0  0  0  0  0  0  0  0  0
   55.4278    2.8913   18.1440 H   0  0  0  0  0  0  0  0  0  0  0  0
   55.5060    2.3873   16.4387 H   0  0  0  0  0  0  0  0  0  0  0  0
   53.6497    3.9028   17.1661 H   0  0  0  0  0  0  0  0  0  0  0  0
   54.9388   -0.0811   15.4657 H   0  0  0  0  0  0  0  0  0  0  0  0
   54.9528   -1.5843   16.3942 H   0  0  0  0  0  0  0  0  0  0  0  0
   57.3825    1.3837   17.7819 H   0  0  0  0  0  0  0  0  0  0  0  0
   56.2110    0.6157   18.8569 H   0  0  0  0  0  0  0  0  0  0  0  0
   51.0431    4.1566   17.5405 H   0  0  0  0  0  0  0  0  0  0  0  0
   52.2137    5.4461   17.8757 H   0  0  0  0  0  0  0  0  0  0  0  0
   51.1373    3.4154   19.9140 H   0  0  0  0  0  0  0  0  0  0  0  0
   52.3780    4.5905   20.2889 H   0  0  0  0  0  0  0  0  0  0  0  0
   50.1191    5.1597   20.9644 H   0  0  0  0  0  0  0  0  0  0  0  0
   51.0923    7.0961   18.9858 H   0  0  0  0  0  0  0  0  0  0  0  0
   51.8083    6.8442   20.5963 H   0  0  0  0  0  0  0  0  0  0  0  0
   50.2380    8.7205   20.6562 H   0  0  0  0  0  0  0  0  0  0  0  0
   48.5985    7.7818   18.8110 H   0  0  0  0  0  0  0  0  0  0  0  0
   48.0019    6.7069   20.0676 H   0  0  0  0  0  0  0  0  0  0  0  0
   48.8625    7.8315   22.3170 H   0  0  0  0  0  0  0  0  0  0  0  0
   49.3237    9.8502   18.6238 H   0  0  0  0  0  0  0  0  0  0  0  0
   45.7619   10.2746   21.0238 H   0  0  0  0  0  0  0  0  0  0  0  0
   49.0097   12.1024   17.7518 H   0  0  0  0  0  0  0  0  0  0  0  0
   45.4534   12.5656   20.1320 H   0  0  0  0  0  0  0  0  0  0  0  0
   47.7054   13.9564   17.7890 H   0  0  0  0  0  0  0  0  0  0  0  0
   54.9181    2.7072   19.3390 H   0  0  0  0  0  0  0  0  0  0  0  0
   55.4058    2.1746   17.7134 H   0  0  0  0  0  0  0  0  0  0  0  0
   52.5572   -0.3513   17.7242 H   0  0  0  0  0  0  0  0  0  0  0  0
   53.2778   -0.3898   19.3410 H   0  0  0  0  0  0  0  0  0  0  0  0
   53.4487    3.8648   18.6204 H   0  0  0  0  0  0  0  0  0  0  0  0
   55.3895    0.4389   20.2602 H   0  0  0  0  0  0  0  0  0  0  0  0
   56.8246    1.0926   19.4653 H   0  0  0  0  0  0  0  0  0  0  0  0
   54.5721   -1.8131   17.7146 H   0  0  0  0  0  0  0  0  0  0  0  0
   54.8581   -0.3929   16.7002 H   0  0  0  0  0  0  0  0  0  0  0  0
   52.3722    5.4430   17.2847 H   0  0  0  0  0  0  0  0  0  0  0  0
   51.4755    4.1611   16.4457 H   0  0  0  0  0  0  0  0  0  0  0  0
   51.0461    4.9408   19.3992 H   0  0  0  0  0  0  0  0  0  0  0  0
   50.1780    3.6871   18.5498 H   0  0  0  0  0  0  0  0  0  0  0  0
   49.3574    5.3582   17.0210 H   0  0  0  0  0  0  0  0  0  0  0  0
   50.6452    7.2130   18.9198 H   0  0  0  0  0  0  0  0  0  0  0  0
   50.7568    7.1647   17.1469 H   0  0  0  0  0  0  0  0  0  0  0  0
   48.2700    7.8490   18.8074 H   0  0  0  0  0  0  0  0  0  0  0  0
   48.5051   10.0957   17.5237 H   0  0  0  0  0  0  0  0  0  0  0  0
   50.0007    9.5024   16.8905 H   0  0  0  0  0  0  0  0  0  0  0  0
   47.7587    6.7061   16.9795 H   0  0  0  0  0  0  0  0  0  0  0  0
   47.3454   10.0946   19.3431 H   0  0  0  0  0  0  0  0  0  0  0  0
   51.3104   10.7945   20.8980 H   0  0  0  0  0  0  0  0  0  0  0  0
   46.3823   11.0663   21.3539 H   0  0  0  0  0  0  0  0  0  0  0  0
   50.3145   11.7691   22.9485 H   0  0  0  0  0  0  0  0  0  0  0  0
   46.8201   12.0870   23.3320 H   0  0  0  0  0  0  0  0  0  0  0  0
   51.8400    6.7740   19.9899 H   0  0  0  0  0  0  0  0  0  0  0  0
   50.6388    4.8505   17.8722 H   0  0  0  0  0  0  0  0  0  0  0  0
   53.5688    3.1205   18.1091 H   0  0  0  0  0  0  0  0  0  0  0  0
   48.1966    7.2064   18.4189 H   0  0  0  0  0  0  0  0  0  0  0  0
  3  7  1  0
  4  8  1  0
  5  9  1  0
  7 10  1  0
  9 11  1  0
 11 12  1  0
 12 13  1  0
 13 14  1  0
 14 15  1  0
 14 16  1  0
 15 17  1  0
 17 18  1  0
 18 19  2  0
 18 20  1  0
 19 21  1  0
 20 22  2  0
 21 23  2  0
 23 24  1  0
  8 10  1  0
 22 23  1  0
  1  2  1  0
  1  3  1  0
  1  4  1  0
  2  5  1  0
  2  6  2  0
 27 31  1  0
 28 32  1  0
 29 33  1  0
 31 34  1  0
 33 35  1  0
 35 36  1  0
 36 37  1  0
 37 38  1  0
 38 39  1  0
 38 40  1  0
 39 41  1  0
 41 42  1  0
 42 43  2  0
 42 44  1  0
 43 45  1  0
 44 46  2  0
 45 47  2  0
 47 48  1  0
 32 34  1  0
 46 47  1  0
 25 26  1  0
 25 27  1  0
 25 28  1  0
 26 29  1  0
 26 30  2  0
 49 50  2  0
 49 54  1  0
 50 51  1  0
 51 52  1  0
 51 53  2  0
 54 55  1  0
 54 56  2  0
  3 57  1  0
  3 58  1  0
  4 59  1  0
  4 60  1  0
  5 61  1  0
  7 62  1  0
  7 63  1  0
  8 64  1  0
  8 65  1  0
  9 66  1  0
  9 67  1  0
 11 68  1  0
 11 69  1  0
 12 70  1  0
 13 71  1  0
 13 72  1  0
 14 73  1  1
 15 74  1  0
 15 75  1  0
 16 76  1  0
 19 77  1  0
 20 78  1  0
 21 79  1  0
 22 80  1  0
 24 81  1  0
 27 82  1  0
 27 83  1  0
 28 84  1  0
 28 85  1  0
 29 86  1  0
 31 87  1  0
 31 88  1  0
 32 89  1  0
 32 90  1  0
 33 91  1  0
 33 92  1  0
 35 93  1  0
 35 94  1  0
 36 95  1  0
 37 96  1  0
 37 97  1  0
 38 98  1  1
 39 99  1  0
 39100  1  0
 40101  1  0
 43102  1  0
 44103  1  0
 45104  1  0
 46105  1  0
 48106  1  0
 49107  1  0
 50108  1  0
 52109  1  0
 55110  1  0
M  END
> <Uni-Dock RESULT> 
ENERGY=   -5.252  LOWER_BOUND=    6.689  UPPER_BOUND=    9.487
INTER + INTRA:          -5.252
INTER:                  -5.252
INTRA:                   0.000
UNBOUND:                 0.000

$$$$

     RDKit          3D

110111  0  0  0  0  0  0  0  0999 V2000
   54.1679    1.8076   19.0799 N   0  0  0  0  0  0  0  0  0  0  0  0
   53.7863    3.0360   19.5783 C   0  0  0  0  0  0  0  0  0  0  0  0
   55.2950    1.1152   19.7077 C   0  0  0  0  0  0  0  0  0  0  0  0
   53.6704    1.2002   17.8418 C   0  0  0  0  0  0  0  0  0  0  0  0
   52.6668    3.5637   18.9861 N   0  0  0  0  0  0  0  0  0  0  0  0
   54.3972    3.6082   20.4739 O   0  0  0  0  0  0  0  0  0  0  0  0
   55.2377   -0.3894   19.4269 C   0  0  0  0  0  0  0  0  0  0  0  0
   54.7472    0.3324   17.1829 C   0  0  0  0  0  0  0  0  0  0  0  0
   52.1228    4.8355   19.4368 C   0  0  0  0  0  0  0  0  0  0  0  0
   55.2194   -0.7248   18.0305 O   0  0  0  0  0  0  0  0  0  0  0  0
   52.9735    6.0412   18.9967 C   0  0  0  0  0  0  0  0  0  0  0  0
   52.3963    7.3445   19.3584 N   0  0  0  0  0  0  0  0  0  0  0  0
   51.2260    7.6952   18.5403 C   0  0  0  0  0  0  0  0  0  0  0  0
   50.8136    9.1654   18.7463 C   0  0  1  0  0  0  0  0  0  0  0  0
   50.4515    9.4800   20.2038 C   0  0  0  0  0  0  0  0  0  0  0  0
   51.8917   10.0166   18.3187 O   0  0  0  0  0  0  0  0  0  0  0  0
   49.9652   10.8274   20.3011 O   0  0  0  0  0  0  0  0  0  0  0  0
   48.6173   11.0394   20.2391 C   0  0  0  0  0  0  0  0  0  0  0  0
   47.6541   10.1212   19.8148 C   0  0  0  0  0  0  0  0  0  0  0  0
   48.2154   12.3232   20.6227 C   0  0  0  0  0  0  0  0  0  0  0  0
   46.3012   10.4793   19.7879 C   0  0  0  0  0  0  0  0  0  0  0  0
   46.8674   12.6822   20.6016 C   0  0  0  0  0  0  0  0  0  0  0  0
   45.9198   11.7557   20.1866 C   0  0  0  0  0  0  0  0  0  0  0  0
   44.6127   12.1407   20.1827 O   0  0  0  0  0  0  0  0  0  0  0  0
   54.7321    2.5543   18.9774 N   0  0  0  0  0  0  0  0  0  0  0  0
   53.8096    3.2007   19.7774 C   0  0  0  0  0  0  0  0  0  0  0  0
   54.4975    2.1314   17.5920 C   0  0  0  0  0  0  0  0  0  0  0  0
   55.9191    1.9641   19.6047 C   0  0  0  0  0  0  0  0  0  0  0  0
   52.7000    3.6704   19.1227 N   0  0  0  0  0  0  0  0  0  0  0  0
   53.9529    3.3362   20.9877 O   0  0  0  0  0  0  0  0  0  0  0  0
   55.7575    1.5297   16.9600 C   0  0  0  0  0  0  0  0  0  0  0  0
   56.1303    0.5274   19.1170 C   0  0  0  0  0  0  0  0  0  0  0  0
   51.6671    4.3974   19.8416 C   0  0  0  0  0  0  0  0  0  0  0  0
   56.2781    0.4128   17.6919 O   0  0  0  0  0  0  0  0  0  0  0  0
   52.0965    5.8314   20.2177 C   0  0  0  0  0  0  0  0  0  0  0  0
   51.0890    6.6046   20.9604 N   0  0  0  0  0  0  0  0  0  0  0  0
   49.9288    6.9687   20.1271 C   0  0  0  0  0  0  0  0  0  0  0  0
   49.0976    8.0709   20.8182 C   0  0  1  0  0  0  0  0  0  0  0  0
   47.7962    8.3561   20.0585 C   0  0  0  0  0  0  0  0  0  0  0  0
   48.7828    7.6733   22.1589 O   0  0  0  0  0  0  0  0  0  0  0  0
   48.0443    8.8405   18.7374 O   0  0  0  0  0  0  0  0  0  0  0  0
   48.2222   10.1848   18.5592 C   0  0  0  0  0  0  0  0  0  0  0  0
   48.2590   11.1558   19.5628 C   0  0  0  0  0  0  0  0  0  0  0  0
   48.3846   10.5770   17.2264 C   0  0  0  0  0  0  0  0  0  0  0  0
   48.4478   12.5041   19.2354 C   0  0  0  0  0  0  0  0  0  0  0  0
   48.5756   11.9201   16.8961 C   0  0  0  0  0  0  0  0  0  0  0  0
   48.6020   12.8741   17.9039 C   0  0  0  0  0  0  0  0  0  0  0  0
   48.7819   14.1760   17.5425 O   0  0  0  0  0  0  0  0  0  0  0  0
   51.1528    6.9139   18.8554 C   0  0  0  0  0  0  0  0  0  0  0  0
   51.6638    5.7986   19.3930 C   0  0  0  0  0  0  0  0  0  0  0  0
   52.2988    4.8137   18.5145 C   0  0  0  0  0  0  0  0  0  0  0  0
   52.7491    3.7746   19.2333 O   0  0  0  0  0  0  0  0  0  0  0  0
   52.4300    4.8787   17.3080 O   0  0  0  0  0  0  0  0  0  0  0  0
   50.5074    7.9618   19.6502 C   0  0  0  0  0  0  0  0  0  0  0  0
   50.4751    7.7010   20.9661 O   0  0  0  0  0  0  0  0  0  0  0  0
   50.0353    8.9845   19.1884 O   0  0  0  0  0  0  0  0  0  0  0  0
   55.2952    1.3023   20.7864 H   0  0  0  0  0  0  0  0  0  0  0  0
   56.2104    1.5491   19.2869 H   0  0  0  0  0  0  0  0  0  0  0  0
   53.3363    1.9754   17.1459 H   0  0  0  0  0  0  0  0  0  0  0  0
   52.8091    0.5836   18.1221 H   0  0  0  0  0  0  0  0  0  0  0  0
   51.9837    2.8681   18.7316 H   0  0  0  0  0  0  0  0  0  0  0  0
   54.3337   -0.8193   19.8740 H   0  0  0  0  0  0  0  0  0  0  0  0
   56.0990   -0.8946   19.8753 H   0  0  0  0  0  0  0  0  0  0  0  0
   54.3561   -0.1258   16.2684 H   0  0  0  0  0  0  0  0  0  0  0  0
   55.6115    0.9448   16.8975 H   0  0  0  0  0  0  0  0  0  0  0  0
   52.0254    4.8096   20.5281 H   0  0  0  0  0  0  0  0  0  0  0  0
   51.1178    4.8983   19.0070 H   0  0  0  0  0  0  0  0  0  0  0  0
   53.9562    5.9752   19.4769 H   0  0  0  0  0  0  0  0  0  0  0  0
   53.1645    5.9960   17.9169 H   0  0  0  0  0  0  0  0  0  0  0  0
   53.1047    8.0655   19.1803 H   0  0  0  0  0  0  0  0  0  0  0  0
   50.3797    7.0481   18.7925 H   0  0  0  0  0  0  0  0  0  0  0  0
   51.4696    7.5560   17.4795 H   0  0  0  0  0  0  0  0  0  0  0  0
   49.9689    9.3916   18.0868 H   0  0  0  0  0  0  0  0  0  0  0  0
   49.7557    8.7552   20.6408 H   0  0  0  0  0  0  0  0  0  0  0  0
   51.3571    9.4580   20.8197 H   0  0  0  0  0  0  0  0  0  0  0  0
   51.6532   10.9156   18.6168 H   0  0  0  0  0  0  0  0  0  0  0  0
   47.9182    9.1219   19.4884 H   0  0  0  0  0  0  0  0  0  0  0  0
   48.9574   13.0475   20.9498 H   0  0  0  0  0  0  0  0  0  0  0  0
   45.5662    9.7529   19.4531 H   0  0  0  0  0  0  0  0  0  0  0  0
   46.5621   13.6797   20.9077 H   0  0  0  0  0  0  0  0  0  0  0  0
   44.0668   11.4021   19.8679 H   0  0  0  0  0  0  0  0  0  0  0  0
   54.1609    2.9854   16.9978 H   0  0  0  0  0  0  0  0  0  0  0  0
   53.6945    1.3844   17.6172 H   0  0  0  0  0  0  0  0  0  0  0  0
   55.8520    1.9853   20.6959 H   0  0  0  0  0  0  0  0  0  0  0  0
   56.7677    2.5905   19.3066 H   0  0  0  0  0  0  0  0  0  0  0  0
   52.8249    3.9263   18.1577 H   0  0  0  0  0  0  0  0  0  0  0  0
   56.5508    2.2838   16.8880 H   0  0  0  0  0  0  0  0  0  0  0  0
   55.5412    1.1855   15.9430 H   0  0  0  0  0  0  0  0  0  0  0  0
   57.0279    0.0991   19.5750 H   0  0  0  0  0  0  0  0  0  0  0  0
   55.2789   -0.1011   19.4063 H   0  0  0  0  0  0  0  0  0  0  0  0
   50.7900    4.4133   19.1852 H   0  0  0  0  0  0  0  0  0  0  0  0
   51.4073    3.8315   20.7446 H   0  0  0  0  0  0  0  0  0  0  0  0
   52.4031    6.3786   19.3177 H   0  0  0  0  0  0  0  0  0  0  0  0
   52.9907    5.7852   20.8505 H   0  0  0  0  0  0  0  0  0  0  0  0
   50.7670    6.0320   21.7435 H   0  0  0  0  0  0  0  0  0  0  0  0
   50.2536    7.3287   19.1437 H   0  0  0  0  0  0  0  0  0  0  0  0
   49.3091    6.0771   19.9799 H   0  0  0  0  0  0  0  0  0  0  0  0
   49.7035    8.9824   20.8818 H   0  0  0  0  0  0  0  0  0  0  0  0
   47.1183    9.0078   20.6233 H   0  0  0  0  0  0  0  0  0  0  0  0
   47.2349    7.4185   19.9524 H   0  0  0  0  0  0  0  0  0  0  0  0
   49.6503    7.5809   22.5970 H   0  0  0  0  0  0  0  0  0  0  0  0
   48.1479   10.9039   20.6119 H   0  0  0  0  0  0  0  0  0  0  0  0
   48.3584    9.8313   16.4366 H   0  0  0  0  0  0  0  0  0  0  0  0
   48.4708   13.2432   20.0302 H   0  0  0  0  0  0  0  0  0  0  0  0
   48.7014   12.2178   15.8595 H   0  0  0  0  0  0  0  0  0  0  0  0
   48.7104   14.7329   18.3361 H   0  0  0  0  0  0  0  0  0  0  0  0
   51.1913    7.1078   17.7882 H   0  0  0  0  0  0  0  0  0  0  0  0
   51.6389    5.5842   20.4537 H   0  0  0  0  0  0  0  0  0  0  0  0
   53.1587    3.1838   18.5664 H   0  0  0  0  0  0  0  0  0  0  0  0
   50.0241    8.4834   21.3483 H   0  0  0  0  0  0  0  0  0  0  0  0
  3  7  1  0
  4  8  1  0
  5  9  1  0
  7 10  1  0
  9 11  1  0
 11 12  1  0
 12 13  1  0
 13 14  1  0
 14 15  1  0
 14 16  1  0
 15 17  1  0
 17 18  1  0
 18 19  2  0
 18 20  1  0
 19 21  1  0
 20 22  2  0
 21 23  2  0
 23 24  1  0
  8 10  1  0
 22 23  1  0
  1  2  1  0
  1  3  1  0
  1  4  1  0
  2  5  1  0
  2  6  2  0
 27 31  1  0
 28 32  1  0
 29 33  1  0
 31 34  1  0
 33 35  1  0
 35 36  1  0
 36 37  1  0
 37 38  1  0
 38 39  1  0
 38 40  1  0
 39 41  1  0
 41 42  1  0
 42 43  2  0
 42 44  1  0
 43 45  1  0
 44 46  2  0
 45 47  2  0
 47 48  1  0
 32 34  1  0
 46 47  1  0
 25 26  1  0
 25 27  1  0
 25 28  1  0
 26 29  1  0
 26 30  2  0
 49 50  2  0
 49 54  1  0
 50 51  1  0
 51 52  1  0
 51 53  2  0
 54 55  1  0
 54 56  2  0
  3 57  1  0
  3 58  1  0
  4 59  1  0
  4 60  1  0
  5 61  1  0
  7 62  1  0
  7 63  1  0
  8 64  1  0
  8 65  1  0
  9 66  1  0
  9 67  1  0
 11 68  1  0
 11 69  1  0
 12 70  1  0
 13 71  1  0
 13 72  1  0
 14 73  1  1
 15 74  1  0
 15 75  1  0
 16 76  1  0
 19 77  1  0
 20 78  1  0
 21 79  1  0
 22 80  1  0
 24 81  1  0
 27 82  1  0
 27 83  1  0
 28 84  1  0
 28 85  1  0
 29 86  1  0
 31 87  1  0
 31 88  1  0
 32 89  1  0
 32 90  1  0
 33 91  1  0
 33 92  1  0
 35 93  1  0
 35 94  1  0
 36 95  1  0
 37 96  1  0
 37 97  1  0
 38 98  1  1
 39 99  1  0
 39100  1  0
 40101  1  0
 43102  1  0
 44103  1  0
 45104  1  0
 46105  1  0
 48106  1  0
 49107  1  0
 50108  1  0
 52109  1  0
 55110  1  0
M  END
> <Uni-Dock RESULT> 
ENERGY=   -4.354  LOWER_BOUND=    6.786  UPPER_BOUND=    9.468
INTER + INTRA:          -4.354
INTER:                  -4.354
INTRA:                   0.000
UNBOUND:                 0.000

$$$$

     RDKit          3D

110111  0  0  0  0  0  0  0  0999 V2000
   51.9729   12.3914    9.2181 N   0  0  0  0  0  0  0  0  0  0  0  0
   50.8200   12.5341    9.9621 C   0  0  0  0  0  0  0  0  0  0  0  0
   53.2516   12.7616    9.8278 C   0  0  0  0  0  0  0  0  0  0  0  0
   52.0283   12.0792    7.7867 C   0  0  0  0  0  0  0  0  0  0  0  0
   49.6854   12.0771    9.3404 N   0  0  0  0  0  0  0  0  0  0  0  0
   50.8103   13.0289   11.0836 O   0  0  0  0  0  0  0  0  0  0  0  0
   54.4166   12.0583    9.1252 C   0  0  0  0  0  0  0  0  0  0  0  0
   53.2497   12.7283    7.1286 C   0  0  0  0  0  0  0  0  0  0  0  0
   48.4004   12.1249   10.0207 C   0  0  0  0  0  0  0  0  0  0  0  0
   54.4937   12.3185    7.7148 O   0  0  0  0  0  0  0  0  0  0  0  0
   47.8241   13.5498   10.1142 C   0  0  0  0  0  0  0  0  0  0  0  0
   46.4828   13.6146   10.7133 N   0  0  0  0  0  0  0  0  0  0  0  0
   45.4348   13.1003    9.8194 C   0  0  0  0  0  0  0  0  0  0  0  0
   44.0271   13.4303   10.3516 C   0  0  1  0  0  0  0  0  0  0  0  0
   43.7640   12.8326   11.7402 C   0  0  0  0  0  0  0  0  0  0  0  0
   43.8697   14.8594   10.3999 O   0  0  0  0  0  0  0  0  0  0  0  0
   42.4013   13.0764   12.1212 O   0  0  0  0  0  0  0  0  0  0  0  0
   41.4704   12.1106   11.8636 C   0  0  0  0  0  0  0  0  0  0  0  0
   41.6318   11.0103   11.0185 C   0  0  0  0  0  0  0  0  0  0  0  0
   40.2453   12.3006   12.5117 C   0  0  0  0  0  0  0  0  0  0  0  0
   40.5830   10.1019   10.8345 C   0  0  0  0  0  0  0  0  0  0  0  0
   39.1992   11.3947   12.3343 C   0  0  0  0  0  0  0  0  0  0  0  0
   39.3773   10.3000   11.4985 C   0  0  0  0  0  0  0  0  0  0  0  0
   38.3350    9.4346   11.3527 O   0  0  0  0  0  0  0  0  0  0  0  0
   51.6596   13.2503    9.4429 N   0  0  0  0  0  0  0  0  0  0  0  0
   50.7245   12.5717   10.2004 C   0  0  0  0  0  0  0  0  0  0  0  0
   51.6899   13.2888    7.9763 C   0  0  0  0  0  0  0  0  0  0  0  0
   52.8877   13.7198   10.0928 C   0  0  0  0  0  0  0  0  0  0  0  0
   49.6348   12.1137    9.5055 N   0  0  0  0  0  0  0  0  0  0  0  0
   50.8559   12.3722   11.4032 O   0  0  0  0  0  0  0  0  0  0  0  0
   52.7983   14.2096    7.4543 C   0  0  0  0  0  0  0  0  0  0  0  0
   54.1184   13.3327    9.2668 C   0  0  0  0  0  0  0  0  0  0  0  0
   48.5613   11.4113   10.1885 C   0  0  0  0  0  0  0  0  0  0  0  0
   54.1025   13.8459    7.9243 O   0  0  0  0  0  0  0  0  0  0  0  0
   47.6737   12.3505   11.0323 C   0  0  0  0  0  0  0  0  0  0  0  0
   46.5796   11.6840   11.7557 N   0  0  0  0  0  0  0  0  0  0  0  0
   45.5242   11.1893   10.8531 C   0  0  0  0  0  0  0  0  0  0  0  0
   44.2512   10.8447   11.6556 C   0  0  1  0  0  0  0  0  0  0  0  0
   43.1921   10.1734   10.7726 C   0  0  0  0  0  0  0  0  0  0  0  0
   44.5831    9.9693   12.7411 O   0  0  0  0  0  0  0  0  0  0  0  0
   42.7544   11.0317    9.7175 O   0  0  0  0  0  0  0  0  0  0  0  0
   41.7261   11.8982    9.9668 C   0  0  0  0  0  0  0  0  0  0  0  0
   41.0848   12.0921   11.1925 C   0  0  0  0  0  0  0  0  0  0  0  0
   41.3149   12.6452    8.8579 C   0  0  0  0  0  0  0  0  0  0  0  0
   40.0392   13.0166   11.3050 C   0  0  0  0  0  0  0  0  0  0  0  0
   40.2744   13.5698    8.9665 C   0  0  0  0  0  0  0  0  0  0  0  0
   39.6419   13.7455   10.1894 C   0  0  0  0  0  0  0  0  0  0  0  0
   38.6247   14.6506   10.2549 O   0  0  0  0  0  0  0  0  0  0  0  0
   46.0778   12.5542    9.8790 C   0  0  0  0  0  0  0  0  0  0  0  0
   47.3492   12.2448   10.1651 C   0  0  0  0  0  0  0  0  0  0  0  0
   48.3917   12.5480    9.1822 C   0  0  0  0  0  0  0  0  0  0  0  0
   49.5913   12.1701    9.6484 O   0  0  0  0  0  0  0  0  0  0  0  0
   48.2489   13.0676    8.0929 O   0  0  0  0  0  0  0  0  0  0  0  0
   44.9664   12.3003   10.7992 C   0  0  0  0  0  0  0  0  0  0  0  0
   45.3397   11.7291   11.9546 O   0  0  0  0  0  0  0  0  0  0  0  0
   43.8028   12.5713   10.5655 O   0  0  0  0  0  0  0  0  0  0  0  0
   53.2433   12.5136   10.8942 H   0  0  0  0  0  0  0  0  0  0  0  0
   53.3472   13.8503    9.7323 H   0  0  0  0  0  0  0  0  0  0  0  0
   51.1129   12.4131    7.2894 H   0  0  0  0  0  0  0  0  0  0  0  0
   52.0937   10.9882    7.7088 H   0  0  0  0  0  0  0  0  0  0  0  0
   49.8426   11.2601    8.7720 H   0  0  0  0  0  0  0  0  0  0  0  0
   54.3275   10.9725    9.2487 H   0  0  0  0  0  0  0  0  0  0  0  0
   55.3699   12.3630    9.5684 H   0  0  0  0  0  0  0  0  0  0  0  0
   53.2854   12.4739    6.0640 H   0  0  0  0  0  0  0  0  0  0  0  0
   53.1888   13.8213    7.2012 H   0  0  0  0  0  0  0  0  0  0  0  0
   48.5145   11.6885   11.0195 H   0  0  0  0  0  0  0  0  0  0  0  0
   47.7328   11.4789    9.4413 H   0  0  0  0  0  0  0  0  0  0  0  0
   48.4888   14.1604   10.7356 H   0  0  0  0  0  0  0  0  0  0  0  0
   47.8219   14.0233    9.1240 H   0  0  0  0  0  0  0  0  0  0  0  0
   46.2605   14.6014   10.8877 H   0  0  0  0  0  0  0  0  0  0  0  0
   45.5298   12.0151    9.7092 H   0  0  0  0  0  0  0  0  0  0  0  0
   45.5415   13.5635    8.8305 H   0  0  0  0  0  0  0  0  0  0  0  0
   43.2835   13.0674    9.6339 H   0  0  0  0  0  0  0  0  0  0  0  0
   44.0312   11.7724   11.8104 H   0  0  0  0  0  0  0  0  0  0  0  0
   44.3680   13.3597   12.4868 H   0  0  0  0  0  0  0  0  0  0  0  0
   43.0397   15.0178   10.8895 H   0  0  0  0  0  0  0  0  0  0  0  0
   42.5546   10.8318   10.4786 H   0  0  0  0  0  0  0  0  0  0  0  0
   40.1071   13.1565   13.1677 H   0  0  0  0  0  0  0  0  0  0  0  0
   40.7257    9.2530   10.1719 H   0  0  0  0  0  0  0  0  0  0  0  0
   38.2523   11.5453   12.8467 H   0  0  0  0  0  0  0  0  0  0  0  0
   38.5955    8.7264   10.7417 H   0  0  0  0  0  0  0  0  0  0  0  0
   50.7221   13.6275    7.5964 H   0  0  0  0  0  0  0  0  0  0  0  0
   51.8603   12.2610    7.6329 H   0  0  0  0  0  0  0  0  0  0  0  0
   52.9800   13.3312   11.1107 H   0  0  0  0  0  0  0  0  0  0  0  0
   52.8049   14.8110   10.1544 H   0  0  0  0  0  0  0  0  0  0  0  0
   49.3642   12.6466    8.6960 H   0  0  0  0  0  0  0  0  0  0  0  0
   52.6104   15.2479    7.7540 H   0  0  0  0  0  0  0  0  0  0  0  0
   52.8237   14.1854    6.3596 H   0  0  0  0  0  0  0  0  0  0  0  0
   55.0299   13.7019    9.7479 H   0  0  0  0  0  0  0  0  0  0  0  0
   54.2002   12.2410    9.1958 H   0  0  0  0  0  0  0  0  0  0  0  0
   47.9727   10.9171    9.4076 H   0  0  0  0  0  0  0  0  0  0  0  0
   49.0029   10.6352   10.8255 H   0  0  0  0  0  0  0  0  0  0  0  0
   47.2737   13.1543   10.4017 H   0  0  0  0  0  0  0  0  0  0  0  0
   48.2933   12.8511   11.7857 H   0  0  0  0  0  0  0  0  0  0  0  0
   46.9760   10.8923   12.2662 H   0  0  0  0  0  0  0  0  0  0  0  0
   45.2768   11.9413   10.0945 H   0  0  0  0  0  0  0  0  0  0  0  0
   45.8919   10.2926   10.3420 H   0  0  0  0  0  0  0  0  0  0  0  0
   43.8483   11.7666   12.0914 H   0  0  0  0  0  0  0  0  0  0  0  0
   42.3567    9.7695   11.3579 H   0  0  0  0  0  0  0  0  0  0  0  0
   43.6355    9.2881   10.2982 H   0  0  0  0  0  0  0  0  0  0  0  0
   45.1997   10.4868   13.2933 H   0  0  0  0  0  0  0  0  0  0  0  0
   41.3712   11.5458   12.0848 H   0  0  0  0  0  0  0  0  0  0  0  0
   41.8061   12.5040    7.8990 H   0  0  0  0  0  0  0  0  0  0  0  0
   39.5525   13.1504   12.2661 H   0  0  0  0  0  0  0  0  0  0  0  0
   39.9604   14.1467    8.1019 H   0  0  0  0  0  0  0  0  0  0  0  0
   38.2349   14.6179   11.1449 H   0  0  0  0  0  0  0  0  0  0  0  0
   45.7963   13.0187    8.9393 H   0  0  0  0  0  0  0  0  0  0  0  0
   47.6541   11.7833   11.0955 H   0  0  0  0  0  0  0  0  0  0  0  0
   50.2139   12.4194    8.9330 H   0  0  0  0  0  0  0  0  0  0  0  0
   44.4986   11.6313   12.4492 H   0  0  0  0  0  0  0  0  0  0  0  0
  3  7  1  0
  4  8  1  0
  5  9  1  0
  7 10  1  0
  9 11  1  0
 11 12  1  0
 12 13  1  0
 13 14  1  0
 14 15  1  0
 14 16  1  0
 15 17  1  0
 17 18  1  0
 18 19  2  0
 18 20  1  0
 19 21  1  0
 20 22  2  0
 21 23  2  0
 23 24  1  0
  8 10  1  0
 22 23  1  0
  1  2  1  0
  1  3  1  0
  1  4  1  0
  2  5  1  0
  2  6  2  0
 27 31  1  0
 28 32  1  0
 29 33  1  0
 31 34  1  0
 33 35  1  0
 35 36  1  0
 36 37  1  0
 37 38  1  0
 38 39  1  0
 38 40  1  0
 39 41  1  0
 41 42  1  0
 42 43  2  0
 42 44  1  0
 43 45  1  0
 44 46  2  0
 45 47  2  0
 47 48  1  0
 32 34  1  0
 46 47  1  0
 25 26  1  0
 25 27  1  0
 25 28  1  0
 26 29  1  0
 26 30  2  0
 49 50  2  0
 49 54  1  0
 50 51  1  0
 51 52  1  0
 51 53  2  0
 54 55  1  0
 54 56  2  0
  3 57  1  0
  3 58  1  0
  4 59  1  0
  4 60  1  0
  5 61  1  0
  7 62  1  0
  7 63  1  0
  8 64  1  0
  8 65  1  0
  9 66  1  0
  9 67  1  0
 11 68  1  0
 11 69  1  0
 12 70  1  0
 13 71  1  0
 13 72  1  0
 14 73  1  1
 15 74  1  0
 15 75  1  0
 16 76  1  0
 19 77  1  0
 20 78  1  0
 21 79  1  0
 22 80  1  0
 24 81  1  0
 27 82  1  0
 27 83  1  0
 28 84  1  0
 28 85  1  0
 29 86  1  0
 31 87  1  0
 31 88  1  0
 32 89  1  0
 32 90  1  0
 33 91  1  0
 33 92  1  0
 35 93  1  0
 35 94  1  0
 36 95  1  0
 37 96  1  0
 37 97  1  0
 38 98  1  1
 39 99  1  0
 39100  1  0
 40101  1  0
 43102  1  0
 44103  1  0
 45104  1  0
 46105  1  0
 48106  1  0
 49107  1  0
 50108  1  0
 52109  1  0
 55110  1  0
M  END
> <Uni-Dock RESULT> 
ENERGY=   -4.172  LOWER_BOUND=    5.781  UPPER_BOUND=   11.328
INTER + INTRA:          -4.172
INTER:                  -4.172
INTRA:                   0.000
UNBOUND:                 0.000

$$$$

     RDKit          3D

110111  0  0  0  0  0  0  0  0999 V2000
   48.3546    6.0287   17.7366 N   0  0  0  0  0  0  0  0  0  0  0  0
   48.2683    7.3738   18.0299 C   0  0  0  0  0  0  0  0  0  0  0  0
   47.7071    5.0716   18.6358 C   0  0  0  0  0  0  0  0  0  0  0  0
   49.2053    5.4372   16.6994 C   0  0  0  0  0  0  0  0  0  0  0  0
   48.8261    8.1961   17.0837 N   0  0  0  0  0  0  0  0  0  0  0  0
   47.7389    7.7983   19.0509 O   0  0  0  0  0  0  0  0  0  0  0  0
   47.4269    3.7487   17.9167 C   0  0  0  0  0  0  0  0  0  0  0  0
   49.6753    4.0369   17.1052 C   0  0  0  0  0  0  0  0  0  0  0  0
   48.7737    9.6417   17.2382 C   0  0  0  0  0  0  0  0  0  0  0  0
   48.5942    3.1273   17.3564 O   0  0  0  0  0  0  0  0  0  0  0  0
   49.7375   10.1645   18.3193 C   0  0  0  0  0  0  0  0  0  0  0  0
   49.7732   11.6303   18.4308 N   0  0  0  0  0  0  0  0  0  0  0  0
   50.4692   12.2698   17.3044 C   0  0  0  0  0  0  0  0  0  0  0  0
   50.7330   13.7629   17.5785 C   0  0  1  0  0  0  0  0  0  0  0  0
   49.4425   14.5580   17.8169 C   0  0  0  0  0  0  0  0  0  0  0  0
   51.5957   13.8817   18.7235 O   0  0  0  0  0  0  0  0  0  0  0  0
   49.7519   15.9542   17.9465 O   0  0  0  0  0  0  0  0  0  0  0  0
   49.6736   16.7444   16.8352 C   0  0  0  0  0  0  0  0  0  0  0  0
   49.5911   16.3053   15.5119 C   0  0  0  0  0  0  0  0  0  0  0  0
   49.7095   18.1178   17.0985 C   0  0  0  0  0  0  0  0  0  0  0  0
   49.5312   17.2308   14.4636 C   0  0  0  0  0  0  0  0  0  0  0  0
   49.6453   19.0433   16.0565 C   0  0  0  0  0  0  0  0  0  0  0  0
   49.5537   18.5922   14.7462 C   0  0  0  0  0  0  0  0  0  0  0  0
   49.4891   19.5250   13.7552 O   0  0  0  0  0  0  0  0  0  0  0  0
   48.8004    6.3771   18.4891 N   0  0  0  0  0  0  0  0  0  0  0  0
   48.1463    7.5523   18.1734 C   0  0  0  0  0  0  0  0  0  0  0  0
   49.8931    5.7843   17.7094 C   0  0  0  0  0  0  0  0  0  0  0  0
   48.1987    5.4790   19.4802 C   0  0  0  0  0  0  0  0  0  0  0  0
   48.7428    8.3051   17.1948 N   0  0  0  0  0  0  0  0  0  0  0  0
   47.0996    7.8997   18.7097 O   0  0  0  0  0  0  0  0  0  0  0  0
   50.4607    4.5320   18.3866 C   0  0  0  0  0  0  0  0  0  0  0  0
   48.1752    4.0382   18.9603 C   0  0  0  0  0  0  0  0  0  0  0  0
   48.1746    9.5801   16.7901 C   0  0  0  0  0  0  0  0  0  0  0  0
   49.4729    3.5207   18.6225 O   0  0  0  0  0  0  0  0  0  0  0  0
   48.4001   10.6939   17.8345 C   0  0  0  0  0  0  0  0  0  0  0  0
   47.8302   12.0024   17.4771 N   0  0  0  0  0  0  0  0  0  0  0  0
   48.5465   12.6447   16.3602 C   0  0  0  0  0  0  0  0  0  0  0  0
   48.1677   14.1386   16.2694 C   0  0  1  0  0  0  0  0  0  0  0  0
   48.7662   14.7975   15.0205 C   0  0  0  0  0  0  0  0  0  0  0  0
   46.7413   14.2770   16.2372 O   0  0  0  0  0  0  0  0  0  0  0  0
   50.1947   14.7688   15.0342 O   0  0  0  0  0  0  0  0  0  0  0  0
   50.8607   15.7861   15.6601 C   0  0  0  0  0  0  0  0  0  0  0  0
   50.2828   16.8428   16.3677 C   0  0  0  0  0  0  0  0  0  0  0  0
   52.2542   15.7158   15.5597 C   0  0  0  0  0  0  0  0  0  0  0  0
   51.0896   17.8217   16.9606 C   0  0  0  0  0  0  0  0  0  0  0  0
   53.0622   16.6885   16.1516 C   0  0  0  0  0  0  0  0  0  0  0  0
   52.4726   17.7366   16.8447 C   0  0  0  0  0  0  0  0  0  0  0  0
   53.2932   18.6718   17.4016 O   0  0  0  0  0  0  0  0  0  0  0  0
   49.8916   11.7167   17.0296 C   0  0  0  0  0  0  0  0  0  0  0  0
   49.0820   10.6633   17.2000 C   0  0  0  0  0  0  0  0  0  0  0  0
   49.6445    9.3141   17.1100 C   0  0  0  0  0  0  0  0  0  0  0  0
   48.6852    8.3983   17.3109 O   0  0  0  0  0  0  0  0  0  0  0  0
   50.8011    9.0108   16.8923 O   0  0  0  0  0  0  0  0  0  0  0  0
   49.4268   13.1038   17.1104 C   0  0  0  0  0  0  0  0  0  0  0  0
   48.1158   13.2214   17.3705 O   0  0  0  0  0  0  0  0  0  0  0  0
   50.1399   14.0790   16.9603 O   0  0  0  0  0  0  0  0  0  0  0  0
   46.7777    5.4968   19.0284 H   0  0  0  0  0  0  0  0  0  0  0  0
   48.3912    4.9124   19.4785 H   0  0  0  0  0  0  0  0  0  0  0  0
   50.0686    6.0801   16.5038 H   0  0  0  0  0  0  0  0  0  0  0  0
   48.5949    5.3812   15.7912 H   0  0  0  0  0  0  0  0  0  0  0  0
   48.7092    7.8582   16.1416 H   0  0  0  0  0  0  0  0  0  0  0  0
   46.7217    3.9125   17.0932 H   0  0  0  0  0  0  0  0  0  0  0  0
   46.9694    3.0299   18.6038 H   0  0  0  0  0  0  0  0  0  0  0  0
   50.2967    3.6028   16.3148 H   0  0  0  0  0  0  0  0  0  0  0  0
   50.2894    4.0866   18.0130 H   0  0  0  0  0  0  0  0  0  0  0  0
   47.7424    9.9340   17.4665 H   0  0  0  0  0  0  0  0  0  0  0  0
   49.0356   10.0553   16.2589 H   0  0  0  0  0  0  0  0  0  0  0  0
   49.4244    9.7710   19.2929 H   0  0  0  0  0  0  0  0  0  0  0  0
   50.7477    9.7711   18.1485 H   0  0  0  0  0  0  0  0  0  0  0  0
   50.3022   11.8714   19.2767 H   0  0  0  0  0  0  0  0  0  0  0  0
   49.8763   12.1740   16.3890 H   0  0  0  0  0  0  0  0  0  0  0  0
   51.4369   11.7768   17.1483 H   0  0  0  0  0  0  0  0  0  0  0  0
   51.2895   14.1845   16.7345 H   0  0  0  0  0  0  0  0  0  0  0  0
   48.6753   14.3719   17.0573 H   0  0  0  0  0  0  0  0  0  0  0  0
   49.0077   14.2712   18.7806 H   0  0  0  0  0  0  0  0  0  0  0  0
   51.6004   14.8307   18.9539 H   0  0  0  0  0  0  0  0  0  0  0  0
   49.5812   15.2519   15.2563 H   0  0  0  0  0  0  0  0  0  0  0  0
   49.7788   18.4707   18.1245 H   0  0  0  0  0  0  0  0  0  0  0  0
   49.4693   16.8711   13.4405 H   0  0  0  0  0  0  0  0  0  0  0  0
   49.6668   20.1092   16.2694 H   0  0  0  0  0  0  0  0  0  0  0  0
   49.4341   19.0721   12.8981 H   0  0  0  0  0  0  0  0  0  0  0  0
   50.6899    6.5205   17.5724 H   0  0  0  0  0  0  0  0  0  0  0  0
   49.4813    5.5274   16.7256 H   0  0  0  0  0  0  0  0  0  0  0  0
   47.1889    5.7974   19.7532 H   0  0  0  0  0  0  0  0  0  0  0  0
   48.8269    5.5449   20.3759 H   0  0  0  0  0  0  0  0  0  0  0  0
   49.7429    8.2269   17.1175 H   0  0  0  0  0  0  0  0  0  0  0  0
   50.9167    4.7879   19.3509 H   0  0  0  0  0  0  0  0  0  0  0  0
   51.2441    4.0886   17.7626 H   0  0  0  0  0  0  0  0  0  0  0  0
   47.7417    3.3705   19.7120 H   0  0  0  0  0  0  0  0  0  0  0  0
   47.5539    3.9698   18.0587 H   0  0  0  0  0  0  0  0  0  0  0  0
   48.6491    9.8386   15.8369 H   0  0  0  0  0  0  0  0  0  0  0  0
   47.1015    9.4419   16.6106 H   0  0  0  0  0  0  0  0  0  0  0  0
   49.4713   10.7953   18.0485 H   0  0  0  0  0  0  0  0  0  0  0  0
   47.9394   10.3960   18.7838 H   0  0  0  0  0  0  0  0  0  0  0  0
   46.8556   11.8577   17.2052 H   0  0  0  0  0  0  0  0  0  0  0  0
   49.6315   12.5579   16.4924 H   0  0  0  0  0  0  0  0  0  0  0  0
   48.2714   12.1372   15.4290 H   0  0  0  0  0  0  0  0  0  0  0  0
   48.5248   14.6488   17.1717 H   0  0  0  0  0  0  0  0  0  0  0  0
   48.3691   15.8058   14.8505 H   0  0  0  0  0  0  0  0  0  0  0  0
   48.4460   14.2339   14.1344 H   0  0  0  0  0  0  0  0  0  0  0  0
   46.4398   13.9041   17.0875 H   0  0  0  0  0  0  0  0  0  0  0  0
   49.2085   16.9388   16.4836 H   0  0  0  0  0  0  0  0  0  0  0  0
   52.7159   14.8986   15.0124 H   0  0  0  0  0  0  0  0  0  0  0  0
   50.6203   18.6360   17.5040 H   0  0  0  0  0  0  0  0  0  0  0  0
   54.1432   16.6278   16.0701 H   0  0  0  0  0  0  0  0  0  0  0  0
   52.7460   19.3746   17.7912 H   0  0  0  0  0  0  0  0  0  0  0  0
   50.9506   11.6006   16.8225 H   0  0  0  0  0  0  0  0  0  0  0  0
   48.0238   10.7540   17.4091 H   0  0  0  0  0  0  0  0  0  0  0  0
   49.1561    7.5411   17.2404 H   0  0  0  0  0  0  0  0  0  0  0  0
   47.9686   14.1906   17.3952 H   0  0  0  0  0  0  0  0  0  0  0  0
  3  7  1  0
  4  8  1  0
  5  9  1  0
  7 10  1  0
  9 11  1  0
 11 12  1  0
 12 13  1  0
 13 14  1  0
 14 15  1  0
 14 16  1  0
 15 17  1  0
 17 18  1  0
 18 19  2  0
 18 20  1  0
 19 21  1  0
 20 22  2  0
 21 23  2  0
 23 24  1  0
  8 10  1  0
 22 23  1  0
  1  2  1  0
  1  3  1  0
  1  4  1  0
  2  5  1  0
  2  6  2  0
 27 31  1  0
 28 32  1  0
 29 33  1  0
 31 34  1  0
 33 35  1  0
 35 36  1  0
 36 37  1  0
 37 38  1  0
 38 39  1  0
 38 40  1  0
 39 41  1  0
 41 42  1  0
 42 43  2  0
 42 44  1  0
 43 45  1  0
 44 46  2  0
 45 47  2  0
 47 48  1  0
 32 34  1  0
 46 47  1  0
 25 26  1  0
 25 27  1  0
 25 28  1  0
 26 29  1  0
 26 30  2  0
 49 50  2  0
 49 54  1  0
 50 51  1  0
 51 52  1  0
 51 53  2  0
 54 55  1  0
 54 56  2  0
  3 57  1  0
  3 58  1  0
  4 59  1  0
  4 60  1  0
  5 61  1  0
  7 62  1  0
  7 63  1  0
  8 64  1  0
  8 65  1  0
  9 66  1  0
  9 67  1  0
 11 68  1  0
 11 69  1  0
 12 70  1  0
 13 71  1  0
 13 72  1  0
 14 73  1  1
 15 74  1  0
 15 75  1  0
 16 76  1  0
 19 77  1  0
 20 78  1  0
 21 79  1  0
 22 80  1  0
 24 81  1  0
 27 82  1  0
 27 83  1  0
 28 84  1  0
 28 85  1  0
 29 86  1  0
 31 87  1  0
 31 88  1  0
 32 89  1  0
 32 90  1  0
 33 91  1  0
 33 92  1  0
 35 93  1  0
 35 94  1  0
 36 95  1  0
 37 96  1  0
 37 97  1  0
 38 98  1  1
 39 99  1  0
 39100  1  0
 40101  1  0
 43102  1  0
 44103  1  0
 45104  1  0
 46105  1  0
 48106  1  0
 49107  1  0
 50108  1  0
 52109  1  0
 55110  1  0
M  END
> <Uni-Dock RESULT> 
ENERGY=   -4.021  LOWER_BOUND=    5.125  UPPER_BOUND=    6.772
INTER + INTRA:          -4.021
INTER:                  -4.021
INTRA:                   0.000
UNBOUND:                 0.000

$$$$

     RDKit          3D

110111  0  0  0  0  0  0  0  0999 V2000
   50.7501   16.4754   17.1886 N   0  0  0  0  0  0  0  0  0  0  0  0
   49.8986   15.5745   16.5835 C   0  0  0  0  0  0  0  0  0  0  0  0
   51.2020   16.2048   18.5548 C   0  0  0  0  0  0  0  0  0  0  0  0
   51.1046   17.7967   16.6615 C   0  0  0  0  0  0  0  0  0  0  0  0
   49.6035   15.8657   15.2755 N   0  0  0  0  0  0  0  0  0  0  0  0
   49.4429   14.5968   17.1661 O   0  0  0  0  0  0  0  0  0  0  0  0
   52.5033   16.9532   18.8588 C   0  0  0  0  0  0  0  0  0  0  0  0
   51.3657   18.7907   17.7974 C   0  0  0  0  0  0  0  0  0  0  0  0
   48.7502   14.9817   14.4965 C   0  0  0  0  0  0  0  0  0  0  0  0
   52.4161   18.3759   18.6827 O   0  0  0  0  0  0  0  0  0  0  0  0
   47.2658   15.0768   14.8950 C   0  0  0  0  0  0  0  0  0  0  0  0
   46.3690   14.2637   14.0601 N   0  0  0  0  0  0  0  0  0  0  0  0
   46.1859   14.8209   12.7118 C   0  0  0  0  0  0  0  0  0  0  0  0
   45.0420   14.1143   11.9596 C   0  0  1  0  0  0  0  0  0  0  0  0
   45.2849   12.6084   11.7925 C   0  0  0  0  0  0  0  0  0  0  0  0
   43.8110   14.3320   12.6716 O   0  0  0  0  0  0  0  0  0  0  0  0
   44.2443   12.0376   10.9843 O   0  0  0  0  0  0  0  0  0  0  0  0
   44.4577   11.9127    9.6409 C   0  0  0  0  0  0  0  0  0  0  0  0
   45.4712   12.5288    8.9034 C   0  0  0  0  0  0  0  0  0  0  0  0
   43.5297   11.1001    8.9811 C   0  0  0  0  0  0  0  0  0  0  0  0
   45.5637   12.3229    7.5220 C   0  0  0  0  0  0  0  0  0  0  0  0
   43.6215   10.8888    7.6051 C   0  0  0  0  0  0  0  0  0  0  0  0
   44.6403   11.5002    6.8861 C   0  0  0  0  0  0  0  0  0  0  0  0
   44.7007   11.2677    5.5449 O   0  0  0  0  0  0  0  0  0  0  0  0
   49.8674   16.3772   17.5011 N   0  0  0  0  0  0  0  0  0  0  0  0
   49.7986   15.3353   16.5964 C   0  0  0  0  0  0  0  0  0  0  0  0
   49.9304   17.7997   17.1462 C   0  0  0  0  0  0  0  0  0  0  0  0
   50.2078   16.0790   18.8961 C   0  0  0  0  0  0  0  0  0  0  0  0
   49.5353   15.7051   15.3025 N   0  0  0  0  0  0  0  0  0  0  0  0
   49.9748   14.1634   16.9117 O   0  0  0  0  0  0  0  0  0  0  0  0
   49.9006   18.6975   18.3879 C   0  0  0  0  0  0  0  0  0  0  0  0
   51.3046   17.0231   19.3986 C   0  0  0  0  0  0  0  0  0  0  0  0
   49.4051   14.7041   14.2570 C   0  0  0  0  0  0  0  0  0  0  0  0
   50.9570   18.4152   19.3145 O   0  0  0  0  0  0  0  0  0  0  0  0
   48.0781   13.9204   14.3411 C   0  0  0  0  0  0  0  0  0  0  0  0
   47.9048   12.8840   13.3113 N   0  0  0  0  0  0  0  0  0  0  0  0
   47.7022   13.4521   11.9662 C   0  0  0  0  0  0  0  0  0  0  0  0
   47.1609   12.3724   11.0046 C   0  0  1  0  0  0  0  0  0  0  0  0
   47.0950   12.8848    9.5606 C   0  0  0  0  0  0  0  0  0  0  0  0
   48.0009   11.2120   11.0547 O   0  0  0  0  0  0  0  0  0  0  0  0
   46.2028   13.9928    9.4273 O   0  0  0  0  0  0  0  0  0  0  0  0
   44.8786   13.7391    9.1987 C   0  0  0  0  0  0  0  0  0  0  0  0
   44.2725   12.4815    9.1495 C   0  0  0  0  0  0  0  0  0  0  0  0
   44.0935   14.8809    9.0073 C   0  0  0  0  0  0  0  0  0  0  0  0
   42.8987   12.3679    8.9035 C   0  0  0  0  0  0  0  0  0  0  0  0
   42.7229   14.7719    8.7643 C   0  0  0  0  0  0  0  0  0  0  0  0
   42.1368   13.5149    8.7106 C   0  0  0  0  0  0  0  0  0  0  0  0
   40.7981   13.4477    8.4626 O   0  0  0  0  0  0  0  0  0  0  0  0
   47.0063   14.7718   12.9111 C   0  0  0  0  0  0  0  0  0  0  0  0
   48.0092   14.6711   13.7932 C   0  0  0  0  0  0  0  0  0  0  0  0
   48.4525   15.8725   14.5038 C   0  0  0  0  0  0  0  0  0  0  0  0
   49.4568   15.5713   15.3403 O   0  0  0  0  0  0  0  0  0  0  0  0
   48.0097   16.9990   14.3944 O   0  0  0  0  0  0  0  0  0  0  0  0
   46.4854   13.6278   12.1585 C   0  0  0  0  0  0  0  0  0  0  0  0
   47.1057   12.4703   12.4341 O   0  0  0  0  0  0  0  0  0  0  0  0
   45.5757   13.6904   11.3518 O   0  0  0  0  0  0  0  0  0  0  0  0
   51.3390   15.1279   18.6971 H   0  0  0  0  0  0  0  0  0  0  0  0
   50.4021   16.5379   19.2274 H   0  0  0  0  0  0  0  0  0  0  0  0
   50.3094   18.1719   16.0106 H   0  0  0  0  0  0  0  0  0  0  0  0
   52.0132   17.6598   16.0645 H   0  0  0  0  0  0  0  0  0  0  0  0
   50.3757   16.2734   14.7728 H   0  0  0  0  0  0  0  0  0  0  0  0
   53.3036   16.5949   18.2005 H   0  0  0  0  0  0  0  0  0  0  0  0
   52.8181   16.7682   19.8906 H   0  0  0  0  0  0  0  0  0  0  0  0
   51.6436   19.7677   17.3884 H   0  0  0  0  0  0  0  0  0  0  0  0
   50.4585   18.9340   18.3975 H   0  0  0  0  0  0  0  0  0  0  0  0
   49.1143   13.9539   14.6067 H   0  0  0  0  0  0  0  0  0  0  0  0
   48.8865   15.2808   13.4522 H   0  0  0  0  0  0  0  0  0  0  0  0
   47.1536   14.7295   15.9282 H   0  0  0  0  0  0  0  0  0  0  0  0
   46.9399   16.1248   14.8947 H   0  0  0  0  0  0  0  0  0  0  0  0
   45.4428   14.2574   14.5024 H   0  0  0  0  0  0  0  0  0  0  0  0
   47.1095   14.7217   12.1322 H   0  0  0  0  0  0  0  0  0  0  0  0
   45.9342   15.8860   12.7901 H   0  0  0  0  0  0  0  0  0  0  0  0
   44.9148   14.5902   10.9813 H   0  0  0  0  0  0  0  0  0  0  0  0
   46.2840   12.3731   11.4094 H   0  0  0  0  0  0  0  0  0  0  0  0
   45.1956   12.1123   12.7651 H   0  0  0  0  0  0  0  0  0  0  0  0
   43.1562   13.7389   12.2553 H   0  0  0  0  0  0  0  0  0  0  0  0
   46.2010   13.1833    9.3660 H   0  0  0  0  0  0  0  0  0  0  0  0
   42.7336   10.6198    9.5446 H   0  0  0  0  0  0  0  0  0  0  0  0
   46.3573   12.8117    6.9642 H   0  0  0  0  0  0  0  0  0  0  0  0
   42.9007   10.2505    7.1003 H   0  0  0  0  0  0  0  0  0  0  0  0
   45.4517   11.7579    5.1728 H   0  0  0  0  0  0  0  0  0  0  0  0
   49.0936   18.0533   16.4897 H   0  0  0  0  0  0  0  0  0  0  0  0
   50.8663   17.9504   16.5941 H   0  0  0  0  0  0  0  0  0  0  0  0
   50.5198   15.0385   19.0221 H   0  0  0  0  0  0  0  0  0  0  0  0
   49.2894   16.2283   19.4752 H   0  0  0  0  0  0  0  0  0  0  0  0
   48.9900   16.5416   15.1785 H   0  0  0  0  0  0  0  0  0  0  0  0
   48.9480   18.5877   18.9206 H   0  0  0  0  0  0  0  0  0  0  0  0
   49.9913   19.7489   18.0949 H   0  0  0  0  0  0  0  0  0  0  0  0
   51.5410   16.8071   20.4456 H   0  0  0  0  0  0  0  0  0  0  0  0
   52.2234   16.8824   18.8158 H   0  0  0  0  0  0  0  0  0  0  0  0
   49.4793   15.2427   13.3057 H   0  0  0  0  0  0  0  0  0  0  0  0
   50.2559   14.0153   14.3264 H   0  0  0  0  0  0  0  0  0  0  0  0
   47.2303   14.6164   14.3215 H   0  0  0  0  0  0  0  0  0  0  0  0
   48.0190   13.4153   15.3124 H   0  0  0  0  0  0  0  0  0  0  0  0
   48.7471   12.3051   13.3023 H   0  0  0  0  0  0  0  0  0  0  0  0
   46.9946   14.2890   11.9997 H   0  0  0  0  0  0  0  0  0  0  0  0
   48.6625   13.8278   11.5959 H   0  0  0  0  0  0  0  0  0  0  0  0
   46.1631   12.0678   11.3415 H   0  0  0  0  0  0  0  0  0  0  0  0
   46.8778   12.0835    8.8436 H   0  0  0  0  0  0  0  0  0  0  0  0
   48.0905   13.2416    9.2653 H   0  0  0  0  0  0  0  0  0  0  0  0
   47.9369   10.9030   11.9785 H   0  0  0  0  0  0  0  0  0  0  0  0
   44.8337   11.5656    9.3006 H   0  0  0  0  0  0  0  0  0  0  0  0
   44.5529   15.8648    9.0437 H   0  0  0  0  0  0  0  0  0  0  0  0
   42.4478   11.3810    8.8668 H   0  0  0  0  0  0  0  0  0  0  0  0
   42.1192   15.6622    8.6170 H   0  0  0  0  0  0  0  0  0  0  0  0
   40.5416   12.5131    8.3859 H   0  0  0  0  0  0  0  0  0  0  0  0
   46.5154   15.7173   12.7038 H   0  0  0  0  0  0  0  0  0  0  0  0
   48.5127   13.7395   14.0176 H   0  0  0  0  0  0  0  0  0  0  0  0
   49.6740   16.4262   15.7688 H   0  0  0  0  0  0  0  0  0  0  0  0
   46.6470   11.8178   11.8637 H   0  0  0  0  0  0  0  0  0  0  0  0
  3  7  1  0
  4  8  1  0
  5  9  1  0
  7 10  1  0
  9 11  1  0
 11 12  1  0
 12 13  1  0
 13 14  1  0
 14 15  1  0
 14 16  1  0
 15 17  1  0
 17 18  1  0
 18 19  2  0
 18 20  1  0
 19 21  1  0
 20 22  2  0
 21 23  2  0
 23 24  1  0
  8 10  1  0
 22 23  1  0
  1  2  1  0
  1  3  1  0
  1  4  1  0
  2  5  1  0
  2  6  2  0
 27 31  1  0
 28 32  1  0
 29 33  1  0
 31 34  1  0
 33 35  1  0
 35 36  1  0
 36 37  1  0
 37 38  1  0
 38 39  1  0
 38 40  1  0
 39 41  1  0
 41 42  1  0
 42 43  2  0
 42 44  1  0
 43 45  1  0
 44 46  2  0
 45 47  2  0
 47 48  1  0
 32 34  1  0
 46 47  1  0
 25 26  1  0
 25 27  1  0
 25 28  1  0
 26 29  1  0
 26 30  2  0
 49 50  2  0
 49 54  1  0
 50 51  1  0
 51 52  1  0
 51 53  2  0
 54 55  1  0
 54 56  2  0
  3 57  1  0
  3 58  1  0
  4 59  1  0
  4 60  1  0
  5 61  1  0
  7 62  1  0
  7 63  1  0
  8 64  1  0
  8 65  1  0
  9 66  1  0
  9 67  1  0
 11 68  1  0
 11 69  1  0
 12 70  1  0
 13 71  1  0
 13 72  1  0
 14 73  1  1
 15 74  1  0
 15 75  1  0
 16 76  1  0
 19 77  1  0
 20 78  1  0
 21 79  1  0
 22 80  1  0
 24 81  1  0
 27 82  1  0
 27 83  1  0
 28 84  1  0
 28 85  1  0
 29 86  1  0
 31 87  1  0
 31 88  1  0
 32 89  1  0
 32 90  1  0
 33 91  1  0
 33 92  1  0
 35 93  1  0
 35 94  1  0
 36 95  1  0
 37 96  1  0
 37 97  1  0
 38 98  1  1
 39 99  1  0
 39100  1  0
 40101  1  0
 43102  1  0
 44103  1  0
 45104  1  0
 46105  1  0
 48106  1  0
 49107  1  0
 50108  1  0
 52109  1  0
 55110  1  0
M  END
> <Uni-Dock RESULT> 
ENERGY=   -4.017  LOWER_BOUND=    6.429  UPPER_BOUND=   11.520
INTER + INTRA:          -4.017
INTER:                  -4.017
INTRA:                   0.000
UNBOUND:                 0.000

$$$$

     RDKit          3D

110111  0  0  0  0  0  0  0  0999 V2000
   49.3444   12.2809    8.3602 N   0  0  0  0  0  0  0  0  0  0  0  0
   49.8399   12.0276    9.6225 C   0  0  0  0  0  0  0  0  0  0  0  0
   50.2818   12.3367    7.2368 C   0  0  0  0  0  0  0  0  0  0  0  0
   47.9721   12.6950    8.0524 C   0  0  0  0  0  0  0  0  0  0  0  0
   48.8783   11.9042   10.5934 N   0  0  0  0  0  0  0  0  0  0  0  0
   51.0386   11.9232    9.8568 O   0  0  0  0  0  0  0  0  0  0  0  0
   49.5615   12.0786    5.9100 C   0  0  0  0  0  0  0  0  0  0  0  0
   47.9346   13.6029    6.8192 C   0  0  0  0  0  0  0  0  0  0  0  0
   49.2497   11.5958   11.9657 C   0  0  0  0  0  0  0  0  0  0  0  0
   48.4797   12.9851    5.6444 O   0  0  0  0  0  0  0  0  0  0  0  0
   49.8913   12.7901   12.6960 C   0  0  0  0  0  0  0  0  0  0  0  0
   50.1903   12.5345   14.1129 N   0  0  0  0  0  0  0  0  0  0  0  0
   48.9827   12.4930   14.9507 C   0  0  0  0  0  0  0  0  0  0  0  0
   49.3357   12.5009   16.4504 C   0  0  1  0  0  0  0  0  0  0  0  0
   50.2060   11.3054   16.8600 C   0  0  0  0  0  0  0  0  0  0  0  0
   50.0180   13.7284   16.7626 O   0  0  0  0  0  0  0  0  0  0  0  0
   50.3965   11.3111   18.2832 O   0  0  0  0  0  0  0  0  0  0  0  0
   49.5486   10.5703   19.0566 C   0  0  0  0  0  0  0  0  0  0  0  0
   48.3330   10.0139   18.6522 C   0  0  0  0  0  0  0  0  0  0  0  0
   49.9700   10.4033   20.3800 C   0  0  0  0  0  0  0  0  0  0  0  0
   47.5537    9.2860   19.5588 C   0  0  0  0  0  0  0  0  0  0  0  0
   49.1982    9.6745   21.2852 C   0  0  0  0  0  0  0  0  0  0  0  0
   47.9963    9.1187   20.8664 C   0  0  0  0  0  0  0  0  0  0  0  0
   47.2714    8.4104   21.7771 O   0  0  0  0  0  0  0  0  0  0  0  0
   49.8830   12.9205    8.7929 N   0  0  0  0  0  0  0  0  0  0  0  0
   50.0456   11.9444    9.7570 C   0  0  0  0  0  0  0  0  0  0  0  0
   48.6400   13.6588    8.5412 C   0  0  0  0  0  0  0  0  0  0  0  0
   50.8922   13.0432    7.7358 C   0  0  0  0  0  0  0  0  0  0  0  0
   49.0286   11.8561   10.6724 N   0  0  0  0  0  0  0  0  0  0  0  0
   51.0153   11.1946    9.7923 O   0  0  0  0  0  0  0  0  0  0  0  0
   48.8264   14.7374    7.4686 C   0  0  0  0  0  0  0  0  0  0  0  0
   50.2257   13.1229    6.3588 C   0  0  0  0  0  0  0  0  0  0  0  0
   49.0900   10.8923   11.7585 C   0  0  0  0  0  0  0  0  0  0  0  0
   49.3039   14.2170    6.2214 O   0  0  0  0  0  0  0  0  0  0  0  0
   50.0943   11.2947   12.8593 C   0  0  0  0  0  0  0  0  0  0  0  0
   50.2036   10.3426   13.9756 N   0  0  0  0  0  0  0  0  0  0  0  0
   48.9964   10.3223   14.8214 C   0  0  0  0  0  0  0  0  0  0  0  0
   49.2917    9.6114   16.1596 C   0  0  1  0  0  0  0  0  0  0  0  0
   48.0180    9.4268   16.9935 C   0  0  0  0  0  0  0  0  0  0  0  0
   49.8806    8.3288   15.9087 O   0  0  0  0  0  0  0  0  0  0  0  0
   47.4278   10.6779   17.3511 O   0  0  0  0  0  0  0  0  0  0  0  0
   47.8583   11.2992   18.4908 C   0  0  0  0  0  0  0  0  0  0  0  0
   48.8888   10.8691   19.3300 C   0  0  0  0  0  0  0  0  0  0  0  0
   47.1744   12.4790   18.8023 C   0  0  0  0  0  0  0  0  0  0  0  0
   49.2252   11.6067   20.4718 C   0  0  0  0  0  0  0  0  0  0  0  0
   47.5085   13.2186   19.9385 C   0  0  0  0  0  0  0  0  0  0  0  0
   48.5296   12.7740   20.7668 C   0  0  0  0  0  0  0  0  0  0  0  0
   48.8216   13.5176   21.8713 O   0  0  0  0  0  0  0  0  0  0  0  0
   48.8975   11.9973   14.2708 C   0  0  0  0  0  0  0  0  0  0  0  0
   49.2355   11.6122   13.0333 C   0  0  0  0  0  0  0  0  0  0  0  0
   48.7222   12.3692   11.8895 C   0  0  0  0  0  0  0  0  0  0  0  0
   49.1704   11.8362   10.7430 O   0  0  0  0  0  0  0  0  0  0  0  0
   47.9985   13.3451   11.9165 O   0  0  0  0  0  0  0  0  0  0  0  0
   49.3671   11.3124   15.4778 C   0  0  0  0  0  0  0  0  0  0  0  0
   50.1664   10.2637   15.2291 O   0  0  0  0  0  0  0  0  0  0  0  0
   49.0762   11.6407   16.6135 O   0  0  0  0  0  0  0  0  0  0  0  0
   51.0851   11.6072    7.3832 H   0  0  0  0  0  0  0  0  0  0  0  0
   50.7273   13.3391    7.2425 H   0  0  0  0  0  0  0  0  0  0  0  0
   47.5292   13.2097    8.9102 H   0  0  0  0  0  0  0  0  0  0  0  0
   47.4056   11.7768    7.8615 H   0  0  0  0  0  0  0  0  0  0  0  0
   48.0336   11.4633   10.2655 H   0  0  0  0  0  0  0  0  0  0  0  0
   49.1428   11.0653    5.9025 H   0  0  0  0  0  0  0  0  0  0  0  0
   50.2640   12.1507    5.0737 H   0  0  0  0  0  0  0  0  0  0  0  0
   46.9026   13.8913    6.5934 H   0  0  0  0  0  0  0  0  0  0  0  0
   48.4982   14.5256    7.0051 H   0  0  0  0  0  0  0  0  0  0  0  0
   49.9290   10.7357   11.9617 H   0  0  0  0  0  0  0  0  0  0  0  0
   48.3227   11.2949   12.4645 H   0  0  0  0  0  0  0  0  0  0  0  0
   50.8376   13.0396   12.2029 H   0  0  0  0  0  0  0  0  0  0  0  0
   49.2576   13.6805   12.5953 H   0  0  0  0  0  0  0  0  0  0  0  0
   50.7620   13.3122   14.4618 H   0  0  0  0  0  0  0  0  0  0  0  0
   48.3965   11.5958   14.7264 H   0  0  0  0  0  0  0  0  0  0  0  0
   48.3655   13.3759   14.7422 H   0  0  0  0  0  0  0  0  0  0  0  0
   48.4078   12.5133   17.0322 H   0  0  0  0  0  0  0  0  0  0  0  0
   49.8194   10.3467   16.4970 H   0  0  0  0  0  0  0  0  0  0  0  0
   51.2100   11.4205   16.4371 H   0  0  0  0  0  0  0  0  0  0  0  0
   50.3611   13.6169   17.6702 H   0  0  0  0  0  0  0  0  0  0  0  0
   47.9543   10.1336   17.6436 H   0  0  0  0  0  0  0  0  0  0  0  0
   50.9121   10.8365   20.7068 H   0  0  0  0  0  0  0  0  0  0  0  0
   46.6101    8.8621   19.2273 H   0  0  0  0  0  0  0  0  0  0  0  0
   49.5356    9.5431   22.3103 H   0  0  0  0  0  0  0  0  0  0  0  0
   46.4601    8.0872   21.3526 H   0  0  0  0  0  0  0  0  0  0  0  0
   48.2910   14.1202    9.4690 H   0  0  0  0  0  0  0  0  0  0  0  0
   47.8933   12.9252    8.2129 H   0  0  0  0  0  0  0  0  0  0  0  0
   51.6063   12.2155    7.7612 H   0  0  0  0  0  0  0  0  0  0  0  0
   51.4415   13.9691    7.9413 H   0  0  0  0  0  0  0  0  0  0  0  0
   48.5290   12.7069   10.8695 H   0  0  0  0  0  0  0  0  0  0  0  0
   49.5370   15.5008    7.8084 H   0  0  0  0  0  0  0  0  0  0  0  0
   47.8743   15.2421    7.2724 H   0  0  0  0  0  0  0  0  0  0  0  0
   50.9835   13.2326    5.5761 H   0  0  0  0  0  0  0  0  0  0  0  0
   49.6679   12.2009    6.1528 H   0  0  0  0  0  0  0  0  0  0  0  0
   48.0748   10.8227   12.1645 H   0  0  0  0  0  0  0  0  0  0  0  0
   49.3584    9.9141   11.3412 H   0  0  0  0  0  0  0  0  0  0  0  0
   49.8521   12.2949   13.2395 H   0  0  0  0  0  0  0  0  0  0  0  0
   51.0945   11.3836   12.4191 H   0  0  0  0  0  0  0  0  0  0  0  0
   50.3471    9.4105   13.5816 H   0  0  0  0  0  0  0  0  0  0  0  0
   48.6478   11.3414   15.0266 H   0  0  0  0  0  0  0  0  0  0  0  0
   48.2029    9.7880   14.2872 H   0  0  0  0  0  0  0  0  0  0  0  0
   50.0254   10.2034   16.7194 H   0  0  0  0  0  0  0  0  0  0  0  0
   48.1791    8.7761   17.8619 H   0  0  0  0  0  0  0  0  0  0  0  0
   47.2756    8.8861   16.3918 H   0  0  0  0  0  0  0  0  0  0  0  0
   50.7144    8.5291   15.4424 H   0  0  0  0  0  0  0  0  0  0  0  0
   49.4566    9.9670   19.1288 H   0  0  0  0  0  0  0  0  0  0  0  0
   46.3712   12.8244   18.1572 H   0  0  0  0  0  0  0  0  0  0  0  0
   50.0276   11.2537   21.1121 H   0  0  0  0  0  0  0  0  0  0  0  0
   46.9739   14.1337   20.1744 H   0  0  0  0  0  0  0  0  0  0  0  0
   49.5026   13.0546   22.3880 H   0  0  0  0  0  0  0  0  0  0  0  0
   48.2514   12.8505   14.4513 H   0  0  0  0  0  0  0  0  0  0  0  0
   49.8794   10.7665   12.8286 H   0  0  0  0  0  0  0  0  0  0  0  0
   48.7848   12.4097   10.0474 H   0  0  0  0  0  0  0  0  0  0  0  0
   50.3917    9.9250   16.1214 H   0  0  0  0  0  0  0  0  0  0  0  0
  3  7  1  0
  4  8  1  0
  5  9  1  0
  7 10  1  0
  9 11  1  0
 11 12  1  0
 12 13  1  0
 13 14  1  0
 14 15  1  0
 14 16  1  0
 15 17  1  0
 17 18  1  0
 18 19  2  0
 18 20  1  0
 19 21  1  0
 20 22  2  0
 21 23  2  0
 23 24  1  0
  8 10  1  0
 22 23  1  0
  1  2  1  0
  1  3  1  0
  1  4  1  0
  2  5  1  0
  2  6  2  0
 27 31  1  0
 28 32  1  0
 29 33  1  0
 31 34  1  0
 33 35  1  0
 35 36  1  0
 36 37  1  0
 37 38  1  0
 38 39  1  0
 38 40  1  0
 39 41  1  0
 41 42  1  0
 42 43  2  0
 42 44  1  0
 43 45  1  0
 44 46  2  0
 45 47  2  0
 47 48  1  0
 32 34  1  0
 46 47  1  0
 25 26  1  0
 25 27  1  0
 25 28  1  0
 26 29  1  0
 26 30  2  0
 49 50  2  0
 49 54  1  0
 50 51  1  0
 51 52  1  0
 51 53  2  0
 54 55  1  0
 54 56  2  0
  3 57  1  0
  3 58  1  0
  4 59  1  0
  4 60  1  0
  5 61  1  0
  7 62  1  0
  7 63  1  0
  8 64  1  0
  8 65  1  0
  9 66  1  0
  9 67  1  0
 11 68  1  0
 11 69  1  0
 12 70  1  0
 13 71  1  0
 13 72  1  0
 14 73  1  1
 15 74  1  0
 15 75  1  0
 16 76  1  0
 19 77  1  0
 20 78  1  0
 21 79  1  0
 22 80  1  0
 24 81  1  0
 27 82  1  0
 27 83  1  0
 28 84  1  0
 28 85  1  0
 29 86  1  0
 31 87  1  0
 31 88  1  0
 32 89  1  0
 32 90  1  0
 33 91  1  0
 33 92  1  0
 35 93  1  0
 35 94  1  0
 36 95  1  0
 37 96  1  0
 37 97  1  0
 38 98  1  1
 39 99  1  0
 39100  1  0
 40101  1  0
 43102  1  0
 44103  1  0
 45104  1  0
 46105  1  0
 48106  1  0
 49107  1  0
 50108  1  0
 52109  1  0
 55110  1  0
M  END
> <Uni-Dock RESULT> 
ENERGY=   -3.803  LOWER_BOUND=    5.102  UPPER_BOUND=    7.934
INTER + INTRA:          -3.803
INTER:                  -3.803
INTRA:                   0.000
UNBOUND:                 0.000

$$$$

     RDKit          3D

110111  0  0  0  0  0  0  0  0999 V2000
   53.5822    9.8224    8.3318 N   0  0  0  0  0  0  0  0  0  0  0  0
   52.6831   10.0306    9.3570 C   0  0  0  0  0  0  0  0  0  0  0  0
   53.4763   10.6481    7.1273 C   0  0  0  0  0  0  0  0  0  0  0  0
   54.5324    8.7091    8.2468 C   0  0  0  0  0  0  0  0  0  0  0  0
   52.9176    9.2742   10.4775 N   0  0  0  0  0  0  0  0  0  0  0  0
   51.7521   10.8237    9.2731 O   0  0  0  0  0  0  0  0  0  0  0  0
   54.8066   10.6827    6.3691 C   0  0  0  0  0  0  0  0  0  0  0  0
   54.7861    8.3120    6.7892 C   0  0  0  0  0  0  0  0  0  0  0  0
   52.0748    9.4170   11.6547 C   0  0  0  0  0  0  0  0  0  0  0  0
   55.2992    9.3879    5.9903 O   0  0  0  0  0  0  0  0  0  0  0  0
   50.6804    8.7893   11.4734 C   0  0  0  0  0  0  0  0  0  0  0  0
   49.8416    8.8365   12.6803 N   0  0  0  0  0  0  0  0  0  0  0  0
   50.2838    7.8932   13.7178 C   0  0  0  0  0  0  0  0  0  0  0  0
   49.2409    7.7639   14.8445 C   0  0  1  0  0  0  0  0  0  0  0  0
   48.9576    9.0994   15.5451 C   0  0  0  0  0  0  0  0  0  0  0  0
   48.0215    7.2360   14.2932 O   0  0  0  0  0  0  0  0  0  0  0  0
   48.0721    8.8850   16.6548 O   0  0  0  0  0  0  0  0  0  0  0  0
   48.6147    8.6977   17.8942 C   0  0  0  0  0  0  0  0  0  0  0  0
   49.9529    8.4150   18.1773 C   0  0  0  0  0  0  0  0  0  0  0  0
   47.6965    8.7812   18.9462 C   0  0  0  0  0  0  0  0  0  0  0  0
   50.3708    8.2313   19.5005 C   0  0  0  0  0  0  0  0  0  0  0  0
   48.1102    8.6033   20.2667 C   0  0  0  0  0  0  0  0  0  0  0  0
   49.4458    8.3323   20.5339 C   0  0  0  0  0  0  0  0  0  0  0  0
   49.8137    8.1685   21.8356 O   0  0  0  0  0  0  0  0  0  0  0  0
   52.6743    9.6020    8.2153 N   0  0  0  0  0  0  0  0  0  0  0  0
   52.5040   10.1922    9.4528 C   0  0  0  0  0  0  0  0  0  0  0  0
   53.3526    8.3227    7.9771 C   0  0  0  0  0  0  0  0  0  0  0  0
   52.4513   10.4097    7.0116 C   0  0  0  0  0  0  0  0  0  0  0  0
   52.7910    9.3876   10.5253 N   0  0  0  0  0  0  0  0  0  0  0  0
   52.1398   11.3546    9.5946 O   0  0  0  0  0  0  0  0  0  0  0  0
   53.2831    7.9079    6.5034 C   0  0  0  0  0  0  0  0  0  0  0  0
   53.6132   10.2447    6.0270 C   0  0  0  0  0  0  0  0  0  0  0  0
   52.6233    9.8752   11.8841 C   0  0  0  0  0  0  0  0  0  0  0  0
   53.8374    8.8862    5.6146 O   0  0  0  0  0  0  0  0  0  0  0  0
   51.1420    9.9711   12.3066 C   0  0  0  0  0  0  0  0  0  0  0  0
   50.9187   10.4740   13.6712 N   0  0  0  0  0  0  0  0  0  0  0  0
   51.3466    9.5136   14.7044 C   0  0  0  0  0  0  0  0  0  0  0  0
   50.7625    9.9086   16.0778 C   0  0  1  0  0  0  0  0  0  0  0  0
   51.3202    9.0279   17.2026 C   0  0  0  0  0  0  0  0  0  0  0  0
   51.0672   11.2808   16.3589 O   0  0  0  0  0  0  0  0  0  0  0  0
   50.9751    7.6528   17.0251 O   0  0  0  0  0  0  0  0  0  0  0  0
   49.7818    7.2108   17.5262 C   0  0  0  0  0  0  0  0  0  0  0  0
   48.8043    7.9913   18.1479 C   0  0  0  0  0  0  0  0  0  0  0  0
   49.5607    5.8381   17.3728 C   0  0  0  0  0  0  0  0  0  0  0  0
   47.6234    7.4034   18.6177 C   0  0  0  0  0  0  0  0  0  0  0  0
   48.3835    5.2486   17.8376 C   0  0  0  0  0  0  0  0  0  0  0  0
   47.4251    6.0362   18.4602 C   0  0  0  0  0  0  0  0  0  0  0  0
   46.2927    5.4242   18.9087 O   0  0  0  0  0  0  0  0  0  0  0  0
   50.9309    8.3585   13.4350 C   0  0  0  0  0  0  0  0  0  0  0  0
   51.5171    9.1462   12.5240 C   0  0  0  0  0  0  0  0  0  0  0  0
   52.1337    8.5318   11.3462 C   0  0  0  0  0  0  0  0  0  0  0  0
   52.6619    9.4768   10.5543 O   0  0  0  0  0  0  0  0  0  0  0  0
   52.1848    7.3485   11.0738 O   0  0  0  0  0  0  0  0  0  0  0  0
   50.2791    8.8775   14.6402 C   0  0  0  0  0  0  0  0  0  0  0  0
   50.3239   10.2142   14.7472 O   0  0  0  0  0  0  0  0  0  0  0  0
   49.7389    8.1853   15.4836 O   0  0  0  0  0  0  0  0  0  0  0  0
   53.1633   11.6625    7.3954 H   0  0  0  0  0  0  0  0  0  0  0  0
   52.6910   10.2034    6.5036 H   0  0  0  0  0  0  0  0  0  0  0  0
   54.1604    7.8483    8.8103 H   0  0  0  0  0  0  0  0  0  0  0  0
   55.4623    9.0579    8.7095 H   0  0  0  0  0  0  0  0  0  0  0  0
   53.8972    9.1282   10.6633 H   0  0  0  0  0  0  0  0  0  0  0  0
   55.5787   11.1530    6.9894 H   0  0  0  0  0  0  0  0  0  0  0  0
   54.7102   11.2781    5.4557 H   0  0  0  0  0  0  0  0  0  0  0  0
   55.5083    7.4902    6.7415 H   0  0  0  0  0  0  0  0  0  0  0  0
   53.8588    7.9593    6.3209 H   0  0  0  0  0  0  0  0  0  0  0  0
   51.9898   10.4819   11.8996 H   0  0  0  0  0  0  0  0  0  0  0  0
   52.6146    8.9227   12.4689 H   0  0  0  0  0  0  0  0  0  0  0  0
   50.1477    9.3321   10.6845 H   0  0  0  0  0  0  0  0  0  0  0  0
   50.7738    7.7562   11.1150 H   0  0  0  0  0  0  0  0  0  0  0  0
   48.8901    8.5565   12.4164 H   0  0  0  0  0  0  0  0  0  0  0  0
   51.2355    8.2218   14.1480 H   0  0  0  0  0  0  0  0  0  0  0  0
   50.4254    6.9014   13.2704 H   0  0  0  0  0  0  0  0  0  0  0  0
   49.5927    7.0213   15.5687 H   0  0  0  0  0  0  0  0  0  0  0  0
   49.8681    9.6338   15.8380 H   0  0  0  0  0  0  0  0  0  0  0  0
   48.4091    9.7609   14.8656 H   0  0  0  0  0  0  0  0  0  0  0  0
   47.3517    7.3258   14.9983 H   0  0  0  0  0  0  0  0  0  0  0  0
   50.6974    8.3199   17.3952 H   0  0  0  0  0  0  0  0  0  0  0  0
   46.6514    8.9957   18.7368 H   0  0  0  0  0  0  0  0  0  0  0  0
   51.4150    8.0102   19.7018 H   0  0  0  0  0  0  0  0  0  0  0  0
   47.3920    8.6765   21.0795 H   0  0  0  0  0  0  0  0  0  0  0  0
   50.7655    7.9808   21.8737 H   0  0  0  0  0  0  0  0  0  0  0  0
   52.9014    7.5448    8.5990 H   0  0  0  0  0  0  0  0  0  0  0  0
   54.3979    8.4531    8.2835 H   0  0  0  0  0  0  0  0  0  0  0  0
   52.3110   11.4665    7.2547 H   0  0  0  0  0  0  0  0  0  0  0  0
   51.5225   10.0408    6.5617 H   0  0  0  0  0  0  0  0  0  0  0  0
   52.6506    8.3999   10.3938 H   0  0  0  0  0  0  0  0  0  0  0  0
   52.2438    7.7298    6.2012 H   0  0  0  0  0  0  0  0  0  0  0  0
   53.8326    6.9731    6.3488 H   0  0  0  0  0  0  0  0  0  0  0  0
   53.4318   10.8357    5.1234 H   0  0  0  0  0  0  0  0  0  0  0  0
   54.5466   10.6053    6.4768 H   0  0  0  0  0  0  0  0  0  0  0  0
   53.1677    9.1772   12.5298 H   0  0  0  0  0  0  0  0  0  0  0  0
   53.1034   10.8582   11.9631 H   0  0  0  0  0  0  0  0  0  0  0  0
   50.6524    8.9977   12.1791 H   0  0  0  0  0  0  0  0  0  0  0  0
   50.6172   10.6534   11.6274 H   0  0  0  0  0  0  0  0  0  0  0  0
   51.4545   11.3375   13.7801 H   0  0  0  0  0  0  0  0  0  0  0  0
   51.0162    8.4987   14.4533 H   0  0  0  0  0  0  0  0  0  0  0  0
   52.4411    9.5169   14.7545 H   0  0  0  0  0  0  0  0  0  0  0  0
   49.6706    9.8188   16.0360 H   0  0  0  0  0  0  0  0  0  0  0  0
   51.0505    9.4024   18.1978 H   0  0  0  0  0  0  0  0  0  0  0  0
   52.4166    9.0845   17.1866 H   0  0  0  0  0  0  0  0  0  0  0  0
   50.6235   11.7809   15.6476 H   0  0  0  0  0  0  0  0  0  0  0  0
   48.9218    9.0611   18.2832 H   0  0  0  0  0  0  0  0  0  0  0  0
   50.3132    5.2202   16.8904 H   0  0  0  0  0  0  0  0  0  0  0  0
   46.8775    8.0275   19.1002 H   0  0  0  0  0  0  0  0  0  0  0  0
   48.2180    4.1826   17.7150 H   0  0  0  0  0  0  0  0  0  0  0  0
   45.7494    6.0791   19.3788 H   0  0  0  0  0  0  0  0  0  0  0  0
   50.9028    7.2787   13.3290 H   0  0  0  0  0  0  0  0  0  0  0  0
   51.5561   10.2247   12.6072 H   0  0  0  0  0  0  0  0  0  0  0  0
   53.0369    8.9735    9.8009 H   0  0  0  0  0  0  0  0  0  0  0  0
   49.8515   10.3974   15.5868 H   0  0  0  0  0  0  0  0  0  0  0  0
  3  7  1  0
  4  8  1  0
  5  9  1  0
  7 10  1  0
  9 11  1  0
 11 12  1  0
 12 13  1  0
 13 14  1  0
 14 15  1  0
 14 16  1  0
 15 17  1  0
 17 18  1  0
 18 19  2  0
 18 20  1  0
 19 21  1  0
 20 22  2  0
 21 23  2  0
 23 24  1  0
  8 10  1  0
 22 23  1  0
  1  2  1  0
  1  3  1  0
  1  4  1  0
  2  5  1  0
  2  6  2  0
 27 31  1  0
 28 32  1  0
 29 33  1  0
 31 34  1  0
 33 35  1  0
 35 36  1  0
 36 37  1  0
 37 38  1  0
 38 39  1  0
 38 40  1  0
 39 41  1  0
 41 42  1  0
 42 43  2  0
 42 44  1  0
 43 45  1  0
 44 46  2  0
 45 47  2  0
 47 48  1  0
 32 34  1  0
 46 47  1  0
 25 26  1  0
 25 27  1  0
 25 28  1  0
 26 29  1  0
 26 30  2  0
 49 50  2  0
 49 54  1  0
 50 51  1  0
 51 52  1  0
 51 53  2  0
 54 55  1  0
 54 56  2  0
  3 57  1  0
  3 58  1  0
  4 59  1  0
  4 60  1  0
  5 61  1  0
  7 62  1  0
  7 63  1  0
  8 64  1  0
  8 65  1  0
  9 66  1  0
  9 67  1  0
 11 68  1  0
 11 69  1  0
 12 70  1  0
 13 71  1  0
 13 72  1  0
 14 73  1  1
 15 74  1  0
 15 75  1  0
 16 76  1  0
 19 77  1  0
 20 78  1  0
 21 79  1  0
 22 80  1  0
 24 81  1  0
 27 82  1  0
 27 83  1  0
 28 84  1  0
 28 85  1  0
 29 86  1  0
 31 87  1  0
 31 88  1  0
 32 89  1  0
 32 90  1  0
 33 91  1  0
 33 92  1  0
 35 93  1  0
 35 94  1  0
 36 95  1  0
 37 96  1  0
 37 97  1  0
 38 98  1  1
 39 99  1  0
 39100  1  0
 40101  1  0
 43102  1  0
 44103  1  0
 45104  1  0
 46105  1  0
 48106  1  0
 49107  1  0
 50108  1  0
 52109  1  0
 55110  1  0
M  END
> <Uni-Dock RESULT> 
ENERGY=   -3.763  LOWER_BOUND=    3.977  UPPER_BOUND=    8.178
INTER + INTRA:          -3.763
INTER:                  -3.763
INTRA:                   0.000
UNBOUND:                 0.000

$$$$
