
     RDKit          3D

 28 27  0  0  0  0  0  0  0  0999 V2000
   45.9320    3.1756    8.4870 Cl  0  0  0  0  0  0  0  0  0  0  0  0
   44.6273    4.3687    9.9647 C   0  0  0  0  0  0  0  0  0  0  0  0
   44.4059    3.7600    8.6288 C   0  0  0  0  0  0  0  0  0  0  0  0
   43.3376    4.9723   10.3454 N   0  0  0  0  0  0  0  0  0  0  0  0
   45.5262    3.0833    7.9985 C   0  0  0  0  0  0  0  0  0  0  0  0
   45.6249    5.4904    9.9505 C   0  0  0  0  0  0  0  0  0  0  0  0
   44.9215    3.3583   11.0496 C   0  0  0  0  0  0  0  0  0  0  0  0
   46.4403    3.7184    7.1558 C   0  0  0  0  0  0  0  0  0  0  0  0
   45.7405    1.7387    8.2136 C   0  0  0  0  0  0  0  0  0  0  0  0
   47.4890    3.0377    6.5787 C   0  0  0  0  0  0  0  0  0  0  0  0
   46.7914    1.0499    7.6372 C   0  0  0  0  0  0  0  0  0  0  0  0
   47.6900    1.6929    6.8037 C   0  0  0  0  0  0  0  0  0  0  0  0
   45.0786    3.7729    9.3722 H   0  0  0  0  0  0  0  0  0  0  0  0
   44.1087    4.6012    7.9475 H   0  0  0  0  0  0  0  0  0  0  0  0
   43.5129    3.0996    8.6673 H   0  0  0  0  0  0  0  0  0  0  0  0
   43.3341    5.3191   11.3109 H   0  0  0  0  0  0  0  0  0  0  0  0
   42.6218    4.2506   10.1349 H   0  0  0  0  0  0  0  0  0  0  0  0
   45.1532    6.4617    9.6206 H   0  0  0  0  0  0  0  0  0  0  0  0
   45.9568    5.6733   10.9958 H   0  0  0  0  0  0  0  0  0  0  0  0
   46.4673    5.3195    9.2804 H   0  0  0  0  0  0  0  0  0  0  0  0
   46.0261    3.2672   11.2311 H   0  0  0  0  0  0  0  0  0  0  0  0
   44.4521    2.3791   10.8362 H   0  0  0  0  0  0  0  0  0  0  0  0
   44.5002    3.6845   12.0423 H   0  0  0  0  0  0  0  0  0  0  0  0
   46.3255    4.7739    6.9477 H   0  0  0  0  0  0  0  0  0  0  0  0
   45.0798    1.1937    8.8464 H   0  0  0  0  0  0  0  0  0  0  0  0
   48.1853    3.5417    5.9314 H   0  0  0  0  0  0  0  0  0  0  0  0
   46.9183   -0.0057    7.8364 H   0  0  0  0  0  0  0  0  0  0  0  0
   48.5115    1.1748    6.3475 H   0  0  0  0  0  0  0  0  0  0  0  0
  3  2  1  0
  4  2  1  0
  5  3  1  0
  6  2  1  0
  7  2  1  0
  8  5  2  0
  9  5  1  0
 10  8  1  0
 11  9  2  0
 12 10  2  0
 11 12  1  0
  1 13  1  0
  3 14  1  0
  3 15  1  0
  4 16  1  0
  4 17  1  0
  6 18  1  0
  6 19  1  0
  6 20  1  0
  7 21  1  0
  7 22  1  0
  7 23  1  0
  8 24  1  0
  9 25  1  0
 10 26  1  0
 11 27  1  0
 12 28  1  0
M  END
> <Uni-Dock RESULT> 
ENERGY=   -6.264  LOWER_BOUND=    0.000  UPPER_BOUND=    0.000
INTER + INTRA:          -6.264
INTER:                  -6.264
INTRA:                   0.000
UNBOUND:                 0.000

$$$$

     RDKit          3D

 28 27  0  0  0  0  0  0  0  0999 V2000
   45.6431    3.0804    8.7808 Cl  0  0  0  0  0  0  0  0  0  0  0  0
   44.3782    4.1951   10.3515 C   0  0  0  0  0  0  0  0  0  0  0  0
   44.1060    3.6015    9.0181 C   0  0  0  0  0  0  0  0  0  0  0  0
   43.0895    4.7405   10.8146 N   0  0  0  0  0  0  0  0  0  0  0  0
   45.2144    2.9807    8.3137 C   0  0  0  0  0  0  0  0  0  0  0  0
   45.3295    5.3553   10.3042 C   0  0  0  0  0  0  0  0  0  0  0  0
   44.7712    3.1783   11.3984 C   0  0  0  0  0  0  0  0  0  0  0  0
   46.0549    3.6661    7.4345 C   0  0  0  0  0  0  0  0  0  0  0  0
   45.4919    1.6421    8.4902 C   0  0  0  0  0  0  0  0  0  0  0  0
   47.0950    3.0375    6.7870 C   0  0  0  0  0  0  0  0  0  0  0  0
   46.5346    1.0055    7.8432 C   0  0  0  0  0  0  0  0  0  0  0  0
   47.3598    1.6979    6.9741 C   0  0  0  0  0  0  0  0  0  0  0  0
   44.8183    3.6280    9.7234 H   0  0  0  0  0  0  0  0  0  0  0  0
   43.7390    4.4421    8.3710 H   0  0  0  0  0  0  0  0  0  0  0  0
   43.2426    2.9059    9.0929 H   0  0  0  0  0  0  0  0  0  0  0  0
   43.1268    5.0700   11.7854 H   0  0  0  0  0  0  0  0  0  0  0  0
   42.3914    3.9950   10.6298 H   0  0  0  0  0  0  0  0  0  0  0  0
   44.8032    6.3129   10.0200 H   0  0  0  0  0  0  0  0  0  0  0  0
   45.7122    5.5329   11.3330 H   0  0  0  0  0  0  0  0  0  0  0  0
   46.1391    5.2296    9.5854 H   0  0  0  0  0  0  0  0  0  0  0  0
   45.8870    3.1277   11.5168 H   0  0  0  0  0  0  0  0  0  0  0  0
   44.3287    2.1851   11.1920 H   0  0  0  0  0  0  0  0  0  0  0  0
   44.3940    3.4701   12.4190 H   0  0  0  0  0  0  0  0  0  0  0  0
   45.8881    4.7197    7.2538 H   0  0  0  0  0  0  0  0  0  0  0  0
   44.8891    1.0604    9.1477 H   0  0  0  0  0  0  0  0  0  0  0  0
   47.7341    3.5798    6.1123 H   0  0  0  0  0  0  0  0  0  0  0  0
   46.7130   -0.0476    8.0142 H   0  0  0  0  0  0  0  0  0  0  0  0
   48.1738    1.2207    6.4632 H   0  0  0  0  0  0  0  0  0  0  0  0
  3  2  1  0
  4  2  1  0
  5  3  1  0
  6  2  1  0
  7  2  1  0
  8  5  2  0
  9  5  1  0
 10  8  1  0
 11  9  2  0
 12 10  2  0
 11 12  1  0
  1 13  1  0
  3 14  1  0
  3 15  1  0
  4 16  1  0
  4 17  1  0
  6 18  1  0
  6 19  1  0
  6 20  1  0
  7 21  1  0
  7 22  1  0
  7 23  1  0
  8 24  1  0
  9 25  1  0
 10 26  1  0
 11 27  1  0
 12 28  1  0
M  END
> <Uni-Dock RESULT> 
ENERGY=   -5.807  LOWER_BOUND=    0.453  UPPER_BOUND=    0.453
INTER + INTRA:          -5.807
INTER:                  -5.807
INTRA:                   0.000
UNBOUND:                 0.000

$$$$

     RDKit          3D

 28 27  0  0  0  0  0  0  0  0999 V2000
   44.5488    4.5418   10.3100 Cl  0  0  0  0  0  0  0  0  0  0  0  0
   44.0818    6.0006   12.0314 C   0  0  0  0  0  0  0  0  0  0  0  0
   45.2532    5.1716   11.6508 C   0  0  0  0  0  0  0  0  0  0  0  0
   44.4825    6.7171   13.2556 N   0  0  0  0  0  0  0  0  0  0  0  0
   45.1410    4.3457   10.4611 C   0  0  0  0  0  0  0  0  0  0  0  0
   42.8727    5.1903   12.3991 C   0  0  0  0  0  0  0  0  0  0  0  0
   43.7574    7.0864   11.0314 C   0  0  0  0  0  0  0  0  0  0  0  0
   44.6722    3.0307   10.4722 C   0  0  0  0  0  0  0  0  0  0  0  0
   45.5056    4.8436    9.2284 C   0  0  0  0  0  0  0  0  0  0  0  0
   44.5822    2.2829    9.3194 C   0  0  0  0  0  0  0  0  0  0  0  0
   45.4174    4.0979    8.0677 C   0  0  0  0  0  0  0  0  0  0  0  0
   44.9508    2.7952    8.0941 C   0  0  0  0  0  0  0  0  0  0  0  0
   44.3738    5.4845   11.2844 H   0  0  0  0  0  0  0  0  0  0  0  0
   45.4377    4.4769   12.5130 H   0  0  0  0  0  0  0  0  0  0  0  0
   46.1601    5.8124   11.6061 H   0  0  0  0  0  0  0  0  0  0  0  0
   43.7927    7.4189   13.5455 H   0  0  0  0  0  0  0  0  0  0  0  0
   45.4321    7.0882   13.0604 H   0  0  0  0  0  0  0  0  0  0  0  0
   42.9243    4.8283   13.4673 H   0  0  0  0  0  0  0  0  0  0  0  0
   41.9840    5.8575   12.3651 H   0  0  0  0  0  0  0  0  0  0  0  0
   42.7372    4.3009   11.7839 H   0  0  0  0  0  0  0  0  0  0  0  0
   42.9360    6.7656   10.3357 H   0  0  0  0  0  0  0  0  0  0  0  0
   44.6588    7.4229   10.4846 H   0  0  0  0  0  0  0  0  0  0  0  0
   43.3516    8.0067   11.5388 H   0  0  0  0  0  0  0  0  0  0  0  0
   44.3705    2.5828   11.4097 H   0  0  0  0  0  0  0  0  0  0  0  0
   45.8716    5.8404    9.1493 H   0  0  0  0  0  0  0  0  0  0  0  0
   44.2187    1.2705    9.3446 H   0  0  0  0  0  0  0  0  0  0  0  0
   45.7157    4.5328    7.1232 H   0  0  0  0  0  0  0  0  0  0  0  0
   44.8754    2.2014    7.2036 H   0  0  0  0  0  0  0  0  0  0  0  0
  3  2  1  0
  4  2  1  0
  5  3  1  0
  6  2  1  0
  7  2  1  0
  8  5  2  0
  9  5  1  0
 10  8  1  0
 11  9  2  0
 12 10  2  0
 11 12  1  0
  1 13  1  0
  3 14  1  0
  3 15  1  0
  4 16  1  0
  4 17  1  0
  6 18  1  0
  6 19  1  0
  6 20  1  0
  7 21  1  0
  7 22  1  0
  7 23  1  0
  8 24  1  0
  9 25  1  0
 10 26  1  0
 11 27  1  0
 12 28  1  0
M  END
> <Uni-Dock RESULT> 
ENERGY=   -3.705  LOWER_BOUND=    2.096  UPPER_BOUND=    3.407
INTER + INTRA:          -3.705
INTER:                  -3.705
INTRA:                   0.000
UNBOUND:                 0.000

$$$$

     RDKit          3D

 28 27  0  0  0  0  0  0  0  0999 V2000
   45.1759    6.5473   12.2805 Cl  0  0  0  0  0  0  0  0  0  0  0  0
   43.9183    4.7591   11.5522 C   0  0  0  0  0  0  0  0  0  0  0  0
   44.9408    5.6404   10.9340 C   0  0  0  0  0  0  0  0  0  0  0  0
   43.5382    3.7949   10.5041 N   0  0  0  0  0  0  0  0  0  0  0  0
   45.5035    6.7018   11.7506 C   0  0  0  0  0  0  0  0  0  0  0  0
   42.6584    5.4823   11.9304 C   0  0  0  0  0  0  0  0  0  0  0  0
   44.4524    3.9140   12.6858 C   0  0  0  0  0  0  0  0  0  0  0  0
   44.9661    7.9881   11.8274 C   0  0  0  0  0  0  0  0  0  0  0  0
   46.6313    6.4750   12.5103 C   0  0  0  0  0  0  0  0  0  0  0  0
   45.5327    8.9650   12.6153 C   0  0  0  0  0  0  0  0  0  0  0  0
   47.2045    7.4517   13.3032 C   0  0  0  0  0  0  0  0  0  0  0  0
   46.6607    8.7226   13.3693 C   0  0  0  0  0  0  0  0  0  0  0  0
   44.5474    5.4201   11.8297 H   0  0  0  0  0  0  0  0  0  0  0  0
   44.4400    6.1339   10.0589 H   0  0  0  0  0  0  0  0  0  0  0  0
   45.7430    5.0164   10.4846 H   0  0  0  0  0  0  0  0  0  0  0  0
   42.9226    3.0531   10.8551 H   0  0  0  0  0  0  0  0  0  0  0  0
   44.4330    3.4661   10.0934 H   0  0  0  0  0  0  0  0  0  0  0  0
   41.9695    5.6079   11.0447 H   0  0  0  0  0  0  0  0  0  0  0  0
   42.0933    4.8450   12.6451 H   0  0  0  0  0  0  0  0  0  0  0  0
   42.8293    6.4835   12.3258 H   0  0  0  0  0  0  0  0  0  0  0  0
   44.2288    4.3824   13.6818 H   0  0  0  0  0  0  0  0  0  0  0  0
   45.5299    3.6944   12.5611 H   0  0  0  0  0  0  0  0  0  0  0  0
   43.9430    2.9101   12.7274 H   0  0  0  0  0  0  0  0  0  0  0  0
   44.0807    8.2283   11.2539 H   0  0  0  0  0  0  0  0  0  0  0  0
   47.0918    5.5150   12.4975 H   0  0  0  0  0  0  0  0  0  0  0  0
   45.1064    9.9518   12.6637 H   0  0  0  0  0  0  0  0  0  0  0  0
   48.0900    7.2255   13.8819 H   0  0  0  0  0  0  0  0  0  0  0  0
   47.0917    9.4932   13.9791 H   0  0  0  0  0  0  0  0  0  0  0  0
  3  2  1  0
  4  2  1  0
  5  3  1  0
  6  2  1  0
  7  2  1  0
  8  5  2  0
  9  5  1  0
 10  8  1  0
 11  9  2  0
 12 10  2  0
 11 12  1  0
  1 13  1  0
  3 14  1  0
  3 15  1  0
  4 16  1  0
  4 17  1  0
  6 18  1  0
  6 19  1  0
  6 20  1  0
  7 21  1  0
  7 22  1  0
  7 23  1  0
  8 24  1  0
  9 25  1  0
 10 26  1  0
 11 27  1  0
 12 28  1  0
M  END
> <Uni-Dock RESULT> 
ENERGY=   -3.687  LOWER_BOUND=    4.193  UPPER_BOUND=    5.841
INTER + INTRA:          -3.687
INTER:                  -3.687
INTRA:                   0.000
UNBOUND:                 0.000

$$$$

     RDKit          3D

 28 27  0  0  0  0  0  0  0  0999 V2000
   39.0035   11.8825   13.3273 Cl  0  0  0  0  0  0  0  0  0  0  0  0
   38.9248   11.0153   11.1939 C   0  0  0  0  0  0  0  0  0  0  0  0
   38.9623   12.3847   11.7663 C   0  0  0  0  0  0  0  0  0  0  0  0
   38.9021   11.1960    9.7313 N   0  0  0  0  0  0  0  0  0  0  0  0
   38.9909   12.5139   13.2129 C   0  0  0  0  0  0  0  0  0  0  0  0
   37.6752   10.2588   11.5403 C   0  0  0  0  0  0  0  0  0  0  0  0
   40.1734   10.2093   11.4690 C   0  0  0  0  0  0  0  0  0  0  0  0
   37.8451   12.6060   14.0054 C   0  0  0  0  0  0  0  0  0  0  0  0
   40.1927   12.5524   13.8869 C   0  0  0  0  0  0  0  0  0  0  0  0
   37.9183   12.7276   15.3750 C   0  0  0  0  0  0  0  0  0  0  0  0
   40.2726   12.6743   15.2616 C   0  0  0  0  0  0  0  0  0  0  0  0
   39.1281   12.7647   16.0345 C   0  0  0  0  0  0  0  0  0  0  0  0
   39.0778   11.4271   12.0405 H   0  0  0  0  0  0  0  0  0  0  0  0
   38.0284   12.8970   11.4122 H   0  0  0  0  0  0  0  0  0  0  0  0
   39.7923   12.9574   11.2993 H   0  0  0  0  0  0  0  0  0  0  0  0
   38.9998   10.3103    9.2229 H   0  0  0  0  0  0  0  0  0  0  0  0
   39.6351   11.9025    9.5287 H   0  0  0  0  0  0  0  0  0  0  0  0
   36.8198   10.5342   10.8567 H   0  0  0  0  0  0  0  0  0  0  0  0
   37.8587    9.1789   11.3491 H   0  0  0  0  0  0  0  0  0  0  0  0
   37.3215   10.4376   12.5556 H   0  0  0  0  0  0  0  0  0  0  0  0
   40.0317    9.5292   12.3515 H   0  0  0  0  0  0  0  0  0  0  0  0
   41.0634   10.8575   11.5811 H   0  0  0  0  0  0  0  0  0  0  0  0
   40.4123    9.5144   10.6151 H   0  0  0  0  0  0  0  0  0  0  0  0
   36.8712   12.5818   13.5348 H   0  0  0  0  0  0  0  0  0  0  0  0
   41.1054   12.4868   13.3423 H   0  0  0  0  0  0  0  0  0  0  0  0
   37.0258   12.7975   15.9719 H   0  0  0  0  0  0  0  0  0  0  0  0
   41.2398   12.6999   15.7455 H   0  0  0  0  0  0  0  0  0  0  0  0
   39.1706   12.8596   17.1024 H   0  0  0  0  0  0  0  0  0  0  0  0
  3  2  1  0
  4  2  1  0
  5  3  1  0
  6  2  1  0
  7  2  1  0
  8  5  2  0
  9  5  1  0
 10  8  1  0
 11  9  2  0
 12 10  2  0
 11 12  1  0
  1 13  1  0
  3 14  1  0
  3 15  1  0
  4 16  1  0
  4 17  1  0
  6 18  1  0
  6 19  1  0
  6 20  1  0
  7 21  1  0
  7 22  1  0
  7 23  1  0
  8 24  1  0
  9 25  1  0
 10 26  1  0
 11 27  1  0
 12 28  1  0
M  END
> <Uni-Dock RESULT> 
ENERGY=   -3.619  LOWER_BOUND=   10.109  UPPER_BOUND=   12.498
INTER + INTRA:          -3.619
INTER:                  -3.619
INTRA:                   0.000
UNBOUND:                 0.000

$$$$

     RDKit          3D

 28 27  0  0  0  0  0  0  0  0999 V2000
   45.9610    5.5741   12.3303 Cl  0  0  0  0  0  0  0  0  0  0  0  0
   44.0202    4.5585   11.6151 C   0  0  0  0  0  0  0  0  0  0  0  0
   44.3354    5.7013   12.5089 C   0  0  0  0  0  0  0  0  0  0  0  0
   42.5492    4.4687   11.5880 N   0  0  0  0  0  0  0  0  0  0  0  0
   45.7345    6.0270   12.7246 C   0  0  0  0  0  0  0  0  0  0  0  0
   44.5092    3.2395   12.1392 C   0  0  0  0  0  0  0  0  0  0  0  0
   44.4246    4.7852   10.1765 C   0  0  0  0  0  0  0  0  0  0  0  0
   46.5080    5.4809   13.7506 C   0  0  0  0  0  0  0  0  0  0  0  0
   46.3792    6.9205   11.8961 C   0  0  0  0  0  0  0  0  0  0  0  0
   47.8324    5.8182   13.9187 C   0  0  0  0  0  0  0  0  0  0  0  0
   47.7085    7.2630   12.0598 C   0  0  0  0  0  0  0  0  0  0  0  0
   48.4630    6.7134   13.0817 C   0  0  0  0  0  0  0  0  0  0  0  0
   44.7770    5.0904   11.8477 H   0  0  0  0  0  0  0  0  0  0  0  0
   43.9034    5.4418   13.5120 H   0  0  0  0  0  0  0  0  0  0  0  0
   43.7649    6.5962   12.1793 H   0  0  0  0  0  0  0  0  0  0  0  0
   42.2083    3.7873   10.9010 H   0  0  0  0  0  0  0  0  0  0  0  0
   42.2155    5.4412   11.4457 H   0  0  0  0  0  0  0  0  0  0  0  0
   43.7952    2.8032   12.8972 H   0  0  0  0  0  0  0  0  0  0  0  0
   44.5146    2.5121   11.2984 H   0  0  0  0  0  0  0  0  0  0  0  0
   45.4787    3.2965   12.6338 H   0  0  0  0  0  0  0  0  0  0  0  0
   45.4168    4.3083    9.9535 H   0  0  0  0  0  0  0  0  0  0  0  0
   44.4095    5.8594    9.9107 H   0  0  0  0  0  0  0  0  0  0  0  0
   43.7080    4.2881    9.4633 H   0  0  0  0  0  0  0  0  0  0  0  0
   46.0587    4.7731   14.4345 H   0  0  0  0  0  0  0  0  0  0  0  0
   45.8469    7.3740   11.0931 H   0  0  0  0  0  0  0  0  0  0  0  0
   48.4152    5.3884   14.7146 H   0  0  0  0  0  0  0  0  0  0  0  0
   48.1707    7.9695   11.3835 H   0  0  0  0  0  0  0  0  0  0  0  0
   49.4957    6.9672   13.2242 H   0  0  0  0  0  0  0  0  0  0  0  0
  3  2  1  0
  4  2  1  0
  5  3  1  0
  6  2  1  0
  7  2  1  0
  8  5  2  0
  9  5  1  0
 10  8  1  0
 11  9  2  0
 12 10  2  0
 11 12  1  0
  1 13  1  0
  3 14  1  0
  3 15  1  0
  4 16  1  0
  4 17  1  0
  6 18  1  0
  6 19  1  0
  6 20  1  0
  7 21  1  0
  7 22  1  0
  7 23  1  0
  8 24  1  0
  9 25  1  0
 10 26  1  0
 11 27  1  0
 12 28  1  0
M  END
> <Uni-Dock RESULT> 
ENERGY=   -3.377  LOWER_BOUND=    3.548  UPPER_BOUND=    5.503
INTER + INTRA:          -3.377
INTER:                  -3.377
INTRA:                   0.000
UNBOUND:                 0.000

$$$$

     RDKit          3D

 28 27  0  0  0  0  0  0  0  0999 V2000
   45.6330    5.2570   11.7739 Cl  0  0  0  0  0  0  0  0  0  0  0  0
   46.7658    6.8692   12.9685 C   0  0  0  0  0  0  0  0  0  0  0  0
   45.3490    6.6582   12.5781 C   0  0  0  0  0  0  0  0  0  0  0  0
   46.7800    8.1148   13.7565 N   0  0  0  0  0  0  0  0  0  0  0  0
   45.0332    5.4854   11.7813 C   0  0  0  0  0  0  0  0  0  0  0  0
   47.6773    7.1048   11.7992 C   0  0  0  0  0  0  0  0  0  0  0  0
   47.3009    5.8090   13.9034 C   0  0  0  0  0  0  0  0  0  0  0  0
   45.0410    5.4721   10.3852 C   0  0  0  0  0  0  0  0  0  0  0  0
   44.7008    4.2951   12.3920 C   0  0  0  0  0  0  0  0  0  0  0  0
   44.7347    4.3367    9.6689 C   0  0  0  0  0  0  0  0  0  0  0  0
   44.3924    3.1520   11.6783 C   0  0  0  0  0  0  0  0  0  0  0  0
   44.4043    3.1538   10.2943 C   0  0  0  0  0  0  0  0  0  0  0  0
   46.2290    6.1776   12.5899 H   0  0  0  0  0  0  0  0  0  0  0  0
   45.0561    7.5542   11.9687 H   0  0  0  0  0  0  0  0  0  0  0  0
   44.7052    6.7098   13.4825 H   0  0  0  0  0  0  0  0  0  0  0  0
   47.6928    8.2987   14.1871 H   0  0  0  0  0  0  0  0  0  0  0  0
   45.9887    8.0293   14.4228 H   0  0  0  0  0  0  0  0  0  0  0  0
   47.6441    8.1802   11.4566 H   0  0  0  0  0  0  0  0  0  0  0  0
   48.7243    6.9437   12.1370 H   0  0  0  0  0  0  0  0  0  0  0  0
   47.4345    6.5006   10.9252 H   0  0  0  0  0  0  0  0  0  0  0  0
   47.8770    5.0254   13.3417 H   0  0  0  0  0  0  0  0  0  0  0  0
   46.4991    5.3698   14.5271 H   0  0  0  0  0  0  0  0  0  0  0  0
   48.0470    6.2384   14.6302 H   0  0  0  0  0  0  0  0  0  0  0  0
   45.2939    6.3763    9.8474 H   0  0  0  0  0  0  0  0  0  0  0  0
   44.6760    4.2363   13.4549 H   0  0  0  0  0  0  0  0  0  0  0  0
   44.7452    4.3427    8.5930 H   0  0  0  0  0  0  0  0  0  0  0  0
   44.1377    2.2409   12.2029 H   0  0  0  0  0  0  0  0  0  0  0  0
   44.1678    2.2764    9.7238 H   0  0  0  0  0  0  0  0  0  0  0  0
  3  2  1  0
  4  2  1  0
  5  3  1  0
  6  2  1  0
  7  2  1  0
  8  5  2  0
  9  5  1  0
 10  8  1  0
 11  9  2  0
 12 10  2  0
 11 12  1  0
  1 13  1  0
  3 14  1  0
  3 15  1  0
  4 16  1  0
  4 17  1  0
  6 18  1  0
  6 19  1  0
  6 20  1  0
  7 21  1  0
  7 22  1  0
  7 23  1  0
  8 24  1  0
  9 25  1  0
 10 26  1  0
 11 27  1  0
 12 28  1  0
M  END
> <Uni-Dock RESULT> 
ENERGY=   -3.349  LOWER_BOUND=    3.343  UPPER_BOUND=    4.607
INTER + INTRA:          -3.349
INTER:                  -3.349
INTRA:                   0.000
UNBOUND:                 0.000

$$$$
