
     RDKit          3D

 28 27  0  0  0  0  0  0  0  0999 V2000
   45.9007    3.0588    8.5249 Cl  0  0  0  0  0  0  0  0  0  0  0  0
   44.6185    4.3302    9.9357 C   0  0  0  0  0  0  0  0  0  0  0  0
   44.3651    3.7439    8.5755 C   0  0  0  0  0  0  0  0  0  0  0  0
   43.3754    4.9570   10.3768 N   0  0  0  0  0  0  0  0  0  0  0  0
   45.5268    3.0611    7.9663 C   0  0  0  0  0  0  0  0  0  0  0  0
   45.6236    5.4809    9.8707 C   0  0  0  0  0  0  0  0  0  0  0  0
   45.0141    3.3338   10.9767 C   0  0  0  0  0  0  0  0  0  0  0  0
   45.6827    1.6946    8.2258 C   0  0  0  0  0  0  0  0  0  0  0  0
   46.4479    3.7158    7.1630 C   0  0  0  0  0  0  0  0  0  0  0  0
   46.7661    1.0461    7.6608 C   0  0  0  0  0  0  0  0  0  0  0  0
   47.5069    3.0380    6.6224 C   0  0  0  0  0  0  0  0  0  0  0  0
   47.6876    1.6928    6.8593 C   0  0  0  0  0  0  0  0  0  0  0  0
   45.2399    3.7851    9.4834 H   0  0  0  0  0  0  0  0  0  0  0  0
   43.5277    3.0242    8.6885 H   0  0  0  0  0  0  0  0  0  0  0  0
   43.9901    4.5611    7.9325 H   0  0  0  0  0  0  0  0  0  0  0  0
   42.6224    4.2547   10.5457 H   0  0  0  0  0  0  0  0  0  0  0  0
   43.5318    5.5843   11.1967 H   0  0  0  0  0  0  0  0  0  0  0  0
   45.4080    6.2530   10.6436 H   0  0  0  0  0  0  0  0  0  0  0  0
   45.5538    6.0142    8.9048 H   0  0  0  0  0  0  0  0  0  0  0  0
   46.6218    5.0686   10.1039 H   0  0  0  0  0  0  0  0  0  0  0  0
   46.1141    3.2817   11.1154 H   0  0  0  0  0  0  0  0  0  0  0  0
   44.6384    3.7040   11.9747 H   0  0  0  0  0  0  0  0  0  0  0  0
   44.5133    2.3744   10.8289 H   0  0  0  0  0  0  0  0  0  0  0  0
   45.0109    1.1349    8.8338 H   0  0  0  0  0  0  0  0  0  0  0  0
   46.2908    4.7591    6.9907 H   0  0  0  0  0  0  0  0  0  0  0  0
   46.9167   -0.0265    7.8453 H   0  0  0  0  0  0  0  0  0  0  0  0
   48.2336    3.5303    5.9951 H   0  0  0  0  0  0  0  0  0  0  0  0
   48.5231    1.1292    6.4406 H   0  0  0  0  0  0  0  0  0  0  0  0
  3  2  1  0
  4  2  1  0
  5  3  1  0
  6  2  1  0
  7  2  1  0
  8  5  2  0
  9  5  1  0
 10  8  1  0
 11  9  2  0
 12 10  2  0
 11 12  1  0
  1 13  1  0
  3 14  1  0
  3 15  1  0
  4 16  1  0
  4 17  1  0
  6 18  1  0
  6 19  1  0
  6 20  1  0
  7 21  1  0
  7 22  1  0
  7 23  1  0
  8 24  1  0
  9 25  1  0
 10 26  1  0
 11 27  1  0
 12 28  1  0
M  END
> <Uni-Dock RESULT> 
ENERGY=   -6.089  LOWER_BOUND=    0.000  UPPER_BOUND=    0.000
INTER + INTRA:          -6.089
INTER:                  -6.089
INTRA:                   0.000
UNBOUND:                 0.000

$$$$

     RDKit          3D

 28 27  0  0  0  0  0  0  0  0999 V2000
   45.6498    3.3552    8.6063 Cl  0  0  0  0  0  0  0  0  0  0  0  0
   46.6606    2.7256    6.6486 C   0  0  0  0  0  0  0  0  0  0  0  0
   45.2323    3.0197    7.0116 C   0  0  0  0  0  0  0  0  0  0  0  0
   46.7007    2.4777    5.2099 N   0  0  0  0  0  0  0  0  0  0  0  0
   44.9997    3.2981    8.4453 C   0  0  0  0  0  0  0  0  0  0  0  0
   47.1387    1.4150    7.2747 C   0  0  0  0  0  0  0  0  0  0  0  0
   47.6162    3.8367    6.9406 C   0  0  0  0  0  0  0  0  0  0  0  0
   45.0953    4.6285    8.8692 C   0  0  0  0  0  0  0  0  0  0  0  0
   44.6962    2.3057    9.3647 C   0  0  0  0  0  0  0  0  0  0  0  0
   44.8795    4.9002   10.2083 C   0  0  0  0  0  0  0  0  0  0  0  0
   44.4897    2.6157   10.6816 C   0  0  0  0  0  0  0  0  0  0  0  0
   44.5767    3.9156   11.1297 C   0  0  0  0  0  0  0  0  0  0  0  0
   46.3937    3.0165    7.5041 H   0  0  0  0  0  0  0  0  0  0  0  0
   44.9230    3.8977    6.4071 H   0  0  0  0  0  0  0  0  0  0  0  0
   44.6237    2.1672    6.6586 H   0  0  0  0  0  0  0  0  0  0  0  0
   46.4762    3.3354    4.6594 H   0  0  0  0  0  0  0  0  0  0  0  0
   47.6030    2.0389    4.9211 H   0  0  0  0  0  0  0  0  0  0  0  0
   47.8824    0.9012    6.6243 H   0  0  0  0  0  0  0  0  0  0  0  0
   46.3040    0.6974    7.3785 H   0  0  0  0  0  0  0  0  0  0  0  0
   47.6593    1.6631    8.2172 H   0  0  0  0  0  0  0  0  0  0  0  0
   48.1401    3.6997    7.9094 H   0  0  0  0  0  0  0  0  0  0  0  0
   48.4489    3.7897    6.1799 H   0  0  0  0  0  0  0  0  0  0  0  0
   47.1560    4.8158    6.7896 H   0  0  0  0  0  0  0  0  0  0  0  0
   45.3249    5.4358    8.2135 H   0  0  0  0  0  0  0  0  0  0  0  0
   44.6331    1.3035    8.9981 H   0  0  0  0  0  0  0  0  0  0  0  0
   44.9473    5.9344   10.5730 H   0  0  0  0  0  0  0  0  0  0  0  0
   44.2526    1.8573   11.4114 H   0  0  0  0  0  0  0  0  0  0  0  0
   44.4166    4.1895   12.1739 H   0  0  0  0  0  0  0  0  0  0  0  0
  3  2  1  0
  4  2  1  0
  5  3  1  0
  6  2  1  0
  7  2  1  0
  8  5  2  0
  9  5  1  0
 10  8  1  0
 11  9  2  0
 12 10  2  0
 11 12  1  0
  1 13  1  0
  3 14  1  0
  3 15  1  0
  4 16  1  0
  4 17  1  0
  6 18  1  0
  6 19  1  0
  6 20  1  0
  7 21  1  0
  7 22  1  0
  7 23  1  0
  8 24  1  0
  9 25  1  0
 10 26  1  0
 11 27  1  0
 12 28  1  0
M  END
> <Uni-Dock RESULT> 
ENERGY=   -3.984  LOWER_BOUND=    2.113  UPPER_BOUND=    4.258
INTER + INTRA:          -3.984
INTER:                  -3.984
INTRA:                   0.000
UNBOUND:                 0.000

$$$$

     RDKit          3D

 28 27  0  0  0  0  0  0  0  0999 V2000
   45.1972    6.4900   12.3197 Cl  0  0  0  0  0  0  0  0  0  0  0  0
   43.8869    4.7453   11.6197 C   0  0  0  0  0  0  0  0  0  0  0  0
   44.9182    5.5901   10.9261 C   0  0  0  0  0  0  0  0  0  0  0  0
   43.4674    3.7114   10.6775 N   0  0  0  0  0  0  0  0  0  0  0  0
   45.4619    6.6998   11.7385 C   0  0  0  0  0  0  0  0  0  0  0  0
   42.6123    5.5405   11.9056 C   0  0  0  0  0  0  0  0  0  0  0  0
   44.3757    4.0583   12.8535 C   0  0  0  0  0  0  0  0  0  0  0  0
   46.5960    6.4368   12.5154 C   0  0  0  0  0  0  0  0  0  0  0  0
   44.8974    7.9660   11.7561 C   0  0  0  0  0  0  0  0  0  0  0  0
   47.1129    7.4678   13.2792 C   0  0  0  0  0  0  0  0  0  0  0  0
   45.4392    8.9596   12.5256 C   0  0  0  0  0  0  0  0  0  0  0  0
   46.5551    8.7320   13.3010 C   0  0  0  0  0  0  0  0  0  0  0  0
   44.3830    5.4176   12.0553 H   0  0  0  0  0  0  0  0  0  0  0  0
   45.7421    4.9085   10.6283 H   0  0  0  0  0  0  0  0  0  0  0  0
   44.4623    5.9575    9.9886 H   0  0  0  0  0  0  0  0  0  0  0  0
   44.2375    3.0395   10.4665 H   0  0  0  0  0  0  0  0  0  0  0  0
   42.5936    3.2355   10.9939 H   0  0  0  0  0  0  0  0  0  0  0  0
   41.7092    4.8906   11.8609 H   0  0  0  0  0  0  0  0  0  0  0  0
   42.4470    6.3152   11.1343 H   0  0  0  0  0  0  0  0  0  0  0  0
   42.6787    5.9208   12.9409 H   0  0  0  0  0  0  0  0  0  0  0  0
   44.1173    4.6156   13.7779 H   0  0  0  0  0  0  0  0  0  0  0  0
   43.8078    3.0887   12.9610 H   0  0  0  0  0  0  0  0  0  0  0  0
   45.4223    3.7595   12.7620 H   0  0  0  0  0  0  0  0  0  0  0  0
   47.0762    5.4866   12.5457 H   0  0  0  0  0  0  0  0  0  0  0  0
   44.0323    8.1232   11.1481 H   0  0  0  0  0  0  0  0  0  0  0  0
   48.0025    7.2938   13.9000 H   0  0  0  0  0  0  0  0  0  0  0  0
   45.0140    9.9508   12.5521 H   0  0  0  0  0  0  0  0  0  0  0  0
   47.0065    9.5066   13.9233 H   0  0  0  0  0  0  0  0  0  0  0  0
  3  2  1  0
  4  2  1  0
  5  3  1  0
  6  2  1  0
  7  2  1  0
  8  5  2  0
  9  5  1  0
 10  8  1  0
 11  9  2  0
 12 10  2  0
 11 12  1  0
  1 13  1  0
  3 14  1  0
  3 15  1  0
  4 16  1  0
  4 17  1  0
  6 18  1  0
  6 19  1  0
  6 20  1  0
  7 21  1  0
  7 22  1  0
  7 23  1  0
  8 24  1  0
  9 25  1  0
 10 26  1  0
 11 27  1  0
 12 28  1  0
M  END
> <Uni-Dock RESULT> 
ENERGY=   -3.697  LOWER_BOUND=    4.183  UPPER_BOUND=    5.838
INTER + INTRA:          -3.697
INTER:                  -3.697
INTRA:                   0.000
UNBOUND:                 0.000

$$$$

     RDKit          3D

 28 27  0  0  0  0  0  0  0  0999 V2000
   44.5748    4.6408   10.3318 Cl  0  0  0  0  0  0  0  0  0  0  0  0
   44.1777    6.0701   12.0783 C   0  0  0  0  0  0  0  0  0  0  0  0
   45.3732    5.2508   11.6809 C   0  0  0  0  0  0  0  0  0  0  0  0
   44.5655    6.8708   13.2364 N   0  0  0  0  0  0  0  0  0  0  0  0
   45.1624    4.3690   10.5126 C   0  0  0  0  0  0  0  0  0  0  0  0
   43.0389    5.1868   12.5895 C   0  0  0  0  0  0  0  0  0  0  0  0
   43.6918    7.0104   11.0234 C   0  0  0  0  0  0  0  0  0  0  0  0
   45.4439    4.8951    9.2465 C   0  0  0  0  0  0  0  0  0  0  0  0
   44.7047    3.0654   10.6269 C   0  0  0  0  0  0  0  0  0  0  0  0
   45.2503    4.0788    8.1467 C   0  0  0  0  0  0  0  0  0  0  0  0
   44.5261    2.2895    9.5137 C   0  0  0  0  0  0  0  0  0  0  0  0
   44.7944    2.7786    8.2540 C   0  0  0  0  0  0  0  0  0  0  0  0
   44.2090    5.5464   11.2955 H   0  0  0  0  0  0  0  0  0  0  0  0
   46.1934    5.9665   11.4638 H   0  0  0  0  0  0  0  0  0  0  0  0
   45.6867    4.6774   12.5723 H   0  0  0  0  0  0  0  0  0  0  0  0
   45.2863    7.5852   12.9936 H   0  0  0  0  0  0  0  0  0  0  0  0
   43.7336    7.2843   13.7129 H   0  0  0  0  0  0  0  0  0  0  0  0
   42.4428    5.7056   13.3740 H   0  0  0  0  0  0  0  0  0  0  0  0
   43.4321    4.2782   13.0817 H   0  0  0  0  0  0  0  0  0  0  0  0
   42.3539    4.9985   11.7432 H   0  0  0  0  0  0  0  0  0  0  0  0
   42.8453    6.5909   10.4408 H   0  0  0  0  0  0  0  0  0  0  0  0
   43.2406    7.9083   11.5374 H   0  0  0  0  0  0  0  0  0  0  0  0
   44.5160    7.4136   10.4306 H   0  0  0  0  0  0  0  0  0  0  0  0
   45.7978    5.8877    9.0915 H   0  0  0  0  0  0  0  0  0  0  0  0
   44.5021    2.7039   11.6124 H   0  0  0  0  0  0  0  0  0  0  0  0
   45.4621    4.4618    7.1389 H   0  0  0  0  0  0  0  0  0  0  0  0
   44.1708    1.2732    9.5829 H   0  0  0  0  0  0  0  0  0  0  0  0
   44.6604    2.1811    7.3506 H   0  0  0  0  0  0  0  0  0  0  0  0
  3  2  1  0
  4  2  1  0
  5  3  1  0
  6  2  1  0
  7  2  1  0
  8  5  2  0
  9  5  1  0
 10  8  1  0
 11  9  2  0
 12 10  2  0
 11 12  1  0
  1 13  1  0
  3 14  1  0
  3 15  1  0
  4 16  1  0
  4 17  1  0
  6 18  1  0
  6 19  1  0
  6 20  1  0
  7 21  1  0
  7 22  1  0
  7 23  1  0
  8 24  1  0
  9 25  1  0
 10 26  1  0
 11 27  1  0
 12 28  1  0
M  END
> <Uni-Dock RESULT> 
ENERGY=   -3.641  LOWER_BOUND=    2.160  UPPER_BOUND=    3.501
INTER + INTRA:          -3.641
INTER:                  -3.641
INTRA:                   0.000
UNBOUND:                 0.000

$$$$

     RDKit          3D

 28 27  0  0  0  0  0  0  0  0999 V2000
   45.9390    5.6529   12.2623 Cl  0  0  0  0  0  0  0  0  0  0  0  0
   44.0112    4.5930   11.6211 C   0  0  0  0  0  0  0  0  0  0  0  0
   44.2878    5.7191   12.5770 C   0  0  0  0  0  0  0  0  0  0  0  0
   42.5618    4.4284   11.5518 N   0  0  0  0  0  0  0  0  0  0  0  0
   45.7201    6.0304   12.7736 C   0  0  0  0  0  0  0  0  0  0  0  0
   44.5209    3.2583   12.1662 C   0  0  0  0  0  0  0  0  0  0  0  0
   44.5047    4.8251   10.2298 C   0  0  0  0  0  0  0  0  0  0  0  0
   46.2991    6.9761   11.9195 C   0  0  0  0  0  0  0  0  0  0  0  0
   46.4927    5.4294   13.7554 C   0  0  0  0  0  0  0  0  0  0  0  0
   47.6383    7.2748   12.0947 C   0  0  0  0  0  0  0  0  0  0  0  0
   47.8151    5.7525   13.8963 C   0  0  0  0  0  0  0  0  0  0  0  0
   48.4139    6.6793   13.0714 C   0  0  0  0  0  0  0  0  0  0  0  0
   44.8697    4.9566   11.7576 H   0  0  0  0  0  0  0  0  0  0  0  0
   43.7640    6.6128   12.1784 H   0  0  0  0  0  0  0  0  0  0  0  0
   43.7915    5.4660   13.5317 H   0  0  0  0  0  0  0  0  0  0  0  0
   42.0961    5.2503   11.1085 H   0  0  0  0  0  0  0  0  0  0  0  0
   42.2994    3.5248   11.0993 H   0  0  0  0  0  0  0  0  0  0  0  0
   43.8790    2.4115   11.8332 H   0  0  0  0  0  0  0  0  0  0  0  0
   44.4739    3.2371   13.2706 H   0  0  0  0  0  0  0  0  0  0  0  0
   45.5248    3.0824   11.7393 H   0  0  0  0  0  0  0  0  0  0  0  0
   45.4912    4.3503   10.0467 H   0  0  0  0  0  0  0  0  0  0  0  0
   43.8141    4.2838    9.5198 H   0  0  0  0  0  0  0  0  0  0  0  0
   44.4293    5.8768    9.9444 H   0  0  0  0  0  0  0  0  0  0  0  0
   45.7605    7.4728   11.1466 H   0  0  0  0  0  0  0  0  0  0  0  0
   46.0104    4.7130   14.3855 H   0  0  0  0  0  0  0  0  0  0  0  0
   48.1227    8.0129   11.4406 H   0  0  0  0  0  0  0  0  0  0  0  0
   48.4320    5.2954   14.6542 H   0  0  0  0  0  0  0  0  0  0  0  0
   49.4659    6.9547   13.1626 H   0  0  0  0  0  0  0  0  0  0  0  0
  3  2  1  0
  4  2  1  0
  5  3  1  0
  6  2  1  0
  7  2  1  0
  8  5  2  0
  9  5  1  0
 10  8  1  0
 11  9  2  0
 12 10  2  0
 11 12  1  0
  1 13  1  0
  3 14  1  0
  3 15  1  0
  4 16  1  0
  4 17  1  0
  6 18  1  0
  6 19  1  0
  6 20  1  0
  7 21  1  0
  7 22  1  0
  7 23  1  0
  8 24  1  0
  9 25  1  0
 10 26  1  0
 11 27  1  0
 12 28  1  0
M  END
> <Uni-Dock RESULT> 
ENERGY=   -3.381  LOWER_BOUND=    3.561  UPPER_BOUND=    5.512
INTER + INTRA:          -3.381
INTER:                  -3.381
INTRA:                   0.000
UNBOUND:                 0.000

$$$$

     RDKit          3D

 28 27  0  0  0  0  0  0  0  0999 V2000
   54.0144    6.5371    8.2596 Cl  0  0  0  0  0  0  0  0  0  0  0  0
   53.2643    8.1531    6.8185 C   0  0  0  0  0  0  0  0  0  0  0  0
   52.7155    6.8153    7.2275 C   0  0  0  0  0  0  0  0  0  0  0  0
   52.2775    8.7775    5.9415 N   0  0  0  0  0  0  0  0  0  0  0  0
   53.5905    6.0326    8.1269 C   0  0  0  0  0  0  0  0  0  0  0  0
   54.5103    8.0034    5.9447 C   0  0  0  0  0  0  0  0  0  0  0  0
   53.5170    9.0928    7.9526 C   0  0  0  0  0  0  0  0  0  0  0  0
   53.4292    6.2148    9.5052 C   0  0  0  0  0  0  0  0  0  0  0  0
   54.5456    5.1427    7.6601 C   0  0  0  0  0  0  0  0  0  0  0  0
   54.2425    5.4876   10.3556 C   0  0  0  0  0  0  0  0  0  0  0  0
   55.3311    4.4418    8.5346 C   0  0  0  0  0  0  0  0  0  0  0  0
   55.1964    4.5990    9.8967 C   0  0  0  0  0  0  0  0  0  0  0  0
   53.6726    7.6020    7.4646 H   0  0  0  0  0  0  0  0  0  0  0  0
   51.7439    7.0078    7.7284 H   0  0  0  0  0  0  0  0  0  0  0  0
   52.4842    6.2600    6.3001 H   0  0  0  0  0  0  0  0  0  0  0  0
   51.3978    9.0151    6.4501 H   0  0  0  0  0  0  0  0  0  0  0  0
   52.6802    9.5943    5.4309 H   0  0  0  0  0  0  0  0  0  0  0  0
   54.5862    8.8280    5.2003 H   0  0  0  0  0  0  0  0  0  0  0  0
   54.4638    7.0769    5.3431 H   0  0  0  0  0  0  0  0  0  0  0  0
   55.3940    8.0874    6.6026 H   0  0  0  0  0  0  0  0  0  0  0  0
   54.5776    9.0843    8.2799 H   0  0  0  0  0  0  0  0  0  0  0  0
   53.3648   10.1453    7.5740 H   0  0  0  0  0  0  0  0  0  0  0  0
   52.7787    8.9735    8.7486 H   0  0  0  0  0  0  0  0  0  0  0  0
   52.7144    6.8824    9.9268 H   0  0  0  0  0  0  0  0  0  0  0  0
   54.6353    5.0343    6.6004 H   0  0  0  0  0  0  0  0  0  0  0  0
   54.1409    5.6077   11.4430 H   0  0  0  0  0  0  0  0  0  0  0  0
   56.0794    3.7451    8.1902 H   0  0  0  0  0  0  0  0  0  0  0  0
   55.8097    4.0526   10.6151 H   0  0  0  0  0  0  0  0  0  0  0  0
  3  2  1  0
  4  2  1  0
  5  3  1  0
  6  2  1  0
  7  2  1  0
  8  5  2  0
  9  5  1  0
 10  8  1  0
 11  9  2  0
 12 10  2  0
 11 12  1  0
  1 13  1  0
  3 14  1  0
  3 15  1  0
  4 16  1  0
  4 17  1  0
  6 18  1  0
  6 19  1  0
  6 20  1  0
  7 21  1  0
  7 22  1  0
  7 23  1  0
  8 24  1  0
  9 25  1  0
 10 26  1  0
 11 27  1  0
 12 28  1  0
M  END
> <Uni-Dock RESULT> 
ENERGY=   -3.134  LOWER_BOUND=    8.397  UPPER_BOUND=    9.285
INTER + INTRA:          -3.134
INTER:                  -3.134
INTRA:                   0.000
UNBOUND:                 0.000

$$$$
