
     RDKit          3D

 28 27  0  0  0  0  0  0  0  0999 V2000
   45.7788    3.2112    8.4668 Cl  0  0  0  0  0  0  0  0  0  0  0  0
   44.7701    4.4601    9.9956 C   0  0  0  0  0  0  0  0  0  0  0  0
   44.3860    3.8215    8.6781 C   0  0  0  0  0  0  0  0  0  0  0  0
   45.8691    5.3693    9.8686 N   0  0  0  0  0  0  0  0  0  0  0  0
   45.4928    3.0394    8.0663 C   0  0  0  0  0  0  0  0  0  0  0  0
   43.5141    5.1332   10.5223 C   0  0  0  0  0  0  0  0  0  0  0  0
   45.1361    3.3968   11.0075 C   0  0  0  0  0  0  0  0  0  0  0  0
   45.6982    1.6983    8.3168 C   0  0  0  0  0  0  0  0  0  0  0  0
   46.3336    3.7436    7.2062 C   0  0  0  0  0  0  0  0  0  0  0  0
   46.7684    1.0486    7.6929 C   0  0  0  0  0  0  0  0  0  0  0  0
   47.4005    3.1124    6.5792 C   0  0  0  0  0  0  0  0  0  0  0  0
   47.5926    1.7638    6.8424 C   0  0  0  0  0  0  0  0  0  0  0  0
   45.1912    3.8676    9.5287 H   0  0  0  0  0  0  0  0  0  0  0  0
   44.0435    4.6396    7.9980 H   0  0  0  0  0  0  0  0  0  0  0  0
   43.4848    3.1927    8.8332 H   0  0  0  0  0  0  0  0  0  0  0  0
   45.5714    6.3650   10.0243 H   0  0  0  0  0  0  0  0  0  0  0  0
   46.6785    5.1532   10.4911 H   0  0  0  0  0  0  0  0  0  0  0  0
   42.6637    4.4738   10.2498 H   0  0  0  0  0  0  0  0  0  0  0  0
   43.3393    6.0983    9.9729 H   0  0  0  0  0  0  0  0  0  0  0  0
   43.5231    5.2727   11.6228 H   0  0  0  0  0  0  0  0  0  0  0  0
   45.0006    3.7823   12.0479 H   0  0  0  0  0  0  0  0  0  0  0  0
   44.4706    2.4976   10.9031 H   0  0  0  0  0  0  0  0  0  0  0  0
   46.1954    3.0630   10.9202 H   0  0  0  0  0  0  0  0  0  0  0  0
   45.0369    1.1711    8.9851 H   0  0  0  0  0  0  0  0  0  0  0  0
   46.1916    4.7966    6.9946 H   0  0  0  0  0  0  0  0  0  0  0  0
   46.9508   -0.0063    7.8741 H   0  0  0  0  0  0  0  0  0  0  0  0
   48.0658    3.6581    5.9022 H   0  0  0  0  0  0  0  0  0  0  0  0
   48.4311    1.2788    6.3463 H   0  0  0  0  0  0  0  0  0  0  0  0
  3  2  1  0
  4  2  1  0
  5  3  1  0
  6  2  1  0
  7  2  1  0
  8  5  2  0
  9  5  1  0
 10  8  1  0
 11  9  2  0
 12 10  2  0
 11 12  1  0
  1 13  1  0
  3 14  1  0
  3 15  1  0
  4 16  1  0
  4 17  1  0
  6 18  1  0
  6 19  1  0
  6 20  1  0
  7 21  1  0
  7 22  1  0
  7 23  1  0
  8 24  1  0
  9 25  1  0
 10 26  1  0
 11 27  1  0
 12 28  1  0
M  END
> <Uni-Dock RESULT> 
ENERGY=   -6.011  LOWER_BOUND=    0.000  UPPER_BOUND=    0.000
INTER + INTRA:          -6.011
INTER:                  -6.011
INTRA:                   0.000
UNBOUND:                 0.000

$$$$

     RDKit          3D

 28 27  0  0  0  0  0  0  0  0999 V2000
   45.7531    3.2320    8.4386 Cl  0  0  0  0  0  0  0  0  0  0  0  0
   44.7385    4.4797    9.9644 C   0  0  0  0  0  0  0  0  0  0  0  0
   44.3546    3.8278    8.6533 C   0  0  0  0  0  0  0  0  0  0  0  0
   45.8263    5.4004    9.8255 N   0  0  0  0  0  0  0  0  0  0  0  0
   45.4671    3.0543    8.0408 C   0  0  0  0  0  0  0  0  0  0  0  0
   43.4777    5.1420   10.4934 C   0  0  0  0  0  0  0  0  0  0  0  0
   45.1218    3.4274   10.9814 C   0  0  0  0  0  0  0  0  0  0  0  0
   45.6890    1.7174    8.2992 C   0  0  0  0  0  0  0  0  0  0  0  0
   46.2953    3.7621    7.1715 C   0  0  0  0  0  0  0  0  0  0  0  0
   46.7632    1.0756    7.6739 C   0  0  0  0  0  0  0  0  0  0  0  0
   47.3659    3.1389    6.5431 C   0  0  0  0  0  0  0  0  0  0  0  0
   47.5747    1.7943    6.8142 C   0  0  0  0  0  0  0  0  0  0  0  0
   45.1637    3.8888    9.4993 H   0  0  0  0  0  0  0  0  0  0  0  0
   43.9993    4.6375    7.9696 H   0  0  0  0  0  0  0  0  0  0  0  0
   43.4615    3.1900    8.8174 H   0  0  0  0  0  0  0  0  0  0  0  0
   45.5182    6.3937    9.9761 H   0  0  0  0  0  0  0  0  0  0  0  0
   46.6415    5.1977   10.4451 H   0  0  0  0  0  0  0  0  0  0  0  0
   42.6334    4.4712   10.2298 H   0  0  0  0  0  0  0  0  0  0  0  0
   43.2890    6.1014    9.9384 H   0  0  0  0  0  0  0  0  0  0  0  0
   43.4909    5.2890   11.5929 H   0  0  0  0  0  0  0  0  0  0  0  0
   44.9875    3.8184   12.0200 H   0  0  0  0  0  0  0  0  0  0  0  0
   44.4661    2.5201   10.8866 H   0  0  0  0  0  0  0  0  0  0  0  0
   46.1844    3.1051   10.8907 H   0  0  0  0  0  0  0  0  0  0  0  0
   45.0373    1.1871    8.9745 H   0  0  0  0  0  0  0  0  0  0  0  0
   46.1401    4.8120    6.9537 H   0  0  0  0  0  0  0  0  0  0  0  0
   46.9586    0.0240    7.8611 H   0  0  0  0  0  0  0  0  0  0  0  0
   48.0214    3.6876    5.8589 H   0  0  0  0  0  0  0  0  0  0  0  0
   48.4160    1.3155    6.3169 H   0  0  0  0  0  0  0  0  0  0  0  0
  3  2  1  0
  4  2  1  0
  5  3  1  0
  6  2  1  0
  7  2  1  0
  8  5  2  0
  9  5  1  0
 10  8  1  0
 11  9  2  0
 12 10  2  0
 11 12  1  0
  1 13  1  0
  3 14  1  0
  3 15  1  0
  4 16  1  0
  4 17  1  0
  6 18  1  0
  6 19  1  0
  6 20  1  0
  7 21  1  0
  7 22  1  0
  7 23  1  0
  8 24  1  0
  9 25  1  0
 10 26  1  0
 11 27  1  0
 12 28  1  0
M  END
> <Uni-Dock RESULT> 
ENERGY=   -5.983  LOWER_BOUND=    0.047  UPPER_BOUND=    0.047
INTER + INTRA:          -5.983
INTER:                  -5.983
INTRA:                   0.000
UNBOUND:                 0.000

$$$$

     RDKit          3D

 28 27  0  0  0  0  0  0  0  0999 V2000
   45.5590    3.2835    8.6764 Cl  0  0  0  0  0  0  0  0  0  0  0  0
   44.6412    4.4939   10.2910 C   0  0  0  0  0  0  0  0  0  0  0  0
   44.2067    3.9597    8.9430 C   0  0  0  0  0  0  0  0  0  0  0  0
   45.7903    5.3438   10.2037 N   0  0  0  0  0  0  0  0  0  0  0  0
   45.2594    3.1532    8.2703 C   0  0  0  0  0  0  0  0  0  0  0  0
   43.4323    5.2056   10.8744 C   0  0  0  0  0  0  0  0  0  0  0  0
   44.9543    3.3518   11.2323 C   0  0  0  0  0  0  0  0  0  0  0  0
   45.3881    1.7898    8.4372 C   0  0  0  0  0  0  0  0  0  0  0  0
   46.1314    3.8582    7.4425 C   0  0  0  0  0  0  0  0  0  0  0  0
   46.4119    1.1180    7.7609 C   0  0  0  0  0  0  0  0  0  0  0  0
   47.1528    3.2054    6.7643 C   0  0  0  0  0  0  0  0  0  0  0  0
   47.2680    1.8344    6.9434 C   0  0  0  0  0  0  0  0  0  0  0  0
   45.0219    3.9073    9.7838 H   0  0  0  0  0  0  0  0  0  0  0  0
   43.9061    4.8361    8.3179 H   0  0  0  0  0  0  0  0  0  0  0  0
   43.2718    3.3761    9.0725 H   0  0  0  0  0  0  0  0  0  0  0  0
   45.5533    6.3438   10.4228 H   0  0  0  0  0  0  0  0  0  0  0  0
   46.5920    5.0437   10.8010 H   0  0  0  0  0  0  0  0  0  0  0  0
   42.5420    4.6144   10.5745 H   0  0  0  0  0  0  0  0  0  0  0  0
   43.3090    6.2108   10.3862 H   0  0  0  0  0  0  0  0  0  0  0  0
   43.4608    5.2774   11.9810 H   0  0  0  0  0  0  0  0  0  0  0  0
   44.8524    3.6807   12.2957 H   0  0  0  0  0  0  0  0  0  0  0  0
   44.2361    2.5007   11.0834 H   0  0  0  0  0  0  0  0  0  0  0  0
   45.9913    2.9629   11.1106 H   0  0  0  0  0  0  0  0  0  0  0  0
   44.7039    1.2622    9.0817 H   0  0  0  0  0  0  0  0  0  0  0  0
   46.0493    4.9286    7.2964 H   0  0  0  0  0  0  0  0  0  0  0  0
   46.5339    0.0452    7.8759 H   0  0  0  0  0  0  0  0  0  0  0  0
   47.8422    3.7516    6.1121 H   0  0  0  0  0  0  0  0  0  0  0  0
   48.0715    1.3325    6.4078 H   0  0  0  0  0  0  0  0  0  0  0  0
  3  2  1  0
  4  2  1  0
  5  3  1  0
  6  2  1  0
  7  2  1  0
  8  5  2  0
  9  5  1  0
 10  8  1  0
 11  9  2  0
 12 10  2  0
 11 12  1  0
  1 13  1  0
  3 14  1  0
  3 15  1  0
  4 16  1  0
  4 17  1  0
  6 18  1  0
  6 19  1  0
  6 20  1  0
  7 21  1  0
  7 22  1  0
  7 23  1  0
  8 24  1  0
  9 25  1  0
 10 26  1  0
 11 27  1  0
 12 28  1  0
M  END
> <Uni-Dock RESULT> 
ENERGY=   -5.819  LOWER_BOUND=    0.337  UPPER_BOUND=    0.337
INTER + INTRA:          -5.819
INTER:                  -5.819
INTRA:                   0.000
UNBOUND:                 0.000

$$$$

     RDKit          3D

 28 27  0  0  0  0  0  0  0  0999 V2000
   45.3980    3.2426    8.5526 Cl  0  0  0  0  0  0  0  0  0  0  0  0
   46.7374    2.7851    6.8464 C   0  0  0  0  0  0  0  0  0  0  0  0
   45.2475    2.9560    7.0518 C   0  0  0  0  0  0  0  0  0  0  0  0
   47.2906    1.7431    7.6579 N   0  0  0  0  0  0  0  0  0  0  0  0
   44.8893    3.2983    8.4539 C   0  0  0  0  0  0  0  0  0  0  0  0
   46.9342    2.5342    5.3609 C   0  0  0  0  0  0  0  0  0  0  0  0
   47.4618    4.0764    7.1567 C   0  0  0  0  0  0  0  0  0  0  0  0
   44.8014    4.5954    8.9156 C   0  0  0  0  0  0  0  0  0  0  0  0
   44.6403    2.2191    9.3000 C   0  0  0  0  0  0  0  0  0  0  0  0
   44.4571    4.8165   10.2532 C   0  0  0  0  0  0  0  0  0  0  0  0
   44.2972    2.4225   10.6306 C   0  0  0  0  0  0  0  0  0  0  0  0
   44.2135    3.7330   11.0784 C   0  0  0  0  0  0  0  0  0  0  0  0
   46.3094    3.1033    7.5260 H   0  0  0  0  0  0  0  0  0  0  0  0
   44.7549    2.0065    6.7278 H   0  0  0  0  0  0  0  0  0  0  0  0
   44.8725    3.7211    6.3408 H   0  0  0  0  0  0  0  0  0  0  0  0
   47.6046    0.9236    7.0798 H   0  0  0  0  0  0  0  0  0  0  0  0
   48.0770    2.0496    8.2720 H   0  0  0  0  0  0  0  0  0  0  0  0
   46.1909    3.1667    4.8320 H   0  0  0  0  0  0  0  0  0  0  0  0
   46.6610    1.4720    5.1138 H   0  0  0  0  0  0  0  0  0  0  0  0
   47.9509    2.7996    5.0050 H   0  0  0  0  0  0  0  0  0  0  0  0
   48.4427    4.1141    6.6221 H   0  0  0  0  0  0  0  0  0  0  0  0
   46.8664    4.9638    6.8096 H   0  0  0  0  0  0  0  0  0  0  0  0
   47.6786    4.2005    8.2424 H   0  0  0  0  0  0  0  0  0  0  0  0
   44.9977    5.4167    8.2457 H   0  0  0  0  0  0  0  0  0  0  0  0
   44.7032    1.1925    8.9595 H   0  0  0  0  0  0  0  0  0  0  0  0
   44.3815    5.8281   10.6405 H   0  0  0  0  0  0  0  0  0  0  0  0
   44.1000    1.5805   11.3021 H   0  0  0  0  0  0  0  0  0  0  0  0
   43.9442    3.8815   12.1224 H   0  0  0  0  0  0  0  0  0  0  0  0
  3  2  1  0
  4  2  1  0
  5  3  1  0
  6  2  1  0
  7  2  1  0
  8  5  2  0
  9  5  1  0
 10  8  1  0
 11  9  2  0
 12 10  2  0
 11 12  1  0
  1 13  1  0
  3 14  1  0
  3 15  1  0
  4 16  1  0
  4 17  1  0
  6 18  1  0
  6 19  1  0
  6 20  1  0
  7 21  1  0
  7 22  1  0
  7 23  1  0
  8 24  1  0
  9 25  1  0
 10 26  1  0
 11 27  1  0
 12 28  1  0
M  END
> <Uni-Dock RESULT> 
ENERGY=   -3.780  LOWER_BOUND=    1.668  UPPER_BOUND=    4.206
INTER + INTRA:          -3.780
INTER:                  -3.780
INTRA:                   0.000
UNBOUND:                 0.000

$$$$

     RDKit          3D

 28 27  0  0  0  0  0  0  0  0999 V2000
   44.6532    4.0419   10.1515 Cl  0  0  0  0  0  0  0  0  0  0  0  0
   43.4129    4.6984   11.8677 C   0  0  0  0  0  0  0  0  0  0  0  0
   44.8557    4.2942   11.6522 C   0  0  0  0  0  0  0  0  0  0  0  0
   42.4899    3.6682   11.4974 N   0  0  0  0  0  0  0  0  0  0  0  0
   45.1616    3.9635   10.2351 C   0  0  0  0  0  0  0  0  0  0  0  0
   43.2960    5.0877   13.3315 C   0  0  0  0  0  0  0  0  0  0  0  0
   43.0924    5.9444   11.0719 C   0  0  0  0  0  0  0  0  0  0  0  0
   45.5968    4.8984    9.3186 C   0  0  0  0  0  0  0  0  0  0  0  0
   44.9833    2.6308    9.8682 C   0  0  0  0  0  0  0  0  0  0  0  0
   45.8589    4.4901    8.0067 C   0  0  0  0  0  0  0  0  0  0  0  0
   45.2393    2.2100    8.5693 C   0  0  0  0  0  0  0  0  0  0  0  0
   45.6761    3.1630    7.6605 C   0  0  0  0  0  0  0  0  0  0  0  0
   43.8487    4.5894   11.1297 H   0  0  0  0  0  0  0  0  0  0  0  0
   45.0630    3.4260   12.3249 H   0  0  0  0  0  0  0  0  0  0  0  0
   45.5153    5.1028   12.0298 H   0  0  0  0  0  0  0  0  0  0  0  0
   41.9984    3.2656   12.3344 H   0  0  0  0  0  0  0  0  0  0  0  0
   41.7788    3.9627   10.7923 H   0  0  0  0  0  0  0  0  0  0  0  0
   44.2457    5.5955   13.6007 H   0  0  0  0  0  0  0  0  0  0  0  0
   43.2535    4.1633   13.9700 H   0  0  0  0  0  0  0  0  0  0  0  0
   42.4499    5.7761   13.5333 H   0  0  0  0  0  0  0  0  0  0  0  0
   42.2279    6.4882   11.5261 H   0  0  0  0  0  0  0  0  0  0  0  0
   43.9622    6.6555   11.0723 H   0  0  0  0  0  0  0  0  0  0  0  0
   42.8181    5.7239   10.0149 H   0  0  0  0  0  0  0  0  0  0  0  0
   45.7287    5.9244    9.6218 H   0  0  0  0  0  0  0  0  0  0  0  0
   44.6426    1.8796   10.5706 H   0  0  0  0  0  0  0  0  0  0  0  0
   46.2023    5.2070    7.2670 H   0  0  0  0  0  0  0  0  0  0  0  0
   45.1018    1.1650    8.2726 H   0  0  0  0  0  0  0  0  0  0  0  0
   45.8738    2.8231    6.6457 H   0  0  0  0  0  0  0  0  0  0  0  0
  3  2  1  0
  4  2  1  0
  5  3  1  0
  6  2  1  0
  7  2  1  0
  8  5  2  0
  9  5  1  0
 10  8  1  0
 11  9  2  0
 12 10  2  0
 11 12  1  0
  1 13  1  0
  3 14  1  0
  3 15  1  0
  4 16  1  0
  4 17  1  0
  6 18  1  0
  6 19  1  0
  6 20  1  0
  7 21  1  0
  7 22  1  0
  7 23  1  0
  8 24  1  0
  9 25  1  0
 10 26  1  0
 11 27  1  0
 12 28  1  0
M  END
> <Uni-Dock RESULT> 
ENERGY=   -3.555  LOWER_BOUND=    1.913  UPPER_BOUND=    3.037
INTER + INTRA:          -3.555
INTER:                  -3.555
INTRA:                   0.000
UNBOUND:                 0.000

$$$$

     RDKit          3D

 28 27  0  0  0  0  0  0  0  0999 V2000
   45.1723    5.2908   11.8194 Cl  0  0  0  0  0  0  0  0  0  0  0  0
   46.4406    6.9285   12.6091 C   0  0  0  0  0  0  0  0  0  0  0  0
   44.9628    6.7108   12.3641 C   0  0  0  0  0  0  0  0  0  0  0  0
   47.2232    6.7951   11.4175 N   0  0  0  0  0  0  0  0  0  0  0  0
   44.6557    5.3597   11.8244 C   0  0  0  0  0  0  0  0  0  0  0  0
   46.5673    8.3052   13.2390 C   0  0  0  0  0  0  0  0  0  0  0  0
   46.9528    5.9443   13.6374 C   0  0  0  0  0  0  0  0  0  0  0  0
   44.3803    4.2711   12.6260 C   0  0  0  0  0  0  0  0  0  0  0  0
   44.6593    5.2429   10.4356 C   0  0  0  0  0  0  0  0  0  0  0  0
   44.1028    3.0393   12.0240 C   0  0  0  0  0  0  0  0  0  0  0  0
   44.3857    4.0266    9.8230 C   0  0  0  0  0  0  0  0  0  0  0  0
   44.1110    2.9423   10.6439 C   0  0  0  0  0  0  0  0  0  0  0  0
   46.0156    6.1991   12.4258 H   0  0  0  0  0  0  0  0  0  0  0  0
   44.6183    7.5137   11.6669 H   0  0  0  0  0  0  0  0  0  0  0  0
   44.4102    6.9045   13.3067 H   0  0  0  0  0  0  0  0  0  0  0  0
   47.6300    7.7149   11.1130 H   0  0  0  0  0  0  0  0  0  0  0  0
   47.9884    6.0882   11.4840 H   0  0  0  0  0  0  0  0  0  0  0  0
   45.6892    8.4297   13.9066 H   0  0  0  0  0  0  0  0  0  0  0  0
   46.4634    9.0977   12.4484 H   0  0  0  0  0  0  0  0  0  0  0  0
   47.4939    8.4276   13.8365 H   0  0  0  0  0  0  0  0  0  0  0  0
   47.8704    6.3413   14.1373 H   0  0  0  0  0  0  0  0  0  0  0  0
   46.1896    5.7731   14.4440 H   0  0  0  0  0  0  0  0  0  0  0  0
   47.2247    4.9587   13.1949 H   0  0  0  0  0  0  0  0  0  0  0  0
   44.3823    4.3815   13.6982 H   0  0  0  0  0  0  0  0  0  0  0  0
   44.8726    6.0837    9.7865 H   0  0  0  0  0  0  0  0  0  0  0  0
   43.8832    2.1678   12.6333 H   0  0  0  0  0  0  0  0  0  0  0  0
   44.3865    3.9261    8.7327 H   0  0  0  0  0  0  0  0  0  0  0  0
   43.8981    1.9940   10.1541 H   0  0  0  0  0  0  0  0  0  0  0  0
  3  2  1  0
  4  2  1  0
  5  3  1  0
  6  2  1  0
  7  2  1  0
  8  5  2  0
  9  5  1  0
 10  8  1  0
 11  9  2  0
 12 10  2  0
 11 12  1  0
  1 13  1  0
  3 14  1  0
  3 15  1  0
  4 16  1  0
  4 17  1  0
  6 18  1  0
  6 19  1  0
  6 20  1  0
  7 21  1  0
  7 22  1  0
  7 23  1  0
  8 24  1  0
  9 25  1  0
 10 26  1  0
 11 27  1  0
 12 28  1  0
M  END
> <Uni-Dock RESULT> 
ENERGY=   -3.488  LOWER_BOUND=    3.107  UPPER_BOUND=    4.514
INTER + INTRA:          -3.488
INTER:                  -3.488
INTRA:                   0.000
UNBOUND:                 0.000

$$$$

     RDKit          3D

 28 27  0  0  0  0  0  0  0  0999 V2000
   45.3243    6.2265   11.8434 Cl  0  0  0  0  0  0  0  0  0  0  0  0
   44.3732    4.2946   11.3163 C   0  0  0  0  0  0  0  0  0  0  0  0
   45.2274    5.3228   10.6060 C   0  0  0  0  0  0  0  0  0  0  0  0
   43.1512    4.8452   11.8202 N   0  0  0  0  0  0  0  0  0  0  0  0
   45.6228    6.4565   11.4833 C   0  0  0  0  0  0  0  0  0  0  0  0
   44.1399    3.1743   10.3170 C   0  0  0  0  0  0  0  0  0  0  0  0
   45.1388    3.6812   12.4679 C   0  0  0  0  0  0  0  0  0  0  0  0
   46.7753    6.4581   12.2416 C   0  0  0  0  0  0  0  0  0  0  0  0
   44.7517    7.5443   11.5030 C   0  0  0  0  0  0  0  0  0  0  0  0
   47.0616    7.5728   13.0368 C   0  0  0  0  0  0  0  0  0  0  0  0
   45.0221    8.6583   12.2875 C   0  0  0  0  0  0  0  0  0  0  0  0
   46.1852    8.6434   13.0438 C   0  0  0  0  0  0  0  0  0  0  0  0
   44.8204    4.9577   11.6429 H   0  0  0  0  0  0  0  0  0  0  0  0
   44.6505    5.6797    9.7177 H   0  0  0  0  0  0  0  0  0  0  0  0
   46.1159    4.8160   10.1758 H   0  0  0  0  0  0  0  0  0  0  0  0
   42.3145    4.4760   11.3026 H   0  0  0  0  0  0  0  0  0  0  0  0
   43.0083    4.7057   12.8447 H   0  0  0  0  0  0  0  0  0  0  0  0
   45.0793    3.0685    9.7352 H   0  0  0  0  0  0  0  0  0  0  0  0
   43.3548    3.4832    9.5739 H   0  0  0  0  0  0  0  0  0  0  0  0
   43.9032    2.2032   10.7982 H   0  0  0  0  0  0  0  0  0  0  0  0
   44.7297    2.6713   12.7172 H   0  0  0  0  0  0  0  0  0  0  0  0
   46.2205    3.5383   12.1997 H   0  0  0  0  0  0  0  0  0  0  0  0
   45.0843    4.2923   13.3978 H   0  0  0  0  0  0  0  0  0  0  0  0
   47.4364    5.6073   12.2128 H   0  0  0  0  0  0  0  0  0  0  0  0
   43.8413    7.5652   10.9160 H   0  0  0  0  0  0  0  0  0  0  0  0
   47.9623    7.5980   13.6426 H   0  0  0  0  0  0  0  0  0  0  0  0
   44.3432    9.5171   12.3089 H   0  0  0  0  0  0  0  0  0  0  0  0
   46.3878    9.5208   13.6549 H   0  0  0  0  0  0  0  0  0  0  0  0
  3  2  1  0
  4  2  1  0
  5  3  1  0
  6  2  1  0
  7  2  1  0
  8  5  2  0
  9  5  1  0
 10  8  1  0
 11  9  2  0
 12 10  2  0
 11 12  1  0
  1 13  1  0
  3 14  1  0
  3 15  1  0
  4 16  1  0
  4 17  1  0
  6 18  1  0
  6 19  1  0
  6 20  1  0
  7 21  1  0
  7 22  1  0
  7 23  1  0
  8 24  1  0
  9 25  1  0
 10 26  1  0
 11 27  1  0
 12 28  1  0
M  END
> <Uni-Dock RESULT> 
ENERGY=   -3.446  LOWER_BOUND=    3.409  UPPER_BOUND=    5.577
INTER + INTRA:          -3.446
INTER:                  -3.446
INTRA:                   0.000
UNBOUND:                 0.000

$$$$

     RDKit          3D

 28 27  0  0  0  0  0  0  0  0999 V2000
   45.3013    6.1947   12.3212 Cl  0  0  0  0  0  0  0  0  0  0  0  0
   47.0448    7.5187   12.6702 C   0  0  0  0  0  0  0  0  0  0  0  0
   46.5702    6.6050   11.5606 C   0  0  0  0  0  0  0  0  0  0  0  0
   47.2223    6.8310   13.9135 N   0  0  0  0  0  0  0  0  0  0  0  0
   45.2648    5.9581   11.8582 C   0  0  0  0  0  0  0  0  0  0  0  0
   48.3276    8.1611   12.1705 C   0  0  0  0  0  0  0  0  0  0  0  0
   46.0596    8.6478   12.8779 C   0  0  0  0  0  0  0  0  0  0  0  0
   44.0503    6.5156   11.5153 C   0  0  0  0  0  0  0  0  0  0  0  0
   45.3286    4.7313   12.5164 C   0  0  0  0  0  0  0  0  0  0  0  0
   42.8746    5.8300   11.8385 C   0  0  0  0  0  0  0  0  0  0  0  0
   44.1701    4.0384   12.8441 C   0  0  0  0  0  0  0  0  0  0  0  0
   42.9574    4.6133   12.4920 C   0  0  0  0  0  0  0  0  0  0  0  0
   46.2747    7.1433   12.5591 H   0  0  0  0  0  0  0  0  0  0  0  0
   47.3704    5.8435   11.3902 H   0  0  0  0  0  0  0  0  0  0  0  0
   46.5286    7.1819   10.6135 H   0  0  0  0  0  0  0  0  0  0  0  0
   48.2358    6.7708   14.1846 H   0  0  0  0  0  0  0  0  0  0  0  0
   46.6794    7.2348   14.7083 H   0  0  0  0  0  0  0  0  0  0  0  0
   48.1890    8.3412   11.0840 H   0  0  0  0  0  0  0  0  0  0  0  0
   49.1775    7.4296   12.2519 H   0  0  0  0  0  0  0  0  0  0  0  0
   48.5551    9.1256   12.6691 H   0  0  0  0  0  0  0  0  0  0  0  0
   46.5644    9.5272   13.3482 H   0  0  0  0  0  0  0  0  0  0  0  0
   45.6388    8.9987   11.8971 H   0  0  0  0  0  0  0  0  0  0  0  0
   45.2123    8.3654   13.5439 H   0  0  0  0  0  0  0  0  0  0  0  0
   44.0217    7.4654   11.0064 H   0  0  0  0  0  0  0  0  0  0  0  0
   46.2706    4.2745   12.7953 H   0  0  0  0  0  0  0  0  0  0  0  0
   41.9066    6.2480   11.5793 H   0  0  0  0  0  0  0  0  0  0  0  0
   44.2112    3.0741   13.3612 H   0  0  0  0  0  0  0  0  0  0  0  0
   42.0559    4.0625   12.7533 H   0  0  0  0  0  0  0  0  0  0  0  0
  3  2  1  0
  4  2  1  0
  5  3  1  0
  6  2  1  0
  7  2  1  0
  8  5  2  0
  9  5  1  0
 10  8  1  0
 11  9  2  0
 12 10  2  0
 11 12  1  0
  1 13  1  0
  3 14  1  0
  3 15  1  0
  4 16  1  0
  4 17  1  0
  6 18  1  0
  6 19  1  0
  6 20  1  0
  7 21  1  0
  7 22  1  0
  7 23  1  0
  8 24  1  0
  9 25  1  0
 10 26  1  0
 11 27  1  0
 12 28  1  0
M  END
> <Uni-Dock RESULT> 
ENERGY=   -3.300  LOWER_BOUND=    4.761  UPPER_BOUND=    5.848
INTER + INTRA:          -3.300
INTER:                  -3.300
INTRA:                   0.000
UNBOUND:                 0.000

$$$$

     RDKit          3D

 28 27  0  0  0  0  0  0  0  0999 V2000
   46.6133    6.7076   12.8194 Cl  0  0  0  0  0  0  0  0  0  0  0  0
   46.9661    8.8948   12.8975 C   0  0  0  0  0  0  0  0  0  0  0  0
   47.5373    7.7216   12.1302 C   0  0  0  0  0  0  0  0  0  0  0  0
   47.1019    8.7459   14.3151 N   0  0  0  0  0  0  0  0  0  0  0  0
   46.8816    6.4306   12.4687 C   0  0  0  0  0  0  0  0  0  0  0  0
   47.6745   10.1311   12.3703 C   0  0  0  0  0  0  0  0  0  0  0  0
   45.5006    9.0743   12.5678 C   0  0  0  0  0  0  0  0  0  0  0  0
   45.7754    5.9476   11.8006 C   0  0  0  0  0  0  0  0  0  0  0  0
   47.4523    5.7143   13.5192 C   0  0  0  0  0  0  0  0  0  0  0  0
   45.2290    4.7211   12.1930 C   0  0  0  0  0  0  0  0  0  0  0  0
   46.9213    4.4950   13.9205 C   0  0  0  0  0  0  0  0  0  0  0  0
   45.8089    4.0240   13.2379 C   0  0  0  0  0  0  0  0  0  0  0  0
   46.6697    8.0862   12.8291 H   0  0  0  0  0  0  0  0  0  0  0  0
   48.6342    7.6868   12.3417 H   0  0  0  0  0  0  0  0  0  0  0  0
   47.4698    7.9362   11.0435 H   0  0  0  0  0  0  0  0  0  0  0  0
   47.7855    9.4360   14.7160 H   0  0  0  0  0  0  0  0  0  0  0  0
   46.2027    8.8107   14.8412 H   0  0  0  0  0  0  0  0  0  0  0  0
   47.8218    9.9713   11.2817 H   0  0  0  0  0  0  0  0  0  0  0  0
   48.7067   10.1965   12.8109 H   0  0  0  0  0  0  0  0  0  0  0  0
   47.0937   11.0641   12.5217 H   0  0  0  0  0  0  0  0  0  0  0  0
   45.1821   10.1287   12.7580 H   0  0  0  0  0  0  0  0  0  0  0  0
   45.3052    8.8651   11.4813 H   0  0  0  0  0  0  0  0  0  0  0  0
   44.8368    8.4195   13.1775 H   0  0  0  0  0  0  0  0  0  0  0  0
   45.3484    6.5164   10.9907 H   0  0  0  0  0  0  0  0  0  0  0  0
   48.3208    6.0739   14.0580 H   0  0  0  0  0  0  0  0  0  0  0  0
   44.3585    4.3198   11.6829 H   0  0  0  0  0  0  0  0  0  0  0  0
   47.3634    3.9258   14.7447 H   0  0  0  0  0  0  0  0  0  0  0  0
   45.4006    3.0680   13.5601 H   0  0  0  0  0  0  0  0  0  0  0  0
  3  2  1  0
  4  2  1  0
  5  3  1  0
  6  2  1  0
  7  2  1  0
  8  5  2  0
  9  5  1  0
 10  8  1  0
 11  9  2  0
 12 10  2  0
 11 12  1  0
  1 13  1  0
  3 14  1  0
  3 15  1  0
  4 16  1  0
  4 17  1  0
  6 18  1  0
  6 19  1  0
  6 20  1  0
  7 21  1  0
  7 22  1  0
  7 23  1  0
  8 24  1  0
  9 25  1  0
 10 26  1  0
 11 27  1  0
 12 28  1  0
M  END
> <Uni-Dock RESULT> 
ENERGY=   -3.246  LOWER_BOUND=    4.832  UPPER_BOUND=    6.221
INTER + INTRA:          -3.246
INTER:                  -3.246
INTRA:                   0.000
UNBOUND:                 0.000

$$$$
