
     RDKit          3D

 28 27  0  0  0  0  0  0  0  0999 V2000
   45.8697    3.1985    8.3629 Cl  0  0  0  0  0  0  0  0  0  0  0  0
   44.6234    4.3552    9.9058 C   0  0  0  0  0  0  0  0  0  0  0  0
   44.3632    3.7175    8.5790 C   0  0  0  0  0  0  0  0  0  0  0  0
   43.3580    4.9975   10.2969 N   0  0  0  0  0  0  0  0  0  0  0  0
   45.5044    3.0087    7.9893 C   0  0  0  0  0  0  0  0  0  0  0  0
   44.9368    3.3785   11.0048 C   0  0  0  0  0  0  0  0  0  0  0  0
   45.6919    5.4028    9.8774 C   0  0  0  0  0  0  0  0  0  0  0  0
   45.7942    1.6770    8.1936 C   0  0  0  0  0  0  0  0  0  0  0  0
   46.3737    3.7159    7.1567 C   0  0  0  0  0  0  0  0  0  0  0  0
   46.8744    1.0370    7.6260 C   0  0  0  0  0  0  0  0  0  0  0  0
   47.4540    3.0942    6.5833 C   0  0  0  0  0  0  0  0  0  0  0  0
   47.7271    1.7654    6.7987 C   0  0  0  0  0  0  0  0  0  0  0  0
   45.2975    3.8988    9.4013 H   0  0  0  0  0  0  0  0  0  0  0  0
   43.9590    4.5116    7.9100 H   0  0  0  0  0  0  0  0  0  0  0  0
   43.5212    2.9876    8.7542 H   0  0  0  0  0  0  0  0  0  0  0  0
   43.4571    5.5919   11.1358 H   0  0  0  0  0  0  0  0  0  0  0  0
   43.0981    5.6058    9.4648 H   0  0  0  0  0  0  0  0  0  0  0  0
   44.4511    3.6807   11.9760 H   0  0  0  0  0  0  0  0  0  0  0  0
   46.0468    3.3543   11.1753 H   0  0  0  0  0  0  0  0  0  0  0  0
   44.6196    2.3485   10.8125 H   0  0  0  0  0  0  0  0  0  0  0  0
   45.4374    6.1389   10.6877 H   0  0  0  0  0  0  0  0  0  0  0  0
   46.6912    5.0071   10.1523 H   0  0  0  0  0  0  0  0  0  0  0  0
   45.6969    6.0074    8.9474 H   0  0  0  0  0  0  0  0  0  0  0  0
   45.1432    1.0969    8.8328 H   0  0  0  0  0  0  0  0  0  0  0  0
   46.2272    4.7692    6.9365 H   0  0  0  0  0  0  0  0  0  0  0  0
   47.1036    0.0092    7.7799 H   0  0  0  0  0  0  0  0  0  0  0  0
   48.1539    3.6231    5.9254 H   0  0  0  0  0  0  0  0  0  0  0  0
   48.5792    1.2751    6.3464 H   0  0  0  0  0  0  0  0  0  0  0  0
  3  2  1  0
  4  2  1  0
  5  3  1  0
  6  2  1  0
  7  2  1  0
  8  5  2  0
  9  5  1  0
 10  8  1  0
 11  9  2  0
 12 10  2  0
 11 12  1  0
  1 13  1  0
  3 14  1  0
  3 15  1  0
  4 16  1  0
  4 17  1  0
  6 18  1  0
  6 19  1  0
  6 20  1  0
  7 21  1  0
  7 22  1  0
  7 23  1  0
  8 24  1  0
  9 25  1  0
 10 26  1  0
 11 27  1  0
 12 28  1  0
M  END
> <Uni-Dock RESULT> 
ENERGY=   -6.212  LOWER_BOUND=    0.000  UPPER_BOUND=    0.000
INTER + INTRA:          -6.212
INTER:                  -6.212
INTRA:                   0.000
UNBOUND:                 0.000

$$$$

     RDKit          3D

 28 27  0  0  0  0  0  0  0  0999 V2000
   45.8507    3.1751    8.3627 Cl  0  0  0  0  0  0  0  0  0  0  0  0
   44.6188    4.3260    9.9215 C   0  0  0  0  0  0  0  0  0  0  0  0
   44.3415    3.6740    8.6052 C   0  0  0  0  0  0  0  0  0  0  0  0
   43.3523    4.9531   10.3331 N   0  0  0  0  0  0  0  0  0  0  0  0
   45.4808    2.9771    7.9981 C   0  0  0  0  0  0  0  0  0  0  0  0
   44.9683    3.3626   11.0214 C   0  0  0  0  0  0  0  0  0  0  0  0
   45.6713    5.3886    9.8636 C   0  0  0  0  0  0  0  0  0  0  0  0
   45.7939    1.6513    8.2067 C   0  0  0  0  0  0  0  0  0  0  0  0
   46.3229    3.6901    7.1428 C   0  0  0  0  0  0  0  0  0  0  0  0
   46.8718    1.0224    7.6224 C   0  0  0  0  0  0  0  0  0  0  0  0
   47.4005    3.0794    6.5525 C   0  0  0  0  0  0  0  0  0  0  0  0
   47.6970    1.7565    6.7725 C   0  0  0  0  0  0  0  0  0  0  0  0
   45.2893    3.8753    9.4071 H   0  0  0  0  0  0  0  0  0  0  0  0
   43.9125    4.4570    7.9383 H   0  0  0  0  0  0  0  0  0  0  0  0
   43.5138    2.9335    8.8029 H   0  0  0  0  0  0  0  0  0  0  0  0
   43.4596    5.5555   11.1652 H   0  0  0  0  0  0  0  0  0  0  0  0
   43.0671    5.5509    9.5017 H   0  0  0  0  0  0  0  0  0  0  0  0
   44.4978    3.6655   11.9999 H   0  0  0  0  0  0  0  0  0  0  0  0
   46.0818    3.3557   11.1697 H   0  0  0  0  0  0  0  0  0  0  0  0
   44.6623    2.3267   10.8435 H   0  0  0  0  0  0  0  0  0  0  0  0
   45.4223    6.1273   10.6732 H   0  0  0  0  0  0  0  0  0  0  0  0
   46.6815    5.0094   10.1214 H   0  0  0  0  0  0  0  0  0  0  0  0
   45.6488    5.9857    8.9292 H   0  0  0  0  0  0  0  0  0  0  0  0
   45.1644    1.0670    8.8633 H   0  0  0  0  0  0  0  0  0  0  0  0
   46.1568    4.7394    6.9175 H   0  0  0  0  0  0  0  0  0  0  0  0
   47.1189   -0.0007    7.7795 H   0  0  0  0  0  0  0  0  0  0  0  0
   48.0793    3.6131    5.8767 H   0  0  0  0  0  0  0  0  0  0  0  0
   48.5470    1.2748    6.3070 H   0  0  0  0  0  0  0  0  0  0  0  0
  3  2  1  0
  4  2  1  0
  5  3  1  0
  6  2  1  0
  7  2  1  0
  8  5  2  0
  9  5  1  0
 10  8  1  0
 11  9  2  0
 12 10  2  0
 11 12  1  0
  1 13  1  0
  3 14  1  0
  3 15  1  0
  4 16  1  0
  4 17  1  0
  6 18  1  0
  6 19  1  0
  6 20  1  0
  7 21  1  0
  7 22  1  0
  7 23  1  0
  8 24  1  0
  9 25  1  0
 10 26  1  0
 11 27  1  0
 12 28  1  0
M  END
> <Uni-Dock RESULT> 
ENERGY=   -6.206  LOWER_BOUND=    0.043  UPPER_BOUND=    0.043
INTER + INTRA:          -6.206
INTER:                  -6.206
INTRA:                   0.000
UNBOUND:                 0.000

$$$$

     RDKit          3D

 28 27  0  0  0  0  0  0  0  0999 V2000
   45.9438    5.5933   12.4198 Cl  0  0  0  0  0  0  0  0  0  0  0  0
   44.1111    4.4867   11.5900 C   0  0  0  0  0  0  0  0  0  0  0  0
   44.3389    5.6512   12.4993 C   0  0  0  0  0  0  0  0  0  0  0  0
   42.6542    4.2792   11.5614 N   0  0  0  0  0  0  0  0  0  0  0  0
   45.7416    6.0415   12.6792 C   0  0  0  0  0  0  0  0  0  0  0  0
   44.5115    4.7358   10.1625 C   0  0  0  0  0  0  0  0  0  0  0  0
   44.7565    3.2184   12.0537 C   0  0  0  0  0  0  0  0  0  0  0  0
   46.4108    6.9554   11.8942 C   0  0  0  0  0  0  0  0  0  0  0  0
   46.4713    5.4566   13.7158 C   0  0  0  0  0  0  0  0  0  0  0  0
   47.7301    7.3029   12.0867 C   0  0  0  0  0  0  0  0  0  0  0  0
   47.7858    5.7912   13.9216 C   0  0  0  0  0  0  0  0  0  0  0  0
   48.4364    6.7046   13.1285 C   0  0  0  0  0  0  0  0  0  0  0  0
   44.9825    4.8115   11.8191 H   0  0  0  0  0  0  0  0  0  0  0  0
   43.8320    5.4153   13.4632 H   0  0  0  0  0  0  0  0  0  0  0  0
   43.7691    6.5095   12.0398 H   0  0  0  0  0  0  0  0  0  0  0  0
   42.3866    3.4090   11.0736 H   0  0  0  0  0  0  0  0  0  0  0  0
   42.3737    4.2084   12.5843 H   0  0  0  0  0  0  0  0  0  0  0  0
   43.7749    4.2789    9.4419 H   0  0  0  0  0  0  0  0  0  0  0  0
   45.5116    4.2625    9.9688 H   0  0  0  0  0  0  0  0  0  0  0  0
   44.5968    5.7909    9.8835 H   0  0  0  0  0  0  0  0  0  0  0  0
   44.1208    2.3772   11.6644 H   0  0  0  0  0  0  0  0  0  0  0  0
   45.7573    3.0542   11.6038 H   0  0  0  0  0  0  0  0  0  0  0  0
   44.7408    3.0887   13.1551 H   0  0  0  0  0  0  0  0  0  0  0  0
   45.8780    7.4291   11.0814 H   0  0  0  0  0  0  0  0  0  0  0  0
   46.0298    4.7258   14.3868 H   0  0  0  0  0  0  0  0  0  0  0  0
   48.2524    8.0077   11.4841 H   0  0  0  0  0  0  0  0  0  0  0  0
   48.3843    5.3489   14.7270 H   0  0  0  0  0  0  0  0  0  0  0  0
   49.4732    6.9686   13.2909 H   0  0  0  0  0  0  0  0  0  0  0  0
  3  2  1  0
  4  2  1  0
  5  3  1  0
  6  2  1  0
  7  2  1  0
  8  5  2  0
  9  5  1  0
 10  8  1  0
 11  9  2  0
 12 10  2  0
 11 12  1  0
  1 13  1  0
  3 14  1  0
  3 15  1  0
  4 16  1  0
  4 17  1  0
  6 18  1  0
  6 19  1  0
  6 20  1  0
  7 21  1  0
  7 22  1  0
  7 23  1  0
  8 24  1  0
  9 25  1  0
 10 26  1  0
 11 27  1  0
 12 28  1  0
M  END
> <Uni-Dock RESULT> 
ENERGY=   -3.368  LOWER_BOUND=    3.525  UPPER_BOUND=    5.519
INTER + INTRA:          -3.368
INTER:                  -3.368
INTRA:                   0.000
UNBOUND:                 0.000

$$$$
