
     RDKit          3D

 28 27  0  0  0  0  0  0  0  0999 V2000
   45.8171    3.1970    8.5411 Cl  0  0  0  0  0  0  0  0  0  0  0  0
   44.7659    4.3767   10.0706 C   0  0  0  0  0  0  0  0  0  0  0  0
   44.4365    3.7819    8.7485 C   0  0  0  0  0  0  0  0  0  0  0  0
   45.2279    3.3573   11.0089 N   0  0  0  0  0  0  0  0  0  0  0  0
   45.5390    3.0959    8.0548 C   0  0  0  0  0  0  0  0  0  0  0  0
   45.6837    5.5518   10.0393 C   0  0  0  0  0  0  0  0  0  0  0  0
   43.4359    4.8844   10.6428 C   0  0  0  0  0  0  0  0  0  0  0  0
   45.6936    1.7296    8.3214 C   0  0  0  0  0  0  0  0  0  0  0  0
   46.4063    3.7249    7.1746 C   0  0  0  0  0  0  0  0  0  0  0  0
   46.7190    1.0470    7.6891 C   0  0  0  0  0  0  0  0  0  0  0  0
   47.4362    3.0375    6.5399 C   0  0  0  0  0  0  0  0  0  0  0  0
   47.5799    1.6907    6.8096 C   0  0  0  0  0  0  0  0  0  0  0  0
   45.2429    4.0509    9.4588 H   0  0  0  0  0  0  0  0  0  0  0  0
   43.5826    3.0865    8.8906 H   0  0  0  0  0  0  0  0  0  0  0  0
   44.0517    4.6266    8.1096 H   0  0  0  0  0  0  0  0  0  0  0  0
   45.4011    3.7899   11.9418 H   0  0  0  0  0  0  0  0  0  0  0  0
   44.5250    2.5876   11.0234 H   0  0  0  0  0  0  0  0  0  0  0  0
   46.4201    5.5733    9.2351 H   0  0  0  0  0  0  0  0  0  0  0  0
   45.1464    6.5403    9.9883 H   0  0  0  0  0  0  0  0  0  0  0  0
   46.1954    5.5711   11.0426 H   0  0  0  0  0  0  0  0  0  0  0  0
   42.6804    4.1157   10.3795 H   0  0  0  0  0  0  0  0  0  0  0  0
   43.4964    5.0397   11.7337 H   0  0  0  0  0  0  0  0  0  0  0  0
   43.1222    5.8049   10.0930 H   0  0  0  0  0  0  0  0  0  0  0  0
   45.0572    1.1952    8.9883 H   0  0  0  0  0  0  0  0  0  0  0  0
   46.2798    4.7799    6.9745 H   0  0  0  0  0  0  0  0  0  0  0  0
   46.9008   -0.0020    7.8427 H   0  0  0  0  0  0  0  0  0  0  0  0
   48.0953    3.5720    5.8547 H   0  0  0  0  0  0  0  0  0  0  0  0
   48.3883    1.1853    6.3017 H   0  0  0  0  0  0  0  0  0  0  0  0
  3  2  1  0
  4  2  1  0
  5  3  1  0
  6  2  1  0
  7  2  1  0
  8  5  2  0
  9  5  1  0
 10  8  1  0
 11  9  2  0
 12 10  2  0
 11 12  1  0
  1 13  1  0
  3 14  1  0
  3 15  1  0
  4 16  1  0
  4 17  1  0
  6 18  1  0
  6 19  1  0
  6 20  1  0
  7 21  1  0
  7 22  1  0
  7 23  1  0
  8 24  1  0
  9 25  1  0
 10 26  1  0
 11 27  1  0
 12 28  1  0
M  END
> <Uni-Dock RESULT> 
ENERGY=   -6.111  LOWER_BOUND=    0.000  UPPER_BOUND=    0.000
INTER + INTRA:          -6.111
INTER:                  -6.111
INTRA:                   0.000
UNBOUND:                 0.000

$$$$

     RDKit          3D

 28 27  0  0  0  0  0  0  0  0999 V2000
   45.2530    6.4452   12.3519 Cl  0  0  0  0  0  0  0  0  0  0  0  0
   44.0203    4.6704   11.9443 C   0  0  0  0  0  0  0  0  0  0  0  0
   45.0376    5.4713   11.2135 C   0  0  0  0  0  0  0  0  0  0  0  0
   44.5572    4.1517   13.1995 N   0  0  0  0  0  0  0  0  0  0  0  0
   45.5626    6.6509   11.9208 C   0  0  0  0  0  0  0  0  0  0  0  0
   42.6987    5.3321   12.1431 C   0  0  0  0  0  0  0  0  0  0  0  0
   43.7566    3.4355   11.0727 C   0  0  0  0  0  0  0  0  0  0  0  0
   46.6960    6.4503   12.7188 C   0  0  0  0  0  0  0  0  0  0  0  0
   45.0003    7.9154   11.8342 C   0  0  0  0  0  0  0  0  0  0  0  0
   47.2215    7.5346   13.4011 C   0  0  0  0  0  0  0  0  0  0  0  0
   45.5295    9.0039   12.5205 C   0  0  0  0  0  0  0  0  0  0  0  0
   46.6472    8.7955   13.3045 C   0  0  0  0  0  0  0  0  0  0  0  0
   44.3638    5.4242   12.0916 H   0  0  0  0  0  0  0  0  0  0  0  0
   45.8698    4.7916   10.9334 H   0  0  0  0  0  0  0  0  0  0  0  0
   44.5533    5.7908   10.2476 H   0  0  0  0  0  0  0  0  0  0  0  0
   43.8439    3.5511   13.6662 H   0  0  0  0  0  0  0  0  0  0  0  0
   45.4527    3.6606   12.9908 H   0  0  0  0  0  0  0  0  0  0  0  0
   42.7077    6.4183   12.2406 H   0  0  0  0  0  0  0  0  0  0  0  0
   41.9551    5.1044   11.3285 H   0  0  0  0  0  0  0  0  0  0  0  0
   42.2507    4.8580   13.0614 H   0  0  0  0  0  0  0  0  0  0  0  0
   44.7458    3.1307   10.6730 H   0  0  0  0  0  0  0  0  0  0  0  0
   43.2831    2.6240   11.6516 H   0  0  0  0  0  0  0  0  0  0  0  0
   43.1575    3.7333   10.1781 H   0  0  0  0  0  0  0  0  0  0  0  0
   47.1694    5.5013   12.8225 H   0  0  0  0  0  0  0  0  0  0  0  0
   44.1255    8.0613   11.2159 H   0  0  0  0  0  0  0  0  0  0  0  0
   48.0889    7.4595   14.0326 H   0  0  0  0  0  0  0  0  0  0  0  0
   45.0551    9.9812   12.4235 H   0  0  0  0  0  0  0  0  0  0  0  0
   47.0341    9.6597   13.8244 H   0  0  0  0  0  0  0  0  0  0  0  0
  3  2  1  0
  4  2  1  0
  5  3  1  0
  6  2  1  0
  7  2  1  0
  8  5  2  0
  9  5  1  0
 10  8  1  0
 11  9  2  0
 12 10  2  0
 11 12  1  0
  1 13  1  0
  3 14  1  0
  3 15  1  0
  4 16  1  0
  4 17  1  0
  6 18  1  0
  6 19  1  0
  6 20  1  0
  7 21  1  0
  7 22  1  0
  7 23  1  0
  8 24  1  0
  9 25  1  0
 10 26  1  0
 11 27  1  0
 12 28  1  0
M  END
> <Uni-Dock RESULT> 
ENERGY=   -3.641  LOWER_BOUND=    3.946  UPPER_BOUND=    5.884
INTER + INTRA:          -3.641
INTER:                  -3.641
INTRA:                   0.000
UNBOUND:                 0.000

$$$$

     RDKit          3D

 28 27  0  0  0  0  0  0  0  0999 V2000
   40.7033   10.6505   10.6240 Cl  0  0  0  0  0  0  0  0  0  0  0  0
   42.8679   10.2838   10.7511 C   0  0  0  0  0  0  0  0  0  0  0  0
   41.8669   11.1104   11.4758 C   0  0  0  0  0  0  0  0  0  0  0  0
   42.5092    8.8684   10.7848 N   0  0  0  0  0  0  0  0  0  0  0  0
   40.4880   11.0535   10.9634 C   0  0  0  0  0  0  0  0  0  0  0  0
   43.1981   10.7347    9.3684 C   0  0  0  0  0  0  0  0  0  0  0  0
   44.1659   10.3946   11.5615 C   0  0  0  0  0  0  0  0  0  0  0  0
   39.6573   10.0658   11.5075 C   0  0  0  0  0  0  0  0  0  0  0  0
   39.9897   11.9102    9.9936 C   0  0  0  0  0  0  0  0  0  0  0  0
   38.3524    9.9785   11.0526 C   0  0  0  0  0  0  0  0  0  0  0  0
   38.6782   11.8212    9.5375 C   0  0  0  0  0  0  0  0  0  0  0  0
   37.8675   10.8439   10.0805 C   0  0  0  0  0  0  0  0  0  0  0  0
   42.0727   10.4964   10.5769 H   0  0  0  0  0  0  0  0  0  0  0  0
   41.8899   10.8137   12.5455 H   0  0  0  0  0  0  0  0  0  0  0  0
   42.2448   12.1711   11.4350 H   0  0  0  0  0  0  0  0  0  0  0  0
   43.2521    8.3057   10.3172 H   0  0  0  0  0  0  0  0  0  0  0  0
   42.3376    8.6010   11.7776 H   0  0  0  0  0  0  0  0  0  0  0  0
   42.4007   11.2318    8.8148 H   0  0  0  0  0  0  0  0  0  0  0  0
   44.0823   11.4306    9.3219 H   0  0  0  0  0  0  0  0  0  0  0  0
   43.5455    9.8153    8.8182 H   0  0  0  0  0  0  0  0  0  0  0  0
   43.8602   10.3650   12.6277 H   0  0  0  0  0  0  0  0  0  0  0  0
   44.8684    9.5796   11.3160 H   0  0  0  0  0  0  0  0  0  0  0  0
   44.6119   11.4079   11.4119 H   0  0  0  0  0  0  0  0  0  0  0  0
   39.9864    9.3809   12.2545 H   0  0  0  0  0  0  0  0  0  0  0  0
   40.6378   12.6698    9.5790 H   0  0  0  0  0  0  0  0  0  0  0  0
   37.6554    9.2472   11.4219 H   0  0  0  0  0  0  0  0  0  0  0  0
   38.3279   12.5158    8.7732 H   0  0  0  0  0  0  0  0  0  0  0  0
   36.8552   10.8003    9.7060 H   0  0  0  0  0  0  0  0  0  0  0  0
  3  2  1  0
  4  2  1  0
  5  3  1  0
  6  2  1  0
  7  2  1  0
  8  5  2  0
  9  5  1  0
 10  8  1  0
 11  9  2  0
 12 10  2  0
 11 12  1  0
  1 13  1  0
  3 14  1  0
  3 15  1  0
  4 16  1  0
  4 17  1  0
  6 18  1  0
  6 19  1  0
  6 20  1  0
  7 21  1  0
  7 22  1  0
  7 23  1  0
  8 24  1  0
  9 25  1  0
 10 26  1  0
 11 27  1  0
 12 28  1  0
M  END
> <Uni-Dock RESULT> 
ENERGY=   -3.199  LOWER_BOUND=    8.101  UPPER_BOUND=    9.738
INTER + INTRA:          -3.199
INTER:                  -3.199
INTRA:                   0.000
UNBOUND:                 0.000

$$$$

     RDKit          3D

 28 27  0  0  0  0  0  0  0  0999 V2000
   48.7001    5.0252   20.2400 Cl  0  0  0  0  0  0  0  0  0  0  0  0
   47.8527    4.6115   18.2533 C   0  0  0  0  0  0  0  0  0  0  0  0
   48.3744    3.8131   19.3939 C   0  0  0  0  0  0  0  0  0  0  0  0
   46.7505    5.4736   18.6713 N   0  0  0  0  0  0  0  0  0  0  0  0
   48.9014    4.5812   20.5339 C   0  0  0  0  0  0  0  0  0  0  0  0
   48.8751    5.3656   17.4721 C   0  0  0  0  0  0  0  0  0  0  0  0
   47.2318    3.5975   17.2837 C   0  0  0  0  0  0  0  0  0  0  0  0
   47.9877    4.9126   21.5425 C   0  0  0  0  0  0  0  0  0  0  0  0
   50.2244    4.9797   20.6497 C   0  0  0  0  0  0  0  0  0  0  0  0
   48.4432    5.6348   22.6326 C   0  0  0  0  0  0  0  0  0  0  0  0
   50.6805    5.7054   21.7457 C   0  0  0  0  0  0  0  0  0  0  0  0
   49.7717    6.0269   22.7346 C   0  0  0  0  0  0  0  0  0  0  0  0
   48.2949    4.8197   18.9382 H   0  0  0  0  0  0  0  0  0  0  0  0
   47.5647    3.1330   19.7327 H   0  0  0  0  0  0  0  0  0  0  0  0
   49.1845    3.1529   18.9726 H   0  0  0  0  0  0  0  0  0  0  0  0
   46.3682    5.9820   17.8451 H   0  0  0  0  0  0  0  0  0  0  0  0
   46.0482    4.8843   19.1677 H   0  0  0  0  0  0  0  0  0  0  0  0
   49.7505    5.7121   18.0226 H   0  0  0  0  0  0  0  0  0  0  0  0
   49.2760    4.7947   16.5880 H   0  0  0  0  0  0  0  0  0  0  0  0
   48.3303    6.2365   17.0100 H   0  0  0  0  0  0  0  0  0  0  0  0
   46.7165    2.8479   17.9190 H   0  0  0  0  0  0  0  0  0  0  0  0
   46.5347    4.0836   16.5797 H   0  0  0  0  0  0  0  0  0  0  0  0
   48.0449    3.0335   16.7650 H   0  0  0  0  0  0  0  0  0  0  0  0
   46.9601    4.6330   21.5062 H   0  0  0  0  0  0  0  0  0  0  0  0
   50.9229    4.7196   19.8665 H   0  0  0  0  0  0  0  0  0  0  0  0
   47.8026    5.9263   23.4459 H   0  0  0  0  0  0  0  0  0  0  0  0
   51.7299    5.9983   21.7959 H   0  0  0  0  0  0  0  0  0  0  0  0
   50.1562    6.5906   23.5721 H   0  0  0  0  0  0  0  0  0  0  0  0
  3  2  1  0
  4  2  1  0
  5  3  1  0
  6  2  1  0
  7  2  1  0
  8  5  2  0
  9  5  1  0
 10  8  1  0
 11  9  2  0
 12 10  2  0
 11 12  1  0
  1 13  1  0
  3 14  1  0
  3 15  1  0
  4 16  1  0
  4 17  1  0
  6 18  1  0
  6 19  1  0
  6 20  1  0
  7 21  1  0
  7 22  1  0
  7 23  1  0
  8 24  1  0
  9 25  1  0
 10 26  1  0
 11 27  1  0
 12 28  1  0
M  END
> <Uni-Dock RESULT> 
ENERGY=   -3.117  LOWER_BOUND=   10.834  UPPER_BOUND=   12.502
INTER + INTRA:          -3.117
INTER:                  -3.117
INTRA:                   0.000
UNBOUND:                 0.000

$$$$
