
     RDKit          3D

 28 27  0  0  0  0  0  0  0  0999 V2000
   45.8560    3.0230    8.5388 Cl  0  0  0  0  0  0  0  0  0  0  0  0
   44.6779    4.3150    9.9889 C   0  0  0  0  0  0  0  0  0  0  0  0
   44.5076    3.7050    8.6577 C   0  0  0  0  0  0  0  0  0  0  0  0
   43.3530    4.9001   10.2661 N   0  0  0  0  0  0  0  0  0  0  0  0
   45.5914    3.0146    8.0084 C   0  0  0  0  0  0  0  0  0  0  0  0
   44.9604    3.3728   11.1133 C   0  0  0  0  0  0  0  0  0  0  0  0
   45.5681    5.5364   10.0075 C   0  0  0  0  0  0  0  0  0  0  0  0
   46.4608    3.6825    7.1862 C   0  0  0  0  0  0  0  0  0  0  0  0
   45.7834    1.6403    8.2021 C   0  0  0  0  0  0  0  0  0  0  0  0
   47.5073    3.0505    6.5509 C   0  0  0  0  0  0  0  0  0  0  0  0
   46.8237    0.9661    7.5817 C   0  0  0  0  0  0  0  0  0  0  0  0
   47.6705    1.7100    6.7579 C   0  0  0  0  0  0  0  0  0  0  0  0
   45.2287    3.9390    9.3527 H   0  0  0  0  0  0  0  0  0  0  0  0
   43.6368    3.0105    8.6987 H   0  0  0  0  0  0  0  0  0  0  0  0
   44.1579    4.5198    7.9717 H   0  0  0  0  0  0  0  0  0  0  0  0
   42.5976    4.2242   10.1295 H   0  0  0  0  0  0  0  0  0  0  0  0
   43.3401    5.4558   11.1272 H   0  0  0  0  0  0  0  0  0  0  0  0
   44.2631    3.5112   11.9933 H   0  0  0  0  0  0  0  0  0  0  0  0
   45.9597    3.5894   11.5962 H   0  0  0  0  0  0  0  0  0  0  0  0
   44.8379    2.3048   10.8560 H   0  0  0  0  0  0  0  0  0  0  0  0
   46.6323    5.3431    9.8471 H   0  0  0  0  0  0  0  0  0  0  0  0
   45.1803    6.2596    9.2686 H   0  0  0  0  0  0  0  0  0  0  0  0
   45.4533    5.9980   11.0159 H   0  0  0  0  0  0  0  0  0  0  0  0
   46.3397    4.7306    7.0194 H   0  0  0  0  0  0  0  0  0  0  0  0
   45.1428    1.0529    8.8312 H   0  0  0  0  0  0  0  0  0  0  0  0
   48.1921    3.5698    5.9050 H   0  0  0  0  0  0  0  0  0  0  0  0
   46.9870   -0.0926    7.7193 H   0  0  0  0  0  0  0  0  0  0  0  0
   48.4768    1.1357    6.2900 H   0  0  0  0  0  0  0  0  0  0  0  0
  3  2  1  0
  4  2  1  0
  5  3  1  0
  6  2  1  0
  7  2  1  0
  8  5  2  0
  9  5  1  0
 10  8  1  0
 11  9  2  0
 12 10  2  0
 11 12  1  0
  1 13  1  0
  3 14  1  0
  3 15  1  0
  4 16  1  0
  4 17  1  0
  6 18  1  0
  6 19  1  0
  6 20  1  0
  7 21  1  0
  7 22  1  0
  7 23  1  0
  8 24  1  0
  9 25  1  0
 10 26  1  0
 11 27  1  0
 12 28  1  0
M  END
> <Uni-Dock RESULT> 
ENERGY=   -6.355  LOWER_BOUND=    0.000  UPPER_BOUND=    0.000
INTER + INTRA:          -6.355
INTER:                  -6.355
INTRA:                   0.000
UNBOUND:                 0.000

$$$$

     RDKit          3D

 28 27  0  0  0  0  0  0  0  0999 V2000
   45.7017    3.0954    8.6239 Cl  0  0  0  0  0  0  0  0  0  0  0  0
   44.6189    4.5640    9.9770 C   0  0  0  0  0  0  0  0  0  0  0  0
   44.3845    3.8400    8.7144 C   0  0  0  0  0  0  0  0  0  0  0  0
   43.3264    5.2259   10.2337 N   0  0  0  0  0  0  0  0  0  0  0  0
   45.4207    3.0484    8.1040 C   0  0  0  0  0  0  0  0  0  0  0  0
   44.9000    3.7200   11.1772 C   0  0  0  0  0  0  0  0  0  0  0  0
   45.5551    5.7444    9.8561 C   0  0  0  0  0  0  0  0  0  0  0  0
   46.2891    3.6008    7.1992 C   0  0  0  0  0  0  0  0  0  0  0  0
   45.5662    1.6915    8.4212 C   0  0  0  0  0  0  0  0  0  0  0  0
   47.2906    2.8701    6.5981 C   0  0  0  0  0  0  0  0  0  0  0  0
   46.5603    0.9206    7.8392 C   0  0  0  0  0  0  0  0  0  0  0  0
   47.4091    1.5492    6.9262 C   0  0  0  0  0  0  0  0  0  0  0  0
   45.1351    4.1082    9.3644 H   0  0  0  0  0  0  0  0  0  0  0  0
   43.4896    3.1884    8.8444 H   0  0  0  0  0  0  0  0  0  0  0  0
   44.0450    4.6009    7.9644 H   0  0  0  0  0  0  0  0  0  0  0  0
   42.5420    4.5715   10.1820 H   0  0  0  0  0  0  0  0  0  0  0  0
   43.3612    5.8595   11.0385 H   0  0  0  0  0  0  0  0  0  0  0  0
   44.2359    3.9680   12.0589 H   0  0  0  0  0  0  0  0  0  0  0  0
   45.9212    3.9396   11.6102 H   0  0  0  0  0  0  0  0  0  0  0  0
   44.7290    2.6384   11.0253 H   0  0  0  0  0  0  0  0  0  0  0  0
   46.6057    5.4938    9.6858 H   0  0  0  0  0  0  0  0  0  0  0  0
   45.1724    6.4108    9.0631 H   0  0  0  0  0  0  0  0  0  0  0  0
   45.4891    6.3023   10.8192 H   0  0  0  0  0  0  0  0  0  0  0  0
   46.2028    4.6329    6.9375 H   0  0  0  0  0  0  0  0  0  0  0  0
   44.9234    1.1919    9.1202 H   0  0  0  0  0  0  0  0  0  0  0  0
   47.9744    3.2986    5.8877 H   0  0  0  0  0  0  0  0  0  0  0  0
   46.6875   -0.1265    8.0716 H   0  0  0  0  0  0  0  0  0  0  0  0
   48.1781    0.9014    6.4928 H   0  0  0  0  0  0  0  0  0  0  0  0
  3  2  1  0
  4  2  1  0
  5  3  1  0
  6  2  1  0
  7  2  1  0
  8  5  2  0
  9  5  1  0
 10  8  1  0
 11  9  2  0
 12 10  2  0
 11 12  1  0
  1 13  1  0
  3 14  1  0
  3 15  1  0
  4 16  1  0
  4 17  1  0
  6 18  1  0
  6 19  1  0
  6 20  1  0
  7 21  1  0
  7 22  1  0
  7 23  1  0
  8 24  1  0
  9 25  1  0
 10 26  1  0
 11 27  1  0
 12 28  1  0
M  END
> <Uni-Dock RESULT> 
ENERGY=   -6.005  LOWER_BOUND=    0.282  UPPER_BOUND=    0.282
INTER + INTRA:          -6.005
INTER:                  -6.005
INTRA:                   0.000
UNBOUND:                 0.000

$$$$

     RDKit          3D

 28 27  0  0  0  0  0  0  0  0999 V2000
   45.6918    3.3621    8.4809 Cl  0  0  0  0  0  0  0  0  0  0  0  0
   46.7845    2.6284    6.6295 C   0  0  0  0  0  0  0  0  0  0  0  0
   45.4222    3.0274    7.0273 C   0  0  0  0  0  0  0  0  0  0  0  0
   46.6629    2.4084    5.1764 N   0  0  0  0  0  0  0  0  0  0  0  0
   45.1054    3.3395    8.3967 C   0  0  0  0  0  0  0  0  0  0  0  0
   47.8506    3.6599    6.8066 C   0  0  0  0  0  0  0  0  0  0  0  0
   47.2029    1.2606    7.1180 C   0  0  0  0  0  0  0  0  0  0  0  0
   44.6769    2.3659    9.2606 C   0  0  0  0  0  0  0  0  0  0  0  0
   45.2279    4.6491    8.8796 C   0  0  0  0  0  0  0  0  0  0  0  0
   44.3662    2.6326   10.5761 C   0  0  0  0  0  0  0  0  0  0  0  0
   44.9255    4.9601   10.1961 C   0  0  0  0  0  0  0  0  0  0  0  0
   44.4948    3.9184   11.0198 C   0  0  0  0  0  0  0  0  0  0  0  0
   46.3333    2.7595    7.4224 H   0  0  0  0  0  0  0  0  0  0  0  0
   45.1133    3.8950    6.3996 H   0  0  0  0  0  0  0  0  0  0  0  0
   44.7351    2.2072    6.6929 H   0  0  0  0  0  0  0  0  0  0  0  0
   46.2264    3.2025    4.7021 H   0  0  0  0  0  0  0  0  0  0  0  0
   47.5181    2.0229    4.7634 H   0  0  0  0  0  0  0  0  0  0  0  0
   48.4618    3.8308    5.8701 H   0  0  0  0  0  0  0  0  0  0  0  0
   48.6518    3.3110    7.5242 H   0  0  0  0  0  0  0  0  0  0  0  0
   47.4731    4.6694    7.0527 H   0  0  0  0  0  0  0  0  0  0  0  0
   47.3838    1.1822    8.1935 H   0  0  0  0  0  0  0  0  0  0  0  0
   46.4454    0.5279    6.7885 H   0  0  0  0  0  0  0  0  0  0  0  0
   48.1549    1.0131    6.5929 H   0  0  0  0  0  0  0  0  0  0  0  0
   44.5738    1.3583    8.9212 H   0  0  0  0  0  0  0  0  0  0  0  0
   45.5571    5.4619    8.2614 H   0  0  0  0  0  0  0  0  0  0  0  0
   44.0296    1.8725   11.2579 H   0  0  0  0  0  0  0  0  0  0  0  0
   45.0140    5.9636   10.5858 H   0  0  0  0  0  0  0  0  0  0  0  0
   44.2679    4.2113   12.0501 H   0  0  0  0  0  0  0  0  0  0  0  0
  3  2  1  0
  4  2  1  0
  5  3  1  0
  6  2  1  0
  7  2  1  0
  8  5  2  0
  9  5  1  0
 10  8  1  0
 11  9  2  0
 12 10  2  0
 11 12  1  0
  1 13  1  0
  3 14  1  0
  3 15  1  0
  4 16  1  0
  4 17  1  0
  6 18  1  0
  6 19  1  0
  6 20  1  0
  7 21  1  0
  7 22  1  0
  7 23  1  0
  8 24  1  0
  9 25  1  0
 10 26  1  0
 11 27  1  0
 12 28  1  0
M  END
> <Uni-Dock RESULT> 
ENERGY=   -4.312  LOWER_BOUND=    2.087  UPPER_BOUND=    4.352
INTER + INTRA:          -4.312
INTER:                  -4.312
INTRA:                   0.000
UNBOUND:                 0.000

$$$$

     RDKit          3D

 28 27  0  0  0  0  0  0  0  0999 V2000
   44.6550    4.6549   10.2467 Cl  0  0  0  0  0  0  0  0  0  0  0  0
   44.0505    5.9858   11.9854 C   0  0  0  0  0  0  0  0  0  0  0  0
   45.1952    5.1538   11.5722 C   0  0  0  0  0  0  0  0  0  0  0  0
   44.5313    6.6362   13.2185 N   0  0  0  0  0  0  0  0  0  0  0  0
   45.1365    4.3387   10.3868 C   0  0  0  0  0  0  0  0  0  0  0  0
   43.6690    7.0898   11.0540 C   0  0  0  0  0  0  0  0  0  0  0  0
   42.8592    5.2039   12.4896 C   0  0  0  0  0  0  0  0  0  0  0  0
   44.6872    3.0453   10.4422 C   0  0  0  0  0  0  0  0  0  0  0  0
   45.5384    4.8497    9.1457 C   0  0  0  0  0  0  0  0  0  0  0  0
   44.6192    2.2403    9.3262 C   0  0  0  0  0  0  0  0  0  0  0  0
   45.4859    4.0734    7.9985 C   0  0  0  0  0  0  0  0  0  0  0  0
   45.0176    2.7648    8.1292 C   0  0  0  0  0  0  0  0  0  0  0  0
   44.2033    5.3255   11.3608 H   0  0  0  0  0  0  0  0  0  0  0  0
   46.0938    5.8082   11.4919 H   0  0  0  0  0  0  0  0  0  0  0  0
   45.4374    4.4850   12.4387 H   0  0  0  0  0  0  0  0  0  0  0  0
   45.4413    7.0844   13.0874 H   0  0  0  0  0  0  0  0  0  0  0  0
   43.8001    7.1794   13.6883 H   0  0  0  0  0  0  0  0  0  0  0  0
   43.5916    8.0953   11.5666 H   0  0  0  0  0  0  0  0  0  0  0  0
   42.6130    6.9636   10.6699 H   0  0  0  0  0  0  0  0  0  0  0  0
   44.3955    7.2730   10.2411 H   0  0  0  0  0  0  0  0  0  0  0  0
   42.3090    4.6450   11.7277 H   0  0  0  0  0  0  0  0  0  0  0  0
   43.2000    4.5379   13.3018 H   0  0  0  0  0  0  0  0  0  0  0  0
   42.1596    5.9461   12.9401 H   0  0  0  0  0  0  0  0  0  0  0  0
   44.3740    2.6281   11.3744 H   0  0  0  0  0  0  0  0  0  0  0  0
   45.9009    5.8525    9.0264 H   0  0  0  0  0  0  0  0  0  0  0  0
   44.2675    1.2250    9.3642 H   0  0  0  0  0  0  0  0  0  0  0  0
   45.7914    4.4504    7.0335 H   0  0  0  0  0  0  0  0  0  0  0  0
   44.9938    2.1903    7.1974 H   0  0  0  0  0  0  0  0  0  0  0  0
  3  2  1  0
  4  2  1  0
  5  3  1  0
  6  2  1  0
  7  2  1  0
  8  5  2  0
  9  5  1  0
 10  8  1  0
 11  9  2  0
 12 10  2  0
 11 12  1  0
  1 13  1  0
  3 14  1  0
  3 15  1  0
  4 16  1  0
  4 17  1  0
  6 18  1  0
  6 19  1  0
  6 20  1  0
  7 21  1  0
  7 22  1  0
  7 23  1  0
  8 24  1  0
  9 25  1  0
 10 26  1  0
 11 27  1  0
 12 28  1  0
M  END
> <Uni-Dock RESULT> 
ENERGY=   -3.889  LOWER_BOUND=    2.090  UPPER_BOUND=    3.402
INTER + INTRA:          -3.889
INTER:                  -3.889
INTRA:                   0.000
UNBOUND:                 0.000

$$$$

     RDKit          3D

 28 27  0  0  0  0  0  0  0  0999 V2000
   45.7520    5.6605   12.2372 Cl  0  0  0  0  0  0  0  0  0  0  0  0
   43.8312    4.6296   11.5988 C   0  0  0  0  0  0  0  0  0  0  0  0
   44.2582    5.7270   12.4857 C   0  0  0  0  0  0  0  0  0  0  0  0
   42.3593    4.6958   11.6613 N   0  0  0  0  0  0  0  0  0  0  0  0
   45.6527    6.0093   12.7062 C   0  0  0  0  0  0  0  0  0  0  0  0
   44.1933    4.7705   10.1562 C   0  0  0  0  0  0  0  0  0  0  0  0
   44.1042    3.2454   12.1410 C   0  0  0  0  0  0  0  0  0  0  0  0
   46.3409    5.4075   13.7270 C   0  0  0  0  0  0  0  0  0  0  0  0
   46.3407    6.9081   11.8805 C   0  0  0  0  0  0  0  0  0  0  0  0
   47.6751    5.6567   13.9637 C   0  0  0  0  0  0  0  0  0  0  0  0
   47.6832    7.1870   12.0842 C   0  0  0  0  0  0  0  0  0  0  0  0
   48.3207    6.5376   13.1429 C   0  0  0  0  0  0  0  0  0  0  0  0
   44.6249    4.9171   11.9685 H   0  0  0  0  0  0  0  0  0  0  0  0
   43.7703    6.6676   12.1401 H   0  0  0  0  0  0  0  0  0  0  0  0
   43.7826    5.5391   13.4834 H   0  0  0  0  0  0  0  0  0  0  0  0
   42.0084    5.6390   11.4783 H   0  0  0  0  0  0  0  0  0  0  0  0
   41.9086    3.9195   11.1667 H   0  0  0  0  0  0  0  0  0  0  0  0
   43.3094    4.6389    9.4625 H   0  0  0  0  0  0  0  0  0  0  0  0
   44.8632    3.9273    9.8113 H   0  0  0  0  0  0  0  0  0  0  0  0
   44.5890    5.7649    9.8796 H   0  0  0  0  0  0  0  0  0  0  0  0
   45.1571    2.9515   12.1670 H   0  0  0  0  0  0  0  0  0  0  0  0
   43.6459    3.1687   13.1427 H   0  0  0  0  0  0  0  0  0  0  0  0
   43.5669    2.5312   11.4743 H   0  0  0  0  0  0  0  0  0  0  0  0
   45.8431    4.7177   14.3730 H   0  0  0  0  0  0  0  0  0  0  0  0
   45.8671    7.4162   11.0626 H   0  0  0  0  0  0  0  0  0  0  0  0
   48.2197    5.1873   14.7631 H   0  0  0  0  0  0  0  0  0  0  0  0
   48.2296    7.8767   11.4579 H   0  0  0  0  0  0  0  0  0  0  0  0
   49.3795    6.7887   13.2649 H   0  0  0  0  0  0  0  0  0  0  0  0
  3  2  1  0
  4  2  1  0
  5  3  1  0
  6  2  1  0
  7  2  1  0
  8  5  2  0
  9  5  1  0
 10  8  1  0
 11  9  2  0
 12 10  2  0
 11 12  1  0
  1 13  1  0
  3 14  1  0
  3 15  1  0
  4 16  1  0
  4 17  1  0
  6 18  1  0
  6 19  1  0
  6 20  1  0
  7 21  1  0
  7 22  1  0
  7 23  1  0
  8 24  1  0
  9 25  1  0
 10 26  1  0
 11 27  1  0
 12 28  1  0
M  END
> <Uni-Dock RESULT> 
ENERGY=   -3.448  LOWER_BOUND=    3.660  UPPER_BOUND=    5.520
INTER + INTRA:          -3.448
INTER:                  -3.448
INTRA:                   0.000
UNBOUND:                 0.000

$$$$
