
     RDKit          3D

 28 27  0  0  0  0  0  0  0  0999 V2000
   45.1818    4.0277    9.3556 Cl  0  0  0  0  0  0  0  0  0  0  0  0
   44.7033    4.3105    9.9796 C   0  0  0  0  0  0  0  0  0  0  0  0
   44.3468    3.7205    8.6348 C   0  0  0  0  0  0  0  0  0  0  0  0
   45.1931    3.2808   10.8764 N   0  0  0  0  0  0  0  0  0  0  0  0
   45.5190    3.0788    7.9878 C   0  0  0  0  0  0  0  0  0  0  0  0
   43.5082    4.9495   10.6470 C   0  0  0  0  0  0  0  0  0  0  0  0
   45.7374    5.4168    9.8416 C   0  0  0  0  0  0  0  0  0  0  0  0
   46.3846    3.7461    7.1492 C   0  0  0  0  0  0  0  0  0  0  0  0
   45.7462    1.7327    8.2486 C   0  0  0  0  0  0  0  0  0  0  0  0
   47.4680    3.0683    6.5779 C   0  0  0  0  0  0  0  0  0  0  0  0
   46.8116    1.0512    7.6914 C   0  0  0  0  0  0  0  0  0  0  0  0
   47.6689    1.7424    6.8513 C   0  0  0  0  0  0  0  0  0  0  0  0
   45.8366    3.1626    8.5122 H   0  0  0  0  0  0  0  0  0  0  0  0
   43.9729    4.4822    7.9343 H   0  0  0  0  0  0  0  0  0  0  0  0
   43.5483    2.9827    8.7931 H   0  0  0  0  0  0  0  0  0  0  0  0
   44.3564    2.7387   11.2140 H   0  0  0  0  0  0  0  0  0  0  0  0
   45.5619    3.7660   11.7182 H   0  0  0  0  0  0  0  0  0  0  0  0
   43.0434    5.6924    9.9724 H   0  0  0  0  0  0  0  0  0  0  0  0
   42.7888    4.2019   11.0347 H   0  0  0  0  0  0  0  0  0  0  0  0
   43.9258    5.5082   11.5201 H   0  0  0  0  0  0  0  0  0  0  0  0
   46.7865    5.0318    9.9668 H   0  0  0  0  0  0  0  0  0  0  0  0
   45.6288    6.1838   10.6635 H   0  0  0  0  0  0  0  0  0  0  0  0
   45.5919    6.0004    8.9152 H   0  0  0  0  0  0  0  0  0  0  0  0
   46.2192    4.7934    6.9380 H   0  0  0  0  0  0  0  0  0  0  0  0
   45.0754    1.1921    8.9058 H   0  0  0  0  0  0  0  0  0  0  0  0
   48.1421    3.6134    5.9167 H   0  0  0  0  0  0  0  0  0  0  0  0
   47.0067   -0.0029    7.8833 H   0  0  0  0  0  0  0  0  0  0  0  0
   48.5033    1.1929    6.4201 H   0  0  0  0  0  0  0  0  0  0  0  0
  3  2  1  0
  4  2  1  0
  5  3  1  0
  6  2  1  0
  7  2  1  0
  8  5  2  0
  9  5  1  0
 10  8  1  0
 11  9  2  0
 12 10  2  0
 11 12  1  0
  1 13  1  0
  3 14  1  0
  3 15  1  0
  4 16  1  0
  4 17  1  0
  6 18  1  0
  6 19  1  0
  6 20  1  0
  7 21  1  0
  7 22  1  0
  7 23  1  0
  8 24  1  0
  9 25  1  0
 10 26  1  0
 11 27  1  0
 12 28  1  0
M  END
> <Uni-Dock RESULT> 
ENERGY=   -6.106  LOWER_BOUND=    0.000  UPPER_BOUND=    0.000
INTER + INTRA:          -6.106
INTER:                  -6.106
INTRA:                   0.000
UNBOUND:                 0.000

$$$$

     RDKit          3D

 28 27  0  0  0  0  0  0  0  0999 V2000
   46.4451    2.7884    7.3780 Cl  0  0  0  0  0  0  0  0  0  0  0  0
   46.9182    2.7508    6.6901 C   0  0  0  0  0  0  0  0  0  0  0  0
   45.4728    3.1444    6.8892 C   0  0  0  0  0  0  0  0  0  0  0  0
   47.8037    3.7838    7.1932 N   0  0  0  0  0  0  0  0  0  0  0  0
   45.1527    3.3541    8.3238 C   0  0  0  0  0  0  0  0  0  0  0  0
   47.2502    2.5530    5.2298 C   0  0  0  0  0  0  0  0  0  0  0  0
   47.2280    1.4241    7.3655 C   0  0  0  0  0  0  0  0  0  0  0  0
   44.7004    2.3538    9.1560 C   0  0  0  0  0  0  0  0  0  0  0  0
   45.3216    4.6314    8.8450 C   0  0  0  0  0  0  0  0  0  0  0  0
   44.4205    2.6332   10.4988 C   0  0  0  0  0  0  0  0  0  0  0  0
   45.0490    4.9213   10.1685 C   0  0  0  0  0  0  0  0  0  0  0  0
   44.5954    3.8998   10.9867 C   0  0  0  0  0  0  0  0  0  0  0  0
   45.7553    3.2972    8.4521 H   0  0  0  0  0  0  0  0  0  0  0  0
   44.7791    2.3760    6.5164 H   0  0  0  0  0  0  0  0  0  0  0  0
   45.2951    4.0677    6.3208 H   0  0  0  0  0  0  0  0  0  0  0  0
   47.8051    4.5636    6.4861 H   0  0  0  0  0  0  0  0  0  0  0  0
   48.7661    3.3922    7.1697 H   0  0  0  0  0  0  0  0  0  0  0  0
   46.5508    1.8291    4.7716 H   0  0  0  0  0  0  0  0  0  0  0  0
   47.3126    3.5100    4.6756 H   0  0  0  0  0  0  0  0  0  0  0  0
   48.2652    2.0857    5.2221 H   0  0  0  0  0  0  0  0  0  0  0  0
   47.6278    1.5641    8.4072 H   0  0  0  0  0  0  0  0  0  0  0  0
   48.0553    0.8742    6.8279 H   0  0  0  0  0  0  0  0  0  0  0  0
   46.3719    0.7282    7.3140 H   0  0  0  0  0  0  0  0  0  0  0  0
   44.5647    1.3557    8.7632 H   0  0  0  0  0  0  0  0  0  0  0  0
   45.6763    5.4303    8.2047 H   0  0  0  0  0  0  0  0  0  0  0  0
   44.0635    1.8284   11.1420 H   0  0  0  0  0  0  0  0  0  0  0  0
   45.1749    5.9151   10.5958 H   0  0  0  0  0  0  0  0  0  0  0  0
   44.3851    4.1430   12.0264 H   0  0  0  0  0  0  0  0  0  0  0  0
  3  2  1  0
  4  2  1  0
  5  3  1  0
  6  2  1  0
  7  2  1  0
  8  5  2  0
  9  5  1  0
 10  8  1  0
 11  9  2  0
 12 10  2  0
 11 12  1  0
  1 13  1  0
  3 14  1  0
  3 15  1  0
  4 16  1  0
  4 17  1  0
  6 18  1  0
  6 19  1  0
  6 20  1  0
  7 21  1  0
  7 22  1  0
  7 23  1  0
  8 24  1  0
  9 25  1  0
 10 26  1  0
 11 27  1  0
 12 28  1  0
M  END
> <Uni-Dock RESULT> 
ENERGY=   -4.942  LOWER_BOUND=    1.851  UPPER_BOUND=    4.303
INTER + INTRA:          -4.942
INTER:                  -4.942
INTRA:                   0.000
UNBOUND:                 0.000

$$$$

     RDKit          3D

 28 27  0  0  0  0  0  0  0  0999 V2000
   46.4193    4.6146   13.2288 Cl  0  0  0  0  0  0  0  0  0  0  0  0
   46.7770    4.5275   13.9790 C   0  0  0  0  0  0  0  0  0  0  0  0
   45.3377    4.7544   13.5778 C   0  0  0  0  0  0  0  0  0  0  0  0
   47.1857    3.1700   13.6720 N   0  0  0  0  0  0  0  0  0  0  0  0
   45.1320    4.5390   12.1233 C   0  0  0  0  0  0  0  0  0  0  0  0
   46.9853    4.7301   15.4614 C   0  0  0  0  0  0  0  0  0  0  0  0
   47.7047    5.5189   13.2942 C   0  0  0  0  0  0  0  0  0  0  0  0
   45.2560    5.5370   11.1818 C   0  0  0  0  0  0  0  0  0  0  0  0
   44.7965    3.2586   11.6993 C   0  0  0  0  0  0  0  0  0  0  0  0
   45.0453    5.2521    9.8275 C   0  0  0  0  0  0  0  0  0  0  0  0
   44.5856    2.9634   10.3658 C   0  0  0  0  0  0  0  0  0  0  0  0
   44.7158    3.9826    9.4368 C   0  0  0  0  0  0  0  0  0  0  0  0
   45.7111    4.3241   12.0875 H   0  0  0  0  0  0  0  0  0  0  0  0
   45.0025    5.7787   13.7994 H   0  0  0  0  0  0  0  0  0  0  0  0
   44.7144    4.0596   14.1573 H   0  0  0  0  0  0  0  0  0  0  0  0
   46.7678    2.5452   14.4090 H   0  0  0  0  0  0  0  0  0  0  0  0
   48.2126    3.1235   13.8250 H   0  0  0  0  0  0  0  0  0  0  0  0
   46.6157    5.7262   15.7684 H   0  0  0  0  0  0  0  0  0  0  0  0
   46.5640    3.9030   16.0658 H   0  0  0  0  0  0  0  0  0  0  0  0
   48.0937    4.7282   15.6032 H   0  0  0  0  0  0  0  0  0  0  0  0
   48.1264    5.1093   12.3356 H   0  0  0  0  0  0  0  0  0  0  0  0
   48.6174    5.7290   13.9255 H   0  0  0  0  0  0  0  0  0  0  0  0
   47.2311    6.5098   13.1772 H   0  0  0  0  0  0  0  0  0  0  0  0
   45.5165    6.5374   11.4982 H   0  0  0  0  0  0  0  0  0  0  0  0
   44.6946    2.4615   12.4262 H   0  0  0  0  0  0  0  0  0  0  0  0
   45.1480    6.0551    9.0972 H   0  0  0  0  0  0  0  0  0  0  0  0
   44.3222    1.9671   10.0136 H   0  0  0  0  0  0  0  0  0  0  0  0
   44.5468    3.7352    8.3907 H   0  0  0  0  0  0  0  0  0  0  0  0
  3  2  1  0
  4  2  1  0
  5  3  1  0
  6  2  1  0
  7  2  1  0
  8  5  2  0
  9  5  1  0
 10  8  1  0
 11  9  2  0
 12 10  2  0
 11 12  1  0
  1 13  1  0
  3 14  1  0
  3 15  1  0
  4 16  1  0
  4 17  1  0
  6 18  1  0
  6 19  1  0
  6 20  1  0
  7 21  1  0
  7 22  1  0
  7 23  1  0
  8 24  1  0
  9 25  1  0
 10 26  1  0
 11 27  1  0
 12 28  1  0
M  END
> <Uni-Dock RESULT> 
ENERGY=   -3.260  LOWER_BOUND=    3.200  UPPER_BOUND=    4.465
INTER + INTRA:          -3.260
INTER:                  -3.260
INTRA:                   0.000
UNBOUND:                 0.000

$$$$

     RDKit          3D

 28 27  0  0  0  0  0  0  0  0999 V2000
   45.1951    3.8858    9.1218 Cl  0  0  0  0  0  0  0  0  0  0  0  0
   45.3064    3.2526    8.5878 C   0  0  0  0  0  0  0  0  0  0  0  0
   45.3559    3.3080   10.0972 C   0  0  0  0  0  0  0  0  0  0  0  0
   43.9383    3.3556    8.1167 N   0  0  0  0  0  0  0  0  0  0  0  0
   44.7932    4.5789   10.6194 C   0  0  0  0  0  0  0  0  0  0  0  0
   45.8634    1.9534    8.0551 C   0  0  0  0  0  0  0  0  0  0  0  0
   46.1560    4.3499    7.9660 C   0  0  0  0  0  0  0  0  0  0  0  0
   45.5463    5.7121   10.8351 C   0  0  0  0  0  0  0  0  0  0  0  0
   43.4331    4.6167   10.9028 C   0  0  0  0  0  0  0  0  0  0  0  0
   44.9395    6.8723   11.3304 C   0  0  0  0  0  0  0  0  0  0  0  0
   42.8211    5.7551   11.3923 C   0  0  0  0  0  0  0  0  0  0  0  0
   43.5980    6.8826   11.6013 C   0  0  0  0  0  0  0  0  0  0  0  0
   44.6068    4.7158   10.0455 H   0  0  0  0  0  0  0  0  0  0  0  0
   46.3844    3.2329   10.4810 H   0  0  0  0  0  0  0  0  0  0  0  0
   44.7854    2.4522   10.4833 H   0  0  0  0  0  0  0  0  0  0  0  0
   43.4837    2.4195    8.2748 H   0  0  0  0  0  0  0  0  0  0  0  0
   43.9835    3.4664    7.0844 H   0  0  0  0  0  0  0  0  0  0  0  0
   46.8829    1.7828    8.4484 H   0  0  0  0  0  0  0  0  0  0  0  0
   45.1810    1.0978    8.2257 H   0  0  0  0  0  0  0  0  0  0  0  0
   45.9535    2.1053    6.9517 H   0  0  0  0  0  0  0  0  0  0  0  0
   45.5549    5.2737    7.7430 H   0  0  0  0  0  0  0  0  0  0  0  0
   46.5569    4.0357    6.9579 H   0  0  0  0  0  0  0  0  0  0  0  0
   47.0649    4.5508    8.5604 H   0  0  0  0  0  0  0  0  0  0  0  0
   46.6054    5.6961   10.6188 H   0  0  0  0  0  0  0  0  0  0  0  0
   42.8255    3.7345   10.7393 H   0  0  0  0  0  0  0  0  0  0  0  0
   45.5520    7.7592   11.4946 H   0  0  0  0  0  0  0  0  0  0  0  0
   41.7574    5.8049   11.6204 H   0  0  0  0  0  0  0  0  0  0  0  0
   43.1024    7.7714   11.9869 H   0  0  0  0  0  0  0  0  0  0  0  0
  3  2  1  0
  4  2  1  0
  5  3  1  0
  6  2  1  0
  7  2  1  0
  8  5  2  0
  9  5  1  0
 10  8  1  0
 11  9  2  0
 12 10  2  0
 11 12  1  0
  1 13  1  0
  3 14  1  0
  3 15  1  0
  4 16  1  0
  4 17  1  0
  6 18  1  0
  6 19  1  0
  6 20  1  0
  7 21  1  0
  7 22  1  0
  7 23  1  0
  8 24  1  0
  9 25  1  0
 10 26  1  0
 11 27  1  0
 12 28  1  0
M  END
> <Uni-Dock RESULT> 
ENERGY=   -3.141  LOWER_BOUND=    1.464  UPPER_BOUND=    4.577
INTER + INTRA:          -3.141
INTER:                  -3.141
INTRA:                   0.000
UNBOUND:                 0.000

$$$$
