
     RDKit          3D

 28 27  0  0  0  0  0  0  0  0999 V2000
   45.8677    3.0477    8.3857 Cl  0  0  0  0  0  0  0  0  0  0  0  0
   44.6017    4.3414    9.8645 C   0  0  0  0  0  0  0  0  0  0  0  0
   44.3318    3.7527    8.5026 C   0  0  0  0  0  0  0  0  0  0  0  0
   43.4052    4.9917   10.3640 N   0  0  0  0  0  0  0  0  0  0  0  0
   45.5176    3.0670    7.9249 C   0  0  0  0  0  0  0  0  0  0  0  0
   45.0271    3.2469   10.8042 C   0  0  0  0  0  0  0  0  0  0  0  0
   45.6708    5.4265    9.7606 C   0  0  0  0  0  0  0  0  0  0  0  0
   45.7159    1.7237    8.1733 C   0  0  0  0  0  0  0  0  0  0  0  0
   46.4418    3.7386    7.1358 C   0  0  0  0  0  0  0  0  0  0  0  0
   46.7880    1.0118    7.6768 C   0  0  0  0  0  0  0  0  0  0  0  0
   47.5161    3.0135    6.6416 C   0  0  0  0  0  0  0  0  0  0  0  0
   47.6919    1.6809    6.9016 C   0  0  0  0  0  0  0  0  0  0  0  0
   45.2407    3.9413    9.2325 H   0  0  0  0  0  0  0  0  0  0  0  0
   43.9306    4.5338    7.8092 H   0  0  0  0  0  0  0  0  0  0  0  0
   43.5392    2.9707    8.6678 H   0  0  0  0  0  0  0  0  0  0  0  0
   43.4214    6.0218   10.2419 H   0  0  0  0  0  0  0  0  0  0  0  0
   42.5578    4.5556    9.9472 H   0  0  0  0  0  0  0  0  0  0  0  0
   44.1783    2.5730   10.9665 H   0  0  0  0  0  0  0  0  0  0  0  0
   45.3063    3.6955   11.7968 H   0  0  0  0  0  0  0  0  0  0  0  0
   45.9394    2.7554   10.4488 H   0  0  0  0  0  0  0  0  0  0  0  0
   45.5709    6.1211   10.6456 H   0  0  0  0  0  0  0  0  0  0  0  0
   45.5543    6.0356    8.8632 H   0  0  0  0  0  0  0  0  0  0  0  0
   46.6914    4.9894    9.7699 H   0  0  0  0  0  0  0  0  0  0  0  0
   44.9955    1.1793    8.7942 H   0  0  0  0  0  0  0  0  0  0  0  0
   46.3046    4.7984    6.9272 H   0  0  0  0  0  0  0  0  0  0  0  0
   46.9124   -0.0504    7.8943 H   0  0  0  0  0  0  0  0  0  0  0  0
   48.2424    3.5296    6.0248 H   0  0  0  0  0  0  0  0  0  0  0  0
   48.5566    1.1531    6.4882 H   0  0  0  0  0  0  0  0  0  0  0  0
  3  2  1  0
  4  2  1  0
  5  3  1  0
  6  2  1  0
  7  2  1  0
  8  5  2  0
  9  5  1  0
 10  8  1  0
 11  9  2  0
 12 10  2  0
 11 12  1  0
  1 13  1  0
  3 14  1  0
  3 15  1  0
  4 16  1  0
  4 17  1  0
  6 18  1  0
  6 19  1  0
  6 20  1  0
  7 21  1  0
  7 22  1  0
  7 23  1  0
  8 24  1  0
  9 25  1  0
 10 26  1  0
 11 27  1  0
 12 28  1  0
M  END
> <Uni-Dock RESULT> 
ENERGY=   -5.831  LOWER_BOUND=    0.000  UPPER_BOUND=    0.000
INTER + INTRA:          -5.831
INTER:                  -5.831
INTRA:                   0.000
UNBOUND:                 0.000

$$$$

     RDKit          3D

 28 27  0  0  0  0  0  0  0  0999 V2000
   45.6670    2.9742    8.6959 Cl  0  0  0  0  0  0  0  0  0  0  0  0
   44.4849    4.2120   10.2879 C   0  0  0  0  0  0  0  0  0  0  0  0
   44.1475    3.6908    8.9135 C   0  0  0  0  0  0  0  0  0  0  0  0
   43.3205    4.8520   10.8696 N   0  0  0  0  0  0  0  0  0  0  0  0
   45.2973    3.0192    8.2526 C   0  0  0  0  0  0  0  0  0  0  0  0
   44.9362    3.0698   11.1561 C   0  0  0  0  0  0  0  0  0  0  0  0
   45.5632    5.2883   10.1867 C   0  0  0  0  0  0  0  0  0  0  0  0
   45.4880    1.6635    8.4295 C   0  0  0  0  0  0  0  0  0  0  0  0
   46.1951    3.7161    7.4550 C   0  0  0  0  0  0  0  0  0  0  0  0
   46.5273    0.9632    7.8535 C   0  0  0  0  0  0  0  0  0  0  0  0
   47.2366    3.0025    6.8805 C   0  0  0  0  0  0  0  0  0  0  0  0
   47.4054    1.6572    7.0706 C   0  0  0  0  0  0  0  0  0  0  0  0
   45.0901    3.8345    9.6102 H   0  0  0  0  0  0  0  0  0  0  0  0
   43.7269    4.5081    8.2755 H   0  0  0  0  0  0  0  0  0  0  0  0
   43.3523    2.9112    9.0775 H   0  0  0  0  0  0  0  0  0  0  0  0
   43.3455    5.8864   10.7947 H   0  0  0  0  0  0  0  0  0  0  0  0
   42.4498    4.4458   10.4712 H   0  0  0  0  0  0  0  0  0  0  0  0
   44.0862    2.3990   11.3247 H   0  0  0  0  0  0  0  0  0  0  0  0
   45.2648    3.4683   12.1549 H   0  0  0  0  0  0  0  0  0  0  0  0
   45.8252    2.5849   10.7381 H   0  0  0  0  0  0  0  0  0  0  0  0
   45.5118    5.9417   11.1064 H   0  0  0  0  0  0  0  0  0  0  0  0
   45.4158    5.9400    9.3246 H   0  0  0  0  0  0  0  0  0  0  0  0
   46.5772    4.8394   10.1304 H   0  0  0  0  0  0  0  0  0  0  0  0
   44.7881    1.0990    9.0561 H   0  0  0  0  0  0  0  0  0  0  0  0
   46.0633    4.7860    7.3020 H   0  0  0  0  0  0  0  0  0  0  0  0
   46.6466   -0.1094    8.0159 H   0  0  0  0  0  0  0  0  0  0  0  0
   47.9421    3.5385    6.2566 H   0  0  0  0  0  0  0  0  0  0  0  0
   48.2438    1.1394    6.5951 H   0  0  0  0  0  0  0  0  0  0  0  0
  3  2  1  0
  4  2  1  0
  5  3  1  0
  6  2  1  0
  7  2  1  0
  8  5  2  0
  9  5  1  0
 10  8  1  0
 11  9  2  0
 12 10  2  0
 11 12  1  0
  1 13  1  0
  3 14  1  0
  3 15  1  0
  4 16  1  0
  4 17  1  0
  6 18  1  0
  6 19  1  0
  6 20  1  0
  7 21  1  0
  7 22  1  0
  7 23  1  0
  8 24  1  0
  9 25  1  0
 10 26  1  0
 11 27  1  0
 12 28  1  0
M  END
> <Uni-Dock RESULT> 
ENERGY=   -5.392  LOWER_BOUND=    0.409  UPPER_BOUND=    0.409
INTER + INTRA:          -5.392
INTER:                  -5.392
INTRA:                   0.000
UNBOUND:                 0.000

$$$$

     RDKit          3D

 28 27  0  0  0  0  0  0  0  0999 V2000
   45.1936    6.5164   12.2052 Cl  0  0  0  0  0  0  0  0  0  0  0  0
   43.8777    4.6708   11.6345 C   0  0  0  0  0  0  0  0  0  0  0  0
   44.8923    5.4979   10.8855 C   0  0  0  0  0  0  0  0  0  0  0  0
   43.4285    3.5721   10.8009 N   0  0  0  0  0  0  0  0  0  0  0  0
   45.4000    6.6471   11.6802 C   0  0  0  0  0  0  0  0  0  0  0  0
   44.5011    4.1421   12.8969 C   0  0  0  0  0  0  0  0  0  0  0  0
   42.6417    5.5136   11.9400 C   0  0  0  0  0  0  0  0  0  0  0  0
   46.5148    6.4843   12.4779 C   0  0  0  0  0  0  0  0  0  0  0  0
   44.7849    7.8914   11.6471 C   0  0  0  0  0  0  0  0  0  0  0  0
   47.0510    7.4966   13.2461 C   0  0  0  0  0  0  0  0  0  0  0  0
   45.3320    8.9025   12.4232 C   0  0  0  0  0  0  0  0  0  0  0  0
   46.4391    8.7172   13.2071 C   0  0  0  0  0  0  0  0  0  0  0  0
   44.2748    5.5335   11.8915 H   0  0  0  0  0  0  0  0  0  0  0  0
   44.4785    5.8304    9.9006 H   0  0  0  0  0  0  0  0  0  0  0  0
   45.7617    4.8073   10.7008 H   0  0  0  0  0  0  0  0  0  0  0  0
   42.5113    3.7521   10.3507 H   0  0  0  0  0  0  0  0  0  0  0  0
   44.1657    3.3178   10.1125 H   0  0  0  0  0  0  0  0  0  0  0  0
   45.2858    3.4257   12.6283 H   0  0  0  0  0  0  0  0  0  0  0  0
   43.7230    3.5935   13.4952 H   0  0  0  0  0  0  0  0  0  0  0  0
   44.8321    4.9607   13.5453 H   0  0  0  0  0  0  0  0  0  0  0  0
   41.7636    4.8235   12.1075 H   0  0  0  0  0  0  0  0  0  0  0  0
   42.3760    6.1715   11.1114 H   0  0  0  0  0  0  0  0  0  0  0  0
   42.7872    6.1262   12.8545 H   0  0  0  0  0  0  0  0  0  0  0  0
   47.0119    5.5083   12.5151 H   0  0  0  0  0  0  0  0  0  0  0  0
   43.9044    8.0419   11.0246 H   0  0  0  0  0  0  0  0  0  0  0  0
   47.9343    7.3310   13.8653 H   0  0  0  0  0  0  0  0  0  0  0  0
   44.8584    9.8770   12.4035 H   0  0  0  0  0  0  0  0  0  0  0  0
   46.8327    9.5471   13.8016 H   0  0  0  0  0  0  0  0  0  0  0  0
  3  2  1  0
  4  2  1  0
  5  3  1  0
  6  2  1  0
  7  2  1  0
  8  5  2  0
  9  5  1  0
 10  8  1  0
 11  9  2  0
 12 10  2  0
 11 12  1  0
  1 13  1  0
  3 14  1  0
  3 15  1  0
  4 16  1  0
  4 17  1  0
  6 18  1  0
  6 19  1  0
  6 20  1  0
  7 21  1  0
  7 22  1  0
  7 23  1  0
  8 24  1  0
  9 25  1  0
 10 26  1  0
 11 27  1  0
 12 28  1  0
M  END
> <Uni-Dock RESULT> 
ENERGY=   -3.603  LOWER_BOUND=    4.153  UPPER_BOUND=    5.827
INTER + INTRA:          -3.603
INTER:                  -3.603
INTRA:                   0.000
UNBOUND:                 0.000

$$$$

     RDKit          3D

 28 27  0  0  0  0  0  0  0  0999 V2000
   39.1161   12.0521   13.3269 Cl  0  0  0  0  0  0  0  0  0  0  0  0
   38.9414   11.1536   11.1761 C   0  0  0  0  0  0  0  0  0  0  0  0
   38.9524   12.5604   11.7193 C   0  0  0  0  0  0  0  0  0  0  0  0
   38.8973   11.1874    9.7267 N   0  0  0  0  0  0  0  0  0  0  0  0
   38.9973   12.6054   13.2045 C   0  0  0  0  0  0  0  0  0  0  0  0
   40.1764   10.4315   11.6402 C   0  0  0  0  0  0  0  0  0  0  0  0
   37.6756   10.4300   11.6293 C   0  0  0  0  0  0  0  0  0  0  0  0
   40.2179   12.6307   13.8488 C   0  0  0  0  0  0  0  0  0  0  0  0
   37.8414   12.6230   13.9737 C   0  0  0  0  0  0  0  0  0  0  0  0
   40.3493   12.6727   15.2212 C   0  0  0  0  0  0  0  0  0  0  0  0
   37.9847   12.6652   15.3527 C   0  0  0  0  0  0  0  0  0  0  0  0
   39.2067   12.6897   15.9695 C   0  0  0  0  0  0  0  0  0  0  0  0
   38.8577   11.4503   12.1104 H   0  0  0  0  0  0  0  0  0  0  0  0
   38.0869   13.1441   11.3165 H   0  0  0  0  0  0  0  0  0  0  0  0
   39.9082   13.0185   11.3405 H   0  0  0  0  0  0  0  0  0  0  0  0
   37.9461   11.0262    9.3452 H   0  0  0  0  0  0  0  0  0  0  0  0
   39.3225   12.0687    9.3741 H   0  0  0  0  0  0  0  0  0  0  0  0
   41.0517   10.8939   11.1700 H   0  0  0  0  0  0  0  0  0  0  0  0
   40.1298    9.3596   11.3037 H   0  0  0  0  0  0  0  0  0  0  0  0
   40.2170   10.3836   12.7338 H   0  0  0  0  0  0  0  0  0  0  0  0
   37.4689    9.5785   10.9167 H   0  0  0  0  0  0  0  0  0  0  0  0
   36.7999   11.0801   11.6110 H   0  0  0  0  0  0  0  0  0  0  0  0
   37.7935   10.0126   12.6514 H   0  0  0  0  0  0  0  0  0  0  0  0
   41.1395   12.6173   13.2560 H   0  0  0  0  0  0  0  0  0  0  0  0
   36.8682   12.6037   13.4860 H   0  0  0  0  0  0  0  0  0  0  0  0
   41.3317   12.6917   15.6960 H   0  0  0  0  0  0  0  0  0  0  0  0
   37.0879   12.6793   15.9609 H   0  0  0  0  0  0  0  0  0  0  0  0
   39.2669   12.7230   17.0615 H   0  0  0  0  0  0  0  0  0  0  0  0
  3  2  1  0
  4  2  1  0
  5  3  1  0
  6  2  1  0
  7  2  1  0
  8  5  2  0
  9  5  1  0
 10  8  1  0
 11  9  2  0
 12 10  2  0
 11 12  1  0
  1 13  1  0
  3 14  1  0
  3 15  1  0
  4 16  1  0
  4 17  1  0
  6 18  1  0
  6 19  1  0
  6 20  1  0
  7 21  1  0
  7 22  1  0
  7 23  1  0
  8 24  1  0
  9 25  1  0
 10 26  1  0
 11 27  1  0
 12 28  1  0
M  END
> <Uni-Dock RESULT> 
ENERGY=   -3.284  LOWER_BOUND=   10.250  UPPER_BOUND=   12.542
INTER + INTRA:          -3.284
INTER:                  -3.284
INTRA:                   0.000
UNBOUND:                 0.000

$$$$

     RDKit          3D

 28 27  0  0  0  0  0  0  0  0999 V2000
   45.1650    6.1576   12.3285 Cl  0  0  0  0  0  0  0  0  0  0  0  0
   47.0471    7.5351   12.4830 C   0  0  0  0  0  0  0  0  0  0  0  0
   46.5244    6.6014   11.4203 C   0  0  0  0  0  0  0  0  0  0  0  0
   48.2354    8.2122   12.0001 N   0  0  0  0  0  0  0  0  0  0  0  0
   45.3023    5.8694   11.8455 C   0  0  0  0  0  0  0  0  0  0  0  0
   45.9830    8.5399   12.8296 C   0  0  0  0  0  0  0  0  0  0  0  0
   47.4750    6.7375   13.7127 C   0  0  0  0  0  0  0  0  0  0  0  0
   44.0596    6.4177   11.5996 C   0  0  0  0  0  0  0  0  0  0  0  0
   45.3691    4.6403   12.4880 C   0  0  0  0  0  0  0  0  0  0  0  0
   42.8770    5.8061   11.9603 C   0  0  0  0  0  0  0  0  0  0  0  0
   44.1741    4.0339   12.8464 C   0  0  0  0  0  0  0  0  0  0  0  0
   42.9526    4.5974   12.5918 C   0  0  0  0  0  0  0  0  0  0  0  0
   46.3295    6.8658   12.5546 H   0  0  0  0  0  0  0  0  0  0  0  0
   47.3280    5.8991   11.0843 H   0  0  0  0  0  0  0  0  0  0  0  0
   46.2357    7.2640   10.5574 H   0  0  0  0  0  0  0  0  0  0  0  0
   49.1151    7.7920   12.3549 H   0  0  0  0  0  0  0  0  0  0  0  0
   48.2164    8.2765   10.9621 H   0  0  0  0  0  0  0  0  0  0  0  0
   45.8153    9.1879   11.9619 H   0  0  0  0  0  0  0  0  0  0  0  0
   46.3418    9.1849   13.6779 H   0  0  0  0  0  0  0  0  0  0  0  0
   45.0833    8.0448   13.2111 H   0  0  0  0  0  0  0  0  0  0  0  0
   48.2183    7.3500   14.3026 H   0  0  0  0  0  0  0  0  0  0  0  0
   47.9721    5.8039   13.4462 H   0  0  0  0  0  0  0  0  0  0  0  0
   46.6078    6.5102   14.3679 H   0  0  0  0  0  0  0  0  0  0  0  0
   43.9899    7.3872   11.0934 H   0  0  0  0  0  0  0  0  0  0  0  0
   46.3390    4.1897   12.6917 H   0  0  0  0  0  0  0  0  0  0  0  0
   41.9119    6.2700   11.7494 H   0  0  0  0  0  0  0  0  0  0  0  0
   44.2168    3.0744   13.3483 H   0  0  0  0  0  0  0  0  0  0  0  0
   42.0380    4.0787   12.8946 H   0  0  0  0  0  0  0  0  0  0  0  0
  3  2  1  0
  4  2  1  0
  5  3  1  0
  6  2  1  0
  7  2  1  0
  8  5  2  0
  9  5  1  0
 10  8  1  0
 11  9  2  0
 12 10  2  0
 11 12  1  0
  1 13  1  0
  3 14  1  0
  3 15  1  0
  4 16  1  0
  4 17  1  0
  6 18  1  0
  6 19  1  0
  6 20  1  0
  7 21  1  0
  7 22  1  0
  7 23  1  0
  8 24  1  0
  9 25  1  0
 10 26  1  0
 11 27  1  0
 12 28  1  0
M  END
> <Uni-Dock RESULT> 
ENERGY=   -3.117  LOWER_BOUND=    4.937  UPPER_BOUND=    5.925
INTER + INTRA:          -3.117
INTER:                  -3.117
INTRA:                   0.000
UNBOUND:                 0.000

$$$$

     RDKit          3D

 28 27  0  0  0  0  0  0  0  0999 V2000
   46.4787    9.1015   12.2048 Cl  0  0  0  0  0  0  0  0  0  0  0  0
   47.7439    7.1904   12.6637 C   0  0  0  0  0  0  0  0  0  0  0  0
   47.1668    8.2881   13.5218 C   0  0  0  0  0  0  0  0  0  0  0  0
   48.3766    6.1917   13.5041 N   0  0  0  0  0  0  0  0  0  0  0  0
   46.4993    9.3519   12.7264 C   0  0  0  0  0  0  0  0  0  0  0  0
   46.6439    6.5630   11.8523 C   0  0  0  0  0  0  0  0  0  0  0  0
   48.8408    7.7546   11.7639 C   0  0  0  0  0  0  0  0  0  0  0  0
   45.1555    9.2400   12.4309 C   0  0  0  0  0  0  0  0  0  0  0  0
   47.1885   10.4659   12.2659 C   0  0  0  0  0  0  0  0  0  0  0  0
   44.4599   10.1801   11.6997 C   0  0  0  0  0  0  0  0  0  0  0  0
   46.4797   11.4052   11.5316 C   0  0  0  0  0  0  0  0  0  0  0  0
   45.1462   11.2724   11.2509 C   0  0  0  0  0  0  0  0  0  0  0  0
   47.3569    8.0496   12.3810 H   0  0  0  0  0  0  0  0  0  0  0  0
   47.9510    8.7116   14.1981 H   0  0  0  0  0  0  0  0  0  0  0  0
   46.3751    7.7910   14.1488 H   0  0  0  0  0  0  0  0  0  0  0  0
   49.4081    6.2934   13.5496 H   0  0  0  0  0  0  0  0  0  0  0  0
   47.9364    6.1830   14.4464 H   0  0  0  0  0  0  0  0  0  0  0  0
   45.9597    6.0414   12.5311 H   0  0  0  0  0  0  0  0  0  0  0  0
   47.0849    5.8003   11.1535 H   0  0  0  0  0  0  0  0  0  0  0  0
   46.1655    7.3017   11.1999 H   0  0  0  0  0  0  0  0  0  0  0  0
   49.5249    6.9116   11.4526 H   0  0  0  0  0  0  0  0  0  0  0  0
   49.4581    8.4918   12.2789 H   0  0  0  0  0  0  0  0  0  0  0  0
   48.4141    8.2173   10.8492 H   0  0  0  0  0  0  0  0  0  0  0  0
   44.5973    8.3668   12.7871 H   0  0  0  0  0  0  0  0  0  0  0  0
   48.2490   10.5742   12.4876 H   0  0  0  0  0  0  0  0  0  0  0  0
   43.3968   10.0580   11.4854 H   0  0  0  0  0  0  0  0  0  0  0  0
   47.0096   12.2778   11.1682 H   0  0  0  0  0  0  0  0  0  0  0  0
   44.6316   12.0417   10.6673 H   0  0  0  0  0  0  0  0  0  0  0  0
  3  2  1  0
  4  2  1  0
  5  3  1  0
  6  2  1  0
  7  2  1  0
  8  5  2  0
  9  5  1  0
 10  8  1  0
 11  9  2  0
 12 10  2  0
 11 12  1  0
  1 13  1  0
  3 14  1  0
  3 15  1  0
  4 16  1  0
  4 17  1  0
  6 18  1  0
  6 19  1  0
  6 20  1  0
  7 21  1  0
  7 22  1  0
  7 23  1  0
  8 24  1  0
  9 25  1  0
 10 26  1  0
 11 27  1  0
 12 28  1  0
M  END
> <Uni-Dock RESULT> 
ENERGY=   -3.044  LOWER_BOUND=    5.640  UPPER_BOUND=    7.802
INTER + INTRA:          -3.044
INTER:                  -3.044
INTRA:                   0.000
UNBOUND:                 0.000

$$$$

     RDKit          3D

 28 27  0  0  0  0  0  0  0  0999 V2000
   54.5048    6.3482    7.7595 Cl  0  0  0  0  0  0  0  0  0  0  0  0
   55.2800    4.9009    9.4233 C   0  0  0  0  0  0  0  0  0  0  0  0
   54.7554    4.6939    8.0246 C   0  0  0  0  0  0  0  0  0  0  0  0
   55.7075    3.6315    9.9799 N   0  0  0  0  0  0  0  0  0  0  0  0
   54.2968    5.9563    7.3875 C   0  0  0  0  0  0  0  0  0  0  0  0
   56.4340    5.8645    9.3842 C   0  0  0  0  0  0  0  0  0  0  0  0
   54.1624    5.4140   10.3282 C   0  0  0  0  0  0  0  0  0  0  0  0
   55.1893    6.7134    6.6554 C   0  0  0  0  0  0  0  0  0  0  0  0
   52.9879    6.4045    7.5047 C   0  0  0  0  0  0  0  0  0  0  0  0
   54.8473    7.8955    6.0326 C   0  0  0  0  0  0  0  0  0  0  0  0
   52.6544    7.5943    6.8746 C   0  0  0  0  0  0  0  0  0  0  0  0
   53.5574    8.3284    6.1535 C   0  0  0  0  0  0  0  0  0  0  0  0
   54.8216    5.5463    8.8391 H   0  0  0  0  0  0  0  0  0  0  0  0
   53.9525    3.9147    8.0172 H   0  0  0  0  0  0  0  0  0  0  0  0
   55.6336    4.3174    7.4297 H   0  0  0  0  0  0  0  0  0  0  0  0
   55.0082    3.2131   10.6219 H   0  0  0  0  0  0  0  0  0  0  0  0
   55.9872    2.9805    9.2185 H   0  0  0  0  0  0  0  0  0  0  0  0
   57.2679    5.3931    8.8518 H   0  0  0  0  0  0  0  0  0  0  0  0
   56.7735    6.0819   10.4339 H   0  0  0  0  0  0  0  0  0  0  0  0
   56.1236    6.8343    8.9802 H   0  0  0  0  0  0  0  0  0  0  0  0
   54.4240    5.1742   11.4004 H   0  0  0  0  0  0  0  0  0  0  0  0
   53.2071    4.9314   10.1181 H   0  0  0  0  0  0  0  0  0  0  0  0
   54.0395    6.5135   10.2336 H   0  0  0  0  0  0  0  0  0  0  0  0
   56.2261    6.3733    6.5534 H   0  0  0  0  0  0  0  0  0  0  0  0
   52.2674    5.8228    8.0774 H   0  0  0  0  0  0  0  0  0  0  0  0
   55.5804    8.4679    5.4616 H   0  0  0  0  0  0  0  0  0  0  0  0
   51.6350    7.9516    6.9608 H   0  0  0  0  0  0  0  0  0  0  0  0
   53.2450    9.2613    5.6747 H   0  0  0  0  0  0  0  0  0  0  0  0
  3  2  1  0
  4  2  1  0
  5  3  1  0
  6  2  1  0
  7  2  1  0
  8  5  2  0
  9  5  1  0
 10  8  1  0
 11  9  2  0
 12 10  2  0
 11 12  1  0
  1 13  1  0
  3 14  1  0
  3 15  1  0
  4 16  1  0
  4 17  1  0
  6 18  1  0
  6 19  1  0
  6 20  1  0
  7 21  1  0
  7 22  1  0
  7 23  1  0
  8 24  1  0
  9 25  1  0
 10 26  1  0
 11 27  1  0
 12 28  1  0
M  END
> <Uni-Dock RESULT> 
ENERGY=   -2.978  LOWER_BOUND=    8.656  UPPER_BOUND=    9.871
INTER + INTRA:          -2.978
INTER:                  -2.978
INTRA:                   0.000
UNBOUND:                 0.000

$$$$

     RDKit          3D

 28 27  0  0  0  0  0  0  0  0999 V2000
   54.5065    6.3462    7.7585 Cl  0  0  0  0  0  0  0  0  0  0  0  0
   55.2828    4.8980    9.4210 C   0  0  0  0  0  0  0  0  0  0  0  0
   54.7556    4.6916    8.0232 C   0  0  0  0  0  0  0  0  0  0  0  0
   55.7098    3.6282    9.9769 N   0  0  0  0  0  0  0  0  0  0  0  0
   54.2974    5.9546    7.3868 C   0  0  0  0  0  0  0  0  0  0  0  0
   56.4379    5.8602    9.3799 C   0  0  0  0  0  0  0  0  0  0  0  0
   54.1674    5.4125   10.3279 C   0  0  0  0  0  0  0  0  0  0  0  0
   55.1895    6.7106    6.6532 C   0  0  0  0  0  0  0  0  0  0  0  0
   52.9892    6.4043    7.5063 C   0  0  0  0  0  0  0  0  0  0  0  0
   54.8479    7.8931    6.0310 C   0  0  0  0  0  0  0  0  0  0  0  0
   52.6560    7.5946    6.8767 C   0  0  0  0  0  0  0  0  0  0  0  0
   53.5587    8.3276    6.1541 C   0  0  0  0  0  0  0  0  0  0  0  0
   54.8242    5.5440    8.8376 H   0  0  0  0  0  0  0  0  0  0  0  0
   53.9517    3.9134    8.0172 H   0  0  0  0  0  0  0  0  0  0  0  0
   55.6323    4.3141    7.4268 H   0  0  0  0  0  0  0  0  0  0  0  0
   55.0111    3.2106   10.6201 H   0  0  0  0  0  0  0  0  0  0  0  0
   55.9874    2.9768    9.2150 H   0  0  0  0  0  0  0  0  0  0  0  0
   57.2703    5.3879    8.8461 H   0  0  0  0  0  0  0  0  0  0  0  0
   56.7794    6.0773   10.4291 H   0  0  0  0  0  0  0  0  0  0  0  0
   56.1280    6.8304    8.9765 H   0  0  0  0  0  0  0  0  0  0  0  0
   54.4305    5.1724   11.3996 H   0  0  0  0  0  0  0  0  0  0  0  0
   53.2111    4.9310   10.1193 H   0  0  0  0  0  0  0  0  0  0  0  0
   54.0456    6.5121   10.2334 H   0  0  0  0  0  0  0  0  0  0  0  0
   56.2258    6.3693    6.5494 H   0  0  0  0  0  0  0  0  0  0  0  0
   52.2690    5.8235    8.0803 H   0  0  0  0  0  0  0  0  0  0  0  0
   55.5807    8.4647    5.4588 H   0  0  0  0  0  0  0  0  0  0  0  0
   51.6372    7.9531    6.9647 H   0  0  0  0  0  0  0  0  0  0  0  0
   53.2465    9.2608    5.6758 H   0  0  0  0  0  0  0  0  0  0  0  0
  3  2  1  0
  4  2  1  0
  5  3  1  0
  6  2  1  0
  7  2  1  0
  8  5  2  0
  9  5  1  0
 10  8  1  0
 11  9  2  0
 12 10  2  0
 11 12  1  0
  1 13  1  0
  3 14  1  0
  3 15  1  0
  4 16  1  0
  4 17  1  0
  6 18  1  0
  6 19  1  0
  6 20  1  0
  7 21  1  0
  7 22  1  0
  7 23  1  0
  8 24  1  0
  9 25  1  0
 10 26  1  0
 11 27  1  0
 12 28  1  0
M  END
> <Uni-Dock RESULT> 
ENERGY=   -2.976  LOWER_BOUND=    8.657  UPPER_BOUND=    9.873
INTER + INTRA:          -2.976
INTER:                  -2.976
INTRA:                   0.000
UNBOUND:                 0.000

$$$$

     RDKit          3D

 28 27  0  0  0  0  0  0  0  0999 V2000
   51.8874    3.5371   18.7367 Cl  0  0  0  0  0  0  0  0  0  0  0  0
   52.1952    5.3321   20.2019 C   0  0  0  0  0  0  0  0  0  0  0  0
   52.5233    5.1072   18.7472 C   0  0  0  0  0  0  0  0  0  0  0  0
   52.5376    6.6905   20.5779 N   0  0  0  0  0  0  0  0  0  0  0  0
   52.1980    3.7312   18.2883 C   0  0  0  0  0  0  0  0  0  0  0  0
   50.7282    5.0871   20.4247 C   0  0  0  0  0  0  0  0  0  0  0  0
   53.0473    4.4150   21.0760 C   0  0  0  0  0  0  0  0  0  0  0  0
   50.9457    3.4630   17.7730 C   0  0  0  0  0  0  0  0  0  0  0  0
   53.1203    2.6959   18.3608 C   0  0  0  0  0  0  0  0  0  0  0  0
   50.5619    2.2161   17.3253 C   0  0  0  0  0  0  0  0  0  0  0  0
   52.7244    1.4460   17.9079 C   0  0  0  0  0  0  0  0  0  0  0  0
   51.4760    1.2039   17.4006 C   0  0  0  0  0  0  0  0  0  0  0  0
   52.1797    4.4900   19.6935 H   0  0  0  0  0  0  0  0  0  0  0  0
   53.5916    5.3675   18.5403 H   0  0  0  0  0  0  0  0  0  0  0  0
   51.8591    5.8164   18.1789 H   0  0  0  0  0  0  0  0  0  0  0  0
   53.4443    6.7576   21.0775 H   0  0  0  0  0  0  0  0  0  0  0  0
   52.4945    7.3156   19.7476 H   0  0  0  0  0  0  0  0  0  0  0  0
   50.1584    5.8612   19.8983 H   0  0  0  0  0  0  0  0  0  0  0  0
   50.4981    5.1752   21.5218 H   0  0  0  0  0  0  0  0  0  0  0  0
   50.4560    4.0595   20.1598 H   0  0  0  0  0  0  0  0  0  0  0  0
   53.1112    4.8577   22.1130 H   0  0  0  0  0  0  0  0  0  0  0  0
   54.0691    4.3243   20.7051 H   0  0  0  0  0  0  0  0  0  0  0  0
   52.6003    3.4015   21.1530 H   0  0  0  0  0  0  0  0  0  0  0  0
   50.2063    4.2693   17.7090 H   0  0  0  0  0  0  0  0  0  0  0  0
   54.1139    2.8854   18.7636 H   0  0  0  0  0  0  0  0  0  0  0  0
   49.5623    2.0411   16.9238 H   0  0  0  0  0  0  0  0  0  0  0  0
   53.4379    0.6321   17.9608 H   0  0  0  0  0  0  0  0  0  0  0  0
   51.2117    0.1996   17.0560 H   0  0  0  0  0  0  0  0  0  0  0  0
  3  2  1  0
  4  2  1  0
  5  3  1  0
  6  2  1  0
  7  2  1  0
  8  5  2  0
  9  5  1  0
 10  8  1  0
 11  9  2  0
 12 10  2  0
 11 12  1  0
  1 13  1  0
  3 14  1  0
  3 15  1  0
  4 16  1  0
  4 17  1  0
  6 18  1  0
  6 19  1  0
  6 20  1  0
  7 21  1  0
  7 22  1  0
  7 23  1  0
  8 24  1  0
  9 25  1  0
 10 26  1  0
 11 27  1  0
 12 28  1  0
M  END
> <Uni-Dock RESULT> 
ENERGY=   -2.891  LOWER_BOUND=   11.148  UPPER_BOUND=   12.323
INTER + INTRA:          -2.891
INTER:                  -2.891
INTRA:                   0.000
UNBOUND:                 0.000

$$$$
