
     RDKit          3D

 28 27  0  0  0  0  0  0  0  0999 V2000
   45.7801    3.0954    8.4983 Cl  0  0  0  0  0  0  0  0  0  0  0  0
   44.7220    4.2829   10.0101 C   0  0  0  0  0  0  0  0  0  0  0  0
   44.3558    3.7047    8.6636 C   0  0  0  0  0  0  0  0  0  0  0  0
   45.2204    3.3054   10.9329 N   0  0  0  0  0  0  0  0  0  0  0  0
   45.5231    3.0663    7.9994 C   0  0  0  0  0  0  0  0  0  0  0  0
   43.4985    4.9128   10.6410 C   0  0  0  0  0  0  0  0  0  0  0  0
   45.7378    5.4029    9.8653 C   0  0  0  0  0  0  0  0  0  0  0  0
   45.7287    1.7090    8.2652 C   0  0  0  0  0  0  0  0  0  0  0  0
   46.3750    3.7609    7.1579 C   0  0  0  0  0  0  0  0  0  0  0  0
   46.8051    1.0359    7.6786 C   0  0  0  0  0  0  0  0  0  0  0  0
   47.4348    3.0723    6.5884 C   0  0  0  0  0  0  0  0  0  0  0  0
   47.6651    1.7333    6.8303 C   0  0  0  0  0  0  0  0  0  0  0  0
   45.3079    4.0660    9.3424 H   0  0  0  0  0  0  0  0  0  0  0  0
   43.8956    4.5133    8.0692 H   0  0  0  0  0  0  0  0  0  0  0  0
   43.5384    2.9684    8.8349 H   0  0  0  0  0  0  0  0  0  0  0  0
   45.9453    2.6821   10.5574 H   0  0  0  0  0  0  0  0  0  0  0  0
   45.4506    3.7788   11.8099 H   0  0  0  0  0  0  0  0  0  0  0  0
   42.8105    4.1401   11.0639 H   0  0  0  0  0  0  0  0  0  0  0  0
   42.9715    5.5759    9.9232 H   0  0  0  0  0  0  0  0  0  0  0  0
   43.7822    5.5592   11.4986 H   0  0  0  0  0  0  0  0  0  0  0  0
   45.3840    6.1173    9.0760 H   0  0  0  0  0  0  0  0  0  0  0  0
   45.7235    5.9832   10.8109 H   0  0  0  0  0  0  0  0  0  0  0  0
   46.7353    5.0628    9.5663 H   0  0  0  0  0  0  0  0  0  0  0  0
   45.0533    1.1573    8.9326 H   0  0  0  0  0  0  0  0  0  0  0  0
   46.1936    4.8189    6.9664 H   0  0  0  0  0  0  0  0  0  0  0  0
   46.9677   -0.0330    7.8872 H   0  0  0  0  0  0  0  0  0  0  0  0
   48.1227    3.5949    5.9206 H   0  0  0  0  0  0  0  0  0  0  0  0
   48.5030    1.1922    6.3789 H   0  0  0  0  0  0  0  0  0  0  0  0
  3  2  1  0
  4  2  1  0
  5  3  1  0
  6  2  1  0
  7  2  1  0
  8  5  2  0
  9  5  1  0
 10  8  1  0
 11  9  2  0
 12 10  2  0
 11 12  1  0
  1 13  1  0
  3 14  1  0
  3 15  1  0
  4 16  1  0
  4 17  1  0
  6 18  1  0
  6 19  1  0
  6 20  1  0
  7 21  1  0
  7 22  1  0
  7 23  1  0
  8 24  1  0
  9 25  1  0
 10 26  1  0
 11 27  1  0
 12 28  1  0
M  END
> <Uni-Dock RESULT> 
ENERGY=   -6.021  LOWER_BOUND=    0.000  UPPER_BOUND=    0.000
INTER + INTRA:          -6.021
INTER:                  -6.021
INTRA:                   0.000
UNBOUND:                 0.000

$$$$

     RDKit          3D

 28 27  0  0  0  0  0  0  0  0999 V2000
   45.1625    3.3996    9.6085 Cl  0  0  0  0  0  0  0  0  0  0  0  0
   44.4783    4.2018   11.5330 C   0  0  0  0  0  0  0  0  0  0  0  0
   43.8141    3.8947   10.2117 C   0  0  0  0  0  0  0  0  0  0  0  0
   45.1731    3.0807   12.0951 N   0  0  0  0  0  0  0  0  0  0  0  0
   44.7984    3.4611    9.1849 C   0  0  0  0  0  0  0  0  0  0  0  0
   43.4316    4.6312   12.5389 C   0  0  0  0  0  0  0  0  0  0  0  0
   45.4355    5.3742   11.4035 C   0  0  0  0  0  0  0  0  0  0  0  0
   45.0579    2.0894    9.1072 C   0  0  0  0  0  0  0  0  0  0  0  0
   45.4366    4.3523    8.3394 C   0  0  0  0  0  0  0  0  0  0  0  0
   45.9714    1.6017    8.1673 C   0  0  0  0  0  0  0  0  0  0  0  0
   46.3379    3.8453    7.4162 C   0  0  0  0  0  0  0  0  0  0  0  0
   46.6159    2.4974    7.3141 C   0  0  0  0  0  0  0  0  0  0  0  0
   44.8963    4.1538   10.7211 H   0  0  0  0  0  0  0  0  0  0  0  0
   43.2312    4.7853    9.9183 H   0  0  0  0  0  0  0  0  0  0  0  0
   43.0565    3.1015   10.4028 H   0  0  0  0  0  0  0  0  0  0  0  0
   45.7926    2.5821   11.4450 H   0  0  0  0  0  0  0  0  0  0  0  0
   45.5977    3.3750   12.9778 H   0  0  0  0  0  0  0  0  0  0  0  0
   42.8575    3.7571   12.9329 H   0  0  0  0  0  0  0  0  0  0  0  0
   42.7556    5.4017   12.1124 H   0  0  0  0  0  0  0  0  0  0  0  0
   43.9042    5.1012   13.4276 H   0  0  0  0  0  0  0  0  0  0  0  0
   44.9118    6.2175   10.8810 H   0  0  0  0  0  0  0  0  0  0  0  0
   45.6379    5.7474   12.4285 H   0  0  0  0  0  0  0  0  0  0  0  0
   46.3382    5.1495   10.8248 H   0  0  0  0  0  0  0  0  0  0  0  0
   44.5520    1.3817    9.7775 H   0  0  0  0  0  0  0  0  0  0  0  0
   45.2174    5.4175    8.4197 H   0  0  0  0  0  0  0  0  0  0  0  0
   46.1762    0.5216    8.1053 H   0  0  0  0  0  0  0  0  0  0  0  0
   46.8559    4.5251    6.7367 H   0  0  0  0  0  0  0  0  0  0  0  0
   47.3283    2.1000    6.5839 H   0  0  0  0  0  0  0  0  0  0  0  0
  3  2  1  0
  4  2  1  0
  5  3  1  0
  6  2  1  0
  7  2  1  0
  8  5  2  0
  9  5  1  0
 10  8  1  0
 11  9  2  0
 12 10  2  0
 11 12  1  0
  1 13  1  0
  3 14  1  0
  3 15  1  0
  4 16  1  0
  4 17  1  0
  6 18  1  0
  6 19  1  0
  6 20  1  0
  7 21  1  0
  7 22  1  0
  7 23  1  0
  8 24  1  0
  9 25  1  0
 10 26  1  0
 11 27  1  0
 12 28  1  0
M  END
> <Uni-Dock RESULT> 
ENERGY=   -5.268  LOWER_BOUND=    1.216  UPPER_BOUND=    1.473
INTER + INTRA:          -5.268
INTER:                  -5.268
INTRA:                   0.000
UNBOUND:                 0.000

$$$$

     RDKit          3D

 28 27  0  0  0  0  0  0  0  0999 V2000
   44.8646    5.0775   11.1188 Cl  0  0  0  0  0  0  0  0  0  0  0  0
   45.5985    6.8200   12.2325 C   0  0  0  0  0  0  0  0  0  0  0  0
   44.4231    6.5577   11.3208 C   0  0  0  0  0  0  0  0  0  0  0  0
   45.6736    5.9125   13.3399 N   0  0  0  0  0  0  0  0  0  0  0  0
   44.4715    5.1923   10.7340 C   0  0  0  0  0  0  0  0  0  0  0  0
   45.4947    8.2179   12.8042 C   0  0  0  0  0  0  0  0  0  0  0  0
   46.9066    6.7828   11.4612 C   0  0  0  0  0  0  0  0  0  0  0  0
   43.8375    4.1777   11.4576 C   0  0  0  0  0  0  0  0  0  0  0  0
   45.1061    4.9175    9.5347 C   0  0  0  0  0  0  0  0  0  0  0  0
   43.8387    2.8661   10.9724 C   0  0  0  0  0  0  0  0  0  0  0  0
   45.0939    3.6100    9.0743 C   0  0  0  0  0  0  0  0  0  0  0  0
   44.4772    2.5863    9.7643 C   0  0  0  0  0  0  0  0  0  0  0  0
   45.5484    6.1642   11.5972 H   0  0  0  0  0  0  0  0  0  0  0  0
   44.4019    7.3636   10.5664 H   0  0  0  0  0  0  0  0  0  0  0  0
   43.5003    6.7025   11.9268 H   0  0  0  0  0  0  0  0  0  0  0  0
   45.5727    4.9197   13.0966 H   0  0  0  0  0  0  0  0  0  0  0  0
   46.4964    6.1530   13.8978 H   0  0  0  0  0  0  0  0  0  0  0  0
   44.7370    8.2711   13.6240 H   0  0  0  0  0  0  0  0  0  0  0  0
   45.2850    8.9636   12.0089 H   0  0  0  0  0  0  0  0  0  0  0  0
   46.4552    8.5300   13.2667 H   0  0  0  0  0  0  0  0  0  0  0  0
   46.8098    7.4250   10.5465 H   0  0  0  0  0  0  0  0  0  0  0  0
   47.6721    7.2835   12.0890 H   0  0  0  0  0  0  0  0  0  0  0  0
   47.1943    5.7818   11.1214 H   0  0  0  0  0  0  0  0  0  0  0  0
   43.3339    4.3949   12.4090 H   0  0  0  0  0  0  0  0  0  0  0  0
   45.5935    5.7260    8.9890 H   0  0  0  0  0  0  0  0  0  0  0  0
   43.3394    2.0665   11.5415 H   0  0  0  0  0  0  0  0  0  0  0  0
   45.5865    3.3643    8.1313 H   0  0  0  0  0  0  0  0  0  0  0  0
   44.4693    1.5546    9.3980 H   0  0  0  0  0  0  0  0  0  0  0  0
  3  2  1  0
  4  2  1  0
  5  3  1  0
  6  2  1  0
  7  2  1  0
  8  5  2  0
  9  5  1  0
 10  8  1  0
 11  9  2  0
 12 10  2  0
 11 12  1  0
  1 13  1  0
  3 14  1  0
  3 15  1  0
  4 16  1  0
  4 17  1  0
  6 18  1  0
  6 19  1  0
  6 20  1  0
  7 21  1  0
  7 22  1  0
  7 23  1  0
  8 24  1  0
  9 25  1  0
 10 26  1  0
 11 27  1  0
 12 28  1  0
M  END
> <Uni-Dock RESULT> 
ENERGY=   -3.721  LOWER_BOUND=    2.548  UPPER_BOUND=    3.799
INTER + INTRA:          -3.721
INTER:                  -3.721
INTRA:                   0.000
UNBOUND:                 0.000

$$$$

     RDKit          3D

 28 27  0  0  0  0  0  0  0  0999 V2000
   50.4467    3.1509   18.0740 Cl  0  0  0  0  0  0  0  0  0  0  0  0
   48.5917    4.2078   18.5811 C   0  0  0  0  0  0  0  0  0  0  0  0
   49.5130    4.1899   17.3843 C   0  0  0  0  0  0  0  0  0  0  0  0
   48.1095    2.9085   18.9480 N   0  0  0  0  0  0  0  0  0  0  0  0
   50.7190    3.3545   17.6266 C   0  0  0  0  0  0  0  0  0  0  0  0
   47.3821    5.0659   18.2770 C   0  0  0  0  0  0  0  0  0  0  0  0
   49.2667    4.8515   19.7801 C   0  0  0  0  0  0  0  0  0  0  0  0
   50.6238    2.0033   17.2798 C   0  0  0  0  0  0  0  0  0  0  0  0
   51.8860    3.8673   18.1666 C   0  0  0  0  0  0  0  0  0  0  0  0
   51.7152    1.1513   17.4769 C   0  0  0  0  0  0  0  0  0  0  0  0
   52.9540    3.0034   18.3526 C   0  0  0  0  0  0  0  0  0  0  0  0
   52.8923    1.6653   18.0208 C   0  0  0  0  0  0  0  0  0  0  0  0
   49.4742    3.9684   18.5873 H   0  0  0  0  0  0  0  0  0  0  0  0
   49.7447    5.2385   17.1281 H   0  0  0  0  0  0  0  0  0  0  0  0
   48.9228    3.8038   16.5228 H   0  0  0  0  0  0  0  0  0  0  0  0
   48.8297    2.1789   19.0114 H   0  0  0  0  0  0  0  0  0  0  0  0
   47.5041    3.0091   19.7661 H   0  0  0  0  0  0  0  0  0  0  0  0
   46.6551    4.5319   17.6174 H   0  0  0  0  0  0  0  0  0  0  0  0
   47.6807    6.0436   17.8438 H   0  0  0  0  0  0  0  0  0  0  0  0
   46.8211    5.3046   19.2056 H   0  0  0  0  0  0  0  0  0  0  0  0
   49.7205    5.8275   19.4636 H   0  0  0  0  0  0  0  0  0  0  0  0
   48.4676    5.1219   20.5006 H   0  0  0  0  0  0  0  0  0  0  0  0
   50.0723    4.2489   20.2136 H   0  0  0  0  0  0  0  0  0  0  0  0
   49.6984    1.5957   16.8513 H   0  0  0  0  0  0  0  0  0  0  0  0
   51.9354    4.9245   18.4290 H   0  0  0  0  0  0  0  0  0  0  0  0
   51.6411    0.0871   17.2039 H   0  0  0  0  0  0  0  0  0  0  0  0
   53.8869    3.3804   18.7766 H   0  0  0  0  0  0  0  0  0  0  0  0
   53.7376    0.9855   18.1688 H   0  0  0  0  0  0  0  0  0  0  0  0
  3  2  1  0
  4  2  1  0
  5  3  1  0
  6  2  1  0
  7  2  1  0
  8  5  2  0
  9  5  1  0
 10  8  1  0
 11  9  2  0
 12 10  2  0
 11 12  1  0
  1 13  1  0
  3 14  1  0
  3 15  1  0
  4 16  1  0
  4 17  1  0
  6 18  1  0
  6 19  1  0
  6 20  1  0
  7 21  1  0
  7 22  1  0
  7 23  1  0
  8 24  1  0
  9 25  1  0
 10 26  1  0
 11 27  1  0
 12 28  1  0
M  END
> <Uni-Dock RESULT> 
ENERGY=   -3.581  LOWER_BOUND=    9.960  UPPER_BOUND=   10.725
INTER + INTRA:          -3.581
INTER:                  -3.581
INTRA:                   0.000
UNBOUND:                 0.000

$$$$

     RDKit          3D

 28 27  0  0  0  0  0  0  0  0999 V2000
   45.6562    7.2772   12.1461 Cl  0  0  0  0  0  0  0  0  0  0  0  0
   43.8994    6.0696   11.6258 C   0  0  0  0  0  0  0  0  0  0  0  0
   44.7201    6.2698   12.8780 C   0  0  0  0  0  0  0  0  0  0  0  0
   43.3877    7.2921   11.0790 N   0  0  0  0  0  0  0  0  0  0  0  0
   45.9011    7.1394   12.6327 C   0  0  0  0  0  0  0  0  0  0  0  0
   42.7111    5.1840   11.9346 C   0  0  0  0  0  0  0  0  0  0  0  0
   44.6978    5.3370   10.5612 C   0  0  0  0  0  0  0  0  0  0  0  0
   45.7150    8.5130   12.8158 C   0  0  0  0  0  0  0  0  0  0  0  0
   47.1303    6.6362   12.2427 C   0  0  0  0  0  0  0  0  0  0  0  0
   46.7775    9.3977   12.6050 C   0  0  0  0  0  0  0  0  0  0  0  0
   48.1681    7.5326   12.0397 C   0  0  0  0  0  0  0  0  0  0  0  0
   48.0172    8.8935   12.2119 C   0  0  0  0  0  0  0  0  0  0  0  0
   44.7674    6.3556   11.6581 H   0  0  0  0  0  0  0  0  0  0  0  0
   44.9795    5.2700   13.2681 H   0  0  0  0  0  0  0  0  0  0  0  0
   44.0453    6.7145   13.6438 H   0  0  0  0  0  0  0  0  0  0  0  0
   44.0756    8.0493   10.9869 H   0  0  0  0  0  0  0  0  0  0  0  0
   42.8551    7.0689   10.2348 H   0  0  0  0  0  0  0  0  0  0  0  0
   41.9092    5.7458   12.4735 H   0  0  0  0  0  0  0  0  0  0  0  0
   43.0196    4.2779   12.4970 H   0  0  0  0  0  0  0  0  0  0  0  0
   42.2380    4.8142   11.0001 H   0  0  0  0  0  0  0  0  0  0  0  0
   45.1701    4.4283   11.0192 H   0  0  0  0  0  0  0  0  0  0  0  0
   43.9725    4.9452    9.8186 H   0  0  0  0  0  0  0  0  0  0  0  0
   45.5062    5.9324   10.1231 H   0  0  0  0  0  0  0  0  0  0  0  0
   44.7402    8.9130   13.1253 H   0  0  0  0  0  0  0  0  0  0  0  0
   47.2502    5.5610   12.1064 H   0  0  0  0  0  0  0  0  0  0  0  0
   46.6318   10.4796   12.7491 H   0  0  0  0  0  0  0  0  0  0  0  0
   49.1486    7.1638   11.7317 H   0  0  0  0  0  0  0  0  0  0  0  0
   48.8388    9.5989   12.0509 H   0  0  0  0  0  0  0  0  0  0  0  0
  3  2  1  0
  4  2  1  0
  5  3  1  0
  6  2  1  0
  7  2  1  0
  8  5  2  0
  9  5  1  0
 10  8  1  0
 11  9  2  0
 12 10  2  0
 11 12  1  0
  1 13  1  0
  3 14  1  0
  3 15  1  0
  4 16  1  0
  4 17  1  0
  6 18  1  0
  6 19  1  0
  6 20  1  0
  7 21  1  0
  7 22  1  0
  7 23  1  0
  8 24  1  0
  9 25  1  0
 10 26  1  0
 11 27  1  0
 12 28  1  0
M  END
> <Uni-Dock RESULT> 
ENERGY=   -3.507  LOWER_BOUND=    4.135  UPPER_BOUND=    6.121
INTER + INTRA:          -3.507
INTER:                  -3.507
INTRA:                   0.000
UNBOUND:                 0.000

$$$$

     RDKit          3D

 28 27  0  0  0  0  0  0  0  0999 V2000
   38.8653   12.0039   13.3851 Cl  0  0  0  0  0  0  0  0  0  0  0  0
   39.0191   13.1582   15.2450 C   0  0  0  0  0  0  0  0  0  0  0  0
   38.9133   13.5102   13.7799 C   0  0  0  0  0  0  0  0  0  0  0  0
   37.9611   12.3063   15.7037 N   0  0  0  0  0  0  0  0  0  0  0  0
   38.9523   12.3006   12.9159 C   0  0  0  0  0  0  0  0  0  0  0  0
   38.9686   14.4231   16.0752 C   0  0  0  0  0  0  0  0  0  0  0  0
   40.3577   12.5107   15.5557 C   0  0  0  0  0  0  0  0  0  0  0  0
   37.7231   11.7029   12.6210 C   0  0  0  0  0  0  0  0  0  0  0  0
   40.1330   11.7765   12.4183 C   0  0  0  0  0  0  0  0  0  0  0  0
   37.6753   10.5613   11.8145 C   0  0  0  0  0  0  0  0  0  0  0  0
   40.0602   10.6446   11.6214 C   0  0  0  0  0  0  0  0  0  0  0  0
   38.8634   10.0310   11.3118 C   0  0  0  0  0  0  0  0  0  0  0  0
   39.2560   12.6190   14.5455 H   0  0  0  0  0  0  0  0  0  0  0  0
   39.7103   14.2406   13.5556 H   0  0  0  0  0  0  0  0  0  0  0  0
   37.9602   14.0697   13.6458 H   0  0  0  0  0  0  0  0  0  0  0  0
   37.7725   11.4890   15.1109 H   0  0  0  0  0  0  0  0  0  0  0  0
   38.1124   12.1114   16.6963 H   0  0  0  0  0  0  0  0  0  0  0  0
   37.9268   14.8192   16.1573 H   0  0  0  0  0  0  0  0  0  0  0  0
   39.6650   15.1922   15.6800 H   0  0  0  0  0  0  0  0  0  0  0  0
   39.2949   14.2265   17.1186 H   0  0  0  0  0  0  0  0  0  0  0  0
   41.1776   13.1370   15.1150 H   0  0  0  0  0  0  0  0  0  0  0  0
   40.5040   12.5702   16.6538 H   0  0  0  0  0  0  0  0  0  0  0  0
   40.4693   11.5012   15.1453 H   0  0  0  0  0  0  0  0  0  0  0  0
   36.7860   12.1180   13.0153 H   0  0  0  0  0  0  0  0  0  0  0  0
   41.0789   12.2608   12.6626 H   0  0  0  0  0  0  0  0  0  0  0  0
   36.7077   10.0900   11.5817 H   0  0  0  0  0  0  0  0  0  0  0  0
   40.9755   10.2095   11.2151 H   0  0  0  0  0  0  0  0  0  0  0  0
   38.8091    9.1371   10.6820 H   0  0  0  0  0  0  0  0  0  0  0  0
  3  2  1  0
  4  2  1  0
  5  3  1  0
  6  2  1  0
  7  2  1  0
  8  5  2  0
  9  5  1  0
 10  8  1  0
 11  9  2  0
 12 10  2  0
 11 12  1  0
  1 13  1  0
  3 14  1  0
  3 15  1  0
  4 16  1  0
  4 17  1  0
  6 18  1  0
  6 19  1  0
  6 20  1  0
  7 21  1  0
  7 22  1  0
  7 23  1  0
  8 24  1  0
  9 25  1  0
 10 26  1  0
 11 27  1  0
 12 28  1  0
M  END
> <Uni-Dock RESULT> 
ENERGY=   -3.313  LOWER_BOUND=   10.558  UPPER_BOUND=   12.287
INTER + INTRA:          -3.313
INTER:                  -3.313
INTRA:                   0.000
UNBOUND:                 0.000

$$$$

     RDKit          3D

 28 27  0  0  0  0  0  0  0  0999 V2000
   45.3411    6.0943   12.3701 Cl  0  0  0  0  0  0  0  0  0  0  0  0
   47.0964    7.3597   12.7344 C   0  0  0  0  0  0  0  0  0  0  0  0
   46.5694    6.5871   11.5483 C   0  0  0  0  0  0  0  0  0  0  0  0
   46.1478    8.2882   13.2761 N   0  0  0  0  0  0  0  0  0  0  0  0
   45.3640    5.7898   11.8983 C   0  0  0  0  0  0  0  0  0  0  0  0
   48.3162    8.1549   12.3201 C   0  0  0  0  0  0  0  0  0  0  0  0
   47.5659    6.4210   13.8326 C   0  0  0  0  0  0  0  0  0  0  0  0
   44.1276    6.4229   11.7389 C   0  0  0  0  0  0  0  0  0  0  0  0
   45.4391    4.4869   12.3599 C   0  0  0  0  0  0  0  0  0  0  0  0
   42.9465    5.7400   12.0467 C   0  0  0  0  0  0  0  0  0  0  0  0
   44.2550    3.8307   12.6584 C   0  0  0  0  0  0  0  0  0  0  0  0
   43.0192    4.4271   12.5120 C   0  0  0  0  0  0  0  0  0  0  0  0
   46.5319    6.6412   12.7703 H   0  0  0  0  0  0  0  0  0  0  0  0
   47.4018    5.9803   11.1511 H   0  0  0  0  0  0  0  0  0  0  0  0
   46.3431    7.3286   10.7492 H   0  0  0  0  0  0  0  0  0  0  0  0
   45.2077    7.9065   13.4360 H   0  0  0  0  0  0  0  0  0  0  0  0
   46.5789    8.7596   14.0749 H   0  0  0  0  0  0  0  0  0  0  0  0
   48.0339    9.0684   11.7415 H   0  0  0  0  0  0  0  0  0  0  0  0
   49.0357    7.5242   11.7570 H   0  0  0  0  0  0  0  0  0  0  0  0
   48.8694    8.5254   13.2093 H   0  0  0  0  0  0  0  0  0  0  0  0
   48.2373    5.6417   13.3848 H   0  0  0  0  0  0  0  0  0  0  0  0
   48.2158    7.0098   14.5121 H   0  0  0  0  0  0  0  0  0  0  0  0
   46.7537    5.8906   14.3416 H   0  0  0  0  0  0  0  0  0  0  0  0
   44.0671    7.4565   11.3727 H   0  0  0  0  0  0  0  0  0  0  0  0
   46.4153    4.0151   12.4759 H   0  0  0  0  0  0  0  0  0  0  0  0
   41.9723    6.2378   11.9213 H   0  0  0  0  0  0  0  0  0  0  0  0
   44.2841    2.8024   13.0243 H   0  0  0  0  0  0  0  0  0  0  0  0
   42.0857    3.9062   12.7485 H   0  0  0  0  0  0  0  0  0  0  0  0
  3  2  1  0
  4  2  1  0
  5  3  1  0
  6  2  1  0
  7  2  1  0
  8  5  2  0
  9  5  1  0
 10  8  1  0
 11  9  2  0
 12 10  2  0
 11 12  1  0
  1 13  1  0
  3 14  1  0
  3 15  1  0
  4 16  1  0
  4 17  1  0
  6 18  1  0
  6 19  1  0
  6 20  1  0
  7 21  1  0
  7 22  1  0
  7 23  1  0
  8 24  1  0
  9 25  1  0
 10 26  1  0
 11 27  1  0
 12 28  1  0
M  END
> <Uni-Dock RESULT> 
ENERGY=   -3.110  LOWER_BOUND=    4.776  UPPER_BOUND=    5.837
INTER + INTRA:          -3.110
INTER:                  -3.110
INTRA:                   0.000
UNBOUND:                 0.000

$$$$

     RDKit          3D

 28 27  0  0  0  0  0  0  0  0999 V2000
   46.2264    5.8989   12.3976 Cl  0  0  0  0  0  0  0  0  0  0  0  0
   44.5045    4.7051   11.7458 C   0  0  0  0  0  0  0  0  0  0  0  0
   44.6932    5.8825   12.6730 C   0  0  0  0  0  0  0  0  0  0  0  0
   45.0169    4.9318   10.4262 N   0  0  0  0  0  0  0  0  0  0  0  0
   46.1292    6.2301   12.8411 C   0  0  0  0  0  0  0  0  0  0  0  0
   43.0281    4.4002   11.6076 C   0  0  0  0  0  0  0  0  0  0  0  0
   45.1356    3.4495   12.3224 C   0  0  0  0  0  0  0  0  0  0  0  0
   46.6585    7.1559   11.9368 C   0  0  0  0  0  0  0  0  0  0  0  0
   46.9195    5.6776   13.8343 C   0  0  0  0  0  0  0  0  0  0  0  0
   48.0015    7.5351   12.0286 C   0  0  0  0  0  0  0  0  0  0  0  0
   48.2475    6.0688   13.9052 C   0  0  0  0  0  0  0  0  0  0  0  0
   48.8002    6.9800   13.0284 C   0  0  0  0  0  0  0  0  0  0  0  0
   45.2809    4.9334   12.1715 H   0  0  0  0  0  0  0  0  0  0  0  0
   44.1814    5.6434   13.6216 H   0  0  0  0  0  0  0  0  0  0  0  0
   44.1212    6.7343   12.2408 H   0  0  0  0  0  0  0  0  0  0  0  0
   45.9676    5.3189   10.3890 H   0  0  0  0  0  0  0  0  0  0  0  0
   44.8572    4.0886    9.8697 H   0  0  0  0  0  0  0  0  0  0  0  0
   42.5205    5.1272   10.9272 H   0  0  0  0  0  0  0  0  0  0  0  0
   42.5311    4.3579   12.5995 H   0  0  0  0  0  0  0  0  0  0  0  0
   42.8703    3.4019   11.1468 H   0  0  0  0  0  0  0  0  0  0  0  0
   44.8005    3.3275   13.3861 H   0  0  0  0  0  0  0  0  0  0  0  0
   44.7016    2.5849   11.7794 H   0  0  0  0  0  0  0  0  0  0  0  0
   46.2309    3.4660   12.3310 H   0  0  0  0  0  0  0  0  0  0  0  0
   46.0322    7.5947   11.1486 H   0  0  0  0  0  0  0  0  0  0  0  0
   46.4834    4.9576   14.5274 H   0  0  0  0  0  0  0  0  0  0  0  0
   48.4192    8.2642   11.3170 H   0  0  0  0  0  0  0  0  0  0  0  0
   48.8942    5.6494   14.6785 H   0  0  0  0  0  0  0  0  0  0  0  0
   49.8495    7.2870   13.0870 H   0  0  0  0  0  0  0  0  0  0  0  0
  3  2  1  0
  4  2  1  0
  5  3  1  0
  6  2  1  0
  7  2  1  0
  8  5  2  0
  9  5  1  0
 10  8  1  0
 11  9  2  0
 12 10  2  0
 11 12  1  0
  1 13  1  0
  3 14  1  0
  3 15  1  0
  4 16  1  0
  4 17  1  0
  6 18  1  0
  6 19  1  0
  6 20  1  0
  7 21  1  0
  7 22  1  0
  7 23  1  0
  8 24  1  0
  9 25  1  0
 10 26  1  0
 11 27  1  0
 12 28  1  0
M  END
> <Uni-Dock RESULT> 
ENERGY=   -3.036  LOWER_BOUND=    4.257  UPPER_BOUND=    5.638
INTER + INTRA:          -3.036
INTER:                  -3.036
INTRA:                   0.000
UNBOUND:                 0.000

$$$$
