
     RDKit          3D

 28 27  0  0  0  0  0  0  0  0999 V2000
   45.7981    3.0316    8.6293 Cl  0  0  0  0  0  0  0  0  0  0  0  0
   44.7604    4.3474   10.1355 C   0  0  0  0  0  0  0  0  0  0  0  0
   44.4645    3.7065    8.8375 C   0  0  0  0  0  0  0  0  0  0  0  0
   45.7782    5.3563   10.0824 N   0  0  0  0  0  0  0  0  0  0  0  0
   45.5169    3.0017    8.1319 C   0  0  0  0  0  0  0  0  0  0  0  0
   43.4715    5.0806   10.5326 C   0  0  0  0  0  0  0  0  0  0  0  0
   45.0421    3.3799   11.2636 C   0  0  0  0  0  0  0  0  0  0  0  0
   45.8132    1.6768    8.2755 C   0  0  0  0  0  0  0  0  0  0  0  0
   46.3032    3.7204    7.2257 C   0  0  0  0  0  0  0  0  0  0  0  0
   46.8201    1.0248    7.5935 C   0  0  0  0  0  0  0  0  0  0  0  0
   47.3050    3.0995    6.5386 C   0  0  0  0  0  0  0  0  0  0  0  0
   47.5903    1.7613    6.6960 C   0  0  0  0  0  0  0  0  0  0  0  0
   45.0519    3.7241    9.5451 H   0  0  0  0  0  0  0  0  0  0  0  0
   43.6325    2.9771    8.9987 H   0  0  0  0  0  0  0  0  0  0  0  0
   44.0320    4.4756    8.1664 H   0  0  0  0  0  0  0  0  0  0  0  0
   46.4968    5.2581    9.3650 H   0  0  0  0  0  0  0  0  0  0  0  0
   45.4355    6.3280   10.0909 H   0  0  0  0  0  0  0  0  0  0  0  0
   43.6515    5.8687   11.2842 H   0  0  0  0  0  0  0  0  0  0  0  0
   42.6918    4.3963   10.9030 H   0  0  0  0  0  0  0  0  0  0  0  0
   43.0165    5.5833    9.6489 H   0  0  0  0  0  0  0  0  0  0  0  0
   44.6314    2.3670   11.0966 H   0  0  0  0  0  0  0  0  0  0  0  0
   44.5496    3.7052   12.2253 H   0  0  0  0  0  0  0  0  0  0  0  0
   46.1292    3.3807   11.5263 H   0  0  0  0  0  0  0  0  0  0  0  0
   45.2259    1.0965    8.9656 H   0  0  0  0  0  0  0  0  0  0  0  0
   46.1488    4.7749    7.0400 H   0  0  0  0  0  0  0  0  0  0  0  0
   47.0378   -0.0162    7.7197 H   0  0  0  0  0  0  0  0  0  0  0  0
   47.9247    3.6521    5.8285 H   0  0  0  0  0  0  0  0  0  0  0  0
   48.3901    1.2728    6.1453 H   0  0  0  0  0  0  0  0  0  0  0  0
  3  2  1  0
  4  2  1  0
  5  3  1  0
  6  2  1  0
  7  2  1  0
  8  5  2  0
  9  5  1  0
 10  8  1  0
 11  9  2  0
 12 10  2  0
 11 12  1  0
  1 13  1  0
  3 14  1  0
  3 15  1  0
  4 16  1  0
  4 17  1  0
  6 18  1  0
  6 19  1  0
  6 20  1  0
  7 21  1  0
  7 22  1  0
  7 23  1  0
  8 24  1  0
  9 25  1  0
 10 26  1  0
 11 27  1  0
 12 28  1  0
M  END
> <Uni-Dock RESULT> 
ENERGY=   -6.148  LOWER_BOUND=    0.000  UPPER_BOUND=    0.000
INTER + INTRA:          -6.148
INTER:                  -6.148
INTRA:                   0.000
UNBOUND:                 0.000

$$$$

     RDKit          3D

 28 27  0  0  0  0  0  0  0  0999 V2000
   44.4634    4.1023   10.4481 Cl  0  0  0  0  0  0  0  0  0  0  0  0
   45.2308    3.5177    8.4118 C   0  0  0  0  0  0  0  0  0  0  0  0
   45.5599    4.4808    9.4829 C   0  0  0  0  0  0  0  0  0  0  0  0
   43.9657    3.7447    7.7759 N   0  0  0  0  0  0  0  0  0  0  0  0
   44.6870    4.5947   10.6349 C   0  0  0  0  0  0  0  0  0  0  0  0
   46.2880    3.7417    7.3216 C   0  0  0  0  0  0  0  0  0  0  0  0
   45.3610    2.0649    8.8124 C   0  0  0  0  0  0  0  0  0  0  0  0
   44.8021    3.8713   11.7869 C   0  0  0  0  0  0  0  0  0  0  0  0
   43.6356    5.5154   10.5808 C   0  0  0  0  0  0  0  0  0  0  0  0
   43.9598    3.9953   12.8729 C   0  0  0  0  0  0  0  0  0  0  0  0
   42.7886    5.6575   11.6409 C   0  0  0  0  0  0  0  0  0  0  0  0
   42.9195    4.9189   12.7960 C   0  0  0  0  0  0  0  0  0  0  0  0
   45.0707    3.7291    9.2788 H   0  0  0  0  0  0  0  0  0  0  0  0
   46.5791    4.2286    9.8675 H   0  0  0  0  0  0  0  0  0  0  0  0
   45.6788    5.4809    9.0196 H   0  0  0  0  0  0  0  0  0  0  0  0
   43.2343    4.1854    8.3340 H   0  0  0  0  0  0  0  0  0  0  0  0
   44.0126    4.2016    6.8535 H   0  0  0  0  0  0  0  0  0  0  0  0
   45.9690    3.3489    6.3406 H   0  0  0  0  0  0  0  0  0  0  0  0
   47.2665    3.3099    7.5853 H   0  0  0  0  0  0  0  0  0  0  0  0
   46.4826    4.8292    7.1797 H   0  0  0  0  0  0  0  0  0  0  0  0
   46.0262    1.8983    9.6798 H   0  0  0  0  0  0  0  0  0  0  0  0
   45.8376    1.4480    7.9965 H   0  0  0  0  0  0  0  0  0  0  0  0
   44.3540    1.5921    8.9277 H   0  0  0  0  0  0  0  0  0  0  0  0
   45.6014    3.1544   11.8592 H   0  0  0  0  0  0  0  0  0  0  0  0
   43.4589    6.1367    9.7131 H   0  0  0  0  0  0  0  0  0  0  0  0
   44.0661    3.4184   13.7689 H   0  0  0  0  0  0  0  0  0  0  0  0
   41.9644    6.3739   11.6085 H   0  0  0  0  0  0  0  0  0  0  0  0
   42.2409    5.0372   13.6369 H   0  0  0  0  0  0  0  0  0  0  0  0
  3  2  1  0
  4  2  1  0
  5  3  1  0
  6  2  1  0
  7  2  1  0
  8  5  2  0
  9  5  1  0
 10  8  1  0
 11  9  2  0
 12 10  2  0
 11 12  1  0
  1 13  1  0
  3 14  1  0
  3 15  1  0
  4 16  1  0
  4 17  1  0
  6 18  1  0
  6 19  1  0
  6 20  1  0
  7 21  1  0
  7 22  1  0
  7 23  1  0
  8 24  1  0
  9 25  1  0
 10 26  1  0
 11 27  1  0
 12 28  1  0
M  END
> <Uni-Dock RESULT> 
ENERGY=   -4.248  LOWER_BOUND=    1.663  UPPER_BOUND=    4.722
INTER + INTRA:          -4.248
INTER:                  -4.248
INTRA:                   0.000
UNBOUND:                 0.000

$$$$

     RDKit          3D

 28 27  0  0  0  0  0  0  0  0999 V2000
   45.6397    3.3770    8.4837 Cl  0  0  0  0  0  0  0  0  0  0  0  0
   46.9090    2.6845    6.7556 C   0  0  0  0  0  0  0  0  0  0  0  0
   45.4903    2.9904    7.0326 C   0  0  0  0  0  0  0  0  0  0  0  0
   47.4262    1.5577    7.4763 N   0  0  0  0  0  0  0  0  0  0  0  0
   45.0796    3.3140    8.3849 C   0  0  0  0  0  0  0  0  0  0  0  0
   46.9596    2.2865    5.2739 C   0  0  0  0  0  0  0  0  0  0  0  0
   47.8441    3.8657    6.8918 C   0  0  0  0  0  0  0  0  0  0  0  0
   45.0498    4.5689    8.9218 C   0  0  0  0  0  0  0  0  0  0  0  0
   44.6776    2.2691    9.2230 C   0  0  0  0  0  0  0  0  0  0  0  0
   44.6550    4.8555   10.2126 C   0  0  0  0  0  0  0  0  0  0  0  0
   44.2826    2.5254   10.5035 C   0  0  0  0  0  0  0  0  0  0  0  0
   44.2587    3.7984   11.0290 C   0  0  0  0  0  0  0  0  0  0  0  0
   46.3488    3.0755    7.3517 H   0  0  0  0  0  0  0  0  0  0  0  0
   45.1942    3.8525    6.3850 H   0  0  0  0  0  0  0  0  0  0  0  0
   44.8785    2.1433    6.6623 H   0  0  0  0  0  0  0  0  0  0  0  0
   47.0079    1.3509    8.3834 H   0  0  0  0  0  0  0  0  0  0  0  0
   47.5073    0.6866    6.9318 H   0  0  0  0  0  0  0  0  0  0  0  0
   47.8681    1.7113    5.0246 H   0  0  0  0  0  0  0  0  0  0  0  0
   46.8821    3.1540    4.5994 H   0  0  0  0  0  0  0  0  0  0  0  0
   46.0923    1.6392    5.0104 H   0  0  0  0  0  0  0  0  0  0  0  0
   47.3416    4.8463    6.8000 H   0  0  0  0  0  0  0  0  0  0  0  0
   48.6116    3.8880    6.0649 H   0  0  0  0  0  0  0  0  0  0  0  0
   48.4714    3.7724    7.8130 H   0  0  0  0  0  0  0  0  0  0  0  0
   45.3535    5.3944    8.3017 H   0  0  0  0  0  0  0  0  0  0  0  0
   44.6652    1.2390    8.8930 H   0  0  0  0  0  0  0  0  0  0  0  0
   44.6383    5.8473   10.6163 H   0  0  0  0  0  0  0  0  0  0  0  0
   43.9667    1.7162   11.1660 H   0  0  0  0  0  0  0  0  0  0  0  0
   43.9429    3.9955   12.0503 H   0  0  0  0  0  0  0  0  0  0  0  0
  3  2  1  0
  4  2  1  0
  5  3  1  0
  6  2  1  0
  7  2  1  0
  8  5  2  0
  9  5  1  0
 10  8  1  0
 11  9  2  0
 12 10  2  0
 11 12  1  0
  1 13  1  0
  3 14  1  0
  3 15  1  0
  4 16  1  0
  4 17  1  0
  6 18  1  0
  6 19  1  0
  6 20  1  0
  7 21  1  0
  7 22  1  0
  7 23  1  0
  8 24  1  0
  9 25  1  0
 10 26  1  0
 11 27  1  0
 12 28  1  0
M  END
> <Uni-Dock RESULT> 
ENERGY=   -3.845  LOWER_BOUND=    1.751  UPPER_BOUND=    4.344
INTER + INTRA:          -3.845
INTER:                  -3.845
INTRA:                   0.000
UNBOUND:                 0.000

$$$$

     RDKit          3D

 28 27  0  0  0  0  0  0  0  0999 V2000
   44.6573    4.2659    9.9754 Cl  0  0  0  0  0  0  0  0  0  0  0  0
   43.4392    4.9082   11.7588 C   0  0  0  0  0  0  0  0  0  0  0  0
   44.8072    4.4318   11.4679 C   0  0  0  0  0  0  0  0  0  0  0  0
   42.4078    3.9437   11.5090 N   0  0  0  0  0  0  0  0  0  0  0  0
   45.1452    4.0063   10.1237 C   0  0  0  0  0  0  0  0  0  0  0  0
   43.4086    5.1640   13.2721 C   0  0  0  0  0  0  0  0  0  0  0  0
   43.0849    6.2306   11.1155 C   0  0  0  0  0  0  0  0  0  0  0  0
   45.6380    4.8151    9.1403 C   0  0  0  0  0  0  0  0  0  0  0  0
   44.9585    2.6616    9.7879 C   0  0  0  0  0  0  0  0  0  0  0  0
   45.9536    4.3895    7.8662 C   0  0  0  0  0  0  0  0  0  0  0  0
   45.2627    2.2152    8.5352 C   0  0  0  0  0  0  0  0  0  0  0  0
   45.7592    3.0455    7.5548 C   0  0  0  0  0  0  0  0  0  0  0  0
   44.0337    4.7572   11.0912 H   0  0  0  0  0  0  0  0  0  0  0  0
   45.5189    5.2497   11.7415 H   0  0  0  0  0  0  0  0  0  0  0  0
   45.0424    3.6120   12.1760 H   0  0  0  0  0  0  0  0  0  0  0  0
   42.5827    3.2498   10.7820 H   0  0  0  0  0  0  0  0  0  0  0  0
   42.0328    3.4736   12.3458 H   0  0  0  0  0  0  0  0  0  0  0  0
   42.3805    5.1867   13.6733 H   0  0  0  0  0  0  0  0  0  0  0  0
   43.9300    6.0921   13.5555 H   0  0  0  0  0  0  0  0  0  0  0  0
   43.9445    4.3550   13.8189 H   0  0  0  0  0  0  0  0  0  0  0  0
   43.9631    6.8453   10.8445 H   0  0  0  0  0  0  0  0  0  0  0  0
   42.5084    6.8967   11.8207 H   0  0  0  0  0  0  0  0  0  0  0  0
   42.3684    6.0823   10.2696 H   0  0  0  0  0  0  0  0  0  0  0  0
   45.7928    5.8554    9.3678 H   0  0  0  0  0  0  0  0  0  0  0  0
   44.5733    1.9399   10.4958 H   0  0  0  0  0  0  0  0  0  0  0  0
   46.3394    5.0395    7.1075 H   0  0  0  0  0  0  0  0  0  0  0  0
   45.1205    1.1667    8.2631 H   0  0  0  0  0  0  0  0  0  0  0  0
   45.9995    2.6832    6.5585 H   0  0  0  0  0  0  0  0  0  0  0  0
  3  2  1  0
  4  2  1  0
  5  3  1  0
  6  2  1  0
  7  2  1  0
  8  5  2  0
  9  5  1  0
 10  8  1  0
 11  9  2  0
 12 10  2  0
 11 12  1  0
  1 13  1  0
  3 14  1  0
  3 15  1  0
  4 16  1  0
  4 17  1  0
  6 18  1  0
  6 19  1  0
  6 20  1  0
  7 21  1  0
  7 22  1  0
  7 23  1  0
  8 24  1  0
  9 25  1  0
 10 26  1  0
 11 27  1  0
 12 28  1  0
M  END
> <Uni-Dock RESULT> 
ENERGY=   -3.663  LOWER_BOUND=    1.849  UPPER_BOUND=    2.942
INTER + INTRA:          -3.663
INTER:                  -3.663
INTRA:                   0.000
UNBOUND:                 0.000

$$$$

     RDKit          3D

 28 27  0  0  0  0  0  0  0  0999 V2000
   45.3830    5.2290   12.1251 Cl  0  0  0  0  0  0  0  0  0  0  0  0
   46.7048    6.9331   12.7778 C   0  0  0  0  0  0  0  0  0  0  0  0
   45.2634    6.6506   12.6171 C   0  0  0  0  0  0  0  0  0  0  0  0
   47.4505    6.9360   11.5529 N   0  0  0  0  0  0  0  0  0  0  0  0
   44.8423    5.3922   12.0331 C   0  0  0  0  0  0  0  0  0  0  0  0
   46.7826    8.3697   13.3130 C   0  0  0  0  0  0  0  0  0  0  0  0
   47.4010    6.0756   13.8113 C   0  0  0  0  0  0  0  0  0  0  0  0
   44.5908    4.2445   12.7283 C   0  0  0  0  0  0  0  0  0  0  0  0
   44.6744    5.3289   10.6461 C   0  0  0  0  0  0  0  0  0  0  0  0
   44.1904    3.0561   12.1525 C   0  0  0  0  0  0  0  0  0  0  0  0
   44.2793    4.1661   10.0519 C   0  0  0  0  0  0  0  0  0  0  0  0
   44.0297    3.0170   10.7691 C   0  0  0  0  0  0  0  0  0  0  0  0
   46.0997    6.2694   12.6534 H   0  0  0  0  0  0  0  0  0  0  0  0
   44.7875    6.7191   13.6266 H   0  0  0  0  0  0  0  0  0  0  0  0
   44.8130    7.4844   12.0418 H   0  0  0  0  0  0  0  0  0  0  0  0
   47.1089    6.3434   10.7961 H   0  0  0  0  0  0  0  0  0  0  0  0
   47.6789    7.8687   11.1790 H   0  0  0  0  0  0  0  0  0  0  0  0
   47.7757    8.8241   13.1527 H   0  0  0  0  0  0  0  0  0  0  0  0
   46.5192    8.4390   14.3804 H   0  0  0  0  0  0  0  0  0  0  0  0
   46.0468    9.0240   12.7924 H   0  0  0  0  0  0  0  0  0  0  0  0
   46.7178    5.6381   14.5626 H   0  0  0  0  0  0  0  0  0  0  0  0
   48.1231    6.6777   14.4353 H   0  0  0  0  0  0  0  0  0  0  0  0
   48.0639    5.3203   13.3205 H   0  0  0  0  0  0  0  0  0  0  0  0
   44.7111    4.2612   13.7975 H   0  0  0  0  0  0  0  0  0  0  0  0
   44.8483    6.1833   10.0058 H   0  0  0  0  0  0  0  0  0  0  0  0
   43.9976    2.1653   12.7149 H   0  0  0  0  0  0  0  0  0  0  0  0
   44.1452    4.1064    8.9693 H   0  0  0  0  0  0  0  0  0  0  0  0
   43.7152    2.0938   10.2891 H   0  0  0  0  0  0  0  0  0  0  0  0
  3  2  1  0
  4  2  1  0
  5  3  1  0
  6  2  1  0
  7  2  1  0
  8  5  2  0
  9  5  1  0
 10  8  1  0
 11  9  2  0
 12 10  2  0
 11 12  1  0
  1 13  1  0
  3 14  1  0
  3 15  1  0
  4 16  1  0
  4 17  1  0
  6 18  1  0
  6 19  1  0
  6 20  1  0
  7 21  1  0
  7 22  1  0
  7 23  1  0
  8 24  1  0
  9 25  1  0
 10 26  1  0
 11 27  1  0
 12 28  1  0
M  END
> <Uni-Dock RESULT> 
ENERGY=   -3.485  LOWER_BOUND=    3.318  UPPER_BOUND=    4.709
INTER + INTRA:          -3.485
INTER:                  -3.485
INTRA:                   0.000
UNBOUND:                 0.000

$$$$

     RDKit          3D

 28 27  0  0  0  0  0  0  0  0999 V2000
   44.9029    5.2194   10.5751 Cl  0  0  0  0  0  0  0  0  0  0  0  0
   44.8724    6.9382   12.0318 C   0  0  0  0  0  0  0  0  0  0  0  0
   45.8542    6.0013   11.4474 C   0  0  0  0  0  0  0  0  0  0  0  0
   43.8876    6.3206   12.8714 N   0  0  0  0  0  0  0  0  0  0  0  0
   45.3940    4.9263   10.5903 C   0  0  0  0  0  0  0  0  0  0  0  0
   45.6843    7.8582   12.9542 C   0  0  0  0  0  0  0  0  0  0  0  0
   44.2047    7.8535   11.0295 C   0  0  0  0  0  0  0  0  0  0  0  0
   45.2481    5.0048    9.2352 C   0  0  0  0  0  0  0  0  0  0  0  0
   45.0685    3.7012   11.1812 C   0  0  0  0  0  0  0  0  0  0  0  0
   44.8082    3.9686    8.4371 C   0  0  0  0  0  0  0  0  0  0  0  0
   44.6312    2.6607   10.4147 C   0  0  0  0  0  0  0  0  0  0  0  0
   44.4897    2.7576    9.0481 C   0  0  0  0  0  0  0  0  0  0  0  0
   44.9980    6.3288   11.3724 H   0  0  0  0  0  0  0  0  0  0  0  0
   46.5883    6.6017   10.8549 H   0  0  0  0  0  0  0  0  0  0  0  0
   46.4528    5.5717   12.2758 H   0  0  0  0  0  0  0  0  0  0  0  0
   43.6377    5.3532   12.6652 H   0  0  0  0  0  0  0  0  0  0  0  0
   44.0461    6.4232   13.8844 H   0  0  0  0  0  0  0  0  0  0  0  0
   45.0518    8.3657   13.7032 H   0  0  0  0  0  0  0  0  0  0  0  0
   46.2640    8.6116   12.3976 H   0  0  0  0  0  0  0  0  0  0  0  0
   46.4432    7.2745   13.5234 H   0  0  0  0  0  0  0  0  0  0  0  0
   44.7772    7.9838   10.0926 H   0  0  0  0  0  0  0  0  0  0  0  0
   44.1090    8.9062   11.4247 H   0  0  0  0  0  0  0  0  0  0  0  0
   43.1411    7.5515   10.8618 H   0  0  0  0  0  0  0  0  0  0  0  0
   45.4907    5.9346    8.7509 H   0  0  0  0  0  0  0  0  0  0  0  0
   45.1498    3.5369   12.2473 H   0  0  0  0  0  0  0  0  0  0  0  0
   44.7000    4.0492    7.3747 H   0  0  0  0  0  0  0  0  0  0  0  0
   44.3744    1.6999   10.8667 H   0  0  0  0  0  0  0  0  0  0  0  0
   44.1407    1.9245    8.4433 H   0  0  0  0  0  0  0  0  0  0  0  0
  3  2  1  0
  4  2  1  0
  5  3  1  0
  6  2  1  0
  7  2  1  0
  8  5  2  0
  9  5  1  0
 10  8  1  0
 11  9  2  0
 12 10  2  0
 11 12  1  0
  1 13  1  0
  3 14  1  0
  3 15  1  0
  4 16  1  0
  4 17  1  0
  6 18  1  0
  6 19  1  0
  6 20  1  0
  7 21  1  0
  7 22  1  0
  7 23  1  0
  8 24  1  0
  9 25  1  0
 10 26  1  0
 11 27  1  0
 12 28  1  0
M  END
> <Uni-Dock RESULT> 
ENERGY=   -3.369  LOWER_BOUND=    2.456  UPPER_BOUND=    3.834
INTER + INTRA:          -3.369
INTER:                  -3.369
INTRA:                   0.000
UNBOUND:                 0.000

$$$$

     RDKit          3D

 28 27  0  0  0  0  0  0  0  0999 V2000
   45.2631    6.3950   12.3215 Cl  0  0  0  0  0  0  0  0  0  0  0  0
   47.1624    7.5567   12.6681 C   0  0  0  0  0  0  0  0  0  0  0  0
   46.6057    6.6198   11.6703 C   0  0  0  0  0  0  0  0  0  0  0  0
   47.3756    6.9856   13.9661 N   0  0  0  0  0  0  0  0  0  0  0  0
   45.3192    5.9973   11.9140 C   0  0  0  0  0  0  0  0  0  0  0  0
   48.5570    7.9289   12.1457 C   0  0  0  0  0  0  0  0  0  0  0  0
   46.4111    8.8639   12.7894 C   0  0  0  0  0  0  0  0  0  0  0  0
   44.1111    6.5068   11.5334 C   0  0  0  0  0  0  0  0  0  0  0  0
   45.2928    4.7747   12.5927 C   0  0  0  0  0  0  0  0  0  0  0  0
   42.8969    5.8975   11.7754 C   0  0  0  0  0  0  0  0  0  0  0  0
   44.1056    4.1515   12.8446 C   0  0  0  0  0  0  0  0  0  0  0  0
   42.8955    4.6802   12.4531 C   0  0  0  0  0  0  0  0  0  0  0  0
   46.3982    7.1582   12.3866 H   0  0  0  0  0  0  0  0  0  0  0  0
   46.5271    7.1647   10.6970 H   0  0  0  0  0  0  0  0  0  0  0  0
   47.3601    5.8290   11.4845 H   0  0  0  0  0  0  0  0  0  0  0  0
   46.7651    6.2173   14.2449 H   0  0  0  0  0  0  0  0  0  0  0  0
   48.3526    6.7411   14.1842 H   0  0  0  0  0  0  0  0  0  0  0  0
   49.2083    8.3337   12.9397 H   0  0  0  0  0  0  0  0  0  0  0  0
   48.5189    8.6429   11.3077 H   0  0  0  0  0  0  0  0  0  0  0  0
   49.0761    7.0325   11.7362 H   0  0  0  0  0  0  0  0  0  0  0  0
   45.8088    9.1176   11.8975 H   0  0  0  0  0  0  0  0  0  0  0  0
   47.1136    9.7415   12.8874 H   0  0  0  0  0  0  0  0  0  0  0  0
   45.8292    8.9013   13.7437 H   0  0  0  0  0  0  0  0  0  0  0  0
   44.0982    7.4464   11.0091 H   0  0  0  0  0  0  0  0  0  0  0  0
   46.1956    4.2877   12.9362 H   0  0  0  0  0  0  0  0  0  0  0  0
   41.9586    6.3130   11.4688 H   0  0  0  0  0  0  0  0  0  0  0  0
   44.0744    3.1963   13.3739 H   0  0  0  0  0  0  0  0  0  0  0  0
   41.9531    4.1783   12.6572 H   0  0  0  0  0  0  0  0  0  0  0  0
  3  2  1  0
  4  2  1  0
  5  3  1  0
  6  2  1  0
  7  2  1  0
  8  5  2  0
  9  5  1  0
 10  8  1  0
 11  9  2  0
 12 10  2  0
 11 12  1  0
  1 13  1  0
  3 14  1  0
  3 15  1  0
  4 16  1  0
  4 17  1  0
  6 18  1  0
  6 19  1  0
  6 20  1  0
  7 21  1  0
  7 22  1  0
  7 23  1  0
  8 24  1  0
  9 25  1  0
 10 26  1  0
 11 27  1  0
 12 28  1  0
M  END
> <Uni-Dock RESULT> 
ENERGY=   -3.332  LOWER_BOUND=    4.854  UPPER_BOUND=    5.934
INTER + INTRA:          -3.332
INTER:                  -3.332
INTRA:                   0.000
UNBOUND:                 0.000

$$$$

     RDKit          3D

 28 27  0  0  0  0  0  0  0  0999 V2000
   45.6121    6.8625   12.2361 Cl  0  0  0  0  0  0  0  0  0  0  0  0
   44.2619    5.0945   11.8783 C   0  0  0  0  0  0  0  0  0  0  0  0
   45.0427    5.6832   12.9860 C   0  0  0  0  0  0  0  0  0  0  0  0
   45.0534    4.6023   10.7886 N   0  0  0  0  0  0  0  0  0  0  0  0
   45.9002    6.8237   12.7289 C   0  0  0  0  0  0  0  0  0  0  0  0
   43.5694    3.8619   12.4764 C   0  0  0  0  0  0  0  0  0  0  0  0
   43.1473    5.9752   11.3586 C   0  0  0  0  0  0  0  0  0  0  0  0
   45.5214    8.1322   12.8195 C   0  0  0  0  0  0  0  0  0  0  0  0
   47.2269    6.5844   12.3568 C   0  0  0  0  0  0  0  0  0  0  0  0
   46.3542    9.2039   12.5704 C   0  0  0  0  0  0  0  0  0  0  0  0
   48.0709    7.6263   12.1050 C   0  0  0  0  0  0  0  0  0  0  0  0
   47.6717    8.9410   12.2013 C   0  0  0  0  0  0  0  0  0  0  0  0
   44.7085    5.8377   12.1431 H   0  0  0  0  0  0  0  0  0  0  0  0
   44.3237    5.9875   13.7865 H   0  0  0  0  0  0  0  0  0  0  0  0
   45.6451    4.8752   13.4478 H   0  0  0  0  0  0  0  0  0  0  0  0
   45.9508    5.0571   10.6197 H   0  0  0  0  0  0  0  0  0  0  0  0
   45.1792    3.5799   10.7626 H   0  0  0  0  0  0  0  0  0  0  0  0
   43.2432    3.1465   11.7016 H   0  0  0  0  0  0  0  0  0  0  0  0
   42.7095    4.1260   13.1124 H   0  0  0  0  0  0  0  0  0  0  0  0
   44.2638    3.3073   13.1478 H   0  0  0  0  0  0  0  0  0  0  0  0
   42.8100    6.7418   12.0804 H   0  0  0  0  0  0  0  0  0  0  0  0
   42.2097    5.3828   11.1507 H   0  0  0  0  0  0  0  0  0  0  0  0
   43.4065    6.3939   10.3545 H   0  0  0  0  0  0  0  0  0  0  0  0
   44.5064    8.3490   13.1037 H   0  0  0  0  0  0  0  0  0  0  0  0
   47.6249    5.5834   12.2570 H   0  0  0  0  0  0  0  0  0  0  0  0
   46.0387   10.2244   12.6467 H   0  0  0  0  0  0  0  0  0  0  0  0
   49.1090    7.4498   11.8138 H   0  0  0  0  0  0  0  0  0  0  0  0
   48.3495    9.7664   11.9991 H   0  0  0  0  0  0  0  0  0  0  0  0
  3  2  1  0
  4  2  1  0
  5  3  1  0
  6  2  1  0
  7  2  1  0
  8  5  2  0
  9  5  1  0
 10  8  1  0
 11  9  2  0
 12 10  2  0
 11 12  1  0
  1 13  1  0
  3 14  1  0
  3 15  1  0
  4 16  1  0
  4 17  1  0
  6 18  1  0
  6 19  1  0
  6 20  1  0
  7 21  1  0
  7 22  1  0
  7 23  1  0
  8 24  1  0
  9 25  1  0
 10 26  1  0
 11 27  1  0
 12 28  1  0
M  END
> <Uni-Dock RESULT> 
ENERGY=   -3.322  LOWER_BOUND=    4.627  UPPER_BOUND=    5.984
INTER + INTRA:          -3.322
INTER:                  -3.322
INTRA:                   0.000
UNBOUND:                 0.000

$$$$

     RDKit          3D

 28 27  0  0  0  0  0  0  0  0999 V2000
   45.4179    5.6113   12.3883 Cl  0  0  0  0  0  0  0  0  0  0  0  0
   44.3535    3.8124   11.5471 C   0  0  0  0  0  0  0  0  0  0  0  0
   44.3774    4.5981   12.7982 C   0  0  0  0  0  0  0  0  0  0  0  0
   45.5747    3.1191   11.2567 N   0  0  0  0  0  0  0  0  0  0  0  0
   45.3458    5.6658   12.9533 C   0  0  0  0  0  0  0  0  0  0  0  0
   43.3001    2.7185   11.7715 C   0  0  0  0  0  0  0  0  0  0  0  0
   43.8878    4.5822   10.3312 C   0  0  0  0  0  0  0  0  0  0  0  0
   45.1475    6.9691   12.5982 C   0  0  0  0  0  0  0  0  0  0  0  0
   46.5905    5.3554   13.5105 C   0  0  0  0  0  0  0  0  0  0  0  0
   46.0835    7.9709   12.7547 C   0  0  0  0  0  0  0  0  0  0  0  0
   47.5334    6.3273   13.6761 C   0  0  0  0  0  0  0  0  0  0  0  0
   47.3162    7.6378   13.3120 C   0  0  0  0  0  0  0  0  0  0  0  0
   44.6367    4.5908   11.9157 H   0  0  0  0  0  0  0  0  0  0  0  0
   43.3646    5.0516   12.9359 H   0  0  0  0  0  0  0  0  0  0  0  0
   44.4811    3.8905   13.6452 H   0  0  0  0  0  0  0  0  0  0  0  0
   46.4403    3.5303   11.6065 H   0  0  0  0  0  0  0  0  0  0  0  0
   45.5682    2.1100   11.4650 H   0  0  0  0  0  0  0  0  0  0  0  0
   43.4214    1.8700   11.0759 H   0  0  0  0  0  0  0  0  0  0  0  0
   42.2698    3.1017   11.7012 H   0  0  0  0  0  0  0  0  0  0  0  0
   43.3812    2.2992   12.8002 H   0  0  0  0  0  0  0  0  0  0  0  0
   43.2793    5.4733   10.5724 H   0  0  0  0  0  0  0  0  0  0  0  0
   43.1999    3.9645    9.6843 H   0  0  0  0  0  0  0  0  0  0  0  0
   44.7448    4.8015    9.6469 H   0  0  0  0  0  0  0  0  0  0  0  0
   44.1996    7.2396   12.1666 H   0  0  0  0  0  0  0  0  0  0  0  0
   46.8462    4.3523   13.8246 H   0  0  0  0  0  0  0  0  0  0  0  0
   45.9094    8.9884   12.4698 H   0  0  0  0  0  0  0  0  0  0  0  0
   48.5086    6.0950   14.1104 H   0  0  0  0  0  0  0  0  0  0  0  0
   48.0720    8.4073   13.4467 H   0  0  0  0  0  0  0  0  0  0  0  0
  3  2  1  0
  4  2  1  0
  5  3  1  0
  6  2  1  0
  7  2  1  0
  8  5  2  0
  9  5  1  0
 10  8  1  0
 11  9  2  0
 12 10  2  0
 11 12  1  0
  1 13  1  0
  3 14  1  0
  3 15  1  0
  4 16  1  0
  4 17  1  0
  6 18  1  0
  6 19  1  0
  6 20  1  0
  7 21  1  0
  7 22  1  0
  7 23  1  0
  8 24  1  0
  9 25  1  0
 10 26  1  0
 11 27  1  0
 12 28  1  0
M  END
> <Uni-Dock RESULT> 
ENERGY=   -3.186  LOWER_BOUND=    3.733  UPPER_BOUND=    5.716
INTER + INTRA:          -3.186
INTER:                  -3.186
INTRA:                   0.000
UNBOUND:                 0.000

$$$$
