
     RDKit          3D

 28 28  0  0  0  0  0  0  0  0999 V2000
   -1.7182   -0.0626   -0.0235 C   0  0  0  0  0  0  0  0  0  0  0  0
   -2.2584    1.0833    0.1491 N   0  0  0  0  0  0  0  0  0  0  0  0
   -0.3595   -0.1744   -0.1471 N   0  0  0  0  0  0  0  0  0  0  0  0
   -2.2229   -1.3295   -0.1166 N   0  0  0  0  0  0  0  0  0  0  0  0
    0.4947    0.9887    0.0235 C   0  0  0  0  0  0  0  0  0  0  0  0
    1.9371    0.5714   -0.1436 C   0  0  0  0  0  0  0  0  0  0  0  0
   -3.6800    1.2535    0.3398 C   0  0  0  0  0  0  0  0  0  0  0  0
   -3.5985   -1.6734   -0.3804 C   0  0  0  0  0  0  0  0  0  0  0  0
    2.4584    0.3227   -1.4220 C   0  0  0  0  0  0  0  0  0  0  0  0
    2.7653    0.3928    0.9739 C   0  0  0  0  0  0  0  0  0  0  0  0
    3.7847   -0.0813   -1.5802 C   0  0  0  0  0  0  0  0  0  0  0  0
    4.0919   -0.0111    0.8133 C   0  0  0  0  0  0  0  0  0  0  0  0
    4.6011   -0.2464   -0.4628 C   0  0  0  0  0  0  0  0  0  0  0  0
    0.0054   -0.9775    0.3499 H   0  0  0  0  0  0  0  0  0  0  0  0
   -1.5923   -1.9152   -0.6534 H   0  0  0  0  0  0  0  0  0  0  0  0
    0.2548    1.7603   -0.7184 H   0  0  0  0  0  0  0  0  0  0  0  0
    0.3464    1.4306    1.0164 H   0  0  0  0  0  0  0  0  0  0  0  0
   -3.8833    2.3078    0.5552 H   0  0  0  0  0  0  0  0  0  0  0  0
   -4.0472    0.6834    1.1980 H   0  0  0  0  0  0  0  0  0  0  0  0
   -4.2453    1.0015   -0.5614 H   0  0  0  0  0  0  0  0  0  0  0  0
   -3.9566   -1.1966   -1.2973 H   0  0  0  0  0  0  0  0  0  0  0  0
   -3.6799   -2.7567   -0.5177 H   0  0  0  0  0  0  0  0  0  0  0  0
   -4.2465   -1.4100    0.4587 H   0  0  0  0  0  0  0  0  0  0  0  0
    1.8249    0.4409   -2.2991 H   0  0  0  0  0  0  0  0  0  0  0  0
    2.3817    0.5694    1.9765 H   0  0  0  0  0  0  0  0  0  0  0  0
    4.1797   -0.2685   -2.5753 H   0  0  0  0  0  0  0  0  0  0  0  0
    4.7287   -0.1426    1.6844 H   0  0  0  0  0  0  0  0  0  0  0  0
    5.6342   -0.5604   -0.5865 H   0  0  0  0  0  0  0  0  0  0  0  0
  2  1  2  0
  3  1  1  0
  4  1  1  0
  5  3  1  0
  6  5  1  0
  7  2  1  0
  8  4  1  0
  9  6  2  0
 10  6  1  0
 11  9  1  0
 12 10  2  0
 13 12  1  0
 11 13  2  0
  3 14  1  0
  4 15  1  0
  5 16  1  0
  5 17  1  0
  7 18  1  0
  7 19  1  0
  7 20  1  0
  8 21  1  0
  8 22  1  0
  8 23  1  0
  9 24  1  0
 10 25  1  0
 11 26  1  0
 12 27  1  0
 13 28  1  0
M  END
$$$$
