
     RDKit          3D

 28 28  0  0  0  0  0  0  0  0999 V2000
   -1.7115   -0.1662    0.0933 C   0  0  0  0  0  0  0  0  0  0  0  0
   -2.1585   -1.2248   -0.4673 N   0  0  0  0  0  0  0  0  0  0  0  0
   -0.3688    0.0999    0.0962 N   0  0  0  0  0  0  0  0  0  0  0  0
   -2.3148    0.8698    0.7499 N   0  0  0  0  0  0  0  0  0  0  0  0
    0.5544   -0.7572   -0.6282 C   0  0  0  0  0  0  0  0  0  0  0  0
    1.9567   -0.2173   -0.4714 C   0  0  0  0  0  0  0  0  0  0  0  0
   -3.5684   -1.5277   -0.5476 C   0  0  0  0  0  0  0  0  0  0  0  0
   -3.6540    0.8651    1.2853 C   0  0  0  0  0  0  0  0  0  0  0  0
    2.5654    0.5074   -1.5062 C   0  0  0  0  0  0  0  0  0  0  0  0
    2.6573   -0.4053    0.7294 C   0  0  0  0  0  0  0  0  0  0  0  0
    3.8544    1.0195   -1.3475 C   0  0  0  0  0  0  0  0  0  0  0  0
    3.9456    0.1077    0.8860 C   0  0  0  0  0  0  0  0  0  0  0  0
    4.5439    0.8183   -0.1529 C   0  0  0  0  0  0  0  0  0  0  0  0
   -0.1721    1.0791   -0.0696 H   0  0  0  0  0  0  0  0  0  0  0  0
   -1.6637    1.2925    1.4028 H   0  0  0  0  0  0  0  0  0  0  0  0
    0.2863   -0.7971   -1.6911 H   0  0  0  0  0  0  0  0  0  0  0  0
    0.5181   -1.7832   -0.2419 H   0  0  0  0  0  0  0  0  0  0  0  0
   -3.9972   -1.7364    0.4363 H   0  0  0  0  0  0  0  0  0  0  0  0
   -3.7009   -2.4339   -1.1480 H   0  0  0  0  0  0  0  0  0  0  0  0
   -4.1276   -0.7346   -1.0521 H   0  0  0  0  0  0  0  0  0  0  0  0
   -4.4041    0.8496    0.4913 H   0  0  0  0  0  0  0  0  0  0  0  0
   -3.8057    0.0205    1.9637 H   0  0  0  0  0  0  0  0  0  0  0  0
   -3.8167    1.7833    1.8592 H   0  0  0  0  0  0  0  0  0  0  0  0
    2.0389    0.6755   -2.4433 H   0  0  0  0  0  0  0  0  0  0  0  0
    2.1937   -0.9516    1.5487 H   0  0  0  0  0  0  0  0  0  0  0  0
    4.3209    1.5760   -2.1563 H   0  0  0  0  0  0  0  0  0  0  0  0
    4.4809   -0.0460    1.8193 H   0  0  0  0  0  0  0  0  0  0  0  0
    5.5475    1.2172   -0.0307 H   0  0  0  0  0  0  0  0  0  0  0  0
  2  1  2  0
  3  1  1  0
  4  1  1  0
  5  3  1  0
  6  5  1  0
  7  2  1  0
  8  4  1  0
  9  6  2  0
 10  6  1  0
 11  9  1  0
 12 10  2  0
 13 12  1  0
 11 13  2  0
  3 14  1  0
  4 15  1  0
  5 16  1  0
  5 17  1  0
  7 18  1  0
  7 19  1  0
  7 20  1  0
  8 21  1  0
  8 22  1  0
  8 23  1  0
  9 24  1  0
 10 25  1  0
 11 26  1  0
 12 27  1  0
 13 28  1  0
M  END
$$$$
