
     RDKit          2D

 13 13  0  0  0  0  0  0  0  0999 V2000
    1.0042   -1.6417    0.0000 C   0  0  0  0  0  0  0  0  0  0  0  0
    1.0250   -0.9417    0.0000 N   0  0  0  0  0  0  0  0  0  0  0  0
    0.4000   -1.9917    0.0000 N   0  0  0  0  0  0  0  0  0  0  0  0
    1.6042   -1.9917    0.0000 N   0  0  0  0  0  0  0  0  0  0  0  0
   -0.2083   -1.6500    0.0000 C   0  0  0  0  0  0  0  0  0  0  0  0
   -0.8083   -1.9917    0.0000 C   0  0  0  0  0  0  0  0  0  0  0  0
    1.6542   -0.6208    0.0000 C   0  0  0  0  0  0  0  0  0  0  0  0
    2.2417   -1.6417    0.0000 C   0  0  0  0  0  0  0  0  0  0  0  0
   -1.4458   -1.6250    0.0000 C   0  0  0  0  0  0  0  0  0  0  0  0
   -0.8000   -2.6792    0.0000 C   0  0  0  0  0  0  0  0  0  0  0  0
   -2.0458   -1.9542    0.0000 C   0  0  0  0  0  0  0  0  0  0  0  0
   -1.4458   -3.0417    0.0000 C   0  0  0  0  0  0  0  0  0  0  0  0
   -2.0583   -2.6917    0.0000 C   0  0  0  0  0  0  0  0  0  0  0  0
  2  1  2  0
  3  1  1  0
  4  1  1  0
  5  3  1  0
  6  5  1  0
  7  2  1  0
  8  4  1  0
  9  6  2  0
 10  6  1  0
 11  9  1  0
 12 10  2  0
 13 12  1  0
 11 13  2  0
M  END
> <chembl_id>
CHEMBL1201260

> <chembl_pref_name>
BETHANIDINE
