
     RDKit          3D

 28 28  0  0  0  0  0  0  0  0999 V2000
   -1.6993    0.2599   -0.1221 C   0  0  0  0  0  0  0  0  0  0  0  0
   -2.0484    1.4653    0.1223 N   0  0  0  0  0  0  0  0  0  0  0  0
   -0.3793   -0.0999   -0.0764 N   0  0  0  0  0  0  0  0  0  0  0  0
   -2.3995   -0.8692   -0.4432 N   0  0  0  0  0  0  0  0  0  0  0  0
    0.6301    0.8524    0.3543 C   0  0  0  0  0  0  0  0  0  0  0  0
    1.9842    0.1826    0.3293 C   0  0  0  0  0  0  0  0  0  0  0  0
   -3.4295    1.8876    0.1417 C   0  0  0  0  0  0  0  0  0  0  0  0
   -3.7563   -0.9118   -0.9303 C   0  0  0  0  0  0  0  0  0  0  0  0
    2.6451   -0.0320   -0.8893 C   0  0  0  0  0  0  0  0  0  0  0  0
    2.5842   -0.2648    1.5152 C   0  0  0  0  0  0  0  0  0  0  0  0
    3.8873   -0.6672   -0.9194 C   0  0  0  0  0  0  0  0  0  0  0  0
    3.8271   -0.8998    1.4827 C   0  0  0  0  0  0  0  0  0  0  0  0
    4.4783   -1.0993    0.2665 C   0  0  0  0  0  0  0  0  0  0  0  0
   -0.2439   -1.0045    0.3578 H   0  0  0  0  0  0  0  0  0  0  0  0
   -1.8069   -1.5087   -0.9617 H   0  0  0  0  0  0  0  0  0  0  0  0
    0.4101    1.2121    1.3669 H   0  0  0  0  0  0  0  0  0  0  0  0
    0.6486    1.7267   -0.3078 H   0  0  0  0  0  0  0  0  0  0  0  0
   -4.0204    1.3157    0.8629 H   0  0  0  0  0  0  0  0  0  0  0  0
   -3.8837    1.8421   -0.8518 H   0  0  0  0  0  0  0  0  0  0  0  0
   -3.4740    2.9340    0.4613 H   0  0  0  0  0  0  0  0  0  0  0  0
   -4.4697   -0.6138   -0.1584 H   0  0  0  0  0  0  0  0  0  0  0  0
   -3.8777   -0.2845   -1.8180 H   0  0  0  0  0  0  0  0  0  0  0  0
   -4.0058   -1.9392   -1.2149 H   0  0  0  0  0  0  0  0  0  0  0  0
    2.1864    0.2945   -1.8207 H   0  0  0  0  0  0  0  0  0  0  0  0
    2.0871   -0.1194    2.4719 H   0  0  0  0  0  0  0  0  0  0  0  0
    4.3925   -0.8261   -1.8685 H   0  0  0  0  0  0  0  0  0  0  0  0
    4.2875   -1.2394    2.4070 H   0  0  0  0  0  0  0  0  0  0  0  0
    5.4460   -1.5933    0.2427 H   0  0  0  0  0  0  0  0  0  0  0  0
  2  1  2  0
  3  1  1  0
  4  1  1  0
  5  3  1  0
  6  5  1  0
  7  2  1  0
  8  4  1  0
  9  6  2  0
 10  6  1  0
 11  9  1  0
 12 10  2  0
 13 12  1  0
 11 13  2  0
  3 14  1  0
  4 15  1  0
  5 16  1  0
  5 17  1  0
  7 18  1  0
  7 19  1  0
  7 20  1  0
  8 21  1  0
  8 22  1  0
  8 23  1  0
  9 24  1  0
 10 25  1  0
 11 26  1  0
 12 27  1  0
 13 28  1  0
M  END
$$$$
