
     RDKit          3D

116115  0  0  0  0  0  0  0  0999 V2000
   50.3959    8.2044   13.6135 O   0  0  0  0  0  0  0  0  0  0  0  0
   57.7543    9.5517   14.3634 O   0  0  0  0  0  0  0  0  0  0  0  0
   51.8173    8.8766   16.5946 O   0  0  0  0  0  0  0  0  0  0  0  0
   43.9929    5.8241   10.5080 O   0  0  0  0  0  0  0  0  0  0  0  0
   54.5429   12.8747   12.4641 O   0  0  0  0  0  0  0  0  0  0  0  0
   56.2504   11.4109   13.1415 N   0  0  0  0  0  0  0  0  0  0  0  0
   49.9158    9.1612   14.5407 N   0  0  0  0  0  0  0  0  0  0  0  0
   53.6663    9.5877   15.1719 C   0  0  0  0  0  0  0  0  0  0  0  0
   55.6039   10.5044   14.0024 C   0  0  0  0  0  0  0  0  0  0  0  0
   56.4064    9.5411   14.6206 C   0  0  0  0  0  0  0  0  0  0  0  0
   54.2410   10.5296   14.2965 C   0  0  0  0  0  0  0  0  0  0  0  0
   52.1738    9.6400   15.4344 C   0  0  1  0  0  0  0  0  0  0  0  0
   54.4996    8.6342   15.7736 C   0  0  0  0  0  0  0  0  0  0  0  0
   55.8713    8.6122   15.5085 C   0  0  0  0  0  0  0  0  0  0  0  0
   51.3600    9.1137   14.2280 C   0  0  0  0  0  0  0  0  0  0  0  0
   46.7136    7.6137   13.1386 C   0  0  0  0  0  0  0  0  0  0  0  0
   49.0791    8.5766   13.4734 C   0  0  1  0  0  0  0  0  0  0  0  0
   47.6754    8.3164   14.0771 C   0  0  0  0  0  0  0  0  0  0  0  0
   44.9227    6.3256   11.3770 C   0  0  0  0  0  0  0  0  0  0  0  0
   45.6737    8.3266   12.5293 C   0  0  0  0  0  0  0  0  0  0  0  0
   46.8528    6.2505   12.8460 C   0  0  0  0  0  0  0  0  0  0  0  0
   55.6992   12.4764   12.4679 C   0  0  0  0  0  0  0  0  0  0  0  0
   44.7874    7.6843   11.6609 C   0  0  0  0  0  0  0  0  0  0  0  0
   45.9664    5.6111   11.9645 C   0  0  0  0  0  0  0  0  0  0  0  0
   48.9914    9.5134   12.2588 C   0  0  0  0  0  0  0  0  0  0  0  0
   43.8655    4.4104   10.4931 C   0  0  0  0  0  0  0  0  0  0  0  0
   52.6749    9.3442   13.3816 O   0  0  0  0  0  0  0  0  0  0  0  0
   48.0175    7.7109   13.4042 O   0  0  0  0  0  0  0  0  0  0  0  0
   52.7499    7.7528   14.9564 O   0  0  0  0  0  0  0  0  0  0  0  0
   47.9305    9.3481   11.8807 O   0  0  0  0  0  0  0  0  0  0  0  0
   52.1154    8.3759   14.1236 C   0  0  0  0  0  0  0  0  0  0  0  0
   48.5725    8.6952   12.6822 C   0  0  0  0  0  0  0  0  0  0  0  0
   50.6852    8.1770   13.8536 C   0  0  0  0  0  0  0  0  0  0  0  0
   49.9995    8.8998   12.9565 C   0  0  0  0  0  0  0  0  0  0  0  0
   55.6834    9.6407   17.3840 O   0  0  0  0  0  0  0  0  0  0  0  0
   53.1007    7.8857   11.9299 O   0  0  0  0  0  0  0  0  0  0  0  0
   43.1931    6.7827   11.5345 O   0  0  0  0  0  0  0  0  0  0  0  0
   57.7085   11.0235   17.0554 O   0  0  0  0  0  0  0  0  0  0  0  0
   56.7708   11.1020   14.9268 N   0  0  0  0  0  0  0  0  0  0  0  0
   50.6340    8.9286   13.1641 N   0  0  0  0  0  0  0  0  0  0  0  0
   53.7314    9.3770   13.6982 C   0  0  0  0  0  0  0  0  0  0  0  0
   55.6165   10.2843   15.0075 C   0  0  0  0  0  0  0  0  0  0  0  0
   55.1176    9.6241   16.1417 C   0  0  0  0  0  0  0  0  0  0  0  0
   54.9052   10.1464   13.7946 C   0  0  0  0  0  0  0  0  0  0  0  0
   53.0247    9.2429   12.3659 C   0  0  2  0  0  0  0  0  0  0  0  0
   53.2802    8.7244   14.8511 C   0  0  0  0  0  0  0  0  0  0  0  0
   53.9604    8.8505   16.0576 C   0  0  0  0  0  0  0  0  0  0  0  0
   51.5526    9.7282   12.3190 C   0  0  0  0  0  0  0  0  0  0  0  0
   46.9589    7.8376   13.0193 C   0  0  0  0  0  0  0  0  0  0  0  0
   49.3823    8.5358   12.4775 C   0  0  2  0  0  0  0  0  0  0  0  0
   48.3067    8.2522   13.5488 C   0  0  0  0  0  0  0  0  0  0  0  0
   44.4390    7.0383   12.0440 C   0  0  0  0  0  0  0  0  0  0  0  0
   46.1322    8.7549   12.3618 C   0  0  0  0  0  0  0  0  0  0  0  0
   46.5165    6.5173   13.1703 C   0  0  0  0  0  0  0  0  0  0  0  0
   57.6862   11.4110   15.8991 C   0  0  0  0  0  0  0  0  0  0  0  0
   44.8855    8.3521   11.8748 C   0  0  0  0  0  0  0  0  0  0  0  0
   45.2680    6.1180   12.6814 C   0  0  0  0  0  0  0  0  0  0  0  0
   49.6570    7.2996   11.6204 C   0  0  0  0  0  0  0  0  0  0  0  0
   42.6148    5.5193   11.8470 C   0  0  0  0  0  0  0  0  0  0  0  0
   50.3667    8.1974   13.6058 O   0  0  0  0  0  0  0  0  0  0  0  0
   49.5961    8.4960   13.1494 H   0  0  0  0  0  0  0  0  0  0  0  0
   51.0264    8.9279   13.4782 H   0  0  0  0  0  0  0  0  0  0  0  0
   58.1875    8.9974   15.0295 H   0  0  0  0  0  0  0  0  0  0  0  0
   50.8561    8.7274   16.4982 H   0  0  0  0  0  0  0  0  0  0  0  0
   57.2503   11.2399   13.0476 H   0  0  0  0  0  0  0  0  0  0  0  0
   49.6360   10.1373   14.6844 H   0  0  0  0  0  0  0  0  0  0  0  0
   53.5979   11.2739   13.8372 H   0  0  0  0  0  0  0  0  0  0  0  0
   51.8935   10.6791   15.6504 H   0  0  0  0  0  0  0  0  0  0  0  0
   54.0812    7.9138   16.4741 H   0  0  0  0  0  0  0  0  0  0  0  0
   56.4998    7.8713   15.9903 H   0  0  0  0  0  0  0  0  0  0  0  0
   51.5887    9.7125   13.3409 H   0  0  0  0  0  0  0  0  0  0  0  0
   51.6448    8.0725   14.0312 H   0  0  0  0  0  0  0  0  0  0  0  0
   49.5128    7.6157   13.1620 H   0  0  0  0  0  0  0  0  0  0  0  0
   47.2380    9.2708   14.3948 H   0  0  0  0  0  0  0  0  0  0  0  0
   47.7724    7.7142   14.9910 H   0  0  0  0  0  0  0  0  0  0  0  0
   45.5361    9.3877   12.7360 H   0  0  0  0  0  0  0  0  0  0  0  0
   47.6614    5.6630   13.2817 H   0  0  0  0  0  0  0  0  0  0  0  0
   56.4922   12.9860   11.8803 H   0  0  0  0  0  0  0  0  0  0  0  0
   43.9874    8.2566   11.1974 H   0  0  0  0  0  0  0  0  0  0  0  0
   46.1180    4.5613   11.7502 H   0  0  0  0  0  0  0  0  0  0  0  0
   48.5308   10.4708   12.5283 H   0  0  0  0  0  0  0  0  0  0  0  0
   48.3889    9.0614   11.4649 H   0  0  0  0  0  0  0  0  0  0  0  0
   49.9778    9.7218   11.8284 H   0  0  0  0  0  0  0  0  0  0  0  0
   42.9934    4.1645    9.8833 H   0  0  0  0  0  0  0  0  0  0  0  0
   43.6841    4.0089   11.4948 H   0  0  0  0  0  0  0  0  0  0  0  0
   44.7431    3.9471   10.0273 H   0  0  0  0  0  0  0  0  0  0  0  0
   53.6080    9.3743   13.6804 H   0  0  0  0  0  0  0  0  0  0  0  0
   47.0774    7.7018   13.1265 H   0  0  0  0  0  0  0  0  0  0  0  0
   50.2226    7.3870   14.4355 H   0  0  0  0  0  0  0  0  0  0  0  0
   50.4620    9.6892   12.3747 H   0  0  0  0  0  0  0  0  0  0  0  0
   56.5234   10.1331   17.3456 H   0  0  0  0  0  0  0  0  0  0  0  0
   52.4573    7.4016   12.4873 H   0  0  0  0  0  0  0  0  0  0  0  0
   56.9707   11.4974   14.0124 H   0  0  0  0  0  0  0  0  0  0  0  0
   50.4065    9.4893   13.9919 H   0  0  0  0  0  0  0  0  0  0  0  0
   55.2704   10.6409   12.8979 H   0  0  0  0  0  0  0  0  0  0  0  0
   53.5778    9.8262   11.6210 H   0  0  0  0  0  0  0  0  0  0  0  0
   52.3932    8.1006   14.8312 H   0  0  0  0  0  0  0  0  0  0  0  0
   53.5983    8.3312   16.9443 H   0  0  0  0  0  0  0  0  0  0  0  0
   51.2440    9.6945   11.2744 H   0  0  0  0  0  0  0  0  0  0  0  0
   51.4855   10.7761   12.6312 H   0  0  0  0  0  0  0  0  0  0  0  0
   49.0298    9.3569   11.8474 H   0  0  0  0  0  0  0  0  0  0  0  0
   48.6719    7.4903   14.2453 H   0  0  0  0  0  0  0  0  0  0  0  0
   48.1542    9.1528   14.1582 H   0  0  0  0  0  0  0  0  0  0  0  0
   46.4427    9.7889   12.2328 H   0  0  0  0  0  0  0  0  0  0  0  0
   47.1509    5.7850   13.6622 H   0  0  0  0  0  0  0  0  0  0  0  0
   58.4746   12.0744   15.5006 H   0  0  0  0  0  0  0  0  0  0  0  0
   44.2473    9.0636   11.3534 H   0  0  0  0  0  0  0  0  0  0  0  0
   44.9801    5.0812   12.8156 H   0  0  0  0  0  0  0  0  0  0  0  0
   50.4288    7.5000   10.8692 H   0  0  0  0  0  0  0  0  0  0  0  0
   48.7550    6.9812   11.0844 H   0  0  0  0  0  0  0  0  0  0  0  0
   49.9946    6.4586   12.2412 H   0  0  0  0  0  0  0  0  0  0  0  0
   43.1576    4.6998   11.3591 H   0  0  0  0  0  0  0  0  0  0  0  0
   42.5536    5.3509   12.9321 H   0  0  0  0  0  0  0  0  0  0  0  0
   41.5901    5.5211   11.4515 H   0  0  0  0  0  0  0  0  0  0  0  0
   51.0478    8.8811   13.5111 H   0  0  0  0  0  0  0  0  0  0  0  0
   49.6039    8.5498   13.1241 H   0  0  0  0  0  0  0  0  0  0  0  0
  2 10  1  0
  3 12  1  0
  4 19  1  0
  4 26  1  0
  5 22  2  0
  6  9  1  0
  6 22  1  0
  7 15  1  0
  7 17  1  0
  8 11  2  0
  8 12  1  0
  8 13  1  0
  9 10  2  0
  9 11  1  0
 10 14  1  0
 12 15  1  0
 13 14  2  0
 16 18  1  0
 16 20  2  0
 16 21  1  0
 17 18  1  0
 17 25  1  0
 19 23  2  0
 19 24  1  0
 20 23  1  0
 21 24  2  0
 27 31  1  0
 28 32  1  0
 29 31  2  0
 30 32  2  0
 31 33  1  0
 32 34  1  0
 33 34  2  0
 35 43  1  0
 36 45  1  0
 37 52  1  0
 37 59  1  0
 38 55  2  0
 39 42  1  0
 39 55  1  0
 40 48  1  0
 40 50  1  0
 41 44  2  0
 41 45  1  0
 41 46  1  0
 42 43  2  0
 42 44  1  0
 43 47  1  0
 45 48  1  0
 46 47  2  0
 49 51  1  0
 49 53  2  0
 49 54  1  0
 50 51  1  0
 50 58  1  0
 52 56  2  0
 52 57  1  0
 53 56  1  0
 54 57  2  0
  1 61  1  0
  1 62  1  0
  2 63  1  0
  3 64  1  0
  6 65  1  0
  7 66  1  0
 11 67  1  0
 12 68  1  6
 13 69  1  0
 14 70  1  0
 15 71  1  0
 15 72  1  0
 17 73  1  1
 18 74  1  0
 18 75  1  0
 20 76  1  0
 21 77  1  0
 22 78  1  0
 23 79  1  0
 24 80  1  0
 25 81  1  0
 25 82  1  0
 25 83  1  0
 26 84  1  0
 26 85  1  0
 26 86  1  0
 27 87  1  0
 28 88  1  0
 33 89  1  0
 34 90  1  0
 35 91  1  0
 36 92  1  0
 39 93  1  0
 40 94  1  0
 44 95  1  0
 45 96  1  1
 46 97  1  0
 47 98  1  0
 48 99  1  0
 48100  1  0
 50101  1  1
 51102  1  0
 51103  1  0
 53104  1  0
 54105  1  0
 55106  1  0
 56107  1  0
 57108  1  0
 58109  1  0
 58110  1  0
 58111  1  0
 59112  1  0
 59113  1  0
 59114  1  0
 60115  1  0
 60116  1  0
M  END
> <Uni-Dock RESULT> 
ENERGY=   -6.230  LOWER_BOUND=    0.000  UPPER_BOUND=    0.000
INTER + INTRA:          -6.230
INTER:                  -6.230
INTRA:                   0.000
UNBOUND:                 0.000

$$$$

     RDKit          3D

116115  0  0  0  0  0  0  0  0999 V2000
   49.7509    8.9685   13.8121 O   0  0  0  0  0  0  0  0  0  0  0  0
   54.3271   14.5106   16.0185 O   0  0  0  0  0  0  0  0  0  0  0  0
   52.7954    9.4513   12.4492 O   0  0  0  0  0  0  0  0  0  0  0  0
   43.4011    5.0769   12.8940 O   0  0  0  0  0  0  0  0  0  0  0  0
   53.5590   10.3646   18.6987 O   0  0  0  0  0  0  0  0  0  0  0  0
   53.9202   12.4637   17.7084 N   0  0  0  0  0  0  0  0  0  0  0  0
   50.7253    7.9569   13.6308 N   0  0  0  0  0  0  0  0  0  0  0  0
   53.0736   10.8769   14.4084 C   0  0  0  0  0  0  0  0  0  0  0  0
   53.6832   12.2423   16.3389 C   0  0  0  0  0  0  0  0  0  0  0  0
   53.8944   13.3249   15.4800 C   0  0  0  0  0  0  0  0  0  0  0  0
   53.2896   11.0210   15.7928 C   0  0  0  0  0  0  0  0  0  0  0  0
   52.6167    9.5353   13.8693 C   0  0  1  0  0  0  0  0  0  0  0  0
   53.2931   11.9832   13.5757 C   0  0  0  0  0  0  0  0  0  0  0  0
   53.7121   13.2066   14.1051 C   0  0  0  0  0  0  0  0  0  0  0  0
   51.1294    9.2614   14.1969 C   0  0  0  0  0  0  0  0  0  0  0  0
   47.4424    6.1673   12.8336 C   0  0  0  0  0  0  0  0  0  0  0  0
   49.2875    7.6734   13.8144 C   0  0  1  0  0  0  0  0  0  0  0  0
   48.9180    6.5169   12.8509 C   0  0  0  0  0  0  0  0  0  0  0  0
   44.6973    5.5082   12.8245 C   0  0  0  0  0  0  0  0  0  0  0  0
   46.9847    5.0041   13.4647 C   0  0  0  0  0  0  0  0  0  0  0  0
   46.5073    7.0024   12.2078 C   0  0  0  0  0  0  0  0  0  0  0  0
   53.8434   11.5534   18.7373 C   0  0  0  0  0  0  0  0  0  0  0  0
   45.6256    4.6799   13.4547 C   0  0  0  0  0  0  0  0  0  0  0  0
   45.1411    6.6784   12.2091 C   0  0  0  0  0  0  0  0  0  0  0  0
   48.9758    7.2978   15.2712 C   0  0  0  0  0  0  0  0  0  0  0  0
   42.5055    5.6708   11.9665 C   0  0  0  0  0  0  0  0  0  0  0  0
   51.2777   10.3894   15.2942 O   0  0  0  0  0  0  0  0  0  0  0  0
   48.2602    7.2016   13.0379 O   0  0  0  0  0  0  0  0  0  0  0  0
   51.4438   11.0301   13.1541 O   0  0  0  0  0  0  0  0  0  0  0  0
   48.1504    6.5209   15.1671 O   0  0  0  0  0  0  0  0  0  0  0  0
   50.9629   10.2894   13.9935 C   0  0  0  0  0  0  0  0  0  0  0  0
   48.5960    7.2871   14.3332 C   0  0  0  0  0  0  0  0  0  0  0  0
   50.0263    9.1979   13.6949 C   0  0  0  0  0  0  0  0  0  0  0  0
   49.5374    8.3725   14.6315 C   0  0  0  0  0  0  0  0  0  0  0  0
   55.5003   12.2817   13.3582 O   0  0  0  0  0  0  0  0  0  0  0  0
   49.6304   11.6743   15.5199 O   0  0  0  0  0  0  0  0  0  0  0  0
   44.3011    3.7766   12.5600 O   0  0  0  0  0  0  0  0  0  0  0  0
   56.9910   13.3773   15.0009 O   0  0  0  0  0  0  0  0  0  0  0  0
   55.1789   12.8218   16.3517 N   0  0  0  0  0  0  0  0  0  0  0  0
   49.9775    8.8744   14.6623 N   0  0  0  0  0  0  0  0  0  0  0  0
   51.9820   11.2365   15.3569 C   0  0  0  0  0  0  0  0  0  0  0  0
   54.2398   12.2264   15.4736 C   0  0  0  0  0  0  0  0  0  0  0  0
   54.3978   11.9726   14.1018 C   0  0  0  0  0  0  0  0  0  0  0  0
   53.0213   11.8487   16.0809 C   0  0  0  0  0  0  0  0  0  0  0  0
   50.6870   10.8770   16.0543 C   0  0  2  0  0  0  0  0  0  0  0  0
   52.1784   11.0173   13.9887 C   0  0  0  0  0  0  0  0  0  0  0  0
   53.3718   11.3750   13.3705 C   0  0  0  0  0  0  0  0  0  0  0  0
   50.2838    9.3799   16.0217 C   0  0  0  0  0  0  0  0  0  0  0  0
   47.6023    6.2828   13.1262 C   0  0  0  0  0  0  0  0  0  0  0  0
   48.7249    8.0884   14.5868 C   0  0  2  0  0  0  0  0  0  0  0  0
   48.8042    7.1616   13.3540 C   0  0  0  0  0  0  0  0  0  0  0  0
   45.3509    4.6497   12.6743 C   0  0  0  0  0  0  0  0  0  0  0  0
   47.3268    5.2077   13.9779 C   0  0  0  0  0  0  0  0  0  0  0  0
   46.7333    6.5378   12.0578 C   0  0  0  0  0  0  0  0  0  0  0  0
   56.4258   13.3223   16.0804 C   0  0  0  0  0  0  0  0  0  0  0  0
   46.2056    4.4038   13.7528 C   0  0  0  0  0  0  0  0  0  0  0  0
   45.6121    5.7310   11.8359 C   0  0  0  0  0  0  0  0  0  0  0  0
   47.5428    9.0531   14.4858 C   0  0  0  0  0  0  0  0  0  0  0  0
   43.5143    3.8650   11.3763 C   0  0  0  0  0  0  0  0  0  0  0  0
   49.7286    8.9481   13.8056 O   0  0  0  0  0  0  0  0  0  0  0  0
   49.2514    8.2007   14.1298 H   0  0  0  0  0  0  0  0  0  0  0  0
   50.3645    9.1689   14.5351 H   0  0  0  0  0  0  0  0  0  0  0  0
   54.6460   15.0669   15.2923 H   0  0  0  0  0  0  0  0  0  0  0  0
   52.2143    8.7139   12.1770 H   0  0  0  0  0  0  0  0  0  0  0  0
   54.2019   13.4188   17.9232 H   0  0  0  0  0  0  0  0  0  0  0  0
   51.2700    7.2133   14.0803 H   0  0  0  0  0  0  0  0  0  0  0  0
   53.1286   10.1624   16.4372 H   0  0  0  0  0  0  0  0  0  0  0  0
   53.2472    8.7503   14.3069 H   0  0  0  0  0  0  0  0  0  0  0  0
   53.1583   11.8869   12.4999 H   0  0  0  0  0  0  0  0  0  0  0  0
   53.8838   14.0480   13.4428 H   0  0  0  0  0  0  0  0  0  0  0  0
   50.9821    9.2805   15.2812 H   0  0  0  0  0  0  0  0  0  0  0  0
   50.5127   10.0488   13.7454 H   0  0  0  0  0  0  0  0  0  0  0  0
   48.7068    8.5641   13.5354 H   0  0  0  0  0  0  0  0  0  0  0  0
   49.4974    5.6254   13.1202 H   0  0  0  0  0  0  0  0  0  0  0  0
   49.2265    6.7752   11.8285 H   0  0  0  0  0  0  0  0  0  0  0  0
   47.6853    4.3318   13.9596 H   0  0  0  0  0  0  0  0  0  0  0  0
   46.8181    7.9285   11.7233 H   0  0  0  0  0  0  0  0  0  0  0  0
   54.0980   12.0603   19.6923 H   0  0  0  0  0  0  0  0  0  0  0  0
   45.2910    3.7725   13.9518 H   0  0  0  0  0  0  0  0  0  0  0  0
   44.4482    7.3581   11.7305 H   0  0  0  0  0  0  0  0  0  0  0  0
   49.5142    6.3914   15.5714 H   0  0  0  0  0  0  0  0  0  0  0  0
   47.9052    7.1125   15.4019 H   0  0  0  0  0  0  0  0  0  0  0  0
   49.2463    8.0987   15.9690 H   0  0  0  0  0  0  0  0  0  0  0  0
   41.5601    5.1272   12.0268 H   0  0  0  0  0  0  0  0  0  0  0  0
   42.8670    5.5790   10.9377 H   0  0  0  0  0  0  0  0  0  0  0  0
   42.3098    6.7163   12.2319 H   0  0  0  0  0  0  0  0  0  0  0  0
   51.9135   11.1344   15.3364 H   0  0  0  0  0  0  0  0  0  0  0  0
   47.6480    6.4373   12.9920 H   0  0  0  0  0  0  0  0  0  0  0  0
   49.7507    9.1142   12.6491 H   0  0  0  0  0  0  0  0  0  0  0  0
   49.8127    8.4563   15.6769 H   0  0  0  0  0  0  0  0  0  0  0  0
   56.1373   12.7632   13.9168 H   0  0  0  0  0  0  0  0  0  0  0  0
   49.4370   11.2871   14.6414 H   0  0  0  0  0  0  0  0  0  0  0  0
   54.8811   12.9209   17.3181 H   0  0  0  0  0  0  0  0  0  0  0  0
   50.7649    8.2892   14.3639 H   0  0  0  0  0  0  0  0  0  0  0  0
   52.8673   12.0379   17.1403 H   0  0  0  0  0  0  0  0  0  0  0  0
   50.7715   11.1628   17.1089 H   0  0  0  0  0  0  0  0  0  0  0  0
   51.4040   10.5685   13.3761 H   0  0  0  0  0  0  0  0  0  0  0  0
   53.5060   11.2022   12.3032 H   0  0  0  0  0  0  0  0  0  0  0  0
   49.4198    9.2732   16.6772 H   0  0  0  0  0  0  0  0  0  0  0  0
   51.0795    8.7604   16.4498 H   0  0  0  0  0  0  0  0  0  0  0  0
   48.6228    7.4640   15.4785 H   0  0  0  0  0  0  0  0  0  0  0  0
   48.9915    7.7586   12.4554 H   0  0  0  0  0  0  0  0  0  0  0  0
   49.6764    6.5018   13.4507 H   0  0  0  0  0  0  0  0  0  0  0  0
   47.9840    4.9785   14.8132 H   0  0  0  0  0  0  0  0  0  0  0  0
   46.9196    7.3787   11.3952 H   0  0  0  0  0  0  0  0  0  0  0  0
   56.8965   13.7234   16.9959 H   0  0  0  0  0  0  0  0  0  0  0  0
   45.9855    3.5740   14.4223 H   0  0  0  0  0  0  0  0  0  0  0  0
   44.9668    5.9802   11.0008 H   0  0  0  0  0  0  0  0  0  0  0  0
   47.4959    9.7172   15.3557 H   0  0  0  0  0  0  0  0  0  0  0  0
   46.5915    8.5097   14.4386 H   0  0  0  0  0  0  0  0  0  0  0  0
   47.6202    9.6758   13.5842 H   0  0  0  0  0  0  0  0  0  0  0  0
   42.9456    4.8030   11.3436 H   0  0  0  0  0  0  0  0  0  0  0  0
   44.1224    3.7493   10.4672 H   0  0  0  0  0  0  0  0  0  0  0  0
   42.7911    3.0387   11.4010 H   0  0  0  0  0  0  0  0  0  0  0  0
   50.3688    9.2059   14.4868 H   0  0  0  0  0  0  0  0  0  0  0  0
   49.2693    8.1841   14.1846 H   0  0  0  0  0  0  0  0  0  0  0  0
  2 10  1  0
  3 12  1  0
  4 19  1  0
  4 26  1  0
  5 22  2  0
  6  9  1  0
  6 22  1  0
  7 15  1  0
  7 17  1  0
  8 11  2  0
  8 12  1  0
  8 13  1  0
  9 10  2  0
  9 11  1  0
 10 14  1  0
 12 15  1  0
 13 14  2  0
 16 18  1  0
 16 20  2  0
 16 21  1  0
 17 18  1  0
 17 25  1  0
 19 23  2  0
 19 24  1  0
 20 23  1  0
 21 24  2  0
 27 31  1  0
 28 32  1  0
 29 31  2  0
 30 32  2  0
 31 33  1  0
 32 34  1  0
 33 34  2  0
 35 43  1  0
 36 45  1  0
 37 52  1  0
 37 59  1  0
 38 55  2  0
 39 42  1  0
 39 55  1  0
 40 48  1  0
 40 50  1  0
 41 44  2  0
 41 45  1  0
 41 46  1  0
 42 43  2  0
 42 44  1  0
 43 47  1  0
 45 48  1  0
 46 47  2  0
 49 51  1  0
 49 53  2  0
 49 54  1  0
 50 51  1  0
 50 58  1  0
 52 56  2  0
 52 57  1  0
 53 56  1  0
 54 57  2  0
  1 61  1  0
  1 62  1  0
  2 63  1  0
  3 64  1  0
  6 65  1  0
  7 66  1  0
 11 67  1  0
 12 68  1  6
 13 69  1  0
 14 70  1  0
 15 71  1  0
 15 72  1  0
 17 73  1  1
 18 74  1  0
 18 75  1  0
 20 76  1  0
 21 77  1  0
 22 78  1  0
 23 79  1  0
 24 80  1  0
 25 81  1  0
 25 82  1  0
 25 83  1  0
 26 84  1  0
 26 85  1  0
 26 86  1  0
 27 87  1  0
 28 88  1  0
 33 89  1  0
 34 90  1  0
 35 91  1  0
 36 92  1  0
 39 93  1  0
 40 94  1  0
 44 95  1  0
 45 96  1  1
 46 97  1  0
 47 98  1  0
 48 99  1  0
 48100  1  0
 50101  1  1
 51102  1  0
 51103  1  0
 53104  1  0
 54105  1  0
 55106  1  0
 56107  1  0
 57108  1  0
 58109  1  0
 58110  1  0
 58111  1  0
 59112  1  0
 59113  1  0
 59114  1  0
 60115  1  0
 60116  1  0
M  END
> <Uni-Dock RESULT> 
ENERGY=   -6.229  LOWER_BOUND=    1.916  UPPER_BOUND=    3.323
INTER + INTRA:          -6.229
INTER:                  -6.229
INTRA:                   0.000
UNBOUND:                 0.000

$$$$

     RDKit          3D

116115  0  0  0  0  0  0  0  0999 V2000
   48.7734   10.1064   11.5894 O   0  0  0  0  0  0  0  0  0  0  0  0
   51.8025   16.9384   10.7699 O   0  0  0  0  0  0  0  0  0  0  0  0
   51.5819   10.6377    9.8036 O   0  0  0  0  0  0  0  0  0  0  0  0
   43.6194    4.8663   13.1012 O   0  0  0  0  0  0  0  0  0  0  0  0
   52.1411   14.2822   14.9880 O   0  0  0  0  0  0  0  0  0  0  0  0
   51.9459   15.7775   13.1871 N   0  0  0  0  0  0  0  0  0  0  0  0
   49.9721    9.3650   11.7280 N   0  0  0  0  0  0  0  0  0  0  0  0
   51.5040   12.7859   10.9556 C   0  0  0  0  0  0  0  0  0  0  0  0
   51.7615   14.9444   12.0679 C   0  0  0  0  0  0  0  0  0  0  0  0
   51.6820   15.5725   10.8215 C   0  0  0  0  0  0  0  0  0  0  0  0
   51.6879   13.5529   12.1226 C   0  0  0  0  0  0  0  0  0  0  0  0
   51.4001   11.2777   11.0736 C   0  0  1  0  0  0  0  0  0  0  0  0
   51.4267   13.4478    9.7221 C   0  0  0  0  0  0  0  0  0  0  0  0
   51.5241   14.8397    9.6485 C   0  0  0  0  0  0  0  0  0  0  0  0
   50.0348   10.8403   11.6559 C   0  0  0  0  0  0  0  0  0  0  0  0
   47.2480    6.7126   12.1266 C   0  0  0  0  0  0  0  0  0  0  0  0
   48.6560    8.8688   12.1783 C   0  0  1  0  0  0  0  0  0  0  0  0
   48.5855    7.3610   11.8263 C   0  0  0  0  0  0  0  0  0  0  0  0
   44.7620    5.5084   12.7098 C   0  0  0  0  0  0  0  0  0  0  0  0
   47.1077    5.8606   13.2290 C   0  0  0  0  0  0  0  0  0  0  0  0
   46.1253    6.9633   11.3264 C   0  0  0  0  0  0  0  0  0  0  0  0
   52.1129   15.4035   14.5006 C   0  0  0  0  0  0  0  0  0  0  0  0
   45.8764    5.2639   13.5120 C   0  0  0  0  0  0  0  0  0  0  0  0
   44.8871    6.3700   11.6203 C   0  0  0  0  0  0  0  0  0  0  0  0
   48.4630    9.0923   13.6861 C   0  0  0  0  0  0  0  0  0  0  0  0
   42.5939    4.7859   12.1230 C   0  0  0  0  0  0  0  0  0  0  0  0
   49.8997   12.3301   12.1665 O   0  0  0  0  0  0  0  0  0  0  0  0
   47.7764    7.8907   11.7903 O   0  0  0  0  0  0  0  0  0  0  0  0
   49.8783   12.0134    9.9489 O   0  0  0  0  0  0  0  0  0  0  0  0
   47.8623    8.1804   14.0079 O   0  0  0  0  0  0  0  0  0  0  0  0
   49.6096   11.6150   11.0685 C   0  0  0  0  0  0  0  0  0  0  0  0
   48.0904    8.5955   12.8869 C   0  0  0  0  0  0  0  0  0  0  0  0
   48.9801   10.3195   11.3570 C   0  0  0  0  0  0  0  0  0  0  0  0
   48.7261    9.8867   12.6002 C   0  0  0  0  0  0  0  0  0  0  0  0
   53.4826   14.1173    9.1453 O   0  0  0  0  0  0  0  0  0  0  0  0
   47.9810   13.1766   12.0341 O   0  0  0  0  0  0  0  0  0  0  0  0
   44.8186    3.7902   13.2293 O   0  0  0  0  0  0  0  0  0  0  0  0
   54.6585   16.1169   10.0056 O   0  0  0  0  0  0  0  0  0  0  0  0
   53.0598   15.7968   11.6665 N   0  0  0  0  0  0  0  0  0  0  0  0
   49.0239   10.4390   12.3702 N   0  0  0  0  0  0  0  0  0  0  0  0
   50.3650   13.2581   11.7924 C   0  0  0  0  0  0  0  0  0  0  0  0
   52.2963   14.6870   11.2272 C   0  0  0  0  0  0  0  0  0  0  0  0
   52.5020   13.9144   10.0733 C   0  0  0  0  0  0  0  0  0  0  0  0
   51.2198   14.3393   12.0738 C   0  0  0  0  0  0  0  0  0  0  0  0
   49.2107   12.9475   12.7218 C   0  0  2  0  0  0  0  0  0  0  0  0
   50.5991   12.5259   10.6229 C   0  0  0  0  0  0  0  0  0  0  0  0
   51.6562   12.8457    9.7777 C   0  0  0  0  0  0  0  0  0  0  0  0
   49.2027   11.5321   13.3553 C   0  0  0  0  0  0  0  0  0  0  0  0
   47.3756    6.9750   12.3250 C   0  0  0  0  0  0  0  0  0  0  0  0
   48.0127    9.4344   12.7715 C   0  0  2  0  0  0  0  0  0  0  0  0
   48.3153    8.1144   12.0291 C   0  0  0  0  0  0  0  0  0  0  0  0
   45.6117    4.8414   12.8510 C   0  0  0  0  0  0  0  0  0  0  0  0
   47.3909    6.3358   13.5693 C   0  0  0  0  0  0  0  0  0  0  0  0
   46.4612    6.5439   11.3556 C   0  0  0  0  0  0  0  0  0  0  0  0
   54.1353   16.4020   11.0700 C   0  0  0  0  0  0  0  0  0  0  0  0
   46.5101    5.2816   13.8273 C   0  0  0  0  0  0  0  0  0  0  0  0
   45.5811    5.4885   11.6177 C   0  0  0  0  0  0  0  0  0  0  0  0
   46.6227    9.9667   12.4211 C   0  0  0  0  0  0  0  0  0  0  0  0
   44.0251    3.1827   12.2147 C   0  0  0  0  0  0  0  0  0  0  0  0
   48.7570   10.0806   11.5945 O   0  0  0  0  0  0  0  0  0  0  0  0
   48.4892    9.4568   12.2507 H   0  0  0  0  0  0  0  0  0  0  0  0
   49.3217   10.7301   12.0890 H   0  0  0  0  0  0  0  0  0  0  0  0
   51.9625   17.1872    9.8474 H   0  0  0  0  0  0  0  0  0  0  0  0
   51.2060    9.7441    9.9287 H   0  0  0  0  0  0  0  0  0  0  0  0
   51.9765   16.7691   12.9554 H   0  0  0  0  0  0  0  0  0  0  0  0
   50.6924    9.0303   12.3767 H   0  0  0  0  0  0  0  0  0  0  0  0
   51.7570   13.0406   13.0771 H   0  0  0  0  0  0  0  0  0  0  0  0
   52.2137   10.9212   11.7185 H   0  0  0  0  0  0  0  0  0  0  0  0
   51.3117   12.8729    8.8051 H   0  0  0  0  0  0  0  0  0  0  0  0
   51.4697   15.3318    8.6836 H   0  0  0  0  0  0  0  0  0  0  0  0
   49.8968   11.2871   12.6454 H   0  0  0  0  0  0  0  0  0  0  0  0
   49.2337   11.1961   10.9958 H   0  0  0  0  0  0  0  0  0  0  0  0
   47.8647    9.3970   11.6275 H   0  0  0  0  0  0  0  0  0  0  0  0
   49.3756    6.8278   12.3689 H   0  0  0  0  0  0  0  0  0  0  0  0
   48.8091    7.2200   10.7598 H   0  0  0  0  0  0  0  0  0  0  0  0
   47.9609    5.6431   13.8713 H   0  0  0  0  0  0  0  0  0  0  0  0
   46.1853    7.6370   10.4712 H   0  0  0  0  0  0  0  0  0  0  0  0
   52.2379   16.3132   15.1257 H   0  0  0  0  0  0  0  0  0  0  0  0
   45.7887    4.6065   14.3736 H   0  0  0  0  0  0  0  0  0  0  0  0
   44.0396    6.6027   10.9889 H   0  0  0  0  0  0  0  0  0  0  0  0
   49.2174    8.5498   14.2676 H   0  0  0  0  0  0  0  0  0  0  0  0
   47.4763    8.7428   14.0054 H   0  0  0  0  0  0  0  0  0  0  0  0
   48.5261   10.1528   13.9559 H   0  0  0  0  0  0  0  0  0  0  0  0
   41.8192    4.1213   12.5114 H   0  0  0  0  0  0  0  0  0  0  0  0
   42.9580    4.3479   11.1886 H   0  0  0  0  0  0  0  0  0  0  0  0
   42.1402    5.7697   11.9556 H   0  0  0  0  0  0  0  0  0  0  0  0
   50.3246   13.1444   11.8239 H   0  0  0  0  0  0  0  0  0  0  0  0
   47.3792    7.0632   12.1348 H   0  0  0  0  0  0  0  0  0  0  0  0
   48.7260    9.7365   10.4782 H   0  0  0  0  0  0  0  0  0  0  0  0
   48.9799   10.4695   13.4786 H   0  0  0  0  0  0  0  0  0  0  0  0
   53.9804   14.9221    9.3778 H   0  0  0  0  0  0  0  0  0  0  0  0
   47.8853   12.4184   11.4217 H   0  0  0  0  0  0  0  0  0  0  0  0
   52.7550   16.2290   12.5341 H   0  0  0  0  0  0  0  0  0  0  0  0
   49.9319    9.9782   12.2494 H   0  0  0  0  0  0  0  0  0  0  0  0
   51.0317   14.9229   12.9716 H   0  0  0  0  0  0  0  0  0  0  0  0
   49.2285   13.6677   13.5477 H   0  0  0  0  0  0  0  0  0  0  0  0
   49.9596   11.6955   10.3442 H   0  0  0  0  0  0  0  0  0  0  0  0
   51.8209   12.2687    8.8684 H   0  0  0  0  0  0  0  0  0  0  0  0
   48.4002   11.5227   14.0926 H   0  0  0  0  0  0  0  0  0  0  0  0
   50.1337   11.3537   13.9043 H   0  0  0  0  0  0  0  0  0  0  0  0
   48.0811    9.2461   13.8464 H   0  0  0  0  0  0  0  0  0  0  0  0
   48.3363    8.2951   10.9493 H   0  0  0  0  0  0  0  0  0  0  0  0
   49.3278    7.7765   12.2863 H   0  0  0  0  0  0  0  0  0  0  0  0
   48.0921    6.6418   14.3420 H   0  0  0  0  0  0  0  0  0  0  0  0
   46.4209    7.0387   10.3890 H   0  0  0  0  0  0  0  0  0  0  0  0
   54.4959   17.2512   11.6776 H   0  0  0  0  0  0  0  0  0  0  0  0
   46.5149    4.7918   14.7996 H   0  0  0  0  0  0  0  0  0  0  0  0
   44.8864    5.2029   10.8356 H   0  0  0  0  0  0  0  0  0  0  0  0
   46.4154   10.9091   12.9398 H   0  0  0  0  0  0  0  0  0  0  0  0
   45.8412    9.2550   12.7130 H   0  0  0  0  0  0  0  0  0  0  0  0
   46.5308   10.1437   11.3409 H   0  0  0  0  0  0  0  0  0  0  0  0
   43.2356    3.8602   11.8656 H   0  0  0  0  0  0  0  0  0  0  0  0
   44.6347    2.8309   11.3696 H   0  0  0  0  0  0  0  0  0  0  0  0
   43.5370    2.3060   12.6613 H   0  0  0  0  0  0  0  0  0  0  0  0
   49.3161   10.7429   12.0295 H   0  0  0  0  0  0  0  0  0  0  0  0
   48.5112    9.4698   12.3050 H   0  0  0  0  0  0  0  0  0  0  0  0
  2 10  1  0
  3 12  1  0
  4 19  1  0
  4 26  1  0
  5 22  2  0
  6  9  1  0
  6 22  1  0
  7 15  1  0
  7 17  1  0
  8 11  2  0
  8 12  1  0
  8 13  1  0
  9 10  2  0
  9 11  1  0
 10 14  1  0
 12 15  1  0
 13 14  2  0
 16 18  1  0
 16 20  2  0
 16 21  1  0
 17 18  1  0
 17 25  1  0
 19 23  2  0
 19 24  1  0
 20 23  1  0
 21 24  2  0
 27 31  1  0
 28 32  1  0
 29 31  2  0
 30 32  2  0
 31 33  1  0
 32 34  1  0
 33 34  2  0
 35 43  1  0
 36 45  1  0
 37 52  1  0
 37 59  1  0
 38 55  2  0
 39 42  1  0
 39 55  1  0
 40 48  1  0
 40 50  1  0
 41 44  2  0
 41 45  1  0
 41 46  1  0
 42 43  2  0
 42 44  1  0
 43 47  1  0
 45 48  1  0
 46 47  2  0
 49 51  1  0
 49 53  2  0
 49 54  1  0
 50 51  1  0
 50 58  1  0
 52 56  2  0
 52 57  1  0
 53 56  1  0
 54 57  2  0
  1 61  1  0
  1 62  1  0
  2 63  1  0
  3 64  1  0
  6 65  1  0
  7 66  1  0
 11 67  1  0
 12 68  1  6
 13 69  1  0
 14 70  1  0
 15 71  1  0
 15 72  1  0
 17 73  1  1
 18 74  1  0
 18 75  1  0
 20 76  1  0
 21 77  1  0
 22 78  1  0
 23 79  1  0
 24 80  1  0
 25 81  1  0
 25 82  1  0
 25 83  1  0
 26 84  1  0
 26 85  1  0
 26 86  1  0
 27 87  1  0
 28 88  1  0
 33 89  1  0
 34 90  1  0
 35 91  1  0
 36 92  1  0
 39 93  1  0
 40 94  1  0
 44 95  1  0
 45 96  1  1
 46 97  1  0
 47 98  1  0
 48 99  1  0
 48100  1  0
 50101  1  1
 51102  1  0
 51103  1  0
 53104  1  0
 54105  1  0
 55106  1  0
 56107  1  0
 57108  1  0
 58109  1  0
 58110  1  0
 58111  1  0
 59112  1  0
 59113  1  0
 59114  1  0
 60115  1  0
 60116  1  0
M  END
> <Uni-Dock RESULT> 
ENERGY=   -6.223  LOWER_BOUND=    3.812  UPPER_BOUND=    5.044
INTER + INTRA:          -6.223
INTER:                  -6.223
INTRA:                   0.000
UNBOUND:                 0.000

$$$$

     RDKit          3D

116115  0  0  0  0  0  0  0  0999 V2000
   48.9103   11.2580   18.2881 O   0  0  0  0  0  0  0  0  0  0  0  0
   51.5988   16.7330   13.8926 O   0  0  0  0  0  0  0  0  0  0  0  0
   47.0603   13.9273   17.3871 O   0  0  0  0  0  0  0  0  0  0  0  0
   48.9214    5.3498   22.9142 O   0  0  0  0  0  0  0  0  0  0  0  0
   50.2740   12.2367   12.1633 O   0  0  0  0  0  0  0  0  0  0  0  0
   51.1319   14.3355   12.7768 N   0  0  0  0  0  0  0  0  0  0  0  0
   47.5999   11.1909   17.7550 N   0  0  0  0  0  0  0  0  0  0  0  0
   48.8671   14.2097   15.7734 C   0  0  0  0  0  0  0  0  0  0  0  0
   50.4479   14.6516   13.9655 C   0  0  0  0  0  0  0  0  0  0  0  0
   50.7134   15.9019   14.5316 C   0  0  0  0  0  0  0  0  0  0  0  0
   49.5132   13.8214   14.5836 C   0  0  0  0  0  0  0  0  0  0  0  0
   47.8815   13.2570   16.4217 C   0  0  1  0  0  0  0  0  0  0  0  0
   49.1578   15.4697   16.3152 C   0  0  0  0  0  0  0  0  0  0  0  0
   50.0730   16.3231   15.6936 C   0  0  0  0  0  0  0  0  0  0  0  0
   48.5985   12.0759   17.1185 C   0  0  0  0  0  0  0  0  0  0  0  0
   47.6135    8.4330   20.4025 C   0  0  0  0  0  0  0  0  0  0  0  0
   48.2168   10.0949   18.5293 C   0  0  1  0  0  0  0  0  0  0  0  0
   47.1196    9.5076   19.4532 C   0  0  0  0  0  0  0  0  0  0  0  0
   48.5369    6.4174   22.1503 C   0  0  0  0  0  0  0  0  0  0  0  0
   47.3085    7.0869   20.1657 C   0  0  0  0  0  0  0  0  0  0  0  0
   48.3963    8.7563   21.5188 C   0  0  0  0  0  0  0  0  0  0  0  0
   51.0018   13.2062   12.0018 C   0  0  0  0  0  0  0  0  0  0  0  0
   47.7646    6.0929   21.0353 C   0  0  0  0  0  0  0  0  0  0  0  0
   48.8615    7.7534   22.3844 C   0  0  0  0  0  0  0  0  0  0  0  0
   48.7928    9.0138   17.6019 C   0  0  0  0  0  0  0  0  0  0  0  0
   49.3683    5.6615   24.2250 C   0  0  0  0  0  0  0  0  0  0  0  0
   49.8512   12.4584   16.2337 O   0  0  0  0  0  0  0  0  0  0  0  0
   48.0360    9.5257   19.7639 O   0  0  0  0  0  0  0  0  0  0  0  0
   49.2179   13.9421   17.7880 O   0  0  0  0  0  0  0  0  0  0  0  0
   48.6066    8.0511   18.1800 O   0  0  0  0  0  0  0  0  0  0  0  0
   49.3267   12.7841   17.4253 C   0  0  0  0  0  0  0  0  0  0  0  0
   48.5368    9.2043   18.5623 C   0  0  0  0  0  0  0  0  0  0  0  0
   48.8793   11.6255   18.2099 C   0  0  0  0  0  0  0  0  0  0  0  0
   48.9772   10.3613   17.7745 C   0  0  0  0  0  0  0  0  0  0  0  0
   48.1429   17.0289   15.0715 O   0  0  0  0  0  0  0  0  0  0  0  0
   51.7226   12.3125   17.1784 O   0  0  0  0  0  0  0  0  0  0  0  0
   47.3695    5.1075   22.5331 O   0  0  0  0  0  0  0  0  0  0  0  0
   48.9441   17.9122   12.9038 O   0  0  0  0  0  0  0  0  0  0  0  0
   50.1069   15.8993   13.0167 N   0  0  0  0  0  0  0  0  0  0  0  0
   49.1278   10.9464   17.4889 N   0  0  0  0  0  0  0  0  0  0  0  0
   50.1302   13.4192   15.7683 C   0  0  0  0  0  0  0  0  0  0  0  0
   49.7442   15.3394   14.2667 C   0  0  0  0  0  0  0  0  0  0  0  0
   48.8342   15.8588   15.2011 C   0  0  0  0  0  0  0  0  0  0  0  0
   50.3811   14.1158   14.5722 C   0  0  0  0  0  0  0  0  0  0  0  0
   50.8618   12.1250   16.0552 C   0  0  2  0  0  0  0  0  0  0  0  0
   49.2271   13.9829   16.6768 C   0  0  0  0  0  0  0  0  0  0  0  0
   48.5835   15.1832   16.3950 C   0  0  0  0  0  0  0  0  0  0  0  0
   49.9760   10.8713   16.2755 C   0  0  0  0  0  0  0  0  0  0  0  0
   47.7529    8.4748   20.0810 C   0  0  0  0  0  0  0  0  0  0  0  0
   49.1667    9.7215   18.3201 C   0  0  2  0  0  0  0  0  0  0  0  0
   47.8785    9.6680   19.1703 C   0  0  0  0  0  0  0  0  0  0  0  0
   47.5151    6.2601   21.8068 C   0  0  0  0  0  0  0  0  0  0  0  0
   47.5222    7.1963   19.5622 C   0  0  0  0  0  0  0  0  0  0  0  0
   47.8760    8.6288   21.4676 C   0  0  0  0  0  0  0  0  0  0  0  0
   49.7022   17.0758   12.4416 C   0  0  0  0  0  0  0  0  0  0  0  0
   47.4106    6.0999   20.4221 C   0  0  0  0  0  0  0  0  0  0  0  0
   47.7638    7.5290   22.3250 C   0  0  0  0  0  0  0  0  0  0  0  0
   50.4162    9.7626   19.2006 C   0  0  0  0  0  0  0  0  0  0  0  0
   47.2766    5.2435   23.9477 C   0  0  0  0  0  0  0  0  0  0  0  0
   48.9039   11.2340   18.3065 O   0  0  0  0  0  0  0  0  0  0  0  0
   48.7631   10.3008   18.3345 H   0  0  0  0  0  0  0  0  0  0  0  0
   49.0820   11.4270   17.3493 H   0  0  0  0  0  0  0  0  0  0  0  0
   51.4936   17.6210   14.2654 H   0  0  0  0  0  0  0  0  0  0  0  0
   46.6984   13.2052   17.9376 H   0  0  0  0  0  0  0  0  0  0  0  0
   51.7760   15.0637   12.4724 H   0  0  0  0  0  0  0  0  0  0  0  0
   46.9992   10.7866   17.0289 H   0  0  0  0  0  0  0  0  0  0  0  0
   49.2820   12.8498   14.1585 H   0  0  0  0  0  0  0  0  0  0  0  0
   47.2016   12.8781   15.6476 H   0  0  0  0  0  0  0  0  0  0  0  0
   48.6501   15.8010   17.2192 H   0  0  0  0  0  0  0  0  0  0  0  0
   50.2780   17.2969   16.1247 H   0  0  0  0  0  0  0  0  0  0  0  0
   49.1987   11.5267   16.3865 H   0  0  0  0  0  0  0  0  0  0  0  0
   49.2665   12.4704   17.8945 H   0  0  0  0  0  0  0  0  0  0  0  0
   49.0222   10.5054   19.1548 H   0  0  0  0  0  0  0  0  0  0  0  0
   46.3098    9.1001   18.8359 H   0  0  0  0  0  0  0  0  0  0  0  0
   46.6656   10.3137   20.0460 H   0  0  0  0  0  0  0  0  0  0  0  0
   46.7008    6.8008   19.3074 H   0  0  0  0  0  0  0  0  0  0  0  0
   48.6749    9.7895   21.7281 H   0  0  0  0  0  0  0  0  0  0  0  0
   51.6866   13.2811   11.1304 H   0  0  0  0  0  0  0  0  0  0  0  0
   47.5174    5.0536   20.8325 H   0  0  0  0  0  0  0  0  0  0  0  0
   49.4782    8.0418   23.2255 H   0  0  0  0  0  0  0  0  0  0  0  0
   48.0079    8.5590   16.9868 H   0  0  0  0  0  0  0  0  0  0  0  0
   49.2679    8.2183   18.1842 H   0  0  0  0  0  0  0  0  0  0  0  0
   49.5596    9.4153   16.9293 H   0  0  0  0  0  0  0  0  0  0  0  0
   49.4886    4.7198   24.7648 H   0  0  0  0  0  0  0  0  0  0  0  0
   48.6326    6.2577   24.7733 H   0  0  0  0  0  0  0  0  0  0  0  0
   50.3451    6.1582   24.1934 H   0  0  0  0  0  0  0  0  0  0  0  0
   50.0822   13.3184   15.8238 H   0  0  0  0  0  0  0  0  0  0  0  0
   47.7773    8.6673   20.1607 H   0  0  0  0  0  0  0  0  0  0  0  0
   48.4667   11.8723   19.1823 H   0  0  0  0  0  0  0  0  0  0  0  0
   49.3899   10.1147   16.8027 H   0  0  0  0  0  0  0  0  0  0  0  0
   48.4272   17.4789   14.2553 H   0  0  0  0  0  0  0  0  0  0  0  0
   51.1287   12.3217   17.9570 H   0  0  0  0  0  0  0  0  0  0  0  0
   50.7859   15.3719   12.4751 H   0  0  0  0  0  0  0  0  0  0  0  0
   48.1644   11.1203   17.1841 H   0  0  0  0  0  0  0  0  0  0  0  0
   51.0954   13.6917   13.8708 H   0  0  0  0  0  0  0  0  0  0  0  0
   51.5215   11.9057   15.2079 H   0  0  0  0  0  0  0  0  0  0  0  0
   49.0110   13.5013   17.6242 H   0  0  0  0  0  0  0  0  0  0  0  0
   47.8875   15.6108   17.1159 H   0  0  0  0  0  0  0  0  0  0  0  0
   50.6495   10.0162   16.3274 H   0  0  0  0  0  0  0  0  0  0  0  0
   49.3261   10.7054   15.4093 H   0  0  0  0  0  0  0  0  0  0  0  0
   49.1903    8.8366   17.6783 H   0  0  0  0  0  0  0  0  0  0  0  0
   47.7883   10.5854   19.7612 H   0  0  0  0  0  0  0  0  0  0  0  0
   47.0043    9.6640   18.5059 H   0  0  0  0  0  0  0  0  0  0  0  0
   47.4157    7.0426   18.4911 H   0  0  0  0  0  0  0  0  0  0  0  0
   48.0731    9.6106   21.8896 H   0  0  0  0  0  0  0  0  0  0  0  0
   50.1819   17.2178   11.4567 H   0  0  0  0  0  0  0  0  0  0  0  0
   47.2421    5.1035   20.0171 H   0  0  0  0  0  0  0  0  0  0  0  0
   47.8787    7.7032   23.3891 H   0  0  0  0  0  0  0  0  0  0  0  0
   51.3278    9.8126   18.5953 H   0  0  0  0  0  0  0  0  0  0  0  0
   50.4890    8.8650   19.8264 H   0  0  0  0  0  0  0  0  0  0  0  0
   50.3993   10.6366   19.8657 H   0  0  0  0  0  0  0  0  0  0  0  0
   48.2259    5.5850   24.3795 H   0  0  0  0  0  0  0  0  0  0  0  0
   46.4543    5.9106   24.2448 H   0  0  0  0  0  0  0  0  0  0  0  0
   47.0634    4.2478   24.3594 H   0  0  0  0  0  0  0  0  0  0  0  0
   49.0837   11.4766   17.3849 H   0  0  0  0  0  0  0  0  0  0  0  0
   48.7678   10.2753   18.2804 H   0  0  0  0  0  0  0  0  0  0  0  0
  2 10  1  0
  3 12  1  0
  4 19  1  0
  4 26  1  0
  5 22  2  0
  6  9  1  0
  6 22  1  0
  7 15  1  0
  7 17  1  0
  8 11  2  0
  8 12  1  0
  8 13  1  0
  9 10  2  0
  9 11  1  0
 10 14  1  0
 12 15  1  0
 13 14  2  0
 16 18  1  0
 16 20  2  0
 16 21  1  0
 17 18  1  0
 17 25  1  0
 19 23  2  0
 19 24  1  0
 20 23  1  0
 21 24  2  0
 27 31  1  0
 28 32  1  0
 29 31  2  0
 30 32  2  0
 31 33  1  0
 32 34  1  0
 33 34  2  0
 35 43  1  0
 36 45  1  0
 37 52  1  0
 37 59  1  0
 38 55  2  0
 39 42  1  0
 39 55  1  0
 40 48  1  0
 40 50  1  0
 41 44  2  0
 41 45  1  0
 41 46  1  0
 42 43  2  0
 42 44  1  0
 43 47  1  0
 45 48  1  0
 46 47  2  0
 49 51  1  0
 49 53  2  0
 49 54  1  0
 50 51  1  0
 50 58  1  0
 52 56  2  0
 52 57  1  0
 53 56  1  0
 54 57  2  0
  1 61  1  0
  1 62  1  0
  2 63  1  0
  3 64  1  0
  6 65  1  0
  7 66  1  0
 11 67  1  0
 12 68  1  6
 13 69  1  0
 14 70  1  0
 15 71  1  0
 15 72  1  0
 17 73  1  1
 18 74  1  0
 18 75  1  0
 20 76  1  0
 21 77  1  0
 22 78  1  0
 23 79  1  0
 24 80  1  0
 25 81  1  0
 25 82  1  0
 25 83  1  0
 26 84  1  0
 26 85  1  0
 26 86  1  0
 27 87  1  0
 28 88  1  0
 33 89  1  0
 34 90  1  0
 35 91  1  0
 36 92  1  0
 39 93  1  0
 40 94  1  0
 44 95  1  0
 45 96  1  1
 46 97  1  0
 47 98  1  0
 48 99  1  0
 48100  1  0
 50101  1  1
 51102  1  0
 51103  1  0
 53104  1  0
 54105  1  0
 55106  1  0
 56107  1  0
 57108  1  0
 58109  1  0
 58110  1  0
 58111  1  0
 59112  1  0
 59113  1  0
 59114  1  0
 60115  1  0
 60116  1  0
M  END
> <Uni-Dock RESULT> 
ENERGY=   -5.336  LOWER_BOUND=    6.024  UPPER_BOUND=    8.025
INTER + INTRA:          -5.336
INTER:                  -5.336
INTRA:                   0.000
UNBOUND:                 0.000

$$$$

     RDKit          3D

116115  0  0  0  0  0  0  0  0999 V2000
   48.6182    9.9150   13.9061 O   0  0  0  0  0  0  0  0  0  0  0  0
   47.9037    5.1807   19.7027 O   0  0  0  0  0  0  0  0  0  0  0  0
   48.8295   10.9349   17.1114 O   0  0  0  0  0  0  0  0  0  0  0  0
   48.1182   12.5151    6.8849 O   0  0  0  0  0  0  0  0  0  0  0  0
   52.0050    5.4279   16.8600 O   0  0  0  0  0  0  0  0  0  0  0  0
   50.1215    5.0063   18.1986 N   0  0  0  0  0  0  0  0  0  0  0  0
   49.6539   10.7267   14.4297 N   0  0  0  0  0  0  0  0  0  0  0  0
   49.0352    8.5370   17.5068 C   0  0  0  0  0  0  0  0  0  0  0  0
   49.4106    6.2208   18.1828 C   0  0  0  0  0  0  0  0  0  0  0  0
   48.2553    6.2848   18.9675 C   0  0  0  0  0  0  0  0  0  0  0  0
   49.8001    7.3548   17.4707 C   0  0  0  0  0  0  0  0  0  0  0  0
   49.4866    9.7322   16.6900 C   0  0  1  0  0  0  0  0  0  0  0  0
   47.8814    8.5665   18.3027 C   0  0  0  0  0  0  0  0  0  0  0  0
   47.4921    7.4465   19.0419 C   0  0  0  0  0  0  0  0  0  0  0  0
   49.2212    9.5281   15.1792 C   0  0  0  0  0  0  0  0  0  0  0  0
   49.0577   12.1984   10.9521 C   0  0  0  0  0  0  0  0  0  0  0  0
   49.3364   10.6473   12.9895 C   0  0  1  0  0  0  0  0  0  0  0  0
   49.4572   12.0799   12.4102 C   0  0  0  0  0  0  0  0  0  0  0  0
   48.3339   12.4055    8.2312 C   0  0  0  0  0  0  0  0  0  0  0  0
   50.0363   12.3480    9.9616 C   0  0  0  0  0  0  0  0  0  0  0  0
   47.7130   12.1421   10.5623 C   0  0  0  0  0  0  0  0  0  0  0  0
   51.3077    4.7132   17.5662 C   0  0  0  0  0  0  0  0  0  0  0  0
   49.6734   12.4537    8.6165 C   0  0  0  0  0  0  0  0  0  0  0  0
   47.3531   12.2381    9.2085 C   0  0  0  0  0  0  0  0  0  0  0  0
   50.2817    9.6779   12.2636 C   0  0  0  0  0  0  0  0  0  0  0  0
   46.7927   12.8466    6.5000 C   0  0  0  0  0  0  0  0  0  0  0  0
   49.0998    7.9896   15.5210 O   0  0  0  0  0  0  0  0  0  0  0  0
   48.7928   11.4790   12.0441 O   0  0  0  0  0  0  0  0  0  0  0  0
   47.5221    9.3410   16.3592 O   0  0  0  0  0  0  0  0  0  0  0  0
   50.4171   10.1640   11.2433 O   0  0  0  0  0  0  0  0  0  0  0  0
   48.3078    9.0717   15.4678 C   0  0  0  0  0  0  0  0  0  0  0  0
   49.6011   10.4113   12.1116 C   0  0  0  0  0  0  0  0  0  0  0  0
   48.5093    9.8925   14.2663 C   0  0  0  0  0  0  0  0  0  0  0  0
   49.4059    9.5947   13.3151 C   0  0  0  0  0  0  0  0  0  0  0  0
   48.5018    8.7175   20.4475 O   0  0  0  0  0  0  0  0  0  0  0  0
   47.6049    6.9340   14.4883 O   0  0  0  0  0  0  0  0  0  0  0  0
   49.2409   13.6150    7.2619 O   0  0  0  0  0  0  0  0  0  0  0  0
   49.2878    6.8531   21.8714 O   0  0  0  0  0  0  0  0  0  0  0  0
   49.6533    5.9713   19.7487 N   0  0  0  0  0  0  0  0  0  0  0  0
   49.2578    9.3035   13.8980 N   0  0  0  0  0  0  0  0  0  0  0  0
   48.8393    7.4868   16.4680 C   0  0  0  0  0  0  0  0  0  0  0  0
   49.1786    6.9638   18.8559 C   0  0  0  0  0  0  0  0  0  0  0  0
   48.6600    8.2267   19.1834 C   0  0  0  0  0  0  0  0  0  0  0  0
   49.2592    6.6152   17.4891 C   0  0  0  0  0  0  0  0  0  0  0  0
   48.9242    7.0497   15.0208 C   0  0  2  0  0  0  0  0  0  0  0  0
   48.3147    8.7291   16.8426 C   0  0  0  0  0  0  0  0  0  0  0  0
   48.2313    9.0966   18.1813 C   0  0  0  0  0  0  0  0  0  0  0  0
   49.7918    7.9337   14.0877 C   0  0  0  0  0  0  0  0  0  0  0  0
   49.2086   11.9061   11.0799 C   0  0  0  0  0  0  0  0  0  0  0  0
   49.2312    9.7424   12.4841 C   0  0  2  0  0  0  0  0  0  0  0  0
   49.2327   11.2864   12.4526 C   0  0  0  0  0  0  0  0  0  0  0  0
   49.1400   13.0794    8.5189 C   0  0  0  0  0  0  0  0  0  0  0  0
   50.3267   11.8391   10.2418 C   0  0  0  0  0  0  0  0  0  0  0  0
   48.0558   12.5532   10.6174 C   0  0  0  0  0  0  0  0  0  0  0  0
   49.6859    5.9794   21.1190 C   0  0  0  0  0  0  0  0  0  0  0  0
   50.2858   12.4178    8.9700 C   0  0  0  0  0  0  0  0  0  0  0  0
   48.0187   13.1311    9.3439 C   0  0  0  0  0  0  0  0  0  0  0  0
   47.9813    9.1709   11.8138 C   0  0  0  0  0  0  0  0  0  0  0  0
   48.1771   14.4590    6.8327 C   0  0  0  0  0  0  0  0  0  0  0  0
   48.6195    9.9307   13.8795 O   0  0  0  0  0  0  0  0  0  0  0  0
   49.1237   10.0795   13.0952 H   0  0  0  0  0  0  0  0  0  0  0  0
   49.1454    9.2582   14.3858 H   0  0  0  0  0  0  0  0  0  0  0  0
   47.2417    5.4569   20.3539 H   0  0  0  0  0  0  0  0  0  0  0  0
   48.9487   11.5496   16.3608 H   0  0  0  0  0  0  0  0  0  0  0  0
   49.6869    4.2882   18.7759 H   0  0  0  0  0  0  0  0  0  0  0  0
   50.6668   10.8433   14.5400 H   0  0  0  0  0  0  0  0  0  0  0  0
   50.6986    7.3342   16.8619 H   0  0  0  0  0  0  0  0  0  0  0  0
   50.5591    9.8889   16.8639 H   0  0  0  0  0  0  0  0  0  0  0  0
   47.2903    9.4782   18.3664 H   0  0  0  0  0  0  0  0  0  0  0  0
   46.6004    7.4925   19.6575 H   0  0  0  0  0  0  0  0  0  0  0  0
   49.7500    8.6357   14.8303 H   0  0  0  0  0  0  0  0  0  0  0  0
   48.1451    9.3822   15.0214 H   0  0  0  0  0  0  0  0  0  0  0  0
   48.2990   10.3041   12.8683 H   0  0  0  0  0  0  0  0  0  0  0  0
   50.4890   12.4312   12.5320 H   0  0  0  0  0  0  0  0  0  0  0  0
   48.8362   12.7696   12.9983 H   0  0  0  0  0  0  0  0  0  0  0  0
   51.0914   12.3969   10.2303 H   0  0  0  0  0  0  0  0  0  0  0  0
   46.9208   12.0049   11.2989 H   0  0  0  0  0  0  0  0  0  0  0  0
   51.5925    3.6639   17.7934 H   0  0  0  0  0  0  0  0  0  0  0  0
   50.4491   12.5682    7.8631 H   0  0  0  0  0  0  0  0  0  0  0  0
   46.3053   12.1724    8.9463 H   0  0  0  0  0  0  0  0  0  0  0  0
   51.3237   10.0104   12.3363 H   0  0  0  0  0  0  0  0  0  0  0  0
   50.0236    9.6084   11.2024 H   0  0  0  0  0  0  0  0  0  0  0  0
   50.2215    8.6622   12.6716 H   0  0  0  0  0  0  0  0  0  0  0  0
   46.8030   13.0543    5.4278 H   0  0  0  0  0  0  0  0  0  0  0  0
   46.4390   13.7522    7.0021 H   0  0  0  0  0  0  0  0  0  0  0  0
   46.1163   12.0013    6.6723 H   0  0  0  0  0  0  0  0  0  0  0  0
   48.8705    7.5590   16.3712 H   0  0  0  0  0  0  0  0  0  0  0  0
   49.0439   11.9257   11.2083 H   0  0  0  0  0  0  0  0  0  0  0  0
   47.8651   10.7629   14.2021 H   0  0  0  0  0  0  0  0  0  0  0  0
   50.0496    8.7245   13.3791 H   0  0  0  0  0  0  0  0  0  0  0  0
   48.7481    8.0281   21.0907 H   0  0  0  0  0  0  0  0  0  0  0  0
   47.3045    7.8552   14.3465 H   0  0  0  0  0  0  0  0  0  0  0  0
   49.9947    5.1159   19.3196 H   0  0  0  0  0  0  0  0  0  0  0  0
   49.8454    9.9439   14.4421 H   0  0  0  0  0  0  0  0  0  0  0  0
   49.6508    5.6416   17.2048 H   0  0  0  0  0  0  0  0  0  0  0  0
   49.3477    6.0394   14.9892 H   0  0  0  0  0  0  0  0  0  0  0  0
   47.9557    9.4330   16.0996 H   0  0  0  0  0  0  0  0  0  0  0  0
   47.8152   10.0654   18.4557 H   0  0  0  0  0  0  0  0  0  0  0  0
   49.8606    7.4105   13.1342 H   0  0  0  0  0  0  0  0  0  0  0  0
   50.8133    8.0116   14.4760 H   0  0  0  0  0  0  0  0  0  0  0  0
   50.1275    9.3886   11.9674 H   0  0  0  0  0  0  0  0  0  0  0  0
   48.3888   11.6680   13.0367 H   0  0  0  0  0  0  0  0  0  0  0  0
   50.1306   11.6596   12.9626 H   0  0  0  0  0  0  0  0  0  0  0  0
   51.2395   11.3493   10.5720 H   0  0  0  0  0  0  0  0  0  0  0  0
   47.1706   12.6007   11.2459 H   0  0  0  0  0  0  0  0  0  0  0  0
   50.1168    5.0395   21.5079 H   0  0  0  0  0  0  0  0  0  0  0  0
   51.1524   12.3558    8.3140 H   0  0  0  0  0  0  0  0  0  0  0  0
   47.0970   13.6097    9.0320 H   0  0  0  0  0  0  0  0  0  0  0  0
   47.9770    8.0760   11.8482 H   0  0  0  0  0  0  0  0  0  0  0  0
   47.9288    9.4644   10.7586 H   0  0  0  0  0  0  0  0  0  0  0  0
   47.0700    9.5319   12.3097 H   0  0  0  0  0  0  0  0  0  0  0  0
   47.2491   13.8909    6.6898 H   0  0  0  0  0  0  0  0  0  0  0  0
   48.0136   15.2997    7.5227 H   0  0  0  0  0  0  0  0  0  0  0  0
   48.4636   14.8780    5.8587 H   0  0  0  0  0  0  0  0  0  0  0  0
   49.0941    9.2754   14.4140 H   0  0  0  0  0  0  0  0  0  0  0  0
   49.1738   10.0466   13.0936 H   0  0  0  0  0  0  0  0  0  0  0  0
  2 10  1  0
  3 12  1  0
  4 19  1  0
  4 26  1  0
  5 22  2  0
  6  9  1  0
  6 22  1  0
  7 15  1  0
  7 17  1  0
  8 11  2  0
  8 12  1  0
  8 13  1  0
  9 10  2  0
  9 11  1  0
 10 14  1  0
 12 15  1  0
 13 14  2  0
 16 18  1  0
 16 20  2  0
 16 21  1  0
 17 18  1  0
 17 25  1  0
 19 23  2  0
 19 24  1  0
 20 23  1  0
 21 24  2  0
 27 31  1  0
 28 32  1  0
 29 31  2  0
 30 32  2  0
 31 33  1  0
 32 34  1  0
 33 34  2  0
 35 43  1  0
 36 45  1  0
 37 52  1  0
 37 59  1  0
 38 55  2  0
 39 42  1  0
 39 55  1  0
 40 48  1  0
 40 50  1  0
 41 44  2  0
 41 45  1  0
 41 46  1  0
 42 43  2  0
 42 44  1  0
 43 47  1  0
 45 48  1  0
 46 47  2  0
 49 51  1  0
 49 53  2  0
 49 54  1  0
 50 51  1  0
 50 58  1  0
 52 56  2  0
 52 57  1  0
 53 56  1  0
 54 57  2  0
  1 61  1  0
  1 62  1  0
  2 63  1  0
  3 64  1  0
  6 65  1  0
  7 66  1  0
 11 67  1  0
 12 68  1  6
 13 69  1  0
 14 70  1  0
 15 71  1  0
 15 72  1  0
 17 73  1  1
 18 74  1  0
 18 75  1  0
 20 76  1  0
 21 77  1  0
 22 78  1  0
 23 79  1  0
 24 80  1  0
 25 81  1  0
 25 82  1  0
 25 83  1  0
 26 84  1  0
 26 85  1  0
 26 86  1  0
 27 87  1  0
 28 88  1  0
 33 89  1  0
 34 90  1  0
 35 91  1  0
 36 92  1  0
 39 93  1  0
 40 94  1  0
 44 95  1  0
 45 96  1  1
 46 97  1  0
 47 98  1  0
 48 99  1  0
 48100  1  0
 50101  1  1
 51102  1  0
 51103  1  0
 53104  1  0
 54105  1  0
 55106  1  0
 56107  1  0
 57108  1  0
 58109  1  0
 58110  1  0
 58111  1  0
 59112  1  0
 59113  1  0
 59114  1  0
 60115  1  0
 60116  1  0
M  END
> <Uni-Dock RESULT> 
ENERGY=   -5.299  LOWER_BOUND=    4.245  UPPER_BOUND=    6.755
INTER + INTRA:          -5.299
INTER:                  -5.299
INTRA:                   0.000
UNBOUND:                 0.000

$$$$

     RDKit          3D

116115  0  0  0  0  0  0  0  0999 V2000
   50.7473    8.7811   13.6510 O   0  0  0  0  0  0  0  0  0  0  0  0
   46.9062    6.1837   19.5691 O   0  0  0  0  0  0  0  0  0  0  0  0
   52.2180    8.1062   16.6075 O   0  0  0  0  0  0  0  0  0  0  0  0
   52.0228   12.0255    7.0061 O   0  0  0  0  0  0  0  0  0  0  0  0
   48.1003    3.3569   15.6263 O   0  0  0  0  0  0  0  0  0  0  0  0
   47.2691    4.5359   17.4800 N   0  0  0  0  0  0  0  0  0  0  0  0
   51.9217    8.0061   13.8116 N   0  0  0  0  0  0  0  0  0  0  0  0
   50.1050    6.9575   17.0126 C   0  0  0  0  0  0  0  0  0  0  0  0
   48.1638    5.6117   17.6317 C   0  0  0  0  0  0  0  0  0  0  0  0
   47.9498    6.4601   18.7220 C   0  0  0  0  0  0  0  0  0  0  0  0
   49.2511    5.8588   16.7942 C   0  0  0  0  0  0  0  0  0  0  0  0
   51.2552    7.1990   16.0545 C   0  0  1  0  0  0  0  0  0  0  0  0
   49.8608    7.7893   18.1144 C   0  0  0  0  0  0  0  0  0  0  0  0
   48.7904    7.5399   18.9772 C   0  0  0  0  0  0  0  0  0  0  0  0
   50.7650    7.7646   14.7001 C   0  0  0  0  0  0  0  0  0  0  0  0
   52.6093    9.9909   10.6174 C   0  0  0  0  0  0  0  0  0  0  0  0
   51.5405    8.6443   12.5355 C   0  0  1  0  0  0  0  0  0  0  0  0
   52.8357    9.2036   11.8936 C   0  0  0  0  0  0  0  0  0  0  0  0
   52.1809   11.4356    8.2301 C   0  0  0  0  0  0  0  0  0  0  0  0
   52.9350    9.4319    9.3755 C   0  0  0  0  0  0  0  0  0  0  0  0
   52.0556   11.2777   10.6485 C   0  0  0  0  0  0  0  0  0  0  0  0
   47.3010    3.5372   16.5342 C   0  0  0  0  0  0  0  0  0  0  0  0
   52.7246   10.1518    8.1967 C   0  0  0  0  0  0  0  0  0  0  0  0
   51.8360   11.9938    9.4608 C   0  0  0  0  0  0  0  0  0  0  0  0
   50.8484    7.6436   11.5975 C   0  0  0  0  0  0  0  0  0  0  0  0
   51.8380   13.4329    7.0216 C   0  0  0  0  0  0  0  0  0  0  0  0
   49.3375    7.2309   15.1195 O   0  0  0  0  0  0  0  0  0  0  0  0
   52.0033    9.6801   11.7647 O   0  0  0  0  0  0  0  0  0  0  0  0
   50.1916    8.9047   16.3389 O   0  0  0  0  0  0  0  0  0  0  0  0
   51.2038    7.9677   10.5658 O   0  0  0  0  0  0  0  0  0  0  0  0
   50.0764    8.3418   15.2645 C   0  0  0  0  0  0  0  0  0  0  0  0
   51.2852    8.5559   11.6280 C   0  0  0  0  0  0  0  0  0  0  0  0
   50.7406    8.7748   14.0279 C   0  0  0  0  0  0  0  0  0  0  0  0
   50.6273    8.1183   12.8645 C   0  0  0  0  0  0  0  0  0  0  0  0
   50.5082    6.7185   19.9697 O   0  0  0  0  0  0  0  0  0  0  0  0
   47.7117    8.4647   14.6192 O   0  0  0  0  0  0  0  0  0  0  0  0
   53.4745   11.3149    6.9903 O   0  0  0  0  0  0  0  0  0  0  0  0
   49.2296    4.9685   21.1630 O   0  0  0  0  0  0  0  0  0  0  0  0
   48.2311    4.8891   19.0623 N   0  0  0  0  0  0  0  0  0  0  0  0
   50.3882    7.9916   13.4755 N   0  0  0  0  0  0  0  0  0  0  0  0
   48.9147    7.0323   16.1191 C   0  0  0  0  0  0  0  0  0  0  0  0
   48.8741    5.9069   18.3152 C   0  0  0  0  0  0  0  0  0  0  0  0
   49.9259    6.7367   18.7351 C   0  0  0  0  0  0  0  0  0  0  0  0
   48.3841    6.0728   17.0004 C   0  0  0  0  0  0  0  0  0  0  0  0
   48.3324    7.1840   14.7297 C   0  0  2  0  0  0  0  0  0  0  0  0
   49.9518    7.8476   16.5865 C   0  0  0  0  0  0  0  0  0  0  0  0
   50.4545    7.6984   17.8747 C   0  0  0  0  0  0  0  0  0  0  0  0
   49.3144    6.9722   13.5482 C   0  0  0  0  0  0  0  0  0  0  0  0
   52.4047    9.7172   10.7053 C   0  0  0  0  0  0  0  0  0  0  0  0
   50.5906    8.5483   12.1184 C   0  0  2  0  0  0  0  0  0  0  0  0
   52.0270    9.1088   12.0305 C   0  0  0  0  0  0  0  0  0  0  0  0
   53.1175   10.8794    8.2393 C   0  0  0  0  0  0  0  0  0  0  0  0
   52.5960    8.9151    9.5752 C   0  0  0  0  0  0  0  0  0  0  0  0
   52.5606   11.1037   10.5836 C   0  0  0  0  0  0  0  0  0  0  0  0
   48.4414    4.4989   20.3593 C   0  0  0  0  0  0  0  0  0  0  0  0
   52.9440    9.4969    8.3528 C   0  0  0  0  0  0  0  0  0  0  0  0
   52.9089   11.6823    9.3583 C   0  0  0  0  0  0  0  0  0  0  0  0
   49.5485    9.6401   11.8728 C   0  0  0  0  0  0  0  0  0  0  0  0
   53.8483   12.6836    6.8665 C   0  0  0  0  0  0  0  0  0  0  0  0
   50.7587    8.7926   13.6247 O   0  0  0  0  0  0  0  0  0  0  0  0
   50.9550    8.6030   12.7208 H   0  0  0  0  0  0  0  0  0  0  0  0
   50.3769    7.9464   13.9759 H   0  0  0  0  0  0  0  0  0  0  0  0
   47.0352    6.7022   20.3772 H   0  0  0  0  0  0  0  0  0  0  0  0
   52.7257    8.4193   15.8331 H   0  0  0  0  0  0  0  0  0  0  0  0
   46.5359    4.5141   18.1869 H   0  0  0  0  0  0  0  0  0  0  0  0
   52.3823    7.1121   13.6107 H   0  0  0  0  0  0  0  0  0  0  0  0
   49.4449    5.2090   15.9465 H   0  0  0  0  0  0  0  0  0  0  0  0
   51.7819    6.2491   15.8949 H   0  0  0  0  0  0  0  0  0  0  0  0
   50.5239    8.6282   18.3174 H   0  0  0  0  0  0  0  0  0  0  0  0
   48.6234    8.1908   19.8283 H   0  0  0  0  0  0  0  0  0  0  0  0
   50.0593    7.0641   14.2428 H   0  0  0  0  0  0  0  0  0  0  0  0
   50.2495    8.7172   14.8757 H   0  0  0  0  0  0  0  0  0  0  0  0
   50.8589    9.4818   12.7418 H   0  0  0  0  0  0  0  0  0  0  0  0
   53.5231    8.3738   11.6892 H   0  0  0  0  0  0  0  0  0  0  0  0
   53.3553    9.8504   12.6140 H   0  0  0  0  0  0  0  0  0  0  0  0
   53.3686    8.4338    9.3155 H   0  0  0  0  0  0  0  0  0  0  0  0
   51.7678   11.7418   11.5922 H   0  0  0  0  0  0  0  0  0  0  0  0
   46.4486    2.8458   16.7051 H   0  0  0  0  0  0  0  0  0  0  0  0
   52.9834    9.6988    7.2427 H   0  0  0  0  0  0  0  0  0  0  0  0
   51.3900   12.9776    9.5254 H   0  0  0  0  0  0  0  0  0  0  0  0
   51.5147    6.8109   11.3439 H   0  0  0  0  0  0  0  0  0  0  0  0
   50.5491    8.1315   10.6648 H   0  0  0  0  0  0  0  0  0  0  0  0
   49.9382    7.2250   12.0423 H   0  0  0  0  0  0  0  0  0  0  0  0
   51.8849   13.7829    5.9881 H   0  0  0  0  0  0  0  0  0  0  0  0
   52.6357   13.9407    7.5723 H   0  0  0  0  0  0  0  0  0  0  0  0
   50.8490   13.6894    7.4190 H   0  0  0  0  0  0  0  0  0  0  0  0
   48.9788    7.0559   16.0148 H   0  0  0  0  0  0  0  0  0  0  0  0
   52.3862    9.8374   10.8761 H   0  0  0  0  0  0  0  0  0  0  0  0
   51.3296    9.6804   14.1263 H   0  0  0  0  0  0  0  0  0  0  0  0
   50.0383    7.2133   12.7661 H   0  0  0  0  0  0  0  0  0  0  0  0
   50.0371    6.0801   20.5355 H   0  0  0  0  0  0  0  0  0  0  0  0
   48.4515    9.1014   14.5392 H   0  0  0  0  0  0  0  0  0  0  0  0
   47.4863    4.3909   18.5830 H   0  0  0  0  0  0  0  0  0  0  0  0
   51.2569    7.5508   13.7955 H   0  0  0  0  0  0  0  0  0  0  0  0
   47.5662    5.4488   16.6488 H   0  0  0  0  0  0  0  0  0  0  0  0
   47.5262    6.4512   14.6110 H   0  0  0  0  0  0  0  0  0  0  0  0
   50.3850    8.6185   15.9586 H   0  0  0  0  0  0  0  0  0  0  0  0
   51.2585    8.3452   18.2243 H   0  0  0  0  0  0  0  0  0  0  0  0
   48.7155    6.9764   12.6377 H   0  0  0  0  0  0  0  0  0  0  0  0
   49.7806    5.9829   13.6113 H   0  0  0  0  0  0  0  0  0  0  0  0
   50.4858    7.7565   11.3717 H   0  0  0  0  0  0  0  0  0  0  0  0
   52.1845    9.8457   12.8249 H   0  0  0  0  0  0  0  0  0  0  0  0
   52.7447    8.3036   12.2355 H   0  0  0  0  0  0  0  0  0  0  0  0
   52.4885    7.8348    9.6364 H   0  0  0  0  0  0  0  0  0  0  0  0
   52.3991   11.7460   11.4451 H   0  0  0  0  0  0  0  0  0  0  0  0
   47.7622    3.6730   20.6368 H   0  0  0  0  0  0  0  0  0  0  0  0
   53.0820    8.8734    7.4710 H   0  0  0  0  0  0  0  0  0  0  0  0
   53.0056   12.7616    9.3178 H   0  0  0  0  0  0  0  0  0  0  0  0
   48.5306    9.2423   11.9476 H   0  0  0  0  0  0  0  0  0  0  0  0
   49.6570   10.0725   10.8710 H   0  0  0  0  0  0  0  0  0  0  0  0
   49.6522   10.4533   12.6039 H   0  0  0  0  0  0  0  0  0  0  0  0
   52.9902   13.3483    7.0278 H   0  0  0  0  0  0  0  0  0  0  0  0
   54.6749   12.9480    7.5421 H   0  0  0  0  0  0  0  0  0  0  0  0
   54.1978   12.8360    5.8365 H   0  0  0  0  0  0  0  0  0  0  0  0
   50.3798    7.9910   14.0175 H   0  0  0  0  0  0  0  0  0  0  0  0
   50.9407    8.5468   12.7056 H   0  0  0  0  0  0  0  0  0  0  0  0
  2 10  1  0
  3 12  1  0
  4 19  1  0
  4 26  1  0
  5 22  2  0
  6  9  1  0
  6 22  1  0
  7 15  1  0
  7 17  1  0
  8 11  2  0
  8 12  1  0
  8 13  1  0
  9 10  2  0
  9 11  1  0
 10 14  1  0
 12 15  1  0
 13 14  2  0
 16 18  1  0
 16 20  2  0
 16 21  1  0
 17 18  1  0
 17 25  1  0
 19 23  2  0
 19 24  1  0
 20 23  1  0
 21 24  2  0
 27 31  1  0
 28 32  1  0
 29 31  2  0
 30 32  2  0
 31 33  1  0
 32 34  1  0
 33 34  2  0
 35 43  1  0
 36 45  1  0
 37 52  1  0
 37 59  1  0
 38 55  2  0
 39 42  1  0
 39 55  1  0
 40 48  1  0
 40 50  1  0
 41 44  2  0
 41 45  1  0
 41 46  1  0
 42 43  2  0
 42 44  1  0
 43 47  1  0
 45 48  1  0
 46 47  2  0
 49 51  1  0
 49 53  2  0
 49 54  1  0
 50 51  1  0
 50 58  1  0
 52 56  2  0
 52 57  1  0
 53 56  1  0
 54 57  2  0
  1 61  1  0
  1 62  1  0
  2 63  1  0
  3 64  1  0
  6 65  1  0
  7 66  1  0
 11 67  1  0
 12 68  1  6
 13 69  1  0
 14 70  1  0
 15 71  1  0
 15 72  1  0
 17 73  1  1
 18 74  1  0
 18 75  1  0
 20 76  1  0
 21 77  1  0
 22 78  1  0
 23 79  1  0
 24 80  1  0
 25 81  1  0
 25 82  1  0
 25 83  1  0
 26 84  1  0
 26 85  1  0
 26 86  1  0
 27 87  1  0
 28 88  1  0
 33 89  1  0
 34 90  1  0
 35 91  1  0
 36 92  1  0
 39 93  1  0
 40 94  1  0
 44 95  1  0
 45 96  1  1
 46 97  1  0
 47 98  1  0
 48 99  1  0
 48100  1  0
 50101  1  1
 51102  1  0
 51103  1  0
 53104  1  0
 54105  1  0
 55106  1  0
 56107  1  0
 57108  1  0
 58109  1  0
 58110  1  0
 58111  1  0
 59112  1  0
 59113  1  0
 59114  1  0
 60115  1  0
 60116  1  0
M  END
> <Uni-Dock RESULT> 
ENERGY=   -5.191  LOWER_BOUND=    3.688  UPPER_BOUND=    7.528
INTER + INTRA:          -5.191
INTER:                  -5.191
INTRA:                   0.000
UNBOUND:                 0.000

$$$$

     RDKit          3D

116115  0  0  0  0  0  0  0  0999 V2000
   48.2648    9.2778   14.9750 O   0  0  0  0  0  0  0  0  0  0  0  0
   48.6349    4.1751   20.4840 O   0  0  0  0  0  0  0  0  0  0  0  0
   48.7962   10.1257   18.1934 O   0  0  0  0  0  0  0  0  0  0  0  0
   46.7010   12.2272    8.2546 O   0  0  0  0  0  0  0  0  0  0  0  0
   52.3203    4.9240   17.1947 O   0  0  0  0  0  0  0  0  0  0  0  0
   50.6550    4.2717   18.7174 N   0  0  0  0  0  0  0  0  0  0  0  0
   49.2937   10.1410   15.4244 N   0  0  0  0  0  0  0  0  0  0  0  0
   49.2290    7.7343   18.3993 C   0  0  0  0  0  0  0  0  0  0  0  0
   49.8584    5.4221   18.8684 C   0  0  0  0  0  0  0  0  0  0  0  0
   48.8083    5.3450   19.7880 C   0  0  0  0  0  0  0  0  0  0  0  0
   50.0700    6.6235   18.1927 C   0  0  0  0  0  0  0  0  0  0  0  0
   49.4841    9.0077   17.6165 C   0  0  1  0  0  0  0  0  0  0  0  0
   48.1843    7.6224   19.3275 C   0  0  0  0  0  0  0  0  0  0  0  0
   47.9752    6.4333   20.0310 C   0  0  0  0  0  0  0  0  0  0  0  0
   49.0489    8.8696   16.1380 C   0  0  0  0  0  0  0  0  0  0  0  0
   48.1605   11.7560   12.1499 C   0  0  0  0  0  0  0  0  0  0  0  0
   48.8062   10.1186   14.0305 C   0  0  1  0  0  0  0  0  0  0  0  0
   48.7461   11.5872   13.5385 C   0  0  0  0  0  0  0  0  0  0  0  0
   47.0901   12.0586    9.5551 C   0  0  0  0  0  0  0  0  0  0  0  0
   48.9941   12.0428   11.0619 C   0  0  0  0  0  0  0  0  0  0  0  0
   46.7858   11.6111   11.9207 C   0  0  0  0  0  0  0  0  0  0  0  0
   51.7719    4.1146   17.9295 C   0  0  0  0  0  0  0  0  0  0  0  0
   48.4597   12.1953    9.7799 C   0  0  0  0  0  0  0  0  0  0  0  0
   46.2540   11.7547   10.6292 C   0  0  0  0  0  0  0  0  0  0  0  0
   49.7240    9.2741   13.1333 C   0  0  0  0  0  0  0  0  0  0  0  0
   45.3167   12.4695    8.0540 C   0  0  0  0  0  0  0  0  0  0  0  0
   49.0869    7.3092   16.3877 O   0  0  0  0  0  0  0  0  0  0  0  0
   48.0883   10.9555   13.2148 O   0  0  0  0  0  0  0  0  0  0  0  0
   47.5287    8.4749   17.4973 O   0  0  0  0  0  0  0  0  0  0  0  0
   49.6944    9.8277   12.1391 O   0  0  0  0  0  0  0  0  0  0  0  0
   48.2154    8.3233   16.5024 C   0  0  0  0  0  0  0  0  0  0  0  0
   48.9766    9.9562   13.1133 C   0  0  0  0  0  0  0  0  0  0  0  0
   48.2036    9.2257   15.3433 C   0  0  0  0  0  0  0  0  0  0  0  0
   48.9946    9.0584   14.2739 C   0  0  0  0  0  0  0  0  0  0  0  0
   49.0536    7.7005   21.3881 O   0  0  0  0  0  0  0  0  0  0  0  0
   47.5586    6.1947   15.4724 O   0  0  0  0  0  0  0  0  0  0  0  0
   47.7760   13.3928    8.5678 O   0  0  0  0  0  0  0  0  0  0  0  0
   50.1486    5.8288   22.5792 O   0  0  0  0  0  0  0  0  0  0  0  0
   50.3122    5.1039   20.3737 N   0  0  0  0  0  0  0  0  0  0  0  0
   48.9425    8.7229   14.8495 N   0  0  0  0  0  0  0  0  0  0  0  0
   48.9847    6.7330   17.3231 C   0  0  0  0  0  0  0  0  0  0  0  0
   49.6569    6.1034   19.6128 C   0  0  0  0  0  0  0  0  0  0  0  0
   49.0898    7.2981   20.0840 C   0  0  0  0  0  0  0  0  0  0  0  0
   49.5928    5.8418   18.2258 C   0  0  0  0  0  0  0  0  0  0  0  0
   48.9215    6.3884   15.8501 C   0  0  2  0  0  0  0  0  0  0  0  0
   48.4191    7.9040   17.8403 C   0  0  0  0  0  0  0  0  0  0  0  0
   48.4756    8.1857   19.2011 C   0  0  0  0  0  0  0  0  0  0  0  0
   49.5973    7.3934   14.8815 C   0  0  0  0  0  0  0  0  0  0  0  0
   48.3476   11.4703   12.2388 C   0  0  0  0  0  0  0  0  0  0  0  0
   48.7072    9.2387   13.4816 C   0  0  2  0  0  0  0  0  0  0  0  0
   48.5888   10.7768   13.5540 C   0  0  0  0  0  0  0  0  0  0  0  0
   47.8729   12.7792    9.7891 C   0  0  0  0  0  0  0  0  0  0  0  0
   49.3545   11.5444   11.2705 C   0  0  0  0  0  0  0  0  0  0  0  0
   47.1008   12.0453   11.9619 C   0  0  0  0  0  0  0  0  0  0  0  0
   50.5144    5.0358   21.7277 C   0  0  0  0  0  0  0  0  0  0  0  0
   49.1124   12.1899   10.0545 C   0  0  0  0  0  0  0  0  0  0  0  0
   46.8623   12.6904   10.7437 C   0  0  0  0  0  0  0  0  0  0  0  0
   47.4301    8.6052   12.9286 C   0  0  0  0  0  0  0  0  0  0  0  0
   46.6067   14.1691    8.3266 C   0  0  0  0  0  0  0  0  0  0  0  0
   48.2615    9.2952   14.9495 O   0  0  0  0  0  0  0  0  0  0  0  0
   48.6516    9.5300   14.1224 H   0  0  0  0  0  0  0  0  0  0  0  0
   48.8954    8.6405   15.3430 H   0  0  0  0  0  0  0  0  0  0  0  0
   48.0402    4.3577   21.2267 H   0  0  0  0  0  0  0  0  0  0  0  0
   48.7744   10.7903   17.4769 H   0  0  0  0  0  0  0  0  0  0  0  0
   50.3508    3.4881   19.2929 H   0  0  0  0  0  0  0  0  0  0  0  0
   50.3007   10.3346   15.4205 H   0  0  0  0  0  0  0  0  0  0  0  0
   50.8847    6.7123   17.4808 H   0  0  0  0  0  0  0  0  0  0  0  0
   50.5551    9.2424   17.6712 H   0  0  0  0  0  0  0  0  0  0  0  0
   47.5389    8.4768   19.5226 H   0  0  0  0  0  0  0  0  0  0  0  0
   47.1662    6.3698   20.7504 H   0  0  0  0  0  0  0  0  0  0  0  0
   49.5956    8.0456   15.6692 H   0  0  0  0  0  0  0  0  0  0  0  0
   47.9756    8.6445   16.1005 H   0  0  0  0  0  0  0  0  0  0  0  0
   47.7906    9.6983   14.0113 H   0  0  0  0  0  0  0  0  0  0  0  0
   49.7557   12.0151   13.5594 H   0  0  0  0  0  0  0  0  0  0  0  0
   48.1531   12.1882   14.2417 H   0  0  0  0  0  0  0  0  0  0  0  0
   50.0678   12.1632   11.2052 H   0  0  0  0  0  0  0  0  0  0  0  0
   46.1040   11.3666   12.7358 H   0  0  0  0  0  0  0  0  0  0  0  0
   52.1607    3.0811   18.0500 H   0  0  0  0  0  0  0  0  0  0  0  0
   49.1248   12.4167    8.9486 H   0  0  0  0  0  0  0  0  0  0  0  0
   45.1896   11.6176   10.4902 H   0  0  0  0  0  0  0  0  0  0  0  0
   50.7390    9.6870   13.1031 H   0  0  0  0  0  0  0  0  0  0  0  0
   49.3418    9.2446   12.1083 H   0  0  0  0  0  0  0  0  0  0  0  0
   49.7915    8.2352   13.4764 H   0  0  0  0  0  0  0  0  0  0  0  0
   45.1779   12.7387    7.0047 H   0  0  0  0  0  0  0  0  0  0  0  0
   44.9612   13.3124    8.6545 H   0  0  0  0  0  0  0  0  0  0  0  0
   44.7325   11.5626    8.2488 H   0  0  0  0  0  0  0  0  0  0  0  0
   48.9981    6.8129   17.2283 H   0  0  0  0  0  0  0  0  0  0  0  0
   48.1992   11.4687   12.3870 H   0  0  0  0  0  0  0  0  0  0  0  0
   47.4928   10.0421   15.4152 H   0  0  0  0  0  0  0  0  0  0  0  0
   49.7048    8.2423   14.2019 H   0  0  0  0  0  0  0  0  0  0  0  0
   49.4292    6.9980   21.9494 H   0  0  0  0  0  0  0  0  0  0  0  0
   47.1746    7.0945   15.4298 H   0  0  0  0  0  0  0  0  0  0  0  0
   50.6608    4.3057   19.8503 H   0  0  0  0  0  0  0  0  0  0  0  0
   49.5435    9.3774   15.3612 H   0  0  0  0  0  0  0  0  0  0  0  0
   50.0179    4.9219   17.8319 H   0  0  0  0  0  0  0  0  0  0  0  0
   49.4124    5.4201   15.7002 H   0  0  0  0  0  0  0  0  0  0  0  0
   47.9185    8.6173   17.1946 H   0  0  0  0  0  0  0  0  0  0  0  0
   48.0253    9.0994   19.5877 H   0  0  0  0  0  0  0  0  0  0  0  0
   49.5860    6.9334   13.8936 H   0  0  0  0  0  0  0  0  0  0  0  0
   50.6504    7.5331   15.1493 H   0  0  0  0  0  0  0  0  0  0  0  0
   49.5563    8.9906   12.8389 H   0  0  0  0  0  0  0  0  0  0  0  0
   47.7979   11.0529   14.2591 H   0  0  0  0  0  0  0  0  0  0  0  0
   49.5126   11.1930   13.9769 H   0  0  0  0  0  0  0  0  0  0  0  0
   50.3356   11.1136   11.4556 H   0  0  0  0  0  0  0  0  0  0  0  0
   46.2997   11.9832   12.6935 H   0  0  0  0  0  0  0  0  0  0  0  0
   51.0597    4.1139   21.9982 H   0  0  0  0  0  0  0  0  0  0  0  0
   49.8927   12.2377    9.2969 H   0  0  0  0  0  0  0  0  0  0  0  0
   45.8756   13.1082   10.5771 H   0  0  0  0  0  0  0  0  0  0  0  0
   47.5123    7.5135   12.8895 H   0  0  0  0  0  0  0  0  0  0  0  0
   47.2248    8.9536   11.9093 H   0  0  0  0  0  0  0  0  0  0  0  0
   46.5631    8.8604   13.5530 H   0  0  0  0  0  0  0  0  0  0  0  0
   45.7135   13.5353    8.2577 H   0  0  0  0  0  0  0  0  0  0  0  0
   46.4677   14.9523    9.0861 H   0  0  0  0  0  0  0  0  0  0  0  0
   46.7375   14.6657    7.3557 H   0  0  0  0  0  0  0  0  0  0  0  0
   48.8468    8.6517   15.3783 H   0  0  0  0  0  0  0  0  0  0  0  0
   48.7034    9.5015   14.1127 H   0  0  0  0  0  0  0  0  0  0  0  0
  2 10  1  0
  3 12  1  0
  4 19  1  0
  4 26  1  0
  5 22  2  0
  6  9  1  0
  6 22  1  0
  7 15  1  0
  7 17  1  0
  8 11  2  0
  8 12  1  0
  8 13  1  0
  9 10  2  0
  9 11  1  0
 10 14  1  0
 12 15  1  0
 13 14  2  0
 16 18  1  0
 16 20  2  0
 16 21  1  0
 17 18  1  0
 17 25  1  0
 19 23  2  0
 19 24  1  0
 20 23  1  0
 21 24  2  0
 27 31  1  0
 28 32  1  0
 29 31  2  0
 30 32  2  0
 31 33  1  0
 32 34  1  0
 33 34  2  0
 35 43  1  0
 36 45  1  0
 37 52  1  0
 37 59  1  0
 38 55  2  0
 39 42  1  0
 39 55  1  0
 40 48  1  0
 40 50  1  0
 41 44  2  0
 41 45  1  0
 41 46  1  0
 42 43  2  0
 42 44  1  0
 43 47  1  0
 45 48  1  0
 46 47  2  0
 49 51  1  0
 49 53  2  0
 49 54  1  0
 50 51  1  0
 50 58  1  0
 52 56  2  0
 52 57  1  0
 53 56  1  0
 54 57  2  0
  1 61  1  0
  1 62  1  0
  2 63  1  0
  3 64  1  0
  6 65  1  0
  7 66  1  0
 11 67  1  0
 12 68  1  6
 13 69  1  0
 14 70  1  0
 15 71  1  0
 15 72  1  0
 17 73  1  1
 18 74  1  0
 18 75  1  0
 20 76  1  0
 21 77  1  0
 22 78  1  0
 23 79  1  0
 24 80  1  0
 25 81  1  0
 25 82  1  0
 25 83  1  0
 26 84  1  0
 26 85  1  0
 26 86  1  0
 27 87  1  0
 28 88  1  0
 33 89  1  0
 34 90  1  0
 35 91  1  0
 36 92  1  0
 39 93  1  0
 40 94  1  0
 44 95  1  0
 45 96  1  1
 46 97  1  0
 47 98  1  0
 48 99  1  0
 48100  1  0
 50101  1  1
 51102  1  0
 51103  1  0
 53104  1  0
 54105  1  0
 55106  1  0
 56107  1  0
 57108  1  0
 58109  1  0
 58110  1  0
 58111  1  0
 59112  1  0
 59113  1  0
 59114  1  0
 60115  1  0
 60116  1  0
M  END
> <Uni-Dock RESULT> 
ENERGY=   -5.130  LOWER_BOUND=    4.337  UPPER_BOUND=    6.584
INTER + INTRA:          -5.130
INTER:                  -5.130
INTRA:                   0.000
UNBOUND:                 0.000

$$$$

     RDKit          3D

116115  0  0  0  0  0  0  0  0999 V2000
   49.1928   10.0260   12.9259 O   0  0  0  0  0  0  0  0  0  0  0  0
   45.4456    3.6737   11.4663 O   0  0  0  0  0  0  0  0  0  0  0  0
   45.8307    9.9164   12.7162 O   0  0  0  0  0  0  0  0  0  0  0  0
   54.9469   14.8244   13.3433 O   0  0  0  0  0  0  0  0  0  0  0  0
   47.5138    4.6737   15.9031 O   0  0  0  0  0  0  0  0  0  0  0  0
   46.6360    3.9131   13.8615 N   0  0  0  0  0  0  0  0  0  0  0  0
   48.3046   10.5736   13.8836 N   0  0  0  0  0  0  0  0  0  0  0  0
   46.2369    7.5165   12.8711 C   0  0  0  0  0  0  0  0  0  0  0  0
   46.3326    5.0934   13.1574 C   0  0  0  0  0  0  0  0  0  0  0  0
   45.7205    4.9429   11.9096 C   0  0  0  0  0  0  0  0  0  0  0  0
   46.5712    6.3816   13.6353 C   0  0  0  0  0  0  0  0  0  0  0  0
   46.5453    8.8944   13.4238 C   0  0  1  0  0  0  0  0  0  0  0  0
   45.6256    7.3297   11.6233 C   0  0  0  0  0  0  0  0  0  0  0  0
   45.3570    6.0458   11.1420 C   0  0  0  0  0  0  0  0  0  0  0  0
   48.0579    9.2139   13.3580 C   0  0  0  0  0  0  0  0  0  0  0  0
   51.1362   13.1383   13.7446 C   0  0  0  0  0  0  0  0  0  0  0  0
   49.7160   10.9894   13.7567 C   0  0  1  0  0  0  0  0  0  0  0  0
   49.7640   12.5265   13.9506 C   0  0  0  0  0  0  0  0  0  0  0  0
   53.6988   14.2658   13.3816 C   0  0  0  0  0  0  0  0  0  0  0  0
   51.8911   13.5658   14.8438 C   0  0  0  0  0  0  0  0  0  0  0  0
   51.6850   13.2717   12.4623 C   0  0  0  0  0  0  0  0  0  0  0  0
   47.1786    3.7959   15.1203 C   0  0  0  0  0  0  0  0  0  0  0  0
   53.1575   14.1266   14.6594 C   0  0  0  0  0  0  0  0  0  0  0  0
   52.9623   13.8261   12.2819 C   0  0  0  0  0  0  0  0  0  0  0  0
   50.6016   10.2759   14.7896 C   0  0  0  0  0  0  0  0  0  0  0  0
   55.3592   15.3208   12.0790 C   0  0  0  0  0  0  0  0  0  0  0  0
   48.2675    7.6557   13.1947 O   0  0  0  0  0  0  0  0  0  0  0  0
   50.3888   12.1097   13.3402 O   0  0  0  0  0  0  0  0  0  0  0  0
   47.2273    8.7190   11.5197 O   0  0  0  0  0  0  0  0  0  0  0  0
   51.3761   11.0664   15.0565 O   0  0  0  0  0  0  0  0  0  0  0  0
   48.0533    8.7270   12.4152 C   0  0  0  0  0  0  0  0  0  0  0  0
   50.5827   11.0465   14.1340 C   0  0  0  0  0  0  0  0  0  0  0  0
   48.8771    9.8901   12.7709 C   0  0  0  0  0  0  0  0  0  0  0  0
   49.7549    9.8864   13.7842 C   0  0  0  0  0  0  0  0  0  0  0  0
   43.4944    6.7350   11.9584 O   0  0  0  0  0  0  0  0  0  0  0  0
   49.7694    7.0666   11.8484 O   0  0  0  0  0  0  0  0  0  0  0  0
   54.0887   15.6884   14.4061 O   0  0  0  0  0  0  0  0  0  0  0  0
   42.6898    4.4725   12.5539 O   0  0  0  0  0  0  0  0  0  0  0  0
   44.9228    4.3291   13.1941 N   0  0  0  0  0  0  0  0  0  0  0  0
   49.3257    9.4251   13.5617 N   0  0  0  0  0  0  0  0  0  0  0  0
   47.5826    6.8792   12.8134 C   0  0  0  0  0  0  0  0  0  0  0  0
   45.4840    5.5806   12.8389 C   0  0  0  0  0  0  0  0  0  0  0  0
   44.8201    6.6845   12.2807 C   0  0  0  0  0  0  0  0  0  0  0  0
   46.8678    5.7014   13.0974 C   0  0  0  0  0  0  0  0  0  0  0  0
   49.0705    6.9430   13.0868 C   0  0  2  0  0  0  0  0  0  0  0  0
   46.8823    7.9483   12.2432 C   0  0  0  0  0  0  0  0  0  0  0  0
   45.5188    7.8548   11.9855 C   0  0  0  0  0  0  0  0  0  0  0  0
   49.5401    8.0485   14.0678 C   0  0  0  0  0  0  0  0  0  0  0  0
   51.0957   12.8141   13.8778 C   0  0  0  0  0  0  0  0  0  0  0  0
   50.5036   10.3084   13.7193 C   0  0  2  0  0  0  0  0  0  0  0  0
   50.0171   11.7741   13.7233 C   0  0  0  0  0  0  0  0  0  0  0  0
   53.1054   14.7714   14.1426 C   0  0  0  0  0  0  0  0  0  0  0  0
   51.7635   12.9810   15.0957 C   0  0  0  0  0  0  0  0  0  0  0  0
   51.4539   13.6263   12.7945 C   0  0  0  0  0  0  0  0  0  0  0  0
   43.6356    3.8813   13.0476 C   0  0  0  0  0  0  0  0  0  0  0  0
   52.7636   13.9495   15.2205 C   0  0  0  0  0  0  0  0  0  0  0  0
   52.4555   14.5945   12.9233 C   0  0  0  0  0  0  0  0  0  0  0  0
   51.4750   10.0451   12.5680 C   0  0  0  0  0  0  0  0  0  0  0  0
   54.3390   16.6714   13.4064 C   0  0  0  0  0  0  0  0  0  0  0  0
   49.2122   10.0497   12.9306 O   0  0  0  0  0  0  0  0  0  0  0  0
   49.8332   10.4283   13.5326 H   0  0  0  0  0  0  0  0  0  0  0  0
   48.8989    9.2256   13.3867 H   0  0  0  0  0  0  0  0  0  0  0  0
   44.8265    3.7464   10.7247 H   0  0  0  0  0  0  0  0  0  0  0  0
   46.3122   10.7394   12.9316 H   0  0  0  0  0  0  0  0  0  0  0  0
   46.3900    3.0635   13.3561 H   0  0  0  0  0  0  0  0  0  0  0  0
   48.0377   10.6038   14.8733 H   0  0  0  0  0  0  0  0  0  0  0  0
   47.0363    6.5256   14.6056 H   0  0  0  0  0  0  0  0  0  0  0  0
   46.1982    8.9388   14.4643 H   0  0  0  0  0  0  0  0  0  0  0  0
   45.3344    8.1931   11.0279 H   0  0  0  0  0  0  0  0  0  0  0  0
   44.8763    5.9231   10.1776 H   0  0  0  0  0  0  0  0  0  0  0  0
   48.6169    8.4659   13.9288 H   0  0  0  0  0  0  0  0  0  0  0  0
   48.3868    9.1745   12.3119 H   0  0  0  0  0  0  0  0  0  0  0  0
   50.0719   10.7503   12.7444 H   0  0  0  0  0  0  0  0  0  0  0  0
   49.4056   12.7733   14.9573 H   0  0  0  0  0  0  0  0  0  0  0  0
   49.0605   13.0082   13.2574 H   0  0  0  0  0  0  0  0  0  0  0  0
   51.4937   13.4779   15.8548 H   0  0  0  0  0  0  0  0  0  0  0  0
   51.1402   12.9320   11.5809 H   0  0  0  0  0  0  0  0  0  0  0  0
   47.2817    2.7194   15.3741 H   0  0  0  0  0  0  0  0  0  0  0  0
   53.7276   14.4510   15.5266 H   0  0  0  0  0  0  0  0  0  0  0  0
   53.3585   13.8956   11.2773 H   0  0  0  0  0  0  0  0  0  0  0  0
   50.2942   10.5208   15.8129 H   0  0  0  0  0  0  0  0  0  0  0  0
   51.6483   10.5730   14.6722 H   0  0  0  0  0  0  0  0  0  0  0  0
   50.5671    9.1860   14.6778 H   0  0  0  0  0  0  0  0  0  0  0  0
   56.2905   15.8714   12.2289 H   0  0  0  0  0  0  0  0  0  0  0  0
   54.6311   16.0232   11.6619 H   0  0  0  0  0  0  0  0  0  0  0  0
   55.5639   14.4958   11.3868 H   0  0  0  0  0  0  0  0  0  0  0  0
   47.6451    6.9779   12.8569 H   0  0  0  0  0  0  0  0  0  0  0  0
   50.9896   12.7969   13.6978 H   0  0  0  0  0  0  0  0  0  0  0  0
   48.7257   10.7593   12.1397 H   0  0  0  0  0  0  0  0  0  0  0  0
   49.9064    9.0176   14.4150 H   0  0  0  0  0  0  0  0  0  0  0  0
   43.0933    5.8616   12.1194 H   0  0  0  0  0  0  0  0  0  0  0  0
   49.6312    7.9947   11.5681 H   0  0  0  0  0  0  0  0  0  0  0  0
   45.5675    3.6504   13.5894 H   0  0  0  0  0  0  0  0  0  0  0  0
   48.5309    9.8235   14.0727 H   0  0  0  0  0  0  0  0  0  0  0  0
   47.4104    4.8612   13.5238 H   0  0  0  0  0  0  0  0  0  0  0  0
   49.3853    5.9832   13.5119 H   0  0  0  0  0  0  0  0  0  0  0  0
   47.3857    8.8732   11.9834 H   0  0  0  0  0  0  0  0  0  0  0  0
   44.9901    8.6947   11.5361 H   0  0  0  0  0  0  0  0  0  0  0  0
   50.5974    7.8683   14.2609 H   0  0  0  0  0  0  0  0  0  0  0  0
   49.0254    7.9497   15.0298 H   0  0  0  0  0  0  0  0  0  0  0  0
   50.9941   10.1079   14.6757 H   0  0  0  0  0  0  0  0  0  0  0  0
   49.4478   11.9762   12.8100 H   0  0  0  0  0  0  0  0  0  0  0  0
   49.3051   11.9186   14.5466 H   0  0  0  0  0  0  0  0  0  0  0  0
   51.5059   12.3710   15.9582 H   0  0  0  0  0  0  0  0  0  0  0  0
   50.9599   13.5006   11.8348 H   0  0  0  0  0  0  0  0  0  0  0  0
   43.5331    2.8481   13.4251 H   0  0  0  0  0  0  0  0  0  0  0  0
   53.2906   14.0715   16.1653 H   0  0  0  0  0  0  0  0  0  0  0  0
   52.7007   15.1882   12.0496 H   0  0  0  0  0  0  0  0  0  0  0  0
   51.8092    9.0018   12.5604 H   0  0  0  0  0  0  0  0  0  0  0  0
   52.3695   10.6736   12.6534 H   0  0  0  0  0  0  0  0  0  0  0  0
   51.0034   10.2599   11.5995 H   0  0  0  0  0  0  0  0  0  0  0  0
   54.7767   16.2228   12.5057 H   0  0  0  0  0  0  0  0  0  0  0  0
   53.4336   17.2422   13.1535 H   0  0  0  0  0  0  0  0  0  0  0  0
   55.0739   17.3768   13.8171 H   0  0  0  0  0  0  0  0  0  0  0  0
   48.8731    9.2346   13.3320 H   0  0  0  0  0  0  0  0  0  0  0  0
   49.8395   10.3956   13.5825 H   0  0  0  0  0  0  0  0  0  0  0  0
  2 10  1  0
  3 12  1  0
  4 19  1  0
  4 26  1  0
  5 22  2  0
  6  9  1  0
  6 22  1  0
  7 15  1  0
  7 17  1  0
  8 11  2  0
  8 12  1  0
  8 13  1  0
  9 10  2  0
  9 11  1  0
 10 14  1  0
 12 15  1  0
 13 14  2  0
 16 18  1  0
 16 20  2  0
 16 21  1  0
 17 18  1  0
 17 25  1  0
 19 23  2  0
 19 24  1  0
 20 23  1  0
 21 24  2  0
 27 31  1  0
 28 32  1  0
 29 31  2  0
 30 32  2  0
 31 33  1  0
 32 34  1  0
 33 34  2  0
 35 43  1  0
 36 45  1  0
 37 52  1  0
 37 59  1  0
 38 55  2  0
 39 42  1  0
 39 55  1  0
 40 48  1  0
 40 50  1  0
 41 44  2  0
 41 45  1  0
 41 46  1  0
 42 43  2  0
 42 44  1  0
 43 47  1  0
 45 48  1  0
 46 47  2  0
 49 51  1  0
 49 53  2  0
 49 54  1  0
 50 51  1  0
 50 58  1  0
 52 56  2  0
 52 57  1  0
 53 56  1  0
 54 57  2  0
  1 61  1  0
  1 62  1  0
  2 63  1  0
  3 64  1  0
  6 65  1  0
  7 66  1  0
 11 67  1  0
 12 68  1  6
 13 69  1  0
 14 70  1  0
 15 71  1  0
 15 72  1  0
 17 73  1  1
 18 74  1  0
 18 75  1  0
 20 76  1  0
 21 77  1  0
 22 78  1  0
 23 79  1  0
 24 80  1  0
 25 81  1  0
 25 82  1  0
 25 83  1  0
 26 84  1  0
 26 85  1  0
 26 86  1  0
 27 87  1  0
 28 88  1  0
 33 89  1  0
 34 90  1  0
 35 91  1  0
 36 92  1  0
 39 93  1  0
 40 94  1  0
 44 95  1  0
 45 96  1  1
 46 97  1  0
 47 98  1  0
 48 99  1  0
 48100  1  0
 50101  1  1
 51102  1  0
 51103  1  0
 53104  1  0
 54105  1  0
 55106  1  0
 56107  1  0
 57108  1  0
 58109  1  0
 58110  1  0
 58111  1  0
 59112  1  0
 59113  1  0
 59114  1  0
 60115  1  0
 60116  1  0
M  END
> <Uni-Dock RESULT> 
ENERGY=   -5.081  LOWER_BOUND=    3.048  UPPER_BOUND=    9.267
INTER + INTRA:          -5.081
INTER:                  -5.081
INTRA:                   0.000
UNBOUND:                 0.000

$$$$

     RDKit          3D

116115  0  0  0  0  0  0  0  0999 V2000
   47.9953   15.0540   15.9010 O   0  0  0  0  0  0  0  0  0  0  0  0
   48.9955   19.0484    9.6107 O   0  0  0  0  0  0  0  0  0  0  0  0
   45.4592   16.6263   14.3341 O   0  0  0  0  0  0  0  0  0  0  0  0
   49.7082   11.4636   22.2637 O   0  0  0  0  0  0  0  0  0  0  0  0
   48.9895   14.0531    9.7091 O   0  0  0  0  0  0  0  0  0  0  0  0
   49.2208   16.3769    9.4568 N   0  0  0  0  0  0  0  0  0  0  0  0
   46.7546   14.4564   15.5704 N   0  0  0  0  0  0  0  0  0  0  0  0
   47.1023   16.7637   12.5369 C   0  0  0  0  0  0  0  0  0  0  0  0
   48.4823   16.9135   10.5280 C   0  0  0  0  0  0  0  0  0  0  0  0
   48.3858   18.3068   10.5911 C   0  0  0  0  0  0  0  0  0  0  0  0
   47.8250   16.1522   11.4939 C   0  0  0  0  0  0  0  0  0  0  0  0
   46.4311   15.8905   13.5792 C   0  0  1  0  0  0  0  0  0  0  0  0
   47.0270   18.1632   12.5713 C   0  0  0  0  0  0  0  0  0  0  0  0
   47.6592   18.9390   11.5961 C   0  0  0  0  0  0  0  0  0  0  0  0
   47.4576   15.2768   14.5612 C   0  0  0  0  0  0  0  0  0  0  0  0
   47.5651   12.9606   18.9939 C   0  0  0  0  0  0  0  0  0  0  0  0
   47.6614   13.9208   16.6058 C   0  0  1  0  0  0  0  0  0  0  0  0
   46.7812   13.4455   17.7897 C   0  0  0  0  0  0  0  0  0  0  0  0
   49.0323   12.0384   21.2226 C   0  0  0  0  0  0  0  0  0  0  0  0
   47.6528   11.5916   19.2750 C   0  0  0  0  0  0  0  0  0  0  0  0
   48.2307   13.8614   19.8358 C   0  0  0  0  0  0  0  0  0  0  0  0
   49.4115   15.0512    9.1422 C   0  0  0  0  0  0  0  0  0  0  0  0
   48.3771   11.1397   20.3811 C   0  0  0  0  0  0  0  0  0  0  0  0
   48.9662   13.4026   20.9404 C   0  0  0  0  0  0  0  0  0  0  0  0
   48.5148   12.7677   16.0559 C   0  0  0  0  0  0  0  0  0  0  0  0
   50.0562   12.3370   23.3272 C   0  0  0  0  0  0  0  0  0  0  0  0
   48.5452   15.6242   13.4681 O   0  0  0  0  0  0  0  0  0  0  0  0
   47.6567   13.8149   17.9732 O   0  0  0  0  0  0  0  0  0  0  0  0
   47.5265   17.3507   14.4678 O   0  0  0  0  0  0  0  0  0  0  0  0
   48.6126   12.0693   16.9495 O   0  0  0  0  0  0  0  0  0  0  0  0
   47.9570   16.2122   14.5213 C   0  0  0  0  0  0  0  0  0  0  0  0
   48.2209   13.2209   16.9117 C   0  0  0  0  0  0  0  0  0  0  0  0
   47.8610   15.3458   15.7037 C   0  0  0  0  0  0  0  0  0  0  0  0
   48.3106   14.0830   15.7276 C   0  0  0  0  0  0  0  0  0  0  0  0
   45.6045   18.8373   10.9809 O   0  0  0  0  0  0  0  0  0  0  0  0
   50.3867   16.3283   14.1953 O   0  0  0  0  0  0  0  0  0  0  0  0
   48.2864   10.7017   22.1617 O   0  0  0  0  0  0  0  0  0  0  0  0
   46.1096   19.0463    8.5679 O   0  0  0  0  0  0  0  0  0  0  0  0
   47.7960   17.5933    9.2473 N   0  0  0  0  0  0  0  0  0  0  0  0
   48.2875   14.5412   15.2417 N   0  0  0  0  0  0  0  0  0  0  0  0
   48.5377   16.3862   12.6701 C   0  0  0  0  0  0  0  0  0  0  0  0
   47.6143   17.4536   10.6455 C   0  0  0  0  0  0  0  0  0  0  0  0
   46.5998   18.0200   11.4336 C   0  0  0  0  0  0  0  0  0  0  0  0
   48.5737   16.6384   11.2866 C   0  0  0  0  0  0  0  0  0  0  0  0
   49.6078   15.5259   13.3081 C   0  0  2  0  0  0  0  0  0  0  0  0
   47.5172   16.9846   13.4180 C   0  0  0  0  0  0  0  0  0  0  0  0
   46.5581   17.7858   12.8077 C   0  0  0  0  0  0  0  0  0  0  0  0
   49.1150   14.2539   14.0458 C   0  0  0  0  0  0  0  0  0  0  0  0
   47.6850   12.9173   18.6649 C   0  0  0  0  0  0  0  0  0  0  0  0
   48.6769   13.7598   16.4377 C   0  0  2  0  0  0  0  0  0  0  0  0
   47.4618   13.6844   17.3879 C   0  0  0  0  0  0  0  0  0  0  0  0
   48.0950   11.5050   21.0685 C   0  0  0  0  0  0  0  0  0  0  0  0
   47.8231   11.5253   18.6518 C   0  0  0  0  0  0  0  0  0  0  0  0
   47.7676   13.5926   19.8891 C   0  0  0  0  0  0  0  0  0  0  0  0
   47.0709   18.3291    8.3463 C   0  0  0  0  0  0  0  0  0  0  0  0
   48.0320   10.8297   19.8461 C   0  0  0  0  0  0  0  0  0  0  0  0
   47.9769   12.8930   21.0824 C   0  0  0  0  0  0  0  0  0  0  0  0
   49.8687   14.4447   17.1076 C   0  0  0  0  0  0  0  0  0  0  0  0
   48.1671   11.3145   23.4417 C   0  0  0  0  0  0  0  0  0  0  0  0
   47.9961   15.0375   15.9272 O   0  0  0  0  0  0  0  0  0  0  0  0
   48.1258   14.1770   16.2933 H   0  0  0  0  0  0  0  0  0  0  0  0
   48.1065   14.9078   14.9494 H   0  0  0  0  0  0  0  0  0  0  0  0
   48.6450   19.9502    9.6602 H   0  0  0  0  0  0  0  0  0  0  0  0
   45.3201   16.0869   15.1373 H   0  0  0  0  0  0  0  0  0  0  0  0
   49.6302   17.0853    8.8499 H   0  0  0  0  0  0  0  0  0  0  0  0
   46.2888   13.6732   15.1001 H   0  0  0  0  0  0  0  0  0  0  0  0
   47.8761   15.0684   11.4614 H   0  0  0  0  0  0  0  0  0  0  0  0
   45.8819   15.0916   13.0641 H   0  0  0  0  0  0  0  0  0  0  0  0
   46.4516   18.6558   13.3529 H   0  0  0  0  0  0  0  0  0  0  0  0
   47.5822   20.0200   11.6364 H   0  0  0  0  0  0  0  0  0  0  0  0
   48.1845   14.6764   14.0055 H   0  0  0  0  0  0  0  0  0  0  0  0
   47.9909   16.0872   15.0739 H   0  0  0  0  0  0  0  0  0  0  0  0
   48.3211   14.7267   16.9579 H   0  0  0  0  0  0  0  0  0  0  0  0
   46.1165   12.6442   17.4446 H   0  0  0  0  0  0  0  0  0  0  0  0
   46.1209   14.2630   18.1104 H   0  0  0  0  0  0  0  0  0  0  0  0
   47.1461   10.8639   18.6414 H   0  0  0  0  0  0  0  0  0  0  0  0
   48.2063   14.9340   19.6410 H   0  0  0  0  0  0  0  0  0  0  0  0
   50.0419   14.9799    8.2303 H   0  0  0  0  0  0  0  0  0  0  0  0
   48.4335   10.0723   20.5808 H   0  0  0  0  0  0  0  0  0  0  0  0
   49.4809   14.1285   21.5562 H   0  0  0  0  0  0  0  0  0  0  0  0
   47.8874   11.9314   15.7267 H   0  0  0  0  0  0  0  0  0  0  0  0
   49.1993   12.3935   16.8233 H   0  0  0  0  0  0  0  0  0  0  0  0
   49.1324   13.0821   15.2065 H   0  0  0  0  0  0  0  0  0  0  0  0
   50.4416   11.7237   24.1446 H   0  0  0  0  0  0  0  0  0  0  0  0
   49.1849   12.8769   23.7103 H   0  0  0  0  0  0  0  0  0  0  0  0
   50.8518   13.0252   23.0189 H   0  0  0  0  0  0  0  0  0  0  0  0
   48.5205   16.3038   12.7620 H   0  0  0  0  0  0  0  0  0  0  0  0
   47.6544   13.1247   18.6694 H   0  0  0  0  0  0  0  0  0  0  0  0
   47.4011   15.8127   16.5681 H   0  0  0  0  0  0  0  0  0  0  0  0
   48.7705   13.6164   14.8637 H   0  0  0  0  0  0  0  0  0  0  0  0
   45.7447   19.0164   10.0333 H   0  0  0  0  0  0  0  0  0  0  0  0
   49.8192   16.4648   14.9816 H   0  0  0  0  0  0  0  0  0  0  0  0
   48.5934   17.1024    8.8527 H   0  0  0  0  0  0  0  0  0  0  0  0
   47.3125   14.3331   15.0020 H   0  0  0  0  0  0  0  0  0  0  0  0
   49.3748   16.1908   10.7035 H   0  0  0  0  0  0  0  0  0  0  0  0
   50.2976   15.1939   12.5238 H   0  0  0  0  0  0  0  0  0  0  0  0
   47.4521   16.8429   14.4913 H   0  0  0  0  0  0  0  0  0  0  0  0
   45.7736   18.2484   13.4058 H   0  0  0  0  0  0  0  0  0  0  0  0
   50.0036   13.6851   14.3186 H   0  0  0  0  0  0  0  0  0  0  0  0
   48.5337   13.6197   13.3675 H   0  0  0  0  0  0  0  0  0  0  0  0
   48.9467   12.7413   16.1455 H   0  0  0  0  0  0  0  0  0  0  0  0
   47.1188   14.6960   17.6287 H   0  0  0  0  0  0  0  0  0  0  0  0
   46.6208   13.2097   16.8656 H   0  0  0  0  0  0  0  0  0  0  0  0
   47.7583   10.9696   17.7194 H   0  0  0  0  0  0  0  0  0  0  0  0
   47.6808   14.6754   19.9189 H   0  0  0  0  0  0  0  0  0  0  0  0
   47.4849   18.2225    7.3276 H   0  0  0  0  0  0  0  0  0  0  0  0
   48.1505    9.7476   19.8341 H   0  0  0  0  0  0  0  0  0  0  0  0
   48.0439   13.4666   22.0001 H   0  0  0  0  0  0  0  0  0  0  0  0
   50.7252   14.5075   16.4275 H   0  0  0  0  0  0  0  0  0  0  0  0
   50.1967   13.8898   17.9948 H   0  0  0  0  0  0  0  0  0  0  0  0
   49.6087   15.4637   17.4247 H   0  0  0  0  0  0  0  0  0  0  0  0
   48.9832   12.0257   23.6218 H   0  0  0  0  0  0  0  0  0  0  0  0
   47.1912   11.8036   23.5755 H   0  0  0  0  0  0  0  0  0  0  0  0
   48.2473   10.5190   24.1947 H   0  0  0  0  0  0  0  0  0  0  0  0
   48.0943   14.9654   14.9652 H   0  0  0  0  0  0  0  0  0  0  0  0
   48.1372   14.1357   16.2514 H   0  0  0  0  0  0  0  0  0  0  0  0
  2 10  1  0
  3 12  1  0
  4 19  1  0
  4 26  1  0
  5 22  2  0
  6  9  1  0
  6 22  1  0
  7 15  1  0
  7 17  1  0
  8 11  2  0
  8 12  1  0
  8 13  1  0
  9 10  2  0
  9 11  1  0
 10 14  1  0
 12 15  1  0
 13 14  2  0
 16 18  1  0
 16 20  2  0
 16 21  1  0
 17 18  1  0
 17 25  1  0
 19 23  2  0
 19 24  1  0
 20 23  1  0
 21 24  2  0
 27 31  1  0
 28 32  1  0
 29 31  2  0
 30 32  2  0
 31 33  1  0
 32 34  1  0
 33 34  2  0
 35 43  1  0
 36 45  1  0
 37 52  1  0
 37 59  1  0
 38 55  2  0
 39 42  1  0
 39 55  1  0
 40 48  1  0
 40 50  1  0
 41 44  2  0
 41 45  1  0
 41 46  1  0
 42 43  2  0
 42 44  1  0
 43 47  1  0
 45 48  1  0
 46 47  2  0
 49 51  1  0
 49 53  2  0
 49 54  1  0
 50 51  1  0
 50 58  1  0
 52 56  2  0
 52 57  1  0
 53 56  1  0
 54 57  2  0
  1 61  1  0
  1 62  1  0
  2 63  1  0
  3 64  1  0
  6 65  1  0
  7 66  1  0
 11 67  1  0
 12 68  1  6
 13 69  1  0
 14 70  1  0
 15 71  1  0
 15 72  1  0
 17 73  1  1
 18 74  1  0
 18 75  1  0
 20 76  1  0
 21 77  1  0
 22 78  1  0
 23 79  1  0
 24 80  1  0
 25 81  1  0
 25 82  1  0
 25 83  1  0
 26 84  1  0
 26 85  1  0
 26 86  1  0
 27 87  1  0
 28 88  1  0
 33 89  1  0
 34 90  1  0
 35 91  1  0
 36 92  1  0
 39 93  1  0
 40 94  1  0
 44 95  1  0
 45 96  1  1
 46 97  1  0
 47 98  1  0
 48 99  1  0
 48100  1  0
 50101  1  1
 51102  1  0
 51103  1  0
 53104  1  0
 54105  1  0
 55106  1  0
 56107  1  0
 57108  1  0
 58109  1  0
 58110  1  0
 58111  1  0
 59112  1  0
 59113  1  0
 59114  1  0
 60115  1  0
 60116  1  0
M  END
> <Uni-Dock RESULT> 
ENERGY=   -5.005  LOWER_BOUND=    7.273  UPPER_BOUND=   10.067
INTER + INTRA:          -5.005
INTER:                  -5.005
INTRA:                   0.000
UNBOUND:                 0.000

$$$$
