
     RDKit          3D

116115  0  0  0  0  0  0  0  0999 V2000
   49.7728   10.8152   19.6949 O   0  0  0  0  0  0  0  0  0  0  0  0
   49.9486   16.5449   24.0048 O   0  0  0  0  0  0  0  0  0  0  0  0
   51.6146   12.7060   19.2255 O   0  0  0  0  0  0  0  0  0  0  0  0
   47.6403    3.8227   18.6181 O   0  0  0  0  0  0  0  0  0  0  0  0
   51.3803   17.3856   19.3040 O   0  0  0  0  0  0  0  0  0  0  0  0
   50.6596   17.2968   21.5278 N   0  0  0  0  0  0  0  0  0  0  0  0
   49.2707   11.4986   18.0191 N   0  0  0  0  0  0  0  0  0  0  0  0
   50.3438   13.5815   21.1025 C   0  0  0  0  0  0  0  0  0  0  0  0
   50.4464   15.9245   21.7597 C   0  0  0  0  0  0  0  0  0  0  0  0
   50.0830   15.5555   23.0610 C   0  0  0  0  0  0  0  0  0  0  0  0
   50.5640   14.9351   20.7828 C   0  0  0  0  0  0  0  0  0  0  0  0
   50.4527   12.5033   20.0415 C   0  0  1  0  0  0  0  0  0  0  0  0
   49.9811   13.2407   22.4152 C   0  0  0  0  0  0  0  0  0  0  0  0
   49.8495   14.2249   23.3966 C   0  0  0  0  0  0  0  0  0  0  0  0
   49.1905   12.4417   19.1487 C   0  0  0  0  0  0  0  0  0  0  0  0
   48.0506    7.8940   17.7722 C   0  0  0  0  0  0  0  0  0  0  0  0
   49.2302   10.0837   18.4208 C   0  0  1  0  0  0  0  0  0  0  0  0
   48.2035    9.3739   17.5065 C   0  0  0  0  0  0  0  0  0  0  0  0
   47.8056    5.1327   18.2532 C   0  0  0  0  0  0  0  0  0  0  0  0
   48.5300    6.9617   16.8434 C   0  0  0  0  0  0  0  0  0  0  0  0
   47.4392    7.4287   18.9407 C   0  0  0  0  0  0  0  0  0  0  0  0
   51.0762   17.8994   20.3687 C   0  0  0  0  0  0  0  0  0  0  0  0
   48.4108    5.5887   17.0831 C   0  0  0  0  0  0  0  0  0  0  0  0
   47.3189    6.0577   19.1762 C   0  0  0  0  0  0  0  0  0  0  0  0
   50.6245    9.4520   18.2922 C   0  0  0  0  0  0  0  0  0  0  0  0
   47.9746    2.8441   17.6439 C   0  0  0  0  0  0  0  0  0  0  0  0
   50.7986   12.6339   20.1651 O   0  0  0  0  0  0  0  0  0  0  0  0
   49.8085    8.1634   18.5500 O   0  0  0  0  0  0  0  0  0  0  0  0
   48.8298   13.5426   20.7059 O   0  0  0  0  0  0  0  0  0  0  0  0
   47.7206    8.8382   19.0243 O   0  0  0  0  0  0  0  0  0  0  0  0
   49.4631   12.5939   20.2810 C   0  0  0  0  0  0  0  0  0  0  0  0
   48.9153    9.0615   18.9939 C   0  0  0  0  0  0  0  0  0  0  0  0
   48.8721   11.3215   19.8612 C   0  0  0  0  0  0  0  0  0  0  0  0
   49.5935   10.2940   19.3957 C   0  0  0  0  0  0  0  0  0  0  0  0
   52.8213   16.3287   21.3731 O   0  0  0  0  0  0  0  0  0  0  0  0
   47.6261   14.0724   18.4385 O   0  0  0  0  0  0  0  0  0  0  0  0
   48.6689    3.7712   18.2160 O   0  0  0  0  0  0  0  0  0  0  0  0
   50.2311   13.1437   24.2165 O   0  0  0  0  0  0  0  0  0  0  0  0
   51.5919   14.7204   23.1438 N   0  0  0  0  0  0  0  0  0  0  0  0
   49.0418   11.5828   19.1144 N   0  0  0  0  0  0  0  0  0  0  0  0
   49.2826   14.4561   20.1885 C   0  0  0  0  0  0  0  0  0  0  0  0
   50.9941   14.8896   21.8799 C   0  0  0  0  0  0  0  0  0  0  0  0
   51.6513   15.7303   20.9738 C   0  0  0  0  0  0  0  0  0  0  0  0
   49.8077   14.2699   21.4856 C   0  0  0  0  0  0  0  0  0  0  0  0
   47.9915   13.7591   19.7927 C   0  0  2  0  0  0  0  0  0  0  0  0
   49.9657   15.3103   19.3078 C   0  0  0  0  0  0  0  0  0  0  0  0
   51.1428   15.9517   19.6973 C   0  0  0  0  0  0  0  0  0  0  0  0
   48.0187   12.2128   19.9576 C   0  0  0  0  0  0  0  0  0  0  0  0
   48.0906    7.9068   18.4670 C   0  0  0  0  0  0  0  0  0  0  0  0
   49.1328   10.1182   19.1950 C   0  0  2  0  0  0  0  0  0  0  0  0
   47.8903    9.3957   18.6211 C   0  0  0  0  0  0  0  0  0  0  0  0
   48.5411    5.1339   18.2226 C   0  0  0  0  0  0  0  0  0  0  0  0
   48.9345    7.4019   17.4682 C   0  0  0  0  0  0  0  0  0  0  0  0
   47.4617    7.0074   19.3342 C   0  0  0  0  0  0  0  0  0  0  0  0
   51.1880   13.8994   24.1668 C   0  0  0  0  0  0  0  0  0  0  0  0
   49.1579    6.0241   17.3464 C   0  0  0  0  0  0  0  0  0  0  0  0
   47.6873    5.6344   19.2054 C   0  0  0  0  0  0  0  0  0  0  0  0
   49.4770    9.6528   20.6172 C   0  0  0  0  0  0  0  0  0  0  0  0
   49.7083    3.2392   17.4068 C   0  0  0  0  0  0  0  0  0  0  0  0
   49.7771   10.6336   19.6371 O   0  0  0  0  0  0  0  0  0  0  0  0
   49.0233   11.4292   19.7186 H   0  0  0  0  0  0  0  0  0  0  0  0
   49.3951    9.9942   19.3414 H   0  0  0  0  0  0  0  0  0  0  0  0
   49.6101   16.1363   24.8206 H   0  0  0  0  0  0  0  0  0  0  0  0
   52.2808   13.1515   19.7731 H   0  0  0  0  0  0  0  0  0  0  0  0
   50.4962   17.8835   22.3440 H   0  0  0  0  0  0  0  0  0  0  0  0
   50.1579   11.6902   17.5424 H   0  0  0  0  0  0  0  0  0  0  0  0
   50.8218   15.1974   19.7586 H   0  0  0  0  0  0  0  0  0  0  0  0
   50.6012   11.5390   20.5362 H   0  0  0  0  0  0  0  0  0  0  0  0
   49.7975   12.1999   22.6784 H   0  0  0  0  0  0  0  0  0  0  0  0
   49.5632   13.9359   24.4033 H   0  0  0  0  0  0  0  0  0  0  0  0
   49.0408   13.4254   18.6929 H   0  0  0  0  0  0  0  0  0  0  0  0
   48.2911   12.2477   19.7451 H   0  0  0  0  0  0  0  0  0  0  0  0
   48.8983    9.9863   19.4611 H   0  0  0  0  0  0  0  0  0  0  0  0
   48.4771    9.5218   16.4524 H   0  0  0  0  0  0  0  0  0  0  0  0
   47.2132    9.8383   17.6195 H   0  0  0  0  0  0  0  0  0  0  0  0
   49.0080    7.2972   15.9259 H   0  0  0  0  0  0  0  0  0  0  0  0
   47.0480    8.1263   19.6763 H   0  0  0  0  0  0  0  0  0  0  0  0
   51.1313   18.9921   20.5050 H   0  0  0  0  0  0  0  0  0  0  0  0
   48.8103    4.9068   16.3389 H   0  0  0  0  0  0  0  0  0  0  0  0
   46.8408    5.7070   20.0863 H   0  0  0  0  0  0  0  0  0  0  0  0
   50.6228    8.4207   18.6534 H   0  0  0  0  0  0  0  0  0  0  0  0
   50.9662    9.4434   17.2529 H   0  0  0  0  0  0  0  0  0  0  0  0
   51.3647    9.9945   18.8868 H   0  0  0  0  0  0  0  0  0  0  0  0
   47.7262    1.8605   18.0562 H   0  0  0  0  0  0  0  0  0  0  0  0
   49.0485    2.8591   17.4300 H   0  0  0  0  0  0  0  0  0  0  0  0
   47.3850    2.9835   16.7302 H   0  0  0  0  0  0  0  0  0  0  0  0
   51.0326   13.5316   20.4804 H   0  0  0  0  0  0  0  0  0  0  0  0
   49.2670    7.3818   18.3122 H   0  0  0  0  0  0  0  0  0  0  0  0
   47.7941   11.2653   19.9567 H   0  0  0  0  0  0  0  0  0  0  0  0
   50.6690   10.3264   19.2932 H   0  0  0  0  0  0  0  0  0  0  0  0
   53.1633   16.8509   20.6273 H   0  0  0  0  0  0  0  0  0  0  0  0
   46.7221   13.7446   18.3140 H   0  0  0  0  0  0  0  0  0  0  0  0
   52.4493   15.2526   23.2685 H   0  0  0  0  0  0  0  0  0  0  0  0
   48.9255   11.8970   18.1504 H   0  0  0  0  0  0  0  0  0  0  0  0
   49.2748   13.6258   22.1763 H   0  0  0  0  0  0  0  0  0  0  0  0
   47.1933   14.1660   20.4238 H   0  0  0  0  0  0  0  0  0  0  0  0
   49.5818   15.4837   18.3048 H   0  0  0  0  0  0  0  0  0  0  0  0
   51.6367   16.6127   18.9956 H   0  0  0  0  0  0  0  0  0  0  0  0
   48.1782   11.9639   21.0103 H   0  0  0  0  0  0  0  0  0  0  0  0
   47.0336   11.8304   19.6675 H   0  0  0  0  0  0  0  0  0  0  0  0
   49.9950    9.8514   18.5712 H   0  0  0  0  0  0  0  0  0  0  0  0
   47.6431    9.8072   17.6322 H   0  0  0  0  0  0  0  0  0  0  0  0
   47.0119    9.5798   19.2533 H   0  0  0  0  0  0  0  0  0  0  0  0
   49.4361    8.0838   16.7815 H   0  0  0  0  0  0  0  0  0  0  0  0
   46.8102    7.3670   20.1293 H   0  0  0  0  0  0  0  0  0  0  0  0
   51.8792   13.9842   25.0242 H   0  0  0  0  0  0  0  0  0  0  0  0
   49.8199    5.6834   16.5586 H   0  0  0  0  0  0  0  0  0  0  0  0
   47.1959    4.9448   19.8862 H   0  0  0  0  0  0  0  0  0  0  0  0
   49.8009    8.6065   20.6194 H   0  0  0  0  0  0  0  0  0  0  0  0
   48.6220    9.7331   21.2970 H   0  0  0  0  0  0  0  0  0  0  0  0
   50.3001   10.2461   21.0313 H   0  0  0  0  0  0  0  0  0  0  0  0
   49.7721    2.1676   17.6123 H   0  0  0  0  0  0  0  0  0  0  0  0
   49.4768    3.3583   16.3448 H   0  0  0  0  0  0  0  0  0  0  0  0
   50.6786    3.6852   17.6500 H   0  0  0  0  0  0  0  0  0  0  0  0
   49.0376   10.1086   19.2951 H   0  0  0  0  0  0  0  0  0  0  0  0
   49.3764   11.4964   19.8227 H   0  0  0  0  0  0  0  0  0  0  0  0
  2 10  1  0
  3 12  1  0
  4 19  1  0
  4 26  1  0
  5 22  2  0
  6  9  1  0
  6 22  1  0
  7 15  1  0
  7 17  1  0
  8 11  2  0
  8 12  1  0
  8 13  1  0
  9 10  2  0
  9 11  1  0
 10 14  1  0
 12 15  1  0
 13 14  2  0
 16 18  1  0
 16 20  2  0
 16 21  1  0
 17 18  1  0
 17 25  1  0
 19 23  2  0
 19 24  1  0
 20 23  1  0
 21 24  2  0
 27 31  1  0
 28 32  1  0
 29 31  2  0
 30 32  2  0
 31 33  1  0
 32 34  1  0
 33 34  2  0
 35 43  1  0
 36 45  1  0
 37 52  1  0
 37 59  1  0
 38 55  2  0
 39 42  1  0
 39 55  1  0
 40 48  1  0
 40 50  1  0
 41 44  2  0
 41 45  1  0
 41 46  1  0
 42 43  2  0
 42 44  1  0
 43 47  1  0
 45 48  1  0
 46 47  2  0
 49 51  1  0
 49 53  2  0
 49 54  1  0
 50 51  1  0
 50 58  1  0
 52 56  2  0
 52 57  1  0
 53 56  1  0
 54 57  2  0
  1 61  1  0
  1 62  1  0
  2 63  1  0
  3 64  1  0
  6 65  1  0
  7 66  1  0
 11 67  1  0
 12 68  1  1
 13 69  1  0
 14 70  1  0
 15 71  1  0
 15 72  1  0
 17 73  1  1
 18 74  1  0
 18 75  1  0
 20 76  1  0
 21 77  1  0
 22 78  1  0
 23 79  1  0
 24 80  1  0
 25 81  1  0
 25 82  1  0
 25 83  1  0
 26 84  1  0
 26 85  1  0
 26 86  1  0
 27 87  1  0
 28 88  1  0
 33 89  1  0
 34 90  1  0
 35 91  1  0
 36 92  1  0
 39 93  1  0
 40 94  1  0
 44 95  1  0
 45 96  1  1
 46 97  1  0
 47 98  1  0
 48 99  1  0
 48100  1  0
 50101  1  6
 51102  1  0
 51103  1  0
 53104  1  0
 54105  1  0
 55106  1  0
 56107  1  0
 57108  1  0
 58109  1  0
 58110  1  0
 58111  1  0
 59112  1  0
 59113  1  0
 59114  1  0
 60115  1  0
 60116  1  0
M  END
> <Uni-Dock RESULT> 
ENERGY=   -5.779  LOWER_BOUND=    0.000  UPPER_BOUND=    0.000
INTER + INTRA:          -5.779
INTER:                  -5.779
INTRA:                   0.000
UNBOUND:                 0.000

$$$$

     RDKit          3D

116115  0  0  0  0  0  0  0  0999 V2000
   49.6565    8.4406   15.8332 O   0  0  0  0  0  0  0  0  0  0  0  0
   53.6575   13.2312   19.3656 O   0  0  0  0  0  0  0  0  0  0  0  0
   51.3881    7.5443   17.6734 O   0  0  0  0  0  0  0  0  0  0  0  0
   43.6459    7.0489   11.7665 O   0  0  0  0  0  0  0  0  0  0  0  0
   55.7945    8.7792   18.6823 O   0  0  0  0  0  0  0  0  0  0  0  0
   55.0791   10.9766   19.0459 N   0  0  0  0  0  0  0  0  0  0  0  0
   50.8887    7.4508   14.8187 N   0  0  0  0  0  0  0  0  0  0  0  0
   51.7506    9.9470   17.6514 C   0  0  0  0  0  0  0  0  0  0  0  0
   53.7359   10.9693   18.6235 C   0  0  0  0  0  0  0  0  0  0  0  0
   53.0125   12.1545   18.8068 C   0  0  0  0  0  0  0  0  0  0  0  0
   53.1033    9.8734   18.0354 C   0  0  0  0  0  0  0  0  0  0  0  0
   51.0621    8.7655   16.9955 C   0  0  1  0  0  0  0  0  0  0  0  0
   51.0499   11.1477   17.8474 C   0  0  0  0  0  0  0  0  0  0  0  0
   51.6778   12.2531   18.4243 C   0  0  0  0  0  0  0  0  0  0  0  0
   51.4250    8.6447   15.4962 C   0  0  0  0  0  0  0  0  0  0  0  0
   47.7050    7.0513   12.7579 C   0  0  0  0  0  0  0  0  0  0  0  0
   49.4327    7.4883   14.6102 C   0  0  1  0  0  0  0  0  0  0  0  0
   49.1668    7.0851   13.1403 C   0  0  0  0  0  0  0  0  0  0  0  0
   44.9779    6.9556   12.0722 C   0  0  0  0  0  0  0  0  0  0  0  0
   47.0718    5.8257   12.5156 C   0  0  0  0  0  0  0  0  0  0  0  0
   46.9600    8.2294   12.6446 C   0  0  0  0  0  0  0  0  0  0  0  0
   55.9714    9.9355   19.0310 C   0  0  0  0  0  0  0  0  0  0  0  0
   45.7154    5.7773   12.1771 C   0  0  0  0  0  0  0  0  0  0  0  0
   45.6070    8.1783   12.3038 C   0  0  0  0  0  0  0  0  0  0  0  0
   48.7286    6.5353   15.5879 C   0  0  0  0  0  0  0  0  0  0  0  0
   42.9992    5.8484   11.3679 C   0  0  0  0  0  0  0  0  0  0  0  0
   51.1084    8.7232   17.3803 O   0  0  0  0  0  0  0  0  0  0  0  0
   47.5210    6.8727   14.6820 O   0  0  0  0  0  0  0  0  0  0  0  0
   52.0037   10.3720   16.1660 O   0  0  0  0  0  0  0  0  0  0  0  0
   48.2302    8.4736   13.2771 O   0  0  0  0  0  0  0  0  0  0  0  0
   51.1777    9.4850   16.2787 C   0  0  0  0  0  0  0  0  0  0  0  0
   48.3213    7.8953   14.3425 C   0  0  0  0  0  0  0  0  0  0  0  0
   50.1773    9.1476   15.2639 C   0  0  0  0  0  0  0  0  0  0  0  0
   49.2805    8.1646   15.4139 C   0  0  0  0  0  0  0  0  0  0  0  0
   53.9838    9.5390   20.5846 O   0  0  0  0  0  0  0  0  0  0  0  0
   53.3557    9.2087   14.2451 O   0  0  0  0  0  0  0  0  0  0  0  0
   43.6148    6.1830   12.4532 O   0  0  0  0  0  0  0  0  0  0  0  0
   50.3570   12.5011   18.8497 O   0  0  0  0  0  0  0  0  0  0  0  0
   52.0371   11.2742   19.9268 N   0  0  0  0  0  0  0  0  0  0  0  0
   50.6433    8.4982   15.1379 N   0  0  0  0  0  0  0  0  0  0  0  0
   52.9801    9.9173   16.5496 C   0  0  0  0  0  0  0  0  0  0  0  0
   52.6641   10.5605   18.8872 C   0  0  0  0  0  0  0  0  0  0  0  0
   53.6739    9.6623   19.2523 C   0  0  0  0  0  0  0  0  0  0  0  0
   52.3343   10.6915   17.5377 C   0  0  0  0  0  0  0  0  0  0  0  0
   52.5893   10.0826   15.0904 C   0  0  2  0  0  0  0  0  0  0  0  0
   53.9917    9.0303   16.9517 C   0  0  0  0  0  0  0  0  0  0  0  0
   54.3445    8.9048   18.2965 C   0  0  0  0  0  0  0  0  0  0  0  0
   51.0778    9.8589   14.8001 C   0  0  0  0  0  0  0  0  0  0  0  0
   47.4911    7.6130   13.1088 C   0  0  0  0  0  0  0  0  0  0  0  0
   49.2287    8.1904   14.8846 C   0  0  2  0  0  0  0  0  0  0  0  0
   48.8655    8.1771   13.3804 C   0  0  0  0  0  0  0  0  0  0  0  0
   44.9096    6.5591   12.6886 C   0  0  0  0  0  0  0  0  0  0  0  0
   47.2433    6.2412   13.2544 C   0  0  0  0  0  0  0  0  0  0  0  0
   46.4353    8.4513   12.7357 C   0  0  0  0  0  0  0  0  0  0  0  0
   50.9812   12.1463   19.8364 C   0  0  0  0  0  0  0  0  0  0  0  0
   45.9608    5.7173   13.0450 C   0  0  0  0  0  0  0  0  0  0  0  0
   45.1593    7.9217   12.5263 C   0  0  0  0  0  0  0  0  0  0  0  0
   48.2997    9.0976   15.7042 C   0  0  0  0  0  0  0  0  0  0  0  0
   43.2599    4.8643   12.8450 C   0  0  0  0  0  0  0  0  0  0  0  0
   49.5035    8.3495   15.7653 O   0  0  0  0  0  0  0  0  0  0  0  0
   50.3078    8.9767   15.3560 H   0  0  0  0  0  0  0  0  0  0  0  0
   49.0369    8.1523   15.1443 H   0  0  0  0  0  0  0  0  0  0  0  0
   53.0490   13.9903   19.3412 H   0  0  0  0  0  0  0  0  0  0  0  0
   51.5610    7.7645   18.6028 H   0  0  0  0  0  0  0  0  0  0  0  0
   55.3888   11.8712   19.4214 H   0  0  0  0  0  0  0  0  0  0  0  0
   51.1256    6.6486   15.4116 H   0  0  0  0  0  0  0  0  0  0  0  0
   53.6493    8.9485   17.8600 H   0  0  0  0  0  0  0  0  0  0  0  0
   49.9803    8.8863   17.1039 H   0  0  0  0  0  0  0  0  0  0  0  0
   50.0057   11.2260   17.5477 H   0  0  0  0  0  0  0  0  0  0  0  0
   51.1153   13.1719   18.5607 H   0  0  0  0  0  0  0  0  0  0  0  0
   52.5128    8.5613   15.4093 H   0  0  0  0  0  0  0  0  0  0  0  0
   51.1490    9.5522   14.9463 H   0  0  0  0  0  0  0  0  0  0  0  0
   49.0449    8.5010   14.7708 H   0  0  0  0  0  0  0  0  0  0  0  0
   49.6129    6.1015   12.9363 H   0  0  0  0  0  0  0  0  0  0  0  0
   49.6748    7.7835   12.4597 H   0  0  0  0  0  0  0  0  0  0  0  0
   47.6289    4.8950   12.5953 H   0  0  0  0  0  0  0  0  0  0  0  0
   47.4243    9.1966   12.8165 H   0  0  0  0  0  0  0  0  0  0  0  0
   56.9508   10.2668   19.4139 H   0  0  0  0  0  0  0  0  0  0  0  0
   45.2677    4.8021   12.0125 H   0  0  0  0  0  0  0  0  0  0  0  0
   45.0379    9.0995   12.2169 H   0  0  0  0  0  0  0  0  0  0  0  0
   47.6425    6.6056   15.4906 H   0  0  0  0  0  0  0  0  0  0  0  0
   49.0153    5.4946   15.4096 H   0  0  0  0  0  0  0  0  0  0  0  0
   48.9699    6.7791   16.6262 H   0  0  0  0  0  0  0  0  0  0  0  0
   41.9683    6.0965   11.0943 H   0  0  0  0  0  0  0  0  0  0  0  0
   42.9658    5.1313   12.1949 H   0  0  0  0  0  0  0  0  0  0  0  0
   43.4856    5.4157   10.4857 H   0  0  0  0  0  0  0  0  0  0  0  0
   51.8278    9.0696   17.9482 H   0  0  0  0  0  0  0  0  0  0  0  0
   46.9193    6.7722   13.9148 H   0  0  0  0  0  0  0  0  0  0  0  0
   50.2101    9.7587   14.3696 H   0  0  0  0  0  0  0  0  0  0  0  0
   49.2278    7.5436   16.2969 H   0  0  0  0  0  0  0  0  0  0  0  0
   54.6766    8.8620   20.6722 H   0  0  0  0  0  0  0  0  0  0  0  0
   53.1843    9.4876   13.3324 H   0  0  0  0  0  0  0  0  0  0  0  0
   52.4060   11.0649   20.8511 H   0  0  0  0  0  0  0  0  0  0  0  0
   51.2592    7.8240   14.6822 H   0  0  0  0  0  0  0  0  0  0  0  0
   51.5649   11.3916   17.2313 H   0  0  0  0  0  0  0  0  0  0  0  0
   52.8571   11.1030   14.7935 H   0  0  0  0  0  0  0  0  0  0  0  0
   54.5163    8.4270   16.2140 H   0  0  0  0  0  0  0  0  0  0  0  0
   55.1375    8.2191   18.5688 H   0  0  0  0  0  0  0  0  0  0  0  0
   50.4903   10.6000   15.3491 H   0  0  0  0  0  0  0  0  0  0  0  0
   50.9164   10.0286   13.7295 H   0  0  0  0  0  0  0  0  0  0  0  0
   49.0836    7.1753   15.2749 H   0  0  0  0  0  0  0  0  0  0  0  0
   49.5950    7.5700   12.8257 H   0  0  0  0  0  0  0  0  0  0  0  0
   48.9317    9.1887   12.9594 H   0  0  0  0  0  0  0  0  0  0  0  0
   48.0504    5.5688   13.5453 H   0  0  0  0  0  0  0  0  0  0  0  0
   46.5905    9.5236   12.6266 H   0  0  0  0  0  0  0  0  0  0  0  0
   50.7130   12.5312   20.8365 H   0  0  0  0  0  0  0  0  0  0  0  0
   45.8200    4.6501   13.1712 H   0  0  0  0  0  0  0  0  0  0  0  0
   44.3457    8.5822   12.2395 H   0  0  0  0  0  0  0  0  0  0  0  0
   47.2788    8.7009   15.7201 H   0  0  0  0  0  0  0  0  0  0  0  0
   48.2505   10.1138   15.2988 H   0  0  0  0  0  0  0  0  0  0  0  0
   48.6374    9.1605   16.7449 H   0  0  0  0  0  0  0  0  0  0  0  0
   42.1786    4.7627   12.7234 H   0  0  0  0  0  0  0  0  0  0  0  0
   43.7359    4.1228   12.1975 H   0  0  0  0  0  0  0  0  0  0  0  0
   43.4977    4.6774   13.8976 H   0  0  0  0  0  0  0  0  0  0  0  0
   49.1980    8.3198   14.8459 H   0  0  0  0  0  0  0  0  0  0  0  0
   50.2999    8.9002   15.7223 H   0  0  0  0  0  0  0  0  0  0  0  0
  2 10  1  0
  3 12  1  0
  4 19  1  0
  4 26  1  0
  5 22  2  0
  6  9  1  0
  6 22  1  0
  7 15  1  0
  7 17  1  0
  8 11  2  0
  8 12  1  0
  8 13  1  0
  9 10  2  0
  9 11  1  0
 10 14  1  0
 12 15  1  0
 13 14  2  0
 16 18  1  0
 16 20  2  0
 16 21  1  0
 17 18  1  0
 17 25  1  0
 19 23  2  0
 19 24  1  0
 20 23  1  0
 21 24  2  0
 27 31  1  0
 28 32  1  0
 29 31  2  0
 30 32  2  0
 31 33  1  0
 32 34  1  0
 33 34  2  0
 35 43  1  0
 36 45  1  0
 37 52  1  0
 37 59  1  0
 38 55  2  0
 39 42  1  0
 39 55  1  0
 40 48  1  0
 40 50  1  0
 41 44  2  0
 41 45  1  0
 41 46  1  0
 42 43  2  0
 42 44  1  0
 43 47  1  0
 45 48  1  0
 46 47  2  0
 49 51  1  0
 49 53  2  0
 49 54  1  0
 50 51  1  0
 50 58  1  0
 52 56  2  0
 52 57  1  0
 53 56  1  0
 54 57  2  0
  1 61  1  0
  1 62  1  0
  2 63  1  0
  3 64  1  0
  6 65  1  0
  7 66  1  0
 11 67  1  0
 12 68  1  1
 13 69  1  0
 14 70  1  0
 15 71  1  0
 15 72  1  0
 17 73  1  1
 18 74  1  0
 18 75  1  0
 20 76  1  0
 21 77  1  0
 22 78  1  0
 23 79  1  0
 24 80  1  0
 25 81  1  0
 25 82  1  0
 25 83  1  0
 26 84  1  0
 26 85  1  0
 26 86  1  0
 27 87  1  0
 28 88  1  0
 33 89  1  0
 34 90  1  0
 35 91  1  0
 36 92  1  0
 39 93  1  0
 40 94  1  0
 44 95  1  0
 45 96  1  1
 46 97  1  0
 47 98  1  0
 48 99  1  0
 48100  1  0
 50101  1  6
 51102  1  0
 51103  1  0
 53104  1  0
 54105  1  0
 55106  1  0
 56107  1  0
 57108  1  0
 58109  1  0
 58110  1  0
 58111  1  0
 59112  1  0
 59113  1  0
 59114  1  0
 60115  1  0
 60116  1  0
M  END
> <Uni-Dock RESULT> 
ENERGY=   -5.656  LOWER_BOUND=    4.160  UPPER_BOUND=    6.262
INTER + INTRA:          -5.656
INTER:                  -5.656
INTRA:                   0.000
UNBOUND:                 0.000

$$$$

     RDKit          3D

116115  0  0  0  0  0  0  0  0999 V2000
   49.2693    8.4390   14.1767 O   0  0  0  0  0  0  0  0  0  0  0  0
   47.9317    3.4365   19.1388 O   0  0  0  0  0  0  0  0  0  0  0  0
   51.3240    6.9958   15.1166 O   0  0  0  0  0  0  0  0  0  0  0  0
   46.6952   12.8058    8.8002 O   0  0  0  0  0  0  0  0  0  0  0  0
   52.4248    5.5747   19.4441 O   0  0  0  0  0  0  0  0  0  0  0  0
   50.3575    4.4906   19.5975 N   0  0  0  0  0  0  0  0  0  0  0  0
   50.3222    9.7163   15.0640 N   0  0  0  0  0  0  0  0  0  0  0  0
   49.4154    6.1915   16.3875 C   0  0  0  0  0  0  0  0  0  0  0  0
   49.6713    4.9056   18.4401 C   0  0  0  0  0  0  0  0  0  0  0  0
   48.4108    4.3369   18.2183 C   0  0  0  0  0  0  0  0  0  0  0  0
   50.1630    5.8401   17.5279 C   0  0  0  0  0  0  0  0  0  0  0  0
   49.9362    7.2194   15.4016 C   0  0  1  0  0  0  0  0  0  0  0  0
   48.1551    5.6052   16.1905 C   0  0  0  0  0  0  0  0  0  0  0  0
   47.6497    4.6781   17.1038 C   0  0  0  0  0  0  0  0  0  0  0  0
   49.7336    8.6655   15.9134 C   0  0  0  0  0  0  0  0  0  0  0  0
   48.6987   11.8263   12.3337 C   0  0  0  0  0  0  0  0  0  0  0  0
   49.6158    9.9162   13.7890 C   0  0  1  0  0  0  0  0  0  0  0  0
   49.3998   11.4384   13.6153 C   0  0  0  0  0  0  0  0  0  0  0  0
   47.4271   12.5350    9.9260 C   0  0  0  0  0  0  0  0  0  0  0  0
   49.4067   12.4800   11.3174 C   0  0  0  0  0  0  0  0  0  0  0  0
   47.3445   11.5389   12.1351 C   0  0  0  0  0  0  0  0  0  0  0  0
   51.6171    4.8499   20.0030 C   0  0  0  0  0  0  0  0  0  0  0  0
   48.7757   12.8303   10.1191 C   0  0  0  0  0  0  0  0  0  0  0  0
   46.7165   11.8923   10.9391 C   0  0  0  0  0  0  0  0  0  0  0  0
   50.4338    9.3312   12.6279 C   0  0  0  0  0  0  0  0  0  0  0  0
   47.3284   13.5981    7.8053 C   0  0  0  0  0  0  0  0  0  0  0  0
   50.1094    6.8717   15.3681 O   0  0  0  0  0  0  0  0  0  0  0  0
   49.3621   10.0812   11.8023 O   0  0  0  0  0  0  0  0  0  0  0  0
   48.7044    7.4393   17.0109 O   0  0  0  0  0  0  0  0  0  0  0  0
   47.8618   10.8464   13.2865 O   0  0  0  0  0  0  0  0  0  0  0  0
   49.1506    7.6459   15.8973 C   0  0  0  0  0  0  0  0  0  0  0  0
   48.7199   10.0416   12.9802 C   0  0  0  0  0  0  0  0  0  0  0  0
   48.7094    8.7265   15.0129 C   0  0  0  0  0  0  0  0  0  0  0  0
   49.2193    8.9316   13.7919 C   0  0  0  0  0  0  0  0  0  0  0  0
   51.5972    3.5484   17.8060 O   0  0  0  0  0  0  0  0  0  0  0  0
   49.6790    9.6262   18.0779 O   0  0  0  0  0  0  0  0  0  0  0  0
   47.6323   12.4567    8.3285 O   0  0  0  0  0  0  0  0  0  0  0  0
   47.0138    4.2090   15.9367 O   0  0  0  0  0  0  0  0  0  0  0  0
   49.0964    3.5963   16.8174 N   0  0  0  0  0  0  0  0  0  0  0  0
   49.4214    9.0613   15.2015 N   0  0  0  0  0  0  0  0  0  0  0  0
   49.6198    7.2227   17.6607 C   0  0  0  0  0  0  0  0  0  0  0  0
   49.6517    4.8099   17.2671 C   0  0  0  0  0  0  0  0  0  0  0  0
   50.9546    4.7619   17.7769 C   0  0  0  0  0  0  0  0  0  0  0  0
   48.9891    6.0372   17.2257 C   0  0  0  0  0  0  0  0  0  0  0  0
   48.8688    8.5422   17.5941 C   0  0  2  0  0  0  0  0  0  0  0  0
   50.9252    7.1362   18.1709 C   0  0  0  0  0  0  0  0  0  0  0  0
   51.5914    5.9111   18.2361 C   0  0  0  0  0  0  0  0  0  0  0  0
   48.3373    8.9089   16.1792 C   0  0  0  0  0  0  0  0  0  0  0  0
   48.2360   11.3071   12.3052 C   0  0  0  0  0  0  0  0  0  0  0  0
   49.0138    9.4208   13.8360 C   0  0  2  0  0  0  0  0  0  0  0  0
   48.4132   10.8433   13.7315 C   0  0  0  0  0  0  0  0  0  0  0  0
   47.9258   12.0919    9.6147 C   0  0  0  0  0  0  0  0  0  0  0  0
   49.3492   11.6418   11.5222 C   0  0  0  0  0  0  0  0  0  0  0  0
   46.9625   11.3836   11.7315 C   0  0  0  0  0  0  0  0  0  0  0  0
   47.8804    3.3956   16.2136 C   0  0  0  0  0  0  0  0  0  0  0  0
   49.1951   12.0324   10.1855 C   0  0  0  0  0  0  0  0  0  0  0  0
   46.8162   11.7761   10.3985 C   0  0  0  0  0  0  0  0  0  0  0  0
   48.0991    8.3514   13.2216 C   0  0  0  0  0  0  0  0  0  0  0  0
   48.7304   12.5431    7.4313 C   0  0  0  0  0  0  0  0  0  0  0  0
   49.2621    8.5357   14.0127 O   0  0  0  0  0  0  0  0  0  0  0  0
   48.9384    8.6968   15.0505 H   0  0  0  0  0  0  0  0  0  0  0  0
   49.0454    9.1921   13.6073 H   0  0  0  0  0  0  0  0  0  0  0  0
   47.0201    3.2071   18.8867 H   0  0  0  0  0  0  0  0  0  0  0  0
   51.4923    6.0451   15.2171 H   0  0  0  0  0  0  0  0  0  0  0  0
   49.8374    3.8286   20.1705 H   0  0  0  0  0  0  0  0  0  0  0  0
   51.2885    9.4303   14.8749 H   0  0  0  0  0  0  0  0  0  0  0  0
   51.1291    6.3145   17.6891 H   0  0  0  0  0  0  0  0  0  0  0  0
   49.4123    7.0888   14.4501 H   0  0  0  0  0  0  0  0  0  0  0  0
   47.5586    5.8722   15.3192 H   0  0  0  0  0  0  0  0  0  0  0  0
   46.6702    4.2426   16.9313 H   0  0  0  0  0  0  0  0  0  0  0  0
   50.2346    8.7631   16.8816 H   0  0  0  0  0  0  0  0  0  0  0  0
   48.6740    8.8755   16.1016 H   0  0  0  0  0  0  0  0  0  0  0  0
   48.6364    9.4239   13.8079 H   0  0  0  0  0  0  0  0  0  0  0  0
   50.3652   11.9610   13.6672 H   0  0  0  0  0  0  0  0  0  0  0  0
   48.8078   11.8336   14.4534 H   0  0  0  0  0  0  0  0  0  0  0  0
   50.4602   12.7166   11.4473 H   0  0  0  0  0  0  0  0  0  0  0  0
   46.7649   11.0416   12.9080 H   0  0  0  0  0  0  0  0  0  0  0  0
   51.8617    4.3656   20.9628 H   0  0  0  0  0  0  0  0  0  0  0  0
   49.3712   13.3233    9.3570 H   0  0  0  0  0  0  0  0  0  0  0  0
   45.6638   11.6659   10.7957 H   0  0  0  0  0  0  0  0  0  0  0  0
   49.8884    9.4111   11.6843 H   0  0  0  0  0  0  0  0  0  0  0  0
   51.3891    9.8509   12.5088 H   0  0  0  0  0  0  0  0  0  0  0  0
   50.6438    8.2693   12.7830 H   0  0  0  0  0  0  0  0  0  0  0  0
   46.6004   13.7823    7.0083 H   0  0  0  0  0  0  0  0  0  0  0  0
   48.1801   13.0662    7.3682 H   0  0  0  0  0  0  0  0  0  0  0  0
   47.6327   14.5692    8.2129 H   0  0  0  0  0  0  0  0  0  0  0  0
   50.2886    6.2114   16.0694 H   0  0  0  0  0  0  0  0  0  0  0  0
   48.9612   10.8435   11.3343 H   0  0  0  0  0  0  0  0  0  0  0  0
   47.9274    9.3577   15.4184 H   0  0  0  0  0  0  0  0  0  0  0  0
   49.9979    8.3146   13.3662 H   0  0  0  0  0  0  0  0  0  0  0  0
   52.4932    3.6894   18.1570 H   0  0  0  0  0  0  0  0  0  0  0  0
   49.0897   10.3906   18.1711 H   0  0  0  0  0  0  0  0  0  0  0  0
   49.7125    2.7950   16.9290 H   0  0  0  0  0  0  0  0  0  0  0  0
   50.1169    9.7127   15.5670 H   0  0  0  0  0  0  0  0  0  0  0  0
   47.9743    6.0949   16.8476 H   0  0  0  0  0  0  0  0  0  0  0  0
   48.0181    8.4695   18.2813 H   0  0  0  0  0  0  0  0  0  0  0  0
   51.4355    8.0295   18.5245 H   0  0  0  0  0  0  0  0  0  0  0  0
   52.5934    5.8803   18.6464 H   0  0  0  0  0  0  0  0  0  0  0  0
   47.6251    8.1466   15.8513 H   0  0  0  0  0  0  0  0  0  0  0  0
   47.7975    9.8589   16.2630 H   0  0  0  0  0  0  0  0  0  0  0  0
   49.9399    9.4026   13.2480 H   0  0  0  0  0  0  0  0  0  0  0  0
   49.0687   11.5634   14.2416 H   0  0  0  0  0  0  0  0  0  0  0  0
   47.4476   10.8925   14.2514 H   0  0  0  0  0  0  0  0  0  0  0  0
   50.3514   11.5888   11.9476 H   0  0  0  0  0  0  0  0  0  0  0  0
   46.0777   11.1180   12.3080 H   0  0  0  0  0  0  0  0  0  0  0  0
   47.7445    2.3274   15.9672 H   0  0  0  0  0  0  0  0  0  0  0  0
   50.0869   12.2800    9.6214 H   0  0  0  0  0  0  0  0  0  0  0  0
   45.8226   11.8293    9.9619 H   0  0  0  0  0  0  0  0  0  0  0  0
   48.0149    8.4839   12.1375 H   0  0  0  0  0  0  0  0  0  0  0  0
   47.0860    8.3859   13.6360 H   0  0  0  0  0  0  0  0  0  0  0  0
   48.5050    7.3480   13.3933 H   0  0  0  0  0  0  0  0  0  0  0  0
   48.3265   12.7045    6.4286 H   0  0  0  0  0  0  0  0  0  0  0  0
   49.3660   13.3994    7.6729 H   0  0  0  0  0  0  0  0  0  0  0  0
   49.3115   11.6149    7.4129 H   0  0  0  0  0  0  0  0  0  0  0  0
   48.8785    9.4134   13.8646 H   0  0  0  0  0  0  0  0  0  0  0  0
   49.1123    8.3787   14.9573 H   0  0  0  0  0  0  0  0  0  0  0  0
  2 10  1  0
  3 12  1  0
  4 19  1  0
  4 26  1  0
  5 22  2  0
  6  9  1  0
  6 22  1  0
  7 15  1  0
  7 17  1  0
  8 11  2  0
  8 12  1  0
  8 13  1  0
  9 10  2  0
  9 11  1  0
 10 14  1  0
 12 15  1  0
 13 14  2  0
 16 18  1  0
 16 20  2  0
 16 21  1  0
 17 18  1  0
 17 25  1  0
 19 23  2  0
 19 24  1  0
 20 23  1  0
 21 24  2  0
 27 31  1  0
 28 32  1  0
 29 31  2  0
 30 32  2  0
 31 33  1  0
 32 34  1  0
 33 34  2  0
 35 43  1  0
 36 45  1  0
 37 52  1  0
 37 59  1  0
 38 55  2  0
 39 42  1  0
 39 55  1  0
 40 48  1  0
 40 50  1  0
 41 44  2  0
 41 45  1  0
 41 46  1  0
 42 43  2  0
 42 44  1  0
 43 47  1  0
 45 48  1  0
 46 47  2  0
 49 51  1  0
 49 53  2  0
 49 54  1  0
 50 51  1  0
 50 58  1  0
 52 56  2  0
 52 57  1  0
 53 56  1  0
 54 57  2  0
  1 61  1  0
  1 62  1  0
  2 63  1  0
  3 64  1  0
  6 65  1  0
  7 66  1  0
 11 67  1  0
 12 68  1  1
 13 69  1  0
 14 70  1  0
 15 71  1  0
 15 72  1  0
 17 73  1  1
 18 74  1  0
 18 75  1  0
 20 76  1  0
 21 77  1  0
 22 78  1  0
 23 79  1  0
 24 80  1  0
 25 81  1  0
 25 82  1  0
 25 83  1  0
 26 84  1  0
 26 85  1  0
 26 86  1  0
 27 87  1  0
 28 88  1  0
 33 89  1  0
 34 90  1  0
 35 91  1  0
 36 92  1  0
 39 93  1  0
 40 94  1  0
 44 95  1  0
 45 96  1  1
 46 97  1  0
 47 98  1  0
 48 99  1  0
 48100  1  0
 50101  1  6
 51102  1  0
 51103  1  0
 53104  1  0
 54105  1  0
 55106  1  0
 56107  1  0
 57108  1  0
 58109  1  0
 58110  1  0
 58111  1  0
 59112  1  0
 59113  1  0
 59114  1  0
 60115  1  0
 60116  1  0
M  END
> <Uni-Dock RESULT> 
ENERGY=   -5.498  LOWER_BOUND=    5.237  UPPER_BOUND=    9.339
INTER + INTRA:          -5.498
INTER:                  -5.498
INTRA:                   0.000
UNBOUND:                 0.000

$$$$

     RDKit          3D

116115  0  0  0  0  0  0  0  0999 V2000
   49.4882   12.3233   18.1007 O   0  0  0  0  0  0  0  0  0  0  0  0
   50.3447   19.3249   16.8045 O   0  0  0  0  0  0  0  0  0  0  0  0
   51.1684   13.0605   16.1459 O   0  0  0  0  0  0  0  0  0  0  0  0
   47.3426    7.0111   22.7676 O   0  0  0  0  0  0  0  0  0  0  0  0
   50.8523   16.3574   12.8308 O   0  0  0  0  0  0  0  0  0  0  0  0
   50.5630   17.9786   14.4923 N   0  0  0  0  0  0  0  0  0  0  0  0
   48.6665   11.6520   16.5510 N   0  0  0  0  0  0  0  0  0  0  0  0
   50.2530   15.1619   16.9529 C   0  0  0  0  0  0  0  0  0  0  0  0
   50.4264   17.2288   15.6763 C   0  0  0  0  0  0  0  0  0  0  0  0
   50.3212   17.9527   16.8706 C   0  0  0  0  0  0  0  0  0  0  0  0
   50.3803   15.8350   15.7226 C   0  0  0  0  0  0  0  0  0  0  0  0
   50.1845   13.6478   17.0085 C   0  0  1  0  0  0  0  0  0  0  0  0
   50.1500   15.9132   18.1343 C   0  0  0  0  0  0  0  0  0  0  0  0
   50.1834   17.3084   18.0968 C   0  0  0  0  0  0  0  0  0  0  0  0
   48.7790   13.1190   16.6356 C   0  0  0  0  0  0  0  0  0  0  0  0
   47.4996    9.1492   19.1811 C   0  0  0  0  0  0  0  0  0  0  0  0
   48.7324   10.9738   17.8551 C   0  0  1  0  0  0  0  0  0  0  0  0
   47.5682    9.9560   17.9049 C   0  0  0  0  0  0  0  0  0  0  0  0
   47.4085    7.6286   21.5465 C   0  0  0  0  0  0  0  0  0  0  0  0
   47.8165    7.7851   19.1660 C   0  0  0  0  0  0  0  0  0  0  0  0
   47.1280    9.7421   20.3919 C   0  0  0  0  0  0  0  0  0  0  0  0
   50.7420   17.5104   13.2160 C   0  0  0  0  0  0  0  0  0  0  0  0
   47.7739    7.0290   20.3423 C   0  0  0  0  0  0  0  0  0  0  0  0
   47.0835    8.9845   21.5639 C   0  0  0  0  0  0  0  0  0  0  0  0
   50.0912   10.2783   18.0272 C   0  0  0  0  0  0  0  0  0  0  0  0
   47.5095    5.6003   22.7767 C   0  0  0  0  0  0  0  0  0  0  0  0
   50.5445   13.7840   16.9467 O   0  0  0  0  0  0  0  0  0  0  0  0
   49.3658    9.6780   19.2544 O   0  0  0  0  0  0  0  0  0  0  0  0
   48.6927   15.0351   16.9328 O   0  0  0  0  0  0  0  0  0  0  0  0
   47.3897   10.7353   19.3830 O   0  0  0  0  0  0  0  0  0  0  0  0
   49.2555   14.0022   17.2459 C   0  0  0  0  0  0  0  0  0  0  0  0
   48.5525   10.7213   19.0283 C   0  0  0  0  0  0  0  0  0  0  0  0
   48.6239   12.8997   17.9740 C   0  0  0  0  0  0  0  0  0  0  0  0
   49.2673   11.7728   18.3045 C   0  0  0  0  0  0  0  0  0  0  0  0
   52.6777   16.9400   14.7810 O   0  0  0  0  0  0  0  0  0  0  0  0
   47.0746   13.9195   15.1985 O   0  0  0  0  0  0  0  0  0  0  0  0
   48.2786    6.5623   22.3869 O   0  0  0  0  0  0  0  0  0  0  0  0
   50.7349   17.1077   19.3783 O   0  0  0  0  0  0  0  0  0  0  0  0
   51.8365   17.2552   17.3160 N   0  0  0  0  0  0  0  0  0  0  0  0
   48.6451   12.5230   17.2582 N   0  0  0  0  0  0  0  0  0  0  0  0
   49.0209   15.2360   15.8562 C   0  0  0  0  0  0  0  0  0  0  0  0
   51.0091   16.5380   16.4305 C   0  0  0  0  0  0  0  0  0  0  0  0
   51.4668   16.3854   15.1163 C   0  0  0  0  0  0  0  0  0  0  0  0
   49.7835   15.9743   16.7869 C   0  0  0  0  0  0  0  0  0  0  0  0
   47.6938   14.6309   16.2829 C   0  0  2  0  0  0  0  0  0  0  0  0
   49.5085   15.1078   14.5456 C   0  0  0  0  0  0  0  0  0  0  0  0
   50.7236   15.6840   14.1714 C   0  0  0  0  0  0  0  0  0  0  0  0
   47.7847   13.6844   17.5137 C   0  0  0  0  0  0  0  0  0  0  0  0
   47.6687    9.6513   19.6325 C   0  0  0  0  0  0  0  0  0  0  0  0
   48.7810   11.5643   18.3639 C   0  0  2  0  0  0  0  0  0  0  0  0
   47.4688   10.8082   18.6826 C   0  0  0  0  0  0  0  0  0  0  0  0
   48.1250    7.5180   21.4192 C   0  0  0  0  0  0  0  0  0  0  0  0
   48.3214    8.4860   19.2074 C   0  0  0  0  0  0  0  0  0  0  0  0
   47.2328    9.7323   20.9592 C   0  0  0  0  0  0  0  0  0  0  0  0
   51.6491   17.4743   18.6579 C   0  0  0  0  0  0  0  0  0  0  0  0
   48.5476    7.4257   20.0949 C   0  0  0  0  0  0  0  0  0  0  0  0
   47.4598    8.6700   21.8382 C   0  0  0  0  0  0  0  0  0  0  0  0
   49.3953   12.2228   19.6076 C   0  0  0  0  0  0  0  0  0  0  0  0
   49.1593    5.4905   22.0807 C   0  0  0  0  0  0  0  0  0  0  0  0
   49.4855   12.1568   18.1934 O   0  0  0  0  0  0  0  0  0  0  0  0
   48.7433   12.8530   17.7783 H   0  0  0  0  0  0  0  0  0  0  0  0
   49.0687   11.5523   18.5146 H   0  0  0  0  0  0  0  0  0  0  0  0
   50.1738   19.6706   17.6981 H   0  0  0  0  0  0  0  0  0  0  0  0
   51.9157   13.6778   16.0939 H   0  0  0  0  0  0  0  0  0  0  0  0
   50.5427   18.9863   14.6374 H   0  0  0  0  0  0  0  0  0  0  0  0
   49.4445   11.3338   15.9639 H   0  0  0  0  0  0  0  0  0  0  0  0
   50.4360   15.2493   14.8070 H   0  0  0  0  0  0  0  0  0  0  0  0
   50.4437   13.3226   18.0203 H   0  0  0  0  0  0  0  0  0  0  0  0
   50.0414   15.4099   19.0941 H   0  0  0  0  0  0  0  0  0  0  0  0
   50.0970   17.8667   19.0241 H   0  0  0  0  0  0  0  0  0  0  0  0
   48.5256   13.4857   15.6360 H   0  0  0  0  0  0  0  0  0  0  0  0
   48.0116   13.5229   17.3065 H   0  0  0  0  0  0  0  0  0  0  0  0
   48.6034   11.6931   18.6722 H   0  0  0  0  0  0  0  0  0  0  0  0
   47.6363    9.2684   17.0501 H   0  0  0  0  0  0  0  0  0  0  0  0
   46.6068   10.4763   17.7858 H   0  0  0  0  0  0  0  0  0  0  0  0
   48.1069    7.2994   18.2374 H   0  0  0  0  0  0  0  0  0  0  0  0
   46.8666   10.7959   20.4352 H   0  0  0  0  0  0  0  0  0  0  0  0
   50.7982   18.3514   12.5054 H   0  0  0  0  0  0  0  0  0  0  0  0
   48.0415    5.9788   20.2807 H   0  0  0  0  0  0  0  0  0  0  0  0
   46.7919    9.4544   22.4988 H   0  0  0  0  0  0  0  0  0  0  0  0
   50.1794    9.8296   19.0196 H   0  0  0  0  0  0  0  0  0  0  0  0
   50.2324    9.4856   17.2863 H   0  0  0  0  0  0  0  0  0  0  0  0
   50.9179   10.9869   17.9256 H   0  0  0  0  0  0  0  0  0  0  0  0
   47.3640    5.2510   23.8042 H   0  0  0  0  0  0  0  0  0  0  0  0
   48.5238    5.3265   22.4675 H   0  0  0  0  0  0  0  0  0  0  0  0
   46.7564    5.1126   22.1466 H   0  0  0  0  0  0  0  0  0  0  0  0
   50.8141   14.5978   16.4722 H   0  0  0  0  0  0  0  0  0  0  0  0
   48.8064    9.0368   19.7408 H   0  0  0  0  0  0  0  0  0  0  0  0
   47.5843   13.0608   18.2342 H   0  0  0  0  0  0  0  0  0  0  0  0
   50.3036   11.5907   18.0573 H   0  0  0  0  0  0  0  0  0  0  0  0
   52.8627   16.7222   13.8513 H   0  0  0  0  0  0  0  0  0  0  0  0
   46.1705   13.7152   15.4833 H   0  0  0  0  0  0  0  0  0  0  0  0
   52.6905   17.6057   16.8894 H   0  0  0  0  0  0  0  0  0  0  0  0
   48.3435   12.0616   16.3993 H   0  0  0  0  0  0  0  0  0  0  0  0
   49.4034   16.0922   17.7957 H   0  0  0  0  0  0  0  0  0  0  0  0
   47.0193   15.4599   16.5258 H   0  0  0  0  0  0  0  0  0  0  0  0
   48.9399   14.5544   13.8013 H   0  0  0  0  0  0  0  0  0  0  0  0
   51.0630   15.5746   13.1486 H   0  0  0  0  0  0  0  0  0  0  0  0
   48.1438   14.2489   18.3786 H   0  0  0  0  0  0  0  0  0  0  0  0
   46.7711   13.3338   17.7388 H   0  0  0  0  0  0  0  0  0  0  0  0
   49.5167   10.8291   18.0147 H   0  0  0  0  0  0  0  0  0  0  0  0
   47.0320   10.4117   17.7550 H   0  0  0  0  0  0  0  0  0  0  0  0
   46.7207   11.4947   19.0997 H   0  0  0  0  0  0  0  0  0  0  0  0
   48.6706    8.4007   18.1784 H   0  0  0  0  0  0  0  0  0  0  0  0
   46.7342   10.6284   21.3254 H   0  0  0  0  0  0  0  0  0  0  0  0
   52.4866   18.0632   19.0725 H   0  0  0  0  0  0  0  0  0  0  0  0
   49.0575    6.5465   19.7183 H   0  0  0  0  0  0  0  0  0  0  0  0
   47.1196    8.7446   22.8674 H   0  0  0  0  0  0  0  0  0  0  0  0
   49.7364   11.4667   20.3230 H   0  0  0  0  0  0  0  0  0  0  0  0
   48.6813   12.8692   20.1288 H   0  0  0  0  0  0  0  0  0  0  0  0
   50.2686   12.8267   19.3359 H   0  0  0  0  0  0  0  0  0  0  0  0
   49.2835    4.8945   22.9884 H   0  0  0  0  0  0  0  0  0  0  0  0
   48.7305    4.8390   21.3143 H   0  0  0  0  0  0  0  0  0  0  0  0
   50.1481    5.8530   21.7801 H   0  0  0  0  0  0  0  0  0  0  0  0
   48.7065   11.6411   18.4518 H   0  0  0  0  0  0  0  0  0  0  0  0
   49.1082   12.9308   17.7484 H   0  0  0  0  0  0  0  0  0  0  0  0
  2 10  1  0
  3 12  1  0
  4 19  1  0
  4 26  1  0
  5 22  2  0
  6  9  1  0
  6 22  1  0
  7 15  1  0
  7 17  1  0
  8 11  2  0
  8 12  1  0
  8 13  1  0
  9 10  2  0
  9 11  1  0
 10 14  1  0
 12 15  1  0
 13 14  2  0
 16 18  1  0
 16 20  2  0
 16 21  1  0
 17 18  1  0
 17 25  1  0
 19 23  2  0
 19 24  1  0
 20 23  1  0
 21 24  2  0
 27 31  1  0
 28 32  1  0
 29 31  2  0
 30 32  2  0
 31 33  1  0
 32 34  1  0
 33 34  2  0
 35 43  1  0
 36 45  1  0
 37 52  1  0
 37 59  1  0
 38 55  2  0
 39 42  1  0
 39 55  1  0
 40 48  1  0
 40 50  1  0
 41 44  2  0
 41 45  1  0
 41 46  1  0
 42 43  2  0
 42 44  1  0
 43 47  1  0
 45 48  1  0
 46 47  2  0
 49 51  1  0
 49 53  2  0
 49 54  1  0
 50 51  1  0
 50 58  1  0
 52 56  2  0
 52 57  1  0
 53 56  1  0
 54 57  2  0
  1 61  1  0
  1 62  1  0
  2 63  1  0
  3 64  1  0
  6 65  1  0
  7 66  1  0
 11 67  1  0
 12 68  1  1
 13 69  1  0
 14 70  1  0
 15 71  1  0
 15 72  1  0
 17 73  1  1
 18 74  1  0
 18 75  1  0
 20 76  1  0
 21 77  1  0
 22 78  1  0
 23 79  1  0
 24 80  1  0
 25 81  1  0
 25 82  1  0
 25 83  1  0
 26 84  1  0
 26 85  1  0
 26 86  1  0
 27 87  1  0
 28 88  1  0
 33 89  1  0
 34 90  1  0
 35 91  1  0
 36 92  1  0
 39 93  1  0
 40 94  1  0
 44 95  1  0
 45 96  1  1
 46 97  1  0
 47 98  1  0
 48 99  1  0
 48100  1  0
 50101  1  6
 51102  1  0
 51103  1  0
 53104  1  0
 54105  1  0
 55106  1  0
 56107  1  0
 57108  1  0
 58109  1  0
 58110  1  0
 58111  1  0
 59112  1  0
 59113  1  0
 59114  1  0
 60115  1  0
 60116  1  0
M  END
> <Uni-Dock RESULT> 
ENERGY=   -5.471  LOWER_BOUND=    3.018  UPPER_BOUND=    4.316
INTER + INTRA:          -5.471
INTER:                  -5.471
INTRA:                   0.000
UNBOUND:                 0.000

$$$$

     RDKit          3D

116115  0  0  0  0  0  0  0  0999 V2000
   49.3319    9.0427   15.2790 O   0  0  0  0  0  0  0  0  0  0  0  0
   47.5247   12.3188    9.1604 O   0  0  0  0  0  0  0  0  0  0  0  0
   51.1014   10.7175   14.1602 O   0  0  0  0  0  0  0  0  0  0  0  0
   47.1665    5.4608   21.3686 O   0  0  0  0  0  0  0  0  0  0  0  0
   52.3909   11.3819    9.7043 O   0  0  0  0  0  0  0  0  0  0  0  0
   50.1665   11.8427    9.1454 N   0  0  0  0  0  0  0  0  0  0  0  0
   50.7561    7.9125   14.8081 N   0  0  0  0  0  0  0  0  0  0  0  0
   49.2382   10.7089   12.6003 C   0  0  0  0  0  0  0  0  0  0  0  0
   49.4518   11.5323   10.3182 C   0  0  0  0  0  0  0  0  0  0  0  0
   48.0764   11.7958   10.3049 C   0  0  0  0  0  0  0  0  0  0  0  0
   50.0246   10.9787   11.4639 C   0  0  0  0  0  0  0  0  0  0  0  0
   49.8511   10.0908   13.8423 C   0  0  1  0  0  0  0  0  0  0  0  0
   47.8620   10.9835   12.5588 C   0  0  0  0  0  0  0  0  0  0  0  0
   47.2780   11.5265   11.4129 C   0  0  0  0  0  0  0  0  0  0  0  0
   50.0549    8.5648   13.6879 C   0  0  0  0  0  0  0  0  0  0  0  0
   49.3264    6.1141   17.8519 C   0  0  0  0  0  0  0  0  0  0  0  0
   49.9572    7.8254   16.0405 C   0  0  1  0  0  0  0  0  0  0  0  0
   50.0777    6.3754   16.5667 C   0  0  0  0  0  0  0  0  0  0  0  0
   47.9544    5.6539   20.2648 C   0  0  0  0  0  0  0  0  0  0  0  0
   50.0297    5.9029   19.0446 C   0  0  0  0  0  0  0  0  0  0  0  0
   47.9286    6.0838   17.8787 C   0  0  0  0  0  0  0  0  0  0  0  0
   51.5164   11.7356    8.9296 C   0  0  0  0  0  0  0  0  0  0  0  0
   49.3481    5.6765   20.2450 C   0  0  0  0  0  0  0  0  0  0  0  0
   47.2508    5.8548   19.0778 C   0  0  0  0  0  0  0  0  0  0  0  0
   50.4621    8.8404   17.0770 C   0  0  0  0  0  0  0  0  0  0  0  0
   47.8322    5.0952   22.5692 C   0  0  0  0  0  0  0  0  0  0  0  0
   49.9336   10.4697   13.8015 O   0  0  0  0  0  0  0  0  0  0  0  0
   49.4955    8.0433   17.9842 O   0  0  0  0  0  0  0  0  0  0  0  0
   48.9203    9.2155   12.2539 O   0  0  0  0  0  0  0  0  0  0  0  0
   48.4155    6.6137   16.6317 O   0  0  0  0  0  0  0  0  0  0  0  0
   49.2554    9.3800   13.4125 C   0  0  0  0  0  0  0  0  0  0  0  0
   49.0182    7.6575   16.7906 C   0  0  0  0  0  0  0  0  0  0  0  0
   48.9655    8.4451   14.5018 C   0  0  0  0  0  0  0  0  0  0  0  0
   49.3480    8.6509   15.7684 C   0  0  0  0  0  0  0  0  0  0  0  0
   50.9149   13.4403   10.7333 O   0  0  0  0  0  0  0  0  0  0  0  0
   50.5018    7.1692   11.8267 O   0  0  0  0  0  0  0  0  0  0  0  0
   47.9291    6.1320   21.8046 O   0  0  0  0  0  0  0  0  0  0  0  0
   46.4065   12.0636   12.3818 O   0  0  0  0  0  0  0  0  0  0  0  0
   48.3870   12.9765   11.5258 N   0  0  0  0  0  0  0  0  0  0  0  0
   49.7538    8.2696   14.4514 N   0  0  0  0  0  0  0  0  0  0  0  0
   49.8367    9.5092   11.6365 C   0  0  0  0  0  0  0  0  0  0  0  0
   49.2603   11.8760   11.4276 C   0  0  0  0  0  0  0  0  0  0  0  0
   50.5713   12.1405   11.0140 C   0  0  0  0  0  0  0  0  0  0  0  0
   48.8990   10.5609   11.7222 C   0  0  0  0  0  0  0  0  0  0  0  0
   49.4081    8.0903   11.9719 C   0  0  2  0  0  0  0  0  0  0  0  0
   51.1413    9.8106   11.2134 C   0  0  0  0  0  0  0  0  0  0  0  0
   51.5096   11.1193   10.8965 C   0  0  0  0  0  0  0  0  0  0  0  0
   48.7985    7.9216   13.3928 C   0  0  0  0  0  0  0  0  0  0  0  0
   48.7567    6.4915   17.7197 C   0  0  0  0  0  0  0  0  0  0  0  0
   49.2683    8.1282   15.8314 C   0  0  2  0  0  0  0  0  0  0  0  0
   49.0038    6.6590   16.2393 C   0  0  0  0  0  0  0  0  0  0  0  0
   48.2932    6.2666   20.4921 C   0  0  0  0  0  0  0  0  0  0  0  0
   49.8072    6.6324   18.6369 C   0  0  0  0  0  0  0  0  0  0  0  0
   47.4725    6.2218   18.2040 C   0  0  0  0  0  0  0  0  0  0  0  0
   47.0903   12.9890   11.9753 C   0  0  0  0  0  0  0  0  0  0  0  0
   49.5770    6.5200   20.0144 C   0  0  0  0  0  0  0  0  0  0  0  0
   47.2507    6.1088   19.5790 C   0  0  0  0  0  0  0  0  0  0  0  0
   48.0605    9.0378   16.0992 C   0  0  0  0  0  0  0  0  0  0  0  0
   48.8930    6.5279   22.7702 C   0  0  0  0  0  0  0  0  0  0  0  0
   49.3263    8.9859   15.4609 O   0  0  0  0  0  0  0  0  0  0  0  0
   49.1844    8.5231   14.4742 H   0  0  0  0  0  0  0  0  0  0  0  0
   49.2166    8.4021   15.9987 H   0  0  0  0  0  0  0  0  0  0  0  0
   46.5601   12.3583    9.2841 H   0  0  0  0  0  0  0  0  0  0  0  0
   51.0573   11.6333   13.8415 H   0  0  0  0  0  0  0  0  0  0  0  0
   49.5857   12.2073    8.3925 H   0  0  0  0  0  0  0  0  0  0  0  0
   51.5978    8.4694   14.9885 H   0  0  0  0  0  0  0  0  0  0  0  0
   51.0865   10.7423   11.4920 H   0  0  0  0  0  0  0  0  0  0  0  0
   49.1935   10.2901   14.6935 H   0  0  0  0  0  0  0  0  0  0  0  0
   47.2365   10.7723   13.4250 H   0  0  0  0  0  0  0  0  0  0  0  0
   46.2105   11.7252   11.4043 H   0  0  0  0  0  0  0  0  0  0  0  0
   50.6850    8.3870   12.8108 H   0  0  0  0  0  0  0  0  0  0  0  0
   49.1056    8.0559   13.4832 H   0  0  0  0  0  0  0  0  0  0  0  0
   48.9014    8.0355   15.8329 H   0  0  0  0  0  0  0  0  0  0  0  0
   51.1361    6.1177   16.7123 H   0  0  0  0  0  0  0  0  0  0  0  0
   49.7055    5.6678   15.8118 H   0  0  0  0  0  0  0  0  0  0  0  0
   51.1171    5.9197   19.0508 H   0  0  0  0  0  0  0  0  0  0  0  0
   47.3540    6.2342   16.9688 H   0  0  0  0  0  0  0  0  0  0  0  0
   51.7638   12.0423    7.8999 H   0  0  0  0  0  0  0  0  0  0  0  0
   49.9384    5.5319   21.1445 H   0  0  0  0  0  0  0  0  0  0  0  0
   46.1649    5.8316   19.0872 H   0  0  0  0  0  0  0  0  0  0  0  0
   49.8334    8.8343   17.9708 H   0  0  0  0  0  0  0  0  0  0  0  0
   51.4882    8.6205   17.3865 H   0  0  0  0  0  0  0  0  0  0  0  0
   50.4397    9.8596   16.6812 H   0  0  0  0  0  0  0  0  0  0  0  0
   47.0703    4.9121   23.3340 H   0  0  0  0  0  0  0  0  0  0  0  0
   48.4749    5.9092   22.9210 H   0  0  0  0  0  0  0  0  0  0  0  0
   48.4021    4.1684   22.4346 H   0  0  0  0  0  0  0  0  0  0  0  0
   50.0441   10.9825   12.9739 H   0  0  0  0  0  0  0  0  0  0  0  0
   49.2246    7.3267   18.5956 H   0  0  0  0  0  0  0  0  0  0  0  0
   48.4091    7.5623   14.2098 H   0  0  0  0  0  0  0  0  0  0  0  0
   49.9019    9.5240   16.0833 H   0  0  0  0  0  0  0  0  0  0  0  0
   51.8567   13.4583   10.4912 H   0  0  0  0  0  0  0  0  0  0  0  0
   50.1217    6.2789   11.8829 H   0  0  0  0  0  0  0  0  0  0  0  0
   48.8106   13.8632   11.2645 H   0  0  0  0  0  0  0  0  0  0  0  0
   50.6218    7.7526   14.3065 H   0  0  0  0  0  0  0  0  0  0  0  0
   47.8850   10.3315   12.0309 H   0  0  0  0  0  0  0  0  0  0  0  0
   48.6591    7.7908   11.2301 H   0  0  0  0  0  0  0  0  0  0  0  0
   51.8850    9.0214   11.1263 H   0  0  0  0  0  0  0  0  0  0  0  0
   52.5216   11.3129   10.5624 H   0  0  0  0  0  0  0  0  0  0  0  0
   47.8936    8.5304   13.4730 H   0  0  0  0  0  0  0  0  0  0  0  0
   48.5077    6.8712   13.5070 H   0  0  0  0  0  0  0  0  0  0  0  0
   50.0819    8.5108   16.4603 H   0  0  0  0  0  0  0  0  0  0  0  0
   49.8676    6.0353   15.9686 H   0  0  0  0  0  0  0  0  0  0  0  0
   48.1505    6.2523   15.6811 H   0  0  0  0  0  0  0  0  0  0  0  0
   50.8162    6.8436   18.2828 H   0  0  0  0  0  0  0  0  0  0  0  0
   46.6317    6.1195   17.5195 H   0  0  0  0  0  0  0  0  0  0  0  0
   46.6812   14.0145   11.9420 H   0  0  0  0  0  0  0  0  0  0  0  0
   50.4219    6.6382   20.6830 H   0  0  0  0  0  0  0  0  0  0  0  0
   46.2487    5.9020   19.9446 H   0  0  0  0  0  0  0  0  0  0  0  0
   47.8706    9.1306   17.1740 H   0  0  0  0  0  0  0  0  0  0  0  0
   47.1444    8.6560   15.6360 H   0  0  0  0  0  0  0  0  0  0  0  0
   48.2425   10.0481   15.7155 H   0  0  0  0  0  0  0  0  0  0  0  0
   48.4121    6.4941   23.7511 H   0  0  0  0  0  0  0  0  0  0  0  0
   49.7347    5.8302   22.7912 H   0  0  0  0  0  0  0  0  0  0  0  0
   49.2370    7.5538   22.6011 H   0  0  0  0  0  0  0  0  0  0  0  0
   49.1398    8.0945   15.7925 H   0  0  0  0  0  0  0  0  0  0  0  0
   49.2669    8.8874   14.4985 H   0  0  0  0  0  0  0  0  0  0  0  0
  2 10  1  0
  3 12  1  0
  4 19  1  0
  4 26  1  0
  5 22  2  0
  6  9  1  0
  6 22  1  0
  7 15  1  0
  7 17  1  0
  8 11  2  0
  8 12  1  0
  8 13  1  0
  9 10  2  0
  9 11  1  0
 10 14  1  0
 12 15  1  0
 13 14  2  0
 16 18  1  0
 16 20  2  0
 16 21  1  0
 17 18  1  0
 17 25  1  0
 19 23  2  0
 19 24  1  0
 20 23  1  0
 21 24  2  0
 27 31  1  0
 28 32  1  0
 29 31  2  0
 30 32  2  0
 31 33  1  0
 32 34  1  0
 33 34  2  0
 35 43  1  0
 36 45  1  0
 37 52  1  0
 37 59  1  0
 38 55  2  0
 39 42  1  0
 39 55  1  0
 40 48  1  0
 40 50  1  0
 41 44  2  0
 41 45  1  0
 41 46  1  0
 42 43  2  0
 42 44  1  0
 43 47  1  0
 45 48  1  0
 46 47  2  0
 49 51  1  0
 49 53  2  0
 49 54  1  0
 50 51  1  0
 50 58  1  0
 52 56  2  0
 52 57  1  0
 53 56  1  0
 54 57  2  0
  1 61  1  0
  1 62  1  0
  2 63  1  0
  3 64  1  0
  6 65  1  0
  7 66  1  0
 11 67  1  0
 12 68  1  1
 13 69  1  0
 14 70  1  0
 15 71  1  0
 15 72  1  0
 17 73  1  1
 18 74  1  0
 18 75  1  0
 20 76  1  0
 21 77  1  0
 22 78  1  0
 23 79  1  0
 24 80  1  0
 25 81  1  0
 25 82  1  0
 25 83  1  0
 26 84  1  0
 26 85  1  0
 26 86  1  0
 27 87  1  0
 28 88  1  0
 33 89  1  0
 34 90  1  0
 35 91  1  0
 36 92  1  0
 39 93  1  0
 40 94  1  0
 44 95  1  0
 45 96  1  1
 46 97  1  0
 47 98  1  0
 48 99  1  0
 48100  1  0
 50101  1  6
 51102  1  0
 51103  1  0
 53104  1  0
 54105  1  0
 55106  1  0
 56107  1  0
 57108  1  0
 58109  1  0
 58110  1  0
 58111  1  0
 59112  1  0
 59113  1  0
 59114  1  0
 60115  1  0
 60116  1  0
M  END
> <Uni-Dock RESULT> 
ENERGY=   -5.326  LOWER_BOUND=    5.554  UPPER_BOUND=    7.872
INTER + INTRA:          -5.326
INTER:                  -5.326
INTRA:                   0.000
UNBOUND:                 0.000

$$$$

     RDKit          3D

116115  0  0  0  0  0  0  0  0999 V2000
   45.6529   12.9444    8.3978 O   0  0  0  0  0  0  0  0  0  0  0  0
   51.7712   12.2519    4.7205 O   0  0  0  0  0  0  0  0  0  0  0  0
   46.7048   15.1283    7.2526 O   0  0  0  0  0  0  0  0  0  0  0  0
   39.6673    9.7300   11.3035 O   0  0  0  0  0  0  0  0  0  0  0  0
   51.1177   16.6718    6.9320 O   0  0  0  0  0  0  0  0  0  0  0  0
   51.7262   14.6687    5.8880 N   0  0  0  0  0  0  0  0  0  0  0  0
   46.1027   14.0259    9.8659 N   0  0  0  0  0  0  0  0  0  0  0  0
   48.3109   13.3750    6.7517 C   0  0  0  0  0  0  0  0  0  0  0  0
   50.5759   13.8648    6.0021 C   0  0  0  0  0  0  0  0  0  0  0  0
   50.6203   12.6112    5.3792 C   0  0  0  0  0  0  0  0  0  0  0  0
   49.4236   14.2362    6.6960 C   0  0  0  0  0  0  0  0  0  0  0  0
   47.0622   13.7651    7.5189 C   0  0  1  0  0  0  0  0  0  0  0  0
   48.3834   12.1245    6.1176 C   0  0  0  0  0  0  0  0  0  0  0  0
   49.5363   11.7394    5.4310 C   0  0  0  0  0  0  0  0  0  0  0  0
   47.2315   13.5566    9.0427 C   0  0  0  0  0  0  0  0  0  0  0  0
   43.1197   12.0827   11.2327 C   0  0  0  0  0  0  0  0  0  0  0  0
   44.8920   13.1990    9.7427 C   0  0  1  0  0  0  0  0  0  0  0  0
   44.3820   12.9118   11.1750 C   0  0  0  0  0  0  0  0  0  0  0  0
   40.7484   10.5712   11.3223 C   0  0  0  0  0  0  0  0  0  0  0  0
   41.9127   12.6703   11.6320 C   0  0  0  0  0  0  0  0  0  0  0  0
   43.1284   10.7277   10.8870 C   0  0  0  0  0  0  0  0  0  0  0  0
   51.9094   15.9459    6.3520 C   0  0  0  0  0  0  0  0  0  0  0  0
   40.7328   11.9199   11.6743 C   0  0  0  0  0  0  0  0  0  0  0  0
   41.9499    9.9804   10.9329 C   0  0  0  0  0  0  0  0  0  0  0  0
   43.8299   13.9286    8.9065 C   0  0  0  0  0  0  0  0  0  0  0  0
   38.4553   10.2398   11.8414 C   0  0  0  0  0  0  0  0  0  0  0  0
   47.0959   13.9472    7.1758 O   0  0  0  0  0  0  0  0  0  0  0  0
   42.9578   12.7590    9.4204 O   0  0  0  0  0  0  0  0  0  0  0  0
   48.6848   12.6782    8.1028 O   0  0  0  0  0  0  0  0  0  0  0  0
   44.3557   11.3732   10.4997 O   0  0  0  0  0  0  0  0  0  0  0  0
   47.5161   13.0128    8.0412 C   0  0  0  0  0  0  0  0  0  0  0  0
   44.1680   12.2290    9.6569 C   0  0  0  0  0  0  0  0  0  0  0  0
   46.4468   12.4529    8.8705 C   0  0  0  0  0  0  0  0  0  0  0  0
   45.1684   12.8413    8.7824 C   0  0  0  0  0  0  0  0  0  0  0  0
   50.0991   15.7736    4.5592 O   0  0  0  0  0  0  0  0  0  0  0  0
   49.0991   13.6644   10.4959 O   0  0  0  0  0  0  0  0  0  0  0  0
   39.2035   10.6323   10.8641 O   0  0  0  0  0  0  0  0  0  0  0  0
   48.5826   11.0173    4.6855 O   0  0  0  0  0  0  0  0  0  0  0  0
   49.3765   13.1930    4.3325 N   0  0  0  0  0  0  0  0  0  0  0  0
   46.4797   13.1663    9.2508 N   0  0  0  0  0  0  0  0  0  0  0  0
   49.2751   13.6565    8.0622 C   0  0  0  0  0  0  0  0  0  0  0  0
   49.4673   13.7417    5.6263 C   0  0  0  0  0  0  0  0  0  0  0  0
   49.8442   15.0866    5.7208 C   0  0  0  0  0  0  0  0  0  0  0  0
   49.1991   13.0330    6.7980 C   0  0  0  0  0  0  0  0  0  0  0  0
   48.9692   12.8542    9.3160 C   0  0  2  0  0  0  0  0  0  0  0  0
   49.6613   15.0054    8.1194 C   0  0  0  0  0  0  0  0  0  0  0  0
   49.9516   15.7196    6.9557 C   0  0  0  0  0  0  0  0  0  0  0  0
   47.5665   12.1824    9.3234 C   0  0  0  0  0  0  0  0  0  0  0  0
   43.2612   11.6389   10.7156 C   0  0  0  0  0  0  0  0  0  0  0  0
   45.1143   12.6226    9.2649 C   0  0  2  0  0  0  0  0  0  0  0  0
   44.7326   11.9628   10.6117 C   0  0  0  0  0  0  0  0  0  0  0  0
   40.5046   11.0554   10.8243 C   0  0  0  0  0  0  0  0  0  0  0  0
   42.3161   12.6628   10.8671 C   0  0  0  0  0  0  0  0  0  0  0  0
   42.8129   10.3164   10.6336 C   0  0  0  0  0  0  0  0  0  0  0  0
   48.9596   11.9351    3.9751 C   0  0  0  0  0  0  0  0  0  0  0  0
   40.9464   12.3729   10.9218 C   0  0  0  0  0  0  0  0  0  0  0  0
   41.4455   10.0344   10.6912 C   0  0  0  0  0  0  0  0  0  0  0  0
   44.8650   11.6959    8.0662 C   0  0  0  0  0  0  0  0  0  0  0  0
   38.2088   11.6399   10.7471 C   0  0  0  0  0  0  0  0  0  0  0  0
   45.4720   12.9187    8.4520 O   0  0  0  0  0  0  0  0  0  0  0  0
   46.4679   12.6854    8.8539 H   0  0  0  0  0  0  0  0  0  0  0  0
   44.9448   12.6416    8.9882 H   0  0  0  0  0  0  0  0  0  0  0  0
   51.6713   11.3302    4.4244 H   0  0  0  0  0  0  0  0  0  0  0  0
   47.0123   15.3402    6.3566 H   0  0  0  0  0  0  0  0  0  0  0  0
   52.4885   14.2280    5.3764 H   0  0  0  0  0  0  0  0  0  0  0  0
   45.8939   14.9808    9.5563 H   0  0  0  0  0  0  0  0  0  0  0  0
   49.3719   15.1947    7.2088 H   0  0  0  0  0  0  0  0  0  0  0  0
   46.2252   13.1617    7.1555 H   0  0  0  0  0  0  0  0  0  0  0  0
   47.5360   11.4415    6.1584 H   0  0  0  0  0  0  0  0  0  0  0  0
   49.5691   10.7650    4.9531 H   0  0  0  0  0  0  0  0  0  0  0  0
   48.0948   14.1400    9.3777 H   0  0  0  0  0  0  0  0  0  0  0  0
   47.4667   12.5117    9.2770 H   0  0  0  0  0  0  0  0  0  0  0  0
   45.1233   12.2444    9.2558 H   0  0  0  0  0  0  0  0  0  0  0  0
   44.2134   13.8580   11.7081 H   0  0  0  0  0  0  0  0  0  0  0  0
   45.1554   12.3847   11.7522 H   0  0  0  0  0  0  0  0  0  0  0  0
   41.8789   13.7217   11.9076 H   0  0  0  0  0  0  0  0  0  0  0  0
   44.0504   10.2399   10.5826 H   0  0  0  0  0  0  0  0  0  0  0  0
   52.9284   16.2950    6.1169 H   0  0  0  0  0  0  0  0  0  0  0  0
   39.8207   12.4246   11.9774 H   0  0  0  0  0  0  0  0  0  0  0  0
   41.9680    8.9281   10.6639 H   0  0  0  0  0  0  0  0  0  0  0  0
   42.9523   13.2968    8.7491 H   0  0  0  0  0  0  0  0  0  0  0  0
   43.4976   14.8492    9.3956 H   0  0  0  0  0  0  0  0  0  0  0  0
   44.2126   14.1912    7.9164 H   0  0  0  0  0  0  0  0  0  0  0  0
   37.7123    9.4357   11.8179 H   0  0  0  0  0  0  0  0  0  0  0  0
   38.0768   11.0671   11.2318 H   0  0  0  0  0  0  0  0  0  0  0  0
   38.5877   10.5439   12.8863 H   0  0  0  0  0  0  0  0  0  0  0  0
   47.9136   14.2141    6.7065 H   0  0  0  0  0  0  0  0  0  0  0  0
   42.3629   12.2891   10.0417 H   0  0  0  0  0  0  0  0  0  0  0  0
   46.7643   11.6885    9.5699 H   0  0  0  0  0  0  0  0  0  0  0  0
   44.8283   13.6000    8.0919 H   0  0  0  0  0  0  0  0  0  0  0  0
   50.3172   16.6922    4.7931 H   0  0  0  0  0  0  0  0  0  0  0  0
   49.0641   13.0583   11.2519 H   0  0  0  0  0  0  0  0  0  0  0  0
   49.6154   13.8459    3.5904 H   0  0  0  0  0  0  0  0  0  0  0  0
   46.6096   13.8676    9.9808 H   0  0  0  0  0  0  0  0  0  0  0  0
   48.9191   11.9865    6.7487 H   0  0  0  0  0  0  0  0  0  0  0  0
   49.7336   12.0731    9.3992 H   0  0  0  0  0  0  0  0  0  0  0  0
   49.7400   15.5124    9.0786 H   0  0  0  0  0  0  0  0  0  0  0  0
   50.2576   16.7554    7.0386 H   0  0  0  0  0  0  0  0  0  0  0  0
   47.5010   11.4720    8.4947 H   0  0  0  0  0  0  0  0  0  0  0  0
   47.4735   11.6177   10.2579 H   0  0  0  0  0  0  0  0  0  0  0  0
   44.4602   13.4912    9.1184 H   0  0  0  0  0  0  0  0  0  0  0  0
   44.9897   12.6350   11.4426 H   0  0  0  0  0  0  0  0  0  0  0  0
   45.3174   11.0475   10.7712 H   0  0  0  0  0  0  0  0  0  0  0  0
   42.6420   13.7009   10.9323 H   0  0  0  0  0  0  0  0  0  0  0  0
   43.5196    9.4984   10.5025 H   0  0  0  0  0  0  0  0  0  0  0  0
   48.9897   11.8170    2.8773 H   0  0  0  0  0  0  0  0  0  0  0  0
   40.2554   13.1996   11.0387 H   0  0  0  0  0  0  0  0  0  0  0  0
   41.1080    9.0039   10.6237 H   0  0  0  0  0  0  0  0  0  0  0  0
   43.7942   11.5082    7.9323 H   0  0  0  0  0  0  0  0  0  0  0  0
   45.3561   10.7242    8.1854 H   0  0  0  0  0  0  0  0  0  0  0  0
   45.2307   12.1527    7.1396 H   0  0  0  0  0  0  0  0  0  0  0  0
   37.2409   11.1404   10.6564 H   0  0  0  0  0  0  0  0  0  0  0  0
   38.1759   12.2628   11.6452 H   0  0  0  0  0  0  0  0  0  0  0  0
   38.3558   12.2508    9.8501 H   0  0  0  0  0  0  0  0  0  0  0  0
   45.1569   12.4909    9.2627 H   0  0  0  0  0  0  0  0  0  0  0  0
   46.4368   12.8617    8.5253 H   0  0  0  0  0  0  0  0  0  0  0  0
  2 10  1  0
  3 12  1  0
  4 19  1  0
  4 26  1  0
  5 22  2  0
  6  9  1  0
  6 22  1  0
  7 15  1  0
  7 17  1  0
  8 11  2  0
  8 12  1  0
  8 13  1  0
  9 10  2  0
  9 11  1  0
 10 14  1  0
 12 15  1  0
 13 14  2  0
 16 18  1  0
 16 20  2  0
 16 21  1  0
 17 18  1  0
 17 25  1  0
 19 23  2  0
 19 24  1  0
 20 23  1  0
 21 24  2  0
 27 31  1  0
 28 32  1  0
 29 31  2  0
 30 32  2  0
 31 33  1  0
 32 34  1  0
 33 34  2  0
 35 43  1  0
 36 45  1  0
 37 52  1  0
 37 59  1  0
 38 55  2  0
 39 42  1  0
 39 55  1  0
 40 48  1  0
 40 50  1  0
 41 44  2  0
 41 45  1  0
 41 46  1  0
 42 43  2  0
 42 44  1  0
 43 47  1  0
 45 48  1  0
 46 47  2  0
 49 51  1  0
 49 53  2  0
 49 54  1  0
 50 51  1  0
 50 58  1  0
 52 56  2  0
 52 57  1  0
 53 56  1  0
 54 57  2  0
  1 61  1  0
  1 62  1  0
  2 63  1  0
  3 64  1  0
  6 65  1  0
  7 66  1  0
 11 67  1  0
 12 68  1  1
 13 69  1  0
 14 70  1  0
 15 71  1  0
 15 72  1  0
 17 73  1  1
 18 74  1  0
 18 75  1  0
 20 76  1  0
 21 77  1  0
 22 78  1  0
 23 79  1  0
 24 80  1  0
 25 81  1  0
 25 82  1  0
 25 83  1  0
 26 84  1  0
 26 85  1  0
 26 86  1  0
 27 87  1  0
 28 88  1  0
 33 89  1  0
 34 90  1  0
 35 91  1  0
 36 92  1  0
 39 93  1  0
 40 94  1  0
 44 95  1  0
 45 96  1  1
 46 97  1  0
 47 98  1  0
 48 99  1  0
 48100  1  0
 50101  1  6
 51102  1  0
 51103  1  0
 53104  1  0
 54105  1  0
 55106  1  0
 56107  1  0
 57108  1  0
 58109  1  0
 58110  1  0
 58111  1  0
 59112  1  0
 59113  1  0
 59114  1  0
 60115  1  0
 60116  1  0
M  END
> <Uni-Dock RESULT> 
ENERGY=   -5.303  LOWER_BOUND=   10.854  UPPER_BOUND=   13.189
INTER + INTRA:          -5.303
INTER:                  -5.303
INTRA:                   0.000
UNBOUND:                 0.000

$$$$

     RDKit          3D

116115  0  0  0  0  0  0  0  0999 V2000
   45.6540   12.9442    8.3962 O   0  0  0  0  0  0  0  0  0  0  0  0
   51.7735   12.2517    4.7208 O   0  0  0  0  0  0  0  0  0  0  0  0
   46.7051   15.1278    7.2495 O   0  0  0  0  0  0  0  0  0  0  0  0
   39.6694    9.7293   11.3032 O   0  0  0  0  0  0  0  0  0  0  0  0
   51.1174   16.6731    6.9287 O   0  0  0  0  0  0  0  0  0  0  0  0
   51.7271   14.6695    5.8863 N   0  0  0  0  0  0  0  0  0  0  0  0
   46.1031   14.0271    9.8636 N   0  0  0  0  0  0  0  0  0  0  0  0
   48.3122   13.3748    6.7503 C   0  0  0  0  0  0  0  0  0  0  0  0
   50.5771   13.8651    6.0009 C   0  0  0  0  0  0  0  0  0  0  0  0
   50.6222   12.6110    5.3789 C   0  0  0  0  0  0  0  0  0  0  0  0
   49.4245   14.2364    6.6942 C   0  0  0  0  0  0  0  0  0  0  0  0
   47.0631   13.7650    7.5170 C   0  0  1  0  0  0  0  0  0  0  0  0
   48.3854   12.1239    6.1173 C   0  0  0  0  0  0  0  0  0  0  0  0
   49.5387   11.7388    5.4312 C   0  0  0  0  0  0  0  0  0  0  0  0
   47.2322   13.5577    9.0410 C   0  0  0  0  0  0  0  0  0  0  0  0
   43.1207   12.0836   11.2313 C   0  0  0  0  0  0  0  0  0  0  0  0
   44.8927   13.1996    9.7408 C   0  0  1  0  0  0  0  0  0  0  0  0
   44.3826   12.9132   11.1732 C   0  0  0  0  0  0  0  0  0  0  0  0
   40.7500   10.5710   11.3215 C   0  0  0  0  0  0  0  0  0  0  0  0
   41.9133   12.6709   11.6299 C   0  0  0  0  0  0  0  0  0  0  0  0
   43.1301   10.7283   10.8866 C   0  0  0  0  0  0  0  0  0  0  0  0
   51.9096   15.9471    6.3494 C   0  0  0  0  0  0  0  0  0  0  0  0
   40.7337   11.9200   11.6725 C   0  0  0  0  0  0  0  0  0  0  0  0
   41.9519    9.9805   10.9328 C   0  0  0  0  0  0  0  0  0  0  0  0
   43.8305   13.9280    8.9038 C   0  0  0  0  0  0  0  0  0  0  0  0
   38.4570   10.2390   11.8404 C   0  0  0  0  0  0  0  0  0  0  0  0
   47.0968   13.9468    7.1738 O   0  0  0  0  0  0  0  0  0  0  0  0
   42.9588   12.7584    9.4185 O   0  0  0  0  0  0  0  0  0  0  0  0
   48.6862   12.6792    8.1021 O   0  0  0  0  0  0  0  0  0  0  0  0
   44.3572   11.3741   10.4991 O   0  0  0  0  0  0  0  0  0  0  0  0
   47.5173   13.0133    8.0400 C   0  0  0  0  0  0  0  0  0  0  0  0
   44.1692   12.2291    9.6556 C   0  0  0  0  0  0  0  0  0  0  0  0
   46.4481   12.4535    8.8695 C   0  0  0  0  0  0  0  0  0  0  0  0
   45.1695   12.8412    8.7808 C   0  0  0  0  0  0  0  0  0  0  0  0
   50.0997   15.7726    4.5564 O   0  0  0  0  0  0  0  0  0  0  0  0
   49.0994   13.6675   10.4945 O   0  0  0  0  0  0  0  0  0  0  0  0
   39.2052   10.6310   10.8630 O   0  0  0  0  0  0  0  0  0  0  0  0
   48.5854   11.0157    4.6861 O   0  0  0  0  0  0  0  0  0  0  0  0
   49.3784   13.1914    4.3315 N   0  0  0  0  0  0  0  0  0  0  0  0
   46.4806   13.1672    9.2492 N   0  0  0  0  0  0  0  0  0  0  0  0
   49.2760   13.6578    8.0608 C   0  0  0  0  0  0  0  0  0  0  0  0
   49.4686   13.7412    5.6249 C   0  0  0  0  0  0  0  0  0  0  0  0
   49.8449   15.0863    5.7185 C   0  0  0  0  0  0  0  0  0  0  0  0
   49.2005   13.0333    6.7971 C   0  0  0  0  0  0  0  0  0  0  0  0
   48.9702   12.8563    9.3152 C   0  0  2  0  0  0  0  0  0  0  0  0
   49.6615   15.0069    8.1170 C   0  0  0  0  0  0  0  0  0  0  0  0
   49.9517   15.7204    6.9528 C   0  0  0  0  0  0  0  0  0  0  0  0
   47.5678   12.1839    9.3228 C   0  0  0  0  0  0  0  0  0  0  0  0
   43.2624   11.6394   10.7145 C   0  0  0  0  0  0  0  0  0  0  0  0
   45.1154   12.6229    9.2635 C   0  0  2  0  0  0  0  0  0  0  0  0
   44.7338   11.9639   10.6107 C   0  0  0  0  0  0  0  0  0  0  0  0
   40.5061   11.0547   10.8231 C   0  0  0  0  0  0  0  0  0  0  0  0
   42.3169   12.6630   10.8651 C   0  0  0  0  0  0  0  0  0  0  0  0
   42.8148   10.3167   10.6335 C   0  0  0  0  0  0  0  0  0  0  0  0
   48.9621   11.9331    3.9750 C   0  0  0  0  0  0  0  0  0  0  0  0
   40.9473   12.3725   10.9197 C   0  0  0  0  0  0  0  0  0  0  0  0
   41.4475   10.0341   10.6910 C   0  0  0  0  0  0  0  0  0  0  0  0
   44.8668   11.6951    8.0655 C   0  0  0  0  0  0  0  0  0  0  0  0
   38.2101   11.6380   10.7450 C   0  0  0  0  0  0  0  0  0  0  0  0
   45.4731   12.9185    8.4504 O   0  0  0  0  0  0  0  0  0  0  0  0
   46.4691   12.6860    8.8527 H   0  0  0  0  0  0  0  0  0  0  0  0
   44.9460   12.6416    8.9868 H   0  0  0  0  0  0  0  0  0  0  0  0
   51.6740   11.3297    4.4254 H   0  0  0  0  0  0  0  0  0  0  0  0
   47.0128   15.3391    6.3535 H   0  0  0  0  0  0  0  0  0  0  0  0
   52.4897   14.2287    5.3753 H   0  0  0  0  0  0  0  0  0  0  0  0
   45.8939   14.9816    9.5532 H   0  0  0  0  0  0  0  0  0  0  0  0
   49.3722   15.1953    7.2063 H   0  0  0  0  0  0  0  0  0  0  0  0
   46.2265   13.1609    7.1539 H   0  0  0  0  0  0  0  0  0  0  0  0
   47.5383   11.4405    6.1583 H   0  0  0  0  0  0  0  0  0  0  0  0
   49.5719   10.7640    4.9540 H   0  0  0  0  0  0  0  0  0  0  0  0
   48.0952   14.1418    9.3757 H   0  0  0  0  0  0  0  0  0  0  0  0
   47.4678   12.5130    9.2761 H   0  0  0  0  0  0  0  0  0  0  0  0
   45.1246   12.2447    9.2547 H   0  0  0  0  0  0  0  0  0  0  0  0
   44.2134   13.8597   11.7056 H   0  0  0  0  0  0  0  0  0  0  0  0
   45.1561   12.3869   11.7510 H   0  0  0  0  0  0  0  0  0  0  0  0
   41.8790   13.7225   11.9047 H   0  0  0  0  0  0  0  0  0  0  0  0
   44.0524   10.2407   10.5828 H   0  0  0  0  0  0  0  0  0  0  0  0
   52.9285   16.2965    6.1142 H   0  0  0  0  0  0  0  0  0  0  0  0
   39.8214   12.4245   11.9750 H   0  0  0  0  0  0  0  0  0  0  0  0
   41.9706    8.9280   10.6647 H   0  0  0  0  0  0  0  0  0  0  0  0
   42.9532   13.2957    8.7467 H   0  0  0  0  0  0  0  0  0  0  0  0
   43.4977   14.8488    9.3921 H   0  0  0  0  0  0  0  0  0  0  0  0
   44.2133   14.1900    7.9136 H   0  0  0  0  0  0  0  0  0  0  0  0
   37.7144    9.4345   11.8174 H   0  0  0  0  0  0  0  0  0  0  0  0
   38.0782   11.0656   11.2302 H   0  0  0  0  0  0  0  0  0  0  0  0
   38.5891   10.5439   12.8851 H   0  0  0  0  0  0  0  0  0  0  0  0
   47.9145   14.2137    6.7044 H   0  0  0  0  0  0  0  0  0  0  0  0
   42.3640   12.2886   10.0400 H   0  0  0  0  0  0  0  0  0  0  0  0
   46.7658   11.6897    9.5695 H   0  0  0  0  0  0  0  0  0  0  0  0
   44.8292   13.5992    8.0897 H   0  0  0  0  0  0  0  0  0  0  0  0
   50.3173   16.6914    4.7896 H   0  0  0  0  0  0  0  0  0  0  0  0
   49.0646   13.0619   11.2509 H   0  0  0  0  0  0  0  0  0  0  0  0
   49.6171   13.8439    3.5889 H   0  0  0  0  0  0  0  0  0  0  0  0
   46.6099   13.8692    9.9787 H   0  0  0  0  0  0  0  0  0  0  0  0
   48.9210   11.9866    6.7485 H   0  0  0  0  0  0  0  0  0  0  0  0
   49.7349   12.0757    9.3991 H   0  0  0  0  0  0  0  0  0  0  0  0
   49.7398   15.5147    9.0759 H   0  0  0  0  0  0  0  0  0  0  0  0
   50.2572   16.7563    7.0351 H   0  0  0  0  0  0  0  0  0  0  0  0
   47.5028   11.4728    8.4946 H   0  0  0  0  0  0  0  0  0  0  0  0
   47.4748   11.6198   10.2578 H   0  0  0  0  0  0  0  0  0  0  0  0
   44.4609   13.4911    9.1162 H   0  0  0  0  0  0  0  0  0  0  0  0
   44.9904   12.6369   11.4412 H   0  0  0  0  0  0  0  0  0  0  0  0
   45.3189   11.0491   10.7710 H   0  0  0  0  0  0  0  0  0  0  0  0
   42.6423   13.7013   10.9295 H   0  0  0  0  0  0  0  0  0  0  0  0
   43.5219    9.4989   10.5032 H   0  0  0  0  0  0  0  0  0  0  0  0
   48.9925   11.8141    2.8773 H   0  0  0  0  0  0  0  0  0  0  0  0
   40.2558   13.1990   11.0358 H   0  0  0  0  0  0  0  0  0  0  0  0
   41.1105    9.0033   10.6243 H   0  0  0  0  0  0  0  0  0  0  0  0
   43.7961   11.5068    7.9314 H   0  0  0  0  0  0  0  0  0  0  0  0
   45.3583   10.7238    8.1855 H   0  0  0  0  0  0  0  0  0  0  0  0
   45.2325   12.1514    7.1386 H   0  0  0  0  0  0  0  0  0  0  0  0
   37.2424   11.1381   10.6546 H   0  0  0  0  0  0  0  0  0  0  0  0
   38.1767   12.2616   11.6426 H   0  0  0  0  0  0  0  0  0  0  0  0
   38.3569   12.2484    9.8476 H   0  0  0  0  0  0  0  0  0  0  0  0
   45.1581   12.4912    9.2614 H   0  0  0  0  0  0  0  0  0  0  0  0
   46.4379   12.8620    8.5239 H   0  0  0  0  0  0  0  0  0  0  0  0
  2 10  1  0
  3 12  1  0
  4 19  1  0
  4 26  1  0
  5 22  2  0
  6  9  1  0
  6 22  1  0
  7 15  1  0
  7 17  1  0
  8 11  2  0
  8 12  1  0
  8 13  1  0
  9 10  2  0
  9 11  1  0
 10 14  1  0
 12 15  1  0
 13 14  2  0
 16 18  1  0
 16 20  2  0
 16 21  1  0
 17 18  1  0
 17 25  1  0
 19 23  2  0
 19 24  1  0
 20 23  1  0
 21 24  2  0
 27 31  1  0
 28 32  1  0
 29 31  2  0
 30 32  2  0
 31 33  1  0
 32 34  1  0
 33 34  2  0
 35 43  1  0
 36 45  1  0
 37 52  1  0
 37 59  1  0
 38 55  2  0
 39 42  1  0
 39 55  1  0
 40 48  1  0
 40 50  1  0
 41 44  2  0
 41 45  1  0
 41 46  1  0
 42 43  2  0
 42 44  1  0
 43 47  1  0
 45 48  1  0
 46 47  2  0
 49 51  1  0
 49 53  2  0
 49 54  1  0
 50 51  1  0
 50 58  1  0
 52 56  2  0
 52 57  1  0
 53 56  1  0
 54 57  2  0
  1 61  1  0
  1 62  1  0
  2 63  1  0
  3 64  1  0
  6 65  1  0
  7 66  1  0
 11 67  1  0
 12 68  1  1
 13 69  1  0
 14 70  1  0
 15 71  1  0
 15 72  1  0
 17 73  1  1
 18 74  1  0
 18 75  1  0
 20 76  1  0
 21 77  1  0
 22 78  1  0
 23 79  1  0
 24 80  1  0
 25 81  1  0
 25 82  1  0
 25 83  1  0
 26 84  1  0
 26 85  1  0
 26 86  1  0
 27 87  1  0
 28 88  1  0
 33 89  1  0
 34 90  1  0
 35 91  1  0
 36 92  1  0
 39 93  1  0
 40 94  1  0
 44 95  1  0
 45 96  1  1
 46 97  1  0
 47 98  1  0
 48 99  1  0
 48100  1  0
 50101  1  6
 51102  1  0
 51103  1  0
 53104  1  0
 54105  1  0
 55106  1  0
 56107  1  0
 57108  1  0
 58109  1  0
 58110  1  0
 58111  1  0
 59112  1  0
 59113  1  0
 59114  1  0
 60115  1  0
 60116  1  0
M  END
> <Uni-Dock RESULT> 
ENERGY=   -5.300  LOWER_BOUND=   10.855  UPPER_BOUND=   13.190
INTER + INTRA:          -5.300
INTER:                  -5.300
INTRA:                   0.000
UNBOUND:                 0.000

$$$$

     RDKit          3D

116115  0  0  0  0  0  0  0  0999 V2000
   49.4084    8.4892   12.9978 O   0  0  0  0  0  0  0  0  0  0  0  0
   55.0504   11.2536   16.4564 O   0  0  0  0  0  0  0  0  0  0  0  0
   50.8120   10.4319   11.7964 O   0  0  0  0  0  0  0  0  0  0  0  0
   44.6104    2.9206   12.2413 O   0  0  0  0  0  0  0  0  0  0  0  0
   52.6657   14.4147   13.4275 O   0  0  0  0  0  0  0  0  0  0  0  0
   53.8976   13.1836   14.9894 N   0  0  0  0  0  0  0  0  0  0  0  0
   48.1789    9.9049   12.8902 N   0  0  0  0  0  0  0  0  0  0  0  0
   51.8905   10.1844   13.9599 C   0  0  0  0  0  0  0  0  0  0  0  0
   53.3937   11.8750   14.8620 C   0  0  0  0  0  0  0  0  0  0  0  0
   54.0154   10.8839   15.6318 C   0  0  0  0  0  0  0  0  0  0  0  0
   52.3252   11.5215   14.0371 C   0  0  0  0  0  0  0  0  0  0  0  0
   50.7185    9.7965   13.0788 C   0  0  1  0  0  0  0  0  0  0  0  0
   52.5326    9.2118   14.7425 C   0  0  0  0  0  0  0  0  0  0  0  0
   53.5948    9.5580   15.5796 C   0  0  0  0  0  0  0  0  0  0  0  0
   49.3616   10.1428   13.7368 C   0  0  0  0  0  0  0  0  0  0  0  0
   45.8702    6.8734   12.7381 C   0  0  0  0  0  0  0  0  0  0  0  0
   47.8752    8.4809   12.6785 C   0  0  1  0  0  0  0  0  0  0  0  0
   46.3612    8.2894   12.9339 C   0  0  0  0  0  0  0  0  0  0  0  0
   44.9646    4.2407   12.3321 C   0  0  0  0  0  0  0  0  0  0  0  0
   45.0527    6.5597   11.6450 C   0  0  0  0  0  0  0  0  0  0  0  0
   46.2225    5.8563   13.6308 C   0  0  0  0  0  0  0  0  0  0  0  0
   53.5054   14.3063   14.3068 C   0  0  0  0  0  0  0  0  0  0  0  0
   44.6041    5.2504   11.4412 C   0  0  0  0  0  0  0  0  0  0  0  0
   45.7710    4.5509   13.4266 C   0  0  0  0  0  0  0  0  0  0  0  0
   48.2597    8.0592   11.2523 C   0  0  0  0  0  0  0  0  0  0  0  0
   43.6632    2.5839   11.2373 C   0  0  0  0  0  0  0  0  0  0  0  0
   51.0472    9.8608   12.8792 O   0  0  0  0  0  0  0  0  0  0  0  0
   47.4899    6.7848   11.6718 O   0  0  0  0  0  0  0  0  0  0  0  0
   50.7776   10.2890   15.0561 O   0  0  0  0  0  0  0  0  0  0  0  0
   47.0119    7.0401   13.8503 O   0  0  0  0  0  0  0  0  0  0  0  0
   50.4089    9.7126   14.0494 C   0  0  0  0  0  0  0  0  0  0  0  0
   47.7142    7.2972   12.8919 C   0  0  0  0  0  0  0  0  0  0  0  0
   49.2620    8.8041   13.9851 C   0  0  0  0  0  0  0  0  0  0  0  0
   48.8775    8.1840   12.8624 C   0  0  0  0  0  0  0  0  0  0  0  0
   54.5315   12.5169   12.8013 O   0  0  0  0  0  0  0  0  0  0  0  0
   48.6742   11.8426   15.2365 O   0  0  0  0  0  0  0  0  0  0  0  0
   44.8361    3.1220   11.1779 O   0  0  0  0  0  0  0  0  0  0  0  0
   53.9620    8.2274   15.2941 O   0  0  0  0  0  0  0  0  0  0  0  0
   54.5340   10.1847   14.1408 N   0  0  0  0  0  0  0  0  0  0  0  0
   48.9050    9.4140   13.5910 N   0  0  0  0  0  0  0  0  0  0  0  0
   51.0084   11.3565   14.7179 C   0  0  0  0  0  0  0  0  0  0  0  0
   53.3487   10.9451   14.1418 C   0  0  0  0  0  0  0  0  0  0  0  0
   53.3695   12.1550   13.4378 C   0  0  0  0  0  0  0  0  0  0  0  0
   52.1729   10.5617   14.7880 C   0  0  0  0  0  0  0  0  0  0  0  0
   49.7443   10.9028   15.4290 C   0  0  2  0  0  0  0  0  0  0  0  0
   51.0674   12.5661   14.0072 C   0  0  0  0  0  0  0  0  0  0  0  0
   52.2435   12.9704   13.3732 C   0  0  0  0  0  0  0  0  0  0  0  0
   49.2468    9.4881   15.0165 C   0  0  0  0  0  0  0  0  0  0  0  0
   46.4123    6.5347   13.0136 C   0  0  0  0  0  0  0  0  0  0  0  0
   48.4121    8.1150   13.1118 C   0  0  2  0  0  0  0  0  0  0  0  0
   47.0313    7.7314   13.6959 C   0  0  0  0  0  0  0  0  0  0  0  0
   45.3322    4.2877   11.6961 C   0  0  0  0  0  0  0  0  0  0  0  0
   45.9114    6.6396   11.7087 C   0  0  0  0  0  0  0  0  0  0  0  0
   46.3536    5.2951   13.6590 C   0  0  0  0  0  0  0  0  0  0  0  0
   54.7424    8.9432   14.6876 C   0  0  0  0  0  0  0  0  0  0  0  0
   45.3742    5.5233   11.0543 C   0  0  0  0  0  0  0  0  0  0  0  0
   45.8143    4.1865   13.0010 C   0  0  0  0  0  0  0  0  0  0  0  0
   49.4592    7.0089   13.3068 C   0  0  0  0  0  0  0  0  0  0  0  0
   44.5684    3.1158    9.7827 C   0  0  0  0  0  0  0  0  0  0  0  0
   49.2933    8.3620   12.9146 O   0  0  0  0  0  0  0  0  0  0  0  0
   49.2805    8.9752   13.8265 H   0  0  0  0  0  0  0  0  0  0  0  0
   48.6091    7.9449   12.9170 H   0  0  0  0  0  0  0  0  0  0  0  0
   55.3088   10.4748   16.9798 H   0  0  0  0  0  0  0  0  0  0  0  0
   51.7543   10.5662   11.6061 H   0  0  0  0  0  0  0  0  0  0  0  0
   54.6573   13.2696   15.6620 H   0  0  0  0  0  0  0  0  0  0  0  0
   48.3741   10.3478   11.9863 H   0  0  0  0  0  0  0  0  0  0  0  0
   51.8094   12.2763   13.4466 H   0  0  0  0  0  0  0  0  0  0  0  0
   50.7688    8.7215   12.8826 H   0  0  0  0  0  0  0  0  0  0  0  0
   52.2036    8.1742   14.7028 H   0  0  0  0  0  0  0  0  0  0  0  0
   54.0716    8.7879   16.1786 H   0  0  0  0  0  0  0  0  0  0  0  0
   49.3475   11.2148   13.9569 H   0  0  0  0  0  0  0  0  0  0  0  0
   49.2478    9.6369   14.7028 H   0  0  0  0  0  0  0  0  0  0  0  0
   48.4313    7.8570   13.3880 H   0  0  0  0  0  0  0  0  0  0  0  0
   45.7847    8.9613   12.2826 H   0  0  0  0  0  0  0  0  0  0  0  0
   46.1107    8.5914   13.9611 H   0  0  0  0  0  0  0  0  0  0  0  0
   44.7628    7.3325   10.9369 H   0  0  0  0  0  0  0  0  0  0  0  0
   46.8472    6.0691   14.4940 H   0  0  0  0  0  0  0  0  0  0  0  0
   54.0840   15.1812   14.6465 H   0  0  0  0  0  0  0  0  0  0  0  0
   43.9839    5.0558   10.5718 H   0  0  0  0  0  0  0  0  0  0  0  0
   46.0491    3.7686   14.1270 H   0  0  0  0  0  0  0  0  0  0  0  0
   48.1038    6.9877   11.1045 H   0  0  0  0  0  0  0  0  0  0  0  0
   47.6660    8.5915   10.5032 H   0  0  0  0  0  0  0  0  0  0  0  0
   49.3159    8.2564   11.0490 H   0  0  0  0  0  0  0  0  0  0  0  0
   43.4340    1.5176   11.3351 H   0  0  0  0  0  0  0  0  0  0  0  0
   44.0798    2.7494   10.2382 H   0  0  0  0  0  0  0  0  0  0  0  0
   42.7298    3.1418   11.3764 H   0  0  0  0  0  0  0  0  0  0  0  0
   51.7735   10.4845   13.0879 H   0  0  0  0  0  0  0  0  0  0  0  0
   46.7057    6.2092   11.7923 H   0  0  0  0  0  0  0  0  0  0  0  0
   48.7384    8.6629   14.9233 H   0  0  0  0  0  0  0  0  0  0  0  0
   49.3848    8.3081   11.9161 H   0  0  0  0  0  0  0  0  0  0  0  0
   54.3736   13.3583   12.3396 H   0  0  0  0  0  0  0  0  0  0  0  0
   47.9681   11.5858   15.8494 H   0  0  0  0  0  0  0  0  0  0  0  0
   55.2995   10.6157   13.6285 H   0  0  0  0  0  0  0  0  0  0  0  0
   48.2568   10.1675   13.3593 H   0  0  0  0  0  0  0  0  0  0  0  0
   52.1388    9.6352   15.3507 H   0  0  0  0  0  0  0  0  0  0  0  0
   49.9565   10.9012   16.5042 H   0  0  0  0  0  0  0  0  0  0  0  0
   50.1907   13.2070   13.9429 H   0  0  0  0  0  0  0  0  0  0  0  0
   52.2557   13.9153   12.8437 H   0  0  0  0  0  0  0  0  0  0  0  0
   50.0105    8.7477   15.2701 H   0  0  0  0  0  0  0  0  0  0  0  0
   48.3525    9.2646   15.6090 H   0  0  0  0  0  0  0  0  0  0  0  0
   48.2969    8.2363   12.0274 H   0  0  0  0  0  0  0  0  0  0  0  0
   46.3351    8.5760   13.5932 H   0  0  0  0  0  0  0  0  0  0  0  0
   47.1104    7.5340   14.7728 H   0  0  0  0  0  0  0  0  0  0  0  0
   45.9474    7.5953   11.1856 H   0  0  0  0  0  0  0  0  0  0  0  0
   46.7457    5.1760   14.6678 H   0  0  0  0  0  0  0  0  0  0  0  0
   55.7798    8.6111   14.5047 H   0  0  0  0  0  0  0  0  0  0  0  0
   45.0008    5.6556   10.0454 H   0  0  0  0  0  0  0  0  0  0  0  0
   45.7762    3.2277   13.5106 H   0  0  0  0  0  0  0  0  0  0  0  0
   49.2033    6.1195   12.7208 H   0  0  0  0  0  0  0  0  0  0  0  0
   49.5433    6.6989   14.3538 H   0  0  0  0  0  0  0  0  0  0  0  0
   50.4462    7.3446   12.9690 H   0  0  0  0  0  0  0  0  0  0  0  0
   44.3151    2.0912    9.4989 H   0  0  0  0  0  0  0  0  0  0  0  0
   43.7064    3.7461    9.5473 H   0  0  0  0  0  0  0  0  0  0  0  0
   45.4462    3.4172    9.2012 H   0  0  0  0  0  0  0  0  0  0  0  0
   48.4321    8.0521   13.2336 H   0  0  0  0  0  0  0  0  0  0  0  0
   49.5725    8.9951   13.5933 H   0  0  0  0  0  0  0  0  0  0  0  0
  2 10  1  0
  3 12  1  0
  4 19  1  0
  4 26  1  0
  5 22  2  0
  6  9  1  0
  6 22  1  0
  7 15  1  0
  7 17  1  0
  8 11  2  0
  8 12  1  0
  8 13  1  0
  9 10  2  0
  9 11  1  0
 10 14  1  0
 12 15  1  0
 13 14  2  0
 16 18  1  0
 16 20  2  0
 16 21  1  0
 17 18  1  0
 17 25  1  0
 19 23  2  0
 19 24  1  0
 20 23  1  0
 21 24  2  0
 27 31  1  0
 28 32  1  0
 29 31  2  0
 30 32  2  0
 31 33  1  0
 32 34  1  0
 33 34  2  0
 35 43  1  0
 36 45  1  0
 37 52  1  0
 37 59  1  0
 38 55  2  0
 39 42  1  0
 39 55  1  0
 40 48  1  0
 40 50  1  0
 41 44  2  0
 41 45  1  0
 41 46  1  0
 42 43  2  0
 42 44  1  0
 43 47  1  0
 45 48  1  0
 46 47  2  0
 49 51  1  0
 49 53  2  0
 49 54  1  0
 50 51  1  0
 50 58  1  0
 52 56  2  0
 52 57  1  0
 53 56  1  0
 54 57  2  0
  1 61  1  0
  1 62  1  0
  2 63  1  0
  3 64  1  0
  6 65  1  0
  7 66  1  0
 11 67  1  0
 12 68  1  1
 13 69  1  0
 14 70  1  0
 15 71  1  0
 15 72  1  0
 17 73  1  1
 18 74  1  0
 18 75  1  0
 20 76  1  0
 21 77  1  0
 22 78  1  0
 23 79  1  0
 24 80  1  0
 25 81  1  0
 25 82  1  0
 25 83  1  0
 26 84  1  0
 26 85  1  0
 26 86  1  0
 27 87  1  0
 28 88  1  0
 33 89  1  0
 34 90  1  0
 35 91  1  0
 36 92  1  0
 39 93  1  0
 40 94  1  0
 44 95  1  0
 45 96  1  1
 46 97  1  0
 47 98  1  0
 48 99  1  0
 48100  1  0
 50101  1  6
 51102  1  0
 51103  1  0
 53104  1  0
 54105  1  0
 55106  1  0
 56107  1  0
 57108  1  0
 58109  1  0
 58110  1  0
 58111  1  0
 59112  1  0
 59113  1  0
 59114  1  0
 60115  1  0
 60116  1  0
M  END
> <Uni-Dock RESULT> 
ENERGY=   -5.227  LOWER_BOUND=    5.875  UPPER_BOUND=    7.436
INTER + INTRA:          -5.227
INTER:                  -5.227
INTRA:                   0.000
UNBOUND:                 0.000

$$$$

     RDKit          3D

116115  0  0  0  0  0  0  0  0999 V2000
   49.1328    9.9996   16.7640 O   0  0  0  0  0  0  0  0  0  0  0  0
   49.8919   15.7366   21.0003 O   0  0  0  0  0  0  0  0  0  0  0  0
   50.9687    9.9078   18.7155 O   0  0  0  0  0  0  0  0  0  0  0  0
   44.9384    6.2121   12.0032 O   0  0  0  0  0  0  0  0  0  0  0  0
   54.0478   13.0837   20.2622 O   0  0  0  0  0  0  0  0  0  0  0  0
   52.2855   14.5620   20.6886 N   0  0  0  0  0  0  0  0  0  0  0  0
   50.7549    9.8872   15.8240 N   0  0  0  0  0  0  0  0  0  0  0  0
   50.0460   12.1493   18.8865 C   0  0  0  0  0  0  0  0  0  0  0  0
   51.1640   13.9222   20.1269 C   0  0  0  0  0  0  0  0  0  0  0  0
   49.9253   14.5501   20.3083 C   0  0  0  0  0  0  0  0  0  0  0  0
   51.2195   12.7288   19.4059 C   0  0  0  0  0  0  0  0  0  0  0  0
   50.1017   10.8617   18.0868 C   0  0  1  0  0  0  0  0  0  0  0  0
   48.8181   12.8005   19.0840 C   0  0  0  0  0  0  0  0  0  0  0  0
   48.7542   14.0009   19.7939 C   0  0  0  0  0  0  0  0  0  0  0  0
   50.5613   11.1060   16.6297 C   0  0  0  0  0  0  0  0  0  0  0  0
   48.3544    8.1597   13.4165 C   0  0  0  0  0  0  0  0  0  0  0  0
   49.5014    9.2053   15.4655 C   0  0  1  0  0  0  0  0  0  0  0  0
   49.5661    8.8865   13.9529 C   0  0  0  0  0  0  0  0  0  0  0  0
   46.1089    6.7729   12.4414 C   0  0  0  0  0  0  0  0  0  0  0  0
   48.4560    6.8173   13.0304 C   0  0  0  0  0  0  0  0  0  0  0  0
   47.1180    8.8031   13.3010 C   0  0  0  0  0  0  0  0  0  0  0  0
   53.5850   14.1244   20.7013 C   0  0  0  0  0  0  0  0  0  0  0  0
   47.3394    6.1265   12.5479 C   0  0  0  0  0  0  0  0  0  0  0  0
   46.0058    8.1120   12.8164 C   0  0  0  0  0  0  0  0  0  0  0  0
   49.3315    7.9269   16.2999 C   0  0  0  0  0  0  0  0  0  0  0  0
   45.0247    4.9014   11.4620 C   0  0  0  0  0  0  0  0  0  0  0  0
   50.1407   10.8069   18.4709 O   0  0  0  0  0  0  0  0  0  0  0  0
   48.1770    7.7035   15.2949 O   0  0  0  0  0  0  0  0  0  0  0  0
   50.1306   12.8034   17.4666 O   0  0  0  0  0  0  0  0  0  0  0  0
   48.0432    9.5856   14.0787 O   0  0  0  0  0  0  0  0  0  0  0  0
   49.8726   11.6142   17.4341 C   0  0  0  0  0  0  0  0  0  0  0  0
   48.3565    9.0204   15.1084 C   0  0  0  0  0  0  0  0  0  0  0  0
   49.2484   10.9303   16.2995 C   0  0  0  0  0  0  0  0  0  0  0  0
   48.9770    9.6191   16.2904 C   0  0  0  0  0  0  0  0  0  0  0  0
   51.9972   12.6095   22.0072 O   0  0  0  0  0  0  0  0  0  0  0  0
   51.9969   12.7023   15.6288 O   0  0  0  0  0  0  0  0  0  0  0  0
   45.3168    5.3804   12.6256 O   0  0  0  0  0  0  0  0  0  0  0  0
   47.4716   13.4982   20.0922 O   0  0  0  0  0  0  0  0  0  0  0  0
   49.4776   13.1809   21.2600 N   0  0  0  0  0  0  0  0  0  0  0  0
   49.9882   10.6243   16.1821 N   0  0  0  0  0  0  0  0  0  0  0  0
   51.1777   12.8665   17.9214 C   0  0  0  0  0  0  0  0  0  0  0  0
   50.4412   13.0013   20.2488 C   0  0  0  0  0  0  0  0  0  0  0  0
   51.7458   12.7039   20.6603 C   0  0  0  0  0  0  0  0  0  0  0  0
   50.1699   13.0941   18.8833 C   0  0  0  0  0  0  0  0  0  0  0  0
   50.8429   12.9697   16.4426 C   0  0  2  0  0  0  0  0  0  0  0  0
   52.4759   12.5755   18.3704 C   0  0  0  0  0  0  0  0  0  0  0  0
   52.7644   12.4996   19.7341 C   0  0  0  0  0  0  0  0  0  0  0  0
   49.6807   12.0452   15.9803 C   0  0  0  0  0  0  0  0  0  0  0  0
   47.8623    8.4937   13.7781 C   0  0  0  0  0  0  0  0  0  0  0  0
   48.9501    9.6728   15.7613 C   0  0  2  0  0  0  0  0  0  0  0  0
   48.7333    9.6421   14.2293 C   0  0  0  0  0  0  0  0  0  0  0  0
   46.2184    6.3317   13.0204 C   0  0  0  0  0  0  0  0  0  0  0  0
   48.3465    7.1787   13.8083 C   0  0  0  0  0  0  0  0  0  0  0  0
   46.5496    8.7175   13.3501 C   0  0  0  0  0  0  0  0  0  0  0  0
   48.1310   13.4026   21.1146 C   0  0  0  0  0  0  0  0  0  0  0  0
   47.5299    6.1045   13.4312 C   0  0  0  0  0  0  0  0  0  0  0  0
   45.7416    7.6416   12.9733 C   0  0  0  0  0  0  0  0  0  0  0  0
   47.6413    9.8892   16.5346 C   0  0  0  0  0  0  0  0  0  0  0  0
   45.6678    4.0298   12.8921 C   0  0  0  0  0  0  0  0  0  0  0  0
   49.0525    9.8517   16.6745 O   0  0  0  0  0  0  0  0  0  0  0  0
   49.4427   10.8400   16.3938 H   0  0  0  0  0  0  0  0  0  0  0  0
   48.7905    9.5147   15.9962 H   0  0  0  0  0  0  0  0  0  0  0  0
   48.9824   16.0808   20.9605 H   0  0  0  0  0  0  0  0  0  0  0  0
   50.9497   10.0820   19.6703 H   0  0  0  0  0  0  0  0  0  0  0  0
   52.0693   15.4429   21.1514 H   0  0  0  0  0  0  0  0  0  0  0  0
   51.3354    9.2560   16.3859 H   0  0  0  0  0  0  0  0  0  0  0  0
   52.1722   12.2330   19.2302 H   0  0  0  0  0  0  0  0  0  0  0  0
   49.1073   10.4058   18.0877 H   0  0  0  0  0  0  0  0  0  0  0  0
   47.9014   12.3719   18.6812 H   0  0  0  0  0  0  0  0  0  0  0  0
   47.7929   14.4874   19.9288 H   0  0  0  0  0  0  0  0  0  0  0  0
   51.5404   11.5946   16.6532 H   0  0  0  0  0  0  0  0  0  0  0  0
   49.8908   11.8029   16.1131 H   0  0  0  0  0  0  0  0  0  0  0  0
   48.6398    9.8580   15.6488 H   0  0  0  0  0  0  0  0  0  0  0  0
   50.4650    8.2931   13.7344 H   0  0  0  0  0  0  0  0  0  0  0  0
   49.6816    9.8156   13.3760 H   0  0  0  0  0  0  0  0  0  0  0  0
   49.4063    6.2942   13.1086 H   0  0  0  0  0  0  0  0  0  0  0  0
   47.0086    9.8468   13.5828 H   0  0  0  0  0  0  0  0  0  0  0  0
   54.2310   14.8615   21.2061 H   0  0  0  0  0  0  0  0  0  0  0  0
   47.4666    5.0836   12.2745 H   0  0  0  0  0  0  0  0  0  0  0  0
   45.0505    8.6216   12.7291 H   0  0  0  0  0  0  0  0  0  0  0  0
   48.3713    7.4480   16.0930 H   0  0  0  0  0  0  0  0  0  0  0  0
   50.1218    7.2010   16.0864 H   0  0  0  0  0  0  0  0  0  0  0  0
   49.3526    8.1440   17.3714 H   0  0  0  0  0  0  0  0  0  0  0  0
   44.0307    4.6219   11.0975 H   0  0  0  0  0  0  0  0  0  0  0  0
   45.3166    4.1806   12.2331 H   0  0  0  0  0  0  0  0  0  0  0  0
   45.7145    4.8738   10.6103 H   0  0  0  0  0  0  0  0  0  0  0  0
   50.5457   11.4052   19.1328 H   0  0  0  0  0  0  0  0  0  0  0  0
   47.7581    7.3969   14.4635 H   0  0  0  0  0  0  0  0  0  0  0  0
   49.0145   11.5676   15.4548 H   0  0  0  0  0  0  0  0  0  0  0  0
   49.1997    8.9645   17.1211 H   0  0  0  0  0  0  0  0  0  0  0  0
   52.9330   12.3713   22.1239 H   0  0  0  0  0  0  0  0  0  0  0  0
   51.7598   12.9540   14.7229 H   0  0  0  0  0  0  0  0  0  0  0  0
   49.8473   13.0874   22.2027 H   0  0  0  0  0  0  0  0  0  0  0  0
   50.8882   10.4089   15.7517 H   0  0  0  0  0  0  0  0  0  0  0  0
   49.1694   13.3372   18.5428 H   0  0  0  0  0  0  0  0  0  0  0  0
   50.5652   14.0108   16.2419 H   0  0  0  0  0  0  0  0  0  0  0  0
   53.2777   12.4056   17.6551 H   0  0  0  0  0  0  0  0  0  0  0  0
   53.7797   12.2845   20.0442 H   0  0  0  0  0  0  0  0  0  0  0  0
   48.7653   12.3220   16.5105 H   0  0  0  0  0  0  0  0  0  0  0  0
   49.5176   12.2258   14.9118 H   0  0  0  0  0  0  0  0  0  0  0  0
   49.3247    8.6882   16.0679 H   0  0  0  0  0  0  0  0  0  0  0  0
   49.7018    9.5525   13.7171 H   0  0  0  0  0  0  0  0  0  0  0  0
   48.2948   10.5872   13.8836 H   0  0  0  0  0  0  0  0  0  0  0  0
   49.3660    6.9801   14.1391 H   0  0  0  0  0  0  0  0  0  0  0  0
   46.1379    9.7254   13.3272 H   0  0  0  0  0  0  0  0  0  0  0  0
   47.6457   13.4868   22.1033 H   0  0  0  0  0  0  0  0  0  0  0  0
   47.9503    5.1063   13.4729 H   0  0  0  0  0  0  0  0  0  0  0  0
   44.7224    7.8264   12.6451 H   0  0  0  0  0  0  0  0  0  0  0  0
   46.9703    9.0315   16.4169 H   0  0  0  0  0  0  0  0  0  0  0  0
   47.1007   10.7781   16.1924 H   0  0  0  0  0  0  0  0  0  0  0  0
   47.8378   10.0001   17.6071 H   0  0  0  0  0  0  0  0  0  0  0  0
   44.8014    3.4090   12.6506 H   0  0  0  0  0  0  0  0  0  0  0  0
   46.4937    3.7071   12.2523 H   0  0  0  0  0  0  0  0  0  0  0  0
   45.9063    3.8752   13.9498 H   0  0  0  0  0  0  0  0  0  0  0  0
   48.8596    9.7722   15.7279 H   0  0  0  0  0  0  0  0  0  0  0  0
   49.4539   10.7305   16.7515 H   0  0  0  0  0  0  0  0  0  0  0  0
  2 10  1  0
  3 12  1  0
  4 19  1  0
  4 26  1  0
  5 22  2  0
  6  9  1  0
  6 22  1  0
  7 15  1  0
  7 17  1  0
  8 11  2  0
  8 12  1  0
  8 13  1  0
  9 10  2  0
  9 11  1  0
 10 14  1  0
 12 15  1  0
 13 14  2  0
 16 18  1  0
 16 20  2  0
 16 21  1  0
 17 18  1  0
 17 25  1  0
 19 23  2  0
 19 24  1  0
 20 23  1  0
 21 24  2  0
 27 31  1  0
 28 32  1  0
 29 31  2  0
 30 32  2  0
 31 33  1  0
 32 34  1  0
 33 34  2  0
 35 43  1  0
 36 45  1  0
 37 52  1  0
 37 59  1  0
 38 55  2  0
 39 42  1  0
 39 55  1  0
 40 48  1  0
 40 50  1  0
 41 44  2  0
 41 45  1  0
 41 46  1  0
 42 43  2  0
 42 44  1  0
 43 47  1  0
 45 48  1  0
 46 47  2  0
 49 51  1  0
 49 53  2  0
 49 54  1  0
 50 51  1  0
 50 58  1  0
 52 56  2  0
 52 57  1  0
 53 56  1  0
 54 57  2  0
  1 61  1  0
  1 62  1  0
  2 63  1  0
  3 64  1  0
  6 65  1  0
  7 66  1  0
 11 67  1  0
 12 68  1  1
 13 69  1  0
 14 70  1  0
 15 71  1  0
 15 72  1  0
 17 73  1  1
 18 74  1  0
 18 75  1  0
 20 76  1  0
 21 77  1  0
 22 78  1  0
 23 79  1  0
 24 80  1  0
 25 81  1  0
 25 82  1  0
 25 83  1  0
 26 84  1  0
 26 85  1  0
 26 86  1  0
 27 87  1  0
 28 88  1  0
 33 89  1  0
 34 90  1  0
 35 91  1  0
 36 92  1  0
 39 93  1  0
 40 94  1  0
 44 95  1  0
 45 96  1  1
 46 97  1  0
 47 98  1  0
 48 99  1  0
 48100  1  0
 50101  1  6
 51102  1  0
 51103  1  0
 53104  1  0
 54105  1  0
 55106  1  0
 56107  1  0
 57108  1  0
 58109  1  0
 58110  1  0
 58111  1  0
 59112  1  0
 59113  1  0
 59114  1  0
 60115  1  0
 60116  1  0
M  END
> <Uni-Dock RESULT> 
ENERGY=   -5.034  LOWER_BOUND=    3.225  UPPER_BOUND=    4.322
INTER + INTRA:          -5.034
INTER:                  -5.034
INTRA:                   0.000
UNBOUND:                 0.000

$$$$
