
     RDKit          3D

116115  0  0  0  0  0  0  0  0999 V2000
   49.7752    6.5557   16.6830 O   0  0  0  0  0  0  0  0  0  0  0  0
   49.1920    9.8101   10.9053 O   0  0  0  0  0  0  0  0  0  0  0  0
   48.4322    5.5551   15.4294 O   0  0  0  0  0  0  0  0  0  0  0  0
   55.1092    5.1043   19.3139 O   0  0  0  0  0  0  0  0  0  0  0  0
   47.1358   11.2501   10.8867 O   0  0  0  0  0  0  0  0  0  0  0  0
   46.9858   10.2523   12.9852 N   0  0  0  0  0  0  0  0  0  0  0  0
   49.0886    6.8952   18.2731 N   0  0  0  0  0  0  0  0  0  0  0  0
   49.1282    7.6164   14.4482 C   0  0  0  0  0  0  0  0  0  0  0  0
   48.0600    9.3368   13.0406 C   0  0  0  0  0  0  0  0  0  0  0  0
   49.0726    9.1469   12.0893 C   0  0  0  0  0  0  0  0  0  0  0  0
   48.1006    8.5483   14.2081 C   0  0  0  0  0  0  0  0  0  0  0  0
   49.1742    6.7490   15.6937 C   0  0  1  0  0  0  0  0  0  0  0  0
   50.1178    7.4517   13.4722 C   0  0  0  0  0  0  0  0  0  0  0  0
   50.0895    8.2105   12.3057 C   0  0  0  0  0  0  0  0  0  0  0  0
   48.6286    7.4354   16.9790 C   0  0  0  0  0  0  0  0  0  0  0  0
   50.9551    5.0093   19.7350 C   0  0  0  0  0  0  0  0  0  0  0  0
   48.7361    5.4847   18.5290 C   0  0  1  0  0  0  0  0  0  0  0  0
   49.4444    4.9826   19.8171 C   0  0  0  0  0  0  0  0  0  0  0  0
   53.7574    5.1380   19.5226 C   0  0  0  0  0  0  0  0  0  0  0  0
   51.6891    5.9189   20.5084 C   0  0  0  0  0  0  0  0  0  0  0  0
   51.6401    4.1488   18.8696 C   0  0  0  0  0  0  0  0  0  0  0  0
   46.6238   11.1131   11.9859 C   0  0  0  0  0  0  0  0  0  0  0  0
   53.0819    5.9867   20.3967 C   0  0  0  0  0  0  0  0  0  0  0  0
   53.0300    4.2165   18.7695 C   0  0  0  0  0  0  0  0  0  0  0  0
   47.2212    5.3039   18.6870 C   0  0  0  0  0  0  0  0  0  0  0  0
   55.8824    6.1097   19.9552 C   0  0  0  0  0  0  0  0  0  0  0  0
   48.1147    8.5123   15.2149 O   0  0  0  0  0  0  0  0  0  0  0  0
   51.8208    5.2866   18.3403 O   0  0  0  0  0  0  0  0  0  0  0  0
   49.4488    6.9703   14.2738 O   0  0  0  0  0  0  0  0  0  0  0  0
   50.4652    6.8053   19.2835 O   0  0  0  0  0  0  0  0  0  0  0  0
   49.0534    7.5541   15.2668 C   0  0  0  0  0  0  0  0  0  0  0  0
   50.8688    6.2322   18.2903 C   0  0  0  0  0  0  0  0  0  0  0  0
   49.4928    7.3524   16.6485 C   0  0  0  0  0  0  0  0  0  0  0  0
   50.4373    6.4397   16.9063 C   0  0  0  0  0  0  0  0  0  0  0  0
   47.3580    7.0757   10.9783 O   0  0  0  0  0  0  0  0  0  0  0  0
   49.0450    9.9447   16.4308 O   0  0  0  0  0  0  0  0  0  0  0  0
   54.4879    5.0231   21.7343 O   0  0  0  0  0  0  0  0  0  0  0  0
   44.9034    7.4510   11.2581 O   0  0  0  0  0  0  0  0  0  0  0  0
   45.7719    8.7606   12.9791 N   0  0  0  0  0  0  0  0  0  0  0  0
   50.2492    7.9105   17.6353 N   0  0  0  0  0  0  0  0  0  0  0  0
   49.2289    8.7429   14.3255 C   0  0  0  0  0  0  0  0  0  0  0  0
   47.1495    8.4310   13.0258 C   0  0  0  0  0  0  0  0  0  0  0  0
   47.8689    7.6670   12.0982 C   0  0  0  0  0  0  0  0  0  0  0  0
   47.8515    8.9691   14.1232 C   0  0  0  0  0  0  0  0  0  0  0  0
   49.9621    9.3097   15.5252 C   0  0  2  0  0  0  0  0  0  0  0  0
   49.9193    8.0044   13.3549 C   0  0  0  0  0  0  0  0  0  0  0  0
   49.2432    7.4711   12.2582 C   0  0  0  0  0  0  0  0  0  0  0  0
   50.8342    8.2908   16.3263 C   0  0  0  0  0  0  0  0  0  0  0  0
   51.6491    5.2866   18.6759 C   0  0  0  0  0  0  0  0  0  0  0  0
   49.6500    6.5579   17.6956 C   0  0  2  0  0  0  0  0  0  0  0  0
   50.6543    5.3874   17.5432 C   0  0  0  0  0  0  0  0  0  0  0  0
   53.4975    5.0704   20.7923 C   0  0  0  0  0  0  0  0  0  0  0  0
   51.2776    4.6980   19.8929 C   0  0  0  0  0  0  0  0  0  0  0  0
   52.9527    5.7763   18.5318 C   0  0  0  0  0  0  0  0  0  0  0  0
   44.7988    8.3054   12.1296 C   0  0  0  0  0  0  0  0  0  0  0  0
   52.1983    4.5844   20.9400 C   0  0  0  0  0  0  0  0  0  0  0  0
   53.8609    5.6778   19.5902 C   0  0  0  0  0  0  0  0  0  0  0  0
   48.4862    6.3812   16.7209 C   0  0  0  0  0  0  0  0  0  0  0  0
   54.2284    4.2366   22.8925 C   0  0  0  0  0  0  0  0  0  0  0  0
   49.7297    6.6150   16.6164 O   0  0  0  0  0  0  0  0  0  0  0  0
   50.4529    6.6935   17.3615 H   0  0  0  0  0  0  0  0  0  0  0  0
   49.6591    7.4331   16.2905 H   0  0  0  0  0  0  0  0  0  0  0  0
   48.4271   10.4175   10.7939 H   0  0  0  0  0  0  0  0  0  0  0  0
   48.0595    5.6178   14.5333 H   0  0  0  0  0  0  0  0  0  0  0  0
   46.3946   10.2838   13.8051 H   0  0  0  0  0  0  0  0  0  0  0  0
   50.1077    6.9742   18.3015 H   0  0  0  0  0  0  0  0  0  0  0  0
   47.3127    8.6565   14.9504 H   0  0  0  0  0  0  0  0  0  0  0  0
   50.2161    6.4560   15.8786 H   0  0  0  0  0  0  0  0  0  0  0  0
   50.9218    6.7265   13.6147 H   0  0  0  0  0  0  0  0  0  0  0  0
   50.8580    8.0675   11.5492 H   0  0  0  0  0  0  0  0  0  0  0  0
   48.9522    8.4827   16.9743 H   0  0  0  0  0  0  0  0  0  0  0  0
   47.5329    7.4592   16.9649 H   0  0  0  0  0  0  0  0  0  0  0  0
   49.0821    4.8565   17.7011 H   0  0  0  0  0  0  0  0  0  0  0  0
   49.1357    3.9520   20.0336 H   0  0  0  0  0  0  0  0  0  0  0  0
   49.1083    5.5760   20.6773 H   0  0  0  0  0  0  0  0  0  0  0  0
   51.1760    6.5940   21.1898 H   0  0  0  0  0  0  0  0  0  0  0  0
   51.0980    3.4231   18.2694 H   0  0  0  0  0  0  0  0  0  0  0  0
   45.7446   11.7109   12.2822 H   0  0  0  0  0  0  0  0  0  0  0  0
   53.6046    6.7061   21.0157 H   0  0  0  0  0  0  0  0  0  0  0  0
   53.5525    3.5533   18.0823 H   0  0  0  0  0  0  0  0  0  0  0  0
   46.8158    5.9660   19.4601 H   0  0  0  0  0  0  0  0  0  0  0  0
   46.6927    5.5025   17.7490 H   0  0  0  0  0  0  0  0  0  0  0  0
   46.9892    4.2747   18.9752 H   0  0  0  0  0  0  0  0  0  0  0  0
   55.8431    6.0118   21.0452 H   0  0  0  0  0  0  0  0  0  0  0  0
   55.5676    7.1095   19.6412 H   0  0  0  0  0  0  0  0  0  0  0  0
   56.9244    5.9845   19.6465 H   0  0  0  0  0  0  0  0  0  0  0  0
   47.8893    8.5800   14.2650 H   0  0  0  0  0  0  0  0  0  0  0  0
   52.0291    5.2058   19.2946 H   0  0  0  0  0  0  0  0  0  0  0  0
   49.0274    7.9560   17.4204 H   0  0  0  0  0  0  0  0  0  0  0  0
   50.9011    5.8343   16.1357 H   0  0  0  0  0  0  0  0  0  0  0  0
   46.3831    7.1516   10.9960 H   0  0  0  0  0  0  0  0  0  0  0  0
   49.1397    9.4253   17.2586 H   0  0  0  0  0  0  0  0  0  0  0  0
   45.4511    9.3995   13.6986 H   0  0  0  0  0  0  0  0  0  0  0  0
   50.9967    7.9293   18.3363 H   0  0  0  0  0  0  0  0  0  0  0  0
   47.3153    9.5694   14.8580 H   0  0  0  0  0  0  0  0  0  0  0  0
   50.6095   10.1089   15.1456 H   0  0  0  0  0  0  0  0  0  0  0  0
   50.9911    7.8341   13.4334 H   0  0  0  0  0  0  0  0  0  0  0  0
   49.7854    6.8967   11.5105 H   0  0  0  0  0  0  0  0  0  0  0  0
   51.7649    8.8240   16.5657 H   0  0  0  0  0  0  0  0  0  0  0  0
   51.1551    7.4362   15.7262 H   0  0  0  0  0  0  0  0  0  0  0  0
   49.2119    6.4868   18.6992 H   0  0  0  0  0  0  0  0  0  0  0  0
   50.0997    4.4403   17.4954 H   0  0  0  0  0  0  0  0  0  0  0  0
   51.1916    5.4489   16.5903 H   0  0  0  0  0  0  0  0  0  0  0  0
   50.2643    4.3190   20.0329 H   0  0  0  0  0  0  0  0  0  0  0  0
   53.2726    6.2347   17.5974 H   0  0  0  0  0  0  0  0  0  0  0  0
   43.8330    8.8031   12.3379 H   0  0  0  0  0  0  0  0  0  0  0  0
   51.8646    4.1170   21.8597 H   0  0  0  0  0  0  0  0  0  0  0  0
   54.8663    6.0716   19.4712 H   0  0  0  0  0  0  0  0  0  0  0  0
   47.9231    5.4716   16.9652 H   0  0  0  0  0  0  0  0  0  0  0  0
   48.8311    6.2811   15.6848 H   0  0  0  0  0  0  0  0  0  0  0  0
   47.7821    7.2186   16.7855 H   0  0  0  0  0  0  0  0  0  0  0  0
   53.9994    3.1981   22.6256 H   0  0  0  0  0  0  0  0  0  0  0  0
   53.4231    4.6739   23.4960 H   0  0  0  0  0  0  0  0  0  0  0  0
   55.1383    4.2284   23.5016 H   0  0  0  0  0  0  0  0  0  0  0  0
   50.3738    6.5139   17.3324 H   0  0  0  0  0  0  0  0  0  0  0  0
   49.7837    7.5534   16.3861 H   0  0  0  0  0  0  0  0  0  0  0  0
  2 10  1  0
  3 12  1  0
  4 19  1  0
  4 26  1  0
  5 22  2  0
  6  9  1  0
  6 22  1  0
  7 15  1  0
  7 17  1  0
  8 11  2  0
  8 12  1  0
  8 13  1  0
  9 10  2  0
  9 11  1  0
 10 14  1  0
 12 15  1  0
 13 14  2  0
 16 18  1  0
 16 20  2  0
 16 21  1  0
 17 18  1  0
 17 25  1  0
 19 23  2  0
 19 24  1  0
 20 23  1  0
 21 24  2  0
 27 31  1  0
 28 32  1  0
 29 31  2  0
 30 32  2  0
 31 33  1  0
 32 34  1  0
 33 34  2  0
 35 43  1  0
 36 45  1  0
 37 52  1  0
 37 59  1  0
 38 55  2  0
 39 42  1  0
 39 55  1  0
 40 48  1  0
 40 50  1  0
 41 44  2  0
 41 45  1  0
 41 46  1  0
 42 43  2  0
 42 44  1  0
 43 47  1  0
 45 48  1  0
 46 47  2  0
 49 51  1  0
 49 53  2  0
 49 54  1  0
 50 51  1  0
 50 58  1  0
 52 56  2  0
 52 57  1  0
 53 56  1  0
 54 57  2  0
  1 61  1  0
  1 62  1  0
  2 63  1  0
  3 64  1  0
  6 65  1  0
  7 66  1  0
 11 67  1  0
 12 68  1  1
 13 69  1  0
 14 70  1  0
 15 71  1  0
 15 72  1  0
 17 73  1  1
 18 74  1  0
 18 75  1  0
 20 76  1  0
 21 77  1  0
 22 78  1  0
 23 79  1  0
 24 80  1  0
 25 81  1  0
 25 82  1  0
 25 83  1  0
 26 84  1  0
 26 85  1  0
 26 86  1  0
 27 87  1  0
 28 88  1  0
 33 89  1  0
 34 90  1  0
 35 91  1  0
 36 92  1  0
 39 93  1  0
 40 94  1  0
 44 95  1  0
 45 96  1  1
 46 97  1  0
 47 98  1  0
 48 99  1  0
 48100  1  0
 50101  1  6
 51102  1  0
 51103  1  0
 53104  1  0
 54105  1  0
 55106  1  0
 56107  1  0
 57108  1  0
 58109  1  0
 58110  1  0
 58111  1  0
 59112  1  0
 59113  1  0
 59114  1  0
 60115  1  0
 60116  1  0
M  END
> <Uni-Dock RESULT> 
ENERGY=   -5.404  LOWER_BOUND=    0.000  UPPER_BOUND=    0.000
INTER + INTRA:          -5.404
INTER:                  -5.404
INTRA:                   0.000
UNBOUND:                 0.000

$$$$

     RDKit          3D

116115  0  0  0  0  0  0  0  0999 V2000
   49.9254    7.4398   15.5229 O   0  0  0  0  0  0  0  0  0  0  0  0
   52.6890    3.6995   20.2859 O   0  0  0  0  0  0  0  0  0  0  0  0
   52.0021    7.3854   15.2767 O   0  0  0  0  0  0  0  0  0  0  0  0
   45.1383    5.7218   12.1153 O   0  0  0  0  0  0  0  0  0  0  0  0
   53.5934    5.1282   22.1414 O   0  0  0  0  0  0  0  0  0  0  0  0
   52.7725    6.7380   20.6728 N   0  0  0  0  0  0  0  0  0  0  0  0
   49.2947    9.0875   15.5700 N   0  0  0  0  0  0  0  0  0  0  0  0
   51.3603    6.2701   17.2867 C   0  0  0  0  0  0  0  0  0  0  0  0
   52.3323    6.0191   19.5394 C   0  0  0  0  0  0  0  0  0  0  0  0
   52.2870    4.6274   19.3731 C   0  0  0  0  0  0  0  0  0  0  0  0
   51.8760    6.8221   18.4748 C   0  0  0  0  0  0  0  0  0  0  0  0
   50.8813    7.1240   16.1260 C   0  0  1  0  0  0  0  0  0  0  0  0
   51.3369    4.8767   17.1564 C   0  0  0  0  0  0  0  0  0  0  0  0
   51.7950    4.0651   18.1901 C   0  0  0  0  0  0  0  0  0  0  0  0
   50.2122    8.4650   16.5440 C   0  0  0  0  0  0  0  0  0  0  0  0
   47.7966    8.8333   12.9492 C   0  0  0  0  0  0  0  0  0  0  0  0
   49.9045    9.4610   14.2784 C   0  0  1  0  0  0  0  0  0  0  0  0
   48.8042    9.9129   13.2794 C   0  0  0  0  0  0  0  0  0  0  0  0
   45.9351    6.7896   12.4268 C   0  0  0  0  0  0  0  0  0  0  0  0
   46.4725    8.9417   13.3959 C   0  0  0  0  0  0  0  0  0  0  0  0
   48.1743    7.7009   12.2188 C   0  0  0  0  0  0  0  0  0  0  0  0
   53.3212    6.2786   21.8383 C   0  0  0  0  0  0  0  0  0  0  0  0
   45.5497    7.9215   13.1415 C   0  0  0  0  0  0  0  0  0  0  0  0
   47.2464    6.6913   11.9617 C   0  0  0  0  0  0  0  0  0  0  0  0
   50.9253   10.5934   14.4457 C   0  0  0  0  0  0  0  0  0  0  0  0
   43.8331    5.7100   12.6776 C   0  0  0  0  0  0  0  0  0  0  0  0
   51.2582    7.5529   18.1595 O   0  0  0  0  0  0  0  0  0  0  0  0
   47.9536    7.2318   13.3757 O   0  0  0  0  0  0  0  0  0  0  0  0
   51.4850    5.9009   16.6553 O   0  0  0  0  0  0  0  0  0  0  0  0
   47.7492    8.8989   14.8630 O   0  0  0  0  0  0  0  0  0  0  0  0
   50.9301    6.9213   17.0213 C   0  0  0  0  0  0  0  0  0  0  0  0
   48.2945    7.8732   14.5050 C   0  0  0  0  0  0  0  0  0  0  0  0
   49.8473    7.6350   16.3424 C   0  0  0  0  0  0  0  0  0  0  0  0
   49.3711    7.1528   15.1880 C   0  0  0  0  0  0  0  0  0  0  0  0
   54.9307    4.8888   18.1869 O   0  0  0  0  0  0  0  0  0  0  0  0
   49.3310    7.8744   18.9199 O   0  0  0  0  0  0  0  0  0  0  0  0
   44.1058    7.9214   11.5261 O   0  0  0  0  0  0  0  0  0  0  0  0
   56.3223    6.7663   19.0714 O   0  0  0  0  0  0  0  0  0  0  0  0
   54.1718    7.4970   19.5937 N   0  0  0  0  0  0  0  0  0  0  0  0
   48.5063    7.8722   16.3983 N   0  0  0  0  0  0  0  0  0  0  0  0
   50.9483    6.1541   18.3408 C   0  0  0  0  0  0  0  0  0  0  0  0
   53.3092    6.5889   18.9305 C   0  0  0  0  0  0  0  0  0  0  0  0
   53.6657    5.3911   18.2982 C   0  0  0  0  0  0  0  0  0  0  0  0
   51.9452    6.9435   18.9510 C   0  0  0  0  0  0  0  0  0  0  0  0
   49.4890    6.5642   18.3518 C   0  0  2  0  0  0  0  0  0  0  0  0
   51.3421    4.9451   17.7513 C   0  0  0  0  0  0  0  0  0  0  0  0
   52.6859    4.5737   17.7287 C   0  0  0  0  0  0  0  0  0  0  0  0
   48.7672    6.5272   16.9669 C   0  0  0  0  0  0  0  0  0  0  0  0
   47.8656    7.5949   13.3258 C   0  0  0  0  0  0  0  0  0  0  0  0
   49.3866    8.2704   15.2763 C   0  0  2  0  0  0  0  0  0  0  0  0
   49.2177    7.4359   13.9811 C   0  0  0  0  0  0  0  0  0  0  0  0
   45.3569    7.8979   12.0780 C   0  0  0  0  0  0  0  0  0  0  0  0
   47.5908    8.7201   12.5360 C   0  0  0  0  0  0  0  0  0  0  0  0
   46.8683    6.6271   13.4941 C   0  0  0  0  0  0  0  0  0  0  0  0
   55.5402    7.5111   19.6494 C   0  0  0  0  0  0  0  0  0  0  0  0
   46.3476    8.8656   11.9110 C   0  0  0  0  0  0  0  0  0  0  0  0
   45.6213    6.7898   12.8831 C   0  0  0  0  0  0  0  0  0  0  0  0
   50.8613    8.3314   15.6727 C   0  0  0  0  0  0  0  0  0  0  0  0
   43.8628    8.9203   10.5409 C   0  0  0  0  0  0  0  0  0  0  0  0
   49.9761    7.4237   15.6077 O   0  0  0  0  0  0  0  0  0  0  0  0
   48.9853    7.4871   15.2937 H   0  0  0  0  0  0  0  0  0  0  0  0
   49.9228    7.2620   16.4746 H   0  0  0  0  0  0  0  0  0  0  0  0
   53.0633    4.1567   21.0716 H   0  0  0  0  0  0  0  0  0  0  0  0
   52.7905    6.9792   15.6758 H   0  0  0  0  0  0  0  0  0  0  0  0
   52.6651    7.7423   20.6231 H   0  0  0  0  0  0  0  0  0  0  0  0
   48.5406    8.4233   15.3807 H   0  0  0  0  0  0  0  0  0  0  0  0
   51.9246    7.9049   18.5669 H   0  0  0  0  0  0  0  0  0  0  0  0
   50.1528    6.5457   15.5426 H   0  0  0  0  0  0  0  0  0  0  0  0
   50.9599    4.4117   16.2430 H   0  0  0  0  0  0  0  0  0  0  0  0
   51.7816    2.9835   18.0744 H   0  0  0  0  0  0  0  0  0  0  0  0
   49.6022    8.2824   17.4363 H   0  0  0  0  0  0  0  0  0  0  0  0
   50.9725    9.1954   16.8439 H   0  0  0  0  0  0  0  0  0  0  0  0
   50.4082    8.5938   13.8379 H   0  0  0  0  0  0  0  0  0  0  0  0
   49.2670   10.2419   12.3403 H   0  0  0  0  0  0  0  0  0  0  0  0
   48.2866   10.7957   13.6763 H   0  0  0  0  0  0  0  0  0  0  0  0
   46.1577    9.8154   13.9622 H   0  0  0  0  0  0  0  0  0  0  0  0
   49.1900    7.5975   11.8467 H   0  0  0  0  0  0  0  0  0  0  0  0
   53.5268    7.1130   22.5309 H   0  0  0  0  0  0  0  0  0  0  0  0
   44.5382    8.0517   13.5073 H   0  0  0  0  0  0  0  0  0  0  0  0
   47.5538    5.8073   11.4057 H   0  0  0  0  0  0  0  0  0  0  0  0
   50.4841   11.4616   14.9477 H   0  0  0  0  0  0  0  0  0  0  0  0
   51.7974   10.2667   15.0215 H   0  0  0  0  0  0  0  0  0  0  0  0
   51.2901   10.9237   13.4690 H   0  0  0  0  0  0  0  0  0  0  0  0
   43.2240    6.5359   12.2953 H   0  0  0  0  0  0  0  0  0  0  0  0
   43.8746    5.7288   13.7709 H   0  0  0  0  0  0  0  0  0  0  0  0
   43.3468    4.7744   12.3864 H   0  0  0  0  0  0  0  0  0  0  0  0
   51.9758    7.0079   18.5413 H   0  0  0  0  0  0  0  0  0  0  0  0
   47.2501    7.7911   12.9848 H   0  0  0  0  0  0  0  0  0  0  0  0
   49.4701    8.5405   16.8054 H   0  0  0  0  0  0  0  0  0  0  0  0
   49.7493    6.2492   14.7233 H   0  0  0  0  0  0  0  0  0  0  0  0
   55.5682    5.5629   18.4961 H   0  0  0  0  0  0  0  0  0  0  0  0
   48.9471    8.4007   18.1855 H   0  0  0  0  0  0  0  0  0  0  0  0
   53.7135    8.2676   20.0678 H   0  0  0  0  0  0  0  0  0  0  0  0
   47.5480    7.8846   16.0351 H   0  0  0  0  0  0  0  0  0  0  0  0
   51.6413    7.8695   19.4389 H   0  0  0  0  0  0  0  0  0  0  0  0
   48.9775    5.8774   19.0365 H   0  0  0  0  0  0  0  0  0  0  0  0
   50.6130    4.2729   17.3036 H   0  0  0  0  0  0  0  0  0  0  0  0
   52.9840    3.6352   17.2668 H   0  0  0  0  0  0  0  0  0  0  0  0
   47.7758    6.0951   17.1627 H   0  0  0  0  0  0  0  0  0  0  0  0
   49.2318    5.8363   16.2595 H   0  0  0  0  0  0  0  0  0  0  0  0
   49.0976    9.3028   15.0424 H   0  0  0  0  0  0  0  0  0  0  0  0
   49.9833    7.7396   13.2542 H   0  0  0  0  0  0  0  0  0  0  0  0
   49.4101    6.3735   14.1674 H   0  0  0  0  0  0  0  0  0  0  0  0
   48.3481    9.4932   12.3989 H   0  0  0  0  0  0  0  0  0  0  0  0
   47.0530    5.7399   14.0979 H   0  0  0  0  0  0  0  0  0  0  0  0
   55.8974    8.3354   20.2951 H   0  0  0  0  0  0  0  0  0  0  0  0
   46.1850    9.7509   11.3064 H   0  0  0  0  0  0  0  0  0  0  0  0
   44.8510    6.0381   13.0301 H   0  0  0  0  0  0  0  0  0  0  0  0
   51.4386    8.8574   14.9019 H   0  0  0  0  0  0  0  0  0  0  0  0
   51.2985    7.3315   15.7801 H   0  0  0  0  0  0  0  0  0  0  0  0
   50.9996    8.8859   16.6079 H   0  0  0  0  0  0  0  0  0  0  0  0
   44.5716    8.8393    9.7083 H   0  0  0  0  0  0  0  0  0  0  0  0
   43.8870    9.9250   10.9811 H   0  0  0  0  0  0  0  0  0  0  0  0
   42.8585    8.7543   10.1375 H   0  0  0  0  0  0  0  0  0  0  0  0
   49.1247    7.5124   15.1549 H   0  0  0  0  0  0  0  0  0  0  0  0
   49.7328    7.2528   16.5286 H   0  0  0  0  0  0  0  0  0  0  0  0
  2 10  1  0
  3 12  1  0
  4 19  1  0
  4 26  1  0
  5 22  2  0
  6  9  1  0
  6 22  1  0
  7 15  1  0
  7 17  1  0
  8 11  2  0
  8 12  1  0
  8 13  1  0
  9 10  2  0
  9 11  1  0
 10 14  1  0
 12 15  1  0
 13 14  2  0
 16 18  1  0
 16 20  2  0
 16 21  1  0
 17 18  1  0
 17 25  1  0
 19 23  2  0
 19 24  1  0
 20 23  1  0
 21 24  2  0
 27 31  1  0
 28 32  1  0
 29 31  2  0
 30 32  2  0
 31 33  1  0
 32 34  1  0
 33 34  2  0
 35 43  1  0
 36 45  1  0
 37 52  1  0
 37 59  1  0
 38 55  2  0
 39 42  1  0
 39 55  1  0
 40 48  1  0
 40 50  1  0
 41 44  2  0
 41 45  1  0
 41 46  1  0
 42 43  2  0
 42 44  1  0
 43 47  1  0
 45 48  1  0
 46 47  2  0
 49 51  1  0
 49 53  2  0
 49 54  1  0
 50 51  1  0
 50 58  1  0
 52 56  2  0
 52 57  1  0
 53 56  1  0
 54 57  2  0
  1 61  1  0
  1 62  1  0
  2 63  1  0
  3 64  1  0
  6 65  1  0
  7 66  1  0
 11 67  1  0
 12 68  1  1
 13 69  1  0
 14 70  1  0
 15 71  1  0
 15 72  1  0
 17 73  1  1
 18 74  1  0
 18 75  1  0
 20 76  1  0
 21 77  1  0
 22 78  1  0
 23 79  1  0
 24 80  1  0
 25 81  1  0
 25 82  1  0
 25 83  1  0
 26 84  1  0
 26 85  1  0
 26 86  1  0
 27 87  1  0
 28 88  1  0
 33 89  1  0
 34 90  1  0
 35 91  1  0
 36 92  1  0
 39 93  1  0
 40 94  1  0
 44 95  1  0
 45 96  1  1
 46 97  1  0
 47 98  1  0
 48 99  1  0
 48100  1  0
 50101  1  6
 51102  1  0
 51103  1  0
 53104  1  0
 54105  1  0
 55106  1  0
 56107  1  0
 57108  1  0
 58109  1  0
 58110  1  0
 58111  1  0
 59112  1  0
 59113  1  0
 59114  1  0
 60115  1  0
 60116  1  0
M  END
> <Uni-Dock RESULT> 
ENERGY=   -5.017  LOWER_BOUND=    1.699  UPPER_BOUND=    8.366
INTER + INTRA:          -5.017
INTER:                  -5.017
INTRA:                   0.000
UNBOUND:                 0.000

$$$$

     RDKit          3D

116115  0  0  0  0  0  0  0  0999 V2000
   45.0969   12.3917   11.2365 O   0  0  0  0  0  0  0  0  0  0  0  0
   38.7759   10.5593   10.2360 O   0  0  0  0  0  0  0  0  0  0  0  0
   43.8110   13.6285   12.3285 O   0  0  0  0  0  0  0  0  0  0  0  0
   49.6284    8.5390   12.6864 O   0  0  0  0  0  0  0  0  0  0  0  0
   37.6763   12.0208    8.5164 O   0  0  0  0  0  0  0  0  0  0  0  0
   39.8013   12.9651    8.6391 N   0  0  0  0  0  0  0  0  0  0  0  0
   46.2083   13.3075   10.2160 N   0  0  0  0  0  0  0  0  0  0  0  0
   42.5700   12.1313   10.9449 C   0  0  0  0  0  0  0  0  0  0  0  0
   40.4632   12.2615    9.6695 C   0  0  0  0  0  0  0  0  0  0  0  0
   39.9919   11.1542   10.3894 C   0  0  0  0  0  0  0  0  0  0  0  0
   41.7523   12.7423    9.9753 C   0  0  0  0  0  0  0  0  0  0  0  0
   43.9536   12.6495   11.2956 C   0  0  1  0  0  0  0  0  0  0  0  0
   42.0617   11.0317   11.6461 C   0  0  0  0  0  0  0  0  0  0  0  0
   40.7861   10.5487   11.3694 C   0  0  0  0  0  0  0  0  0  0  0  0
   44.7381   13.2576   10.0974 C   0  0  0  0  0  0  0  0  0  0  0  0
   48.6727   12.5032   11.7836 C   0  0  0  0  0  0  0  0  0  0  0  0
   46.7236   14.1175   11.3375 C   0  0  1  0  0  0  0  0  0  0  0  0
   48.2590   13.9253   11.4736 C   0  0  0  0  0  0  0  0  0  0  0  0
   49.3637    9.8269   12.3079 C   0  0  0  0  0  0  0  0  0  0  0  0
   49.3523   11.7397   10.8245 C   0  0  0  0  0  0  0  0  0  0  0  0
   48.3617   11.9200   13.0171 C   0  0  0  0  0  0  0  0  0  0  0  0
   38.5378   12.7998    8.1420 C   0  0  0  0  0  0  0  0  0  0  0  0
   49.6891   10.4069   11.0838 C   0  0  0  0  0  0  0  0  0  0  0  0
   48.7081   10.5928   13.2718 C   0  0  0  0  0  0  0  0  0  0  0  0
   46.4205   15.6080   11.1397 C   0  0  0  0  0  0  0  0  0  0  0  0
   50.1745    7.6788   11.6956 C   0  0  0  0  0  0  0  0  0  0  0  0
   42.6744   12.9831    9.6483 O   0  0  0  0  0  0  0  0  0  0  0  0
   47.6212   11.2843   12.2079 O   0  0  0  0  0  0  0  0  0  0  0  0
   42.7014   11.9870   11.6609 O   0  0  0  0  0  0  0  0  0  0  0  0
   47.5956   12.3078   10.2116 O   0  0  0  0  0  0  0  0  0  0  0  0
   43.3008   12.4166   10.6917 C   0  0  0  0  0  0  0  0  0  0  0  0
   46.9956   11.8674   11.1726 C   0  0  0  0  0  0  0  0  0  0  0  0
   44.7471   12.4051   10.4663 C   0  0  0  0  0  0  0  0  0  0  0  0
   45.5482   11.8693   11.3952 C   0  0  0  0  0  0  0  0  0  0  0  0
   39.0164   13.0895   12.3303 O   0  0  0  0  0  0  0  0  0  0  0  0
   43.6686   11.9886    8.0933 O   0  0  0  0  0  0  0  0  0  0  0  0
   51.6288    9.7211   11.7631 O   0  0  0  0  0  0  0  0  0  0  0  0
   38.3572   15.3099   11.3928 O   0  0  0  0  0  0  0  0  0  0  0  0
   39.8211   14.5312    9.7551 N   0  0  0  0  0  0  0  0  0  0  0  0
   45.7260   11.7779    9.7550 N   0  0  0  0  0  0  0  0  0  0  0  0
   42.1728   11.6709    9.9834 C   0  0  0  0  0  0  0  0  0  0  0  0
   40.4084   13.3698   10.3163 C   0  0  0  0  0  0  0  0  0  0  0  0
   40.0252   12.7110   11.4914 C   0  0  0  0  0  0  0  0  0  0  0  0
   41.4747   12.8255    9.5725 C   0  0  0  0  0  0  0  0  0  0  0  0
   43.3334   11.1140    9.1829 C   0  0  2  0  0  0  0  0  0  0  0  0
   41.7342   11.0208   11.1449 C   0  0  0  0  0  0  0  0  0  0  0  0
   40.6756   11.5400   11.8893 C   0  0  0  0  0  0  0  0  0  0  0  0
   44.6304   10.8080    9.9981 C   0  0  0  0  0  0  0  0  0  0  0  0
   47.8673   11.5238   12.0524 C   0  0  0  0  0  0  0  0  0  0  0  0
   45.9677   12.7511   10.8444 C   0  0  2  0  0  0  0  0  0  0  0  0
   46.4919   12.1383   12.1680 C   0  0  0  0  0  0  0  0  0  0  0  0
   50.4418   10.3936   11.8597 C   0  0  0  0  0  0  0  0  0  0  0  0
   49.0091   12.3370   12.0753 C   0  0  0  0  0  0  0  0  0  0  0  0
   48.0260   10.1391   11.9212 C   0  0  0  0  0  0  0  0  0  0  0  0
   38.8657   15.3607   10.2795 C   0  0  0  0  0  0  0  0  0  0  0  0
   50.2868   11.7740   11.9871 C   0  0  0  0  0  0  0  0  0  0  0  0
   49.3054    9.5858   11.8127 C   0  0  0  0  0  0  0  0  0  0  0  0
   44.7580   13.6428   11.1219 C   0  0  0  0  0  0  0  0  0  0  0  0
   52.8106   10.4761   12.0100 C   0  0  0  0  0  0  0  0  0  0  0  0
   45.0052   12.3998   11.1972 O   0  0  0  0  0  0  0  0  0  0  0  0
   45.8914   11.8886   11.0033 H   0  0  0  0  0  0  0  0  0  0  0  0
   44.4562   12.1410   10.5553 H   0  0  0  0  0  0  0  0  0  0  0  0
   38.2524   11.0562    9.5686 H   0  0  0  0  0  0  0  0  0  0  0  0
   42.8635   13.7374   12.5191 H   0  0  0  0  0  0  0  0  0  0  0  0
   40.3373   13.6992    8.1959 H   0  0  0  0  0  0  0  0  0  0  0  0
   46.5456   12.3501   10.3393 H   0  0  0  0  0  0  0  0  0  0  0  0
   42.1321   13.6162    9.4506 H   0  0  0  0  0  0  0  0  0  0  0  0
   44.5449   11.8204   11.7060 H   0  0  0  0  0  0  0  0  0  0  0  0
   42.6597   10.5415   12.4174 H   0  0  0  0  0  0  0  0  0  0  0  0
   40.3969    9.6996   11.9271 H   0  0  0  0  0  0  0  0  0  0  0  0
   44.5427   12.6438    9.2104 H   0  0  0  0  0  0  0  0  0  0  0  0
   44.3594   14.2584    9.8598 H   0  0  0  0  0  0  0  0  0  0  0  0
   46.2692   13.7866   12.2776 H   0  0  0  0  0  0  0  0  0  0  0  0
   48.6453   14.5715   12.2721 H   0  0  0  0  0  0  0  0  0  0  0  0
   48.7554   14.2653   10.5555 H   0  0  0  0  0  0  0  0  0  0  0  0
   49.6064   12.1753    9.8607 H   0  0  0  0  0  0  0  0  0  0  0  0
   47.8492   12.4931   13.7850 H   0  0  0  0  0  0  0  0  0  0  0  0
   38.3469   13.5036    7.3135 H   0  0  0  0  0  0  0  0  0  0  0  0
   50.2140    9.8583   10.3110 H   0  0  0  0  0  0  0  0  0  0  0  0
   48.4484   10.1435   14.2287 H   0  0  0  0  0  0  0  0  0  0  0  0
   46.7963   15.9703   10.1764 H   0  0  0  0  0  0  0  0  0  0  0  0
   45.3456   15.8098   11.1901 H   0  0  0  0  0  0  0  0  0  0  0  0
   46.8962   16.2003   11.9265 H   0  0  0  0  0  0  0  0  0  0  0  0
   51.1716    8.0076   11.3842 H   0  0  0  0  0  0  0  0  0  0  0  0
   49.5046    7.5938   10.8346 H   0  0  0  0  0  0  0  0  0  0  0  0
   50.2736    6.6801   12.1309 H   0  0  0  0  0  0  0  0  0  0  0  0
   41.7253   12.9416    9.8834 H   0  0  0  0  0  0  0  0  0  0  0  0
   48.5723   11.3467   11.9797 H   0  0  0  0  0  0  0  0  0  0  0  0
   45.1188   12.8400    9.5446 H   0  0  0  0  0  0  0  0  0  0  0  0
   45.1777   11.4366   12.3177 H   0  0  0  0  0  0  0  0  0  0  0  0
   38.6911   13.9707   12.0583 H   0  0  0  0  0  0  0  0  0  0  0  0
   44.5929   12.2568    8.2873 H   0  0  0  0  0  0  0  0  0  0  0  0
   40.1829   14.8094    8.8494 H   0  0  0  0  0  0  0  0  0  0  0  0
   46.5974   11.2516    9.6362 H   0  0  0  0  0  0  0  0  0  0  0  0
   41.7906   13.3179    8.6529 H   0  0  0  0  0  0  0  0  0  0  0  0
   42.9769   10.1852    8.7222 H   0  0  0  0  0  0  0  0  0  0  0  0
   42.2047   10.1017   11.4879 H   0  0  0  0  0  0  0  0  0  0  0  0
   40.3426   11.0313   12.7912 H   0  0  0  0  0  0  0  0  0  0  0  0
   44.9999    9.8468    9.6140 H   0  0  0  0  0  0  0  0  0  0  0  0
   44.4373   10.6231   11.0574 H   0  0  0  0  0  0  0  0  0  0  0  0
   46.7486   13.4190   10.4593 H   0  0  0  0  0  0  0  0  0  0  0  0
   46.5357   12.9226   12.9360 H   0  0  0  0  0  0  0  0  0  0  0  0
   45.7919   11.3939   12.5636 H   0  0  0  0  0  0  0  0  0  0  0  0
   48.9106   13.4196   12.1657 H   0  0  0  0  0  0  0  0  0  0  0  0
   47.1587    9.4808   11.9047 H   0  0  0  0  0  0  0  0  0  0  0  0
   38.5955   16.1532    9.5564 H   0  0  0  0  0  0  0  0  0  0  0  0
   51.1388   12.4442   12.0143 H   0  0  0  0  0  0  0  0  0  0  0  0
   49.4161    8.5112   11.6997 H   0  0  0  0  0  0  0  0  0  0  0  0
   45.0516   14.4942   11.7488 H   0  0  0  0  0  0  0  0  0  0  0  0
   43.9658   13.1043   11.6558 H   0  0  0  0  0  0  0  0  0  0  0  0
   44.3476   14.0572   10.1938 H   0  0  0  0  0  0  0  0  0  0  0  0
   52.7896   10.9344   13.0058 H   0  0  0  0  0  0  0  0  0  0  0  0
   52.9662   11.2339   11.2319 H   0  0  0  0  0  0  0  0  0  0  0  0
   53.6600    9.7858   11.9815 H   0  0  0  0  0  0  0  0  0  0  0  0
   45.8903   12.0085   11.1614 H   0  0  0  0  0  0  0  0  0  0  0  0
   44.5491   12.0130   10.4364 H   0  0  0  0  0  0  0  0  0  0  0  0
  2 10  1  0
  3 12  1  0
  4 19  1  0
  4 26  1  0
  5 22  2  0
  6  9  1  0
  6 22  1  0
  7 15  1  0
  7 17  1  0
  8 11  2  0
  8 12  1  0
  8 13  1  0
  9 10  2  0
  9 11  1  0
 10 14  1  0
 12 15  1  0
 13 14  2  0
 16 18  1  0
 16 20  2  0
 16 21  1  0
 17 18  1  0
 17 25  1  0
 19 23  2  0
 19 24  1  0
 20 23  1  0
 21 24  2  0
 27 31  1  0
 28 32  1  0
 29 31  2  0
 30 32  2  0
 31 33  1  0
 32 34  1  0
 33 34  2  0
 35 43  1  0
 36 45  1  0
 37 52  1  0
 37 59  1  0
 38 55  2  0
 39 42  1  0
 39 55  1  0
 40 48  1  0
 40 50  1  0
 41 44  2  0
 41 45  1  0
 41 46  1  0
 42 43  2  0
 42 44  1  0
 43 47  1  0
 45 48  1  0
 46 47  2  0
 49 51  1  0
 49 53  2  0
 49 54  1  0
 50 51  1  0
 50 58  1  0
 52 56  2  0
 52 57  1  0
 53 56  1  0
 54 57  2  0
  1 61  1  0
  1 62  1  0
  2 63  1  0
  3 64  1  0
  6 65  1  0
  7 66  1  0
 11 67  1  0
 12 68  1  1
 13 69  1  0
 14 70  1  0
 15 71  1  0
 15 72  1  0
 17 73  1  1
 18 74  1  0
 18 75  1  0
 20 76  1  0
 21 77  1  0
 22 78  1  0
 23 79  1  0
 24 80  1  0
 25 81  1  0
 25 82  1  0
 25 83  1  0
 26 84  1  0
 26 85  1  0
 26 86  1  0
 27 87  1  0
 28 88  1  0
 33 89  1  0
 34 90  1  0
 35 91  1  0
 36 92  1  0
 39 93  1  0
 40 94  1  0
 44 95  1  0
 45 96  1  1
 46 97  1  0
 47 98  1  0
 48 99  1  0
 48100  1  0
 50101  1  6
 51102  1  0
 51103  1  0
 53104  1  0
 54105  1  0
 55106  1  0
 56107  1  0
 57108  1  0
 58109  1  0
 58110  1  0
 58111  1  0
 59112  1  0
 59113  1  0
 59114  1  0
 60115  1  0
 60116  1  0
M  END
> <Uni-Dock RESULT> 
ENERGY=   -4.788  LOWER_BOUND=    6.283  UPPER_BOUND=    9.923
INTER + INTRA:          -4.788
INTER:                  -4.788
INTRA:                   0.000
UNBOUND:                 0.000

$$$$

     RDKit          3D

116115  0  0  0  0  0  0  0  0999 V2000
   49.0833   11.4030   17.9028 O   0  0  0  0  0  0  0  0  0  0  0  0
   50.0067   17.9204   16.9107 O   0  0  0  0  0  0  0  0  0  0  0  0
   50.5840   11.7052   16.4770 O   0  0  0  0  0  0  0  0  0  0  0  0
   48.8492    8.7403   23.4105 O   0  0  0  0  0  0  0  0  0  0  0  0
   48.7930   18.6991   14.8558 O   0  0  0  0  0  0  0  0  0  0  0  0
   48.2968   16.4241   14.8549 N   0  0  0  0  0  0  0  0  0  0  0  0
   47.8165   10.3165   17.3287 N   0  0  0  0  0  0  0  0  0  0  0  0
   49.5798   13.7790   17.0990 C   0  0  0  0  0  0  0  0  0  0  0  0
   49.0322   15.8815   15.9319 C   0  0  0  0  0  0  0  0  0  0  0  0
   49.8046   16.5736   16.8757 C   0  0  0  0  0  0  0  0  0  0  0  0
   48.9459   14.4801   16.0555 C   0  0  0  0  0  0  0  0  0  0  0  0
   49.5087   12.2682   17.2337 C   0  0  1  0  0  0  0  0  0  0  0  0
   50.3464   14.5048   18.0180 C   0  0  0  0  0  0  0  0  0  0  0  0
   50.4559   15.8878   17.9068 C   0  0  0  0  0  0  0  0  0  0  0  0
   48.1590   11.6422   16.7783 C   0  0  0  0  0  0  0  0  0  0  0  0
   48.4952    8.1151   19.2962 C   0  0  0  0  0  0  0  0  0  0  0  0
   48.7622    9.2323   16.9974 C   0  0  1  0  0  0  0  0  0  0  0  0
   48.4035    7.9486   17.7951 C   0  0  0  0  0  0  0  0  0  0  0  0
   48.6390    8.5197   22.0766 C   0  0  0  0  0  0  0  0  0  0  0  0
   47.3340    8.1019   20.0811 C   0  0  0  0  0  0  0  0  0  0  0  0
   49.7323    8.3111   19.9204 C   0  0  0  0  0  0  0  0  0  0  0  0
   48.2099   17.7186   14.4223 C   0  0  0  0  0  0  0  0  0  0  0  0
   47.4063    8.3102   21.4626 C   0  0  0  0  0  0  0  0  0  0  0  0
   49.7975    8.5099   21.2997 C   0  0  0  0  0  0  0  0  0  0  0  0
   48.7461    8.9115   15.4976 C   0  0  0  0  0  0  0  0  0  0  0  0
   47.6944    8.8922   24.2250 C   0  0  0  0  0  0  0  0  0  0  0  0
   48.3611   13.6641   16.1402 O   0  0  0  0  0  0  0  0  0  0  0  0
   49.1621    9.4345   20.0616 O   0  0  0  0  0  0  0  0  0  0  0  0
   50.2108   13.5399   17.4077 O   0  0  0  0  0  0  0  0  0  0  0  0
   47.3287    9.5416   18.7729 O   0  0  0  0  0  0  0  0  0  0  0  0
   49.1269   13.0905   17.0819 C   0  0  0  0  0  0  0  0  0  0  0  0
   48.4046    9.9982   19.1069 C   0  0  0  0  0  0  0  0  0  0  0  0
   48.4621   11.9013   17.6173 C   0  0  0  0  0  0  0  0  0  0  0  0
   49.0665   11.1932   18.5792 C   0  0  0  0  0  0  0  0  0  0  0  0
   52.0503   16.0878   15.0909 O   0  0  0  0  0  0  0  0  0  0  0  0
   46.5245   13.6323   17.1511 O   0  0  0  0  0  0  0  0  0  0  0  0
   47.4116    6.7448   22.9605 O   0  0  0  0  0  0  0  0  0  0  0  0
   51.4807   15.9577   12.6614 O   0  0  0  0  0  0  0  0  0  0  0  0
   49.4308   15.4486   13.6461 N   0  0  0  0  0  0  0  0  0  0  0  0
   47.4500   11.5061   18.4401 N   0  0  0  0  0  0  0  0  0  0  0  0
   48.7672   14.5701   17.1890 C   0  0  0  0  0  0  0  0  0  0  0  0
   49.7204   15.2881   15.0241 C   0  0  0  0  0  0  0  0  0  0  0  0
   50.9205   15.5940   15.6780 C   0  0  0  0  0  0  0  0  0  0  0  0
   48.6544   14.7903   15.8004 C   0  0  0  0  0  0  0  0  0  0  0  0
   47.6175   14.0108   18.0034 C   0  0  2  0  0  0  0  0  0  0  0  0
   49.9723   14.9240   17.8109 C   0  0  0  0  0  0  0  0  0  0  0  0
   51.0350   15.4256   17.0605 C   0  0  0  0  0  0  0  0  0  0  0  0
   47.9715   12.8049   18.9312 C   0  0  0  0  0  0  0  0  0  0  0  0
   48.9503    9.1599   19.9139 C   0  0  0  0  0  0  0  0  0  0  0  0
   48.4589   10.5979   17.8488 C   0  0  2  0  0  0  0  0  0  0  0  0
   49.5200   10.0595   18.8420 C   0  0  0  0  0  0  0  0  0  0  0  0
   47.9075    7.4614   21.9064 C   0  0  0  0  0  0  0  0  0  0  0  0
   48.6587    7.8184   19.6296 C   0  0  0  0  0  0  0  0  0  0  0  0
   48.7047    9.6465   21.2033 C   0  0  0  0  0  0  0  0  0  0  0  0
   50.2687   15.7860   12.6166 C   0  0  0  0  0  0  0  0  0  0  0  0
   48.1482    6.9744   20.6216 C   0  0  0  0  0  0  0  0  0  0  0  0
   48.1749    8.8022   22.1837 C   0  0  0  0  0  0  0  0  0  0  0  0
   49.1449   11.1936   16.6199 C   0  0  0  0  0  0  0  0  0  0  0  0
   47.3170    5.3350   22.7841 C   0  0  0  0  0  0  0  0  0  0  0  0
   49.0751   11.4893   17.8526 O   0  0  0  0  0  0  0  0  0  0  0  0
   48.5887   10.9899   18.6262 H   0  0  0  0  0  0  0  0  0  0  0  0
   48.6235   12.2426   17.7580 H   0  0  0  0  0  0  0  0  0  0  0  0
   49.5621   18.3364   16.1389 H   0  0  0  0  0  0  0  0  0  0  0  0
   51.0653   12.4299   16.0423 H   0  0  0  0  0  0  0  0  0  0  0  0
   47.7474   15.7627   14.3226 H   0  0  0  0  0  0  0  0  0  0  0  0
   47.7789   10.3999   18.3472 H   0  0  0  0  0  0  0  0  0  0  0  0
   48.3751   13.9158   15.3214 H   0  0  0  0  0  0  0  0  0  0  0  0
   49.6711   12.0021   18.2864 H   0  0  0  0  0  0  0  0  0  0  0  0
   50.8668   13.9944   18.8313 H   0  0  0  0  0  0  0  0  0  0  0  0
   51.0624   16.4411   18.6206 H   0  0  0  0  0  0  0  0  0  0  0  0
   47.3464   12.3044   17.0990 H   0  0  0  0  0  0  0  0  0  0  0  0
   48.1033   11.6060   15.6843 H   0  0  0  0  0  0  0  0  0  0  0  0
   49.7786    9.5216   17.2856 H   0  0  0  0  0  0  0  0  0  0  0  0
   49.0744    7.1304   17.5041 H   0  0  0  0  0  0  0  0  0  0  0  0
   47.3953    7.6133   17.5190 H   0  0  0  0  0  0  0  0  0  0  0  0
   46.3629    7.9477   19.6159 H   0  0  0  0  0  0  0  0  0  0  0  0
   50.6502    8.3106   19.3388 H   0  0  0  0  0  0  0  0  0  0  0  0
   47.5196   17.8004   13.5650 H   0  0  0  0  0  0  0  0  0  0  0  0
   46.4811    8.2908   22.0261 H   0  0  0  0  0  0  0  0  0  0  0  0
   50.7631    8.6766   21.7739 H   0  0  0  0  0  0  0  0  0  0  0  0
   47.7338    8.6830   15.1462 H   0  0  0  0  0  0  0  0  0  0  0  0
   49.1390    9.7436   14.9044 H   0  0  0  0  0  0  0  0  0  0  0  0
   49.3752    8.0419   15.2881 H   0  0  0  0  0  0  0  0  0  0  0  0
   47.1055    7.9696   24.2624 H   0  0  0  0  0  0  0  0  0  0  0  0
   47.0815    9.7334   23.8873 H   0  0  0  0  0  0  0  0  0  0  0  0
   48.0249    9.1182   25.2430 H   0  0  0  0  0  0  0  0  0  0  0  0
   48.8774   14.4426   15.8487 H   0  0  0  0  0  0  0  0  0  0  0  0
   48.6527    8.6435   20.3364 H   0  0  0  0  0  0  0  0  0  0  0  0
   47.4944   11.6345   17.2061 H   0  0  0  0  0  0  0  0  0  0  0  0
   50.0348   11.4578   18.9888 H   0  0  0  0  0  0  0  0  0  0  0  0
   51.9390   16.0652   14.1196 H   0  0  0  0  0  0  0  0  0  0  0  0
   46.4348   12.6667   17.3043 H   0  0  0  0  0  0  0  0  0  0  0  0
   48.4731   15.2530   13.3754 H   0  0  0  0  0  0  0  0  0  0  0  0
   47.0387   11.0064   19.2348 H   0  0  0  0  0  0  0  0  0  0  0  0
   47.7090   14.5468   15.3159 H   0  0  0  0  0  0  0  0  0  0  0  0
   47.2432   14.8356   18.6213 H   0  0  0  0  0  0  0  0  0  0  0  0
   50.1036   14.8184   18.8858 H   0  0  0  0  0  0  0  0  0  0  0  0
   51.9681   15.6954   17.5499 H   0  0  0  0  0  0  0  0  0  0  0  0
   47.4422   12.9944   19.8756 H   0  0  0  0  0  0  0  0  0  0  0  0
   49.0272   12.7745   19.2108 H   0  0  0  0  0  0  0  0  0  0  0  0
   47.8850    9.7374   17.4823 H   0  0  0  0  0  0  0  0  0  0  0  0
   50.2757    9.4870   18.2870 H   0  0  0  0  0  0  0  0  0  0  0  0
   50.0747   10.8797   19.3110 H   0  0  0  0  0  0  0  0  0  0  0  0
   48.8312    7.4190   18.6292 H   0  0  0  0  0  0  0  0  0  0  0  0
   48.9250   10.6825   21.4562 H   0  0  0  0  0  0  0  0  0  0  0  0
   49.7077   15.8712   11.6670 H   0  0  0  0  0  0  0  0  0  0  0  0
   47.9434    5.9437   20.3540 H   0  0  0  0  0  0  0  0  0  0  0  0
   47.9775    9.1936   23.1776 H   0  0  0  0  0  0  0  0  0  0  0  0
   49.6925   10.4130   16.0769 H   0  0  0  0  0  0  0  0  0  0  0  0
   49.8702   11.9699   16.8916 H   0  0  0  0  0  0  0  0  0  0  0  0
   48.4135   11.6147   15.9206 H   0  0  0  0  0  0  0  0  0  0  0  0
   48.2922    4.8980   22.5386 H   0  0  0  0  0  0  0  0  0  0  0  0
   46.5695    5.0803   22.0224 H   0  0  0  0  0  0  0  0  0  0  0  0
   46.9899    4.9006   23.7344 H   0  0  0  0  0  0  0  0  0  0  0  0
   48.7453   10.8986   18.5455 H   0  0  0  0  0  0  0  0  0  0  0  0
   48.4751   12.2477   17.8888 H   0  0  0  0  0  0  0  0  0  0  0  0
  2 10  1  0
  3 12  1  0
  4 19  1  0
  4 26  1  0
  5 22  2  0
  6  9  1  0
  6 22  1  0
  7 15  1  0
  7 17  1  0
  8 11  2  0
  8 12  1  0
  8 13  1  0
  9 10  2  0
  9 11  1  0
 10 14  1  0
 12 15  1  0
 13 14  2  0
 16 18  1  0
 16 20  2  0
 16 21  1  0
 17 18  1  0
 17 25  1  0
 19 23  2  0
 19 24  1  0
 20 23  1  0
 21 24  2  0
 27 31  1  0
 28 32  1  0
 29 31  2  0
 30 32  2  0
 31 33  1  0
 32 34  1  0
 33 34  2  0
 35 43  1  0
 36 45  1  0
 37 52  1  0
 37 59  1  0
 38 55  2  0
 39 42  1  0
 39 55  1  0
 40 48  1  0
 40 50  1  0
 41 44  2  0
 41 45  1  0
 41 46  1  0
 42 43  2  0
 42 44  1  0
 43 47  1  0
 45 48  1  0
 46 47  2  0
 49 51  1  0
 49 53  2  0
 49 54  1  0
 50 51  1  0
 50 58  1  0
 52 56  2  0
 52 57  1  0
 53 56  1  0
 54 57  2  0
  1 61  1  0
  1 62  1  0
  2 63  1  0
  3 64  1  0
  6 65  1  0
  7 66  1  0
 11 67  1  0
 12 68  1  1
 13 69  1  0
 14 70  1  0
 15 71  1  0
 15 72  1  0
 17 73  1  1
 18 74  1  0
 18 75  1  0
 20 76  1  0
 21 77  1  0
 22 78  1  0
 23 79  1  0
 24 80  1  0
 25 81  1  0
 25 82  1  0
 25 83  1  0
 26 84  1  0
 26 85  1  0
 26 86  1  0
 27 87  1  0
 28 88  1  0
 33 89  1  0
 34 90  1  0
 35 91  1  0
 36 92  1  0
 39 93  1  0
 40 94  1  0
 44 95  1  0
 45 96  1  1
 46 97  1  0
 47 98  1  0
 48 99  1  0
 48100  1  0
 50101  1  6
 51102  1  0
 51103  1  0
 53104  1  0
 54105  1  0
 55106  1  0
 56107  1  0
 57108  1  0
 58109  1  0
 58110  1  0
 58111  1  0
 59112  1  0
 59113  1  0
 59114  1  0
 60115  1  0
 60116  1  0
M  END
> <Uni-Dock RESULT> 
ENERGY=   -4.710  LOWER_BOUND=    4.797  UPPER_BOUND=    6.670
INTER + INTRA:          -4.710
INTER:                  -4.710
INTRA:                   0.000
UNBOUND:                 0.000

$$$$

     RDKit          3D

116115  0  0  0  0  0  0  0  0999 V2000
   50.9182    8.2700   12.5670 O   0  0  0  0  0  0  0  0  0  0  0  0
   55.7592    6.9235    8.2006 O   0  0  0  0  0  0  0  0  0  0  0  0
   50.0990    7.9197   10.6744 O   0  0  0  0  0  0  0  0  0  0  0  0
   50.3714    5.6131   18.0554 O   0  0  0  0  0  0  0  0  0  0  0  0
   56.3519    8.9597    6.8572 O   0  0  0  0  0  0  0  0  0  0  0  0
   54.6367    9.7746    8.2048 N   0  0  0  0  0  0  0  0  0  0  0  0
   50.3831    9.8021   13.2606 N   0  0  0  0  0  0  0  0  0  0  0  0
   52.4835    7.9240   10.5750 C   0  0  0  0  0  0  0  0  0  0  0  0
   54.1683    8.6563    8.9295 C   0  0  0  0  0  0  0  0  0  0  0  0
   54.6935    7.3562    8.9308 C   0  0  0  0  0  0  0  0  0  0  0  0
   53.0518    8.9136    9.7504 C   0  0  0  0  0  0  0  0  0  0  0  0
   51.2707    8.1837   11.4510 C   0  0  1  0  0  0  0  0  0  0  0  0
   53.0327    6.6369   10.5441 C   0  0  0  0  0  0  0  0  0  0  0  0
   54.1270    6.3577    9.7307 C   0  0  0  0  0  0  0  0  0  0  0  0
   51.1979    9.6204   12.0436 C   0  0  0  0  0  0  0  0  0  0  0  0
   48.7912    8.5017   15.4859 C   0  0  0  0  0  0  0  0  0  0  0  0
   48.9501    9.4789   13.1144 C   0  0  1  0  0  0  0  0  0  0  0  0
   48.2505    9.5151   14.5009 C   0  0  0  0  0  0  0  0  0  0  0  0
   49.8857    6.6266   17.2750 C   0  0  0  0  0  0  0  0  0  0  0  0
   49.5194    8.9241   16.6066 C   0  0  0  0  0  0  0  0  0  0  0  0
   48.5974    7.1309   15.2815 C   0  0  0  0  0  0  0  0  0  0  0  0
   55.6479    9.8587    7.2879 C   0  0  0  0  0  0  0  0  0  0  0  0
   50.0690    7.9905   17.4916 C   0  0  0  0  0  0  0  0  0  0  0  0
   49.1416    6.2058   16.1729 C   0  0  0  0  0  0  0  0  0  0  0  0
   48.2456   10.4623   12.1715 C   0  0  0  0  0  0  0  0  0  0  0  0
   51.2457    5.9813   19.1137 C   0  0  0  0  0  0  0  0  0  0  0  0
   52.6401    9.4683   10.4838 O   0  0  0  0  0  0  0  0  0  0  0  0
   49.8434    7.2723   15.0952 O   0  0  0  0  0  0  0  0  0  0  0  0
   52.0938    7.2950   10.6305 O   0  0  0  0  0  0  0  0  0  0  0  0
   50.3617    9.4491   14.9336 O   0  0  0  0  0  0  0  0  0  0  0  0
   52.0924    8.4146   11.1097 C   0  0  0  0  0  0  0  0  0  0  0  0
   50.3752    8.3295   14.4606 C   0  0  0  0  0  0  0  0  0  0  0  0
   51.5306    8.8282   12.3966 C   0  0  0  0  0  0  0  0  0  0  0  0
   50.9454    7.9123   13.1779 C   0  0  0  0  0  0  0  0  0  0  0  0
   52.7728    6.7981    6.8181 O   0  0  0  0  0  0  0  0  0  0  0  0
   53.7150   10.2785   12.0913 O   0  0  0  0  0  0  0  0  0  0  0  0
   49.1753    7.3742   19.3666 O   0  0  0  0  0  0  0  0  0  0  0  0
   52.2009    8.7367    5.3489 O   0  0  0  0  0  0  0  0  0  0  0  0
   52.9564    9.8179    7.2702 N   0  0  0  0  0  0  0  0  0  0  0  0
   51.8799    9.1850   13.6647 N   0  0  0  0  0  0  0  0  0  0  0  0
   53.5386    8.3466   10.6259 C   0  0  0  0  0  0  0  0  0  0  0  0
   53.0964    8.7886    8.2343 C   0  0  0  0  0  0  0  0  0  0  0  0
   53.0210    7.4074    8.0147 C   0  0  0  0  0  0  0  0  0  0  0  0
   53.3686    9.2346    9.5433 C   0  0  0  0  0  0  0  0  0  0  0  0
   53.8065    8.8458   12.0319 C   0  0  2  0  0  0  0  0  0  0  0  0
   53.4923    6.9719   10.3568 C   0  0  0  0  0  0  0  0  0  0  0  0
   53.2324    6.5119    9.0665 C   0  0  0  0  0  0  0  0  0  0  0  0
   52.8982    8.2382   13.1483 C   0  0  0  0  0  0  0  0  0  0  0  0
   49.6599    7.5775   15.2186 C   0  0  0  0  0  0  0  0  0  0  0  0
   50.4925    8.9373   13.2108 C   0  0  2  0  0  0  0  0  0  0  0  0
   49.8602    7.6177   13.7216 C   0  0  0  0  0  0  0  0  0  0  0  0
   49.2579    7.4952   18.0068 C   0  0  0  0  0  0  0  0  0  0  0  0
   48.5649    8.2295   15.8031 C   0  0  0  0  0  0  0  0  0  0  0  0
   50.5585    6.8923   16.0448 C   0  0  0  0  0  0  0  0  0  0  0  0
   52.5739    9.7320    5.9579 C   0  0  0  0  0  0  0  0  0  0  0  0
   48.3624    8.1815   17.1865 C   0  0  0  0  0  0  0  0  0  0  0  0
   50.3607    6.8663   17.4286 C   0  0  0  0  0  0  0  0  0  0  0  0
   50.3378    9.0407   11.6939 C   0  0  0  0  0  0  0  0  0  0  0  0
   47.9676    7.8215   19.9738 C   0  0  0  0  0  0  0  0  0  0  0  0
   50.9804    8.2904   12.4913 O   0  0  0  0  0  0  0  0  0  0  0  0
   50.9962    8.2911   13.5325 H   0  0  0  0  0  0  0  0  0  0  0  0
   51.7909    8.5536   12.2583 H   0  0  0  0  0  0  0  0  0  0  0  0
   56.0818    7.6562    7.6301 H   0  0  0  0  0  0  0  0  0  0  0  0
   50.3761    7.6745    9.7750 H   0  0  0  0  0  0  0  0  0  0  0  0
   54.1601   10.6471    8.3899 H   0  0  0  0  0  0  0  0  0  0  0  0
   50.7686    9.1973   13.9894 H   0  0  0  0  0  0  0  0  0  0  0  0
   52.6080    9.9067    9.7484 H   0  0  0  0  0  0  0  0  0  0  0  0
   51.2815    7.4699   12.2852 H   0  0  0  0  0  0  0  0  0  0  0  0
   52.6088    5.8385   11.1569 H   0  0  0  0  0  0  0  0  0  0  0  0
   54.5398    5.3515    9.7068 H   0  0  0  0  0  0  0  0  0  0  0  0
   52.2110    9.9275   12.3284 H   0  0  0  0  0  0  0  0  0  0  0  0
   50.8713   10.3343   11.2786 H   0  0  0  0  0  0  0  0  0  0  0  0
   48.8341    8.4646   12.7174 H   0  0  0  0  0  0  0  0  0  0  0  0
   47.1757    9.3290   14.3800 H   0  0  0  0  0  0  0  0  0  0  0  0
   48.3273   10.5243   14.9258 H   0  0  0  0  0  0  0  0  0  0  0  0
   49.6783    9.9852   16.7855 H   0  0  0  0  0  0  0  0  0  0  0  0
   48.0239    6.7755   14.4297 H   0  0  0  0  0  0  0  0  0  0  0  0
   55.7694   10.8964    6.9317 H   0  0  0  0  0  0  0  0  0  0  0  0
   50.6236    8.3662   18.3432 H   0  0  0  0  0  0  0  0  0  0  0  0
   48.9982    5.1411   15.9970 H   0  0  0  0  0  0  0  0  0  0  0  0
   48.3929   11.5002   12.4901 H   0  0  0  0  0  0  0  0  0  0  0  0
   48.6064   10.3613   11.1428 H   0  0  0  0  0  0  0  0  0  0  0  0
   47.1693   10.2687   12.1555 H   0  0  0  0  0  0  0  0  0  0  0  0
   50.7313    6.5881   19.8664 H   0  0  0  0  0  0  0  0  0  0  0  0
   52.1304    6.4998   18.7320 H   0  0  0  0  0  0  0  0  0  0  0  0
   51.5907    5.0656   19.6027 H   0  0  0  0  0  0  0  0  0  0  0  0
   52.9895    9.0991    9.6475 H   0  0  0  0  0  0  0  0  0  0  0  0
   49.4755    7.6487   15.9220 H   0  0  0  0  0  0  0  0  0  0  0  0
   51.6083    9.8753   12.6693 H   0  0  0  0  0  0  0  0  0  0  0  0
   50.8651    6.8661   12.9049 H   0  0  0  0  0  0  0  0  0  0  0  0
   52.5181    7.4777    6.1626 H   0  0  0  0  0  0  0  0  0  0  0  0
   52.9790   10.4378   12.7212 H   0  0  0  0  0  0  0  0  0  0  0  0
   53.1313   10.7585    7.6071 H   0  0  0  0  0  0  0  0  0  0  0  0
   51.8686    9.1149   14.6872 H   0  0  0  0  0  0  0  0  0  0  0  0
   53.4348   10.3045    9.7401 H   0  0  0  0  0  0  0  0  0  0  0  0
   54.8522    8.6033   12.2547 H   0  0  0  0  0  0  0  0  0  0  0  0
   53.6597    6.2382   11.1426 H   0  0  0  0  0  0  0  0  0  0  0  0
   53.1954    5.4436    8.8660 H   0  0  0  0  0  0  0  0  0  0  0  0
   53.5680    8.0376   13.9963 H   0  0  0  0  0  0  0  0  0  0  0  0
   52.4909    7.2594   12.8842 H   0  0  0  0  0  0  0  0  0  0  0  0
   49.9061    9.7659   13.6276 H   0  0  0  0  0  0  0  0  0  0  0  0
   48.8798    7.4798   13.2457 H   0  0  0  0  0  0  0  0  0  0  0  0
   50.4509    6.7494   13.4092 H   0  0  0  0  0  0  0  0  0  0  0  0
   47.8571    8.7791   15.1812 H   0  0  0  0  0  0  0  0  0  0  0  0
   51.4160    6.3724   15.6203 H   0  0  0  0  0  0  0  0  0  0  0  0
   52.6144   10.7251    5.4723 H   0  0  0  0  0  0  0  0  0  0  0  0
   47.4984    8.6974   17.5903 H   0  0  0  0  0  0  0  0  0  0  0  0
   51.0708    6.3413   18.0612 H   0  0  0  0  0  0  0  0  0  0  0  0
   49.2753    9.0956   11.4250 H   0  0  0  0  0  0  0  0  0  0  0  0
   50.7584    8.1688   11.1788 H   0  0  0  0  0  0  0  0  0  0  0  0
   50.8118    9.9497   11.3063 H   0  0  0  0  0  0  0  0  0  0  0  0
   47.0965    7.3007   19.5590 H   0  0  0  0  0  0  0  0  0  0  0  0
   47.8563    8.9091   19.8802 H   0  0  0  0  0  0  0  0  0  0  0  0
   48.0203    7.5797   21.0404 H   0  0  0  0  0  0  0  0  0  0  0  0
   50.8263    8.2365   13.4459 H   0  0  0  0  0  0  0  0  0  0  0  0
   51.8987    8.5877   12.4207 H   0  0  0  0  0  0  0  0  0  0  0  0
  2 10  1  0
  3 12  1  0
  4 19  1  0
  4 26  1  0
  5 22  2  0
  6  9  1  0
  6 22  1  0
  7 15  1  0
  7 17  1  0
  8 11  2  0
  8 12  1  0
  8 13  1  0
  9 10  2  0
  9 11  1  0
 10 14  1  0
 12 15  1  0
 13 14  2  0
 16 18  1  0
 16 20  2  0
 16 21  1  0
 17 18  1  0
 17 25  1  0
 19 23  2  0
 19 24  1  0
 20 23  1  0
 21 24  2  0
 27 31  1  0
 28 32  1  0
 29 31  2  0
 30 32  2  0
 31 33  1  0
 32 34  1  0
 33 34  2  0
 35 43  1  0
 36 45  1  0
 37 52  1  0
 37 59  1  0
 38 55  2  0
 39 42  1  0
 39 55  1  0
 40 48  1  0
 40 50  1  0
 41 44  2  0
 41 45  1  0
 41 46  1  0
 42 43  2  0
 42 44  1  0
 43 47  1  0
 45 48  1  0
 46 47  2  0
 49 51  1  0
 49 53  2  0
 49 54  1  0
 50 51  1  0
 50 58  1  0
 52 56  2  0
 52 57  1  0
 53 56  1  0
 54 57  2  0
  1 61  1  0
  1 62  1  0
  2 63  1  0
  3 64  1  0
  6 65  1  0
  7 66  1  0
 11 67  1  0
 12 68  1  1
 13 69  1  0
 14 70  1  0
 15 71  1  0
 15 72  1  0
 17 73  1  1
 18 74  1  0
 18 75  1  0
 20 76  1  0
 21 77  1  0
 22 78  1  0
 23 79  1  0
 24 80  1  0
 25 81  1  0
 25 82  1  0
 25 83  1  0
 26 84  1  0
 26 85  1  0
 26 86  1  0
 27 87  1  0
 28 88  1  0
 33 89  1  0
 34 90  1  0
 35 91  1  0
 36 92  1  0
 39 93  1  0
 40 94  1  0
 44 95  1  0
 45 96  1  1
 46 97  1  0
 47 98  1  0
 48 99  1  0
 48100  1  0
 50101  1  6
 51102  1  0
 51103  1  0
 53104  1  0
 54105  1  0
 55106  1  0
 56107  1  0
 57108  1  0
 58109  1  0
 58110  1  0
 58111  1  0
 59112  1  0
 59113  1  0
 59114  1  0
 60115  1  0
 60116  1  0
M  END
> <Uni-Dock RESULT> 
ENERGY=   -4.674  LOWER_BOUND=    3.854  UPPER_BOUND=    6.209
INTER + INTRA:          -4.674
INTER:                  -4.674
INTRA:                   0.000
UNBOUND:                 0.000

$$$$

     RDKit          3D

116115  0  0  0  0  0  0  0  0999 V2000
   48.2979   12.4523   17.5363 O   0  0  0  0  0  0  0  0  0  0  0  0
   49.1974   15.8215   11.8660 O   0  0  0  0  0  0  0  0  0  0  0  0
   46.7690   13.8584   17.2880 O   0  0  0  0  0  0  0  0  0  0  0  0
   48.5034    6.3517   18.0063 O   0  0  0  0  0  0  0  0  0  0  0  0
   50.2886   18.0402   12.3005 O   0  0  0  0  0  0  0  0  0  0  0  0
   50.0908   17.1886   14.4586 N   0  0  0  0  0  0  0  0  0  0  0  0
   49.0979   12.5953   19.1029 N   0  0  0  0  0  0  0  0  0  0  0  0
   48.4133   14.0867   15.5733 C   0  0  0  0  0  0  0  0  0  0  0  0
   49.3857   15.9730   14.3168 C   0  0  0  0  0  0  0  0  0  0  0  0
   48.9890   15.3476   13.1261 C   0  0  0  0  0  0  0  0  0  0  0  0
   49.0735   15.3295   15.5313 C   0  0  0  0  0  0  0  0  0  0  0  0
   48.0563   13.3912   16.8751 C   0  0  1  0  0  0  0  0  0  0  0  0
   48.0285   13.4970   14.3636 C   0  0  0  0  0  0  0  0  0  0  0  0
   48.3149   14.1217   13.1533 C   0  0  0  0  0  0  0  0  0  0  0  0
   49.0862   13.6004   18.0224 C   0  0  0  0  0  0  0  0  0  0  0  0
   48.0837    9.9285   20.1214 C   0  0  0  0  0  0  0  0  0  0  0  0
   47.8395   12.4739   19.8653 C   0  0  1  0  0  0  0  0  0  0  0  0
   47.9133   11.2562   20.8269 C   0  0  0  0  0  0  0  0  0  0  0  0
   48.4523    7.5063   18.7386 C   0  0  0  0  0  0  0  0  0  0  0  0
   49.2872    9.2186   20.2321 C   0  0  0  0  0  0  0  0  0  0  0  0
   47.0576    9.4024   19.3284 C   0  0  0  0  0  0  0  0  0  0  0  0
   50.4925   18.0808   13.5030 C   0  0  0  0  0  0  0  0  0  0  0  0
   49.4718    8.0179   19.5384 C   0  0  0  0  0  0  0  0  0  0  0  0
   47.2458    8.2001   18.6462 C   0  0  0  0  0  0  0  0  0  0  0  0
   47.5525   13.7405   20.6813 C   0  0  0  0  0  0  0  0  0  0  0  0
   49.7533    5.6768   17.9595 C   0  0  0  0  0  0  0  0  0  0  0  0
   49.3993   14.9528   16.4072 O   0  0  0  0  0  0  0  0  0  0  0  0
   47.9460    9.7076   18.4771 O   0  0  0  0  0  0  0  0  0  0  0  0
   47.7891   13.6989   15.4699 O   0  0  0  0  0  0  0  0  0  0  0  0
   49.5327   10.9745   19.4316 O   0  0  0  0  0  0  0  0  0  0  0  0
   48.6375   13.8501   16.3304 C   0  0  0  0  0  0  0  0  0  0  0  0
   48.6952   10.8185   18.5644 C   0  0  0  0  0  0  0  0  0  0  0  0
   48.9920   12.9166   17.4008 C   0  0  0  0  0  0  0  0  0  0  0  0
   48.3462   11.7472   17.4873 C   0  0  0  0  0  0  0  0  0  0  0  0
   46.4745   16.7737   13.4549 O   0  0  0  0  0  0  0  0  0  0  0  0
   51.2675   14.0393   16.6733 O   0  0  0  0  0  0  0  0  0  0  0  0
   49.2157    6.0389   20.3824 O   0  0  0  0  0  0  0  0  0  0  0  0
   46.6377   18.9830   14.6108 O   0  0  0  0  0  0  0  0  0  0  0  0
   48.5643   17.9168   15.3743 N   0  0  0  0  0  0  0  0  0  0  0  0
   49.9477   12.0242   17.7852 N   0  0  0  0  0  0  0  0  0  0  0  0
   49.4264   14.3180   15.1102 C   0  0  0  0  0  0  0  0  0  0  0  0
   48.4347   16.5755   14.9351 C   0  0  0  0  0  0  0  0  0  0  0  0
   47.4799   16.0642   14.0472 C   0  0  0  0  0  0  0  0  0  0  0  0
   49.4048   15.6884   15.4434 C   0  0  0  0  0  0  0  0  0  0  0  0
   50.4630   13.3738   15.6862 C   0  0  2  0  0  0  0  0  0  0  0  0
   48.4765   13.8543   14.1899 C   0  0  0  0  0  0  0  0  0  0  0  0
   47.5141   14.7191   13.6701 C   0  0  0  0  0  0  0  0  0  0  0  0
   49.9034   12.0520   16.3028 C   0  0  0  0  0  0  0  0  0  0  0  0
   48.0454    9.7442   18.8389 C   0  0  0  0  0  0  0  0  0  0  0  0
   48.6450   12.2088   18.4643 C   0  0  2  0  0  0  0  0  0  0  0  0
   47.6213   11.0663   18.2429 C   0  0  0  0  0  0  0  0  0  0  0  0
   48.8104    7.2765   19.9646 C   0  0  0  0  0  0  0  0  0  0  0  0
   47.8884    9.5047   20.2113 C   0  0  0  0  0  0  0  0  0  0  0  0
   48.5993    8.7399   18.0363 C   0  0  0  0  0  0  0  0  0  0  0  0
   47.7277   18.9818   15.1699 C   0  0  0  0  0  0  0  0  0  0  0  0
   48.2616    8.2765   20.7675 C   0  0  0  0  0  0  0  0  0  0  0  0
   48.9891    7.5228   18.6032 C   0  0  0  0  0  0  0  0  0  0  0  0
   48.0001   13.5589   18.1528 C   0  0  0  0  0  0  0  0  0  0  0  0
   48.8674    5.6699   21.7128 C   0  0  0  0  0  0  0  0  0  0  0  0
   48.3240   12.5315   17.4809 O   0  0  0  0  0  0  0  0  0  0  0  0
   48.7451   11.6355   17.8039 H   0  0  0  0  0  0  0  0  0  0  0  0
   48.9590   12.9127   16.9993 H   0  0  0  0  0  0  0  0  0  0  0  0
   49.6328   16.7014   11.9171 H   0  0  0  0  0  0  0  0  0  0  0  0
   46.4658   14.5262   16.6493 H   0  0  0  0  0  0  0  0  0  0  0  0
   50.3427   17.4408   15.4050 H   0  0  0  0  0  0  0  0  0  0  0  0
   49.2994   11.6852   18.6825 H   0  0  0  0  0  0  0  0  0  0  0  0
   49.3461   15.8055   16.4706 H   0  0  0  0  0  0  0  0  0  0  0  0
   47.9708   12.3133   16.6847 H   0  0  0  0  0  0  0  0  0  0  0  0
   47.4995   12.5416   14.3562 H   0  0  0  0  0  0  0  0  0  0  0  0
   48.0026   13.6595   12.2194 H   0  0  0  0  0  0  0  0  0  0  0  0
   50.0936   13.5694   17.5911 H   0  0  0  0  0  0  0  0  0  0  0  0
   48.9764   14.6001   18.4582 H   0  0  0  0  0  0  0  0  0  0  0  0
   47.0029   12.2980   19.1804 H   0  0  0  0  0  0  0  0  0  0  0  0
   46.9983   11.2032   21.4306 H   0  0  0  0  0  0  0  0  0  0  0  0
   48.7303   11.4032   21.5452 H   0  0  0  0  0  0  0  0  0  0  0  0
   50.0960    9.6086   20.8461 H   0  0  0  0  0  0  0  0  0  0  0  0
   46.1085    9.9234   19.2368 H   0  0  0  0  0  0  0  0  0  0  0  0
   51.0504   18.9177   13.9573 H   0  0  0  0  0  0  0  0  0  0  0  0
   50.4194    7.5061   19.6562 H   0  0  0  0  0  0  0  0  0  0  0  0
   46.4471    7.8067   18.0198 H   0  0  0  0  0  0  0  0  0  0  0  0
   48.3943   13.9977   21.3337 H   0  0  0  0  0  0  0  0  0  0  0  0
   47.3425   14.5973   20.0329 H   0  0  0  0  0  0  0  0  0  0  0  0
   46.6733   13.5934   21.3148 H   0  0  0  0  0  0  0  0  0  0  0  0
   50.0451    5.3037   18.9470 H   0  0  0  0  0  0  0  0  0  0  0  0
   50.5329    6.3192   17.5388 H   0  0  0  0  0  0  0  0  0  0  0  0
   49.6483    4.8143   17.2949 H   0  0  0  0  0  0  0  0  0  0  0  0
   49.0986   15.5079   15.6594 H   0  0  0  0  0  0  0  0  0  0  0  0
   48.2341    9.1632   19.2395 H   0  0  0  0  0  0  0  0  0  0  0  0
   49.7721   13.2139   18.0935 H   0  0  0  0  0  0  0  0  0  0  0  0
   47.5647   11.4505   16.7969 H   0  0  0  0  0  0  0  0  0  0  0  0
   46.4383   17.6660   13.8535 H   0  0  0  0  0  0  0  0  0  0  0  0
   51.0906   13.5334   17.4959 H   0  0  0  0  0  0  0  0  0  0  0  0
   49.3753   18.1109   15.9516 H   0  0  0  0  0  0  0  0  0  0  0  0
   50.3006   11.1072   18.0766 H   0  0  0  0  0  0  0  0  0  0  0  0
   50.1605   16.0619   16.1343 H   0  0  0  0  0  0  0  0  0  0  0  0
   51.1446   13.1213   14.8654 H   0  0  0  0  0  0  0  0  0  0  0  0
   48.4706   12.8173   13.8608 H   0  0  0  0  0  0  0  0  0  0  0  0
   46.7786   14.3512   12.9584 H   0  0  0  0  0  0  0  0  0  0  0  0
   50.5907   11.2597   15.9747 H   0  0  0  0  0  0  0  0  0  0  0  0
   48.9347   11.7624   15.8890 H   0  0  0  0  0  0  0  0  0  0  0  0
   48.8847   12.2326   19.5349 H   0  0  0  0  0  0  0  0  0  0  0  0
   46.6616   11.3491   18.6965 H   0  0  0  0  0  0  0  0  0  0  0  0
   47.4023   10.9327   17.1777 H   0  0  0  0  0  0  0  0  0  0  0  0
   47.4692   10.2759   20.8590 H   0  0  0  0  0  0  0  0  0  0  0  0
   48.7298    8.8942   16.9663 H   0  0  0  0  0  0  0  0  0  0  0  0
   48.1515   19.9031   15.6119 H   0  0  0  0  0  0  0  0  0  0  0  0
   48.1159    8.1376   21.8330 H   0  0  0  0  0  0  0  0  0  0  0  0
   49.4285    6.7550   17.9729 H   0  0  0  0  0  0  0  0  0  0  0  0
   47.1779   13.7556   18.8523 H   0  0  0  0  0  0  0  0  0  0  0  0
   47.5793   13.5881   17.1406 H   0  0  0  0  0  0  0  0  0  0  0  0
   48.7184   14.3789   18.2668 H   0  0  0  0  0  0  0  0  0  0  0  0
   47.7827    5.7136   21.8672 H   0  0  0  0  0  0  0  0  0  0  0  0
   49.3941    6.2921   22.4472 H   0  0  0  0  0  0  0  0  0  0  0  0
   49.1814    4.6321   21.8649 H   0  0  0  0  0  0  0  0  0  0  0  0
   48.5590   11.6727   17.8618 H   0  0  0  0  0  0  0  0  0  0  0  0
   49.1189   12.7963   16.9967 H   0  0  0  0  0  0  0  0  0  0  0  0
  2 10  1  0
  3 12  1  0
  4 19  1  0
  4 26  1  0
  5 22  2  0
  6  9  1  0
  6 22  1  0
  7 15  1  0
  7 17  1  0
  8 11  2  0
  8 12  1  0
  8 13  1  0
  9 10  2  0
  9 11  1  0
 10 14  1  0
 12 15  1  0
 13 14  2  0
 16 18  1  0
 16 20  2  0
 16 21  1  0
 17 18  1  0
 17 25  1  0
 19 23  2  0
 19 24  1  0
 20 23  1  0
 21 24  2  0
 27 31  1  0
 28 32  1  0
 29 31  2  0
 30 32  2  0
 31 33  1  0
 32 34  1  0
 33 34  2  0
 35 43  1  0
 36 45  1  0
 37 52  1  0
 37 59  1  0
 38 55  2  0
 39 42  1  0
 39 55  1  0
 40 48  1  0
 40 50  1  0
 41 44  2  0
 41 45  1  0
 41 46  1  0
 42 43  2  0
 42 44  1  0
 43 47  1  0
 45 48  1  0
 46 47  2  0
 49 51  1  0
 49 53  2  0
 49 54  1  0
 50 51  1  0
 50 58  1  0
 52 56  2  0
 52 57  1  0
 53 56  1  0
 54 57  2  0
  1 61  1  0
  1 62  1  0
  2 63  1  0
  3 64  1  0
  6 65  1  0
  7 66  1  0
 11 67  1  0
 12 68  1  1
 13 69  1  0
 14 70  1  0
 15 71  1  0
 15 72  1  0
 17 73  1  1
 18 74  1  0
 18 75  1  0
 20 76  1  0
 21 77  1  0
 22 78  1  0
 23 79  1  0
 24 80  1  0
 25 81  1  0
 25 82  1  0
 25 83  1  0
 26 84  1  0
 26 85  1  0
 26 86  1  0
 27 87  1  0
 28 88  1  0
 33 89  1  0
 34 90  1  0
 35 91  1  0
 36 92  1  0
 39 93  1  0
 40 94  1  0
 44 95  1  0
 45 96  1  1
 46 97  1  0
 47 98  1  0
 48 99  1  0
 48100  1  0
 50101  1  6
 51102  1  0
 51103  1  0
 53104  1  0
 54105  1  0
 55106  1  0
 56107  1  0
 57108  1  0
 58109  1  0
 58110  1  0
 58111  1  0
 59112  1  0
 59113  1  0
 59114  1  0
 60115  1  0
 60116  1  0
M  END
> <Uni-Dock RESULT> 
ENERGY=   -4.645  LOWER_BOUND=    4.784  UPPER_BOUND=    6.744
INTER + INTRA:          -4.645
INTER:                  -4.645
INTRA:                   0.000
UNBOUND:                 0.000

$$$$

     RDKit          3D

116115  0  0  0  0  0  0  0  0999 V2000
   49.6437   11.5979   11.7987 O   0  0  0  0  0  0  0  0  0  0  0  0
   48.7794   17.5497    8.9452 O   0  0  0  0  0  0  0  0  0  0  0  0
   50.6455   13.0707   12.8957 O   0  0  0  0  0  0  0  0  0  0  0  0
   45.1221    7.6529   13.0121 O   0  0  0  0  0  0  0  0  0  0  0  0
   50.7605   18.1669    7.5323 O   0  0  0  0  0  0  0  0  0  0  0  0
   51.4242   16.1059    8.3889 N   0  0  0  0  0  0  0  0  0  0  0  0
   50.6958   10.2502   11.3611 N   0  0  0  0  0  0  0  0  0  0  0  0
   49.7191   13.9895   10.8973 C   0  0  0  0  0  0  0  0  0  0  0  0
   50.4013   15.7282    9.2868 C   0  0  0  0  0  0  0  0  0  0  0  0
   49.1882   16.3885    9.5288 C   0  0  0  0  0  0  0  0  0  0  0  0
   50.6517   14.5355    9.9948 C   0  0  0  0  0  0  0  0  0  0  0  0
   49.9837   12.7146   11.6787 C   0  0  1  0  0  0  0  0  0  0  0  0
   48.5221   14.6811   11.1160 C   0  0  0  0  0  0  0  0  0  0  0  0
   48.2603   15.8677   10.4374 C   0  0  0  0  0  0  0  0  0  0  0  0
   50.8227   11.6508   10.9138 C   0  0  0  0  0  0  0  0  0  0  0  0
   49.2537    8.2529   13.1243 C   0  0  0  0  0  0  0  0  0  0  0  0
   51.1083    9.9932   12.7551 C   0  0  1  0  0  0  0  0  0  0  0  0
   50.7389    8.5403   13.1619 C   0  0  0  0  0  0  0  0  0  0  0  0
   46.4837    7.7831   12.9792 C   0  0  0  0  0  0  0  0  0  0  0  0
   48.7256    7.3870   12.1569 C   0  0  0  0  0  0  0  0  0  0  0  0
   48.3830    8.8647   14.0331 C   0  0  0  0  0  0  0  0  0  0  0  0
   51.5263   17.2192    7.6010 C   0  0  0  0  0  0  0  0  0  0  0  0
   47.3473    7.1597   12.0814 C   0  0  0  0  0  0  0  0  0  0  0  0
   47.0104    8.6268   13.9571 C   0  0  0  0  0  0  0  0  0  0  0  0
   52.6169   10.1978   12.9415 C   0  0  0  0  0  0  0  0  0  0  0  0
   44.5232    6.9118   11.9575 C   0  0  0  0  0  0  0  0  0  0  0  0
   50.8840   13.5557    9.9632 O   0  0  0  0  0  0  0  0  0  0  0  0
   48.0720    9.4096   12.9315 O   0  0  0  0  0  0  0  0  0  0  0  0
   49.3694   14.0362   11.5500 O   0  0  0  0  0  0  0  0  0  0  0  0
   49.6082    8.9307   11.3680 O   0  0  0  0  0  0  0  0  0  0  0  0
   49.9919   13.2116   10.9054 C   0  0  0  0  0  0  0  0  0  0  0  0
   48.9775    9.7542   12.0018 C   0  0  0  0  0  0  0  0  0  0  0  0
   49.9045   11.7541   11.0092 C   0  0  0  0  0  0  0  0  0  0  0  0
   49.0568   11.2124   11.8922 C   0  0  0  0  0  0  0  0  0  0  0  0
   50.5914   17.7417   11.6885 O   0  0  0  0  0  0  0  0  0  0  0  0
   50.2707   12.2492    8.4424 O   0  0  0  0  0  0  0  0  0  0  0  0
   46.3161    5.4575   12.9377 O   0  0  0  0  0  0  0  0  0  0  0  0
   53.0377   18.0954   11.3223 O   0  0  0  0  0  0  0  0  0  0  0  0
   52.6084   16.3071    9.8909 N   0  0  0  0  0  0  0  0  0  0  0  0
   49.4088   10.6525   10.3780 N   0  0  0  0  0  0  0  0  0  0  0  0
   49.5851   14.1598    9.7804 C   0  0  0  0  0  0  0  0  0  0  0  0
   51.2858   15.9035   10.2015 C   0  0  0  0  0  0  0  0  0  0  0  0
   50.3661   16.5736   11.0180 C   0  0  0  0  0  0  0  0  0  0  0  0
   50.8700   14.7069    9.5834 C   0  0  0  0  0  0  0  0  0  0  0  0
   49.1639   12.8586    9.1266 C   0  0  2  0  0  0  0  0  0  0  0  0
   48.6828   14.8803   10.5747 C   0  0  0  0  0  0  0  0  0  0  0  0
   49.0736   16.0702   11.1876 C   0  0  0  0  0  0  0  0  0  0  0  0
   48.5197   11.8018   10.0799 C   0  0  0  0  0  0  0  0  0  0  0  0
   48.3205    9.1268   12.9108 C   0  0  0  0  0  0  0  0  0  0  0  0
   50.0123   10.6490   11.7301 C   0  0  2  0  0  0  0  0  0  0  0  0
   49.0079   10.4722   12.8971 C   0  0  0  0  0  0  0  0  0  0  0  0
   47.0462    6.6137   12.9645 C   0  0  0  0  0  0  0  0  0  0  0  0
   48.9813    8.0004   13.4207 C   0  0  0  0  0  0  0  0  0  0  0  0
   47.0184    8.9811   12.4177 C   0  0  0  0  0  0  0  0  0  0  0  0
   53.3472   17.3356   10.4127 C   0  0  0  0  0  0  0  0  0  0  0  0
   48.3448    6.7550   13.4537 C   0  0  0  0  0  0  0  0  0  0  0  0
   46.3967    7.7290   12.4350 C   0  0  0  0  0  0  0  0  0  0  0  0
   50.9038   11.8640   11.9845 C   0  0  0  0  0  0  0  0  0  0  0  0
   46.8552    4.3471   13.6477 C   0  0  0  0  0  0  0  0  0  0  0  0
   49.6712   11.6774   11.7445 O   0  0  0  0  0  0  0  0  0  0  0  0
   49.1513   10.7854   11.6084 H   0  0  0  0  0  0  0  0  0  0  0  0
   49.6553   12.0652   10.9509 H   0  0  0  0  0  0  0  0  0  0  0  0
   49.4904   17.8852    8.3550 H   0  0  0  0  0  0  0  0  0  0  0  0
   50.7877   14.0328   12.8972 H   0  0  0  0  0  0  0  0  0  0  0  0
   52.1976   15.4591    8.3091 H   0  0  0  0  0  0  0  0  0  0  0  0
   49.7141    9.9793   11.2691 H   0  0  0  0  0  0  0  0  0  0  0  0
   51.5963   14.0171    9.8459 H   0  0  0  0  0  0  0  0  0  0  0  0
   49.0202   12.2618   11.9472 H   0  0  0  0  0  0  0  0  0  0  0  0
   47.7814   14.2978   11.8212 H   0  0  0  0  0  0  0  0  0  0  0  0
   47.3312   16.4023   10.6223 H   0  0  0  0  0  0  0  0  0  0  0  0
   50.5018   11.6473    9.8657 H   0  0  0  0  0  0  0  0  0  0  0  0
   51.8817   11.9335   10.9030 H   0  0  0  0  0  0  0  0  0  0  0  0
   50.5740   10.6672   13.4334 H   0  0  0  0  0  0  0  0  0  0  0  0
   51.0969    8.3365   14.1791 H   0  0  0  0  0  0  0  0  0  0  0  0
   51.2715    7.8303   12.5159 H   0  0  0  0  0  0  0  0  0  0  0  0
   49.3857    6.8987   11.4433 H   0  0  0  0  0  0  0  0  0  0  0  0
   48.7663    9.5285   14.8034 H   0  0  0  0  0  0  0  0  0  0  0  0
   52.4478   17.1875    6.9944 H   0  0  0  0  0  0  0  0  0  0  0  0
   46.9875    6.4820   11.3165 H   0  0  0  0  0  0  0  0  0  0  0  0
   46.3397    9.1193   14.6590 H   0  0  0  0  0  0  0  0  0  0  0  0
   53.1950    9.5937   12.2336 H   0  0  0  0  0  0  0  0  0  0  0  0
   52.8991   11.2477   12.8119 H   0  0  0  0  0  0  0  0  0  0  0  0
   52.9181    9.9060   13.9515 H   0  0  0  0  0  0  0  0  0  0  0  0
   44.8281    5.8602   11.9826 H   0  0  0  0  0  0  0  0  0  0  0  0
   44.7460    7.3600   10.9845 H   0  0  0  0  0  0  0  0  0  0  0  0
   43.4381    6.9476   12.0916 H   0  0  0  0  0  0  0  0  0  0  0  0
   50.8703   14.5342    9.9617 H   0  0  0  0  0  0  0  0  0  0  0  0
   48.1036    8.4301   12.9458 H   0  0  0  0  0  0  0  0  0  0  0  0
   50.5409   11.1617   10.3605 H   0  0  0  0  0  0  0  0  0  0  0  0
   48.4222   11.8038   12.5427 H   0  0  0  0  0  0  0  0  0  0  0  0
   51.5406   17.9677   11.6223 H   0  0  0  0  0  0  0  0  0  0  0  0
   50.3840   11.3902    8.9041 H   0  0  0  0  0  0  0  0  0  0  0  0
   53.0915   15.7326    9.2088 H   0  0  0  0  0  0  0  0  0  0  0  0
   48.8550    9.7933   10.3041 H   0  0  0  0  0  0  0  0  0  0  0  0
   51.5661   14.1675    8.9412 H   0  0  0  0  0  0  0  0  0  0  0  0
   48.4388   13.1218    8.3475 H   0  0  0  0  0  0  0  0  0  0  0  0
   47.6636   14.5312   10.7276 H   0  0  0  0  0  0  0  0  0  0  0  0
   48.3685   16.6224   11.8048 H   0  0  0  0  0  0  0  0  0  0  0  0
   47.6725   11.3792    9.5217 H   0  0  0  0  0  0  0  0  0  0  0  0
   48.0668   12.2463   10.9692 H   0  0  0  0  0  0  0  0  0  0  0  0
   50.6826    9.7802   11.7386 H   0  0  0  0  0  0  0  0  0  0  0  0
   49.5395   10.5897   13.8513 H   0  0  0  0  0  0  0  0  0  0  0  0
   48.2539   11.2671   12.8936 H   0  0  0  0  0  0  0  0  0  0  0  0
   50.0002    8.0866   13.8006 H   0  0  0  0  0  0  0  0  0  0  0  0
   46.4774    9.8381   12.0193 H   0  0  0  0  0  0  0  0  0  0  0  0
   54.3317   17.4035    9.9128 H   0  0  0  0  0  0  0  0  0  0  0  0
   48.8957    5.9151   13.8622 H   0  0  0  0  0  0  0  0  0  0  0  0
   45.3905    7.6253   12.0391 H   0  0  0  0  0  0  0  0  0  0  0  0
   51.5147   11.7036   12.8818 H   0  0  0  0  0  0  0  0  0  0  0  0
   50.3169   12.7754   12.1499 H   0  0  0  0  0  0  0  0  0  0  0  0
   51.5976   12.0300   11.1524 H   0  0  0  0  0  0  0  0  0  0  0  0
   47.0180    4.5910   14.7042 H   0  0  0  0  0  0  0  0  0  0  0  0
   47.7809    3.9894   13.1799 H   0  0  0  0  0  0  0  0  0  0  0  0
   46.1217    3.5353   13.6051 H   0  0  0  0  0  0  0  0  0  0  0  0
   49.2220   10.8207   11.7904 H   0  0  0  0  0  0  0  0  0  0  0  0
   49.5571   11.9505   10.8231 H   0  0  0  0  0  0  0  0  0  0  0  0
  2 10  1  0
  3 12  1  0
  4 19  1  0
  4 26  1  0
  5 22  2  0
  6  9  1  0
  6 22  1  0
  7 15  1  0
  7 17  1  0
  8 11  2  0
  8 12  1  0
  8 13  1  0
  9 10  2  0
  9 11  1  0
 10 14  1  0
 12 15  1  0
 13 14  2  0
 16 18  1  0
 16 20  2  0
 16 21  1  0
 17 18  1  0
 17 25  1  0
 19 23  2  0
 19 24  1  0
 20 23  1  0
 21 24  2  0
 27 31  1  0
 28 32  1  0
 29 31  2  0
 30 32  2  0
 31 33  1  0
 32 34  1  0
 33 34  2  0
 35 43  1  0
 36 45  1  0
 37 52  1  0
 37 59  1  0
 38 55  2  0
 39 42  1  0
 39 55  1  0
 40 48  1  0
 40 50  1  0
 41 44  2  0
 41 45  1  0
 41 46  1  0
 42 43  2  0
 42 44  1  0
 43 47  1  0
 45 48  1  0
 46 47  2  0
 49 51  1  0
 49 53  2  0
 49 54  1  0
 50 51  1  0
 50 58  1  0
 52 56  2  0
 52 57  1  0
 53 56  1  0
 54 57  2  0
  1 61  1  0
  1 62  1  0
  2 63  1  0
  3 64  1  0
  6 65  1  0
  7 66  1  0
 11 67  1  0
 12 68  1  1
 13 69  1  0
 14 70  1  0
 15 71  1  0
 15 72  1  0
 17 73  1  1
 18 74  1  0
 18 75  1  0
 20 76  1  0
 21 77  1  0
 22 78  1  0
 23 79  1  0
 24 80  1  0
 25 81  1  0
 25 82  1  0
 25 83  1  0
 26 84  1  0
 26 85  1  0
 26 86  1  0
 27 87  1  0
 28 88  1  0
 33 89  1  0
 34 90  1  0
 35 91  1  0
 36 92  1  0
 39 93  1  0
 40 94  1  0
 44 95  1  0
 45 96  1  1
 46 97  1  0
 47 98  1  0
 48 99  1  0
 48100  1  0
 50101  1  6
 51102  1  0
 51103  1  0
 53104  1  0
 54105  1  0
 55106  1  0
 56107  1  0
 57108  1  0
 58109  1  0
 58110  1  0
 58111  1  0
 59112  1  0
 59113  1  0
 59114  1  0
 60115  1  0
 60116  1  0
M  END
> <Uni-Dock RESULT> 
ENERGY=   -4.464  LOWER_BOUND=    5.415  UPPER_BOUND=    8.789
INTER + INTRA:          -4.464
INTER:                  -4.464
INTRA:                   0.000
UNBOUND:                 0.000

$$$$

     RDKit          3D

116115  0  0  0  0  0  0  0  0999 V2000
   49.2034   10.8272   15.5266 O   0  0  0  0  0  0  0  0  0  0  0  0
   47.3404   13.3981   21.3776 O   0  0  0  0  0  0  0  0  0  0  0  0
   47.8201    9.5633   16.4567 O   0  0  0  0  0  0  0  0  0  0  0  0
   49.3259   13.9446   10.2590 O   0  0  0  0  0  0  0  0  0  0  0  0
   48.6071   12.3410   23.2697 O   0  0  0  0  0  0  0  0  0  0  0  0
   49.4620   11.1880   21.4361 N   0  0  0  0  0  0  0  0  0  0  0  0
   50.6790    9.9816   15.0551 N   0  0  0  0  0  0  0  0  0  0  0  0
   48.4104   11.3739   17.8952 C   0  0  0  0  0  0  0  0  0  0  0  0
   48.7225   11.6520   20.3258 C   0  0  0  0  0  0  0  0  0  0  0  0
   47.7600   12.6716   20.3042 C   0  0  0  0  0  0  0  0  0  0  0  0
   49.0215   11.0063   19.1092 C   0  0  0  0  0  0  0  0  0  0  0  0
   48.7112   10.6752   16.5810 C   0  0  1  0  0  0  0  0  0  0  0  0
   47.4506   12.3925   17.9157 C   0  0  0  0  0  0  0  0  0  0  0  0
   47.1305   13.0344   19.1084 C   0  0  0  0  0  0  0  0  0  0  0  0
   50.1822   10.1917   16.4288 C   0  0  0  0  0  0  0  0  0  0  0  0
   50.1761   10.2849   12.0831 C   0  0  0  0  0  0  0  0  0  0  0  0
   49.9578    8.9580   14.2731 C   0  0  1  0  0  0  0  0  0  0  0  0
   50.4396    8.9767   12.7964 C   0  0  0  0  0  0  0  0  0  0  0  0
   49.6981   12.7647   10.8433 C   0  0  0  0  0  0  0  0  0  0  0  0
   51.2419   11.1213   11.7239 C   0  0  0  0  0  0  0  0  0  0  0  0
   48.8686   10.6926   11.7954 C   0  0  0  0  0  0  0  0  0  0  0  0
   49.3805   11.5514   22.7521 C   0  0  0  0  0  0  0  0  0  0  0  0
   51.0025   12.3572   11.1138 C   0  0  0  0  0  0  0  0  0  0  0  0
   48.6379   11.9228   11.1792 C   0  0  0  0  0  0  0  0  0  0  0  0
   50.1719    7.5541   14.8525 C   0  0  0  0  0  0  0  0  0  0  0  0
   50.3558   14.8940   10.0187 C   0  0  0  0  0  0  0  0  0  0  0  0
   49.7194   10.7323   18.4361 O   0  0  0  0  0  0  0  0  0  0  0  0
   49.2333   11.5171   12.6867 O   0  0  0  0  0  0  0  0  0  0  0  0
   47.7992   11.3895   17.4747 O   0  0  0  0  0  0  0  0  0  0  0  0
   51.1422   10.8303   13.6447 O   0  0  0  0  0  0  0  0  0  0  0  0
   48.9681   11.0630   17.3739 C   0  0  0  0  0  0  0  0  0  0  0  0
   49.9793   11.1688   13.7475 C   0  0  0  0  0  0  0  0  0  0  0  0
   49.7608   10.9700   16.1468 C   0  0  0  0  0  0  0  0  0  0  0  0
   49.1878   11.2718   14.9753 C   0  0  0  0  0  0  0  0  0  0  0  0
   45.8074   10.5568   20.7276 O   0  0  0  0  0  0  0  0  0  0  0  0
   51.4294   11.8597   17.9885 O   0  0  0  0  0  0  0  0  0  0  0  0
   51.1040   12.7357    8.9829 O   0  0  0  0  0  0  0  0  0  0  0  0
   46.6248    8.5873   22.0304 O   0  0  0  0  0  0  0  0  0  0  0  0
   48.6241    9.4703   21.2213 N   0  0  0  0  0  0  0  0  0  0  0  0
   50.7382   11.6043   15.4398 N   0  0  0  0  0  0  0  0  0  0  0  0
   49.0718   12.0171   18.5609 C   0  0  0  0  0  0  0  0  0  0  0  0
   48.2311   10.4657   20.2921 C   0  0  0  0  0  0  0  0  0  0  0  0
   46.9393   10.9639   20.0812 C   0  0  0  0  0  0  0  0  0  0  0  0
   49.2826   11.0153   19.5311 C   0  0  0  0  0  0  0  0  0  0  0  0
   50.2117   12.5789   17.7345 C   0  0  2  0  0  0  0  0  0  0  0  0
   47.7705   12.5142   18.4070 C   0  0  0  0  0  0  0  0  0  0  0  0
   46.7191   11.9886   19.1570 C   0  0  0  0  0  0  0  0  0  0  0  0
   49.9683   12.6248   16.1921 C   0  0  0  0  0  0  0  0  0  0  0  0
   49.5001   11.2827   12.5604 C   0  0  0  0  0  0  0  0  0  0  0  0
   49.9519   10.4520   14.9436 C   0  0  2  0  0  0  0  0  0  0  0  0
   48.8999   10.7936   13.8579 C   0  0  0  0  0  0  0  0  0  0  0  0
   50.6041   12.1746   10.1256 C   0  0  0  0  0  0  0  0  0  0  0  0
   50.0310   10.3695   11.6385 C   0  0  0  0  0  0  0  0  0  0  0  0
   49.5368   12.6487   12.2565 C   0  0  0  0  0  0  0  0  0  0  0  0
   47.8472    8.6646   22.0106 C   0  0  0  0  0  0  0  0  0  0  0  0
   50.5718   10.8129   10.4269 C   0  0  0  0  0  0  0  0  0  0  0  0
   50.0978   13.0857   11.0527 C   0  0  0  0  0  0  0  0  0  0  0  0
   49.3020    9.6489   16.0697 C   0  0  0  0  0  0  0  0  0  0  0  0
   51.4418   11.8404    7.9285 C   0  0  0  0  0  0  0  0  0  0  0  0
   49.2024   10.8343   15.6265 O   0  0  0  0  0  0  0  0  0  0  0  0
   49.6852   11.2816   14.8195 H   0  0  0  0  0  0  0  0  0  0  0  0
   49.5335   11.2436   16.3360 H   0  0  0  0  0  0  0  0  0  0  0  0
   47.7852   13.0663   22.1890 H   0  0  0  0  0  0  0  0  0  0  0  0
   47.2727    9.5179   17.2593 H   0  0  0  0  0  0  0  0  0  0  0  0
   50.1604   10.4850   21.2341 H   0  0  0  0  0  0  0  0  0  0  0  0
   50.6030   10.8701   14.5548 H   0  0  0  0  0  0  0  0  0  0  0  0
   49.7449   10.1940   19.1022 H   0  0  0  0  0  0  0  0  0  0  0  0
   48.4919   11.3676   15.7576 H   0  0  0  0  0  0  0  0  0  0  0  0
   46.9426   12.6940   16.9971 H   0  0  0  0  0  0  0  0  0  0  0  0
   46.3759   13.8179   19.1148 H   0  0  0  0  0  0  0  0  0  0  0  0
   50.8419   10.9542   16.8588 H   0  0  0  0  0  0  0  0  0  0  0  0
   50.3495    9.2826   17.0179 H   0  0  0  0  0  0  0  0  0  0  0  0
   48.8848    9.1782   14.2684 H   0  0  0  0  0  0  0  0  0  0  0  0
   49.9413    8.1779   12.2326 H   0  0  0  0  0  0  0  0  0  0  0  0
   51.5108    8.7401   12.7556 H   0  0  0  0  0  0  0  0  0  0  0  0
   52.2659   10.8214   11.9355 H   0  0  0  0  0  0  0  0  0  0  0  0
   48.0241   10.0574   12.0485 H   0  0  0  0  0  0  0  0  0  0  0  0
   50.1289   11.0097   23.3559 H   0  0  0  0  0  0  0  0  0  0  0  0
   51.8591   12.9680   10.8550 H   0  0  0  0  0  0  0  0  0  0  0  0
   47.6164   12.2378   10.9733 H   0  0  0  0  0  0  0  0  0  0  0  0
   51.2372    7.3144   14.9423 H   0  0  0  0  0  0  0  0  0  0  0  0
   49.7095    7.4519   15.8396 H   0  0  0  0  0  0  0  0  0  0  0  0
   49.7150    6.8014   14.2038 H   0  0  0  0  0  0  0  0  0  0  0  0
   51.0795   14.5238    9.2848 H   0  0  0  0  0  0  0  0  0  0  0  0
   50.8548   15.1788   10.9499 H   0  0  0  0  0  0  0  0  0  0  0  0
   49.8954   15.7968    9.6067 H   0  0  0  0  0  0  0  0  0  0  0  0
   49.1150   10.8277   19.1999 H   0  0  0  0  0  0  0  0  0  0  0  0
   49.8345   11.3999   11.9215 H   0  0  0  0  0  0  0  0  0  0  0  0
   50.7944   10.6527   16.2351 H   0  0  0  0  0  0  0  0  0  0  0  0
   48.1542   11.5865   14.8859 H   0  0  0  0  0  0  0  0  0  0  0  0
   46.0151    9.7655   21.2635 H   0  0  0  0  0  0  0  0  0  0  0  0
   51.6586   11.4760   17.1144 H   0  0  0  0  0  0  0  0  0  0  0  0
   49.6226    9.3055   21.2886 H   0  0  0  0  0  0  0  0  0  0  0  0
   51.1453   12.0559   14.6147 H   0  0  0  0  0  0  0  0  0  0  0  0
   50.2976   10.6466   19.6780 H   0  0  0  0  0  0  0  0  0  0  0  0
   50.3857   13.5990   18.0965 H   0  0  0  0  0  0  0  0  0  0  0  0
   47.5537   13.3175   17.7059 H   0  0  0  0  0  0  0  0  0  0  0  0
   45.7114   12.3778   19.0300 H   0  0  0  0  0  0  0  0  0  0  0  0
   50.3653   13.5943   15.8599 H   0  0  0  0  0  0  0  0  0  0  0  0
   48.9092   12.6573   15.9259 H   0  0  0  0  0  0  0  0  0  0  0  0
   50.6903    9.7812   14.4865 H   0  0  0  0  0  0  0  0  0  0  0  0
   48.3045    9.8970   13.6380 H   0  0  0  0  0  0  0  0  0  0  0  0
   48.1769   11.5301   14.2258 H   0  0  0  0  0  0  0  0  0  0  0  0
   50.0237    9.3009   11.8577 H   0  0  0  0  0  0  0  0  0  0  0  0
   49.1284   13.3821   12.9501 H   0  0  0  0  0  0  0  0  0  0  0  0
   48.4770    8.0267   22.6589 H   0  0  0  0  0  0  0  0  0  0  0  0
   50.9655   10.0677    9.7448 H   0  0  0  0  0  0  0  0  0  0  0  0
   50.1314   14.1489   10.8326 H   0  0  0  0  0  0  0  0  0  0  0  0
   48.9434    8.6845   15.6882 H   0  0  0  0  0  0  0  0  0  0  0  0
   48.4377   10.1700   16.4987 H   0  0  0  0  0  0  0  0  0  0  0  0
   50.0205    9.4285   16.8675 H   0  0  0  0  0  0  0  0  0  0  0  0
   50.5787   11.2343    7.6288 H   0  0  0  0  0  0  0  0  0  0  0  0
   52.2914   11.2040    8.2062 H   0  0  0  0  0  0  0  0  0  0  0  0
   51.7405   12.4410    7.0631 H   0  0  0  0  0  0  0  0  0  0  0  0
   49.5541   11.1389   14.7771 H   0  0  0  0  0  0  0  0  0  0  0  0
   49.6655   11.3792   16.2785 H   0  0  0  0  0  0  0  0  0  0  0  0
  2 10  1  0
  3 12  1  0
  4 19  1  0
  4 26  1  0
  5 22  2  0
  6  9  1  0
  6 22  1  0
  7 15  1  0
  7 17  1  0
  8 11  2  0
  8 12  1  0
  8 13  1  0
  9 10  2  0
  9 11  1  0
 10 14  1  0
 12 15  1  0
 13 14  2  0
 16 18  1  0
 16 20  2  0
 16 21  1  0
 17 18  1  0
 17 25  1  0
 19 23  2  0
 19 24  1  0
 20 23  1  0
 21 24  2  0
 27 31  1  0
 28 32  1  0
 29 31  2  0
 30 32  2  0
 31 33  1  0
 32 34  1  0
 33 34  2  0
 35 43  1  0
 36 45  1  0
 37 52  1  0
 37 59  1  0
 38 55  2  0
 39 42  1  0
 39 55  1  0
 40 48  1  0
 40 50  1  0
 41 44  2  0
 41 45  1  0
 41 46  1  0
 42 43  2  0
 42 44  1  0
 43 47  1  0
 45 48  1  0
 46 47  2  0
 49 51  1  0
 49 53  2  0
 49 54  1  0
 50 51  1  0
 50 58  1  0
 52 56  2  0
 52 57  1  0
 53 56  1  0
 54 57  2  0
  1 61  1  0
  1 62  1  0
  2 63  1  0
  3 64  1  0
  6 65  1  0
  7 66  1  0
 11 67  1  0
 12 68  1  1
 13 69  1  0
 14 70  1  0
 15 71  1  0
 15 72  1  0
 17 73  1  1
 18 74  1  0
 18 75  1  0
 20 76  1  0
 21 77  1  0
 22 78  1  0
 23 79  1  0
 24 80  1  0
 25 81  1  0
 25 82  1  0
 25 83  1  0
 26 84  1  0
 26 85  1  0
 26 86  1  0
 27 87  1  0
 28 88  1  0
 33 89  1  0
 34 90  1  0
 35 91  1  0
 36 92  1  0
 39 93  1  0
 40 94  1  0
 44 95  1  0
 45 96  1  1
 46 97  1  0
 47 98  1  0
 48 99  1  0
 48100  1  0
 50101  1  6
 51102  1  0
 51103  1  0
 53104  1  0
 54105  1  0
 55106  1  0
 56107  1  0
 57108  1  0
 58109  1  0
 58110  1  0
 58111  1  0
 59112  1  0
 59113  1  0
 59114  1  0
 60115  1  0
 60116  1  0
M  END
> <Uni-Dock RESULT> 
ENERGY=   -4.438  LOWER_BOUND=    4.299  UPPER_BOUND=    8.741
INTER + INTRA:          -4.438
INTER:                  -4.438
INTRA:                   0.000
UNBOUND:                 0.000

$$$$

     RDKit          3D

116115  0  0  0  0  0  0  0  0999 V2000
   48.5017   13.4854   15.5625 O   0  0  0  0  0  0  0  0  0  0  0  0
   47.7984   11.9308    9.1281 O   0  0  0  0  0  0  0  0  0  0  0  0
   47.6751   15.1006   14.5214 O   0  0  0  0  0  0  0  0  0  0  0  0
   46.6445    9.9469   20.2004 O   0  0  0  0  0  0  0  0  0  0  0  0
   49.6940   12.8549    7.7662 O   0  0  0  0  0  0  0  0  0  0  0  0
   50.2361   13.6204    9.8975 N   0  0  0  0  0  0  0  0  0  0  0  0
   49.9324   13.9418   16.4897 N   0  0  0  0  0  0  0  0  0  0  0  0
   48.2730   13.3445   13.0197 C   0  0  0  0  0  0  0  0  0  0  0  0
   49.1566   13.2292   10.7201 C   0  0  0  0  0  0  0  0  0  0  0  0
   48.0489   12.4466   10.3639 C   0  0  0  0  0  0  0  0  0  0  0  0
   49.2401   13.6797   12.0530 C   0  0  0  0  0  0  0  0  0  0  0  0
   48.3424   13.8373   14.4544 C   0  0  1  0  0  0  0  0  0  0  0  0
   47.1791   12.5663   12.6239 C   0  0  0  0  0  0  0  0  0  0  0  0
   47.0700   12.1219   11.3094 C   0  0  0  0  0  0  0  0  0  0  0  0
   49.7849   13.9721   15.0217 C   0  0  0  0  0  0  0  0  0  0  0  0
   48.6165   13.4843   19.1798 C   0  0  0  0  0  0  0  0  0  0  0  0
   49.2361   15.0219   17.2162 C   0  0  1  0  0  0  0  0  0  0  0  0
   49.2993   14.7632   18.7466 C   0  0  0  0  0  0  0  0  0  0  0  0
   47.3721   11.0656   19.8984 C   0  0  0  0  0  0  0  0  0  0  0  0
   49.3734   12.4061   19.6586 C   0  0  0  0  0  0  0  0  0  0  0  0
   47.2270   13.3471   19.0850 C   0  0  0  0  0  0  0  0  0  0  0  0
   50.4375   13.4058    8.5618 C   0  0  0  0  0  0  0  0  0  0  0  0
   48.7541   11.2016   20.0090 C   0  0  0  0  0  0  0  0  0  0  0  0
   46.6154   12.1457   19.4441 C   0  0  0  0  0  0  0  0  0  0  0  0
   49.8548   16.3923   16.9134 C   0  0  0  0  0  0  0  0  0  0  0  0
   47.3775    8.7776   20.5402 C   0  0  0  0  0  0  0  0  0  0  0  0
   49.7745   13.7319   12.9055 O   0  0  0  0  0  0  0  0  0  0  0  0
   47.6522   12.5482   18.1973 O   0  0  0  0  0  0  0  0  0  0  0  0
   47.5810   13.4242   13.2754 O   0  0  0  0  0  0  0  0  0  0  0  0
   49.8398   12.8868   17.8323 O   0  0  0  0  0  0  0  0  0  0  0  0
   48.7217   13.4771   13.6984 C   0  0  0  0  0  0  0  0  0  0  0  0
   48.7030   12.8210   17.4070 C   0  0  0  0  0  0  0  0  0  0  0  0
   49.1658   13.2820   15.0795 C   0  0  0  0  0  0  0  0  0  0  0  0
   48.2583   13.0064   16.0241 C   0  0  0  0  0  0  0  0  0  0  0  0
   46.7097   14.9663    9.7960 O   0  0  0  0  0  0  0  0  0  0  0  0
   51.0631   12.2223   13.5811 O   0  0  0  0  0  0  0  0  0  0  0  0
   48.2175   10.6163   22.0248 O   0  0  0  0  0  0  0  0  0  0  0  0
   48.1961   16.8208    9.0245 O   0  0  0  0  0  0  0  0  0  0  0  0
   49.7089   15.4524   10.1514 N   0  0  0  0  0  0  0  0  0  0  0  0
   49.7854   12.3876   15.9003 N   0  0  0  0  0  0  0  0  0  0  0  0
   48.9536   12.6364   12.4456 C   0  0  0  0  0  0  0  0  0  0  0  0
   48.9054   14.4859   10.8063 C   0  0  0  0  0  0  0  0  0  0  0  0
   47.5340   14.2644   10.6284 C   0  0  0  0  0  0  0  0  0  0  0  0
   49.5967   13.6527   11.7089 C   0  0  0  0  0  0  0  0  0  0  0  0
   49.7090   11.7660   13.4304 C   0  0  2  0  0  0  0  0  0  0  0  0
   47.5884   12.4232   12.2109 C   0  0  0  0  0  0  0  0  0  0  0  0
   46.8898   13.2321   11.3155 C   0  0  0  0  0  0  0  0  0  0  0  0
   49.0636   11.6330   14.8468 C   0  0  0  0  0  0  0  0  0  0  0  0
   47.9154   12.7062   18.4161 C   0  0  0  0  0  0  0  0  0  0  0  0
   49.1268   13.6332   16.3553 C   0  0  2  0  0  0  0  0  0  0  0  0
   47.7812   13.4312   17.0974 C   0  0  0  0  0  0  0  0  0  0  0  0
   48.1509   11.3754   20.8892 C   0  0  0  0  0  0  0  0  0  0  0  0
   48.3461   13.3930   19.5599 C   0  0  0  0  0  0  0  0  0  0  0  0
   47.6137   11.3431   18.5196 C   0  0  0  0  0  0  0  0  0  0  0  0
   49.3330   16.4772    9.3242 C   0  0  0  0  0  0  0  0  0  0  0  0
   48.4554   12.7330   20.7886 C   0  0  0  0  0  0  0  0  0  0  0  0
   47.7453   10.6857   19.7465 C   0  0  0  0  0  0  0  0  0  0  0  0
   48.9593   14.6586   15.2345 C   0  0  0  0  0  0  0  0  0  0  0  0
   48.4273   11.3157   23.2473 C   0  0  0  0  0  0  0  0  0  0  0  0
   48.5258   13.4879   15.4654 O   0  0  0  0  0  0  0  0  0  0  0  0
   48.6861   12.8739   16.2911 H   0  0  0  0  0  0  0  0  0  0  0  0
   48.9492   13.0831   14.8041 H   0  0  0  0  0  0  0  0  0  0  0  0
   48.4954   12.2305    8.5029 H   0  0  0  0  0  0  0  0  0  0  0  0
   47.3772   15.3378   13.6264 H   0  0  0  0  0  0  0  0  0  0  0  0
   50.9756   14.1325   10.3596 H   0  0  0  0  0  0  0  0  0  0  0  0
   49.5620   13.0492   16.8238 H   0  0  0  0  0  0  0  0  0  0  0  0
   50.0752   14.3104   12.3497 H   0  0  0  0  0  0  0  0  0  0  0  0
   47.7880   13.1368   15.0928 H   0  0  0  0  0  0  0  0  0  0  0  0
   46.3998   12.2999   13.3411 H   0  0  0  0  0  0  0  0  0  0  0  0
   46.2106   11.5258   11.0100 H   0  0  0  0  0  0  0  0  0  0  0  0
   50.3794   13.1266   14.6563 H   0  0  0  0  0  0  0  0  0  0  0  0
   50.2691   14.8728   14.6271 H   0  0  0  0  0  0  0  0  0  0  0  0
   48.1782   15.0417   16.9326 H   0  0  0  0  0  0  0  0  0  0  0  0
   48.8292   15.5963   19.2843 H   0  0  0  0  0  0  0  0  0  0  0  0
   50.3465   14.7555   19.0757 H   0  0  0  0  0  0  0  0  0  0  0  0
   50.4543   12.4934   19.7432 H   0  0  0  0  0  0  0  0  0  0  0  0
   46.6138   14.1718   18.7319 H   0  0  0  0  0  0  0  0  0  0  0  0
   51.4065   13.8242    8.2389 H   0  0  0  0  0  0  0  0  0  0  0  0
   49.3818   10.3975   20.3739 H   0  0  0  0  0  0  0  0  0  0  0  0
   45.5355   12.0437   19.3525 H   0  0  0  0  0  0  0  0  0  0  0  0
   50.9314   16.4010   17.1162 H   0  0  0  0  0  0  0  0  0  0  0  0
   49.6966   16.6831   15.8698 H   0  0  0  0  0  0  0  0  0  0  0  0
   49.3927   17.1639   17.5358 H   0  0  0  0  0  0  0  0  0  0  0  0
   47.9384    8.9121   21.4711 H   0  0  0  0  0  0  0  0  0  0  0  0
   48.0416    8.4774   19.7240 H   0  0  0  0  0  0  0  0  0  0  0  0
   46.6639    7.9632   20.6956 H   0  0  0  0  0  0  0  0  0  0  0  0
   49.3861   13.8411   12.0139 H   0  0  0  0  0  0  0  0  0  0  0  0
   48.0414   12.4606   19.0925 H   0  0  0  0  0  0  0  0  0  0  0  0
   50.2266   13.3728   15.2873 H   0  0  0  0  0  0  0  0  0  0  0  0
   47.1976   12.9179   15.8176 H   0  0  0  0  0  0  0  0  0  0  0  0
   47.1960   15.7389    9.4453 H   0  0  0  0  0  0  0  0  0  0  0  0
   51.1216   12.4649   14.5306 H   0  0  0  0  0  0  0  0  0  0  0  0
   50.7024   15.4008   10.3491 H   0  0  0  0  0  0  0  0  0  0  0  0
   49.8683   11.7842   16.7247 H   0  0  0  0  0  0  0  0  0  0  0  0
   50.6651   13.8028   11.8634 H   0  0  0  0  0  0  0  0  0  0  0  0
   49.7775   10.7700   12.9772 H   0  0  0  0  0  0  0  0  0  0  0  0
   47.0477   11.6258   12.7165 H   0  0  0  0  0  0  0  0  0  0  0  0
   45.8298   13.0623   11.1406 H   0  0  0  0  0  0  0  0  0  0  0  0
   49.1697   10.5739   15.1207 H   0  0  0  0  0  0  0  0  0  0  0  0
   47.9852   11.8082   14.8448 H   0  0  0  0  0  0  0  0  0  0  0  0
   49.8309   14.0819   17.0673 H   0  0  0  0  0  0  0  0  0  0  0  0
   47.3280   14.4122   17.2957 H   0  0  0  0  0  0  0  0  0  0  0  0
   47.0558   12.9072   16.4652 H   0  0  0  0  0  0  0  0  0  0  0  0
   48.5976   14.4529   19.5019 H   0  0  0  0  0  0  0  0  0  0  0  0
   47.2724   10.7833   17.6502 H   0  0  0  0  0  0  0  0  0  0  0  0
   50.2196   17.0190    8.9442 H   0  0  0  0  0  0  0  0  0  0  0  0
   48.7880   13.3086   21.6451 H   0  0  0  0  0  0  0  0  0  0  0  0
   47.5195    9.6252   19.8125 H   0  0  0  0  0  0  0  0  0  0  0  0
   48.7004   15.6388   15.6544 H   0  0  0  0  0  0  0  0  0  0  0  0
   48.1568   14.3802   14.5410 H   0  0  0  0  0  0  0  0  0  0  0  0
   49.8908   14.7891   14.6718 H   0  0  0  0  0  0  0  0  0  0  0  0
   47.6454   12.0655   23.4164 H   0  0  0  0  0  0  0  0  0  0  0  0
   49.4238   11.7741   23.2753 H   0  0  0  0  0  0  0  0  0  0  0  0
   48.3692   10.5877   24.0630 H   0  0  0  0  0  0  0  0  0  0  0  0
   48.5776   13.0373   16.3211 H   0  0  0  0  0  0  0  0  0  0  0  0
   49.0336   12.9173   14.8712 H   0  0  0  0  0  0  0  0  0  0  0  0
  2 10  1  0
  3 12  1  0
  4 19  1  0
  4 26  1  0
  5 22  2  0
  6  9  1  0
  6 22  1  0
  7 15  1  0
  7 17  1  0
  8 11  2  0
  8 12  1  0
  8 13  1  0
  9 10  2  0
  9 11  1  0
 10 14  1  0
 12 15  1  0
 13 14  2  0
 16 18  1  0
 16 20  2  0
 16 21  1  0
 17 18  1  0
 17 25  1  0
 19 23  2  0
 19 24  1  0
 20 23  1  0
 21 24  2  0
 27 31  1  0
 28 32  1  0
 29 31  2  0
 30 32  2  0
 31 33  1  0
 32 34  1  0
 33 34  2  0
 35 43  1  0
 36 45  1  0
 37 52  1  0
 37 59  1  0
 38 55  2  0
 39 42  1  0
 39 55  1  0
 40 48  1  0
 40 50  1  0
 41 44  2  0
 41 45  1  0
 41 46  1  0
 42 43  2  0
 42 44  1  0
 43 47  1  0
 45 48  1  0
 46 47  2  0
 49 51  1  0
 49 53  2  0
 49 54  1  0
 50 51  1  0
 50 58  1  0
 52 56  2  0
 52 57  1  0
 53 56  1  0
 54 57  2  0
  1 61  1  0
  1 62  1  0
  2 63  1  0
  3 64  1  0
  6 65  1  0
  7 66  1  0
 11 67  1  0
 12 68  1  1
 13 69  1  0
 14 70  1  0
 15 71  1  0
 15 72  1  0
 17 73  1  1
 18 74  1  0
 18 75  1  0
 20 76  1  0
 21 77  1  0
 22 78  1  0
 23 79  1  0
 24 80  1  0
 25 81  1  0
 25 82  1  0
 25 83  1  0
 26 84  1  0
 26 85  1  0
 26 86  1  0
 27 87  1  0
 28 88  1  0
 33 89  1  0
 34 90  1  0
 35 91  1  0
 36 92  1  0
 39 93  1  0
 40 94  1  0
 44 95  1  0
 45 96  1  1
 46 97  1  0
 47 98  1  0
 48 99  1  0
 48100  1  0
 50101  1  6
 51102  1  0
 51103  1  0
 53104  1  0
 54105  1  0
 55106  1  0
 56107  1  0
 57108  1  0
 58109  1  0
 58110  1  0
 58111  1  0
 59112  1  0
 59113  1  0
 59114  1  0
 60115  1  0
 60116  1  0
M  END
> <Uni-Dock RESULT> 
ENERGY=   -4.433  LOWER_BOUND=    5.359  UPPER_BOUND=    7.419
INTER + INTRA:          -4.433
INTER:                  -4.433
INTRA:                   0.000
UNBOUND:                 0.000

$$$$
