
     RDKit          3D

116115  0  0  0  0  0  0  0  0999 V2000
   50.4854    6.7374   16.4216 O   0  0  0  0  0  0  0  0  0  0  0  0
   52.5457    0.6333   18.2973 O   0  0  0  0  0  0  0  0  0  0  0  0
   51.4987    6.7682   19.0381 O   0  0  0  0  0  0  0  0  0  0  0  0
   46.7614    7.3190   11.3107 O   0  0  0  0  0  0  0  0  0  0  0  0
   55.6266    4.2897   19.8097 O   0  0  0  0  0  0  0  0  0  0  0  0
   54.4547    2.3855   19.1085 N   0  0  0  0  0  0  0  0  0  0  0  0
   50.0365    8.1224   17.0577 N   0  0  0  0  0  0  0  0  0  0  0  0
   51.7727    4.7028   17.8230 C   0  0  0  0  0  0  0  0  0  0  0  0
   53.2683    2.8984   18.5432 C   0  0  0  0  0  0  0  0  0  0  0  0
   52.3120    1.9712   18.1198 C   0  0  0  0  0  0  0  0  0  0  0  0
   52.9902    4.2578   18.3961 C   0  0  0  0  0  0  0  0  0  0  0  0
   51.5437    6.2021   17.7146 C   0  0  1  0  0  0  0  0  0  0  0  0
   50.8478    3.7438   17.3902 C   0  0  0  0  0  0  0  0  0  0  0  0
   51.1125    2.3808   17.5408 C   0  0  0  0  0  0  0  0  0  0  0  0
   50.2646    6.6667   16.9671 C   0  0  0  0  0  0  0  0  0  0  0  0
   49.0727    9.1717   14.2627 C   0  0  0  0  0  0  0  0  0  0  0  0
   50.8443    8.8892   16.0925 C   0  0  1  0  0  0  0  0  0  0  0  0
   49.9342    9.8555   15.2999 C   0  0  0  0  0  0  0  0  0  0  0  0
   47.4524    7.9047   12.3354 C   0  0  0  0  0  0  0  0  0  0  0  0
   47.8004    8.6961   14.5993 C   0  0  0  0  0  0  0  0  0  0  0  0
   49.5300    9.0022   12.9510 C   0  0  0  0  0  0  0  0  0  0  0  0
   55.4975    3.0831   19.6700 C   0  0  0  0  0  0  0  0  0  0  0  0
   46.9960    8.0668   13.6427 C   0  0  0  0  0  0  0  0  0  0  0  0
   48.7258    8.3664   11.9994 C   0  0  0  0  0  0  0  0  0  0  0  0
   51.9053    9.7048   16.8402 C   0  0  0  0  0  0  0  0  0  0  0  0
   45.4144    6.9570   11.5759 C   0  0  0  0  0  0  0  0  0  0  0  0
   52.3306    5.3459   17.2940 O   0  0  0  0  0  0  0  0  0  0  0  0
   48.4390    7.4164   15.1411 O   0  0  0  0  0  0  0  0  0  0  0  0
   50.6718    3.9992   17.9578 O   0  0  0  0  0  0  0  0  0  0  0  0
   50.0678    8.8548   14.6187 O   0  0  0  0  0  0  0  0  0  0  0  0
   51.0436    4.9752   17.3317 C   0  0  0  0  0  0  0  0  0  0  0  0
   49.7140    7.8305   15.1692 C   0  0  0  0  0  0  0  0  0  0  0  0
   50.1585    5.8497   16.5607 C   0  0  0  0  0  0  0  0  0  0  0  0
   50.6018    6.9409   15.9185 C   0  0  0  0  0  0  0  0  0  0  0  0
   45.0365    6.9128   11.4622 O   0  0  0  0  0  0  0  0  0  0  0  0
   49.2478    9.5481   15.4371 O   0  0  0  0  0  0  0  0  0  0  0  0
   55.6930    3.0175   20.6864 O   0  0  0  0  0  0  0  0  0  0  0  0
   43.5595    8.9237   11.2999 O   0  0  0  0  0  0  0  0  0  0  0  0
   45.4238    9.7961   12.3771 N   0  0  0  0  0  0  0  0  0  0  0  0
   51.0623    7.8308   16.5451 N   0  0  0  0  0  0  0  0  0  0  0  0
   48.2949    7.9780   13.8544 C   0  0  0  0  0  0  0  0  0  0  0  0
   46.2312    8.6774   12.6844 C   0  0  0  0  0  0  0  0  0  0  0  0
   46.0602    7.3631   12.2422 C   0  0  0  0  0  0  0  0  0  0  0  0
   47.3547    8.9600   13.4851 C   0  0  0  0  0  0  0  0  0  0  0  0
   49.5137    8.3554   14.6775 C   0  0  2  0  0  0  0  0  0  0  0  0
   48.1096    6.6828   13.3597 C   0  0  0  0  0  0  0  0  0  0  0  0
   47.0020    6.3827   12.5662 C   0  0  0  0  0  0  0  0  0  0  0  0
   50.0065    7.2680   15.6725 C   0  0  0  0  0  0  0  0  0  0  0  0
   53.1374    4.9313   17.9866 C   0  0  0  0  0  0  0  0  0  0  0  0
   51.5610    6.9043   17.5904 C   0  0  2  0  0  0  0  0  0  0  0  0
   52.2530    5.6542   16.9949 C   0  0  0  0  0  0  0  0  0  0  0  0
   54.7895    3.5907   19.8335 C   0  0  0  0  0  0  0  0  0  0  0  0
   54.4466    5.3731   18.2250 C   0  0  0  0  0  0  0  0  0  0  0  0
   52.6609    3.8187   18.6872 C   0  0  0  0  0  0  0  0  0  0  0  0
   44.2450    9.8555   11.6837 C   0  0  0  0  0  0  0  0  0  0  0  0
   55.2628    4.7102   19.1448 C   0  0  0  0  0  0  0  0  0  0  0  0
   53.4826    3.1511   19.6020 C   0  0  0  0  0  0  0  0  0  0  0  0
   50.4681    6.5361   18.5977 C   0  0  0  0  0  0  0  0  0  0  0  0
   55.3079    1.8057   21.3145 C   0  0  0  0  0  0  0  0  0  0  0  0
   50.4808    6.7415   16.4170 O   0  0  0  0  0  0  0  0  0  0  0  0
   50.7691    5.8376   16.6394 H   0  0  0  0  0  0  0  0  0  0  0  0
   49.8451    6.6152   15.7055 H   0  0  0  0  0  0  0  0  0  0  0  0
   51.7446    0.2693   18.7284 H   0  0  0  0  0  0  0  0  0  0  0  0
   51.3327    6.0422   19.6630 H   0  0  0  0  0  0  0  0  0  0  0  0
   54.5153    1.3736   19.0958 H   0  0  0  0  0  0  0  0  0  0  0  0
   50.2995    8.3842   18.0196 H   0  0  0  0  0  0  0  0  0  0  0  0
   53.7203    5.0047   18.7147 H   0  0  0  0  0  0  0  0  0  0  0  0
   52.4132    6.6371   17.2077 H   0  0  0  0  0  0  0  0  0  0  0  0
   49.9066    4.0322   16.9226 H   0  0  0  0  0  0  0  0  0  0  0  0
   50.3883    1.6536   17.1906 H   0  0  0  0  0  0  0  0  0  0  0  0
   50.2606    6.3261   15.9247 H   0  0  0  0  0  0  0  0  0  0  0  0
   49.3916    6.2131   17.4482 H   0  0  0  0  0  0  0  0  0  0  0  0
   51.3618    8.2283   15.3829 H   0  0  0  0  0  0  0  0  0  0  0  0
   49.2987   10.4356   15.9847 H   0  0  0  0  0  0  0  0  0  0  0  0
   50.5507   10.6046   14.7861 H   0  0  0  0  0  0  0  0  0  0  0  0
   47.4276    8.8138   15.6180 H   0  0  0  0  0  0  0  0  0  0  0  0
   50.5100    9.3651   12.6530 H   0  0  0  0  0  0  0  0  0  0  0  0
   56.2741    2.3849   20.0263 H   0  0  0  0  0  0  0  0  0  0  0  0
   46.0241    7.7087   13.9586 H   0  0  0  0  0  0  0  0  0  0  0  0
   49.0910    8.2381   10.9835 H   0  0  0  0  0  0  0  0  0  0  0  0
   52.5256   10.2598   16.1297 H   0  0  0  0  0  0  0  0  0  0  0  0
   51.4532   10.4258   17.5287 H   0  0  0  0  0  0  0  0  0  0  0  0
   52.5689    9.0596   17.4230 H   0  0  0  0  0  0  0  0  0  0  0  0
   44.8095    7.8378   11.8295 H   0  0  0  0  0  0  0  0  0  0  0  0
   45.3533    6.1961   12.3653 H   0  0  0  0  0  0  0  0  0  0  0  0
   44.9970    6.5188   10.6621 H   0  0  0  0  0  0  0  0  0  0  0  0
   52.7884    4.6728   17.8393 H   0  0  0  0  0  0  0  0  0  0  0  0
   47.9849    8.1013   14.6086 H   0  0  0  0  0  0  0  0  0  0  0  0
   49.1165    5.5449   16.5479 H   0  0  0  0  0  0  0  0  0  0  0  0
   51.6454    7.2440   15.9295 H   0  0  0  0  0  0  0  0  0  0  0  0
   44.3311    7.5940   11.4250 H   0  0  0  0  0  0  0  0  0  0  0  0
   49.8747    9.5001   16.1898 H   0  0  0  0  0  0  0  0  0  0  0  0
   45.7736   10.6836   12.7186 H   0  0  0  0  0  0  0  0  0  0  0  0
   51.8589    8.1078   15.9676 H   0  0  0  0  0  0  0  0  0  0  0  0
   47.5138    9.9789   13.8412 H   0  0  0  0  0  0  0  0  0  0  0  0
   50.3234    8.5992   13.9792 H   0  0  0  0  0  0  0  0  0  0  0  0
   48.8248    5.8877   13.5626 H   0  0  0  0  0  0  0  0  0  0  0  0
   46.8715    5.3711   12.1832 H   0  0  0  0  0  0  0  0  0  0  0  0
   50.3918    6.4000   15.1241 H   0  0  0  0  0  0  0  0  0  0  0  0
   49.1568    6.9512   16.2833 H   0  0  0  0  0  0  0  0  0  0  0  0
   52.3088    7.4808   18.1496 H   0  0  0  0  0  0  0  0  0  0  0  0
   51.5093    4.9625   16.5900 H   0  0  0  0  0  0  0  0  0  0  0  0
   52.8776    5.9436   16.1412 H   0  0  0  0  0  0  0  0  0  0  0  0
   54.8441    6.2313   17.6912 H   0  0  0  0  0  0  0  0  0  0  0  0
   51.6433    3.4619   18.5269 H   0  0  0  0  0  0  0  0  0  0  0  0
   43.9393   10.9063   11.5152 H   0  0  0  0  0  0  0  0  0  0  0  0
   56.2803    5.0577   19.3098 H   0  0  0  0  0  0  0  0  0  0  0  0
   53.0683    2.2951   20.1221 H   0  0  0  0  0  0  0  0  0  0  0  0
   49.9213    7.4252   18.9334 H   0  0  0  0  0  0  0  0  0  0  0  0
   50.8985    6.0675   19.4899 H   0  0  0  0  0  0  0  0  0  0  0  0
   49.7543    5.8274   18.1696 H   0  0  0  0  0  0  0  0  0  0  0  0
   54.4833    1.9744   22.0161 H   0  0  0  0  0  0  0  0  0  0  0  0
   56.1659    1.4423   21.8902 H   0  0  0  0  0  0  0  0  0  0  0  0
   55.0545    1.0334   20.5759 H   0  0  0  0  0  0  0  0  0  0  0  0
   49.8427    6.6006   15.7013 H   0  0  0  0  0  0  0  0  0  0  0  0
   50.7762    5.8480   16.6482 H   0  0  0  0  0  0  0  0  0  0  0  0
  2 10  1  0
  3 12  1  0
  4 19  1  0
  4 26  1  0
  5 22  2  0
  6  9  1  0
  6 22  1  0
  7 15  1  0
  7 17  1  0
  8 11  2  0
  8 12  1  0
  8 13  1  0
  9 10  2  0
  9 11  1  0
 10 14  1  0
 12 15  1  0
 13 14  2  0
 16 18  1  0
 16 20  2  0
 16 21  1  0
 17 18  1  0
 17 25  1  0
 19 23  2  0
 19 24  1  0
 20 23  1  0
 21 24  2  0
 27 31  1  0
 28 32  1  0
 29 31  2  0
 30 32  2  0
 31 33  1  0
 32 34  1  0
 33 34  2  0
 35 43  1  0
 36 45  1  0
 37 52  1  0
 37 59  1  0
 38 55  2  0
 39 42  1  0
 39 55  1  0
 40 48  1  0
 40 50  1  0
 41 44  2  0
 41 45  1  0
 41 46  1  0
 42 43  2  0
 42 44  1  0
 43 47  1  0
 45 48  1  0
 46 47  2  0
 49 51  1  0
 49 53  2  0
 49 54  1  0
 50 51  1  0
 50 58  1  0
 52 56  2  0
 52 57  1  0
 53 56  1  0
 54 57  2  0
  1 61  1  0
  1 62  1  0
  2 63  1  0
  3 64  1  0
  6 65  1  0
  7 66  1  0
 11 67  1  0
 12 68  1  1
 13 69  1  0
 14 70  1  0
 15 71  1  0
 15 72  1  0
 17 73  1  1
 18 74  1  0
 18 75  1  0
 20 76  1  0
 21 77  1  0
 22 78  1  0
 23 79  1  0
 24 80  1  0
 25 81  1  0
 25 82  1  0
 25 83  1  0
 26 84  1  0
 26 85  1  0
 26 86  1  0
 27 87  1  0
 28 88  1  0
 33 89  1  0
 34 90  1  0
 35 91  1  0
 36 92  1  0
 39 93  1  0
 40 94  1  0
 44 95  1  0
 45 96  1  1
 46 97  1  0
 47 98  1  0
 48 99  1  0
 48100  1  0
 50101  1  1
 51102  1  0
 51103  1  0
 53104  1  0
 54105  1  0
 55106  1  0
 56107  1  0
 57108  1  0
 58109  1  0
 58110  1  0
 58111  1  0
 59112  1  0
 59113  1  0
 59114  1  0
 60115  1  0
 60116  1  0
M  END
> <Uni-Dock RESULT> 
ENERGY=   -6.503  LOWER_BOUND=    0.000  UPPER_BOUND=    0.000
INTER + INTRA:          -6.503
INTER:                  -6.503
INTRA:                   0.000
UNBOUND:                 0.000

$$$$

     RDKit          3D

116115  0  0  0  0  0  0  0  0999 V2000
   50.4855    6.7374   16.4216 O   0  0  0  0  0  0  0  0  0  0  0  0
   52.5459    0.6332   18.2972 O   0  0  0  0  0  0  0  0  0  0  0  0
   51.4988    6.7681   19.0383 O   0  0  0  0  0  0  0  0  0  0  0  0
   46.7616    7.3191   11.3107 O   0  0  0  0  0  0  0  0  0  0  0  0
   55.6267    4.2897   19.8098 O   0  0  0  0  0  0  0  0  0  0  0  0
   54.4548    2.3855   19.1085 N   0  0  0  0  0  0  0  0  0  0  0  0
   50.0366    8.1224   17.0578 N   0  0  0  0  0  0  0  0  0  0  0  0
   51.7728    4.7028   17.8231 C   0  0  0  0  0  0  0  0  0  0  0  0
   53.2684    2.8984   18.5432 C   0  0  0  0  0  0  0  0  0  0  0  0
   52.3121    1.9711   18.1197 C   0  0  0  0  0  0  0  0  0  0  0  0
   52.9903    4.2577   18.3962 C   0  0  0  0  0  0  0  0  0  0  0  0
   51.5438    6.2021   17.7147 C   0  0  1  0  0  0  0  0  0  0  0  0
   50.8480    3.7438   17.3902 C   0  0  0  0  0  0  0  0  0  0  0  0
   51.1127    2.3807   17.5407 C   0  0  0  0  0  0  0  0  0  0  0  0
   50.2647    6.6666   16.9671 C   0  0  0  0  0  0  0  0  0  0  0  0
   49.0728    9.1718   14.2628 C   0  0  0  0  0  0  0  0  0  0  0  0
   50.8444    8.8892   16.0927 C   0  0  1  0  0  0  0  0  0  0  0  0
   49.9343    9.8555   15.3001 C   0  0  0  0  0  0  0  0  0  0  0  0
   47.4526    7.9048   12.3355 C   0  0  0  0  0  0  0  0  0  0  0  0
   47.8005    8.6961   14.5995 C   0  0  0  0  0  0  0  0  0  0  0  0
   49.5301    9.0023   12.9512 C   0  0  0  0  0  0  0  0  0  0  0  0
   55.4976    3.0830   19.6701 C   0  0  0  0  0  0  0  0  0  0  0  0
   46.9961    8.0668   13.6428 C   0  0  0  0  0  0  0  0  0  0  0  0
   48.7260    8.3665   11.9996 C   0  0  0  0  0  0  0  0  0  0  0  0
   51.9053    9.7048   16.8404 C   0  0  0  0  0  0  0  0  0  0  0  0
   45.4146    6.9571   11.5759 C   0  0  0  0  0  0  0  0  0  0  0  0
   52.3308    5.3459   17.2941 O   0  0  0  0  0  0  0  0  0  0  0  0
   48.4391    7.4164   15.1412 O   0  0  0  0  0  0  0  0  0  0  0  0
   50.6719    3.9992   17.9578 O   0  0  0  0  0  0  0  0  0  0  0  0
   50.0679    8.8548   14.6189 O   0  0  0  0  0  0  0  0  0  0  0  0
   51.0437    4.9752   17.3317 C   0  0  0  0  0  0  0  0  0  0  0  0
   49.7141    7.8305   15.1693 C   0  0  0  0  0  0  0  0  0  0  0  0
   50.1586    5.8497   16.5608 C   0  0  0  0  0  0  0  0  0  0  0  0
   50.6020    6.9409   15.9186 C   0  0  0  0  0  0  0  0  0  0  0  0
   45.0368    6.9129   11.4622 O   0  0  0  0  0  0  0  0  0  0  0  0
   49.2479    9.5481   15.4372 O   0  0  0  0  0  0  0  0  0  0  0  0
   55.6931    3.0174   20.6864 O   0  0  0  0  0  0  0  0  0  0  0  0
   43.5597    8.9238   11.2999 O   0  0  0  0  0  0  0  0  0  0  0  0
   45.4239    9.7962   12.3772 N   0  0  0  0  0  0  0  0  0  0  0  0
   51.0624    7.8308   16.5452 N   0  0  0  0  0  0  0  0  0  0  0  0
   48.2951    7.9781   13.8545 C   0  0  0  0  0  0  0  0  0  0  0  0
   46.2314    8.6775   12.6844 C   0  0  0  0  0  0  0  0  0  0  0  0
   46.0604    7.3631   12.2422 C   0  0  0  0  0  0  0  0  0  0  0  0
   47.3548    8.9601   13.4853 C   0  0  0  0  0  0  0  0  0  0  0  0
   49.5138    8.3554   14.6776 C   0  0  2  0  0  0  0  0  0  0  0  0
   48.1098    6.6829   13.3598 C   0  0  0  0  0  0  0  0  0  0  0  0
   47.0022    6.3828   12.5662 C   0  0  0  0  0  0  0  0  0  0  0  0
   50.0066    7.2680   15.6726 C   0  0  0  0  0  0  0  0  0  0  0  0
   53.1375    4.9313   17.9866 C   0  0  0  0  0  0  0  0  0  0  0  0
   51.5611    6.9042   17.5905 C   0  0  2  0  0  0  0  0  0  0  0  0
   52.2531    5.6542   16.9950 C   0  0  0  0  0  0  0  0  0  0  0  0
   54.7896    3.5906   19.8335 C   0  0  0  0  0  0  0  0  0  0  0  0
   54.4467    5.3730   18.2251 C   0  0  0  0  0  0  0  0  0  0  0  0
   52.6611    3.8186   18.6872 C   0  0  0  0  0  0  0  0  0  0  0  0
   44.2451    9.8555   11.6838 C   0  0  0  0  0  0  0  0  0  0  0  0
   55.2629    4.7101   19.1449 C   0  0  0  0  0  0  0  0  0  0  0  0
   53.4827    3.1510   19.6020 C   0  0  0  0  0  0  0  0  0  0  0  0
   50.4682    6.5360   18.5978 C   0  0  0  0  0  0  0  0  0  0  0  0
   55.3080    1.8056   21.3145 C   0  0  0  0  0  0  0  0  0  0  0  0
   50.4809    6.7415   16.4171 O   0  0  0  0  0  0  0  0  0  0  0  0
   50.7692    5.8375   16.6394 H   0  0  0  0  0  0  0  0  0  0  0  0
   49.8452    6.6152   15.7055 H   0  0  0  0  0  0  0  0  0  0  0  0
   51.7448    0.2692   18.7283 H   0  0  0  0  0  0  0  0  0  0  0  0
   51.3328    6.0421   19.6631 H   0  0  0  0  0  0  0  0  0  0  0  0
   54.5154    1.3736   19.0958 H   0  0  0  0  0  0  0  0  0  0  0  0
   50.2995    8.3841   18.0198 H   0  0  0  0  0  0  0  0  0  0  0  0
   53.7204    5.0047   18.7148 H   0  0  0  0  0  0  0  0  0  0  0  0
   52.4133    6.6370   17.2078 H   0  0  0  0  0  0  0  0  0  0  0  0
   49.9067    4.0322   16.9225 H   0  0  0  0  0  0  0  0  0  0  0  0
   50.3884    1.6535   17.1905 H   0  0  0  0  0  0  0  0  0  0  0  0
   50.2607    6.3261   15.9248 H   0  0  0  0  0  0  0  0  0  0  0  0
   49.3917    6.2130   17.4483 H   0  0  0  0  0  0  0  0  0  0  0  0
   51.3619    8.2284   15.3831 H   0  0  0  0  0  0  0  0  0  0  0  0
   49.2987   10.4356   15.9849 H   0  0  0  0  0  0  0  0  0  0  0  0
   50.5508   10.6047   14.7864 H   0  0  0  0  0  0  0  0  0  0  0  0
   47.4276    8.8138   15.6181 H   0  0  0  0  0  0  0  0  0  0  0  0
   50.5101    9.3652   12.6532 H   0  0  0  0  0  0  0  0  0  0  0  0
   56.2742    2.3848   20.0263 H   0  0  0  0  0  0  0  0  0  0  0  0
   46.0243    7.7087   13.9586 H   0  0  0  0  0  0  0  0  0  0  0  0
   49.0912    8.2383   10.9836 H   0  0  0  0  0  0  0  0  0  0  0  0
   52.5257   10.2599   16.1300 H   0  0  0  0  0  0  0  0  0  0  0  0
   51.4532   10.4258   17.5289 H   0  0  0  0  0  0  0  0  0  0  0  0
   52.5690    9.0596   17.4232 H   0  0  0  0  0  0  0  0  0  0  0  0
   44.8097    7.8378   11.8295 H   0  0  0  0  0  0  0  0  0  0  0  0
   45.3535    6.1962   12.3653 H   0  0  0  0  0  0  0  0  0  0  0  0
   44.9972    6.5189   10.6621 H   0  0  0  0  0  0  0  0  0  0  0  0
   52.7885    4.6727   17.8394 H   0  0  0  0  0  0  0  0  0  0  0  0
   47.9850    8.1013   14.6087 H   0  0  0  0  0  0  0  0  0  0  0  0
   49.1166    5.5448   16.5479 H   0  0  0  0  0  0  0  0  0  0  0  0
   51.6455    7.2440   15.9296 H   0  0  0  0  0  0  0  0  0  0  0  0
   44.3313    7.5941   11.4250 H   0  0  0  0  0  0  0  0  0  0  0  0
   49.8748    9.5001   16.1900 H   0  0  0  0  0  0  0  0  0  0  0  0
   45.7737   10.6837   12.7187 H   0  0  0  0  0  0  0  0  0  0  0  0
   51.8590    8.1078   15.9678 H   0  0  0  0  0  0  0  0  0  0  0  0
   47.5139    9.9790   13.8413 H   0  0  0  0  0  0  0  0  0  0  0  0
   50.3236    8.5993   13.9794 H   0  0  0  0  0  0  0  0  0  0  0  0
   48.8250    5.8878   13.5626 H   0  0  0  0  0  0  0  0  0  0  0  0
   46.8717    5.3712   12.1832 H   0  0  0  0  0  0  0  0  0  0  0  0
   50.3920    6.4000   15.1242 H   0  0  0  0  0  0  0  0  0  0  0  0
   49.1569    6.9511   16.2834 H   0  0  0  0  0  0  0  0  0  0  0  0
   52.3088    7.4808   18.1497 H   0  0  0  0  0  0  0  0  0  0  0  0
   51.5095    4.9625   16.5901 H   0  0  0  0  0  0  0  0  0  0  0  0
   52.8777    5.9436   16.1413 H   0  0  0  0  0  0  0  0  0  0  0  0
   54.8442    6.2313   17.6913 H   0  0  0  0  0  0  0  0  0  0  0  0
   51.6434    3.4618   18.5269 H   0  0  0  0  0  0  0  0  0  0  0  0
   43.9394   10.9063   11.5154 H   0  0  0  0  0  0  0  0  0  0  0  0
   56.2804    5.0576   19.3100 H   0  0  0  0  0  0  0  0  0  0  0  0
   53.0684    2.2950   20.1221 H   0  0  0  0  0  0  0  0  0  0  0  0
   49.9214    7.4251   18.9335 H   0  0  0  0  0  0  0  0  0  0  0  0
   50.8986    6.0673   19.4899 H   0  0  0  0  0  0  0  0  0  0  0  0
   49.7544    5.8273   18.1697 H   0  0  0  0  0  0  0  0  0  0  0  0
   54.4834    1.9742   22.0161 H   0  0  0  0  0  0  0  0  0  0  0  0
   56.1660    1.4422   21.8902 H   0  0  0  0  0  0  0  0  0  0  0  0
   55.0546    1.0333   20.5759 H   0  0  0  0  0  0  0  0  0  0  0  0
   49.8428    6.6006   15.7013 H   0  0  0  0  0  0  0  0  0  0  0  0
   50.7763    5.8480   16.6482 H   0  0  0  0  0  0  0  0  0  0  0  0
  2 10  1  0
  3 12  1  0
  4 19  1  0
  4 26  1  0
  5 22  2  0
  6  9  1  0
  6 22  1  0
  7 15  1  0
  7 17  1  0
  8 11  2  0
  8 12  1  0
  8 13  1  0
  9 10  2  0
  9 11  1  0
 10 14  1  0
 12 15  1  0
 13 14  2  0
 16 18  1  0
 16 20  2  0
 16 21  1  0
 17 18  1  0
 17 25  1  0
 19 23  2  0
 19 24  1  0
 20 23  1  0
 21 24  2  0
 27 31  1  0
 28 32  1  0
 29 31  2  0
 30 32  2  0
 31 33  1  0
 32 34  1  0
 33 34  2  0
 35 43  1  0
 36 45  1  0
 37 52  1  0
 37 59  1  0
 38 55  2  0
 39 42  1  0
 39 55  1  0
 40 48  1  0
 40 50  1  0
 41 44  2  0
 41 45  1  0
 41 46  1  0
 42 43  2  0
 42 44  1  0
 43 47  1  0
 45 48  1  0
 46 47  2  0
 49 51  1  0
 49 53  2  0
 49 54  1  0
 50 51  1  0
 50 58  1  0
 52 56  2  0
 52 57  1  0
 53 56  1  0
 54 57  2  0
  1 61  1  0
  1 62  1  0
  2 63  1  0
  3 64  1  0
  6 65  1  0
  7 66  1  0
 11 67  1  0
 12 68  1  1
 13 69  1  0
 14 70  1  0
 15 71  1  0
 15 72  1  0
 17 73  1  1
 18 74  1  0
 18 75  1  0
 20 76  1  0
 21 77  1  0
 22 78  1  0
 23 79  1  0
 24 80  1  0
 25 81  1  0
 25 82  1  0
 25 83  1  0
 26 84  1  0
 26 85  1  0
 26 86  1  0
 27 87  1  0
 28 88  1  0
 33 89  1  0
 34 90  1  0
 35 91  1  0
 36 92  1  0
 39 93  1  0
 40 94  1  0
 44 95  1  0
 45 96  1  1
 46 97  1  0
 47 98  1  0
 48 99  1  0
 48100  1  0
 50101  1  1
 51102  1  0
 51103  1  0
 53104  1  0
 54105  1  0
 55106  1  0
 56107  1  0
 57108  1  0
 58109  1  0
 58110  1  0
 58111  1  0
 59112  1  0
 59113  1  0
 59114  1  0
 60115  1  0
 60116  1  0
M  END
> <Uni-Dock RESULT> 
ENERGY=   -6.503  LOWER_BOUND=    0.000  UPPER_BOUND=    0.000
INTER + INTRA:          -6.503
INTER:                  -6.503
INTRA:                   0.000
UNBOUND:                 0.000

$$$$

     RDKit          3D

116115  0  0  0  0  0  0  0  0999 V2000
   48.8439    9.9103   14.1837 O   0  0  0  0  0  0  0  0  0  0  0  0
   46.1905    3.7494   14.0187 O   0  0  0  0  0  0  0  0  0  0  0  0
   48.1628    9.1687   11.5644 O   0  0  0  0  0  0  0  0  0  0  0  0
   51.9787   11.7989   19.3734 O   0  0  0  0  0  0  0  0  0  0  0  0
   43.8510    6.9706   10.9692 O   0  0  0  0  0  0  0  0  0  0  0  0
   44.6544    5.3048   12.4082 N   0  0  0  0  0  0  0  0  0  0  0  0
   49.5537   10.9590   13.2241 N   0  0  0  0  0  0  0  0  0  0  0  0
   47.4613    7.6562   13.3072 C   0  0  0  0  0  0  0  0  0  0  0  0
   45.8250    5.8628   12.9635 C   0  0  0  0  0  0  0  0  0  0  0  0
   46.5857    5.0428   13.8018 C   0  0  0  0  0  0  0  0  0  0  0  0
   46.2704    7.1622   12.7184 C   0  0  0  0  0  0  0  0  0  0  0  0
   47.8824    9.0788   12.9742 C   0  0  1  0  0  0  0  0  0  0  0  0
   48.1854    6.8124   14.1593 C   0  0  0  0  0  0  0  0  0  0  0  0
   47.7532    5.5071   14.4044 C   0  0  0  0  0  0  0  0  0  0  0  0
   49.1158    9.6429   13.7300 C   0  0  0  0  0  0  0  0  0  0  0  0
   50.3153   12.7785   15.6636 C   0  0  0  0  0  0  0  0  0  0  0  0
   48.7517   12.0734   13.7598 C   0  0  1  0  0  0  0  0  0  0  0  0
   49.6870   13.1581   14.3421 C   0  0  0  0  0  0  0  0  0  0  0  0
   51.5027   12.0746   18.1212 C   0  0  0  0  0  0  0  0  0  0  0  0
   51.5399   12.1019   15.6983 C   0  0  0  0  0  0  0  0  0  0  0  0
   49.6864   13.0955   16.8728 C   0  0  0  0  0  0  0  0  0  0  0  0
   43.7932    5.8715   11.4991 C   0  0  0  0  0  0  0  0  0  0  0  0
   52.1293   11.7522   16.9183 C   0  0  0  0  0  0  0  0  0  0  0  0
   50.2753   12.7379   18.0901 C   0  0  0  0  0  0  0  0  0  0  0  0
   47.9112   12.6911   12.6365 C   0  0  0  0  0  0  0  0  0  0  0  0
   53.2839   11.2457   19.4511 C   0  0  0  0  0  0  0  0  0  0  0  0
   46.9395    8.4870   13.5127 O   0  0  0  0  0  0  0  0  0  0  0  0
   50.7981   10.7805   15.4920 O   0  0  0  0  0  0  0  0  0  0  0  0
   48.4615    6.8482   13.5755 O   0  0  0  0  0  0  0  0  0  0  0  0
   49.3353   12.4559   15.2729 O   0  0  0  0  0  0  0  0  0  0  0  0
   48.1576    8.0064   13.7967 C   0  0  0  0  0  0  0  0  0  0  0  0
   49.6057   11.2790   15.1347 C   0  0  0  0  0  0  0  0  0  0  0  0
   49.0580    9.0001   14.3836 C   0  0  0  0  0  0  0  0  0  0  0  0
   48.6979   10.2786   14.5725 C   0  0  0  0  0  0  0  0  0  0  0  0
   53.6357   11.2066   19.6310 O   0  0  0  0  0  0  0  0  0  0  0  0
   50.3352   12.7601   14.4183 O   0  0  0  0  0  0  0  0  0  0  0  0
   43.7126    5.4921   10.5373 O   0  0  0  0  0  0  0  0  0  0  0  0
   55.3488   13.0112   19.3846 O   0  0  0  0  0  0  0  0  0  0  0  0
   53.7656   13.6482   17.8083 N   0  0  0  0  0  0  0  0  0  0  0  0
   48.4437   10.9501   13.6339 N   0  0  0  0  0  0  0  0  0  0  0  0
   50.8651   11.7199   16.5432 C   0  0  0  0  0  0  0  0  0  0  0  0
   52.8524   12.5712   17.7445 C   0  0  0  0  0  0  0  0  0  0  0  0
   52.7848   11.4670   18.5980 C   0  0  0  0  0  0  0  0  0  0  0  0
   51.8825   12.6766   16.7289 C   0  0  0  0  0  0  0  0  0  0  0  0
   49.8173   11.9158   15.4619 C   0  0  2  0  0  0  0  0  0  0  0  0
   50.8080   10.6497   17.4421 C   0  0  0  0  0  0  0  0  0  0  0  0
   51.7608   10.5269   18.4539 C   0  0  0  0  0  0  0  0  0  0  0  0
   49.2995   10.6116   14.7940 C   0  0  0  0  0  0  0  0  0  0  0  0
   46.1709    7.9438   12.8673 C   0  0  0  0  0  0  0  0  0  0  0  0
   47.9485    9.7809   12.8674 C   0  0  2  0  0  0  0  0  0  0  0  0
   47.0233    8.8681   13.7082 C   0  0  0  0  0  0  0  0  0  0  0  0
   44.5794    6.2282   11.2983 C   0  0  0  0  0  0  0  0  0  0  0  0
   44.9738    8.4019   12.2989 C   0  0  0  0  0  0  0  0  0  0  0  0
   46.5675    6.6229   12.6356 C   0  0  0  0  0  0  0  0  0  0  0  0
   54.8503   13.8233   18.6247 C   0  0  0  0  0  0  0  0  0  0  0  0
   44.1882    7.5514   11.5171 C   0  0  0  0  0  0  0  0  0  0  0  0
   45.7754    5.7701   11.8591 C   0  0  0  0  0  0  0  0  0  0  0  0
   49.0913    9.0003   12.2121 C   0  0  0  0  0  0  0  0  0  0  0  0
   43.9969    4.1106   10.3902 C   0  0  0  0  0  0  0  0  0  0  0  0
   48.8483    9.9152   14.1874 O   0  0  0  0  0  0  0  0  0  0  0  0
   48.4654    9.0196   14.2175 H   0  0  0  0  0  0  0  0  0  0  0  0
   49.3712    9.9725   14.9935 H   0  0  0  0  0  0  0  0  0  0  0  0
   46.9785    3.1904   13.8556 H   0  0  0  0  0  0  0  0  0  0  0  0
   48.2990    8.2649   11.2334 H   0  0  0  0  0  0  0  0  0  0  0  0
   44.4523    4.3643   12.7281 H   0  0  0  0  0  0  0  0  0  0  0  0
   49.4459   10.9113   12.1999 H   0  0  0  0  0  0  0  0  0  0  0  0
   45.6946    7.8264   12.0706 H   0  0  0  0  0  0  0  0  0  0  0  0
   47.0280    9.7358   13.1753 H   0  0  0  0  0  0  0  0  0  0  0  0
   49.0954    7.1501   14.6550 H   0  0  0  0  0  0  0  0  0  0  0  0
   48.3222    4.8724   15.0747 H   0  0  0  0  0  0  0  0  0  0  0  0
   48.9485    9.6673   14.8134 H   0  0  0  0  0  0  0  0  0  0  0  0
   49.9680    8.9766   13.5594 H   0  0  0  0  0  0  0  0  0  0  0  0
   48.0666   11.7355   14.5500 H   0  0  0  0  0  0  0  0  0  0  0  0
   50.4739   13.4174   13.6190 H   0  0  0  0  0  0  0  0  0  0  0  0
   49.1242   14.0890   14.4907 H   0  0  0  0  0  0  0  0  0  0  0  0
   52.0438   11.8410   14.7664 H   0  0  0  0  0  0  0  0  0  0  0  0
   48.7381   13.6261   16.8834 H   0  0  0  0  0  0  0  0  0  0  0  0
   42.9747    5.1704   11.2623 H   0  0  0  0  0  0  0  0  0  0  0  0
   53.0724   11.2209   16.8882 H   0  0  0  0  0  0  0  0  0  0  0  0
   49.7777   12.9873   19.0240 H   0  0  0  0  0  0  0  0  0  0  0  0
   47.2943   13.5051   13.0296 H   0  0  0  0  0  0  0  0  0  0  0  0
   48.5380   13.0986   11.8368 H   0  0  0  0  0  0  0  0  0  0  0  0
   47.2381   11.9544   12.1887 H   0  0  0  0  0  0  0  0  0  0  0  0
   54.0315   11.9327   19.0325 H   0  0  0  0  0  0  0  0  0  0  0  0
   53.3318   10.2645   18.9604 H   0  0  0  0  0  0  0  0  0  0  0  0
   53.5247   11.0973   20.5100 H   0  0  0  0  0  0  0  0  0  0  0  0
   46.4605    7.7172   13.1412 H   0  0  0  0  0  0  0  0  0  0  0  0
   51.2767   11.5575   15.8472 H   0  0  0  0  0  0  0  0  0  0  0  0
   50.0384    8.6210   14.6555 H   0  0  0  0  0  0  0  0  0  0  0  0
   47.7156   10.6568   14.3025 H   0  0  0  0  0  0  0  0  0  0  0  0
   54.4197   11.7929   19.5632 H   0  0  0  0  0  0  0  0  0  0  0  0
   49.8017   12.5247   13.6298 H   0  0  0  0  0  0  0  0  0  0  0  0
   53.5859   14.4014   17.1549 H   0  0  0  0  0  0  0  0  0  0  0  0
   47.6306   11.4754   13.9620 H   0  0  0  0  0  0  0  0  0  0  0  0
   51.9104   13.5307   16.0506 H   0  0  0  0  0  0  0  0  0  0  0  0
   48.9723   12.4510   15.9115 H   0  0  0  0  0  0  0  0  0  0  0  0
   50.0183    9.9026   17.3890 H   0  0  0  0  0  0  0  0  0  0  0  0
   51.7026    9.6913   19.1505 H   0  0  0  0  0  0  0  0  0  0  0  0
   48.7346   10.0135   15.5191 H   0  0  0  0  0  0  0  0  0  0  0  0
   50.1633   10.0329   14.4555 H   0  0  0  0  0  0  0  0  0  0  0  0
   47.3602   10.2072   12.0450 H   0  0  0  0  0  0  0  0  0  0  0  0
   47.6099    8.2830   14.4216 H   0  0  0  0  0  0  0  0  0  0  0  0
   46.3481    9.4804   14.3182 H   0  0  0  0  0  0  0  0  0  0  0  0
   44.6391    9.4214   12.4667 H   0  0  0  0  0  0  0  0  0  0  0  0
   47.4992    6.2460   13.0581 H   0  0  0  0  0  0  0  0  0  0  0  0
   55.2773   14.8373   18.5008 H   0  0  0  0  0  0  0  0  0  0  0  0
   43.2560    7.9180   11.0931 H   0  0  0  0  0  0  0  0  0  0  0  0
   46.1252    4.7556   11.7061 H   0  0  0  0  0  0  0  0  0  0  0  0
   49.7927    9.6734   11.7049 H   0  0  0  0  0  0  0  0  0  0  0  0
   48.7089    8.3054   11.4561 H   0  0  0  0  0  0  0  0  0  0  0  0
   49.6434    8.4096   12.9479 H   0  0  0  0  0  0  0  0  0  0  0  0
   44.9144    3.9602    9.8104 H   0  0  0  0  0  0  0  0  0  0  0  0
   43.1712    3.6589    9.8301 H   0  0  0  0  0  0  0  0  0  0  0  0
   44.0507    3.6058   11.3642 H   0  0  0  0  0  0  0  0  0  0  0  0
   49.3710    9.9600   15.0024 H   0  0  0  0  0  0  0  0  0  0  0  0
   48.4610    9.0272   14.2048 H   0  0  0  0  0  0  0  0  0  0  0  0
  2 10  1  0
  3 12  1  0
  4 19  1  0
  4 26  1  0
  5 22  2  0
  6  9  1  0
  6 22  1  0
  7 15  1  0
  7 17  1  0
  8 11  2  0
  8 12  1  0
  8 13  1  0
  9 10  2  0
  9 11  1  0
 10 14  1  0
 12 15  1  0
 13 14  2  0
 16 18  1  0
 16 20  2  0
 16 21  1  0
 17 18  1  0
 17 25  1  0
 19 23  2  0
 19 24  1  0
 20 23  1  0
 21 24  2  0
 27 31  1  0
 28 32  1  0
 29 31  2  0
 30 32  2  0
 31 33  1  0
 32 34  1  0
 33 34  2  0
 35 43  1  0
 36 45  1  0
 37 52  1  0
 37 59  1  0
 38 55  2  0
 39 42  1  0
 39 55  1  0
 40 48  1  0
 40 50  1  0
 41 44  2  0
 41 45  1  0
 41 46  1  0
 42 43  2  0
 42 44  1  0
 43 47  1  0
 45 48  1  0
 46 47  2  0
 49 51  1  0
 49 53  2  0
 49 54  1  0
 50 51  1  0
 50 58  1  0
 52 56  2  0
 52 57  1  0
 53 56  1  0
 54 57  2  0
  1 61  1  0
  1 62  1  0
  2 63  1  0
  3 64  1  0
  6 65  1  0
  7 66  1  0
 11 67  1  0
 12 68  1  1
 13 69  1  0
 14 70  1  0
 15 71  1  0
 15 72  1  0
 17 73  1  1
 18 74  1  0
 18 75  1  0
 20 76  1  0
 21 77  1  0
 22 78  1  0
 23 79  1  0
 24 80  1  0
 25 81  1  0
 25 82  1  0
 25 83  1  0
 26 84  1  0
 26 85  1  0
 26 86  1  0
 27 87  1  0
 28 88  1  0
 33 89  1  0
 34 90  1  0
 35 91  1  0
 36 92  1  0
 39 93  1  0
 40 94  1  0
 44 95  1  0
 45 96  1  1
 46 97  1  0
 47 98  1  0
 48 99  1  0
 48100  1  0
 50101  1  1
 51102  1  0
 51103  1  0
 53104  1  0
 54105  1  0
 55106  1  0
 56107  1  0
 57108  1  0
 58109  1  0
 58110  1  0
 58111  1  0
 59112  1  0
 59113  1  0
 59114  1  0
 60115  1  0
 60116  1  0
M  END
> <Uni-Dock RESULT> 
ENERGY=   -5.547  LOWER_BOUND=    4.714  UPPER_BOUND=    8.681
INTER + INTRA:          -5.547
INTER:                  -5.547
INTRA:                   0.000
UNBOUND:                 0.000

$$$$

     RDKit          3D

116115  0  0  0  0  0  0  0  0999 V2000
   46.7157    9.1317   12.5972 O   0  0  0  0  0  0  0  0  0  0  0  0
   52.1864   10.1415   16.3490 O   0  0  0  0  0  0  0  0  0  0  0  0
   48.3384    6.8433   12.6616 O   0  0  0  0  0  0  0  0  0  0  0  0
   43.2844   14.1304   10.7087 O   0  0  0  0  0  0  0  0  0  0  0  0
   50.1778    5.5930   17.0010 O   0  0  0  0  0  0  0  0  0  0  0  0
   51.2311    7.6862   17.0058 N   0  0  0  0  0  0  0  0  0  0  0  0
   46.1883    8.1780   11.4411 N   0  0  0  0  0  0  0  0  0  0  0  0
   48.9918    8.6436   14.1276 C   0  0  0  0  0  0  0  0  0  0  0  0
   50.6160    8.3850   15.9459 C   0  0  0  0  0  0  0  0  0  0  0  0
   51.1191    9.6534   15.6427 C   0  0  0  0  0  0  0  0  0  0  0  0
   49.5590    7.8871   15.1835 C   0  0  0  0  0  0  0  0  0  0  0  0
   47.8529    8.0190   13.3369 C   0  0  1  0  0  0  0  0  0  0  0  0
   49.5080    9.9196   13.8674 C   0  0  0  0  0  0  0  0  0  0  0  0
   50.5717   10.4240   14.6189 C   0  0  0  0  0  0  0  0  0  0  0  0
   47.1612    8.9135   12.2729 C   0  0  0  0  0  0  0  0  0  0  0  0
   43.6522    9.9764   11.0212 C   0  0  0  0  0  0  0  0  0  0  0  0
   44.8831    8.0068   12.1039 C   0  0  1  0  0  0  0  0  0  0  0  0
   43.7517    8.4742   11.1596 C   0  0  0  0  0  0  0  0  0  0  0  0
   43.4671   12.7754   10.7459 C   0  0  0  0  0  0  0  0  0  0  0  0
   44.3761   10.6466   10.0287 C   0  0  0  0  0  0  0  0  0  0  0  0
   42.8371   10.7221   11.8801 C   0  0  0  0  0  0  0  0  0  0  0  0
   50.9783    6.4059   17.4375 C   0  0  0  0  0  0  0  0  0  0  0  0
   44.2845   12.0362    9.8921 C   0  0  0  0  0  0  0  0  0  0  0  0
   42.7537   12.1118   11.7449 C   0  0  0  0  0  0  0  0  0  0  0  0
   44.6677    6.5280   12.4454 C   0  0  0  0  0  0  0  0  0  0  0  0
   43.8861   14.8246    9.6262 C   0  0  0  0  0  0  0  0  0  0  0  0
   48.1004    8.3711   14.4963 O   0  0  0  0  0  0  0  0  0  0  0  0
   45.5988   10.6544   10.9473 O   0  0  0  0  0  0  0  0  0  0  0  0
   49.7254    9.4873   13.4383 O   0  0  0  0  0  0  0  0  0  0  0  0
   44.0059    9.4084   11.8985 O   0  0  0  0  0  0  0  0  0  0  0  0
   48.5479    9.1933   13.5376 C   0  0  0  0  0  0  0  0  0  0  0  0
   45.1654    9.7704   11.8577 C   0  0  0  0  0  0  0  0  0  0  0  0
   47.4951    9.6833   12.6466 C   0  0  0  0  0  0  0  0  0  0  0  0
   46.2143    9.3018   12.7639 C   0  0  0  0  0  0  0  0  0  0  0  0
   43.8863   15.1151    9.3554 O   0  0  0  0  0  0  0  0  0  0  0  0
   44.1493    8.8933   10.6588 O   0  0  0  0  0  0  0  0  0  0  0  0
   51.6885    5.6586   17.3253 O   0  0  0  0  0  0  0  0  0  0  0  0
   42.4855   14.8766    7.2980 O   0  0  0  0  0  0  0  0  0  0  0  0
   42.3562   12.7414    8.2043 N   0  0  0  0  0  0  0  0  0  0  0  0
   45.9340    8.1660   12.5967 N   0  0  0  0  0  0  0  0  0  0  0  0
   44.3387   11.2891   10.9778 C   0  0  0  0  0  0  0  0  0  0  0  0
   43.2834   12.7351    9.2711 C   0  0  0  0  0  0  0  0  0  0  0  0
   43.9633   13.8313    9.8081 C   0  0  0  0  0  0  0  0  0  0  0  0
   43.4849   11.4781    9.8732 C   0  0  0  0  0  0  0  0  0  0  0  0
   44.4749    9.9178   11.6151 C   0  0  2  0  0  0  0  0  0  0  0  0
   44.9709   12.4175   11.5104 C   0  0  0  0  0  0  0  0  0  0  0  0
   44.7852   13.6712   10.9271 C   0  0  0  0  0  0  0  0  0  0  0  0
   45.8802    9.5893   12.1915 C   0  0  0  0  0  0  0  0  0  0  0  0
   48.7744    7.7240   15.1515 C   0  0  0  0  0  0  0  0  0  0  0  0
   47.2554    7.7134   13.0956 C   0  0  2  0  0  0  0  0  0  0  0  0
   47.6832    8.4445   14.3912 C   0  0  0  0  0  0  0  0  0  0  0  0
   50.8021    6.3764   16.5693 C   0  0  0  0  0  0  0  0  0  0  0  0
   48.4588    6.6661   16.0160 C   0  0  0  0  0  0  0  0  0  0  0  0
   50.1141    8.0944   14.9972 C   0  0  0  0  0  0  0  0  0  0  0  0
   41.9844   13.7686    7.3793 C   0  0  0  0  0  0  0  0  0  0  0  0
   49.4659    5.9957   16.7145 C   0  0  0  0  0  0  0  0  0  0  0  0
   51.1207    7.4272   15.7038 C   0  0  0  0  0  0  0  0  0  0  0  0
   48.3321    7.7835   12.0091 C   0  0  0  0  0  0  0  0  0  0  0  0
   53.0408    6.0857   17.3126 C   0  0  0  0  0  0  0  0  0  0  0  0
   46.7102    9.1348   12.5930 O   0  0  0  0  0  0  0  0  0  0  0  0
   47.4849    9.3301   13.1509 H   0  0  0  0  0  0  0  0  0  0  0  0
   46.3974   10.0020   12.3164 H   0  0  0  0  0  0  0  0  0  0  0  0
   52.8370   10.4508   15.6849 H   0  0  0  0  0  0  0  0  0  0  0  0
   49.3085    6.8992   12.6344 H   0  0  0  0  0  0  0  0  0  0  0  0
   51.9528    8.2127   17.4849 H   0  0  0  0  0  0  0  0  0  0  0  0
   46.6152    7.2560   11.2662 H   0  0  0  0  0  0  0  0  0  0  0  0
   49.1432    6.9008   15.4000 H   0  0  0  0  0  0  0  0  0  0  0  0
   47.0914    7.6880   14.0529 H   0  0  0  0  0  0  0  0  0  0  0  0
   49.0935   10.5512   13.0819 H   0  0  0  0  0  0  0  0  0  0  0  0
   50.9510   11.4179   14.4086 H   0  0  0  0  0  0  0  0  0  0  0  0
   46.7068    9.8023   12.7269 H   0  0  0  0  0  0  0  0  0  0  0  0
   47.9194    9.2738   11.5695 H   0  0  0  0  0  0  0  0  0  0  0  0
   44.8251    8.5829   13.0381 H   0  0  0  0  0  0  0  0  0  0  0  0
   43.8658    8.0178   10.1656 H   0  0  0  0  0  0  0  0  0  0  0  0
   42.7864    8.1045   11.5295 H   0  0  0  0  0  0  0  0  0  0  0  0
   45.0214   10.0839    9.3523 H   0  0  0  0  0  0  0  0  0  0  0  0
   42.2559   10.2338   12.6578 H   0  0  0  0  0  0  0  0  0  0  0  0
   51.6358    6.1542   18.2872 H   0  0  0  0  0  0  0  0  0  0  0  0
   44.8732   12.5058    9.1140 H   0  0  0  0  0  0  0  0  0  0  0  0
   42.1189   12.6822   12.4184 H   0  0  0  0  0  0  0  0  0  0  0  0
   43.7108    6.3941   12.9592 H   0  0  0  0  0  0  0  0  0  0  0  0
   44.6599    5.9005   11.5485 H   0  0  0  0  0  0  0  0  0  0  0  0
   45.4526    6.1517   13.1077 H   0  0  0  0  0  0  0  0  0  0  0  0
   43.4867   14.4804    8.6630 H   0  0  0  0  0  0  0  0  0  0  0  0
   44.9803   14.7360    9.6537 H   0  0  0  0  0  0  0  0  0  0  0  0
   43.6385   15.8875    9.7282 H   0  0  0  0  0  0  0  0  0  0  0  0
   48.9048    8.1386   15.0052 H   0  0  0  0  0  0  0  0  0  0  0  0
   44.7940   10.8700   10.4327 H   0  0  0  0  0  0  0  0  0  0  0  0
   47.8316   10.3807   11.8855 H   0  0  0  0  0  0  0  0  0  0  0  0
   45.8776    8.6058   13.5276 H   0  0  0  0  0  0  0  0  0  0  0  0
   43.4479   15.1254    8.4775 H   0  0  0  0  0  0  0  0  0  0  0  0
   44.6179    8.0972   10.9884 H   0  0  0  0  0  0  0  0  0  0  0  0
   41.8983   11.8546    8.0295 H   0  0  0  0  0  0  0  0  0  0  0  0
   45.2486    8.0047   13.3376 H   0  0  0  0  0  0  0  0  0  0  0  0
   42.9636   10.6060    9.4756 H   0  0  0  0  0  0  0  0  0  0  0  0
   43.7307    9.8492   12.4177 H   0  0  0  0  0  0  0  0  0  0  0  0
   45.6028   12.3525   12.3943 H   0  0  0  0  0  0  0  0  0  0  0  0
   45.2795   14.5430   11.3543 H   0  0  0  0  0  0  0  0  0  0  0  0
   46.0976   10.2356   13.0504 H   0  0  0  0  0  0  0  0  0  0  0  0
   46.6235    9.7765   11.4116 H   0  0  0  0  0  0  0  0  0  0  0  0
   47.1241    6.6486   13.3258 H   0  0  0  0  0  0  0  0  0  0  0  0
   48.0020    9.4658   14.1660 H   0  0  0  0  0  0  0  0  0  0  0  0
   46.8227    8.5489   15.0631 H   0  0  0  0  0  0  0  0  0  0  0  0
   47.4263    6.3609   16.1588 H   0  0  0  0  0  0  0  0  0  0  0  0
   50.3862    8.9070   14.3232 H   0  0  0  0  0  0  0  0  0  0  0  0
   41.1410   13.4661    6.7288 H   0  0  0  0  0  0  0  0  0  0  0  0
   49.2038    5.1850   17.3907 H   0  0  0  0  0  0  0  0  0  0  0  0
   52.1443    7.7489   15.5499 H   0  0  0  0  0  0  0  0  0  0  0  0
   47.9751    7.3502   11.0673 H   0  0  0  0  0  0  0  0  0  0  0  0
   49.2246    7.2203   12.3042 H   0  0  0  0  0  0  0  0  0  0  0  0
   48.6442    8.8147   11.8236 H   0  0  0  0  0  0  0  0  0  0  0  0
   53.4884    5.9359   16.3237 H   0  0  0  0  0  0  0  0  0  0  0  0
   53.5926    5.4638   18.0256 H   0  0  0  0  0  0  0  0  0  0  0  0
   53.1354    7.1292   17.6418 H   0  0  0  0  0  0  0  0  0  0  0  0
   46.4055   10.0140   12.3217 H   0  0  0  0  0  0  0  0  0  0  0  0
   47.4824    9.3150   13.1499 H   0  0  0  0  0  0  0  0  0  0  0  0
  2 10  1  0
  3 12  1  0
  4 19  1  0
  4 26  1  0
  5 22  2  0
  6  9  1  0
  6 22  1  0
  7 15  1  0
  7 17  1  0
  8 11  2  0
  8 12  1  0
  8 13  1  0
  9 10  2  0
  9 11  1  0
 10 14  1  0
 12 15  1  0
 13 14  2  0
 16 18  1  0
 16 20  2  0
 16 21  1  0
 17 18  1  0
 17 25  1  0
 19 23  2  0
 19 24  1  0
 20 23  1  0
 21 24  2  0
 27 31  1  0
 28 32  1  0
 29 31  2  0
 30 32  2  0
 31 33  1  0
 32 34  1  0
 33 34  2  0
 35 43  1  0
 36 45  1  0
 37 52  1  0
 37 59  1  0
 38 55  2  0
 39 42  1  0
 39 55  1  0
 40 48  1  0
 40 50  1  0
 41 44  2  0
 41 45  1  0
 41 46  1  0
 42 43  2  0
 42 44  1  0
 43 47  1  0
 45 48  1  0
 46 47  2  0
 49 51  1  0
 49 53  2  0
 49 54  1  0
 50 51  1  0
 50 58  1  0
 52 56  2  0
 52 57  1  0
 53 56  1  0
 54 57  2  0
  1 61  1  0
  1 62  1  0
  2 63  1  0
  3 64  1  0
  6 65  1  0
  7 66  1  0
 11 67  1  0
 12 68  1  1
 13 69  1  0
 14 70  1  0
 15 71  1  0
 15 72  1  0
 17 73  1  1
 18 74  1  0
 18 75  1  0
 20 76  1  0
 21 77  1  0
 22 78  1  0
 23 79  1  0
 24 80  1  0
 25 81  1  0
 25 82  1  0
 25 83  1  0
 26 84  1  0
 26 85  1  0
 26 86  1  0
 27 87  1  0
 28 88  1  0
 33 89  1  0
 34 90  1  0
 35 91  1  0
 36 92  1  0
 39 93  1  0
 40 94  1  0
 44 95  1  0
 45 96  1  1
 46 97  1  0
 47 98  1  0
 48 99  1  0
 48100  1  0
 50101  1  1
 51102  1  0
 51103  1  0
 53104  1  0
 54105  1  0
 55106  1  0
 56107  1  0
 57108  1  0
 58109  1  0
 58110  1  0
 58111  1  0
 59112  1  0
 59113  1  0
 59114  1  0
 60115  1  0
 60116  1  0
M  END
> <Uni-Dock RESULT> 
ENERGY=   -5.448  LOWER_BOUND=    2.559  UPPER_BOUND=    6.712
INTER + INTRA:          -5.448
INTER:                  -5.448
INTRA:                   0.000
UNBOUND:                 0.000

$$$$

     RDKit          3D

116115  0  0  0  0  0  0  0  0999 V2000
   46.4860   12.0014   11.3614 O   0  0  0  0  0  0  0  0  0  0  0  0
   51.0955    7.1265   11.4715 O   0  0  0  0  0  0  0  0  0  0  0  0
   48.8599   12.8769   12.5750 O   0  0  0  0  0  0  0  0  0  0  0  0
   40.4284   10.5154   10.1684 O   0  0  0  0  0  0  0  0  0  0  0  0
   53.0272   11.6228   10.3755 O   0  0  0  0  0  0  0  0  0  0  0  0
   52.3776    9.3968   10.7134 N   0  0  0  0  0  0  0  0  0  0  0  0
   46.1344   13.3648   12.0977 N   0  0  0  0  0  0  0  0  0  0  0  0
   48.9382   10.6936   11.5532 C   0  0  0  0  0  0  0  0  0  0  0  0
   51.0239    9.4868   11.1000 C   0  0  0  0  0  0  0  0  0  0  0  0
   50.3866    8.2986   11.4686 C   0  0  0  0  0  0  0  0  0  0  0  0
   50.2967   10.6765   11.1492 C   0  0  0  0  0  0  0  0  0  0  0  0
   48.2249   12.0358   11.5934 C   0  0  1  0  0  0  0  0  0  0  0  0
   48.3272    9.4800   11.8941 C   0  0  0  0  0  0  0  0  0  0  0  0
   49.0484    8.2846   11.8568 C   0  0  0  0  0  0  0  0  0  0  0  0
   46.7054   12.0161   11.9118 C   0  0  0  0  0  0  0  0  0  0  0  0
   43.3315   13.4794   10.6932 C   0  0  0  0  0  0  0  0  0  0  0  0
   45.8292   14.0374   10.8224 C   0  0  1  0  0  0  0  0  0  0  0  0
   44.3752   14.5627   10.8431 C   0  0  0  0  0  0  0  0  0  0  0  0
   41.3773   11.4655   10.4281 C   0  0  0  0  0  0  0  0  0  0  0  0
   42.8162   12.8302   11.8208 C   0  0  0  0  0  0  0  0  0  0  0  0
   42.8626   13.1068    9.4285 C   0  0  0  0  0  0  0  0  0  0  0  0
   53.2378   10.4196   10.3920 C   0  0  0  0  0  0  0  0  0  0  0  0
   41.8462   11.8302   11.6894 C   0  0  0  0  0  0  0  0  0  0  0  0
   41.8982   12.1018    9.3007 C   0  0  0  0  0  0  0  0  0  0  0  0
   46.7833   15.2202   10.6214 C   0  0  0  0  0  0  0  0  0  0  0  0
   39.7786    9.9403   11.2921 C   0  0  0  0  0  0  0  0  0  0  0  0
   48.7791   11.2983   10.7698 O   0  0  0  0  0  0  0  0  0  0  0  0
   44.0216   11.8891   11.8108 O   0  0  0  0  0  0  0  0  0  0  0  0
   48.4863    9.8183   12.4220 O   0  0  0  0  0  0  0  0  0  0  0  0
   44.3545   13.4830   10.2800 O   0  0  0  0  0  0  0  0  0  0  0  0
   48.0278   10.6740   11.6869 C   0  0  0  0  0  0  0  0  0  0  0  0
   44.7927   12.5675   10.9488 C   0  0  0  0  0  0  0  0  0  0  0  0
   46.6348   11.1231   11.7086 C   0  0  0  0  0  0  0  0  0  0  0  0
   46.1785   12.0996   10.9099 C   0  0  0  0  0  0  0  0  0  0  0  0
   39.4571    9.7884   11.4688 O   0  0  0  0  0  0  0  0  0  0  0  0
   44.0851   14.1538   11.4203 O   0  0  0  0  0  0  0  0  0  0  0  0
   54.0471   10.6428   11.0009 O   0  0  0  0  0  0  0  0  0  0  0  0
   37.6756   11.3276   12.3108 O   0  0  0  0  0  0  0  0  0  0  0  0
   39.3816   12.8192   11.7991 N   0  0  0  0  0  0  0  0  0  0  0  0
   46.6133   13.1920   11.0296 N   0  0  0  0  0  0  0  0  0  0  0  0
   42.9143   12.0820   10.9574 C   0  0  0  0  0  0  0  0  0  0  0  0
   40.5020   12.0114   11.4986 C   0  0  0  0  0  0  0  0  0  0  0  0
   40.5241   10.6251   11.3260 C   0  0  0  0  0  0  0  0  0  0  0  0
   41.7059   12.7164   11.3069 C   0  0  0  0  0  0  0  0  0  0  0  0
   44.1682   12.9029   10.7143 C   0  0  2  0  0  0  0  0  0  0  0  0
   42.8865   10.6981   10.7558 C   0  0  0  0  0  0  0  0  0  0  0  0
   41.7039    9.9817   10.9424 C   0  0  0  0  0  0  0  0  0  0  0  0
   45.5008   12.2197   11.1296 C   0  0  0  0  0  0  0  0  0  0  0  0
   49.9186   11.2484   10.7332 C   0  0  0  0  0  0  0  0  0  0  0  0
   47.9303   12.6742   11.4735 C   0  0  2  0  0  0  0  0  0  0  0  0
   48.4336   11.5016   10.5972 C   0  0  0  0  0  0  0  0  0  0  0  0
   52.6861   10.7833   10.9829 C   0  0  0  0  0  0  0  0  0  0  0  0
   50.8395   12.0107   10.0005 C   0  0  0  0  0  0  0  0  0  0  0  0
   50.3963   10.2583   11.5975 C   0  0  0  0  0  0  0  0  0  0  0  0
   38.0976   12.4511   12.0985 C   0  0  0  0  0  0  0  0  0  0  0  0
   52.2117   11.7821   10.1292 C   0  0  0  0  0  0  0  0  0  0  0  0
   51.7707   10.0252   11.7190 C   0  0  0  0  0  0  0  0  0  0  0  0
   47.9354   12.3260   12.9646 C   0  0  0  0  0  0  0  0  0  0  0  0
   54.5739    9.5616   11.7524 C   0  0  0  0  0  0  0  0  0  0  0  0
   46.4786   12.0032   11.3611 O   0  0  0  0  0  0  0  0  0  0  0  0
   47.1140   11.2644   11.3485 H   0  0  0  0  0  0  0  0  0  0  0  0
   45.6207   11.5745   11.2804 H   0  0  0  0  0  0  0  0  0  0  0  0
   50.9325    6.7091   12.3427 H   0  0  0  0  0  0  0  0  0  0  0  0
   49.3800   12.3026   13.1621 H   0  0  0  0  0  0  0  0  0  0  0  0
   52.7386    8.4499   10.6879 H   0  0  0  0  0  0  0  0  0  0  0  0
   46.8499   13.8994   12.6126 H   0  0  0  0  0  0  0  0  0  0  0  0
   50.7675   11.6195   10.8634 H   0  0  0  0  0  0  0  0  0  0  0  0
   48.3638   12.5173   10.6183 H   0  0  0  0  0  0  0  0  0  0  0  0
   47.2792    9.4346   12.1899 H   0  0  0  0  0  0  0  0  0  0  0  0
   48.5550    7.3541   12.1150 H   0  0  0  0  0  0  0  0  0  0  0  0
   46.1438   11.4446   11.1632 H   0  0  0  0  0  0  0  0  0  0  0  0
   46.5534   11.5100   12.8711 H   0  0  0  0  0  0  0  0  0  0  0  0
   45.9474   13.3568    9.9676 H   0  0  0  0  0  0  0  0  0  0  0  0
   44.1851   15.1352   11.7626 H   0  0  0  0  0  0  0  0  0  0  0  0
   44.2323   15.2843   10.0281 H   0  0  0  0  0  0  0  0  0  0  0  0
   43.1724   13.1026   12.8156 H   0  0  0  0  0  0  0  0  0  0  0  0
   43.2359   13.5943    8.5318 H   0  0  0  0  0  0  0  0  0  0  0  0
   54.2323   10.0146   10.1379 H   0  0  0  0  0  0  0  0  0  0  0  0
   41.4886   11.3533   12.5933 H   0  0  0  0  0  0  0  0  0  0  0  0
   41.5419   11.8185    8.3134 H   0  0  0  0  0  0  0  0  0  0  0  0
   46.5795   15.7122    9.6653 H   0  0  0  0  0  0  0  0  0  0  0  0
   46.6775   15.9672   11.4147 H   0  0  0  0  0  0  0  0  0  0  0  0
   47.8274   14.8946   10.6084 H   0  0  0  0  0  0  0  0  0  0  0  0
   39.2359   10.7011   11.8689 H   0  0  0  0  0  0  0  0  0  0  0  0
   40.4885    9.3952   11.9284 H   0  0  0  0  0  0  0  0  0  0  0  0
   39.0435    9.2162   10.9224 H   0  0  0  0  0  0  0  0  0  0  0  0
   49.6650   10.8921   10.8710 H   0  0  0  0  0  0  0  0  0  0  0  0
   43.1427   12.3104   11.7162 H   0  0  0  0  0  0  0  0  0  0  0  0
   46.0003   10.6028   12.4196 H   0  0  0  0  0  0  0  0  0  0  0  0
   46.8135   12.6182   10.1965 H   0  0  0  0  0  0  0  0  0  0  0  0
   38.7223   10.2690   11.9072 H   0  0  0  0  0  0  0  0  0  0  0  0
   45.0197   14.4256   11.5414 H   0  0  0  0  0  0  0  0  0  0  0  0
   39.5572   13.8170   11.7866 H   0  0  0  0  0  0  0  0  0  0  0  0
   46.7073   13.4913   10.0568 H   0  0  0  0  0  0  0  0  0  0  0  0
   41.7157   13.8001   11.4323 H   0  0  0  0  0  0  0  0  0  0  0  0
   44.2046   13.1449    9.6453 H   0  0  0  0  0  0  0  0  0  0  0  0
   43.7711   10.1514   10.4342 H   0  0  0  0  0  0  0  0  0  0  0  0
   41.6944    8.9048   10.7776 H   0  0  0  0  0  0  0  0  0  0  0  0
   45.6975   11.3524   10.4879 H   0  0  0  0  0  0  0  0  0  0  0  0
   45.4041   11.8789   12.1641 H   0  0  0  0  0  0  0  0  0  0  0  0
   48.6229   13.5171   11.3554 H   0  0  0  0  0  0  0  0  0  0  0  0
   47.8800   10.5874   10.8280 H   0  0  0  0  0  0  0  0  0  0  0  0
   48.2267   11.7091    9.5404 H   0  0  0  0  0  0  0  0  0  0  0  0
   50.4962   12.7826    9.3180 H   0  0  0  0  0  0  0  0  0  0  0  0
   49.7010    9.6590   12.1857 H   0  0  0  0  0  0  0  0  0  0  0  0
   37.4372   13.3379   12.1586 H   0  0  0  0  0  0  0  0  0  0  0  0
   52.9130   12.3737    9.5448 H   0  0  0  0  0  0  0  0  0  0  0  0
   52.0928    9.2484   12.4029 H   0  0  0  0  0  0  0  0  0  0  0  0
   47.4831   13.1270   13.5613 H   0  0  0  0  0  0  0  0  0  0  0  0
   48.9587   12.1899   13.3323 H   0  0  0  0  0  0  0  0  0  0  0  0
   47.3933   11.3967   13.1585 H   0  0  0  0  0  0  0  0  0  0  0  0
   54.3960    9.7073   12.8237 H   0  0  0  0  0  0  0  0  0  0  0  0
   55.6576    9.5435   11.5942 H   0  0  0  0  0  0  0  0  0  0  0  0
   54.1733    8.5993   11.4065 H   0  0  0  0  0  0  0  0  0  0  0  0
   45.6210   11.5591   11.2793 H   0  0  0  0  0  0  0  0  0  0  0  0
   47.1211   11.2780   11.3498 H   0  0  0  0  0  0  0  0  0  0  0  0
  2 10  1  0
  3 12  1  0
  4 19  1  0
  4 26  1  0
  5 22  2  0
  6  9  1  0
  6 22  1  0
  7 15  1  0
  7 17  1  0
  8 11  2  0
  8 12  1  0
  8 13  1  0
  9 10  2  0
  9 11  1  0
 10 14  1  0
 12 15  1  0
 13 14  2  0
 16 18  1  0
 16 20  2  0
 16 21  1  0
 17 18  1  0
 17 25  1  0
 19 23  2  0
 19 24  1  0
 20 23  1  0
 21 24  2  0
 27 31  1  0
 28 32  1  0
 29 31  2  0
 30 32  2  0
 31 33  1  0
 32 34  1  0
 33 34  2  0
 35 43  1  0
 36 45  1  0
 37 52  1  0
 37 59  1  0
 38 55  2  0
 39 42  1  0
 39 55  1  0
 40 48  1  0
 40 50  1  0
 41 44  2  0
 41 45  1  0
 41 46  1  0
 42 43  2  0
 42 44  1  0
 43 47  1  0
 45 48  1  0
 46 47  2  0
 49 51  1  0
 49 53  2  0
 49 54  1  0
 50 51  1  0
 50 58  1  0
 52 56  2  0
 52 57  1  0
 53 56  1  0
 54 57  2  0
  1 61  1  0
  1 62  1  0
  2 63  1  0
  3 64  1  0
  6 65  1  0
  7 66  1  0
 11 67  1  0
 12 68  1  1
 13 69  1  0
 14 70  1  0
 15 71  1  0
 15 72  1  0
 17 73  1  1
 18 74  1  0
 18 75  1  0
 20 76  1  0
 21 77  1  0
 22 78  1  0
 23 79  1  0
 24 80  1  0
 25 81  1  0
 25 82  1  0
 25 83  1  0
 26 84  1  0
 26 85  1  0
 26 86  1  0
 27 87  1  0
 28 88  1  0
 33 89  1  0
 34 90  1  0
 35 91  1  0
 36 92  1  0
 39 93  1  0
 40 94  1  0
 44 95  1  0
 45 96  1  1
 46 97  1  0
 47 98  1  0
 48 99  1  0
 48100  1  0
 50101  1  1
 51102  1  0
 51103  1  0
 53104  1  0
 54105  1  0
 55106  1  0
 56107  1  0
 57108  1  0
 58109  1  0
 58110  1  0
 58111  1  0
 59112  1  0
 59113  1  0
 59114  1  0
 60115  1  0
 60116  1  0
M  END
> <Uni-Dock RESULT> 
ENERGY=   -5.406  LOWER_BOUND=    6.394  UPPER_BOUND=    8.862
INTER + INTRA:          -5.406
INTER:                  -5.406
INTRA:                   0.000
UNBOUND:                 0.000

$$$$

     RDKit          3D

116115  0  0  0  0  0  0  0  0999 V2000
   48.9812   10.9289   19.0130 O   0  0  0  0  0  0  0  0  0  0  0  0
   51.7050    5.1118   17.0721 O   0  0  0  0  0  0  0  0  0  0  0  0
   47.2333    9.4945   17.3511 O   0  0  0  0  0  0  0  0  0  0  0  0
   52.7087   15.4116   21.5304 O   0  0  0  0  0  0  0  0  0  0  0  0
   46.8374    4.7110   18.2101 O   0  0  0  0  0  0  0  0  0  0  0  0
   49.1338    4.5784   17.7631 N   0  0  0  0  0  0  0  0  0  0  0  0
   47.8418   11.9475   18.5786 N   0  0  0  0  0  0  0  0  0  0  0  0
   49.2409    8.3383   18.0218 C   0  0  0  0  0  0  0  0  0  0  0  0
   49.5627    5.9223   17.7560 C   0  0  0  0  0  0  0  0  0  0  0  0
   50.8961    6.1634   17.4126 C   0  0  0  0  0  0  0  0  0  0  0  0
   48.7433    7.0116   18.0537 C   0  0  0  0  0  0  0  0  0  0  0  0
   48.2757    9.4680   18.3445 C   0  0  1  0  0  0  0  0  0  0  0  0
   50.5881    8.5391   17.6947 C   0  0  0  0  0  0  0  0  0  0  0  0
   51.4148    7.4564   17.3864 C   0  0  0  0  0  0  0  0  0  0  0  0
   48.8710   10.8994   18.4313 C   0  0  0  0  0  0  0  0  0  0  0  0
   48.8453   14.0651   20.6645 C   0  0  0  0  0  0  0  0  0  0  0  0
   47.3670   12.0918   19.9664 C   0  0  1  0  0  0  0  0  0  0  0  0
   47.4408   13.5762   20.3926 C   0  0  0  0  0  0  0  0  0  0  0  0
   51.4612   14.9903   21.1605 C   0  0  0  0  0  0  0  0  0  0  0  0
   49.6172   14.6134   19.6339 C   0  0  0  0  0  0  0  0  0  0  0  0
   49.3977   13.9790   21.9473 C   0  0  0  0  0  0  0  0  0  0  0  0
   47.8664    4.0935   17.9817 C   0  0  0  0  0  0  0  0  0  0  0  0
   50.9160   15.0725   19.8800 C   0  0  0  0  0  0  0  0  0  0  0  0
   50.6989   14.4325   22.1877 C   0  0  0  0  0  0  0  0  0  0  0  0
   45.9130   11.6166   20.0665 C   0  0  0  0  0  0  0  0  0  0  0  0
   53.4641   16.1047   20.5482 C   0  0  0  0  0  0  0  0  0  0  0  0
   48.7615    8.4713   18.8920 O   0  0  0  0  0  0  0  0  0  0  0  0
   50.0225   13.2018   19.2073 O   0  0  0  0  0  0  0  0  0  0  0  0
   50.2030    8.6735   17.1928 O   0  0  0  0  0  0  0  0  0  0  0  0
   48.4578   13.0404   20.7950 O   0  0  0  0  0  0  0  0  0  0  0  0
   49.6061    9.1766   18.1273 C   0  0  0  0  0  0  0  0  0  0  0  0
   49.1192   12.5145   19.9212 C   0  0  0  0  0  0  0  0  0  0  0  0
   49.7268   10.5796   18.5269 C   0  0  0  0  0  0  0  0  0  0  0  0
   49.0189   11.1060   19.5376 C   0  0  0  0  0  0  0  0  0  0  0  0
   53.7239   16.3858   20.4425 O   0  0  0  0  0  0  0  0  0  0  0  0
   47.9168   13.8524   19.8619 O   0  0  0  0  0  0  0  0  0  0  0  0
   47.3356    3.6338   17.2186 O   0  0  0  0  0  0  0  0  0  0  0  0
   52.9697   18.7654   20.3011 O   0  0  0  0  0  0  0  0  0  0  0  0
   50.9486   17.6459   20.5440 N   0  0  0  0  0  0  0  0  0  0  0  0
   47.8410   11.1511   19.4538 N   0  0  0  0  0  0  0  0  0  0  0  0
   50.2894   14.0053   20.3364 C   0  0  0  0  0  0  0  0  0  0  0  0
   51.2700   16.2737   20.4349 C   0  0  0  0  0  0  0  0  0  0  0  0
   52.5447   15.7021   20.4123 C   0  0  0  0  0  0  0  0  0  0  0  0
   50.1607   15.4068   20.3987 C   0  0  0  0  0  0  0  0  0  0  0  0
   49.0551   13.1212   20.3516 C   0  0  2  0  0  0  0  0  0  0  0  0
   51.5817   13.4703   20.3548 C   0  0  0  0  0  0  0  0  0  0  0  0
   52.6933   14.3127   20.3890 C   0  0  0  0  0  0  0  0  0  0  0  0
   49.1638   11.8135   19.5189 C   0  0  0  0  0  0  0  0  0  0  0  0
   48.3703    7.4331   18.6249 C   0  0  0  0  0  0  0  0  0  0  0  0
   47.8025    9.9254   18.6194 C   0  0  2  0  0  0  0  0  0  0  0  0
   48.7107    8.8010   19.1734 C   0  0  0  0  0  0  0  0  0  0  0  0
   47.7296    4.8852   17.6072 C   0  0  0  0  0  0  0  0  0  0  0  0
   47.3291    6.6809   19.1873 C   0  0  0  0  0  0  0  0  0  0  0  0
   49.0809    6.9018   17.5440 C   0  0  0  0  0  0  0  0  0  0  0  0
   51.7753   18.7369   20.5422 C   0  0  0  0  0  0  0  0  0  0  0  0
   47.0094    5.4197   18.6782 C   0  0  0  0  0  0  0  0  0  0  0  0
   48.7648    5.6351   17.0407 C   0  0  0  0  0  0  0  0  0  0  0  0
   48.0884   10.2270   17.1457 C   0  0  0  0  0  0  0  0  0  0  0  0
   48.1139    2.9934   16.2209 C   0  0  0  0  0  0  0  0  0  0  0  0
   48.9824   10.9360   19.0154 O   0  0  0  0  0  0  0  0  0  0  0  0
   49.4201   10.1019   18.7657 H   0  0  0  0  0  0  0  0  0  0  0  0
   49.7098   11.5174   19.2589 H   0  0  0  0  0  0  0  0  0  0  0  0
   52.1334    5.3575   16.2259 H   0  0  0  0  0  0  0  0  0  0  0  0
   47.5501    8.9960   16.5790 H   0  0  0  0  0  0  0  0  0  0  0  0
   49.8694    3.9082   17.5695 H   0  0  0  0  0  0  0  0  0  0  0  0
   47.0617   11.6564   17.9706 H   0  0  0  0  0  0  0  0  0  0  0  0
   47.6985    6.8531   18.3289 H   0  0  0  0  0  0  0  0  0  0  0  0
   47.7997    9.2367   19.3047 H   0  0  0  0  0  0  0  0  0  0  0  0
   51.0264    9.5368   17.6775 H   0  0  0  0  0  0  0  0  0  0  0  0
   52.4575    7.6315   17.1451 H   0  0  0  0  0  0  0  0  0  0  0  0
   49.6311   10.9730   19.2183 H   0  0  0  0  0  0  0  0  0  0  0  0
   49.3750   11.1287   17.4865 H   0  0  0  0  0  0  0  0  0  0  0  0
   47.9688   11.4928   20.6642 H   0  0  0  0  0  0  0  0  0  0  0  0
   46.9650   14.2184   19.6373 H   0  0  0  0  0  0  0  0  0  0  0  0
   46.8481   13.7279   21.3042 H   0  0  0  0  0  0  0  0  0  0  0  0
   49.2067   14.6847   18.6255 H   0  0  0  0  0  0  0  0  0  0  0  0
   48.8244   13.5650   22.7724 H   0  0  0  0  0  0  0  0  0  0  0  0
   47.8634    2.9922   17.9138 H   0  0  0  0  0  0  0  0  0  0  0  0
   51.4734   15.4786   19.0452 H   0  0  0  0  0  0  0  0  0  0  0  0
   51.1195   14.3594   23.1875 H   0  0  0  0  0  0  0  0  0  0  0  0
   45.5588   11.6982   21.0987 H   0  0  0  0  0  0  0  0  0  0  0  0
   45.2466   12.2107   19.4330 H   0  0  0  0  0  0  0  0  0  0  0  0
   45.8124   10.5699   19.7654 H   0  0  0  0  0  0  0  0  0  0  0  0
   52.9578   17.0282   20.2370 H   0  0  0  0  0  0  0  0  0  0  0  0
   53.6798   15.4628   19.6837 H   0  0  0  0  0  0  0  0  0  0  0  0
   54.4232   16.3866   20.9975 H   0  0  0  0  0  0  0  0  0  0  0  0
   48.7935    7.5687   18.5121 H   0  0  0  0  0  0  0  0  0  0  0  0
   49.9738   14.1056   19.5811 H   0  0  0  0  0  0  0  0  0  0  0  0
   50.4350   11.1594   17.9428 H   0  0  0  0  0  0  0  0  0  0  0  0
   48.3122   10.5245   20.1236 H   0  0  0  0  0  0  0  0  0  0  0  0
   53.5531   17.3378   20.2767 H   0  0  0  0  0  0  0  0  0  0  0  0
   47.3039   13.1580   19.5393 H   0  0  0  0  0  0  0  0  0  0  0  0
   49.9605   17.8480   20.6414 H   0  0  0  0  0  0  0  0  0  0  0  0
   47.5504   10.8942   20.3994 H   0  0  0  0  0  0  0  0  0  0  0  0
   49.1540   15.8269   20.4185 H   0  0  0  0  0  0  0  0  0  0  0  0
   48.8417   12.8668   21.3967 H   0  0  0  0  0  0  0  0  0  0  0  0
   51.7532   12.3954   20.3613 H   0  0  0  0  0  0  0  0  0  0  0  0
   53.6945   13.8834   20.4077 H   0  0  0  0  0  0  0  0  0  0  0  0
   49.9029   11.1392   19.9680 H   0  0  0  0  0  0  0  0  0  0  0  0
   49.4923   12.0756   18.5095 H   0  0  0  0  0  0  0  0  0  0  0  0
   46.7609    9.5828   18.6635 H   0  0  0  0  0  0  0  0  0  0  0  0
   49.7620    9.0273   18.9762 H   0  0  0  0  0  0  0  0  0  0  0  0
   48.6224    8.7531   20.2655 H   0  0  0  0  0  0  0  0  0  0  0  0
   46.7640    7.0668   20.0307 H   0  0  0  0  0  0  0  0  0  0  0  0
   49.8882    7.4713   17.0829 H   0  0  0  0  0  0  0  0  0  0  0  0
   51.2096   19.6605   20.7724 H   0  0  0  0  0  0  0  0  0  0  0  0
   46.2070    4.8433   19.1331 H   0  0  0  0  0  0  0  0  0  0  0  0
   49.3424    5.2666   16.2008 H   0  0  0  0  0  0  0  0  0  0  0  0
   47.5098   11.0907   16.7973 H   0  0  0  0  0  0  0  0  0  0  0  0
   47.8123    9.3777   16.5106 H   0  0  0  0  0  0  0  0  0  0  0  0
   49.1502   10.4270   16.9788 H   0  0  0  0  0  0  0  0  0  0  0  0
   48.0239    3.5142   15.2611 H   0  0  0  0  0  0  0  0  0  0  0  0
   47.7175    1.9809   16.0889 H   0  0  0  0  0  0  0  0  0  0  0  0
   49.1638    2.8995   16.5294 H   0  0  0  0  0  0  0  0  0  0  0  0
   49.7238   11.5112   19.2577 H   0  0  0  0  0  0  0  0  0  0  0  0
   49.4049   10.1009   18.7643 H   0  0  0  0  0  0  0  0  0  0  0  0
  2 10  1  0
  3 12  1  0
  4 19  1  0
  4 26  1  0
  5 22  2  0
  6  9  1  0
  6 22  1  0
  7 15  1  0
  7 17  1  0
  8 11  2  0
  8 12  1  0
  8 13  1  0
  9 10  2  0
  9 11  1  0
 10 14  1  0
 12 15  1  0
 13 14  2  0
 16 18  1  0
 16 20  2  0
 16 21  1  0
 17 18  1  0
 17 25  1  0
 19 23  2  0
 19 24  1  0
 20 23  1  0
 21 24  2  0
 27 31  1  0
 28 32  1  0
 29 31  2  0
 30 32  2  0
 31 33  1  0
 32 34  1  0
 33 34  2  0
 35 43  1  0
 36 45  1  0
 37 52  1  0
 37 59  1  0
 38 55  2  0
 39 42  1  0
 39 55  1  0
 40 48  1  0
 40 50  1  0
 41 44  2  0
 41 45  1  0
 41 46  1  0
 42 43  2  0
 42 44  1  0
 43 47  1  0
 45 48  1  0
 46 47  2  0
 49 51  1  0
 49 53  2  0
 49 54  1  0
 50 51  1  0
 50 58  1  0
 52 56  2  0
 52 57  1  0
 53 56  1  0
 54 57  2  0
  1 61  1  0
  1 62  1  0
  2 63  1  0
  3 64  1  0
  6 65  1  0
  7 66  1  0
 11 67  1  0
 12 68  1  1
 13 69  1  0
 14 70  1  0
 15 71  1  0
 15 72  1  0
 17 73  1  1
 18 74  1  0
 18 75  1  0
 20 76  1  0
 21 77  1  0
 22 78  1  0
 23 79  1  0
 24 80  1  0
 25 81  1  0
 25 82  1  0
 25 83  1  0
 26 84  1  0
 26 85  1  0
 26 86  1  0
 27 87  1  0
 28 88  1  0
 33 89  1  0
 34 90  1  0
 35 91  1  0
 36 92  1  0
 39 93  1  0
 40 94  1  0
 44 95  1  0
 45 96  1  1
 46 97  1  0
 47 98  1  0
 48 99  1  0
 48100  1  0
 50101  1  1
 51102  1  0
 51103  1  0
 53104  1  0
 54105  1  0
 55106  1  0
 56107  1  0
 57108  1  0
 58109  1  0
 58110  1  0
 58111  1  0
 59112  1  0
 59113  1  0
 59114  1  0
 60115  1  0
 60116  1  0
M  END
> <Uni-Dock RESULT> 
ENERGY=   -5.344  LOWER_BOUND=    5.279  UPPER_BOUND=    8.439
INTER + INTRA:          -5.344
INTER:                  -5.344
INTRA:                   0.000
UNBOUND:                 0.000

$$$$

     RDKit          3D

116115  0  0  0  0  0  0  0  0999 V2000
   50.0768    6.6198   16.6200 O   0  0  0  0  0  0  0  0  0  0  0  0
   50.5602   10.8595   11.4417 O   0  0  0  0  0  0  0  0  0  0  0  0
   48.0318    8.5401   16.6867 O   0  0  0  0  0  0  0  0  0  0  0  0
   55.0338    2.9283   18.0790 O   0  0  0  0  0  0  0  0  0  0  0  0
   45.8304    9.5327   12.4505 O   0  0  0  0  0  0  0  0  0  0  0  0
   47.9364   10.1983   11.6676 N   0  0  0  0  0  0  0  0  0  0  0  0
   49.4287    6.5313   18.0680 N   0  0  0  0  0  0  0  0  0  0  0  0
   49.4175    8.5402   14.7127 C   0  0  0  0  0  0  0  0  0  0  0  0
   48.8339    9.7319   12.6510 C   0  0  0  0  0  0  0  0  0  0  0  0
   50.1804   10.0745   12.4980 C   0  0  0  0  0  0  0  0  0  0  0  0
   48.4611    8.9710   13.7595 C   0  0  0  0  0  0  0  0  0  0  0  0
   48.9232    7.7280   15.8993 C   0  0  1  0  0  0  0  0  0  0  0  0
   50.7608    8.8844   14.5142 C   0  0  0  0  0  0  0  0  0  0  0  0
   51.1435    9.6531   13.4127 C   0  0  0  0  0  0  0  0  0  0  0  0
   50.0013    7.1567   16.8594 C   0  0  0  0  0  0  0  0  0  0  0  0
   51.0112    3.8949   18.6899 C   0  0  0  0  0  0  0  0  0  0  0  0
   48.9533    5.1568   17.8302 C   0  0  1  0  0  0  0  0  0  0  0  0
   49.5463    4.2066   18.8959 C   0  0  0  0  0  0  0  0  0  0  0  0
   53.7457    3.3184   18.3224 C   0  0  0  0  0  0  0  0  0  0  0  0
   51.9964    4.7037   19.2677 C   0  0  0  0  0  0  0  0  0  0  0  0
   51.4080    2.7956   17.9203 C   0  0  0  0  0  0  0  0  0  0  0  0
   46.5683   10.0689   11.6380 C   0  0  0  0  0  0  0  0  0  0  0  0
   53.3540    4.4177   19.0850 C   0  0  0  0  0  0  0  0  0  0  0  0
   52.7661    2.5172   17.7342 C   0  0  0  0  0  0  0  0  0  0  0  0
   47.4237    5.1164   17.9228 C   0  0  0  0  0  0  0  0  0  0  0  0
   56.0544    3.6360   18.7668 C   0  0  0  0  0  0  0  0  0  0  0  0
   48.9670    7.6460   14.6662 O   0  0  0  0  0  0  0  0  0  0  0  0
   51.8740    5.6690   18.0878 O   0  0  0  0  0  0  0  0  0  0  0  0
   50.4865    9.2612   14.9626 O   0  0  0  0  0  0  0  0  0  0  0  0
   50.2628    4.1300   17.9141 O   0  0  0  0  0  0  0  0  0  0  0  0
   50.0607    8.1567   15.2479 C   0  0  0  0  0  0  0  0  0  0  0  0
   50.7359    5.1930   17.5625 C   0  0  0  0  0  0  0  0  0  0  0  0
   50.6686    7.2662   16.2378 C   0  0  0  0  0  0  0  0  0  0  0  0
   50.1439    6.0727   16.5542 C   0  0  0  0  0  0  0  0  0  0  0  0
   56.4064    3.6495   18.9501 O   0  0  0  0  0  0  0  0  0  0  0  0
   50.1240    4.6324   19.1595 O   0  0  0  0  0  0  0  0  0  0  0  0
   45.9549   10.8993   11.7373 O   0  0  0  0  0  0  0  0  0  0  0  0
   56.6023    2.8082   21.2965 O   0  0  0  0  0  0  0  0  0  0  0  0
   54.2987    2.8310   20.9966 N   0  0  0  0  0  0  0  0  0  0  0  0
   49.0753    6.0284   17.0569 N   0  0  0  0  0  0  0  0  0  0  0  0
   52.3473    4.3477   18.2356 C   0  0  0  0  0  0  0  0  0  0  0  0
   54.0928    3.4815   19.7587 C   0  0  0  0  0  0  0  0  0  0  0  0
   55.0620    3.8327   18.8156 C   0  0  0  0  0  0  0  0  0  0  0  0
   52.7455    3.7461   19.4457 C   0  0  0  0  0  0  0  0  0  0  0  0
   50.8745    4.5604   17.9341 C   0  0  2  0  0  0  0  0  0  0  0  0
   53.3438    4.6487   17.3012 C   0  0  0  0  0  0  0  0  0  0  0  0
   54.6843    4.3956   17.5934 C   0  0  0  0  0  0  0  0  0  0  0  0
   50.5424    5.8338   17.1074 C   0  0  0  0  0  0  0  0  0  0  0  0
   48.2357    8.2518   14.0334 C   0  0  0  0  0  0  0  0  0  0  0  0
   48.6374    7.2591   16.3544 C   0  0  2  0  0  0  0  0  0  0  0  0
   49.0244    7.2570   14.8556 C   0  0  0  0  0  0  0  0  0  0  0  0
   46.7603   10.1006   12.5027 C   0  0  0  0  0  0  0  0  0  0  0  0
   46.9555    7.9278   13.5620 C   0  0  0  0  0  0  0  0  0  0  0  0
   48.7658    9.5119   13.7388 C   0  0  0  0  0  0  0  0  0  0  0  0
   55.4702    2.4911   21.6178 C   0  0  0  0  0  0  0  0  0  0  0  0
   46.2232    8.8475   12.8073 C   0  0  0  0  0  0  0  0  0  0  0  0
   48.0343   10.4288   12.9760 C   0  0  0  0  0  0  0  0  0  0  0  0
   49.1094    8.5266   17.0722 C   0  0  0  0  0  0  0  0  0  0  0  0
   46.5017   12.1302   11.2934 C   0  0  0  0  0  0  0  0  0  0  0  0
   50.0804    6.6149   16.6247 O   0  0  0  0  0  0  0  0  0  0  0  0
   50.1916    7.2007   15.8539 H   0  0  0  0  0  0  0  0  0  0  0  0
   50.9546    6.2342   16.7564 H   0  0  0  0  0  0  0  0  0  0  0  0
   51.1028   11.5831   11.8184 H   0  0  0  0  0  0  0  0  0  0  0  0
   48.1895    9.4686   16.4456 H   0  0  0  0  0  0  0  0  0  0  0  0
   48.3807   10.6965   10.9046 H   0  0  0  0  0  0  0  0  0  0  0  0
   48.6372    7.1326   18.3419 H   0  0  0  0  0  0  0  0  0  0  0  0
   47.4170    8.6853   13.9028 H   0  0  0  0  0  0  0  0  0  0  0  0
   48.3345    6.8897   15.5083 H   0  0  0  0  0  0  0  0  0  0  0  0
   51.5389    8.5598   15.2049 H   0  0  0  0  0  0  0  0  0  0  0  0
   52.1896    9.9011   13.2712 H   0  0  0  0  0  0  0  0  0  0  0  0
   50.6819    6.4716   16.3398 H   0  0  0  0  0  0  0  0  0  0  0  0
   50.6142    7.9841   17.2325 H   0  0  0  0  0  0  0  0  0  0  0  0
   49.2427    4.7953   16.8334 H   0  0  0  0  0  0  0  0  0  0  0  0
   49.3933    4.6157   19.9052 H   0  0  0  0  0  0  0  0  0  0  0  0
   48.9951    3.2571   18.8910 H   0  0  0  0  0  0  0  0  0  0  0  0
   51.7077    5.5685   19.8670 H   0  0  0  0  0  0  0  0  0  0  0  0
   50.6700    2.1425   17.4624 H   0  0  0  0  0  0  0  0  0  0  0  0
   46.1602   10.5499   10.7326 H   0  0  0  0  0  0  0  0  0  0  0  0
   54.0750    5.0813   19.5458 H   0  0  0  0  0  0  0  0  0  0  0  0
   53.0640    1.6617   17.1331 H   0  0  0  0  0  0  0  0  0  0  0  0
   47.0594    4.1036   17.7245 H   0  0  0  0  0  0  0  0  0  0  0  0
   47.0684    5.4147   18.9143 H   0  0  0  0  0  0  0  0  0  0  0  0
   46.9605    5.7825   17.1893 H   0  0  0  0  0  0  0  0  0  0  0  0
   55.9491    3.5266   19.8544 H   0  0  0  0  0  0  0  0  0  0  0  0
   56.0711    4.6950   18.4769 H   0  0  0  0  0  0  0  0  0  0  0  0
   57.0185    3.2002   18.4805 H   0  0  0  0  0  0  0  0  0  0  0  0
   48.6854    8.3417   14.0364 H   0  0  0  0  0  0  0  0  0  0  0  0
   52.1411    4.9770   18.7271 H   0  0  0  0  0  0  0  0  0  0  0  0
   51.5778    7.6462   16.6937 H   0  0  0  0  0  0  0  0  0  0  0  0
   49.2354    5.6917   16.0955 H   0  0  0  0  0  0  0  0  0  0  0  0
   56.6131    3.4251   19.8828 H   0  0  0  0  0  0  0  0  0  0  0  0
   49.3189    5.1390   18.9206 H   0  0  0  0  0  0  0  0  0  0  0  0
   53.4526    2.5769   21.4929 H   0  0  0  0  0  0  0  0  0  0  0  0
   48.6497    5.2296   16.5820 H   0  0  0  0  0  0  0  0  0  0  0  0
   51.9683    3.4790   20.1632 H   0  0  0  0  0  0  0  0  0  0  0  0
   50.5149    3.6760   17.3945 H   0  0  0  0  0  0  0  0  0  0  0  0
   53.1024    5.0666   16.3255 H   0  0  0  0  0  0  0  0  0  0  0  0
   55.4505    4.6303   16.8553 H   0  0  0  0  0  0  0  0  0  0  0  0
   50.9470    5.7422   16.0922 H   0  0  0  0  0  0  0  0  0  0  0  0
   51.0092    6.6926   17.5974 H   0  0  0  0  0  0  0  0  0  0  0  0
   47.5426    7.2563   16.4296 H   0  0  0  0  0  0  0  0  0  0  0  0
   50.0948    7.4458   14.7374 H   0  0  0  0  0  0  0  0  0  0  0  0
   48.8545    6.2619   14.4270 H   0  0  0  0  0  0  0  0  0  0  0  0
   46.5215    6.9545   13.7714 H   0  0  0  0  0  0  0  0  0  0  0  0
   49.7549    9.7915   14.1024 H   0  0  0  0  0  0  0  0  0  0  0  0
   55.2750    1.8780   22.5189 H   0  0  0  0  0  0  0  0  0  0  0  0
   45.2364    8.5767   12.4386 H   0  0  0  0  0  0  0  0  0  0  0  0
   48.4862   11.3934   12.7753 H   0  0  0  0  0  0  0  0  0  0  0  0
   48.9173    8.4677   18.1502 H   0  0  0  0  0  0  0  0  0  0  0  0
   48.5787    9.4096   16.6989 H   0  0  0  0  0  0  0  0  0  0  0  0
   50.1777    8.6983   16.9162 H   0  0  0  0  0  0  0  0  0  0  0  0
   46.6739   12.8079   12.1371 H   0  0  0  0  0  0  0  0  0  0  0  0
   45.7665   12.6015   10.6324 H   0  0  0  0  0  0  0  0  0  0  0  0
   47.4191   11.9749   10.7099 H   0  0  0  0  0  0  0  0  0  0  0  0
   50.9654    6.2388   16.7464 H   0  0  0  0  0  0  0  0  0  0  0  0
   50.1771    7.2010   15.8591 H   0  0  0  0  0  0  0  0  0  0  0  0
  2 10  1  0
  3 12  1  0
  4 19  1  0
  4 26  1  0
  5 22  2  0
  6  9  1  0
  6 22  1  0
  7 15  1  0
  7 17  1  0
  8 11  2  0
  8 12  1  0
  8 13  1  0
  9 10  2  0
  9 11  1  0
 10 14  1  0
 12 15  1  0
 13 14  2  0
 16 18  1  0
 16 20  2  0
 16 21  1  0
 17 18  1  0
 17 25  1  0
 19 23  2  0
 19 24  1  0
 20 23  1  0
 21 24  2  0
 27 31  1  0
 28 32  1  0
 29 31  2  0
 30 32  2  0
 31 33  1  0
 32 34  1  0
 33 34  2  0
 35 43  1  0
 36 45  1  0
 37 52  1  0
 37 59  1  0
 38 55  2  0
 39 42  1  0
 39 55  1  0
 40 48  1  0
 40 50  1  0
 41 44  2  0
 41 45  1  0
 41 46  1  0
 42 43  2  0
 42 44  1  0
 43 47  1  0
 45 48  1  0
 46 47  2  0
 49 51  1  0
 49 53  2  0
 49 54  1  0
 50 51  1  0
 50 58  1  0
 52 56  2  0
 52 57  1  0
 53 56  1  0
 54 57  2  0
  1 61  1  0
  1 62  1  0
  2 63  1  0
  3 64  1  0
  6 65  1  0
  7 66  1  0
 11 67  1  0
 12 68  1  1
 13 69  1  0
 14 70  1  0
 15 71  1  0
 15 72  1  0
 17 73  1  1
 18 74  1  0
 18 75  1  0
 20 76  1  0
 21 77  1  0
 22 78  1  0
 23 79  1  0
 24 80  1  0
 25 81  1  0
 25 82  1  0
 25 83  1  0
 26 84  1  0
 26 85  1  0
 26 86  1  0
 27 87  1  0
 28 88  1  0
 33 89  1  0
 34 90  1  0
 35 91  1  0
 36 92  1  0
 39 93  1  0
 40 94  1  0
 44 95  1  0
 45 96  1  1
 46 97  1  0
 47 98  1  0
 48 99  1  0
 48100  1  0
 50101  1  1
 51102  1  0
 51103  1  0
 53104  1  0
 54105  1  0
 55106  1  0
 56107  1  0
 57108  1  0
 58109  1  0
 58110  1  0
 58111  1  0
 59112  1  0
 59113  1  0
 59114  1  0
 60115  1  0
 60116  1  0
M  END
> <Uni-Dock RESULT> 
ENERGY=   -5.208  LOWER_BOUND=    1.505  UPPER_BOUND=    9.066
INTER + INTRA:          -5.208
INTER:                  -5.208
INTRA:                   0.000
UNBOUND:                 0.000

$$$$

     RDKit          3D

116115  0  0  0  0  0  0  0  0999 V2000
   48.6705    8.5499   15.5644 O   0  0  0  0  0  0  0  0  0  0  0  0
   49.2334    9.8036   22.1321 O   0  0  0  0  0  0  0  0  0  0  0  0
   49.7315    6.3410   16.9317 O   0  0  0  0  0  0  0  0  0  0  0  0
   47.7711   13.3872   11.5496 O   0  0  0  0  0  0  0  0  0  0  0  0
   47.6039    5.1620   21.1578 O   0  0  0  0  0  0  0  0  0  0  0  0
   48.2012    7.3030   21.8999 N   0  0  0  0  0  0  0  0  0  0  0  0
   49.2567    7.5769   14.4535 N   0  0  0  0  0  0  0  0  0  0  0  0
   48.9587    8.1644   18.3083 C   0  0  0  0  0  0  0  0  0  0  0  0
   48.6021    7.9760   20.7267 C   0  0  0  0  0  0  0  0  0  0  0  0
   49.1136    9.2681   20.8771 C   0  0  0  0  0  0  0  0  0  0  0  0
   48.5324    7.4314   19.4440 C   0  0  0  0  0  0  0  0  0  0  0  0
   48.8628    7.4896   16.9490 C   0  0  1  0  0  0  0  0  0  0  0  0
   49.4451    9.4646   18.4960 C   0  0  0  0  0  0  0  0  0  0  0  0
   49.5273   10.0160   19.7765 C   0  0  0  0  0  0  0  0  0  0  0  0
   49.2114    8.3544   15.7076 C   0  0  0  0  0  0  0  0  0  0  0  0
   47.9039    9.2542   12.1734 C   0  0  0  0  0  0  0  0  0  0  0  0
   47.9205    7.3411   13.8781 C   0  0  1  0  0  0  0  0  0  0  0  0
   47.9111    7.7579   12.3894 C   0  0  0  0  0  0  0  0  0  0  0  0
   47.9043   12.0424   11.7601 C   0  0  0  0  0  0  0  0  0  0  0  0
   49.1070    9.9622   12.0742 C   0  0  0  0  0  0  0  0  0  0  0  0
   46.6982    9.9568   12.0690 C   0  0  0  0  0  0  0  0  0  0  0  0
   47.7506    6.0103   22.0244 C   0  0  0  0  0  0  0  0  0  0  0  0
   49.1073   11.3464   11.8693 C   0  0  0  0  0  0  0  0  0  0  0  0
   46.7027   11.3415   11.8712 C   0  0  0  0  0  0  0  0  0  0  0  0
   47.5698    5.8523   13.9807 C   0  0  0  0  0  0  0  0  0  0  0  0
   48.9647   14.1138   11.2983 C   0  0  0  0  0  0  0  0  0  0  0  0
   48.1160    7.8483   17.8671 O   0  0  0  0  0  0  0  0  0  0  0  0
   49.1784   10.0244   13.6006 O   0  0  0  0  0  0  0  0  0  0  0  0
   49.9286    9.0449   18.4041 O   0  0  0  0  0  0  0  0  0  0  0  0
   47.4728    8.7001   13.0245 O   0  0  0  0  0  0  0  0  0  0  0  0
   49.1118    8.6948   17.5717 C   0  0  0  0  0  0  0  0  0  0  0  0
   48.2309    9.1171   13.8782 C   0  0  0  0  0  0  0  0  0  0  0  0
   49.1106    9.1378   16.1766 C   0  0  0  0  0  0  0  0  0  0  0  0
   48.2171    8.6952   15.2792 C   0  0  0  0  0  0  0  0  0  0  0  0
   49.1636   14.4050   11.1157 O   0  0  0  0  0  0  0  0  0  0  0  0
   48.5360    8.1975   12.3615 O   0  0  0  0  0  0  0  0  0  0  0  0
   48.3146    5.2981   22.5246 O   0  0  0  0  0  0  0  0  0  0  0  0
   49.8634   14.1085    8.7337 O   0  0  0  0  0  0  0  0  0  0  0  0
   49.1546   11.9659    9.2851 N   0  0  0  0  0  0  0  0  0  0  0  0
   48.2053    7.5481   14.9955 N   0  0  0  0  0  0  0  0  0  0  0  0
   48.3308   10.5983   12.6291 C   0  0  0  0  0  0  0  0  0  0  0  0
   48.9242   11.9994   10.6792 C   0  0  0  0  0  0  0  0  0  0  0  0
   48.9071   13.1245   11.5075 C   0  0  0  0  0  0  0  0  0  0  0  0
   48.6311   10.7509   11.2611 C   0  0  0  0  0  0  0  0  0  0  0  0
   47.9728    9.2324   13.1872 C   0  0  2  0  0  0  0  0  0  0  0  0
   48.2857   11.7534   13.4168 C   0  0  0  0  0  0  0  0  0  0  0  0
   48.5745   12.9992   12.8591 C   0  0  0  0  0  0  0  0  0  0  0  0
   48.4354    8.9689   14.6472 C   0  0  0  0  0  0  0  0  0  0  0  0
   48.0626    7.2313   18.8257 C   0  0  0  0  0  0  0  0  0  0  0  0
   48.6782    7.1569   16.3458 C   0  0  2  0  0  0  0  0  0  0  0  0
   47.9286    7.9022   17.4766 C   0  0  0  0  0  0  0  0  0  0  0  0
   48.3079    5.9760   21.3360 C   0  0  0  0  0  0  0  0  0  0  0  0
   47.2312    6.1562   19.1704 C   0  0  0  0  0  0  0  0  0  0  0  0
   49.0226    7.6657   19.7452 C   0  0  0  0  0  0  0  0  0  0  0  0
   49.5186   12.9776    8.4378 C   0  0  0  0  0  0  0  0  0  0  0  0
   47.3575    5.5316   20.4136 C   0  0  0  0  0  0  0  0  0  0  0  0
   49.1421    7.0443   20.9931 C   0  0  0  0  0  0  0  0  0  0  0  0
   50.1984    7.2826   16.4785 C   0  0  0  0  0  0  0  0  0  0  0  0
   49.1716    5.7891   23.5422 C   0  0  0  0  0  0  0  0  0  0  0  0
   48.6702    8.5528   15.5573 O   0  0  0  0  0  0  0  0  0  0  0  0
   48.7276    8.7825   16.5026 H   0  0  0  0  0  0  0  0  0  0  0  0
   48.6548    9.4052   15.1107 H   0  0  0  0  0  0  0  0  0  0  0  0
   50.1489   10.1462   22.1983 H   0  0  0  0  0  0  0  0  0  0  0  0
   50.3687    6.4432   17.6587 H   0  0  0  0  0  0  0  0  0  0  0  0
   48.2745    7.8613   22.7429 H   0  0  0  0  0  0  0  0  0  0  0  0
   49.6943    6.6770   14.7017 H   0  0  0  0  0  0  0  0  0  0  0  0
   48.1338    6.4257   19.2959 H   0  0  0  0  0  0  0  0  0  0  0  0
   47.8374    7.1198   16.8313 H   0  0  0  0  0  0  0  0  0  0  0  0
   49.7648   10.0790   17.6544 H   0  0  0  0  0  0  0  0  0  0  0  0
   49.8977   11.0277   19.9004 H   0  0  0  0  0  0  0  0  0  0  0  0
   48.5426    9.2188   15.6174 H   0  0  0  0  0  0  0  0  0  0  0  0
   50.2240    8.7533   15.8298 H   0  0  0  0  0  0  0  0  0  0  0  0
   47.1449    7.9100   14.4099 H   0  0  0  0  0  0  0  0  0  0  0  0
   48.7645    7.3115   11.8585 H   0  0  0  0  0  0  0  0  0  0  0  0
   47.0236    7.3412   11.8954 H   0  0  0  0  0  0  0  0  0  0  0  0
   50.0578    9.4336   12.1582 H   0  0  0  0  0  0  0  0  0  0  0  0
   45.7455    9.4382   12.1347 H   0  0  0  0  0  0  0  0  0  0  0  0
   47.5237    5.7867   23.0809 H   0  0  0  0  0  0  0  0  0  0  0  0
   50.0658   11.8467   11.8098 H   0  0  0  0  0  0  0  0  0  0  0  0
   45.7605   11.8783   11.7931 H   0  0  0  0  0  0  0  0  0  0  0  0
   46.5689    5.6709   13.5769 H   0  0  0  0  0  0  0  0  0  0  0  0
   48.2765    5.2288   13.4238 H   0  0  0  0  0  0  0  0  0  0  0  0
   47.5726    5.5111   15.0199 H   0  0  0  0  0  0  0  0  0  0  0  0
   49.4635   13.7548   10.3882 H   0  0  0  0  0  0  0  0  0  0  0  0
   49.6437   14.0772   12.1605 H   0  0  0  0  0  0  0  0  0  0  0  0
   48.6928   15.1632   11.1366 H   0  0  0  0  0  0  0  0  0  0  0  0
   48.2444    7.6523   18.8185 H   0  0  0  0  0  0  0  0  0  0  0  0
   49.0547   10.2036   12.6459 H   0  0  0  0  0  0  0  0  0  0  0  0
   49.8877    9.8535   15.9262 H   0  0  0  0  0  0  0  0  0  0  0  0
   47.4378    7.9809   15.5311 H   0  0  0  0  0  0  0  0  0  0  0  0
   49.5600   14.3980   10.2180 H   0  0  0  0  0  0  0  0  0  0  0  0
   48.6075    7.4233   12.9593 H   0  0  0  0  0  0  0  0  0  0  0  0
   49.0272   11.0590    8.8515 H   0  0  0  0  0  0  0  0  0  0  0  0
   47.2035    7.3513   14.9465 H   0  0  0  0  0  0  0  0  0  0  0  0
   48.6343    9.8567   10.6361 H   0  0  0  0  0  0  0  0  0  0  0  0
   46.8829    9.1253   13.1290 H   0  0  0  0  0  0  0  0  0  0  0  0
   48.0098   11.7148   14.4691 H   0  0  0  0  0  0  0  0  0  0  0  0
   48.5313   13.8918   13.4823 H   0  0  0  0  0  0  0  0  0  0  0  0
   47.8908    9.6213   15.3404 H   0  0  0  0  0  0  0  0  0  0  0  0
   49.5031    9.1944   14.7150 H   0  0  0  0  0  0  0  0  0  0  0  0
   48.4529    6.0861   16.4279 H   0  0  0  0  0  0  0  0  0  0  0  0
   48.2710    8.9384   17.5434 H   0  0  0  0  0  0  0  0  0  0  0  0
   46.8595    7.9628   17.2398 H   0  0  0  0  0  0  0  0  0  0  0  0
   46.4737    5.8015   18.4776 H   0  0  0  0  0  0  0  0  0  0  0  0
   49.6877    8.4931   19.4969 H   0  0  0  0  0  0  0  0  0  0  0  0
   49.4923   12.6380    7.3842 H   0  0  0  0  0  0  0  0  0  0  0  0
   46.6969    4.7066   20.6711 H   0  0  0  0  0  0  0  0  0  0  0  0
   49.9020    7.4150   21.6713 H   0  0  0  0  0  0  0  0  0  0  0  0
   50.7107    6.8366   15.6177 H   0  0  0  0  0  0  0  0  0  0  0  0
   50.5587    6.7613   17.3725 H   0  0  0  0  0  0  0  0  0  0  0  0
   50.5056    8.3282   16.5651 H   0  0  0  0  0  0  0  0  0  0  0  0
   50.2233    5.6649   23.2608 H   0  0  0  0  0  0  0  0  0  0  0  0
   48.9950    5.1913   24.4428 H   0  0  0  0  0  0  0  0  0  0  0  0
   48.9434    6.8346   23.7896 H   0  0  0  0  0  0  0  0  0  0  0  0
   48.6555    9.4176   15.1199 H   0  0  0  0  0  0  0  0  0  0  0  0
   48.7273    8.7672   16.5005 H   0  0  0  0  0  0  0  0  0  0  0  0
  2 10  1  0
  3 12  1  0
  4 19  1  0
  4 26  1  0
  5 22  2  0
  6  9  1  0
  6 22  1  0
  7 15  1  0
  7 17  1  0
  8 11  2  0
  8 12  1  0
  8 13  1  0
  9 10  2  0
  9 11  1  0
 10 14  1  0
 12 15  1  0
 13 14  2  0
 16 18  1  0
 16 20  2  0
 16 21  1  0
 17 18  1  0
 17 25  1  0
 19 23  2  0
 19 24  1  0
 20 23  1  0
 21 24  2  0
 27 31  1  0
 28 32  1  0
 29 31  2  0
 30 32  2  0
 31 33  1  0
 32 34  1  0
 33 34  2  0
 35 43  1  0
 36 45  1  0
 37 52  1  0
 37 59  1  0
 38 55  2  0
 39 42  1  0
 39 55  1  0
 40 48  1  0
 40 50  1  0
 41 44  2  0
 41 45  1  0
 41 46  1  0
 42 43  2  0
 42 44  1  0
 43 47  1  0
 45 48  1  0
 46 47  2  0
 49 51  1  0
 49 53  2  0
 49 54  1  0
 50 51  1  0
 50 58  1  0
 52 56  2  0
 52 57  1  0
 53 56  1  0
 54 57  2  0
  1 61  1  0
  1 62  1  0
  2 63  1  0
  3 64  1  0
  6 65  1  0
  7 66  1  0
 11 67  1  0
 12 68  1  1
 13 69  1  0
 14 70  1  0
 15 71  1  0
 15 72  1  0
 17 73  1  1
 18 74  1  0
 18 75  1  0
 20 76  1  0
 21 77  1  0
 22 78  1  0
 23 79  1  0
 24 80  1  0
 25 81  1  0
 25 82  1  0
 25 83  1  0
 26 84  1  0
 26 85  1  0
 26 86  1  0
 27 87  1  0
 28 88  1  0
 33 89  1  0
 34 90  1  0
 35 91  1  0
 36 92  1  0
 39 93  1  0
 40 94  1  0
 44 95  1  0
 45 96  1  1
 46 97  1  0
 47 98  1  0
 48 99  1  0
 48100  1  0
 50101  1  1
 51102  1  0
 51103  1  0
 53104  1  0
 54105  1  0
 55106  1  0
 56107  1  0
 57108  1  0
 58109  1  0
 58110  1  0
 58111  1  0
 59112  1  0
 59113  1  0
 59114  1  0
 60115  1  0
 60116  1  0
M  END
> <Uni-Dock RESULT> 
ENERGY=   -5.070  LOWER_BOUND=    3.734  UPPER_BOUND=    5.545
INTER + INTRA:          -5.070
INTER:                  -5.070
INTRA:                   0.000
UNBOUND:                 0.000

$$$$

     RDKit          3D

116115  0  0  0  0  0  0  0  0999 V2000
   47.1508   11.2101   11.7081 O   0  0  0  0  0  0  0  0  0  0  0  0
   50.1806    6.6246   15.5575 O   0  0  0  0  0  0  0  0  0  0  0  0
   49.5164   12.2257   12.8246 O   0  0  0  0  0  0  0  0  0  0  0  0
   41.1002   10.3162    9.9996 O   0  0  0  0  0  0  0  0  0  0  0  0
   53.3982    9.2752   12.7700 O   0  0  0  0  0  0  0  0  0  0  0  0
   52.1215    7.7949   14.0623 N   0  0  0  0  0  0  0  0  0  0  0  0
   47.1082   12.7832   11.4889 N   0  0  0  0  0  0  0  0  0  0  0  0
   49.1039    9.8761   13.1799 C   0  0  0  0  0  0  0  0  0  0  0  0
   50.8106    8.3101   13.9840 C   0  0  0  0  0  0  0  0  0  0  0  0
   49.8302    7.6758   14.7522 C   0  0  0  0  0  0  0  0  0  0  0  0
   50.4417    9.4085   13.2067 C   0  0  0  0  0  0  0  0  0  0  0  0
   48.7915   11.0891   12.3178 C   0  0  1  0  0  0  0  0  0  0  0  0
   48.1447    9.2013   13.9460 C   0  0  0  0  0  0  0  0  0  0  0  0
   48.5050    8.1062   14.7343 C   0  0  0  0  0  0  0  0  0  0  0  0
   47.3000   11.5040   12.2006 C   0  0  0  0  0  0  0  0  0  0  0  0
   44.6304   12.5191    9.5829 C   0  0  0  0  0  0  0  0  0  0  0  0
   47.1522   12.6344   10.0233 C   0  0  1  0  0  0  0  0  0  0  0  0
   45.9091   13.3028    9.3922 C   0  0  0  0  0  0  0  0  0  0  0  0
   42.2387   11.0722    9.9446 C   0  0  0  0  0  0  0  0  0  0  0  0
   43.8277   12.7347   10.7087 C   0  0  0  0  0  0  0  0  0  0  0  0
   44.2270   11.5668    8.6402 C   0  0  0  0  0  0  0  0  0  0  0  0
   53.2632    8.2879   13.4766 C   0  0  0  0  0  0  0  0  0  0  0  0
   42.6404   12.0162   10.8886 C   0  0  0  0  0  0  0  0  0  0  0  0
   43.0432   10.8456    8.8271 C   0  0  0  0  0  0  0  0  0  0  0  0
   48.4138   13.3097    9.4736 C   0  0  0  0  0  0  0  0  0  0  0  0
   40.1902   10.6106   11.0489 C   0  0  0  0  0  0  0  0  0  0  0  0
   49.2112    9.9334   12.1849 O   0  0  0  0  0  0  0  0  0  0  0  0
   44.7171   11.7801   11.5066 O   0  0  0  0  0  0  0  0  0  0  0  0
   48.3290    9.7509   14.2330 O   0  0  0  0  0  0  0  0  0  0  0  0
   45.6551   12.1172    9.5063 O   0  0  0  0  0  0  0  0  0  0  0  0
   48.2147   10.0855   13.0677 C   0  0  0  0  0  0  0  0  0  0  0  0
   45.7410   11.6998   10.6446 C   0  0  0  0  0  0  0  0  0  0  0  0
   47.0085   10.6836   12.4934 C   0  0  0  0  0  0  0  0  0  0  0  0
   46.9372   11.0779   11.2131 C   0  0  0  0  0  0  0  0  0  0  0  0
   39.8209   10.6434   11.1910 O   0  0  0  0  0  0  0  0  0  0  0  0
   45.4518   13.3561   10.0026 O   0  0  0  0  0  0  0  0  0  0  0  0
   54.0261    8.6866   14.0550 O   0  0  0  0  0  0  0  0  0  0  0  0
   38.4513   12.6504   10.6014 O   0  0  0  0  0  0  0  0  0  0  0  0
   40.5518   13.2712    9.8269 N   0  0  0  0  0  0  0  0  0  0  0  0
   47.6412   11.9503   10.8390 N   0  0  0  0  0  0  0  0  0  0  0  0
   43.8140   11.6214   10.4338 C   0  0  0  0  0  0  0  0  0  0  0  0
   41.4310   12.2694   10.2975 C   0  0  0  0  0  0  0  0  0  0  0  0
   41.0873   11.0570   10.9010 C   0  0  0  0  0  0  0  0  0  0  0  0
   42.7971   12.5272   10.0727 C   0  0  0  0  0  0  0  0  0  0  0  0
   45.2659   11.9341   10.1185 C   0  0  2  0  0  0  0  0  0  0  0  0
   43.4268   10.4023   10.9999 C   0  0  0  0  0  0  0  0  0  0  0  0
   42.0785   10.1290   11.2320 C   0  0  0  0  0  0  0  0  0  0  0  0
   46.2988   11.4109   11.1551 C   0  0  0  0  0  0  0  0  0  0  0  0
   50.2882    9.6872   12.4706 C   0  0  0  0  0  0  0  0  0  0  0  0
   48.7018   11.5785   11.8068 C   0  0  2  0  0  0  0  0  0  0  0  0
   48.9582   10.0525   11.8498 C   0  0  0  0  0  0  0  0  0  0  0  0
   52.7693    9.0097   13.6209 C   0  0  0  0  0  0  0  0  0  0  0  0
   51.4633    9.7243   11.7064 C   0  0  0  0  0  0  0  0  0  0  0  0
   50.3684    9.3166   13.8167 C   0  0  0  0  0  0  0  0  0  0  0  0
   39.1903   13.3582    9.9393 C   0  0  0  0  0  0  0  0  0  0  0  0
   52.6935    9.3929   12.2796 C   0  0  0  0  0  0  0  0  0  0  0  0
   51.6002    8.9770   14.3870 C   0  0  0  0  0  0  0  0  0  0  0  0
   48.4366   12.1601   13.1982 C   0  0  0  0  0  0  0  0  0  0  0  0
   54.1410    8.1700   15.3707 C   0  0  0  0  0  0  0  0  0  0  0  0
   47.1443   11.2125   11.7050 O   0  0  0  0  0  0  0  0  0  0  0  0
   47.5465   10.5109   12.2487 H   0  0  0  0  0  0  0  0  0  0  0  0
   46.2165   10.9622   11.6504 H   0  0  0  0  0  0  0  0  0  0  0  0
   49.8079    6.8203   16.4423 H   0  0  0  0  0  0  0  0  0  0  0  0
   49.7847   12.0209   13.7362 H   0  0  0  0  0  0  0  0  0  0  0  0
   52.2060    6.9639   14.6368 H   0  0  0  0  0  0  0  0  0  0  0  0
   47.8791   13.3920   11.8018 H   0  0  0  0  0  0  0  0  0  0  0  0
   51.1857    9.9214   12.5936 H   0  0  0  0  0  0  0  0  0  0  0  0
   49.1712   10.8886   11.3089 H   0  0  0  0  0  0  0  0  0  0  0  0
   47.0983    9.5061   13.9436 H   0  0  0  0  0  0  0  0  0  0  0  0
   47.7461    7.5911   15.3128 H   0  0  0  0  0  0  0  0  0  0  0  0
   46.6929   10.7057   11.7573 H   0  0  0  0  0  0  0  0  0  0  0  0
   46.9030   11.6778   13.2064 H   0  0  0  0  0  0  0  0  0  0  0  0
   47.1755   11.5770    9.7245 H   0  0  0  0  0  0  0  0  0  0  0  0
   45.7797   14.3227    9.7826 H   0  0  0  0  0  0  0  0  0  0  0  0
   46.0679   13.4327    8.3137 H   0  0  0  0  0  0  0  0  0  0  0  0
   44.1273   13.4691   11.4580 H   0  0  0  0  0  0  0  0  0  0  0  0
   44.8225   11.3783    7.7510 H   0  0  0  0  0  0  0  0  0  0  0  0
   54.1287    7.6556   13.7386 H   0  0  0  0  0  0  0  0  0  0  0  0
   42.0618   12.2148   11.7821 H   0  0  0  0  0  0  0  0  0  0  0  0
   42.7395   10.1066    8.0898 H   0  0  0  0  0  0  0  0  0  0  0  0
   48.4672   13.1843    8.3877 H   0  0  0  0  0  0  0  0  0  0  0  0
   48.4280   14.3826    9.6905 H   0  0  0  0  0  0  0  0  0  0  0  0
   49.3206   12.8720    9.9007 H   0  0  0  0  0  0  0  0  0  0  0  0
   39.8168   11.6405   10.9728 H   0  0  0  0  0  0  0  0  0  0  0  0
   40.6419   10.4267   12.0327 H   0  0  0  0  0  0  0  0  0  0  0  0
   39.3312    9.9372   10.9490 H   0  0  0  0  0  0  0  0  0  0  0  0
   49.9314    9.5229   12.7072 H   0  0  0  0  0  0  0  0  0  0  0  0
   44.0069   12.2052   10.9834 H   0  0  0  0  0  0  0  0  0  0  0  0
   46.1763   10.7811   13.1839 H   0  0  0  0  0  0  0  0  0  0  0  0
   47.7697   10.9776   10.5217 H   0  0  0  0  0  0  0  0  0  0  0  0
   39.2026   11.4004   11.1035 H   0  0  0  0  0  0  0  0  0  0  0  0
   46.4044   13.4917   10.1927 H   0  0  0  0  0  0  0  0  0  0  0  0
   40.9977   14.0338    9.3306 H   0  0  0  0  0  0  0  0  0  0  0  0
   47.9271   11.6127    9.9176 H   0  0  0  0  0  0  0  0  0  0  0  0
   43.0927   13.4650    9.6001 H   0  0  0  0  0  0  0  0  0  0  0  0
   45.4921   11.5045    9.1352 H   0  0  0  0  0  0  0  0  0  0  0  0
   44.1560    9.6355   11.2549 H   0  0  0  0  0  0  0  0  0  0  0  0
   41.7896    9.1739   11.6692 H   0  0  0  0  0  0  0  0  0  0  0  0
   46.3203   10.3144   11.1477 H   0  0  0  0  0  0  0  0  0  0  0  0
   45.9916   11.7513   12.1477 H   0  0  0  0  0  0  0  0  0  0  0  0
   49.6100   12.0721   11.4385 H   0  0  0  0  0  0  0  0  0  0  0  0
   48.1497    9.5443   12.3822 H   0  0  0  0  0  0  0  0  0  0  0  0
   48.9414    9.6418   10.8331 H   0  0  0  0  0  0  0  0  0  0  0  0
   51.4295   10.0035   10.6574 H   0  0  0  0  0  0  0  0  0  0  0  0
   49.4706    9.2898   14.4345 H   0  0  0  0  0  0  0  0  0  0  0  0
   38.7998   14.2097    9.3489 H   0  0  0  0  0  0  0  0  0  0  0  0
   53.5944    9.4148   11.6705 H   0  0  0  0  0  0  0  0  0  0  0  0
   51.6123    8.6982   15.4343 H   0  0  0  0  0  0  0  0  0  0  0  0
   48.1582   13.2191   13.1397 H   0  0  0  0  0  0  0  0  0  0  0  0
   49.3318   12.0974   13.8269 H   0  0  0  0  0  0  0  0  0  0  0  0
   47.6391   11.6167   13.7117 H   0  0  0  0  0  0  0  0  0  0  0  0
   53.8871    8.9342   16.1139 H   0  0  0  0  0  0  0  0  0  0  0  0
   55.1877    7.8881   15.5270 H   0  0  0  0  0  0  0  0  0  0  0  0
   53.5320    7.2654   15.5015 H   0  0  0  0  0  0  0  0  0  0  0  0
   46.2126   10.9493   11.6578 H   0  0  0  0  0  0  0  0  0  0  0  0
   47.5570   10.5214   12.2444 H   0  0  0  0  0  0  0  0  0  0  0  0
  2 10  1  0
  3 12  1  0
  4 19  1  0
  4 26  1  0
  5 22  2  0
  6  9  1  0
  6 22  1  0
  7 15  1  0
  7 17  1  0
  8 11  2  0
  8 12  1  0
  8 13  1  0
  9 10  2  0
  9 11  1  0
 10 14  1  0
 12 15  1  0
 13 14  2  0
 16 18  1  0
 16 20  2  0
 16 21  1  0
 17 18  1  0
 17 25  1  0
 19 23  2  0
 19 24  1  0
 20 23  1  0
 21 24  2  0
 27 31  1  0
 28 32  1  0
 29 31  2  0
 30 32  2  0
 31 33  1  0
 32 34  1  0
 33 34  2  0
 35 43  1  0
 36 45  1  0
 37 52  1  0
 37 59  1  0
 38 55  2  0
 39 42  1  0
 39 55  1  0
 40 48  1  0
 40 50  1  0
 41 44  2  0
 41 45  1  0
 41 46  1  0
 42 43  2  0
 42 44  1  0
 43 47  1  0
 45 48  1  0
 46 47  2  0
 49 51  1  0
 49 53  2  0
 49 54  1  0
 50 51  1  0
 50 58  1  0
 52 56  2  0
 52 57  1  0
 53 56  1  0
 54 57  2  0
  1 61  1  0
  1 62  1  0
  2 63  1  0
  3 64  1  0
  6 65  1  0
  7 66  1  0
 11 67  1  0
 12 68  1  1
 13 69  1  0
 14 70  1  0
 15 71  1  0
 15 72  1  0
 17 73  1  1
 18 74  1  0
 18 75  1  0
 20 76  1  0
 21 77  1  0
 22 78  1  0
 23 79  1  0
 24 80  1  0
 25 81  1  0
 25 82  1  0
 25 83  1  0
 26 84  1  0
 26 85  1  0
 26 86  1  0
 27 87  1  0
 28 88  1  0
 33 89  1  0
 34 90  1  0
 35 91  1  0
 36 92  1  0
 39 93  1  0
 40 94  1  0
 44 95  1  0
 45 96  1  1
 46 97  1  0
 47 98  1  0
 48 99  1  0
 48100  1  0
 50101  1  1
 51102  1  0
 51103  1  0
 53104  1  0
 54105  1  0
 55106  1  0
 56107  1  0
 57108  1  0
 58109  1  0
 58110  1  0
 58111  1  0
 59112  1  0
 59113  1  0
 59114  1  0
 60115  1  0
 60116  1  0
M  END
> <Uni-Dock RESULT> 
ENERGY=   -5.037  LOWER_BOUND=    4.122  UPPER_BOUND=    7.431
INTER + INTRA:          -5.037
INTER:                  -5.037
INTRA:                   0.000
UNBOUND:                 0.000

$$$$
