
     RDKit          3D

116115  0  0  0  0  0  0  0  0999 V2000
   49.3515    7.2863   15.8830 O   0  0  0  0  0  0  0  0  0  0  0  0
   46.0298   12.1029   11.5671 O   0  0  0  0  0  0  0  0  0  0  0  0
   48.6867    6.4526   12.7081 O   0  0  0  0  0  0  0  0  0  0  0  0
   51.4784    5.2462   22.8475 O   0  0  0  0  0  0  0  0  0  0  0  0
   43.6312   11.4399   11.2904 O   0  0  0  0  0  0  0  0  0  0  0  0
   44.6335    9.3851   11.7465 N   0  0  0  0  0  0  0  0  0  0  0  0
   49.0264    5.9697   15.4808 N   0  0  0  0  0  0  0  0  0  0  0  0
   48.0533    8.7495   13.0186 C   0  0  0  0  0  0  0  0  0  0  0  0
   45.9645    9.7024   12.1142 C   0  0  0  0  0  0  0  0  0  0  0  0
   46.5918   10.9537   12.0442 C   0  0  0  0  0  0  0  0  0  0  0  0
   46.7204    8.6139   12.5916 C   0  0  0  0  0  0  0  0  0  0  0  0
   48.8134    7.5751   13.5876 C   0  0  1  0  0  0  0  0  0  0  0  0
   48.6489   10.0103   12.9311 C   0  0  0  0  0  0  0  0  0  0  0  0
   47.9232   11.0991   12.4452 C   0  0  0  0  0  0  0  0  0  0  0  0
   48.2931    7.1594   14.9860 C   0  0  0  0  0  0  0  0  0  0  0  0
   50.6902    5.0030   18.7515 C   0  0  0  0  0  0  0  0  0  0  0  0
   49.8110    6.2530   16.7063 C   0  0  1  0  0  0  0  0  0  0  0  0
   50.3340    4.9136   17.2864 C   0  0  0  0  0  0  0  0  0  0  0  0
   51.3117    5.1761   21.4903 C   0  0  0  0  0  0  0  0  0  0  0  0
   49.6802    4.9137   19.7157 C   0  0  0  0  0  0  0  0  0  0  0  0
   52.0134    5.1802   19.1711 C   0  0  0  0  0  0  0  0  0  0  0  0
   43.6123   10.2199   11.3775 C   0  0  0  0  0  0  0  0  0  0  0  0
   49.9920    4.9997   21.0737 C   0  0  0  0  0  0  0  0  0  0  0  0
   52.3220    5.2668   20.5337 C   0  0  0  0  0  0  0  0  0  0  0  0
   50.9816    7.1965   16.4027 C   0  0  0  0  0  0  0  0  0  0  0  0
   52.8111    5.3866   23.3211 C   0  0  0  0  0  0  0  0  0  0  0  0
   50.1759    6.7098   18.2954 O   0  0  0  0  0  0  0  0  0  0  0  0
   47.9941    7.9292   14.0495 O   0  0  0  0  0  0  0  0  0  0  0  0
   48.1046    7.2290   18.9710 O   0  0  0  0  0  0  0  0  0  0  0  0
   50.0145    7.2641   13.3561 O   0  0  0  0  0  0  0  0  0  0  0  0
   48.9125    7.1022   18.0683 C   0  0  0  0  0  0  0  0  0  0  0  0
   49.2284    7.4485   14.2684 C   0  0  0  0  0  0  0  0  0  0  0  0
   48.6194    7.3574   16.6543 C   0  0  0  0  0  0  0  0  0  0  0  0
   49.5230    7.1875   15.6795 C   0  0  0  0  0  0  0  0  0  0  0  0
   44.2715    6.4256   12.2262 O   0  0  0  0  0  0  0  0  0  0  0  0
   48.7079   10.5653   14.0228 O   0  0  0  0  0  0  0  0  0  0  0  0
   52.8575    3.9780   21.3881 O   0  0  0  0  0  0  0  0  0  0  0  0
   42.7348    8.0286   11.1041 O   0  0  0  0  0  0  0  0  0  0  0  0
   44.6335    9.3449   11.3825 N   0  0  0  0  0  0  0  0  0  0  0  0
   49.5057    8.4210   15.8527 N   0  0  0  0  0  0  0  0  0  0  0  0
   47.7642    8.5122   13.2052 C   0  0  0  0  0  0  0  0  0  0  0  0
   45.5389    8.5348   12.1129 C   0  0  0  0  0  0  0  0  0  0  0  0
   45.3626    7.2024   12.4985 C   0  0  0  0  0  0  0  0  0  0  0  0
   46.7500    9.1647   12.4695 C   0  0  0  0  0  0  0  0  0  0  0  0
   49.0483    9.2599   13.5245 C   0  0  2  0  0  0  0  0  0  0  0  0
   47.5491    7.1803   13.5651 C   0  0  0  0  0  0  0  0  0  0  0  0
   46.3632    6.5358   13.2103 C   0  0  0  0  0  0  0  0  0  0  0  0
   50.0628    8.6033   14.5080 C   0  0  0  0  0  0  0  0  0  0  0  0
   50.5195    6.3670   18.8818 C   0  0  0  0  0  0  0  0  0  0  0  0
   50.4686    7.9238   16.8430 C   0  0  2  0  0  0  0  0  0  0  0  0
   49.6675    7.1902   17.9432 C   0  0  0  0  0  0  0  0  0  0  0  0
   52.0795    4.8166   20.6386 C   0  0  0  0  0  0  0  0  0  0  0  0
   51.1516    5.2009   18.4316 C   0  0  0  0  0  0  0  0  0  0  0  0
   50.6814    6.7483   20.2184 C   0  0  0  0  0  0  0  0  0  0  0  0
   43.3688    9.0620   10.9450 C   0  0  0  0  0  0  0  0  0  0  0  0
   51.9325    4.4401   19.3035 C   0  0  0  0  0  0  0  0  0  0  0  0
   51.4569    5.9792   21.0920 C   0  0  0  0  0  0  0  0  0  0  0  0
   51.2906    9.0814   17.4244 C   0  0  0  0  0  0  0  0  0  0  0  0
   52.8215    4.1729   22.7976 C   0  0  0  0  0  0  0  0  0  0  0  0
   49.3497    7.2875   15.8802 O   0  0  0  0  0  0  0  0  0  0  0  0
   48.4195    7.5445   15.8114 H   0  0  0  0  0  0  0  0  0  0  0  0
   49.4506    7.0200   16.8106 H   0  0  0  0  0  0  0  0  0  0  0  0
   45.0619   11.9734   11.4624 H   0  0  0  0  0  0  0  0  0  0  0  0
   49.0683    5.7162   13.2294 H   0  0  0  0  0  0  0  0  0  0  0  0
   44.3870    8.4047   11.8022 H   0  0  0  0  0  0  0  0  0  0  0  0
   48.3320    5.2602   15.7199 H   0  0  0  0  0  0  0  0  0  0  0  0
   46.2724    7.6216   12.6404 H   0  0  0  0  0  0  0  0  0  0  0  0
   49.8809    7.8174   13.6384 H   0  0  0  0  0  0  0  0  0  0  0  0
   49.6809   10.1649   13.2318 H   0  0  0  0  0  0  0  0  0  0  0  0
   48.4017   12.0722   12.3575 H   0  0  0  0  0  0  0  0  0  0  0  0
   48.3147    8.0019   15.6894 H   0  0  0  0  0  0  0  0  0  0  0  0
   47.2395    6.8603   14.8955 H   0  0  0  0  0  0  0  0  0  0  0  0
   49.1478    6.7300   17.4429 H   0  0  0  0  0  0  0  0  0  0  0  0
   51.1899    4.5446   16.7063 H   0  0  0  0  0  0  0  0  0  0  0  0
   49.5628    4.1348   17.1908 H   0  0  0  0  0  0  0  0  0  0  0  0
   48.6437    4.7745   19.4188 H   0  0  0  0  0  0  0  0  0  0  0  0
   52.8173    5.2591   18.4417 H   0  0  0  0  0  0  0  0  0  0  0  0
   42.6911    9.6487   11.1641 H   0  0  0  0  0  0  0  0  0  0  0  0
   49.1962    4.9290   21.8122 H   0  0  0  0  0  0  0  0  0  0  0  0
   53.3615    5.4075   20.8103 H   0  0  0  0  0  0  0  0  0  0  0  0
   51.5752    7.3927   17.2999 H   0  0  0  0  0  0  0  0  0  0  0  0
   51.6494    6.7646   15.6486 H   0  0  0  0  0  0  0  0  0  0  0  0
   50.6379    8.1705   16.0383 H   0  0  0  0  0  0  0  0  0  0  0  0
   52.7735    5.4055   24.4138 H   0  0  0  0  0  0  0  0  0  0  0  0
   53.2518    6.3312   22.9833 H   0  0  0  0  0  0  0  0  0  0  0  0
   53.4250    4.5310   23.0200 H   0  0  0  0  0  0  0  0  0  0  0  0
   50.2167    6.5866   19.2669 H   0  0  0  0  0  0  0  0  0  0  0  0
   47.9607    8.0552   13.0775 H   0  0  0  0  0  0  0  0  0  0  0  0
   47.6056    7.6891   16.4550 H   0  0  0  0  0  0  0  0  0  0  0  0
   50.5312    6.8445   15.8783 H   0  0  0  0  0  0  0  0  0  0  0  0
   43.5758    6.9800   11.8224 H   0  0  0  0  0  0  0  0  0  0  0  0
   49.5423   11.0505   14.1273 H   0  0  0  0  0  0  0  0  0  0  0  0
   44.9558   10.2832   11.1759 H   0  0  0  0  0  0  0  0  0  0  0  0
   49.0430    9.2765   16.1632 H   0  0  0  0  0  0  0  0  0  0  0  0
   46.9250   10.2038   12.1867 H   0  0  0  0  0  0  0  0  0  0  0  0
   49.5647    9.4114   12.5677 H   0  0  0  0  0  0  0  0  0  0  0  0
   48.2819    6.6162   14.1397 H   0  0  0  0  0  0  0  0  0  0  0  0
   46.2073    5.4995   13.4956 H   0  0  0  0  0  0  0  0  0  0  0  0
   50.9382    9.2601   14.5677 H   0  0  0  0  0  0  0  0  0  0  0  0
   50.4009    7.6409   14.1103 H   0  0  0  0  0  0  0  0  0  0  0  0
   51.1497    7.2077   16.3664 H   0  0  0  0  0  0  0  0  0  0  0  0
   49.0622    7.9073   18.5153 H   0  0  0  0  0  0  0  0  0  0  0  0
   48.9462    6.5046   17.4766 H   0  0  0  0  0  0  0  0  0  0  0  0
   51.0369    4.8759   17.4010 H   0  0  0  0  0  0  0  0  0  0  0  0
   50.2027    7.6488   20.5954 H   0  0  0  0  0  0  0  0  0  0  0  0
   42.9373    9.9164   10.3947 H   0  0  0  0  0  0  0  0  0  0  0  0
   52.4224    3.5397   18.9379 H   0  0  0  0  0  0  0  0  0  0  0  0
   51.5583    6.3148   22.1183 H   0  0  0  0  0  0  0  0  0  0  0  0
   52.0220    8.7177   18.1542 H   0  0  0  0  0  0  0  0  0  0  0  0
   50.6541    9.8189   17.9273 H   0  0  0  0  0  0  0  0  0  0  0  0
   51.8506    9.6044   16.6418 H   0  0  0  0  0  0  0  0  0  0  0  0
   53.3016    5.1170   23.0760 H   0  0  0  0  0  0  0  0  0  0  0  0
   51.7943    4.1242   23.1807 H   0  0  0  0  0  0  0  0  0  0  0  0
   53.3861    3.3586   23.2622 H   0  0  0  0  0  0  0  0  0  0  0  0
   49.4561    7.0199   16.8056 H   0  0  0  0  0  0  0  0  0  0  0  0
   48.4158    7.5434   15.8193 H   0  0  0  0  0  0  0  0  0  0  0  0
  2 10  1  0
  3 12  1  0
  4 19  1  0
  4 26  1  0
  5 22  2  0
  6  9  1  0
  6 22  1  0
  7 15  1  0
  7 17  1  0
  8 11  2  0
  8 12  1  0
  8 13  1  0
  9 10  2  0
  9 11  1  0
 10 14  1  0
 12 15  1  0
 13 14  2  0
 16 18  1  0
 16 20  2  0
 16 21  1  0
 17 18  1  0
 17 25  1  0
 19 23  2  0
 19 24  1  0
 20 23  1  0
 21 24  2  0
 27 31  1  0
 28 32  1  0
 29 31  2  0
 30 32  2  0
 31 33  1  0
 32 34  1  0
 33 34  2  0
 35 43  1  0
 36 45  1  0
 37 52  1  0
 37 59  1  0
 38 55  2  0
 39 42  1  0
 39 55  1  0
 40 48  1  0
 40 50  1  0
 41 44  2  0
 41 45  1  0
 41 46  1  0
 42 43  2  0
 42 44  1  0
 43 47  1  0
 45 48  1  0
 46 47  2  0
 49 51  1  0
 49 53  2  0
 49 54  1  0
 50 51  1  0
 50 58  1  0
 52 56  2  0
 52 57  1  0
 53 56  1  0
 54 57  2  0
  1 61  1  0
  1 62  1  0
  2 63  1  0
  3 64  1  0
  6 65  1  0
  7 66  1  0
 11 67  1  0
 12 68  1  1
 13 69  1  0
 14 70  1  0
 15 71  1  0
 15 72  1  0
 17 73  1  1
 18 74  1  0
 18 75  1  0
 20 76  1  0
 21 77  1  0
 22 78  1  0
 23 79  1  0
 24 80  1  0
 25 81  1  0
 25 82  1  0
 25 83  1  0
 26 84  1  0
 26 85  1  0
 26 86  1  0
 27 87  1  0
 28 88  1  0
 33 89  1  0
 34 90  1  0
 35 91  1  0
 36 92  1  0
 39 93  1  0
 40 94  1  0
 44 95  1  0
 45 96  1  1
 46 97  1  0
 47 98  1  0
 48 99  1  0
 48100  1  0
 50101  1  6
 51102  1  0
 51103  1  0
 53104  1  0
 54105  1  0
 55106  1  0
 56107  1  0
 57108  1  0
 58109  1  0
 58110  1  0
 58111  1  0
 59112  1  0
 59113  1  0
 59114  1  0
 60115  1  0
 60116  1  0
M  END
> <Uni-Dock RESULT> 
ENERGY=   -7.058  LOWER_BOUND=    0.000  UPPER_BOUND=    0.000
INTER + INTRA:          -7.058
INTER:                  -7.058
INTRA:                   0.000
UNBOUND:                 0.000

$$$$

     RDKit          3D

116115  0  0  0  0  0  0  0  0999 V2000
   48.8870    8.2126   15.6096 O   0  0  0  0  0  0  0  0  0  0  0  0
   43.0991    7.8161   11.2273 O   0  0  0  0  0  0  0  0  0  0  0  0
   49.0471    6.3137   12.8554 O   0  0  0  0  0  0  0  0  0  0  0  0
   51.8258   10.3216   22.2508 O   0  0  0  0  0  0  0  0  0  0  0  0
   41.9532    5.6175   11.5779 O   0  0  0  0  0  0  0  0  0  0  0  0
   44.1408    5.1081   12.2021 N   0  0  0  0  0  0  0  0  0  0  0  0
   49.6309    7.0115   15.5403 N   0  0  0  0  0  0  0  0  0  0  0  0
   46.9328    7.4550   12.8459 C   0  0  0  0  0  0  0  0  0  0  0  0
   44.8136    6.3548   12.2228 C   0  0  0  0  0  0  0  0  0  0  0  0
   44.3235    7.5941   11.7893 C   0  0  0  0  0  0  0  0  0  0  0  0
   46.1254    6.3091   12.7340 C   0  0  0  0  0  0  0  0  0  0  0  0
   48.3103    7.3817   13.4604 C   0  0  1  0  0  0  0  0  0  0  0  0
   46.4141    8.6733   12.4002 C   0  0  0  0  0  0  0  0  0  0  0  0
   45.1226    8.7381   11.8747 C   0  0  0  0  0  0  0  0  0  0  0  0
   48.2602    7.1344   14.9886 C   0  0  0  0  0  0  0  0  0  0  0  0
   51.4697    8.4642   18.5249 C   0  0  0  0  0  0  0  0  0  0  0  0
   49.9565    8.0910   16.5029 C   0  0  1  0  0  0  0  0  0  0  0  0
   51.2937    7.7461   17.2079 C   0  0  0  0  0  0  0  0  0  0  0  0
   51.7645    9.7795   20.9949 C   0  0  0  0  0  0  0  0  0  0  0  0
   50.8476    7.9643   19.6742 C   0  0  0  0  0  0  0  0  0  0  0  0
   52.2400    9.6284   18.6238 C   0  0  0  0  0  0  0  0  0  0  0  0
   42.8344    4.8317   11.8975 C   0  0  0  0  0  0  0  0  0  0  0  0
   50.9960    8.6191   20.8981 C   0  0  0  0  0  0  0  0  0  0  0  0
   52.3858   10.2827   19.8527 C   0  0  0  0  0  0  0  0  0  0  0  0
   50.0616    9.4464   15.7926 C   0  0  0  0  0  0  0  0  0  0  0  0
   52.6294   11.4834   22.4065 C   0  0  0  0  0  0  0  0  0  0  0  0
   49.8692    9.0898   17.8672 O   0  0  0  0  0  0  0  0  0  0  0  0
   47.4931    7.1653   14.0040 O   0  0  0  0  0  0  0  0  0  0  0  0
   48.0791    8.1598   18.8404 O   0  0  0  0  0  0  0  0  0  0  0  0
   49.3555    7.9592   13.0519 O   0  0  0  0  0  0  0  0  0  0  0  0
   48.7222    8.3936   17.8327 C   0  0  0  0  0  0  0  0  0  0  0  0
   48.6851    7.7811   14.0534 C   0  0  0  0  0  0  0  0  0  0  0  0
   48.3363    7.9592   16.4862 C   0  0  0  0  0  0  0  0  0  0  0  0
   49.0761    8.2120   15.3979 C   0  0  0  0  0  0  0  0  0  0  0  0
   46.0632    3.0540   13.2999 O   0  0  0  0  0  0  0  0  0  0  0  0
   46.0469    9.3822   13.3308 O   0  0  0  0  0  0  0  0  0  0  0  0
   53.6943   10.0562   20.8089 O   0  0  0  0  0  0  0  0  0  0  0  0
   43.8433    2.7063   12.2313 O   0  0  0  0  0  0  0  0  0  0  0  0
   44.1704    4.9802   11.8602 N   0  0  0  0  0  0  0  0  0  0  0  0
   48.1603    9.0539   15.3330 N   0  0  0  0  0  0  0  0  0  0  0  0
   46.9099    7.1486   13.1293 C   0  0  0  0  0  0  0  0  0  0  0  0
   45.3797    5.2922   12.5308 C   0  0  0  0  0  0  0  0  0  0  0  0
   46.2362    4.4054   13.1906 C   0  0  0  0  0  0  0  0  0  0  0  0
   45.7420    6.6556   12.5059 C   0  0  0  0  0  0  0  0  0  0  0  0
   47.2354    8.6299   13.0312 C   0  0  2  0  0  0  0  0  0  0  0  0
   47.7394    6.2277   13.7723 C   0  0  0  0  0  0  0  0  0  0  0  0
   47.4051    4.8730   13.7966 C   0  0  0  0  0  0  0  0  0  0  0  0
   48.4064    9.1897   13.8933 C   0  0  0  0  0  0  0  0  0  0  0  0
   50.3540    9.2715   18.4254 C   0  0  0  0  0  0  0  0  0  0  0  0
   49.1793    9.6833   16.1819 C   0  0  2  0  0  0  0  0  0  0  0  0
   49.1714    8.9475   17.5415 C   0  0  0  0  0  0  0  0  0  0  0  0
   52.5507    9.8472   20.0887 C   0  0  0  0  0  0  0  0  0  0  0  0
   51.6388    8.8290   18.0859 C   0  0  0  0  0  0  0  0  0  0  0  0
   50.1841   10.0077   19.6032 C   0  0  0  0  0  0  0  0  0  0  0  0
   43.5175    3.7832   11.7524 C   0  0  0  0  0  0  0  0  0  0  0  0
   52.7272    9.1250   18.9083 C   0  0  0  0  0  0  0  0  0  0  0  0
   51.2748   10.2951   20.4300 C   0  0  0  0  0  0  0  0  0  0  0  0
   48.8900   11.1804   16.3518 C   0  0  0  0  0  0  0  0  0  0  0  0
   53.5263   10.5517   22.1326 C   0  0  0  0  0  0  0  0  0  0  0  0
   48.8849    8.2113   15.6070 O   0  0  0  0  0  0  0  0  0  0  0  0
   48.0636    7.7054   15.6821 H   0  0  0  0  0  0  0  0  0  0  0  0
   49.1491    8.3674   16.5307 H   0  0  0  0  0  0  0  0  0  0  0  0
   42.5355    7.0210   11.3492 H   0  0  0  0  0  0  0  0  0  0  0  0
   49.8462    6.2468   13.4182 H   0  0  0  0  0  0  0  0  0  0  0  0
   44.6915    4.3098   12.4926 H   0  0  0  0  0  0  0  0  0  0  0  0
   49.6782    6.1261   16.0468 H   0  0  0  0  0  0  0  0  0  0  0  0
   46.5478    5.3592   13.0613 H   0  0  0  0  0  0  0  0  0  0  0  0
   48.8591    8.3054   13.2449 H   0  0  0  0  0  0  0  0  0  0  0  0
   47.0028    9.5846   12.4487 H   0  0  0  0  0  0  0  0  0  0  0  0
   44.7350    9.6861   11.5075 H   0  0  0  0  0  0  0  0  0  0  0  0
   47.6572    7.8963   15.4993 H   0  0  0  0  0  0  0  0  0  0  0  0
   47.7626    6.1722   15.1739 H   0  0  0  0  0  0  0  0  0  0  0  0
   49.1553    8.1414   17.2549 H   0  0  0  0  0  0  0  0  0  0  0  0
   52.1466    7.9454   16.5462 H   0  0  0  0  0  0  0  0  0  0  0  0
   51.3397    6.6678   17.4219 H   0  0  0  0  0  0  0  0  0  0  0  0
   50.2445    7.0610   19.6274 H   0  0  0  0  0  0  0  0  0  0  0  0
   52.7294   10.0421   17.7442 H   0  0  0  0  0  0  0  0  0  0  0  0
   42.6263    3.7507   11.9895 H   0  0  0  0  0  0  0  0  0  0  0  0
   50.5061    8.2190   21.7833 H   0  0  0  0  0  0  0  0  0  0  0  0
   52.9898   11.1834   19.8791 H   0  0  0  0  0  0  0  0  0  0  0  0
   50.3212   10.2428   16.4955 H   0  0  0  0  0  0  0  0  0  0  0  0
   50.8328    9.4237   15.0142 H   0  0  0  0  0  0  0  0  0  0  0  0
   49.1142    9.7389   15.3276 H   0  0  0  0  0  0  0  0  0  0  0  0
   52.5895   11.7744   23.4598 H   0  0  0  0  0  0  0  0  0  0  0  0
   52.2372   12.3164   21.8123 H   0  0  0  0  0  0  0  0  0  0  0  0
   53.6743   11.2726   22.1547 H   0  0  0  0  0  0  0  0  0  0  0  0
   49.9868    9.3094   18.8153 H   0  0  0  0  0  0  0  0  0  0  0  0
   47.3785    6.9527   13.0535 H   0  0  0  0  0  0  0  0  0  0  0  0
   47.4036    7.4067   16.4389 H   0  0  0  0  0  0  0  0  0  0  0  0
   50.0134    8.7530   15.4481 H   0  0  0  0  0  0  0  0  0  0  0  0
   45.1837    2.8139   12.9488 H   0  0  0  0  0  0  0  0  0  0  0  0
   46.2590   10.3155   13.1683 H   0  0  0  0  0  0  0  0  0  0  0  0
   43.7021    5.7623   11.4175 H   0  0  0  0  0  0  0  0  0  0  0  0
   47.2184    9.3738   15.5629 H   0  0  0  0  0  0  0  0  0  0  0  0
   45.0997    7.3786   12.0008 H   0  0  0  0  0  0  0  0  0  0  0  0
   47.4762    8.8252   11.9781 H   0  0  0  0  0  0  0  0  0  0  0  0
   48.6512    6.5353   14.2816 H   0  0  0  0  0  0  0  0  0  0  0  0
   48.0583    4.1660   14.2996 H   0  0  0  0  0  0  0  0  0  0  0  0
   48.5206   10.2514   13.6467 H   0  0  0  0  0  0  0  0  0  0  0  0
   49.3419    8.6879   13.6254 H   0  0  0  0  0  0  0  0  0  0  0  0
   50.1678    9.5619   15.7213 H   0  0  0  0  0  0  0  0  0  0  0  0
   48.2337    9.1497   18.0781 H   0  0  0  0  0  0  0  0  0  0  0  0
   49.1833    7.8617   17.3714 H   0  0  0  0  0  0  0  0  0  0  0  0
   51.7994    8.2482   17.1816 H   0  0  0  0  0  0  0  0  0  0  0  0
   49.1982   10.3643   19.8916 H   0  0  0  0  0  0  0  0  0  0  0  0
   42.5980    3.8839   11.1495 H   0  0  0  0  0  0  0  0  0  0  0  0
   53.7206    8.7796   18.6285 H   0  0  0  0  0  0  0  0  0  0  0  0
   51.0974   10.8722   21.3309 H   0  0  0  0  0  0  0  0  0  0  0  0
   49.6538   11.6613   16.9723 H   0  0  0  0  0  0  0  0  0  0  0  0
   47.9162   11.3546   16.8245 H   0  0  0  0  0  0  0  0  0  0  0  0
   48.8881   11.6976   15.3864 H   0  0  0  0  0  0  0  0  0  0  0  0
   53.1609   11.5841   22.1223 H   0  0  0  0  0  0  0  0  0  0  0  0
   52.8629    9.9039   22.7197 H   0  0  0  0  0  0  0  0  0  0  0  0
   54.5070   10.5469   22.6184 H   0  0  0  0  0  0  0  0  0  0  0  0
   49.1529    8.3698   16.5248 H   0  0  0  0  0  0  0  0  0  0  0  0
   48.0619    7.7043   15.6906 H   0  0  0  0  0  0  0  0  0  0  0  0
  2 10  1  0
  3 12  1  0
  4 19  1  0
  4 26  1  0
  5 22  2  0
  6  9  1  0
  6 22  1  0
  7 15  1  0
  7 17  1  0
  8 11  2  0
  8 12  1  0
  8 13  1  0
  9 10  2  0
  9 11  1  0
 10 14  1  0
 12 15  1  0
 13 14  2  0
 16 18  1  0
 16 20  2  0
 16 21  1  0
 17 18  1  0
 17 25  1  0
 19 23  2  0
 19 24  1  0
 20 23  1  0
 21 24  2  0
 27 31  1  0
 28 32  1  0
 29 31  2  0
 30 32  2  0
 31 33  1  0
 32 34  1  0
 33 34  2  0
 35 43  1  0
 36 45  1  0
 37 52  1  0
 37 59  1  0
 38 55  2  0
 39 42  1  0
 39 55  1  0
 40 48  1  0
 40 50  1  0
 41 44  2  0
 41 45  1  0
 41 46  1  0
 42 43  2  0
 42 44  1  0
 43 47  1  0
 45 48  1  0
 46 47  2  0
 49 51  1  0
 49 53  2  0
 49 54  1  0
 50 51  1  0
 50 58  1  0
 52 56  2  0
 52 57  1  0
 53 56  1  0
 54 57  2  0
  1 61  1  0
  1 62  1  0
  2 63  1  0
  3 64  1  0
  6 65  1  0
  7 66  1  0
 11 67  1  0
 12 68  1  1
 13 69  1  0
 14 70  1  0
 15 71  1  0
 15 72  1  0
 17 73  1  1
 18 74  1  0
 18 75  1  0
 20 76  1  0
 21 77  1  0
 22 78  1  0
 23 79  1  0
 24 80  1  0
 25 81  1  0
 25 82  1  0
 25 83  1  0
 26 84  1  0
 26 85  1  0
 26 86  1  0
 27 87  1  0
 28 88  1  0
 33 89  1  0
 34 90  1  0
 35 91  1  0
 36 92  1  0
 39 93  1  0
 40 94  1  0
 44 95  1  0
 45 96  1  1
 46 97  1  0
 47 98  1  0
 48 99  1  0
 48100  1  0
 50101  1  6
 51102  1  0
 51103  1  0
 53104  1  0
 54105  1  0
 55106  1  0
 56107  1  0
 57108  1  0
 58109  1  0
 58110  1  0
 58111  1  0
 59112  1  0
 59113  1  0
 59114  1  0
 60115  1  0
 60116  1  0
M  END
> <Uni-Dock RESULT> 
ENERGY=   -6.870  LOWER_BOUND=    2.439  UPPER_BOUND=    3.476
INTER + INTRA:          -6.870
INTER:                  -6.870
INTRA:                   0.000
UNBOUND:                 0.000

$$$$

     RDKit          3D

116115  0  0  0  0  0  0  0  0999 V2000
   48.5497   10.5457   19.3767 O   0  0  0  0  0  0  0  0  0  0  0  0
   51.0864   17.3522   19.0641 O   0  0  0  0  0  0  0  0  0  0  0  0
   47.1372   12.9074   21.2856 O   0  0  0  0  0  0  0  0  0  0  0  0
   49.4310    3.2396   17.6347 O   0  0  0  0  0  0  0  0  0  0  0  0
   52.4647   17.8090   21.1041 O   0  0  0  0  0  0  0  0  0  0  0  0
   51.0214   16.1500   21.8782 N   0  0  0  0  0  0  0  0  0  0  0  0
   48.0157   10.2856   20.6605 N   0  0  0  0  0  0  0  0  0  0  0  0
   48.7826   13.9678   19.8924 C   0  0  0  0  0  0  0  0  0  0  0  0
   50.3382   15.6935   20.7239 C   0  0  0  0  0  0  0  0  0  0  0  0
   50.3860   16.2402   19.4345 C   0  0  0  0  0  0  0  0  0  0  0  0
   49.5189   14.5664   20.9302 C   0  0  0  0  0  0  0  0  0  0  0  0
   47.9667   12.7202   20.1339 C   0  0  1  0  0  0  0  0  0  0  0  0
   48.8500   14.5413   18.6201 C   0  0  0  0  0  0  0  0  0  0  0  0
   49.6427   15.6685   18.3975 C   0  0  0  0  0  0  0  0  0  0  0  0
   48.8545   11.4733   20.3705 C   0  0  0  0  0  0  0  0  0  0  0  0
   47.9249    6.6935   19.4404 C   0  0  0  0  0  0  0  0  0  0  0  0
   48.1462    9.2300   19.6277 C   0  0  1  0  0  0  0  0  0  0  0  0
   47.4411    7.9452   20.1336 C   0  0  0  0  0  0  0  0  0  0  0  0
   48.8654    4.3671   18.1672 C   0  0  0  0  0  0  0  0  0  0  0  0
   49.1150    6.0875   19.8579 C   0  0  0  0  0  0  0  0  0  0  0  0
   47.2109    6.1245   18.3799 C   0  0  0  0  0  0  0  0  0  0  0  0
   51.9808   17.1208   21.9920 C   0  0  0  0  0  0  0  0  0  0  0  0
   49.5787    4.9332   19.2242 C   0  0  0  0  0  0  0  0  0  0  0  0
   47.6795    4.9674   17.7465 C   0  0  0  0  0  0  0  0  0  0  0  0
   47.5349    9.6858   18.2968 C   0  0  0  0  0  0  0  0  0  0  0  0
   48.7197    2.6049   16.5806 C   0  0  0  0  0  0  0  0  0  0  0  0
   48.8465    8.0606   18.6234 O   0  0  0  0  0  0  0  0  0  0  0  0
   48.9653   12.7108   20.2469 O   0  0  0  0  0  0  0  0  0  0  0  0
   50.9652    8.2530   19.3239 O   0  0  0  0  0  0  0  0  0  0  0  0
   46.8117   12.4709   19.6903 O   0  0  0  0  0  0  0  0  0  0  0  0
   49.8615    8.7457   19.1730 C   0  0  0  0  0  0  0  0  0  0  0  0
   47.9291   11.9943   19.7827 C   0  0  0  0  0  0  0  0  0  0  0  0
   49.5077   10.1156   19.5588 C   0  0  0  0  0  0  0  0  0  0  0  0
   48.2779   10.6236   19.4010 C   0  0  0  0  0  0  0  0  0  0  0  0
   50.2163   14.3326   24.1517 O   0  0  0  0  0  0  0  0  0  0  0  0
   49.5824   13.9057   17.8698 O   0  0  0  0  0  0  0  0  0  0  0  0
   47.1207    3.4782   18.1309 O   0  0  0  0  0  0  0  0  0  0  0  0
   51.5382   16.4392   24.2250 O   0  0  0  0  0  0  0  0  0  0  0  0
   50.8265   16.4310   22.0094 N   0  0  0  0  0  0  0  0  0  0  0  0
   48.9215   11.1117   18.4527 N   0  0  0  0  0  0  0  0  0  0  0  0
   48.9860   13.7607   20.1931 C   0  0  0  0  0  0  0  0  0  0  0  0
   50.1410   15.2008   21.8477 C   0  0  0  0  0  0  0  0  0  0  0  0
   49.8710   14.2452   22.8322 C   0  0  0  0  0  0  0  0  0  0  0  0
   49.6812   14.9407   20.5394 C   0  0  0  0  0  0  0  0  0  0  0  0
   48.5054   13.5741   18.7634 C   0  0  2  0  0  0  0  0  0  0  0  0
   48.7331   12.8358   21.2081 C   0  0  0  0  0  0  0  0  0  0  0  0
   49.1683   13.0810   22.5112 C   0  0  0  0  0  0  0  0  0  0  0  0
   47.9287   12.1868   18.3508 C   0  0  0  0  0  0  0  0  0  0  0  0
   48.7211    7.3196   18.5019 C   0  0  0  0  0  0  0  0  0  0  0  0
   48.4576    9.8118   17.9523 C   0  0  2  0  0  0  0  0  0  0  0  0
   49.2710    8.7164   18.6791 C   0  0  0  0  0  0  0  0  0  0  0  0
   47.7137    4.7087   18.1986 C   0  0  0  0  0  0  0  0  0  0  0  0
   47.5095    6.9504   19.1000 C   0  0  0  0  0  0  0  0  0  0  0  0
   49.4180    6.3685   17.7483 C   0  0  0  0  0  0  0  0  0  0  0  0
   51.4410   16.9473   23.1170 C   0  0  0  0  0  0  0  0  0  0  0  0
   47.0084    5.6575   18.9390 C   0  0  0  0  0  0  0  0  0  0  0  0
   48.9181    5.0713   17.5962 C   0  0  0  0  0  0  0  0  0  0  0  0
   48.6340    9.7256   16.4307 C   0  0  0  0  0  0  0  0  0  0  0  0
   47.9196    2.4186   17.6162 C   0  0  0  0  0  0  0  0  0  0  0  0
   48.5502   10.5491   19.3777 O   0  0  0  0  0  0  0  0  0  0  0  0
   49.3313   10.9558   19.7784 H   0  0  0  0  0  0  0  0  0  0  0  0
   48.8082    9.6187   19.2538 H   0  0  0  0  0  0  0  0  0  0  0  0
   51.7071   17.6009   19.7834 H   0  0  0  0  0  0  0  0  0  0  0  0
   46.7771   12.0112   21.4495 H   0  0  0  0  0  0  0  0  0  0  0  0
   50.7998   15.6632   22.7378 H   0  0  0  0  0  0  0  0  0  0  0  0
   48.3408    9.8903   21.5441 H   0  0  0  0  0  0  0  0  0  0  0  0
   49.4405   14.1267   21.9244 H   0  0  0  0  0  0  0  0  0  0  0  0
   47.2946   12.5500   19.2852 H   0  0  0  0  0  0  0  0  0  0  0  0
   48.2875   14.1279   17.7883 H   0  0  0  0  0  0  0  0  0  0  0  0
   49.6706   16.1234   17.4097 H   0  0  0  0  0  0  0  0  0  0  0  0
   49.5534   11.3143   19.5392 H   0  0  0  0  0  0  0  0  0  0  0  0
   49.4715   11.6442   21.2636 H   0  0  0  0  0  0  0  0  0  0  0  0
   49.2153    9.0189   19.4776 H   0  0  0  0  0  0  0  0  0  0  0  0
   46.3509    8.0364   20.0421 H   0  0  0  0  0  0  0  0  0  0  0  0
   47.6305    7.8099   21.2089 H   0  0  0  0  0  0  0  0  0  0  0  0
   49.6896    6.5066   20.6800 H   0  0  0  0  0  0  0  0  0  0  0  0
   46.2857    6.5794   18.0312 H   0  0  0  0  0  0  0  0  0  0  0  0
   52.3178   17.2239   23.0390 H   0  0  0  0  0  0  0  0  0  0  0  0
   50.5058    4.4731   19.5593 H   0  0  0  0  0  0  0  0  0  0  0  0
   47.0934    4.5652   16.9271 H   0  0  0  0  0  0  0  0  0  0  0  0
   47.6110    8.9028   17.5373 H   0  0  0  0  0  0  0  0  0  0  0  0
   46.4739    9.9333   18.4158 H   0  0  0  0  0  0  0  0  0  0  0  0
   48.0480   10.5639   17.8905 H   0  0  0  0  0  0  0  0  0  0  0  0
   49.2878    1.7185   16.2851 H   0  0  0  0  0  0  0  0  0  0  0  0
   48.6419    3.2614   15.7066 H   0  0  0  0  0  0  0  0  0  0  0  0
   47.7318    2.2745   16.9191 H   0  0  0  0  0  0  0  0  0  0  0  0
   49.2337    7.1837   18.4184 H   0  0  0  0  0  0  0  0  0  0  0  0
   48.5735   13.5877   20.4454 H   0  0  0  0  0  0  0  0  0  0  0  0
   50.3213   10.6881   19.9921 H   0  0  0  0  0  0  0  0  0  0  0  0
   47.4632   10.0470   18.9796 H   0  0  0  0  0  0  0  0  0  0  0  0
   50.7895   15.1128   24.2823 H   0  0  0  0  0  0  0  0  0  0  0  0
   49.2196   13.8694   16.9700 H   0  0  0  0  0  0  0  0  0  0  0  0
   50.8990   17.0034   21.1763 H   0  0  0  0  0  0  0  0  0  0  0  0
   49.7999   11.3987   18.0188 H   0  0  0  0  0  0  0  0  0  0  0  0
   49.8722   15.6622   19.7437 H   0  0  0  0  0  0  0  0  0  0  0  0
   47.7182   14.3220   18.6011 H   0  0  0  0  0  0  0  0  0  0  0  0
   48.2107   11.9004   21.0144 H   0  0  0  0  0  0  0  0  0  0  0  0
   48.9654   12.3543   23.2925 H   0  0  0  0  0  0  0  0  0  0  0  0
   47.5893   12.2653   17.3116 H   0  0  0  0  0  0  0  0  0  0  0  0
   47.0543   11.9469   18.9646 H   0  0  0  0  0  0  0  0  0  0  0  0
   47.3956    9.6819   18.1954 H   0  0  0  0  0  0  0  0  0  0  0  0
   50.3228    8.7499   18.3620 H   0  0  0  0  0  0  0  0  0  0  0  0
   49.2837    8.9238   19.7584 H   0  0  0  0  0  0  0  0  0  0  0  0
   46.9508    7.6656   19.6977 H   0  0  0  0  0  0  0  0  0  0  0  0
   50.3608    6.6272   17.2724 H   0  0  0  0  0  0  0  0  0  0  0  0
   51.8769   17.9392   22.9047 H   0  0  0  0  0  0  0  0  0  0  0  0
   46.0627    5.3868   19.4048 H   0  0  0  0  0  0  0  0  0  0  0  0
   49.4895    4.3682   17.0001 H   0  0  0  0  0  0  0  0  0  0  0  0
   48.2769    8.7641   16.0465 H   0  0  0  0  0  0  0  0  0  0  0  0
   49.6847    9.8342   16.1369 H   0  0  0  0  0  0  0  0  0  0  0  0
   48.0633   10.5079   15.9188 H   0  0  0  0  0  0  0  0  0  0  0  0
   48.1116    2.5552   16.5467 H   0  0  0  0  0  0  0  0  0  0  0  0
   48.8580    2.3185   18.1762 H   0  0  0  0  0  0  0  0  0  0  0  0
   47.3596    1.4867   17.7410 H   0  0  0  0  0  0  0  0  0  0  0  0
   48.8016    9.6215   19.2519 H   0  0  0  0  0  0  0  0  0  0  0  0
   49.3374   10.9496   19.7793 H   0  0  0  0  0  0  0  0  0  0  0  0
  2 10  1  0
  3 12  1  0
  4 19  1  0
  4 26  1  0
  5 22  2  0
  6  9  1  0
  6 22  1  0
  7 15  1  0
  7 17  1  0
  8 11  2  0
  8 12  1  0
  8 13  1  0
  9 10  2  0
  9 11  1  0
 10 14  1  0
 12 15  1  0
 13 14  2  0
 16 18  1  0
 16 20  2  0
 16 21  1  0
 17 18  1  0
 17 25  1  0
 19 23  2  0
 19 24  1  0
 20 23  1  0
 21 24  2  0
 27 31  1  0
 28 32  1  0
 29 31  2  0
 30 32  2  0
 31 33  1  0
 32 34  1  0
 33 34  2  0
 35 43  1  0
 36 45  1  0
 37 52  1  0
 37 59  1  0
 38 55  2  0
 39 42  1  0
 39 55  1  0
 40 48  1  0
 40 50  1  0
 41 44  2  0
 41 45  1  0
 41 46  1  0
 42 43  2  0
 42 44  1  0
 43 47  1  0
 45 48  1  0
 46 47  2  0
 49 51  1  0
 49 53  2  0
 49 54  1  0
 50 51  1  0
 50 58  1  0
 52 56  2  0
 52 57  1  0
 53 56  1  0
 54 57  2  0
  1 61  1  0
  1 62  1  0
  2 63  1  0
  3 64  1  0
  6 65  1  0
  7 66  1  0
 11 67  1  0
 12 68  1  1
 13 69  1  0
 14 70  1  0
 15 71  1  0
 15 72  1  0
 17 73  1  1
 18 74  1  0
 18 75  1  0
 20 76  1  0
 21 77  1  0
 22 78  1  0
 23 79  1  0
 24 80  1  0
 25 81  1  0
 25 82  1  0
 25 83  1  0
 26 84  1  0
 26 85  1  0
 26 86  1  0
 27 87  1  0
 28 88  1  0
 33 89  1  0
 34 90  1  0
 35 91  1  0
 36 92  1  0
 39 93  1  0
 40 94  1  0
 44 95  1  0
 45 96  1  1
 46 97  1  0
 47 98  1  0
 48 99  1  0
 48100  1  0
 50101  1  6
 51102  1  0
 51103  1  0
 53104  1  0
 54105  1  0
 55106  1  0
 56107  1  0
 57108  1  0
 58109  1  0
 58110  1  0
 58111  1  0
 59112  1  0
 59113  1  0
 59114  1  0
 60115  1  0
 60116  1  0
M  END
> <Uni-Dock RESULT> 
ENERGY=   -5.882  LOWER_BOUND=    5.508  UPPER_BOUND=    8.406
INTER + INTRA:          -5.882
INTER:                  -5.882
INTRA:                   0.000
UNBOUND:                 0.000

$$$$

     RDKit          3D

116115  0  0  0  0  0  0  0  0999 V2000
   47.5754   12.7133   10.0047 O   0  0  0  0  0  0  0  0  0  0  0  0
   47.3647    6.4431   13.6792 O   0  0  0  0  0  0  0  0  0  0  0  0
   45.1087   12.1908   12.2091 O   0  0  0  0  0  0  0  0  0  0  0  0
   50.5023   16.7856    4.3443 O   0  0  0  0  0  0  0  0  0  0  0  0
   45.5789    4.9817   12.7071 O   0  0  0  0  0  0  0  0  0  0  0  0
   44.7961    7.1064   12.1525 N   0  0  0  0  0  0  0  0  0  0  0  0
   46.2657   13.2198    9.8345 N   0  0  0  0  0  0  0  0  0  0  0  0
   46.6184   10.3257   12.3317 C   0  0  0  0  0  0  0  0  0  0  0  0
   45.8539    7.9851   12.4936 C   0  0  0  0  0  0  0  0  0  0  0  0
   47.0349    7.6700   13.1790 C   0  0  0  0  0  0  0  0  0  0  0  0
   45.6630    9.3220   12.0929 C   0  0  0  0  0  0  0  0  0  0  0  0
   46.4116   11.7349   11.8296 C   0  0  1  0  0  0  0  0  0  0  0  0
   47.7826    9.9776   13.0214 C   0  0  0  0  0  0  0  0  0  0  0  0
   47.9842    8.6621   13.4422 C   0  0  0  0  0  0  0  0  0  0  0  0
   46.5327   11.8340   10.2887 C   0  0  0  0  0  0  0  0  0  0  0  0
   47.9583   15.6447    7.4564 C   0  0  0  0  0  0  0  0  0  0  0  0
   47.4475   13.8482    9.1969 C   0  0  1  0  0  0  0  0  0  0  0  0
   47.0104   15.1815    8.5373 C   0  0  0  0  0  0  0  0  0  0  0  0
   49.7131   16.4731    5.4187 C   0  0  0  0  0  0  0  0  0  0  0  0
   47.8675   15.0933    6.1737 C   0  0  0  0  0  0  0  0  0  0  0  0
   48.9357   16.6137    7.7094 C   0  0  0  0  0  0  0  0  0  0  0  0
   44.7256    5.7440   12.2746 C   0  0  0  0  0  0  0  0  0  0  0  0
   48.7394   15.5067    5.1648 C   0  0  0  0  0  0  0  0  0  0  0  0
   49.8088   17.0251    6.6954 C   0  0  0  0  0  0  0  0  0  0  0  0
   48.5570   14.1000   10.2257 C   0  0  0  0  0  0  0  0  0  0  0  0
   51.4836   17.7940    4.5444 C   0  0  0  0  0  0  0  0  0  0  0  0
   48.7265   14.1094    8.1187 O   0  0  0  0  0  0  0  0  0  0  0  0
   46.4927   10.9670   11.1863 O   0  0  0  0  0  0  0  0  0  0  0  0
   48.4202   12.3200    6.8070 O   0  0  0  0  0  0  0  0  0  0  0  0
   46.6596   12.8058   12.4497 O   0  0  0  0  0  0  0  0  0  0  0  0
   48.2853   12.8627    7.8891 C   0  0  0  0  0  0  0  0  0  0  0  0
   46.8516   12.2453   11.3852 C   0  0  0  0  0  0  0  0  0  0  0  0
   47.6432   12.2409    9.0517 C   0  0  0  0  0  0  0  0  0  0  0  0
   47.4888   12.8714   10.2240 C   0  0  0  0  0  0  0  0  0  0  0  0
   42.7018    8.7599   10.7384 O   0  0  0  0  0  0  0  0  0  0  0  0
   48.7429    9.8602   12.2683 O   0  0  0  0  0  0  0  0  0  0  0  0
   49.5473   18.3828    5.8201 O   0  0  0  0  0  0  0  0  0  0  0  0
   42.5734    6.3974   11.5082 O   0  0  0  0  0  0  0  0  0  0  0  0
   44.5907    7.0700   12.4535 N   0  0  0  0  0  0  0  0  0  0  0  0
   48.4603   12.1169   10.4216 N   0  0  0  0  0  0  0  0  0  0  0  0
   46.3954   10.2850   11.9806 C   0  0  0  0  0  0  0  0  0  0  0  0
   44.7975    8.3897   11.9790 C   0  0  0  0  0  0  0  0  0  0  0  0
   43.9302    9.1527   11.1911 C   0  0  0  0  0  0  0  0  0  0  0  0
   46.0185    8.9799   12.3682 C   0  0  0  0  0  0  0  0  0  0  0  0
   47.7195   10.8510   12.4666 C   0  0  2  0  0  0  0  0  0  0  0  0
   45.4971   11.0137   11.1983 C   0  0  0  0  0  0  0  0  0  0  0  0
   44.2787   10.4522   10.8141 C   0  0  0  0  0  0  0  0  0  0  0  0
   48.2136   12.2008   11.8652 C   0  0  0  0  0  0  0  0  0  0  0  0
   48.9290   14.6846    7.6630 C   0  0  0  0  0  0  0  0  0  0  0  0
   49.0482   13.3290    9.8380 C   0  0  2  0  0  0  0  0  0  0  0  0
   48.6570   13.3622    8.3427 C   0  0  0  0  0  0  0  0  0  0  0  0
   49.4142   17.1392    6.3732 C   0  0  0  0  0  0  0  0  0  0  0  0
   48.1724   15.8188    7.9839 C   0  0  0  0  0  0  0  0  0  0  0  0
   49.9320   14.7957    6.6935 C   0  0  0  0  0  0  0  0  0  0  0  0
   43.5564    6.2085   12.2105 C   0  0  0  0  0  0  0  0  0  0  0  0
   48.4227   17.0367    7.3491 C   0  0  0  0  0  0  0  0  0  0  0  0
   50.1745   16.0148    6.0526 C   0  0  0  0  0  0  0  0  0  0  0  0
   50.5715   13.3309   10.0201 C   0  0  0  0  0  0  0  0  0  0  0  0
   50.3536   18.4716    4.6505 C   0  0  0  0  0  0  0  0  0  0  0  0
   47.5740   12.7107   10.0067 O   0  0  0  0  0  0  0  0  0  0  0  0
   47.2737   11.8293    9.7441 H   0  0  0  0  0  0  0  0  0  0  0  0
   47.8793   13.1119    9.1741 H   0  0  0  0  0  0  0  0  0  0  0  0
   46.7478    5.7684   13.3205 H   0  0  0  0  0  0  0  0  0  0  0  0
   45.0122   13.0298   11.7126 H   0  0  0  0  0  0  0  0  0  0  0  0
   43.9906    7.5402   11.7189 H   0  0  0  0  0  0  0  0  0  0  0  0
   45.5273   13.1739    9.1306 H   0  0  0  0  0  0  0  0  0  0  0  0
   44.7472    9.6084   11.5761 H   0  0  0  0  0  0  0  0  0  0  0  0
   47.1329   12.4061   12.3092 H   0  0  0  0  0  0  0  0  0  0  0  0
   48.5439   10.7186   13.2462 H   0  0  0  0  0  0  0  0  0  0  0  0
   48.8821    8.4043   13.9999 H   0  0  0  0  0  0  0  0  0  0  0  0
   47.4957   11.4431    9.9354 H   0  0  0  0  0  0  0  0  0  0  0  0
   45.7576   11.2022    9.8328 H   0  0  0  0  0  0  0  0  0  0  0  0
   47.8270   13.1690    8.4194 H   0  0  0  0  0  0  0  0  0  0  0  0
   46.8792   15.9665    9.2934 H   0  0  0  0  0  0  0  0  0  0  0  0
   46.0222   15.0637    8.0683 H   0  0  0  0  0  0  0  0  0  0  0  0
   47.1170   14.3398    5.9481 H   0  0  0  0  0  0  0  0  0  0  0  0
   49.0321   17.0542    8.6999 H   0  0  0  0  0  0  0  0  0  0  0  0
   43.7581    5.3624   11.9026 H   0  0  0  0  0  0  0  0  0  0  0  0
   48.6573   15.0688    4.1723 H   0  0  0  0  0  0  0  0  0  0  0  0
   50.5520   17.7765    6.9402 H   0  0  0  0  0  0  0  0  0  0  0  0
   49.4234   14.5816    9.7639 H   0  0  0  0  0  0  0  0  0  0  0  0
   48.2040   14.7516   11.0332 H   0  0  0  0  0  0  0  0  0  0  0  0
   48.9204   13.1681   10.6717 H   0  0  0  0  0  0  0  0  0  0  0  0
   52.0080   17.9381    3.5957 H   0  0  0  0  0  0  0  0  0  0  0  0
   52.2213   17.4830    5.2927 H   0  0  0  0  0  0  0  0  0  0  0  0
   51.0159   18.7457    4.8187 H   0  0  0  0  0  0  0  0  0  0  0  0
   49.1272   14.3816    7.2666 H   0  0  0  0  0  0  0  0  0  0  0  0
   46.0974   10.6987   12.0427 H   0  0  0  0  0  0  0  0  0  0  0  0
   47.2932   11.2271    8.8870 H   0  0  0  0  0  0  0  0  0  0  0  0
   47.8277   13.8879   10.3835 H   0  0  0  0  0  0  0  0  0  0  0  0
   42.5697    7.8150   10.9483 H   0  0  0  0  0  0  0  0  0  0  0  0
   49.5530   10.2111   12.6723 H   0  0  0  0  0  0  0  0  0  0  0  0
   45.3295    6.6947   13.0368 H   0  0  0  0  0  0  0  0  0  0  0  0
   49.0062   11.2823   10.2036 H   0  0  0  0  0  0  0  0  0  0  0  0
   46.7218    8.4165   12.9832 H   0  0  0  0  0  0  0  0  0  0  0  0
   47.6184   10.9885   13.5510 H   0  0  0  0  0  0  0  0  0  0  0  0
   45.7229   12.0218   10.8548 H   0  0  0  0  0  0  0  0  0  0  0  0
   43.5879   11.0288   10.2058 H   0  0  0  0  0  0  0  0  0  0  0  0
   49.1466   12.4680   12.3743 H   0  0  0  0  0  0  0  0  0  0  0  0
   47.4868   12.9925   12.0745 H   0  0  0  0  0  0  0  0  0  0  0  0
   48.6296   14.2151   10.3315 H   0  0  0  0  0  0  0  0  0  0  0  0
   49.1596   12.5494    7.7998 H   0  0  0  0  0  0  0  0  0  0  0  0
   47.5812   13.1617    8.2401 H   0  0  0  0  0  0  0  0  0  0  0  0
   47.3815   15.7603    8.7268 H   0  0  0  0  0  0  0  0  0  0  0  0
   50.5351   13.9319    6.4245 H   0  0  0  0  0  0  0  0  0  0  0  0
   43.7002    5.2529   12.7445 H   0  0  0  0  0  0  0  0  0  0  0  0
   47.8307   17.9109    7.6131 H   0  0  0  0  0  0  0  0  0  0  0  0
   50.9645   16.0559    5.3107 H   0  0  0  0  0  0  0  0  0  0  0  0
   51.0174   14.2390    9.6002 H   0  0  0  0  0  0  0  0  0  0  0  0
   51.0402   12.4699    9.5292 H   0  0  0  0  0  0  0  0  0  0  0  0
   50.8458   13.2990   11.0800 H   0  0  0  0  0  0  0  0  0  0  0  0
   51.4084   18.2951    4.8861 H   0  0  0  0  0  0  0  0  0  0  0  0
   50.0026   17.7836    3.8709 H   0  0  0  0  0  0  0  0  0  0  0  0
   50.2624   19.4892    4.2581 H   0  0  0  0  0  0  0  0  0  0  0  0
   47.8795   13.1153    9.1807 H   0  0  0  0  0  0  0  0  0  0  0  0
   47.2749   11.8285    9.7354 H   0  0  0  0  0  0  0  0  0  0  0  0
  2 10  1  0
  3 12  1  0
  4 19  1  0
  4 26  1  0
  5 22  2  0
  6  9  1  0
  6 22  1  0
  7 15  1  0
  7 17  1  0
  8 11  2  0
  8 12  1  0
  8 13  1  0
  9 10  2  0
  9 11  1  0
 10 14  1  0
 12 15  1  0
 13 14  2  0
 16 18  1  0
 16 20  2  0
 16 21  1  0
 17 18  1  0
 17 25  1  0
 19 23  2  0
 19 24  1  0
 20 23  1  0
 21 24  2  0
 27 31  1  0
 28 32  1  0
 29 31  2  0
 30 32  2  0
 31 33  1  0
 32 34  1  0
 33 34  2  0
 35 43  1  0
 36 45  1  0
 37 52  1  0
 37 59  1  0
 38 55  2  0
 39 42  1  0
 39 55  1  0
 40 48  1  0
 40 50  1  0
 41 44  2  0
 41 45  1  0
 41 46  1  0
 42 43  2  0
 42 44  1  0
 43 47  1  0
 45 48  1  0
 46 47  2  0
 49 51  1  0
 49 53  2  0
 49 54  1  0
 50 51  1  0
 50 58  1  0
 52 56  2  0
 52 57  1  0
 53 56  1  0
 54 57  2  0
  1 61  1  0
  1 62  1  0
  2 63  1  0
  3 64  1  0
  6 65  1  0
  7 66  1  0
 11 67  1  0
 12 68  1  1
 13 69  1  0
 14 70  1  0
 15 71  1  0
 15 72  1  0
 17 73  1  1
 18 74  1  0
 18 75  1  0
 20 76  1  0
 21 77  1  0
 22 78  1  0
 23 79  1  0
 24 80  1  0
 25 81  1  0
 25 82  1  0
 25 83  1  0
 26 84  1  0
 26 85  1  0
 26 86  1  0
 27 87  1  0
 28 88  1  0
 33 89  1  0
 34 90  1  0
 35 91  1  0
 36 92  1  0
 39 93  1  0
 40 94  1  0
 44 95  1  0
 45 96  1  1
 46 97  1  0
 47 98  1  0
 48 99  1  0
 48100  1  0
 50101  1  6
 51102  1  0
 51103  1  0
 53104  1  0
 54105  1  0
 55106  1  0
 56107  1  0
 57108  1  0
 58109  1  0
 58110  1  0
 58111  1  0
 59112  1  0
 59113  1  0
 59114  1  0
 60115  1  0
 60116  1  0
M  END
> <Uni-Dock RESULT> 
ENERGY=   -5.611  LOWER_BOUND=    5.234  UPPER_BOUND=   11.281
INTER + INTRA:          -5.611
INTER:                  -5.611
INTRA:                   0.000
UNBOUND:                 0.000

$$$$

     RDKit          3D

116115  0  0  0  0  0  0  0  0999 V2000
   49.1213   12.1225   20.7970 O   0  0  0  0  0  0  0  0  0  0  0  0
   47.7377    5.1726   22.4234 O   0  0  0  0  0  0  0  0  0  0  0  0
   46.5570   10.5715   19.3018 O   0  0  0  0  0  0  0  0  0  0  0  0
   53.8091   18.0421   21.2137 O   0  0  0  0  0  0  0  0  0  0  0  0
   48.5320    3.7167   20.5475 O   0  0  0  0  0  0  0  0  0  0  0  0
   48.1212    5.7251   19.4375 N   0  0  0  0  0  0  0  0  0  0  0  0
   48.7169   12.3998   19.4702 N   0  0  0  0  0  0  0  0  0  0  0  0
   47.4946    9.0615   20.9185 C   0  0  0  0  0  0  0  0  0  0  0  0
   47.8575    6.6629   20.4663 C   0  0  0  0  0  0  0  0  0  0  0  0
   47.6992    6.4037   21.8344 C   0  0  0  0  0  0  0  0  0  0  0  0
   47.7369    7.9974   20.0317 C   0  0  0  0  0  0  0  0  0  0  0  0
   47.4375   10.4884   20.4276 C   0  0  1  0  0  0  0  0  0  0  0  0
   47.3378    8.7667   22.2752 C   0  0  0  0  0  0  0  0  0  0  0  0
   47.4367    7.4490   22.7250 C   0  0  0  0  0  0  0  0  0  0  0  0
   48.8280   11.0190   19.9987 C   0  0  0  0  0  0  0  0  0  0  0  0
   50.6010   15.6484   20.0149 C   0  0  0  0  0  0  0  0  0  0  0  0
   49.4497   13.3874   20.2982 C   0  0  1  0  0  0  0  0  0  0  0  0
   49.4884   14.7418   19.5444 C   0  0  0  0  0  0  0  0  0  0  0  0
   52.7028   17.3094   20.8759 C   0  0  0  0  0  0  0  0  0  0  0  0
   51.9009   15.4552   19.5346 C   0  0  0  0  0  0  0  0  0  0  0  0
   50.3635   16.6801   20.9302 C   0  0  0  0  0  0  0  0  0  0  0  0
   48.4209    4.3922   19.5337 C   0  0  0  0  0  0  0  0  0  0  0  0
   52.9414   16.2812   19.9636 C   0  0  0  0  0  0  0  0  0  0  0  0
   51.4096   17.5058   21.3586 C   0  0  0  0  0  0  0  0  0  0  0  0
   48.7818   13.5580   21.6684 C   0  0  0  0  0  0  0  0  0  0  0  0
   53.6079   19.1259   22.1109 C   0  0  0  0  0  0  0  0  0  0  0  0
   50.7242   14.1651   21.0967 O   0  0  0  0  0  0  0  0  0  0  0  0
   48.2832    9.9513   20.3483 O   0  0  0  0  0  0  0  0  0  0  0  0
   52.3763   12.7696   20.5140 O   0  0  0  0  0  0  0  0  0  0  0  0
   46.6165   11.3801   20.7797 O   0  0  0  0  0  0  0  0  0  0  0  0
   51.1911   12.9660   20.7148 C   0  0  0  0  0  0  0  0  0  0  0  0
   47.8089   11.1730   20.6399 C   0  0  0  0  0  0  0  0  0  0  0  0
   50.1479   11.9452   20.5721 C   0  0  0  0  0  0  0  0  0  0  0  0
   48.8480   12.1965   20.7782 C   0  0  0  0  0  0  0  0  0  0  0  0
   48.2341    7.2723   16.8464 O   0  0  0  0  0  0  0  0  0  0  0  0
   48.3431    9.0393   22.9219 O   0  0  0  0  0  0  0  0  0  0  0  0
   51.6878   18.9741   20.6920 O   0  0  0  0  0  0  0  0  0  0  0  0
   48.2504    4.8096   17.2007 O   0  0  0  0  0  0  0  0  0  0  0  0
   47.7998    5.5711   19.3530 N   0  0  0  0  0  0  0  0  0  0  0  0
   49.2036   11.6140   21.8203 N   0  0  0  0  0  0  0  0  0  0  0  0
   47.7554    9.0753   20.5922 C   0  0  0  0  0  0  0  0  0  0  0  0
   47.8716    6.9842   19.2658 C   0  0  0  0  0  0  0  0  0  0  0  0
   48.0756    7.7532   18.1159 C   0  0  0  0  0  0  0  0  0  0  0  0
   47.7054    7.6673   20.4891 C   0  0  0  0  0  0  0  0  0  0  0  0
   47.5411    9.7289   21.9475 C   0  0  2  0  0  0  0  0  0  0  0  0
   47.9557    9.8045   19.4184 C   0  0  0  0  0  0  0  0  0  0  0  0
   48.1091    9.1476   18.1967 C   0  0  0  0  0  0  0  0  0  0  0  0
   47.8047   11.2587   22.0821 C   0  0  0  0  0  0  0  0  0  0  0  0
   51.0133   14.8691   21.0775 C   0  0  0  0  0  0  0  0  0  0  0  0
   49.5231   13.0265   22.0609 C   0  0  2  0  0  0  0  0  0  0  0  0
   50.7381   13.3860   21.1750 C   0  0  0  0  0  0  0  0  0  0  0  0
   51.5435   17.6257   20.8685 C   0  0  0  0  0  0  0  0  0  0  0  0
   50.1367   15.7115   20.3821 C   0  0  0  0  0  0  0  0  0  0  0  0
   52.1538   15.4236   21.6691 C   0  0  0  0  0  0  0  0  0  0  0  0
   47.9770    4.6277   18.3785 C   0  0  0  0  0  0  0  0  0  0  0  0
   50.3980   17.0797   20.2891 C   0  0  0  0  0  0  0  0  0  0  0  0
   52.4179   16.7931   21.5666 C   0  0  0  0  0  0  0  0  0  0  0  0
   49.8208   13.2666   23.5466 C   0  0  0  0  0  0  0  0  0  0  0  0
   52.9555   19.5244   21.0325 C   0  0  0  0  0  0  0  0  0  0  0  0
   49.1199   12.1192   20.7967 O   0  0  0  0  0  0  0  0  0  0  0  0
   49.5437   11.3006   20.5027 H   0  0  0  0  0  0  0  0  0  0  0  0
   49.8341   12.7795   20.7584 H   0  0  0  0  0  0  0  0  0  0  0  0
   48.0864    4.5153   21.7824 H   0  0  0  0  0  0  0  0  0  0  0  0
   46.7087   11.4792   18.9661 H   0  0  0  0  0  0  0  0  0  0  0  0
   48.1295    6.0996   18.4969 H   0  0  0  0  0  0  0  0  0  0  0  0
   49.1402   12.4064   18.5410 H   0  0  0  0  0  0  0  0  0  0  0  0
   47.8331    8.2342   18.9722 H   0  0  0  0  0  0  0  0  0  0  0  0
   47.0128   11.1296   21.2084 H   0  0  0  0  0  0  0  0  0  0  0  0
   47.1322    9.5498   22.9989 H   0  0  0  0  0  0  0  0  0  0  0  0
   47.2893    7.2249   23.7793 H   0  0  0  0  0  0  0  0  0  0  0  0
   49.5612   10.9263   20.8103 H   0  0  0  0  0  0  0  0  0  0  0  0
   49.2025   10.3987   19.1725 H   0  0  0  0  0  0  0  0  0  0  0  0
   50.4786   13.0264   20.4433 H   0  0  0  0  0  0  0  0  0  0  0  0
   48.5207   15.2553   19.6144 H   0  0  0  0  0  0  0  0  0  0  0  0
   49.6475   14.5702   18.4693 H   0  0  0  0  0  0  0  0  0  0  0  0
   52.1143   14.6626   18.8218 H   0  0  0  0  0  0  0  0  0  0  0  0
   49.3631   16.8481   21.3244 H   0  0  0  0  0  0  0  0  0  0  0  0
   48.5826    3.9492   18.5347 H   0  0  0  0  0  0  0  0  0  0  0  0
   53.9471   16.1189   19.5819 H   0  0  0  0  0  0  0  0  0  0  0  0
   51.1774   18.2898   22.0714 H   0  0  0  0  0  0  0  0  0  0  0  0
   49.3073   14.3003   22.2755 H   0  0  0  0  0  0  0  0  0  0  0  0
   47.7428   13.8899   21.5609 H   0  0  0  0  0  0  0  0  0  0  0  0
   48.7859   12.6264   22.2442 H   0  0  0  0  0  0  0  0  0  0  0  0
   54.5741   19.6158   22.2597 H   0  0  0  0  0  0  0  0  0  0  0  0
   53.2574   18.7701   23.0863 H   0  0  0  0  0  0  0  0  0  0  0  0
   52.9185   19.8629   21.6852 H   0  0  0  0  0  0  0  0  0  0  0  0
   51.5256   14.7268   21.1521 H   0  0  0  0  0  0  0  0  0  0  0  0
   47.4783    9.3932   20.2991 H   0  0  0  0  0  0  0  0  0  0  0  0
   50.5105   10.9658   20.2773 H   0  0  0  0  0  0  0  0  0  0  0  0
   48.4859   13.1778   21.0605 H   0  0  0  0  0  0  0  0  0  0  0  0
   48.3043    6.2984   16.8788 H   0  0  0  0  0  0  0  0  0  0  0  0
   48.1147    9.4148   23.7876 H   0  0  0  0  0  0  0  0  0  0  0  0
   47.6182    5.1992   20.2780 H   0  0  0  0  0  0  0  0  0  0  0  0
   49.8291   10.9871   22.3282 H   0  0  0  0  0  0  0  0  0  0  0  0
   47.5441    7.1024   21.4084 H   0  0  0  0  0  0  0  0  0  0  0  0
   46.4922    9.5483   22.2162 H   0  0  0  0  0  0  0  0  0  0  0  0
   48.0141   10.8916   19.4217 H   0  0  0  0  0  0  0  0  0  0  0  0
   48.2640    9.7255   17.2902 H   0  0  0  0  0  0  0  0  0  0  0  0
   47.5454   11.5502   23.1064 H   0  0  0  0  0  0  0  0  0  0  0  0
   47.1457   11.8133   21.4061 H   0  0  0  0  0  0  0  0  0  0  0  0
   48.6724   13.6520   21.7628 H   0  0  0  0  0  0  0  0  0  0  0  0
   51.6356   12.8589   21.5281 H   0  0  0  0  0  0  0  0  0  0  0  0
   50.5675   13.0213   20.1523 H   0  0  0  0  0  0  0  0  0  0  0  0
   49.2475   15.3075   19.9057 H   0  0  0  0  0  0  0  0  0  0  0  0
   52.8517   14.7937   22.2153 H   0  0  0  0  0  0  0  0  0  0  0  0
   47.8429    3.6087   18.7817 H   0  0  0  0  0  0  0  0  0  0  0  0
   49.7047   17.7229   19.7506 H   0  0  0  0  0  0  0  0  0  0  0  0
   53.3114   17.1802   22.0441 H   0  0  0  0  0  0  0  0  0  0  0  0
   50.0463   14.3212   23.7379 H   0  0  0  0  0  0  0  0  0  0  0  0
   50.6766   12.6735   23.8902 H   0  0  0  0  0  0  0  0  0  0  0  0
   48.9614   13.0032   24.1724 H   0  0  0  0  0  0  0  0  0  0  0  0
   53.1195   19.4931   22.1149 H   0  0  0  0  0  0  0  0  0  0  0  0
   53.7674   19.0178   20.4953 H   0  0  0  0  0  0  0  0  0  0  0  0
   52.9588   20.5738   20.7220 H   0  0  0  0  0  0  0  0  0  0  0  0
   49.8271   12.7810   20.7605 H   0  0  0  0  0  0  0  0  0  0  0  0
   49.5521   11.3024   20.5010 H   0  0  0  0  0  0  0  0  0  0  0  0
  2 10  1  0
  3 12  1  0
  4 19  1  0
  4 26  1  0
  5 22  2  0
  6  9  1  0
  6 22  1  0
  7 15  1  0
  7 17  1  0
  8 11  2  0
  8 12  1  0
  8 13  1  0
  9 10  2  0
  9 11  1  0
 10 14  1  0
 12 15  1  0
 13 14  2  0
 16 18  1  0
 16 20  2  0
 16 21  1  0
 17 18  1  0
 17 25  1  0
 19 23  2  0
 19 24  1  0
 20 23  1  0
 21 24  2  0
 27 31  1  0
 28 32  1  0
 29 31  2  0
 30 32  2  0
 31 33  1  0
 32 34  1  0
 33 34  2  0
 35 43  1  0
 36 45  1  0
 37 52  1  0
 37 59  1  0
 38 55  2  0
 39 42  1  0
 39 55  1  0
 40 48  1  0
 40 50  1  0
 41 44  2  0
 41 45  1  0
 41 46  1  0
 42 43  2  0
 42 44  1  0
 43 47  1  0
 45 48  1  0
 46 47  2  0
 49 51  1  0
 49 53  2  0
 49 54  1  0
 50 51  1  0
 50 58  1  0
 52 56  2  0
 52 57  1  0
 53 56  1  0
 54 57  2  0
  1 61  1  0
  1 62  1  0
  2 63  1  0
  3 64  1  0
  6 65  1  0
  7 66  1  0
 11 67  1  0
 12 68  1  1
 13 69  1  0
 14 70  1  0
 15 71  1  0
 15 72  1  0
 17 73  1  1
 18 74  1  0
 18 75  1  0
 20 76  1  0
 21 77  1  0
 22 78  1  0
 23 79  1  0
 24 80  1  0
 25 81  1  0
 25 82  1  0
 25 83  1  0
 26 84  1  0
 26 85  1  0
 26 86  1  0
 27 87  1  0
 28 88  1  0
 33 89  1  0
 34 90  1  0
 35 91  1  0
 36 92  1  0
 39 93  1  0
 40 94  1  0
 44 95  1  0
 45 96  1  1
 46 97  1  0
 47 98  1  0
 48 99  1  0
 48100  1  0
 50101  1  6
 51102  1  0
 51103  1  0
 53104  1  0
 54105  1  0
 55106  1  0
 56107  1  0
 57108  1  0
 58109  1  0
 58110  1  0
 58111  1  0
 59112  1  0
 59113  1  0
 59114  1  0
 60115  1  0
 60116  1  0
M  END
> <Uni-Dock RESULT> 
ENERGY=   -5.382  LOWER_BOUND=    6.083  UPPER_BOUND=    9.529
INTER + INTRA:          -5.382
INTER:                  -5.382
INTRA:                   0.000
UNBOUND:                 0.000

$$$$

     RDKit          3D

116115  0  0  0  0  0  0  0  0999 V2000
   45.4911   12.4675    8.0300 O   0  0  0  0  0  0  0  0  0  0  0  0
   51.3076   10.3716    4.2042 O   0  0  0  0  0  0  0  0  0  0  0  0
   47.8891   14.7021    7.3423 O   0  0  0  0  0  0  0  0  0  0  0  0
   39.2669   10.5652   11.8810 O   0  0  0  0  0  0  0  0  0  0  0  0
   53.2578   10.1096    5.7528 O   0  0  0  0  0  0  0  0  0  0  0  0
   51.9610   11.6734    6.8963 N   0  0  0  0  0  0  0  0  0  0  0  0
   45.8412   13.5210    8.9066 N   0  0  0  0  0  0  0  0  0  0  0  0
   48.4505   12.6478    6.2298 C   0  0  0  0  0  0  0  0  0  0  0  0
   50.7394   11.7272    6.1804 C   0  0  0  0  0  0  0  0  0  0  0  0
   50.4428   11.1146    4.9554 C   0  0  0  0  0  0  0  0  0  0  0  0
   49.7315   12.4994    6.7904 C   0  0  0  0  0  0  0  0  0  0  0  0
   47.3723   13.4281    6.9435 C   0  0  1  0  0  0  0  0  0  0  0  0
   48.1903   12.0270    5.0055 C   0  0  0  0  0  0  0  0  0  0  0  0
   49.1803   11.2709    4.3756 C   0  0  0  0  0  0  0  0  0  0  0  0
   46.8542   12.6957    8.2061 C   0  0  0  0  0  0  0  0  0  0  0  0
   42.4032   12.8828   10.3806 C   0  0  0  0  0  0  0  0  0  0  0  0
   44.5029   12.8835    8.9284 C   0  0  1  0  0  0  0  0  0  0  0  0
   43.5820   13.6856    9.8837 C   0  0  0  0  0  0  0  0  0  0  0  0
   40.2342   11.3611   11.3282 C   0  0  0  0  0  0  0  0  0  0  0  0
   42.5721   11.9938   11.4478 C   0  0  0  0  0  0  0  0  0  0  0  0
   41.1391   13.0023    9.7924 C   0  0  0  0  0  0  0  0  0  0  0  0
   53.0771   10.9176    6.6531 C   0  0  0  0  0  0  0  0  0  0  0  0
   41.4939   11.2405   11.9157 C   0  0  0  0  0  0  0  0  0  0  0  0
   40.0605   12.2447   10.2638 C   0  0  0  0  0  0  0  0  0  0  0  0
   43.8965   12.8321    7.5204 C   0  0  0  0  0  0  0  0  0  0  0  0
   37.9576   10.6824   11.3408 C   0  0  0  0  0  0  0  0  0  0  0  0
   43.2825   11.7490    9.2287 O   0  0  0  0  0  0  0  0  0  0  0  0
   47.7584   12.5945    7.3511 O   0  0  0  0  0  0  0  0  0  0  0  0
   44.5221   10.2020   10.2711 O   0  0  0  0  0  0  0  0  0  0  0  0
   46.5523   14.2367    6.4271 O   0  0  0  0  0  0  0  0  0  0  0  0
   44.4460   11.1323    9.4885 C   0  0  0  0  0  0  0  0  0  0  0  0
   46.6123   13.2679    7.1633 C   0  0  0  0  0  0  0  0  0  0  0  0
   45.5842   11.6834    8.7459 C   0  0  0  0  0  0  0  0  0  0  0  0
   45.4741   12.7231    7.9077 C   0  0  0  0  0  0  0  0  0  0  0  0
   51.5996   13.3553    9.3783 O   0  0  0  0  0  0  0  0  0  0  0  0
   47.5280   11.0044    5.1425 O   0  0  0  0  0  0  0  0  0  0  0  0
   38.9647   12.8522   11.3163 O   0  0  0  0  0  0  0  0  0  0  0  0
   53.6727   12.3091    8.4849 O   0  0  0  0  0  0  0  0  0  0  0  0
   52.1834   11.9187    6.7399 N   0  0  0  0  0  0  0  0  0  0  0  0
   45.5220   11.7369    7.1482 N   0  0  0  0  0  0  0  0  0  0  0  0
   48.5301   12.5971    6.6369 C   0  0  0  0  0  0  0  0  0  0  0  0
   50.9343   12.3984    7.2081 C   0  0  0  0  0  0  0  0  0  0  0  0
   50.6760   13.0496    8.4182 C   0  0  0  0  0  0  0  0  0  0  0  0
   49.8485   12.1918    6.3312 C   0  0  0  0  0  0  0  0  0  0  0  0
   47.4248   12.3563    5.6220 C   0  0  2  0  0  0  0  0  0  0  0  0
   48.3180   13.2486    7.8536 C   0  0  0  0  0  0  0  0  0  0  0  0
   49.3815   13.4739    8.7286 C   0  0  0  0  0  0  0  0  0  0  0  0
   45.9512   12.6169    6.0558 C   0  0  0  0  0  0  0  0  0  0  0  0
   42.6114   11.7719    9.5874 C   0  0  0  0  0  0  0  0  0  0  0  0
   44.1025   11.8609    7.5013 C   0  0  2  0  0  0  0  0  0  0  0  0
   43.9507   11.4270    8.9774 C   0  0  0  0  0  0  0  0  0  0  0  0
   40.1305   12.4114   10.7535 C   0  0  0  0  0  0  0  0  0  0  0  0
   42.2689   13.1054    9.8451 C   0  0  0  0  0  0  0  0  0  0  0  0
   41.6966   10.7654    9.9163 C   0  0  0  0  0  0  0  0  0  0  0  0
   53.4012   11.9069    7.3625 C   0  0  0  0  0  0  0  0  0  0  0  0
   41.0335   13.4191   10.4144 C   0  0  0  0  0  0  0  0  0  0  0  0
   40.4633   11.0819   10.4949 C   0  0  0  0  0  0  0  0  0  0  0  0
   43.2381   10.9998    6.5712 C   0  0  0  0  0  0  0  0  0  0  0  0
   38.1358   11.8606   11.9128 C   0  0  0  0  0  0  0  0  0  0  0  0
   45.4944   12.4677    8.0287 O   0  0  0  0  0  0  0  0  0  0  0  0
   46.2861   11.9776    8.2918 H   0  0  0  0  0  0  0  0  0  0  0  0
   44.8051   12.1413    8.6334 H   0  0  0  0  0  0  0  0  0  0  0  0
   52.1061   10.1636    4.7368 H   0  0  0  0  0  0  0  0  0  0  0  0
   47.1839   15.0578    7.9217 H   0  0  0  0  0  0  0  0  0  0  0  0
   52.0035   12.2446    7.7311 H   0  0  0  0  0  0  0  0  0  0  0  0
   46.1468   13.6227    9.8756 H   0  0  0  0  0  0  0  0  0  0  0  0
   49.9327   13.0078    7.7332 H   0  0  0  0  0  0  0  0  0  0  0  0
   46.5434   13.6254    6.2543 H   0  0  0  0  0  0  0  0  0  0  0  0
   47.2229   12.1244    4.5219 H   0  0  0  0  0  0  0  0  0  0  0  0
   48.9776   10.8108    3.4108 H   0  0  0  0  0  0  0  0  0  0  0  0
   46.4961   11.6861    7.9663 H   0  0  0  0  0  0  0  0  0  0  0  0
   47.6905   12.5676    8.9075 H   0  0  0  0  0  0  0  0  0  0  0  0
   44.6112   11.8574    9.3098 H   0  0  0  0  0  0  0  0  0  0  0  0
   43.2397   14.6138    9.4078 H   0  0  0  0  0  0  0  0  0  0  0  0
   44.1479   14.0072   10.7708 H   0  0  0  0  0  0  0  0  0  0  0  0
   43.5424   11.8814   11.9250 H   0  0  0  0  0  0  0  0  0  0  0  0
   40.9817   13.6817    8.9568 H   0  0  0  0  0  0  0  0  0  0  0  0
   53.8562   11.1057    7.4133 H   0  0  0  0  0  0  0  0  0  0  0  0
   41.6402   10.5529   12.7460 H   0  0  0  0  0  0  0  0  0  0  0  0
   39.1007   12.3692    9.7737 H   0  0  0  0  0  0  0  0  0  0  0  0
   42.9007   12.3805    7.5343 H   0  0  0  0  0  0  0  0  0  0  0  0
   43.8008   13.8383    7.0966 H   0  0  0  0  0  0  0  0  0  0  0  0
   44.5020   12.2284    6.8362 H   0  0  0  0  0  0  0  0  0  0  0  0
   37.3072   10.0040   11.8999 H   0  0  0  0  0  0  0  0  0  0  0  0
   37.9368   10.3773   10.2885 H   0  0  0  0  0  0  0  0  0  0  0  0
   37.5719   11.6996   11.4677 H   0  0  0  0  0  0  0  0  0  0  0  0
   42.6306   11.2731    9.7849 H   0  0  0  0  0  0  0  0  0  0  0  0
   48.4051   13.0714    6.7889 H   0  0  0  0  0  0  0  0  0  0  0  0
   46.5305   11.1868    8.9340 H   0  0  0  0  0  0  0  0  0  0  0  0
   44.5311   13.2260    7.7301 H   0  0  0  0  0  0  0  0  0  0  0  0
   52.4533   12.9413    9.1455 H   0  0  0  0  0  0  0  0  0  0  0  0
   46.8739   10.9098    4.4314 H   0  0  0  0  0  0  0  0  0  0  0  0
   52.1716   11.4957    5.8192 H   0  0  0  0  0  0  0  0  0  0  0  0
   45.7848   10.7708    6.9486 H   0  0  0  0  0  0  0  0  0  0  0  0
   50.0097   11.6874    5.3774 H   0  0  0  0  0  0  0  0  0  0  0  0
   47.6399   13.0119    4.7682 H   0  0  0  0  0  0  0  0  0  0  0  0
   47.3280   13.5817    8.1606 H   0  0  0  0  0  0  0  0  0  0  0  0
   49.2043   13.9820    9.6721 H   0  0  0  0  0  0  0  0  0  0  0  0
   45.3132   12.4424    5.1819 H   0  0  0  0  0  0  0  0  0  0  0  0
   45.8267   13.6644    6.3494 H   0  0  0  0  0  0  0  0  0  0  0  0
   43.7904   12.9087    7.4082 H   0  0  0  0  0  0  0  0  0  0  0  0
   44.1446   10.3499    9.0792 H   0  0  0  0  0  0  0  0  0  0  0  0
   44.7201   11.9220    9.5865 H   0  0  0  0  0  0  0  0  0  0  0  0
   42.9628   13.9073    9.6078 H   0  0  0  0  0  0  0  0  0  0  0  0
   41.9355    9.7217    9.7272 H   0  0  0  0  0  0  0  0  0  0  0  0
   54.1768   11.4659    6.7121 H   0  0  0  0  0  0  0  0  0  0  0  0
   40.7788   14.4602   10.6034 H   0  0  0  0  0  0  0  0  0  0  0  0
   39.7835   10.2701   10.7295 H   0  0  0  0  0  0  0  0  0  0  0  0
   42.1755   11.0974    6.8183 H   0  0  0  0  0  0  0  0  0  0  0  0
   43.5017    9.9377    6.6398 H   0  0  0  0  0  0  0  0  0  0  0  0
   43.3539   11.3039    5.5254 H   0  0  0  0  0  0  0  0  0  0  0  0
   37.7001   11.2036   11.1527 H   0  0  0  0  0  0  0  0  0  0  0  0
   38.6853   11.2824   12.6666 H   0  0  0  0  0  0  0  0  0  0  0  0
   37.3155   12.3740   12.4240 H   0  0  0  0  0  0  0  0  0  0  0  0
   44.8040   12.1465    8.6282 H   0  0  0  0  0  0  0  0  0  0  0  0
   46.2839   11.9724    8.2985 H   0  0  0  0  0  0  0  0  0  0  0  0
  2 10  1  0
  3 12  1  0
  4 19  1  0
  4 26  1  0
  5 22  2  0
  6  9  1  0
  6 22  1  0
  7 15  1  0
  7 17  1  0
  8 11  2  0
  8 12  1  0
  8 13  1  0
  9 10  2  0
  9 11  1  0
 10 14  1  0
 12 15  1  0
 13 14  2  0
 16 18  1  0
 16 20  2  0
 16 21  1  0
 17 18  1  0
 17 25  1  0
 19 23  2  0
 19 24  1  0
 20 23  1  0
 21 24  2  0
 27 31  1  0
 28 32  1  0
 29 31  2  0
 30 32  2  0
 31 33  1  0
 32 34  1  0
 33 34  2  0
 35 43  1  0
 36 45  1  0
 37 52  1  0
 37 59  1  0
 38 55  2  0
 39 42  1  0
 39 55  1  0
 40 48  1  0
 40 50  1  0
 41 44  2  0
 41 45  1  0
 41 46  1  0
 42 43  2  0
 42 44  1  0
 43 47  1  0
 45 48  1  0
 46 47  2  0
 49 51  1  0
 49 53  2  0
 49 54  1  0
 50 51  1  0
 50 58  1  0
 52 56  2  0
 52 57  1  0
 53 56  1  0
 54 57  2  0
  1 61  1  0
  1 62  1  0
  2 63  1  0
  3 64  1  0
  6 65  1  0
  7 66  1  0
 11 67  1  0
 12 68  1  1
 13 69  1  0
 14 70  1  0
 15 71  1  0
 15 72  1  0
 17 73  1  1
 18 74  1  0
 18 75  1  0
 20 76  1  0
 21 77  1  0
 22 78  1  0
 23 79  1  0
 24 80  1  0
 25 81  1  0
 25 82  1  0
 25 83  1  0
 26 84  1  0
 26 85  1  0
 26 86  1  0
 27 87  1  0
 28 88  1  0
 33 89  1  0
 34 90  1  0
 35 91  1  0
 36 92  1  0
 39 93  1  0
 40 94  1  0
 44 95  1  0
 45 96  1  1
 46 97  1  0
 47 98  1  0
 48 99  1  0
 48100  1  0
 50101  1  6
 51102  1  0
 51103  1  0
 53104  1  0
 54105  1  0
 55106  1  0
 56107  1  0
 57108  1  0
 58109  1  0
 58110  1  0
 58111  1  0
 59112  1  0
 59113  1  0
 59114  1  0
 60115  1  0
 60116  1  0
M  END
> <Uni-Dock RESULT> 
ENERGY=   -5.342  LOWER_BOUND=    9.603  UPPER_BOUND=   12.001
INTER + INTRA:          -5.342
INTER:                  -5.342
INTRA:                   0.000
UNBOUND:                 0.000

$$$$

     RDKit          3D

116115  0  0  0  0  0  0  0  0999 V2000
   49.2073   11.8889   21.3256 O   0  0  0  0  0  0  0  0  0  0  0  0
   47.7330    4.7839   21.7807 O   0  0  0  0  0  0  0  0  0  0  0  0
   46.5863   10.6510   19.6478 O   0  0  0  0  0  0  0  0  0  0  0  0
   54.0071   17.5846   22.6334 O   0  0  0  0  0  0  0  0  0  0  0  0
   48.4636    3.6570   19.6674 O   0  0  0  0  0  0  0  0  0  0  0  0
   48.0663    5.8305   18.9238 N   0  0  0  0  0  0  0  0  0  0  0  0
   48.7814   12.3933   20.0746 N   0  0  0  0  0  0  0  0  0  0  0  0
   47.5291    8.8750   20.9632 C   0  0  0  0  0  0  0  0  0  0  0  0
   47.8401    6.5834   20.1025 C   0  0  0  0  0  0  0  0  0  0  0  0
   47.7047    6.0977   21.4100 C   0  0  0  0  0  0  0  0  0  0  0  0
   47.7346    7.9739   19.9035 C   0  0  0  0  0  0  0  0  0  0  0  0
   47.4876   10.3654   20.7228 C   0  0  1  0  0  0  0  0  0  0  0  0
   47.3943    8.3562   22.2534 C   0  0  0  0  0  0  0  0  0  0  0  0
   47.4788    6.9800   22.4708 C   0  0  0  0  0  0  0  0  0  0  0  0
   48.8784   10.9414   20.3585 C   0  0  0  0  0  0  0  0  0  0  0  0
   50.7336   15.4751   21.1193 C   0  0  0  0  0  0  0  0  0  0  0  0
   49.5481   13.2154   21.0412 C   0  0  1  0  0  0  0  0  0  0  0  0
   49.5958   14.6775   20.5273 C   0  0  0  0  0  0  0  0  0  0  0  0
   52.8815   16.9357   22.2014 C   0  0  0  0  0  0  0  0  0  0  0  0
   52.0199   15.3480   20.5837 C   0  0  0  0  0  0  0  0  0  0  0  0
   50.5329   16.3395   22.2015 C   0  0  0  0  0  0  0  0  0  0  0  0
   48.3442    4.4964   18.7857 C   0  0  0  0  0  0  0  0  0  0  0  0
   53.0833   16.0743   21.1227 C   0  0  0  0  0  0  0  0  0  0  0  0
   51.6019   17.0655   22.7398 C   0  0  0  0  0  0  0  0  0  0  0  0
   48.9110   13.1601   22.4354 C   0  0  0  0  0  0  0  0  0  0  0  0
   53.8433   18.5029   23.7057 C   0  0  0  0  0  0  0  0  0  0  0  0
   50.8520   13.8280   21.9308 O   0  0  0  0  0  0  0  0  0  0  0  0
   48.3218    9.8376   20.5343 O   0  0  0  0  0  0  0  0  0  0  0  0
   52.4670   12.5286   21.0823 O   0  0  0  0  0  0  0  0  0  0  0  0
   46.6899   11.1957   21.2396 O   0  0  0  0  0  0  0  0  0  0  0  0
   51.2897   12.7048   21.3404 C   0  0  0  0  0  0  0  0  0  0  0  0
   47.8753   10.9986   21.0396 C   0  0  0  0  0  0  0  0  0  0  0  0
   50.2259   11.7379   21.0505 C   0  0  0  0  0  0  0  0  0  0  0  0
   48.9350   11.9689   21.3258 C   0  0  0  0  0  0  0  0  0  0  0  0
   48.1548    7.7937   16.6308 O   0  0  0  0  0  0  0  0  0  0  0  0
   48.4171    8.5007   22.9139 O   0  0  0  0  0  0  0  0  0  0  0  0
   51.8928   18.6217   22.3258 O   0  0  0  0  0  0  0  0  0  0  0  0
   48.1344    5.3066   16.5618 O   0  0  0  0  0  0  0  0  0  0  0  0
   47.7406    5.6976   18.8217 N   0  0  0  0  0  0  0  0  0  0  0  0
   49.3010   11.2127   22.2456 N   0  0  0  0  0  0  0  0  0  0  0  0
   47.7835    8.9405   20.6381 C   0  0  0  0  0  0  0  0  0  0  0  0
   47.8359    7.1037   18.9739 C   0  0  0  0  0  0  0  0  0  0  0  0
   48.0304    8.0540   17.9668 C   0  0  0  0  0  0  0  0  0  0  0  0
   47.7064    7.5713   20.2988 C   0  0  0  0  0  0  0  0  0  0  0  0
   47.6082    9.3572   22.0891 C   0  0  2  0  0  0  0  0  0  0  0  0
   47.9732    9.8556   19.6007 C   0  0  0  0  0  0  0  0  0  0  0  0
   48.0903    9.4138   18.2821 C   0  0  0  0  0  0  0  0  0  0  0  0
   47.9015   10.8379   22.4752 C   0  0  0  0  0  0  0  0  0  0  0  0
   51.1532   14.5208   22.0247 C   0  0  0  0  0  0  0  0  0  0  0  0
   49.6504   12.5591   22.7149 C   0  0  2  0  0  0  0  0  0  0  0  0
   50.8536   13.0467   21.8755 C   0  0  0  0  0  0  0  0  0  0  0  0
   51.7281   17.2650   22.2742 C   0  0  0  0  0  0  0  0  0  0  0  0
   50.2779   15.4815   21.5024 C   0  0  0  0  0  0  0  0  0  0  0  0
   52.3150   14.9505   22.6756 C   0  0  0  0  0  0  0  0  0  0  0  0
   47.8815    4.9311   17.6976 C   0  0  0  0  0  0  0  0  0  0  0  0
   50.5616   16.8417   21.6369 C   0  0  0  0  0  0  0  0  0  0  0  0
   52.6013   16.3137   22.8009 C   0  0  0  0  0  0  0  0  0  0  0  0
   49.9821   12.5390   24.2127 C   0  0  0  0  0  0  0  0  0  0  0  0
   53.1767   19.0881   22.7257 C   0  0  0  0  0  0  0  0  0  0  0  0
   49.2059   11.8857   21.3247 O   0  0  0  0  0  0  0  0  0  0  0  0
   49.6091   11.1231   20.8866 H   0  0  0  0  0  0  0  0  0  0  0  0
   49.9308   12.5327   21.3827 H   0  0  0  0  0  0  0  0  0  0  0  0
   48.0570    4.2403   21.0297 H   0  0  0  0  0  0  0  0  0  0  0  0
   46.7474   11.6004   19.4676 H   0  0  0  0  0  0  0  0  0  0  0  0
   48.0624    6.3592   18.0604 H   0  0  0  0  0  0  0  0  0  0  0  0
   49.1860   12.5518   19.1505 H   0  0  0  0  0  0  0  0  0  0  0  0
   47.8138    8.3859   18.8976 H   0  0  0  0  0  0  0  0  0  0  0  0
   47.0902   10.8704   21.6105 H   0  0  0  0  0  0  0  0  0  0  0  0
   47.2173    9.0078   23.1040 H   0  0  0  0  0  0  0  0  0  0  0  0
   47.3485    6.5821   23.4749 H   0  0  0  0  0  0  0  0  0  0  0  0
   49.6260   10.7017   21.1258 H   0  0  0  0  0  0  0  0  0  0  0  0
   49.2252   10.4653   19.4308 H   0  0  0  0  0  0  0  0  0  0  0  0
   50.5731   12.8204   21.0994 H   0  0  0  0  0  0  0  0  0  0  0  0
   48.6390   15.1853   20.7054 H   0  0  0  0  0  0  0  0  0  0  0  0
   49.7303   14.6889   19.4354 H   0  0  0  0  0  0  0  0  0  0  0  0
   52.2049   14.6851   19.7421 H   0  0  0  0  0  0  0  0  0  0  0  0
   49.5437   16.4522   22.6411 H   0  0  0  0  0  0  0  0  0  0  0  0
   48.4779    4.2275   17.7227 H   0  0  0  0  0  0  0  0  0  0  0  0
   54.0782   15.9650   20.6962 H   0  0  0  0  0  0  0  0  0  0  0  0
   51.3980   17.7202   23.5803 H   0  0  0  0  0  0  0  0  0  0  0  0
   49.4617   13.7809   23.1474 H   0  0  0  0  0  0  0  0  0  0  0  0
   47.8761   13.5200   22.4093 H   0  0  0  0  0  0  0  0  0  0  0  0
   48.9100   12.1442   22.8445 H   0  0  0  0  0  0  0  0  0  0  0  0
   54.8209   18.9467   23.9133 H   0  0  0  0  0  0  0  0  0  0  0  0
   53.5062   17.9915   24.6144 H   0  0  0  0  0  0  0  0  0  0  0  0
   53.1588   19.3112   23.4270 H   0  0  0  0  0  0  0  0  0  0  0  0
   51.6642   14.3606   22.0624 H   0  0  0  0  0  0  0  0  0  0  0  0
   47.5063    9.3074   20.4095 H   0  0  0  0  0  0  0  0  0  0  0  0
   50.5650   10.8179   20.5857 H   0  0  0  0  0  0  0  0  0  0  0  0
   48.5962   12.8929   21.7786 H   0  0  0  0  0  0  0  0  0  0  0  0
   48.2083    6.8276   16.4959 H   0  0  0  0  0  0  0  0  0  0  0  0
   48.2128    8.7268   23.8357 H   0  0  0  0  0  0  0  0  0  0  0  0
   47.5711    5.1765   19.6742 H   0  0  0  0  0  0  0  0  0  0  0  0
   49.9254   10.4999   22.6255 H   0  0  0  0  0  0  0  0  0  0  0  0
   47.5535    6.8608   21.1124 H   0  0  0  0  0  0  0  0  0  0  0  0
   46.5617    9.1484   22.3471 H   0  0  0  0  0  0  0  0  0  0  0  0
   48.0510   10.9255   19.7870 H   0  0  0  0  0  0  0  0  0  0  0  0
   48.2373   10.1352   17.4835 H   0  0  0  0  0  0  0  0  0  0  0  0
   47.6681   10.9547   23.5397 H   0  0  0  0  0  0  0  0  0  0  0  0
   47.2391   11.5086   21.9182 H   0  0  0  0  0  0  0  0  0  0  0  0
   48.8051   13.2382   22.5467 H   0  0  0  0  0  0  0  0  0  0  0  0
   51.7485   12.4547   22.1134 H   0  0  0  0  0  0  0  0  0  0  0  0
   50.6560   12.8637   20.8099 H   0  0  0  0  0  0  0  0  0  0  0  0
   49.3723   15.1769   20.9847 H   0  0  0  0  0  0  0  0  0  0  0  0
   53.0124   14.2271   23.0910 H   0  0  0  0  0  0  0  0  0  0  0  0
   47.7373    3.8604   17.9251 H   0  0  0  0  0  0  0  0  0  0  0  0
   49.8692   17.5768   21.2312 H   0  0  0  0  0  0  0  0  0  0  0  0
   53.5110   16.6013   23.3167 H   0  0  0  0  0  0  0  0  0  0  0  0
   50.2301   13.5425   24.5749 H   0  0  0  0  0  0  0  0  0  0  0  0
   50.8339   11.8841   24.4312 H   0  0  0  0  0  0  0  0  0  0  0  0
   49.1308   12.1853   24.8042 H   0  0  0  0  0  0  0  0  0  0  0  0
   53.3617   18.8710   23.7830 H   0  0  0  0  0  0  0  0  0  0  0  0
   53.9685   18.6687   22.0920 H   0  0  0  0  0  0  0  0  0  0  0  0
   53.1924   20.1749   22.5977 H   0  0  0  0  0  0  0  0  0  0  0  0
   49.9238   12.5339   21.3852 H   0  0  0  0  0  0  0  0  0  0  0  0
   49.6174   11.1250   20.8850 H   0  0  0  0  0  0  0  0  0  0  0  0
  2 10  1  0
  3 12  1  0
  4 19  1  0
  4 26  1  0
  5 22  2  0
  6  9  1  0
  6 22  1  0
  7 15  1  0
  7 17  1  0
  8 11  2  0
  8 12  1  0
  8 13  1  0
  9 10  2  0
  9 11  1  0
 10 14  1  0
 12 15  1  0
 13 14  2  0
 16 18  1  0
 16 20  2  0
 16 21  1  0
 17 18  1  0
 17 25  1  0
 19 23  2  0
 19 24  1  0
 20 23  1  0
 21 24  2  0
 27 31  1  0
 28 32  1  0
 29 31  2  0
 30 32  2  0
 31 33  1  0
 32 34  1  0
 33 34  2  0
 35 43  1  0
 36 45  1  0
 37 52  1  0
 37 59  1  0
 38 55  2  0
 39 42  1  0
 39 55  1  0
 40 48  1  0
 40 50  1  0
 41 44  2  0
 41 45  1  0
 41 46  1  0
 42 43  2  0
 42 44  1  0
 43 47  1  0
 45 48  1  0
 46 47  2  0
 49 51  1  0
 49 53  2  0
 49 54  1  0
 50 51  1  0
 50 58  1  0
 52 56  2  0
 52 57  1  0
 53 56  1  0
 54 57  2  0
  1 61  1  0
  1 62  1  0
  2 63  1  0
  3 64  1  0
  6 65  1  0
  7 66  1  0
 11 67  1  0
 12 68  1  1
 13 69  1  0
 14 70  1  0
 15 71  1  0
 15 72  1  0
 17 73  1  1
 18 74  1  0
 18 75  1  0
 20 76  1  0
 21 77  1  0
 22 78  1  0
 23 79  1  0
 24 80  1  0
 25 81  1  0
 25 82  1  0
 25 83  1  0
 26 84  1  0
 26 85  1  0
 26 86  1  0
 27 87  1  0
 28 88  1  0
 33 89  1  0
 34 90  1  0
 35 91  1  0
 36 92  1  0
 39 93  1  0
 40 94  1  0
 44 95  1  0
 45 96  1  1
 46 97  1  0
 47 98  1  0
 48 99  1  0
 48100  1  0
 50101  1  6
 51102  1  0
 51103  1  0
 53104  1  0
 54105  1  0
 55106  1  0
 56107  1  0
 57108  1  0
 58109  1  0
 58110  1  0
 58111  1  0
 59112  1  0
 59113  1  0
 59114  1  0
 60115  1  0
 60116  1  0
M  END
> <Uni-Dock RESULT> 
ENERGY=   -5.302  LOWER_BOUND=    6.237  UPPER_BOUND=    9.416
INTER + INTRA:          -5.302
INTER:                  -5.302
INTRA:                   0.000
UNBOUND:                 0.000

$$$$

     RDKit          3D

116115  0  0  0  0  0  0  0  0999 V2000
   48.5255   12.4292   18.7457 O   0  0  0  0  0  0  0  0  0  0  0  0
   49.0451    7.6785   24.2249 O   0  0  0  0  0  0  0  0  0  0  0  0
   46.0095   10.2892   19.2999 O   0  0  0  0  0  0  0  0  0  0  0  0
   51.8794   17.5283   14.2801 O   0  0  0  0  0  0  0  0  0  0  0  0
   49.5668    5.4113   23.2989 O   0  0  0  0  0  0  0  0  0  0  0  0
   48.4782    6.4121   21.4967 N   0  0  0  0  0  0  0  0  0  0  0  0
   47.7264   11.8900   17.7105 N   0  0  0  0  0  0  0  0  0  0  0  0
   47.6339    9.9899   21.0448 C   0  0  0  0  0  0  0  0  0  0  0  0
   48.3264    7.7701   21.8710 C   0  0  0  0  0  0  0  0  0  0  0  0
   48.6038    8.3455   23.1184 C   0  0  0  0  0  0  0  0  0  0  0  0
   47.8296    8.6103   20.8553 C   0  0  0  0  0  0  0  0  0  0  0  0
   47.1631   10.8734   19.9142 C   0  0  1  0  0  0  0  0  0  0  0  0
   47.9166   10.5296   22.3021 C   0  0  0  0  0  0  0  0  0  0  0  0
   48.3938    9.7118   23.3277 C   0  0  0  0  0  0  0  0  0  0  0  0
   48.2491   11.0661   18.8268 C   0  0  0  0  0  0  0  0  0  0  0  0
   49.0056   14.8674   15.7360 C   0  0  0  0  0  0  0  0  0  0  0  0
   48.4474   13.1773   17.5663 C   0  0  1  0  0  0  0  0  0  0  0  0
   48.0091   13.8505   16.2401 C   0  0  0  0  0  0  0  0  0  0  0  0
   50.8908   16.7300   14.7902 C   0  0  0  0  0  0  0  0  0  0  0  0
   50.1355   14.4384   15.0311 C   0  0  0  0  0  0  0  0  0  0  0  0
   48.8287   16.2369   15.9633 C   0  0  0  0  0  0  0  0  0  0  0  0
   49.0506    5.3792   22.1904 C   0  0  0  0  0  0  0  0  0  0  0  0
   51.0688   15.3651   14.5630 C   0  0  0  0  0  0  0  0  0  0  0  0
   49.7671   17.1631   15.4930 C   0  0  0  0  0  0  0  0  0  0  0  0
   48.1606   14.1031   18.7552 C   0  0  0  0  0  0  0  0  0  0  0  0
   51.7213   18.9301   14.4530 C   0  0  0  0  0  0  0  0  0  0  0  0
   49.7117   14.2784   17.3298 O   0  0  0  0  0  0  0  0  0  0  0  0
   48.0436   10.3922   19.8577 O   0  0  0  0  0  0  0  0  0  0  0  0
   51.3831   12.8090   17.0772 O   0  0  0  0  0  0  0  0  0  0  0  0
   46.3105   11.8016   19.9806 O   0  0  0  0  0  0  0  0  0  0  0  0
   50.2838   13.0802   17.5263 C   0  0  0  0  0  0  0  0  0  0  0  0
   47.4353   11.5569   19.5819 C   0  0  0  0  0  0  0  0  0  0  0  0
   49.4651   12.1590   18.3213 C   0  0  0  0  0  0  0  0  0  0  0  0
   48.2485   12.4777   18.7835 C   0  0  0  0  0  0  0  0  0  0  0  0
   47.5680    6.1851   18.6261 O   0  0  0  0  0  0  0  0  0  0  0  0
   48.9860   11.1292   22.3129 O   0  0  0  0  0  0  0  0  0  0  0  0
   49.5555   17.9807   14.0914 O   0  0  0  0  0  0  0  0  0  0  0  0
   48.1681    4.3760   20.2254 O   0  0  0  0  0  0  0  0  0  0  0  0
   48.1831    6.2362   21.6236 N   0  0  0  0  0  0  0  0  0  0  0  0
   48.9841   12.6031   19.7810 N   0  0  0  0  0  0  0  0  0  0  0  0
   47.7872    9.8144   20.6978 C   0  0  0  0  0  0  0  0  0  0  0  0
   47.9471    7.3415   20.7679 C   0  0  0  0  0  0  0  0  0  0  0  0
   47.6716    7.3087   19.3974 C   0  0  0  0  0  0  0  0  0  0  0  0
   47.9907    8.6037   21.3968 C   0  0  0  0  0  0  0  0  0  0  0  0
   47.8276   11.1283   21.4605 C   0  0  2  0  0  0  0  0  0  0  0  0
   47.5096    9.7353   19.3316 C   0  0  0  0  0  0  0  0  0  0  0  0
   47.4492    8.4953   18.6941 C   0  0  0  0  0  0  0  0  0  0  0  0
   47.8097   12.4575   20.6478 C   0  0  0  0  0  0  0  0  0  0  0  0
   49.8392   14.8440   16.8366 C   0  0  0  0  0  0  0  0  0  0  0  0
   49.0711   13.8977   19.0943 C   0  0  2  0  0  0  0  0  0  0  0  0
   49.9005   13.6866   17.8068 C   0  0  0  0  0  0  0  0  0  0  0  0
   49.7350   16.9794   15.0054 C   0  0  0  0  0  0  0  0  0  0  0  0
   48.6567   15.1285   16.1417 C   0  0  0  0  0  0  0  0  0  0  0  0
   50.9648   15.6429   16.6066 C   0  0  0  0  0  0  0  0  0  0  0  0
   48.2696    4.9046   21.3234 C   0  0  0  0  0  0  0  0  0  0  0  0
   48.6063   16.1945   15.2418 C   0  0  0  0  0  0  0  0  0  0  0  0
   50.9141   16.7046   15.6977 C   0  0  0  0  0  0  0  0  0  0  0  0
   49.7109   14.9510   20.0081 C   0  0  0  0  0  0  0  0  0  0  0  0
   50.7330   18.6321   13.6274 C   0  0  0  0  0  0  0  0  0  0  0  0
   48.5247   12.4263   18.7476 O   0  0  0  0  0  0  0  0  0  0  0  0
   49.0051   11.5896   18.8207 H   0  0  0  0  0  0  0  0  0  0  0  0
   49.0556   12.9470   18.1196 H   0  0  0  0  0  0  0  0  0  0  0  0
   49.3277    6.7735   23.9688 H   0  0  0  0  0  0  0  0  0  0  0  0
   45.8805   10.8386   18.4991 H   0  0  0  0  0  0  0  0  0  0  0  0
   48.1541    6.1766   20.5669 H   0  0  0  0  0  0  0  0  0  0  0  0
   47.8687   11.3620   16.8482 H   0  0  0  0  0  0  0  0  0  0  0  0
   47.5829    8.1941   19.8787 H   0  0  0  0  0  0  0  0  0  0  0  0
   46.8505   11.8454   20.3123 H   0  0  0  0  0  0  0  0  0  0  0  0
   47.7664   11.5857   22.5055 H   0  0  0  0  0  0  0  0  0  0  0  0
   48.5884   10.1352   24.3108 H   0  0  0  0  0  0  0  0  0  0  0  0
   49.1800   11.4608   19.2542 H   0  0  0  0  0  0  0  0  0  0  0  0
   48.4980   10.0847   18.3994 H   0  0  0  0  0  0  0  0  0  0  0  0
   49.5269   12.9701   17.5255 H   0  0  0  0  0  0  0  0  0  0  0  0
   47.0159   14.3065   16.3435 H   0  0  0  0  0  0  0  0  0  0  0  0
   47.8981   13.0918   15.4511 H   0  0  0  0  0  0  0  0  0  0  0  0
   50.2980   13.3808   14.8387 H   0  0  0  0  0  0  0  0  0  0  0  0
   47.9620   16.5970   16.5142 H   0  0  0  0  0  0  0  0  0  0  0  0
   49.0167    4.4424   21.6059 H   0  0  0  0  0  0  0  0  0  0  0  0
   51.9428   15.0168   14.0168 H   0  0  0  0  0  0  0  0  0  0  0  0
   49.5887   18.2136   15.6964 H   0  0  0  0  0  0  0  0  0  0  0  0
   48.6746   15.0618   18.6436 H   0  0  0  0  0  0  0  0  0  0  0  0
   47.0877   14.3080   18.8441 H   0  0  0  0  0  0  0  0  0  0  0  0
   48.5067   13.6731   19.7011 H   0  0  0  0  0  0  0  0  0  0  0  0
   52.5744   19.4204   13.9759 H   0  0  0  0  0  0  0  0  0  0  0  0
   51.7293   19.1995   15.5152 H   0  0  0  0  0  0  0  0  0  0  0  0
   50.8100   19.2845   13.9596 H   0  0  0  0  0  0  0  0  0  0  0  0
   50.3699   14.7729   16.7978 H   0  0  0  0  0  0  0  0  0  0  0  0
   47.3832    9.9042   20.3938 H   0  0  0  0  0  0  0  0  0  0  0  0
   49.9194   11.1902   18.5013 H   0  0  0  0  0  0  0  0  0  0  0  0
   47.7908   13.4409   18.5927 H   0  0  0  0  0  0  0  0  0  0  0  0
   47.8358    5.4079   19.1541 H   0  0  0  0  0  0  0  0  0  0  0  0
   48.9339   11.9337   22.8537 H   0  0  0  0  0  0  0  0  0  0  0  0
   48.3394    6.4641   22.5985 H   0  0  0  0  0  0  0  0  0  0  0  0
   49.8361   12.3859   20.2997 H   0  0  0  0  0  0  0  0  0  0  0  0
   48.2026    8.6708   22.4649 H   0  0  0  0  0  0  0  0  0  0  0  0
   46.9498   11.1310   22.1198 H   0  0  0  0  0  0  0  0  0  0  0  0
   47.3502   10.6262   18.7265 H   0  0  0  0  0  0  0  0  0  0  0  0
   47.2321    8.4464   17.6310 H   0  0  0  0  0  0  0  0  0  0  0  0
   47.7887   13.2846   21.3666 H   0  0  0  0  0  0  0  0  0  0  0  0
   46.8944   12.5187   20.0499 H   0  0  0  0  0  0  0  0  0  0  0  0
   48.0649   14.2338   18.8140 H   0  0  0  0  0  0  0  0  0  0  0  0
   50.9463   13.4629   18.0603 H   0  0  0  0  0  0  0  0  0  0  0  0
   49.5318   12.7988   17.2740 H   0  0  0  0  0  0  0  0  0  0  0  0
   47.7694   14.5200   16.2939 H   0  0  0  0  0  0  0  0  0  0  0  0
   51.8961   15.4455   17.1321 H   0  0  0  0  0  0  0  0  0  0  0  0
   48.4556    4.3031   22.2304 H   0  0  0  0  0  0  0  0  0  0  0  0
   47.6789   16.4072   14.7136 H   0  0  0  0  0  0  0  0  0  0  0  0
   51.8092   17.2999   15.5541 H   0  0  0  0  0  0  0  0  0  0  0  0
   49.7667   15.9243   19.5088 H   0  0  0  0  0  0  0  0  0  0  0  0
   50.7279   14.6677   20.3042 H   0  0  0  0  0  0  0  0  0  0  0  0
   49.1257   15.0925   20.9231 H   0  0  0  0  0  0  0  0  0  0  0  0
   51.1901   19.2305   14.4225 H   0  0  0  0  0  0  0  0  0  0  0  0
   51.4501   17.9120   13.2132 H   0  0  0  0  0  0  0  0  0  0  0  0
   50.4431   19.3112   12.8196 H   0  0  0  0  0  0  0  0  0  0  0  0
   49.0494   12.9494   18.1228 H   0  0  0  0  0  0  0  0  0  0  0  0
   49.0121   11.5901   18.8155 H   0  0  0  0  0  0  0  0  0  0  0  0
  2 10  1  0
  3 12  1  0
  4 19  1  0
  4 26  1  0
  5 22  2  0
  6  9  1  0
  6 22  1  0
  7 15  1  0
  7 17  1  0
  8 11  2  0
  8 12  1  0
  8 13  1  0
  9 10  2  0
  9 11  1  0
 10 14  1  0
 12 15  1  0
 13 14  2  0
 16 18  1  0
 16 20  2  0
 16 21  1  0
 17 18  1  0
 17 25  1  0
 19 23  2  0
 19 24  1  0
 20 23  1  0
 21 24  2  0
 27 31  1  0
 28 32  1  0
 29 31  2  0
 30 32  2  0
 31 33  1  0
 32 34  1  0
 33 34  2  0
 35 43  1  0
 36 45  1  0
 37 52  1  0
 37 59  1  0
 38 55  2  0
 39 42  1  0
 39 55  1  0
 40 48  1  0
 40 50  1  0
 41 44  2  0
 41 45  1  0
 41 46  1  0
 42 43  2  0
 42 44  1  0
 43 47  1  0
 45 48  1  0
 46 47  2  0
 49 51  1  0
 49 53  2  0
 49 54  1  0
 50 51  1  0
 50 58  1  0
 52 56  2  0
 52 57  1  0
 53 56  1  0
 54 57  2  0
  1 61  1  0
  1 62  1  0
  2 63  1  0
  3 64  1  0
  6 65  1  0
  7 66  1  0
 11 67  1  0
 12 68  1  1
 13 69  1  0
 14 70  1  0
 15 71  1  0
 15 72  1  0
 17 73  1  1
 18 74  1  0
 18 75  1  0
 20 76  1  0
 21 77  1  0
 22 78  1  0
 23 79  1  0
 24 80  1  0
 25 81  1  0
 25 82  1  0
 25 83  1  0
 26 84  1  0
 26 85  1  0
 26 86  1  0
 27 87  1  0
 28 88  1  0
 33 89  1  0
 34 90  1  0
 35 91  1  0
 36 92  1  0
 39 93  1  0
 40 94  1  0
 44 95  1  0
 45 96  1  1
 46 97  1  0
 47 98  1  0
 48 99  1  0
 48100  1  0
 50101  1  6
 51102  1  0
 51103  1  0
 53104  1  0
 54105  1  0
 55106  1  0
 56107  1  0
 57108  1  0
 58109  1  0
 58110  1  0
 58111  1  0
 59112  1  0
 59113  1  0
 59114  1  0
 60115  1  0
 60116  1  0
M  END
> <Uni-Dock RESULT> 
ENERGY=   -5.254  LOWER_BOUND=    5.111  UPPER_BOUND=    9.964
INTER + INTRA:          -5.254
INTER:                  -5.254
INTRA:                   0.000
UNBOUND:                 0.000

$$$$

     RDKit          3D

116115  0  0  0  0  0  0  0  0999 V2000
   49.1189    9.5093   15.8149 O   0  0  0  0  0  0  0  0  0  0  0  0
   52.0626   12.1486    9.7133 O   0  0  0  0  0  0  0  0  0  0  0  0
   48.1972    8.2217   12.8637 O   0  0  0  0  0  0  0  0  0  0  0  0
   48.0014   10.1870   23.2635 O   0  0  0  0  0  0  0  0  0  0  0  0
   50.3933   13.6213    8.5668 O   0  0  0  0  0  0  0  0  0  0  0  0
   49.0025   12.1838    9.7644 N   0  0  0  0  0  0  0  0  0  0  0  0
   47.8150    9.0266   15.5548 N   0  0  0  0  0  0  0  0  0  0  0  0
   49.9416    9.8239   12.4600 C   0  0  0  0  0  0  0  0  0  0  0  0
   49.8755   11.4438   10.5996 C   0  0  0  0  0  0  0  0  0  0  0  0
   51.2768   11.4456   10.5806 C   0  0  0  0  0  0  0  0  0  0  0  0
   49.2318   10.6145   11.5389 C   0  0  0  0  0  0  0  0  0  0  0  0
   49.2199    8.9975   13.4976 C   0  0  1  0  0  0  0  0  0  0  0  0
   51.3377    9.8465   12.4103 C   0  0  0  0  0  0  0  0  0  0  0  0
   51.9957   10.6484   11.4763 C   0  0  0  0  0  0  0  0  0  0  0  0
   48.5597    9.8727   14.5917 C   0  0  0  0  0  0  0  0  0  0  0  0
   47.5846    8.8207   19.3369 C   0  0  0  0  0  0  0  0  0  0  0  0
   48.3764    9.0941   16.9253 C   0  0  1  0  0  0  0  0  0  0  0  0
   47.3996    8.3890   17.9014 C   0  0  0  0  0  0  0  0  0  0  0  0
   47.9156    9.6646   22.0008 C   0  0  0  0  0  0  0  0  0  0  0  0
   47.0090   10.0168   19.7794 C   0  0  0  0  0  0  0  0  0  0  0  0
   48.3274    8.0518   20.2400 C   0  0  0  0  0  0  0  0  0  0  0  0
   49.2956   13.1641    8.8539 C   0  0  0  0  0  0  0  0  0  0  0  0
   47.1749   10.4325   21.1017 C   0  0  0  0  0  0  0  0  0  0  0  0
   48.4922    8.4724   21.5649 C   0  0  0  0  0  0  0  0  0  0  0  0
   49.7597    8.4341   16.9847 C   0  0  0  0  0  0  0  0  0  0  0  0
   48.7136    9.4200   24.2250 C   0  0  0  0  0  0  0  0  0  0  0  0
   48.8875    9.7300   18.4089 O   0  0  0  0  0  0  0  0  0  0  0  0
   49.1450    9.9997   13.4961 O   0  0  0  0  0  0  0  0  0  0  0  0
   48.3824   11.8798   18.0356 O   0  0  0  0  0  0  0  0  0  0  0  0
   49.4978    7.8203   13.8580 O   0  0  0  0  0  0  0  0  0  0  0  0
   48.6714   10.7795   17.6005 C   0  0  0  0  0  0  0  0  0  0  0  0
   49.2695    8.9321   14.3007 C   0  0  0  0  0  0  0  0  0  0  0  0
   48.8198   10.4666   16.1755 C   0  0  0  0  0  0  0  0  0  0  0  0
   49.1168    9.2401   15.7248 C   0  0  0  0  0  0  0  0  0  0  0  0
   46.1856   11.4458   10.5646 O   0  0  0  0  0  0  0  0  0  0  0  0
   51.8164   10.5346   13.3051 O   0  0  0  0  0  0  0  0  0  0  0  0
   47.5555    7.9047   22.7808 O   0  0  0  0  0  0  0  0  0  0  0  0
   46.9572   12.8062    8.6295 O   0  0  0  0  0  0  0  0  0  0  0  0
   48.9807   11.9998    9.4485 N   0  0  0  0  0  0  0  0  0  0  0  0
   50.2000    9.8508   15.6509 N   0  0  0  0  0  0  0  0  0  0  0  0
   49.5919   10.0364   12.5451 C   0  0  0  0  0  0  0  0  0  0  0  0
   48.6430   11.2865   10.6260 C   0  0  0  0  0  0  0  0  0  0  0  0
   47.3622   11.0425   11.1313 C   0  0  0  0  0  0  0  0  0  0  0  0
   49.7401   10.7664   11.3447 C   0  0  0  0  0  0  0  0  0  0  0  0
   50.8285    9.4915   13.2406 C   0  0  2  0  0  0  0  0  0  0  0  0
   48.2949    9.8114   13.0109 C   0  0  0  0  0  0  0  0  0  0  0  0
   47.1962   10.3064   12.3072 C   0  0  0  0  0  0  0  0  0  0  0  0
   50.6673    8.8734   14.6618 C   0  0  0  0  0  0  0  0  0  0  0  0
   48.7159    9.5865   19.1366 C   0  0  0  0  0  0  0  0  0  0  0  0
   50.1569    9.3432   17.0277 C   0  0  2  0  0  0  0  0  0  0  0  0
   49.0976   10.1679   17.7945 C   0  0  0  0  0  0  0  0  0  0  0  0
   47.9772    8.5215   21.6353 C   0  0  0  0  0  0  0  0  0  0  0  0
   47.9827    8.3955   19.2138 C   0  0  0  0  0  0  0  0  0  0  0  0
   49.0774   10.2336   20.3235 C   0  0  0  0  0  0  0  0  0  0  0  0
   48.1711   12.6703    8.5733 C   0  0  0  0  0  0  0  0  0  0  0  0
   47.6268    7.8654   20.4552 C   0  0  0  0  0  0  0  0  0  0  0  0
   48.7116    9.7051   21.5655 C   0  0  0  0  0  0  0  0  0  0  0  0
   51.5382    9.4523   17.6863 C   0  0  0  0  0  0  0  0  0  0  0  0
   47.6583    8.6621   23.9815 C   0  0  0  0  0  0  0  0  0  0  0  0
   49.1193    9.5099   15.8113 O   0  0  0  0  0  0  0  0  0  0  0  0
   48.9280   10.3145   15.3092 H   0  0  0  0  0  0  0  0  0  0  0  0
   48.8912    9.7460   16.7277 H   0  0  0  0  0  0  0  0  0  0  0  0
   51.5116   12.8040    9.2322 H   0  0  0  0  0  0  0  0  0  0  0  0
   47.6952    7.8534   13.6199 H   0  0  0  0  0  0  0  0  0  0  0  0
   48.0158   11.9911    9.8841 H   0  0  0  0  0  0  0  0  0  0  0  0
   46.8588    9.3824   15.5986 H   0  0  0  0  0  0  0  0  0  0  0  0
   48.1432   10.5714   11.5689 H   0  0  0  0  0  0  0  0  0  0  0  0
   49.9186    8.2866   13.9530 H   0  0  0  0  0  0  0  0  0  0  0  0
   51.9326    9.2415   13.0881 H   0  0  0  0  0  0  0  0  0  0  0  0
   53.0825   10.6418   11.4281 H   0  0  0  0  0  0  0  0  0  0  0  0
   49.2922   10.5324   15.0746 H   0  0  0  0  0  0  0  0  0  0  0  0
   47.8182   10.5305   14.1171 H   0  0  0  0  0  0  0  0  0  0  0  0
   48.4712   10.1518   17.2119 H   0  0  0  0  0  0  0  0  0  0  0  0
   47.4825    7.2977   17.8161 H   0  0  0  0  0  0  0  0  0  0  0  0
   46.3597    8.6222   17.6279 H   0  0  0  0  0  0  0  0  0  0  0  0
   46.4256   10.6335   19.1003 H   0  0  0  0  0  0  0  0  0  0  0  0
   48.7910    7.1205   19.9202 H   0  0  0  0  0  0  0  0  0  0  0  0
   48.3770   13.5477    8.3750 H   0  0  0  0  0  0  0  0  0  0  0  0
   46.7220   11.3651   21.4315 H   0  0  0  0  0  0  0  0  0  0  0  0
   49.0791    7.8446   22.2269 H   0  0  0  0  0  0  0  0  0  0  0  0
   50.1695    8.4637   17.9981 H   0  0  0  0  0  0  0  0  0  0  0  0
   49.7078    7.3836   16.6764 H   0  0  0  0  0  0  0  0  0  0  0  0
   50.4843    8.9445   16.3414 H   0  0  0  0  0  0  0  0  0  0  0  0
   48.6713    9.9593   25.1753 H   0  0  0  0  0  0  0  0  0  0  0  0
   49.7676    9.3161   23.9438 H   0  0  0  0  0  0  0  0  0  0  0  0
   48.2427    8.4420   24.3714 H   0  0  0  0  0  0  0  0  0  0  0  0
   48.7590   10.0925   19.3105 H   0  0  0  0  0  0  0  0  0  0  0  0
   49.2794    9.6322   12.5968 H   0  0  0  0  0  0  0  0  0  0  0  0
   48.6621   11.3080   15.5086 H   0  0  0  0  0  0  0  0  0  0  0  0
   49.2619    8.3982   16.3909 H   0  0  0  0  0  0  0  0  0  0  0  0
   46.3785   12.0376    9.8117 H   0  0  0  0  0  0  0  0  0  0  0  0
   52.6233   10.1329   13.6658 H   0  0  0  0  0  0  0  0  0  0  0  0
   49.9702   12.0463    9.2346 H   0  0  0  0  0  0  0  0  0  0  0  0
   50.7392   10.7146   15.5771 H   0  0  0  0  0  0  0  0  0  0  0  0
   50.7553   10.9355   10.9826 H   0  0  0  0  0  0  0  0  0  0  0  0
   51.2348    8.7113   12.5839 H   0  0  0  0  0  0  0  0  0  0  0  0
   48.1037    9.2648   13.9328 H   0  0  0  0  0  0  0  0  0  0  0  0
   46.1920   10.1247   12.6791 H   0  0  0  0  0  0  0  0  0  0  0  0
   51.6472    8.4911   14.9694 H   0  0  0  0  0  0  0  0  0  0  0  0
   49.9796    8.0222   14.6243 H   0  0  0  0  0  0  0  0  0  0  0  0
   49.8475    8.2905   17.0220 H   0  0  0  0  0  0  0  0  0  0  0  0
   49.4388   11.2054   17.9170 H   0  0  0  0  0  0  0  0  0  0  0  0
   48.1777   10.2306   17.1964 H   0  0  0  0  0  0  0  0  0  0  0  0
   47.6811    7.8756   18.3085 H   0  0  0  0  0  0  0  0  0  0  0  0
   49.6468   11.1594   20.2938 H   0  0  0  0  0  0  0  0  0  0  0  0
   48.7567   13.1139    7.7491 H   0  0  0  0  0  0  0  0  0  0  0  0
   47.0622    6.9361   20.4997 H   0  0  0  0  0  0  0  0  0  0  0  0
   49.0168   10.2379   22.4595 H   0  0  0  0  0  0  0  0  0  0  0  0
   51.5188    9.0623   18.7096 H   0  0  0  0  0  0  0  0  0  0  0  0
   51.8860   10.4912   17.7304 H   0  0  0  0  0  0  0  0  0  0  0  0
   52.2883    8.8739   17.1363 H   0  0  0  0  0  0  0  0  0  0  0  0
   48.7060    8.8102   24.2641 H   0  0  0  0  0  0  0  0  0  0  0  0
   47.1335    9.6219   23.8937 H   0  0  0  0  0  0  0  0  0  0  0  0
   47.1722    8.0918   24.7791 H   0  0  0  0  0  0  0  0  0  0  0  0
   48.8938    9.7394   16.7256 H   0  0  0  0  0  0  0  0  0  0  0  0
   48.9251   10.3205   15.3148 H   0  0  0  0  0  0  0  0  0  0  0  0
  2 10  1  0
  3 12  1  0
  4 19  1  0
  4 26  1  0
  5 22  2  0
  6  9  1  0
  6 22  1  0
  7 15  1  0
  7 17  1  0
  8 11  2  0
  8 12  1  0
  8 13  1  0
  9 10  2  0
  9 11  1  0
 10 14  1  0
 12 15  1  0
 13 14  2  0
 16 18  1  0
 16 20  2  0
 16 21  1  0
 17 18  1  0
 17 25  1  0
 19 23  2  0
 19 24  1  0
 20 23  1  0
 21 24  2  0
 27 31  1  0
 28 32  1  0
 29 31  2  0
 30 32  2  0
 31 33  1  0
 32 34  1  0
 33 34  2  0
 35 43  1  0
 36 45  1  0
 37 52  1  0
 37 59  1  0
 38 55  2  0
 39 42  1  0
 39 55  1  0
 40 48  1  0
 40 50  1  0
 41 44  2  0
 41 45  1  0
 41 46  1  0
 42 43  2  0
 42 44  1  0
 43 47  1  0
 45 48  1  0
 46 47  2  0
 49 51  1  0
 49 53  2  0
 49 54  1  0
 50 51  1  0
 50 58  1  0
 52 56  2  0
 52 57  1  0
 53 56  1  0
 54 57  2  0
  1 61  1  0
  1 62  1  0
  2 63  1  0
  3 64  1  0
  6 65  1  0
  7 66  1  0
 11 67  1  0
 12 68  1  1
 13 69  1  0
 14 70  1  0
 15 71  1  0
 15 72  1  0
 17 73  1  1
 18 74  1  0
 18 75  1  0
 20 76  1  0
 21 77  1  0
 22 78  1  0
 23 79  1  0
 24 80  1  0
 25 81  1  0
 25 82  1  0
 25 83  1  0
 26 84  1  0
 26 85  1  0
 26 86  1  0
 27 87  1  0
 28 88  1  0
 33 89  1  0
 34 90  1  0
 35 91  1  0
 36 92  1  0
 39 93  1  0
 40 94  1  0
 44 95  1  0
 45 96  1  1
 46 97  1  0
 47 98  1  0
 48 99  1  0
 48100  1  0
 50101  1  6
 51102  1  0
 51103  1  0
 53104  1  0
 54105  1  0
 55106  1  0
 56107  1  0
 57108  1  0
 58109  1  0
 58110  1  0
 58111  1  0
 59112  1  0
 59113  1  0
 59114  1  0
 60115  1  0
 60116  1  0
M  END
> <Uni-Dock RESULT> 
ENERGY=   -5.054  LOWER_BOUND=    3.200  UPPER_BOUND=    4.352
INTER + INTRA:          -5.054
INTER:                  -5.054
INTRA:                   0.000
UNBOUND:                 0.000

$$$$
