
     RDKit          3D

116115  0  0  0  0  0  0  0  0999 V2000
   50.0389    6.8375   15.6109 O   0  0  0  0  0  0  0  0  0  0  0  0
   52.4985    5.9769   20.6766 O   0  0  0  0  0  0  0  0  0  0  0  0
   52.0131   10.9034   16.8474 O   0  0  0  0  0  0  0  0  0  0  0  0
   44.3402    4.8957   11.9367 O   0  0  0  0  0  0  0  0  0  0  0  0
   56.1583    6.7666   17.3316 O   0  0  0  0  0  0  0  0  0  0  0  0
   54.5704    6.0352   18.8890 N   0  0  0  0  0  0  0  0  0  0  0  0
   51.0290    7.9834   14.7118 N   0  0  0  0  0  0  0  0  0  0  0  0
   52.2339    8.6168   17.4775 C   0  0  0  0  0  0  0  0  0  0  0  0
   53.4791    6.9039   18.6894 C   0  0  0  0  0  0  0  0  0  0  0  0
   52.4133    6.8124   19.5931 C   0  0  0  0  0  0  0  0  0  0  0  0
   53.3864    7.8188   17.6397 C   0  0  0  0  0  0  0  0  0  0  0  0
   52.1464    9.5830   16.3140 C   0  0  1  0  0  0  0  0  0  0  0  0
   51.1797    8.4894   18.3986 C   0  0  0  0  0  0  0  0  0  0  0  0
   51.2683    7.5868   19.4561 C   0  0  0  0  0  0  0  0  0  0  0  0
   50.9649    9.3043   15.3438 C   0  0  0  0  0  0  0  0  0  0  0  0
   47.4401    6.9265   13.8668 C   0  0  0  0  0  0  0  0  0  0  0  0
   49.8990    7.6384   13.8311 C   0  0  1  0  0  0  0  0  0  0  0  0
   48.5375    7.6955   14.5637 C   0  0  0  0  0  0  0  0  0  0  0  0
   45.3845    5.4761   12.6031 C   0  0  0  0  0  0  0  0  0  0  0  0
   47.3239    5.5419   14.0500 C   0  0  0  0  0  0  0  0  0  0  0  0
   46.5213    7.5768   13.0381 C   0  0  0  0  0  0  0  0  0  0  0  0
   55.7598    6.0078   18.2018 C   0  0  0  0  0  0  0  0  0  0  0  0
   46.3028    4.8205   13.4230 C   0  0  0  0  0  0  0  0  0  0  0  0
   45.5024    6.8547   12.4120 C   0  0  0  0  0  0  0  0  0  0  0  0
   49.9095    8.4753   12.5474 C   0  0  0  0  0  0  0  0  0  0  0  0
   44.1139    3.5133   12.1790 C   0  0  0  0  0  0  0  0  0  0  0  0
   52.1077    7.4313   17.3263 O   0  0  0  0  0  0  0  0  0  0  0  0
   47.4579    7.0313   13.8572 O   0  0  0  0  0  0  0  0  0  0  0  0
   51.5770    9.0294   15.8471 O   0  0  0  0  0  0  0  0  0  0  0  0
   48.0009    5.4223   15.3264 O   0  0  0  0  0  0  0  0  0  0  0  0
   51.3363    7.9565   16.3631 C   0  0  0  0  0  0  0  0  0  0  0  0
   48.2307    6.5029   14.8172 C   0  0  0  0  0  0  0  0  0  0  0  0
   50.2236    7.0555   16.0608 C   0  0  0  0  0  0  0  0  0  0  0  0
   49.3364    7.4103   15.1243 C   0  0  0  0  0  0  0  0  0  0  0  0
   55.9883    7.3936   20.0083 O   0  0  0  0  0  0  0  0  0  0  0  0
   50.5822    6.6508   16.9456 O   0  0  0  0  0  0  0  0  0  0  0  0
   43.6867    4.7590   12.8845 O   0  0  0  0  0  0  0  0  0  0  0  0
   52.9999   11.1199   18.5382 O   0  0  0  0  0  0  0  0  0  0  0  0
   54.5141    9.5737   19.4261 N   0  0  0  0  0  0  0  0  0  0  0  0
   50.9363    7.6612   13.9363 N   0  0  0  0  0  0  0  0  0  0  0  0
   52.9215    6.9905   17.2137 C   0  0  0  0  0  0  0  0  0  0  0  0
   54.1979    8.3662   18.7707 C   0  0  0  0  0  0  0  0  0  0  0  0
   54.9782    7.2463   19.0899 C   0  0  0  0  0  0  0  0  0  0  0  0
   53.1677    8.2291   17.8378 C   0  0  0  0  0  0  0  0  0  0  0  0
   51.7963    6.8106   16.2098 C   0  0  2  0  0  0  0  0  0  0  0  0
   53.7141    5.8848   17.5664 C   0  0  0  0  0  0  0  0  0  0  0  0
   54.7429    6.0084   18.5000 C   0  0  0  0  0  0  0  0  0  0  0  0
   51.6795    7.9672   15.1751 C   0  0  0  0  0  0  0  0  0  0  0  0
   47.5310    6.3898   12.7564 C   0  0  0  0  0  0  0  0  0  0  0  0
   49.5008    7.3547   14.1076 C   0  0  2  0  0  0  0  0  0  0  0  0
   48.9397    6.9396   12.7203 C   0  0  0  0  0  0  0  0  0  0  0  0
   44.9090    5.3684   12.7998 C   0  0  0  0  0  0  0  0  0  0  0  0
   46.4752    7.1080   12.1838 C   0  0  0  0  0  0  0  0  0  0  0  0
   47.2627    5.1531   13.3566 C   0  0  0  0  0  0  0  0  0  0  0  0
   53.9222   10.8016   19.2725 C   0  0  0  0  0  0  0  0  0  0  0  0
   45.1710    6.6017   12.2089 C   0  0  0  0  0  0  0  0  0  0  0  0
   45.9611    4.6513   13.3762 C   0  0  0  0  0  0  0  0  0  0  0  0
   48.7272    8.5567   14.6664 C   0  0  0  0  0  0  0  0  0  0  0  0
   42.5964    5.4109   12.2474 C   0  0  0  0  0  0  0  0  0  0  0  0
   49.9423    6.7902   15.5538 O   0  0  0  0  0  0  0  0  0  0  0  0
   49.2949    6.9221   14.9956 H   0  0  0  0  0  0  0  0  0  0  0  0
   50.4576    7.7114   15.5982 H   0  0  0  0  0  0  0  0  0  0  0  0
   53.1696    6.3950   21.2547 H   0  0  0  0  0  0  0  0  0  0  0  0
   52.2833   11.5160   16.1459 H   0  0  0  0  0  0  0  0  0  0  0  0
   54.4292    5.3261   19.5994 H   0  0  0  0  0  0  0  0  0  0  0  0
   51.9059    7.8798   14.2045 H   0  0  0  0  0  0  0  0  0  0  0  0
   54.1964    7.9152   16.9229 H   0  0  0  0  0  0  0  0  0  0  0  0
   53.0824    9.5609   15.7412 H   0  0  0  0  0  0  0  0  0  0  0  0
   50.2899    9.1075   18.2949 H   0  0  0  0  0  0  0  0  0  0  0  0
   50.4537    7.4969   20.1686 H   0  0  0  0  0  0  0  0  0  0  0  0
   50.0275    9.4300   15.8952 H   0  0  0  0  0  0  0  0  0  0  0  0
   50.9739   10.0879   14.5781 H   0  0  0  0  0  0  0  0  0  0  0  0
   50.0769    6.5971   13.5317 H   0  0  0  0  0  0  0  0  0  0  0  0
   48.2145    8.7354   14.7068 H   0  0  0  0  0  0  0  0  0  0  0  0
   48.6411    7.2763   15.5749 H   0  0  0  0  0  0  0  0  0  0  0  0
   48.0253    5.0126   14.6944 H   0  0  0  0  0  0  0  0  0  0  0  0
   46.5839    8.6507   12.8791 H   0  0  0  0  0  0  0  0  0  0  0  0
   56.3876    5.1720   18.5553 H   0  0  0  0  0  0  0  0  0  0  0  0
   46.2484    3.7525   13.6030 H   0  0  0  0  0  0  0  0  0  0  0  0
   44.7924    7.3716   11.7710 H   0  0  0  0  0  0  0  0  0  0  0  0
   50.8997    8.4617   12.0809 H   0  0  0  0  0  0  0  0  0  0  0  0
   49.6342    9.5179   12.7309 H   0  0  0  0  0  0  0  0  0  0  0  0
   49.2057    8.0714   11.8128 H   0  0  0  0  0  0  0  0  0  0  0  0
   44.9574    2.9115   11.8247 H   0  0  0  0  0  0  0  0  0  0  0  0
   43.9092    3.3225   13.2382 H   0  0  0  0  0  0  0  0  0  0  0  0
   43.2284    3.2160   11.6094 H   0  0  0  0  0  0  0  0  0  0  0  0
   52.8199    8.0934   17.4496 H   0  0  0  0  0  0  0  0  0  0  0  0
   46.7589    6.3606   13.7084 H   0  0  0  0  0  0  0  0  0  0  0  0
   50.1628    6.1223   16.6080 H   0  0  0  0  0  0  0  0  0  0  0  0
   49.3967    8.3417   14.5738 H   0  0  0  0  0  0  0  0  0  0  0  0
   56.4280    6.5323   20.1118 H   0  0  0  0  0  0  0  0  0  0  0  0
   50.5260    7.3983   17.5646 H   0  0  0  0  0  0  0  0  0  0  0  0
   55.2919    9.4978   20.0740 H   0  0  0  0  0  0  0  0  0  0  0  0
   51.3861    6.8682   13.4785 H   0  0  0  0  0  0  0  0  0  0  0  0
   52.5409    9.0798   17.5925 H   0  0  0  0  0  0  0  0  0  0  0  0
   51.9622    5.8788   15.6547 H   0  0  0  0  0  0  0  0  0  0  0  0
   53.5257    4.9111   17.1168 H   0  0  0  0  0  0  0  0  0  0  0  0
   55.3390    5.1377   18.7517 H   0  0  0  0  0  0  0  0  0  0  0  0
   51.2594    8.8666   15.6400 H   0  0  0  0  0  0  0  0  0  0  0  0
   52.6915    8.2422   14.8520 H   0  0  0  0  0  0  0  0  0  0  0  0
   49.3848    6.5035   14.7869 H   0  0  0  0  0  0  0  0  0  0  0  0
   48.9966    7.7907   12.0252 H   0  0  0  0  0  0  0  0  0  0  0  0
   49.5778    6.1600   12.2787 H   0  0  0  0  0  0  0  0  0  0  0  0
   46.6589    8.0731   11.7131 H   0  0  0  0  0  0  0  0  0  0  0  0
   48.0653    4.5740   13.8095 H   0  0  0  0  0  0  0  0  0  0  0  0
   54.4033   11.5494   19.9285 H   0  0  0  0  0  0  0  0  0  0  0  0
   44.3862    7.1969   11.7580 H   0  0  0  0  0  0  0  0  0  0  0  0
   45.7668    3.6901   13.8449 H   0  0  0  0  0  0  0  0  0  0  0  0
   49.0678    8.8244   15.6712 H   0  0  0  0  0  0  0  0  0  0  0  0
   48.8403    9.4353   14.0217 H   0  0  0  0  0  0  0  0  0  0  0  0
   47.6577    8.3345   14.7506 H   0  0  0  0  0  0  0  0  0  0  0  0
   42.7682    5.5219   11.1698 H   0  0  0  0  0  0  0  0  0  0  0  0
   42.3879    6.3804   12.7148 H   0  0  0  0  0  0  0  0  0  0  0  0
   41.7092    4.7826   12.3770 H   0  0  0  0  0  0  0  0  0  0  0  0
   50.5416    7.5302   15.7345 H   0  0  0  0  0  0  0  0  0  0  0  0
   49.3073    7.1504   14.9163 H   0  0  0  0  0  0  0  0  0  0  0  0
  2 10  1  0
  3 12  1  0
  4 19  1  0
  4 26  1  0
  5 22  2  0
  6  9  1  0
  6 22  1  0
  7 15  1  0
  7 17  1  0
  8 11  2  0
  8 12  1  0
  8 13  1  0
  9 10  2  0
  9 11  1  0
 10 14  1  0
 12 15  1  0
 13 14  2  0
 16 18  1  0
 16 20  2  0
 16 21  1  0
 17 18  1  0
 17 25  1  0
 19 23  2  0
 19 24  1  0
 20 23  1  0
 21 24  2  0
 27 31  1  0
 28 32  1  0
 29 31  2  0
 30 32  2  0
 31 33  1  0
 32 34  1  0
 33 34  2  0
 35 43  1  0
 36 45  1  0
 37 52  1  0
 37 59  1  0
 38 55  2  0
 39 42  1  0
 39 55  1  0
 40 48  1  0
 40 50  1  0
 41 44  2  0
 41 45  1  0
 41 46  1  0
 42 43  2  0
 42 44  1  0
 43 47  1  0
 45 48  1  0
 46 47  2  0
 49 51  1  0
 49 53  2  0
 49 54  1  0
 50 51  1  0
 50 58  1  0
 52 56  2  0
 52 57  1  0
 53 56  1  0
 54 57  2  0
  1 61  1  0
  1 62  1  0
  2 63  1  0
  3 64  1  0
  6 65  1  0
  7 66  1  0
 11 67  1  0
 12 68  1  6
 13 69  1  0
 14 70  1  0
 15 71  1  0
 15 72  1  0
 17 73  1  6
 18 74  1  0
 18 75  1  0
 20 76  1  0
 21 77  1  0
 22 78  1  0
 23 79  1  0
 24 80  1  0
 25 81  1  0
 25 82  1  0
 25 83  1  0
 26 84  1  0
 26 85  1  0
 26 86  1  0
 27 87  1  0
 28 88  1  0
 33 89  1  0
 34 90  1  0
 35 91  1  0
 36 92  1  0
 39 93  1  0
 40 94  1  0
 44 95  1  0
 45 96  1  6
 46 97  1  0
 47 98  1  0
 48 99  1  0
 48100  1  0
 50101  1  1
 51102  1  0
 51103  1  0
 53104  1  0
 54105  1  0
 55106  1  0
 56107  1  0
 57108  1  0
 58109  1  0
 58110  1  0
 58111  1  0
 59112  1  0
 59113  1  0
 59114  1  0
 60115  1  0
 60116  1  0
M  END
> <Uni-Dock RESULT> 
ENERGY=   -6.804  LOWER_BOUND=    0.000  UPPER_BOUND=    0.000
INTER + INTRA:          -6.804
INTER:                  -6.804
INTRA:                   0.000
UNBOUND:                 0.000

$$$$

     RDKit          3D

116115  0  0  0  0  0  0  0  0999 V2000
   49.4017    7.8080   15.3891 O   0  0  0  0  0  0  0  0  0  0  0  0
   49.6943    5.2048   20.4477 O   0  0  0  0  0  0  0  0  0  0  0  0
   53.3162    9.3417   17.4584 O   0  0  0  0  0  0  0  0  0  0  0  0
   44.6473   10.5084   10.9338 O   0  0  0  0  0  0  0  0  0  0  0  0
   53.4717    3.4701   17.6320 O   0  0  0  0  0  0  0  0  0  0  0  0
   51.5546    3.9339   18.8934 N   0  0  0  0  0  0  0  0  0  0  0  0
   51.0438    8.0162   14.7874 N   0  0  0  0  0  0  0  0  0  0  0  0
   51.8387    7.4915   17.7190 C   0  0  0  0  0  0  0  0  0  0  0  0
   51.3798    5.3237   18.7405 C   0  0  0  0  0  0  0  0  0  0  0  0
   50.3847    5.9337   19.5142 C   0  0  0  0  0  0  0  0  0  0  0  0
   52.1117    6.1135   17.8526 C   0  0  0  0  0  0  0  0  0  0  0  0
   52.6291    8.3216   16.7284 C   0  0  1  0  0  0  0  0  0  0  0  0
   50.8250    8.0665   18.5049 C   0  0  0  0  0  0  0  0  0  0  0  0
   50.0970    7.2879   19.4021 C   0  0  0  0  0  0  0  0  0  0  0  0
   51.7635    8.9836   15.6205 C   0  0  0  0  0  0  0  0  0  0  0  0
   47.8952    9.7520   13.4514 C   0  0  0  0  0  0  0  0  0  0  0  0
   50.1551    8.5896   13.7611 C   0  0  1  0  0  0  0  0  0  0  0  0
   49.0759    9.5199   14.3642 C   0  0  0  0  0  0  0  0  0  0  0  0
   45.6694   10.1772   11.7806 C   0  0  0  0  0  0  0  0  0  0  0  0
   46.8555    8.8141   13.3913 C   0  0  0  0  0  0  0  0  0  0  0  0
   47.8132   10.9016   12.6604 C   0  0  0  0  0  0  0  0  0  0  0  0
   52.5209    3.1404   18.3240 C   0  0  0  0  0  0  0  0  0  0  0  0
   45.7492    9.0246   12.5620 C   0  0  0  0  0  0  0  0  0  0  0  0
   46.7078   11.1100   11.8321 C   0  0  0  0  0  0  0  0  0  0  0  0
   50.9518    9.2657   12.6402 C   0  0  0  0  0  0  0  0  0  0  0  0
   43.5188    9.6440   10.9220 C   0  0  0  0  0  0  0  0  0  0  0  0
   50.9848    6.7247   17.3627 O   0  0  0  0  0  0  0  0  0  0  0  0
   47.9796    9.8167   13.4608 O   0  0  0  0  0  0  0  0  0  0  0  0
   51.9324    8.3357   16.1258 O   0  0  0  0  0  0  0  0  0  0  0  0
   47.0355    8.1897   14.6873 O   0  0  0  0  0  0  0  0  0  0  0  0
   50.9503    7.6903   16.4326 C   0  0  0  0  0  0  0  0  0  0  0  0
   48.0136    8.8478   14.3874 C   0  0  0  0  0  0  0  0  0  0  0  0
   49.5994    7.8140   15.8840 C   0  0  0  0  0  0  0  0  0  0  0  0
   49.3628    8.7334   14.9412 C   0  0  0  0  0  0  0  0  0  0  0  0
   53.2837    3.8865   20.3482 O   0  0  0  0  0  0  0  0  0  0  0  0
   49.4297    7.2229   16.7188 O   0  0  0  0  0  0  0  0  0  0  0  0
   43.9124   10.8009   11.7814 O   0  0  0  0  0  0  0  0  0  0  0  0
   53.8695    8.7257   19.2455 O   0  0  0  0  0  0  0  0  0  0  0  0
   53.7747    6.5140   20.0012 N   0  0  0  0  0  0  0  0  0  0  0  0
   50.9019    7.8905   13.9640 N   0  0  0  0  0  0  0  0  0  0  0  0
   51.3002    5.8540   17.2544 C   0  0  0  0  0  0  0  0  0  0  0  0
   52.8596    5.8905   19.1287 C   0  0  0  0  0  0  0  0  0  0  0  0
   52.6204    4.5239   19.3288 C   0  0  0  0  0  0  0  0  0  0  0  0
   52.1910    6.5498   18.0949 C   0  0  0  0  0  0  0  0  0  0  0  0
   50.5473    6.5514   16.1349 C   0  0  2  0  0  0  0  0  0  0  0  0
   51.0734    4.4874   17.4909 C   0  0  0  0  0  0  0  0  0  0  0  0
   51.7317    3.8191   18.5230 C   0  0  0  0  0  0  0  0  0  0  0  0
   51.4200    7.5325   15.2997 C   0  0  0  0  0  0  0  0  0  0  0  0
   47.8037    9.3642   12.2807 C   0  0  0  0  0  0  0  0  0  0  0  0
   49.6280    8.6397   13.9489 C   0  0  2  0  0  0  0  0  0  0  0  0
   49.1958    8.8025   12.4662 C   0  0  0  0  0  0  0  0  0  0  0  0
   45.2182   10.4127   11.9120 C   0  0  0  0  0  0  0  0  0  0  0  0
   47.6215   10.6420   11.7398 C   0  0  0  0  0  0  0  0  0  0  0  0
   46.6772    8.6136   12.6405 C   0  0  0  0  0  0  0  0  0  0  0  0
   54.1923    7.8206   19.9990 C   0  0  0  0  0  0  0  0  0  0  0  0
   46.3361   11.1646   11.5601 C   0  0  0  0  0  0  0  0  0  0  0  0
   45.3976    9.1381   12.4564 C   0  0  0  0  0  0  0  0  0  0  0  0
   49.7684   10.0103   14.6251 C   0  0  0  0  0  0  0  0  0  0  0  0
   43.6728   12.0577   11.1631 C   0  0  0  0  0  0  0  0  0  0  0  0
   49.3106    7.8430   15.3162 O   0  0  0  0  0  0  0  0  0  0  0  0
   49.0307    8.4143   14.7302 H   0  0  0  0  0  0  0  0  0  0  0  0
   50.2892    8.1578   15.5598 H   0  0  0  0  0  0  0  0  0  0  0  0
   50.3541    5.0161   21.1465 H   0  0  0  0  0  0  0  0  0  0  0  0
   54.0464    9.6432   16.8960 H   0  0  0  0  0  0  0  0  0  0  0  0
   50.8518    3.4736   19.4606 H   0  0  0  0  0  0  0  0  0  0  0  0
   51.7007    7.3705   14.3530 H   0  0  0  0  0  0  0  0  0  0  0  0
   52.8912    5.6712   17.2396 H   0  0  0  0  0  0  0  0  0  0  0  0
   53.3949    7.6986   16.2488 H   0  0  0  0  0  0  0  0  0  0  0  0
   50.6117    9.1305   18.4233 H   0  0  0  0  0  0  0  0  0  0  0  0
   49.3191    7.7384   20.0116 H   0  0  0  0  0  0  0  0  0  0  0  0
   51.0695    9.6842   16.0962 H   0  0  0  0  0  0  0  0  0  0  0  0
   52.4302    9.5918   14.9993 H   0  0  0  0  0  0  0  0  0  0  0  0
   49.6440    7.7283   13.3113 H   0  0  0  0  0  0  0  0  0  0  0  0
   49.5093   10.4886   14.6470 H   0  0  0  0  0  0  0  0  0  0  0  0
   48.6892    9.0853   15.2973 H   0  0  0  0  0  0  0  0  0  0  0  0
   46.8941    7.9120   14.0012 H   0  0  0  0  0  0  0  0  0  0  0  0
   48.6027   11.6488   12.6878 H   0  0  0  0  0  0  0  0  0  0  0  0
   52.3544    2.0827   18.5908 H   0  0  0  0  0  0  0  0  0  0  0  0
   44.9657    8.2749   12.5569 H   0  0  0  0  0  0  0  0  0  0  0  0
   46.6540   12.0089   11.2226 H   0  0  0  0  0  0  0  0  0  0  0  0
   51.7434    8.6056   12.2713 H   0  0  0  0  0  0  0  0  0  0  0  0
   51.4142   10.2014   12.9675 H   0  0  0  0  0  0  0  0  0  0  0  0
   50.3060    9.4963   11.7870 H   0  0  0  0  0  0  0  0  0  0  0  0
   43.7920    8.6500   10.5525 H   0  0  0  0  0  0  0  0  0  0  0  0
   43.0525    9.5836   11.9115 H   0  0  0  0  0  0  0  0  0  0  0  0
   42.7827   10.0667   10.2317 H   0  0  0  0  0  0  0  0  0  0  0  0
   51.9190    6.7117   17.6591 H   0  0  0  0  0  0  0  0  0  0  0  0
   47.0538    9.8158   13.1392 H   0  0  0  0  0  0  0  0  0  0  0  0
   48.8349    7.1452   16.2612 H   0  0  0  0  0  0  0  0  0  0  0  0
   50.1263    9.4013   14.5604 H   0  0  0  0  0  0  0  0  0  0  0  0
   53.0093    2.9535   20.3479 H   0  0  0  0  0  0  0  0  0  0  0  0
   49.7754    7.7688   17.4452 H   0  0  0  0  0  0  0  0  0  0  0  0
   54.1700    5.8890   20.6966 H   0  0  0  0  0  0  0  0  0  0  0  0
   50.7815    7.0328   13.4248 H   0  0  0  0  0  0  0  0  0  0  0  0
   52.3486    7.6114   17.9369 H   0  0  0  0  0  0  0  0  0  0  0  0
   50.1466    5.7927   15.4510 H   0  0  0  0  0  0  0  0  0  0  0  0
   50.3694    3.9344   16.8708 H   0  0  0  0  0  0  0  0  0  0  0  0
   51.5375    2.7636   18.6811 H   0  0  0  0  0  0  0  0  0  0  0  0
   51.6315    8.4467   15.8662 H   0  0  0  0  0  0  0  0  0  0  0  0
   52.3938    7.0589   15.1213 H   0  0  0  0  0  0  0  0  0  0  0  0
   48.8545    8.0606   14.4644 H   0  0  0  0  0  0  0  0  0  0  0  0
   49.9294    9.4228   11.9299 H   0  0  0  0  0  0  0  0  0  0  0  0
   49.2176    7.8248   11.9625 H   0  0  0  0  0  0  0  0  0  0  0  0
   48.4824   11.2455   11.4542 H   0  0  0  0  0  0  0  0  0  0  0  0
   46.7905    7.6172   13.0634 H   0  0  0  0  0  0  0  0  0  0  0  0
   54.9203    7.9970   20.8113 H   0  0  0  0  0  0  0  0  0  0  0  0
   46.2461   12.1604   11.1434 H   0  0  0  0  0  0  0  0  0  0  0  0
   44.5320    8.5449   12.7396 H   0  0  0  0  0  0  0  0  0  0  0  0
   50.0121    9.9134   15.6874 H   0  0  0  0  0  0  0  0  0  0  0  0
   50.5520   10.6093   14.1479 H   0  0  0  0  0  0  0  0  0  0  0  0
   48.8314   10.5754   14.5722 H   0  0  0  0  0  0  0  0  0  0  0  0
   44.0654   12.0837   10.1392 H   0  0  0  0  0  0  0  0  0  0  0  0
   44.0837   12.8781   11.7632 H   0  0  0  0  0  0  0  0  0  0  0  0
   42.5889   12.2003   11.1045 H   0  0  0  0  0  0  0  0  0  0  0  0
   50.2047    7.9606   15.6715 H   0  0  0  0  0  0  0  0  0  0  0  0
   49.2061    8.5764   14.6913 H   0  0  0  0  0  0  0  0  0  0  0  0
  2 10  1  0
  3 12  1  0
  4 19  1  0
  4 26  1  0
  5 22  2  0
  6  9  1  0
  6 22  1  0
  7 15  1  0
  7 17  1  0
  8 11  2  0
  8 12  1  0
  8 13  1  0
  9 10  2  0
  9 11  1  0
 10 14  1  0
 12 15  1  0
 13 14  2  0
 16 18  1  0
 16 20  2  0
 16 21  1  0
 17 18  1  0
 17 25  1  0
 19 23  2  0
 19 24  1  0
 20 23  1  0
 21 24  2  0
 27 31  1  0
 28 32  1  0
 29 31  2  0
 30 32  2  0
 31 33  1  0
 32 34  1  0
 33 34  2  0
 35 43  1  0
 36 45  1  0
 37 52  1  0
 37 59  1  0
 38 55  2  0
 39 42  1  0
 39 55  1  0
 40 48  1  0
 40 50  1  0
 41 44  2  0
 41 45  1  0
 41 46  1  0
 42 43  2  0
 42 44  1  0
 43 47  1  0
 45 48  1  0
 46 47  2  0
 49 51  1  0
 49 53  2  0
 49 54  1  0
 50 51  1  0
 50 58  1  0
 52 56  2  0
 52 57  1  0
 53 56  1  0
 54 57  2  0
  1 61  1  0
  1 62  1  0
  2 63  1  0
  3 64  1  0
  6 65  1  0
  7 66  1  0
 11 67  1  0
 12 68  1  6
 13 69  1  0
 14 70  1  0
 15 71  1  0
 15 72  1  0
 17 73  1  6
 18 74  1  0
 18 75  1  0
 20 76  1  0
 21 77  1  0
 22 78  1  0
 23 79  1  0
 24 80  1  0
 25 81  1  0
 25 82  1  0
 25 83  1  0
 26 84  1  0
 26 85  1  0
 26 86  1  0
 27 87  1  0
 28 88  1  0
 33 89  1  0
 34 90  1  0
 35 91  1  0
 36 92  1  0
 39 93  1  0
 40 94  1  0
 44 95  1  0
 45 96  1  6
 46 97  1  0
 47 98  1  0
 48 99  1  0
 48100  1  0
 50101  1  1
 51102  1  0
 51103  1  0
 53104  1  0
 54105  1  0
 55106  1  0
 56107  1  0
 57108  1  0
 58109  1  0
 58110  1  0
 58111  1  0
 59112  1  0
 59113  1  0
 59114  1  0
 60115  1  0
 60116  1  0
M  END
> <Uni-Dock RESULT> 
ENERGY=   -6.051  LOWER_BOUND=    2.347  UPPER_BOUND=    3.137
INTER + INTRA:          -6.051
INTER:                  -6.051
INTRA:                   0.000
UNBOUND:                 0.000

$$$$

     RDKit          3D

116115  0  0  0  0  0  0  0  0999 V2000
   47.9404   11.5763   12.9161 O   0  0  0  0  0  0  0  0  0  0  0  0
   48.0906   17.0332   11.2879 O   0  0  0  0  0  0  0  0  0  0  0  0
   52.4547   12.8316   12.8591 O   0  0  0  0  0  0  0  0  0  0  0  0
   44.3282    5.6409   11.7043 O   0  0  0  0  0  0  0  0  0  0  0  0
   49.6004   16.8390   16.0722 O   0  0  0  0  0  0  0  0  0  0  0  0
   48.5781   17.0884   13.9807 N   0  0  0  0  0  0  0  0  0  0  0  0
   49.2465   11.3151   14.0685 N   0  0  0  0  0  0  0  0  0  0  0  0
   50.3536   13.9522   12.9186 C   0  0  0  0  0  0  0  0  0  0  0  0
   49.1129   16.0318   13.2171 C   0  0  0  0  0  0  0  0  0  0  0  0
   48.8018   16.0059   11.8520 C   0  0  0  0  0  0  0  0  0  0  0  0
   49.9007   15.0058   13.7409 C   0  0  0  0  0  0  0  0  0  0  0  0
   51.1848   12.8360   13.5171 C   0  0  1  0  0  0  0  0  0  0  0  0
   50.0122   13.9546   11.5550 C   0  0  0  0  0  0  0  0  0  0  0  0
   49.2356   14.9807   11.0212 C   0  0  0  0  0  0  0  0  0  0  0  0
   50.5415   11.4269   13.3914 C   0  0  0  0  0  0  0  0  0  0  0  0
   47.2265    8.5977   12.2666 C   0  0  0  0  0  0  0  0  0  0  0  0
   48.5588   10.0194   13.9273 C   0  0  1  0  0  0  0  0  0  0  0  0
   48.3016    9.6427   12.4489 C   0  0  0  0  0  0  0  0  0  0  0  0
   45.2058    6.6723   11.8979 C   0  0  0  0  0  0  0  0  0  0  0  0
   45.8752    8.9697   12.2627 C   0  0  0  0  0  0  0  0  0  0  0  0
   47.5558    7.2505   12.0919 C   0  0  0  0  0  0  0  0  0  0  0  0
   48.8215   17.3783   15.3014 C   0  0  0  0  0  0  0  0  0  0  0  0
   44.8707    8.0141   12.0791 C   0  0  0  0  0  0  0  0  0  0  0  0
   46.5511    6.2971   11.9094 C   0  0  0  0  0  0  0  0  0  0  0  0
   49.2837    8.9102   14.6972 C   0  0  0  0  0  0  0  0  0  0  0  0
   42.9538    5.9829   11.5812 C   0  0  0  0  0  0  0  0  0  0  0  0
   49.1697   14.0312   13.1090 O   0  0  0  0  0  0  0  0  0  0  0  0
   47.3314    8.5784   12.2704 O   0  0  0  0  0  0  0  0  0  0  0  0
   50.4713   12.2531   13.5180 O   0  0  0  0  0  0  0  0  0  0  0  0
   46.0218   10.3600   11.8786 O   0  0  0  0  0  0  0  0  0  0  0  0
   49.4087   12.7122   13.1500 C   0  0  0  0  0  0  0  0  0  0  0  0
   47.0893    9.8969   12.2330 C   0  0  0  0  0  0  0  0  0  0  0  0
   48.2282   11.9716   12.7040 C   0  0  0  0  0  0  0  0  0  0  0  0
   48.2745   10.6349   12.6698 C   0  0  0  0  0  0  0  0  0  0  0  0
   50.3324   18.5132   14.0111 O   0  0  0  0  0  0  0  0  0  0  0  0
   47.9909   12.9363   12.4070 O   0  0  0  0  0  0  0  0  0  0  0  0
   44.0854    5.9271   10.6074 O   0  0  0  0  0  0  0  0  0  0  0  0
   53.0334   14.6465   12.3586 O   0  0  0  0  0  0  0  0  0  0  0  0
   52.0031   16.6307   13.0466 N   0  0  0  0  0  0  0  0  0  0  0  0
   48.8616   10.7691   14.5859 N   0  0  0  0  0  0  0  0  0  0  0  0
   48.9532   14.5836   13.8282 C   0  0  0  0  0  0  0  0  0  0  0  0
   50.7152   16.2271   13.4537 C   0  0  0  0  0  0  0  0  0  0  0  0
   49.8643   17.2237   13.9516 C   0  0  0  0  0  0  0  0  0  0  0  0
   50.2505   14.9117   13.3885 C   0  0  0  0  0  0  0  0  0  0  0  0
   48.4177   13.1646   13.7511 C   0  0  2  0  0  0  0  0  0  0  0  0
   48.1214   15.6092   14.3096 C   0  0  0  0  0  0  0  0  0  0  0  0
   48.5727   16.9272   14.3753 C   0  0  0  0  0  0  0  0  0  0  0  0
   49.4327   12.0785   14.2116 C   0  0  0  0  0  0  0  0  0  0  0  0
   46.6621    7.9797   13.1770 C   0  0  0  0  0  0  0  0  0  0  0  0
   48.1985   10.0226   13.4964 C   0  0  2  0  0  0  0  0  0  0  0  0
   47.5610    8.7504   14.1182 C   0  0  0  0  0  0  0  0  0  0  0  0
   44.9893    6.5273   11.4413 C   0  0  0  0  0  0  0  0  0  0  0  0
   47.0371    6.7118   12.7184 C   0  0  0  0  0  0  0  0  0  0  0  0
   45.4399    8.5188   12.7555 C   0  0  0  0  0  0  0  0  0  0  0  0
   53.0184   15.8522   12.5519 C   0  0  0  0  0  0  0  0  0  0  0  0
   46.2070    5.9915   11.8524 C   0  0  0  0  0  0  0  0  0  0  0  0
   44.6145    7.7952   11.8945 C   0  0  0  0  0  0  0  0  0  0  0  0
   49.1870    9.6444   12.3849 C   0  0  0  0  0  0  0  0  0  0  0  0
   44.3833    4.6054   10.1787 C   0  0  0  0  0  0  0  0  0  0  0  0
   47.8657   11.4827   12.8941 O   0  0  0  0  0  0  0  0  0  0  0  0
   47.7854   10.6264   12.8015 H   0  0  0  0  0  0  0  0  0  0  0  0
   48.8912   11.6417   13.0921 H   0  0  0  0  0  0  0  0  0  0  0  0
   48.7076   17.7937   11.3021 H   0  0  0  0  0  0  0  0  0  0  0  0
   53.0702   12.3632   13.4441 H   0  0  0  0  0  0  0  0  0  0  0  0
   47.9045   17.6698   13.4950 H   0  0  0  0  0  0  0  0  0  0  0  0
   49.3455   11.5474   15.0551 H   0  0  0  0  0  0  0  0  0  0  0  0
   50.1610   14.9977   14.7950 H   0  0  0  0  0  0  0  0  0  0  0  0
   51.3737   13.0412   14.5786 H   0  0  0  0  0  0  0  0  0  0  0  0
   50.3651   13.1563   10.9051 H   0  0  0  0  0  0  0  0  0  0  0  0
   48.9800   14.9812    9.9657 H   0  0  0  0  0  0  0  0  0  0  0  0
   50.4506   11.1817   12.3283 H   0  0  0  0  0  0  0  0  0  0  0  0
   51.2484   10.7022   13.8104 H   0  0  0  0  0  0  0  0  0  0  0  0
   47.5844   10.1579   14.4139 H   0  0  0  0  0  0  0  0  0  0  0  0
   49.2262    9.2969   11.9675 H   0  0  0  0  0  0  0  0  0  0  0  0
   47.9911   10.5349   11.8861 H   0  0  0  0  0  0  0  0  0  0  0  0
   45.5930   10.0140   12.3927 H   0  0  0  0  0  0  0  0  0  0  0  0
   48.5954    6.9318   12.0872 H   0  0  0  0  0  0  0  0  0  0  0  0
   48.2059   18.2349   15.6255 H   0  0  0  0  0  0  0  0  0  0  0  0
   43.8402    8.3519   12.0743 H   0  0  0  0  0  0  0  0  0  0  0  0
   46.8194    5.2523   11.7727 H   0  0  0  0  0  0  0  0  0  0  0  0
   49.5020    9.2255   15.7225 H   0  0  0  0  0  0  0  0  0  0  0  0
   50.2261    8.6242   14.2213 H   0  0  0  0  0  0  0  0  0  0  0  0
   48.6615    8.0123   14.7657 H   0  0  0  0  0  0  0  0  0  0  0  0
   42.5745    6.4173   12.5121 H   0  0  0  0  0  0  0  0  0  0  0  0
   42.7848    6.6556   10.7332 H   0  0  0  0  0  0  0  0  0  0  0  0
   42.3968    5.0605   11.3914 H   0  0  0  0  0  0  0  0  0  0  0  0
   50.0029   14.4353   13.4303 H   0  0  0  0  0  0  0  0  0  0  0  0
   46.4917    8.1667   11.9773 H   0  0  0  0  0  0  0  0  0  0  0  0
   47.3496   12.5391   12.4212 H   0  0  0  0  0  0  0  0  0  0  0  0
   49.1511   10.0651   12.9548 H   0  0  0  0  0  0  0  0  0  0  0  0
   49.6265   19.0723   14.3784 H   0  0  0  0  0  0  0  0  0  0  0  0
   48.7355   13.1749   11.8292 H   0  0  0  0  0  0  0  0  0  0  0  0
   52.1775   17.6241   13.1613 H   0  0  0  0  0  0  0  0  0  0  0  0
   48.1876   10.9149   15.3378 H   0  0  0  0  0  0  0  0  0  0  0  0
   50.8876   14.1303   12.9882 H   0  0  0  0  0  0  0  0  0  0  0  0
   47.5289   13.0860   14.3896 H   0  0  0  0  0  0  0  0  0  0  0  0
   47.1055   15.3841   14.6306 H   0  0  0  0  0  0  0  0  0  0  0  0
   47.9086   17.6977   14.7525 H   0  0  0  0  0  0  0  0  0  0  0  0
   50.2174   11.9331   13.4602 H   0  0  0  0  0  0  0  0  0  0  0  0
   49.9438   12.4455   15.1107 H   0  0  0  0  0  0  0  0  0  0  0  0
   47.3928   10.6305   13.0711 H   0  0  0  0  0  0  0  0  0  0  0  0
   48.3499    8.0925   14.5124 H   0  0  0  0  0  0  0  0  0  0  0  0
   46.9506    9.0280   14.9902 H   0  0  0  0  0  0  0  0  0  0  0  0
   47.9838    6.2725   13.0307 H   0  0  0  0  0  0  0  0  0  0  0  0
   45.1242    9.5028   13.0969 H   0  0  0  0  0  0  0  0  0  0  0  0
   53.9076   16.4691   12.3290 H   0  0  0  0  0  0  0  0  0  0  0  0
   46.5431    5.0169   11.5199 H   0  0  0  0  0  0  0  0  0  0  0  0
   43.6686    8.2251   11.5755 H   0  0  0  0  0  0  0  0  0  0  0  0
   49.5998   10.5303   11.8929 H   0  0  0  0  0  0  0  0  0  0  0  0
   50.0206    9.0533   12.7802 H   0  0  0  0  0  0  0  0  0  0  0  0
   48.6961    9.0555   11.6024 H   0  0  0  0  0  0  0  0  0  0  0  0
   44.4657    3.9160   11.0279 H   0  0  0  0  0  0  0  0  0  0  0  0
   45.2916    4.5843    9.5650 H   0  0  0  0  0  0  0  0  0  0  0  0
   43.5528    4.2613    9.5539 H   0  0  0  0  0  0  0  0  0  0  0  0
   48.7479   11.8363   13.0843 H   0  0  0  0  0  0  0  0  0  0  0  0
   48.0032   10.5254   12.8312 H   0  0  0  0  0  0  0  0  0  0  0  0
  2 10  1  0
  3 12  1  0
  4 19  1  0
  4 26  1  0
  5 22  2  0
  6  9  1  0
  6 22  1  0
  7 15  1  0
  7 17  1  0
  8 11  2  0
  8 12  1  0
  8 13  1  0
  9 10  2  0
  9 11  1  0
 10 14  1  0
 12 15  1  0
 13 14  2  0
 16 18  1  0
 16 20  2  0
 16 21  1  0
 17 18  1  0
 17 25  1  0
 19 23  2  0
 19 24  1  0
 20 23  1  0
 21 24  2  0
 27 31  1  0
 28 32  1  0
 29 31  2  0
 30 32  2  0
 31 33  1  0
 32 34  1  0
 33 34  2  0
 35 43  1  0
 36 45  1  0
 37 52  1  0
 37 59  1  0
 38 55  2  0
 39 42  1  0
 39 55  1  0
 40 48  1  0
 40 50  1  0
 41 44  2  0
 41 45  1  0
 41 46  1  0
 42 43  2  0
 42 44  1  0
 43 47  1  0
 45 48  1  0
 46 47  2  0
 49 51  1  0
 49 53  2  0
 49 54  1  0
 50 51  1  0
 50 58  1  0
 52 56  2  0
 52 57  1  0
 53 56  1  0
 54 57  2  0
  1 61  1  0
  1 62  1  0
  2 63  1  0
  3 64  1  0
  6 65  1  0
  7 66  1  0
 11 67  1  0
 12 68  1  6
 13 69  1  0
 14 70  1  0
 15 71  1  0
 15 72  1  0
 17 73  1  6
 18 74  1  0
 18 75  1  0
 20 76  1  0
 21 77  1  0
 22 78  1  0
 23 79  1  0
 24 80  1  0
 25 81  1  0
 25 82  1  0
 25 83  1  0
 26 84  1  0
 26 85  1  0
 26 86  1  0
 27 87  1  0
 28 88  1  0
 33 89  1  0
 34 90  1  0
 35 91  1  0
 36 92  1  0
 39 93  1  0
 40 94  1  0
 44 95  1  0
 45 96  1  6
 46 97  1  0
 47 98  1  0
 48 99  1  0
 48100  1  0
 50101  1  1
 51102  1  0
 51103  1  0
 53104  1  0
 54105  1  0
 55106  1  0
 56107  1  0
 57108  1  0
 58109  1  0
 58110  1  0
 58111  1  0
 59112  1  0
 59113  1  0
 59114  1  0
 60115  1  0
 60116  1  0
M  END
> <Uni-Dock RESULT> 
ENERGY=   -5.879  LOWER_BOUND=    4.857  UPPER_BOUND=    7.293
INTER + INTRA:          -5.879
INTER:                  -5.879
INTRA:                   0.000
UNBOUND:                 0.000

$$$$

     RDKit          3D

116115  0  0  0  0  0  0  0  0999 V2000
   49.1999    9.6242   12.0987 O   0  0  0  0  0  0  0  0  0  0  0  0
   50.6878   13.6627    8.3667 O   0  0  0  0  0  0  0  0  0  0  0  0
   53.8831    9.6386   11.9395 O   0  0  0  0  0  0  0  0  0  0  0  0
   44.1922    4.7684   13.1429 O   0  0  0  0  0  0  0  0  0  0  0  0
   52.1829   15.1785   12.9136 O   0  0  0  0  0  0  0  0  0  0  0  0
   51.2200   14.7445   10.8240 N   0  0  0  0  0  0  0  0  0  0  0  0
   50.4182    9.5811   13.3699 N   0  0  0  0  0  0  0  0  0  0  0  0
   52.1322   11.1355   11.3332 C   0  0  0  0  0  0  0  0  0  0  0  0
   51.4589   13.3705   10.6228 C   0  0  0  0  0  0  0  0  0  0  0  0
   51.1278   12.8390    9.3703 C   0  0  0  0  0  0  0  0  0  0  0  0
   51.9727   12.5127   11.5964 C   0  0  0  0  0  0  0  0  0  0  0  0
   52.6666   10.2206   12.4159 C   0  0  1  0  0  0  0  0  0  0  0  0
   51.7789   10.6364   10.0676 C   0  0  0  0  0  0  0  0  0  0  0  0
   51.2758   11.4874    9.0859 C   0  0  0  0  0  0  0  0  0  0  0  0
   51.6879    9.0867   12.8301 C   0  0  0  0  0  0  0  0  0  0  0  0
   47.7496    6.9122   12.6864 C   0  0  0  0  0  0  0  0  0  0  0  0
   49.4248    8.5500   13.7187 C   0  0  1  0  0  0  0  0  0  0  0  0
   49.0557    7.6510   12.5148 C   0  0  0  0  0  0  0  0  0  0  0  0
   45.3040    5.5464   12.9691 C   0  0  0  0  0  0  0  0  0  0  0  0
   46.5352    7.5523   12.4036 C   0  0  0  0  0  0  0  0  0  0  0  0
   47.7269    5.5835   13.1199 C   0  0  0  0  0  0  0  0  0  0  0  0
   51.5512   15.5038   11.9202 C   0  0  0  0  0  0  0  0  0  0  0  0
   45.3199    6.8745   12.5433 C   0  0  0  0  0  0  0  0  0  0  0  0
   46.5120    4.9082   13.2596 C   0  0  0  0  0  0  0  0  0  0  0  0
   49.8610    7.7392   14.9438 C   0  0  0  0  0  0  0  0  0  0  0  0
   42.9459    5.3369   12.7627 C   0  0  0  0  0  0  0  0  0  0  0  0
   51.0096   11.5632   11.3636 O   0  0  0  0  0  0  0  0  0  0  0  0
   47.8463    6.8724   12.7075 O   0  0  0  0  0  0  0  0  0  0  0  0
   51.8297    9.8790   12.5940 O   0  0  0  0  0  0  0  0  0  0  0  0
   47.0197    8.5689   11.4905 O   0  0  0  0  0  0  0  0  0  0  0  0
   50.9103   10.3722   11.9722 C   0  0  0  0  0  0  0  0  0  0  0  0
   47.9426    8.0652   12.1022 C   0  0  0  0  0  0  0  0  0  0  0  0
   49.5741    9.8117   11.7687 C   0  0  0  0  0  0  0  0  0  0  0  0
   49.2825    8.6183   12.2988 C   0  0  0  0  0  0  0  0  0  0  0  0
   53.2762   15.5912   10.4194 O   0  0  0  0  0  0  0  0  0  0  0  0
   49.5816   10.5836   11.0764 O   0  0  0  0  0  0  0  0  0  0  0  0
   44.0102    4.6078   12.0093 O   0  0  0  0  0  0  0  0  0  0  0  0
   54.8904   10.8753   10.7840 O   0  0  0  0  0  0  0  0  0  0  0  0
   54.4036   13.1437   10.4849 N   0  0  0  0  0  0  0  0  0  0  0  0
   49.9175    9.4148   14.0299 N   0  0  0  0  0  0  0  0  0  0  0  0
   50.9512   12.4032   11.7641 C   0  0  0  0  0  0  0  0  0  0  0  0
   53.0628   13.2665   10.9028 C   0  0  0  0  0  0  0  0  0  0  0  0
   52.4983   14.5489   10.8597 C   0  0  0  0  0  0  0  0  0  0  0  0
   52.2816   12.1983   11.3490 C   0  0  0  0  0  0  0  0  0  0  0  0
   50.0752   11.2560   12.2362 C   0  0  2  0  0  0  0  0  0  0  0  0
   50.4122   13.6993   11.6957 C   0  0  0  0  0  0  0  0  0  0  0  0
   51.1811   14.7732   11.2476 C   0  0  0  0  0  0  0  0  0  0  0  0
   50.7927   10.2655   13.1985 C   0  0  0  0  0  0  0  0  0  0  0  0
   47.0638    6.8926   13.7153 C   0  0  0  0  0  0  0  0  0  0  0  0
   49.0694    8.4536   13.2945 C   0  0  2  0  0  0  0  0  0  0  0  0
   48.1436    7.7566   14.3282 C   0  0  0  0  0  0  0  0  0  0  0  0
   45.0502    5.2758   12.5966 C   0  0  0  0  0  0  0  0  0  0  0  0
   47.1004    5.5014   13.8632 C   0  0  0  0  0  0  0  0  0  0  0  0
   46.0092    7.4704   12.9971 C   0  0  0  0  0  0  0  0  0  0  0  0
   55.1821   12.0147   10.4552 C   0  0  0  0  0  0  0  0  0  0  0  0
   46.1011    4.6976   13.3036 C   0  0  0  0  0  0  0  0  0  0  0  0
   45.0137    6.6646   12.4439 C   0  0  0  0  0  0  0  0  0  0  0  0
   49.9119    7.4177   12.5378 C   0  0  0  0  0  0  0  0  0  0  0  0
   43.9592    3.2005   12.1996 C   0  0  0  0  0  0  0  0  0  0  0  0
   49.1038    9.5505   12.1110 O   0  0  0  0  0  0  0  0  0  0  0  0
   48.8093    8.7817   12.3765 H   0  0  0  0  0  0  0  0  0  0  0  0
   50.1395    9.5335   12.3181 H   0  0  0  0  0  0  0  0  0  0  0  0
   51.4763   14.1886    8.1196 H   0  0  0  0  0  0  0  0  0  0  0  0
   54.3712    9.3345   12.7203 H   0  0  0  0  0  0  0  0  0  0  0  0
   50.7057   15.2033   10.0807 H   0  0  0  0  0  0  0  0  0  0  0  0
   50.5894   10.1813   14.1746 H   0  0  0  0  0  0  0  0  0  0  0  0
   52.2408   12.8940   12.5771 H   0  0  0  0  0  0  0  0  0  0  0  0
   52.9192   10.8080   13.3079 H   0  0  0  0  0  0  0  0  0  0  0  0
   51.9087    9.5791    9.8447 H   0  0  0  0  0  0  0  0  0  0  0  0
   51.0104   11.0979    8.1075 H   0  0  0  0  0  0  0  0  0  0  0  0
   51.5200    8.4406   11.9623 H   0  0  0  0  0  0  0  0  0  0  0  0
   52.1972    8.4664   13.5760 H   0  0  0  0  0  0  0  0  0  0  0  0
   48.5249    9.1068   14.0115 H   0  0  0  0  0  0  0  0  0  0  0  0
   49.8554    6.9270   12.3086 H   0  0  0  0  0  0  0  0  0  0  0  0
   48.9696    8.2634   11.6057 H   0  0  0  0  0  0  0  0  0  0  0  0
   46.5267    8.5863   12.0602 H   0  0  0  0  0  0  0  0  0  0  0  0
   48.6528    5.0594   13.3440 H   0  0  0  0  0  0  0  0  0  0  0  0
   51.1762   16.5346   11.7999 H   0  0  0  0  0  0  0  0  0  0  0  0
   44.4073    7.4091   12.3034 H   0  0  0  0  0  0  0  0  0  0  0  0
   46.5067    3.8742   13.5958 H   0  0  0  0  0  0  0  0  0  0  0  0
   50.1691    8.4006   15.7598 H   0  0  0  0  0  0  0  0  0  0  0  0
   50.6930    7.0656   14.7192 H   0  0  0  0  0  0  0  0  0  0  0  0
   49.0345    7.1296   15.3225 H   0  0  0  0  0  0  0  0  0  0  0  0
   42.7041    6.2022   13.3888 H   0  0  0  0  0  0  0  0  0  0  0  0
   42.9367    5.6028   11.7000 H   0  0  0  0  0  0  0  0  0  0  0  0
   42.1719    4.5806   12.9240 H   0  0  0  0  0  0  0  0  0  0  0  0
   51.9230   11.8579   11.5626 H   0  0  0  0  0  0  0  0  0  0  0  0
   46.9252    6.5845   12.5367 H   0  0  0  0  0  0  0  0  0  0  0  0
   48.8614   10.3930   11.1957 H   0  0  0  0  0  0  0  0  0  0  0  0
   49.9926    8.0366   12.8746 H   0  0  0  0  0  0  0  0  0  0  0  0
   52.7398   16.4017   10.4537 H   0  0  0  0  0  0  0  0  0  0  0  0
   50.3522   10.3713   10.5229 H   0  0  0  0  0  0  0  0  0  0  0  0
   54.8239   14.0197   10.1910 H   0  0  0  0  0  0  0  0  0  0  0  0
   49.3148   10.0206   14.5872 H   0  0  0  0  0  0  0  0  0  0  0  0
   52.6950   11.1956   11.3711 H   0  0  0  0  0  0  0  0  0  0  0  0
   49.2063   11.6678   12.7647 H   0  0  0  0  0  0  0  0  0  0  0  0
   49.3780   13.8777   11.9864 H   0  0  0  0  0  0  0  0  0  0  0  0
   50.7385   15.7627   11.2067 H   0  0  0  0  0  0  0  0  0  0  0  0
   51.5026    9.6342   12.6516 H   0  0  0  0  0  0  0  0  0  0  0  0
   51.3950   10.8496   13.9058 H   0  0  0  0  0  0  0  0  0  0  0  0
   48.4351    8.9923   12.5825 H   0  0  0  0  0  0  0  0  0  0  0  0
   48.7487    7.1649   15.0314 H   0  0  0  0  0  0  0  0  0  0  0  0
   47.6377    8.5138   14.9451 H   0  0  0  0  0  0  0  0  0  0  0  0
   47.9116    5.0289   14.4158 H   0  0  0  0  0  0  0  0  0  0  0  0
   45.9567    8.5497   12.8669 H   0  0  0  0  0  0  0  0  0  0  0  0
   56.1937   12.2503   10.0785 H   0  0  0  0  0  0  0  0  0  0  0  0
   46.1759    3.6255   13.4398 H   0  0  0  0  0  0  0  0  0  0  0  0
   44.2008    7.1259   11.8893 H   0  0  0  0  0  0  0  0  0  0  0  0
   50.5255    7.8852   11.7617 H   0  0  0  0  0  0  0  0  0  0  0  0
   50.5770    6.8743   13.2182 H   0  0  0  0  0  0  0  0  0  0  0  0
   49.2754    6.6846   12.0301 H   0  0  0  0  0  0  0  0  0  0  0  0
   43.8804    2.9409   13.2623 H   0  0  0  0  0  0  0  0  0  0  0  0
   44.8223    2.7076   11.7368 H   0  0  0  0  0  0  0  0  0  0  0  0
   43.0582    2.8282   11.7014 H   0  0  0  0  0  0  0  0  0  0  0  0
   50.0496    9.7338   12.2168 H   0  0  0  0  0  0  0  0  0  0  0  0
   48.9953    8.6551   12.4655 H   0  0  0  0  0  0  0  0  0  0  0  0
  2 10  1  0
  3 12  1  0
  4 19  1  0
  4 26  1  0
  5 22  2  0
  6  9  1  0
  6 22  1  0
  7 15  1  0
  7 17  1  0
  8 11  2  0
  8 12  1  0
  8 13  1  0
  9 10  2  0
  9 11  1  0
 10 14  1  0
 12 15  1  0
 13 14  2  0
 16 18  1  0
 16 20  2  0
 16 21  1  0
 17 18  1  0
 17 25  1  0
 19 23  2  0
 19 24  1  0
 20 23  1  0
 21 24  2  0
 27 31  1  0
 28 32  1  0
 29 31  2  0
 30 32  2  0
 31 33  1  0
 32 34  1  0
 33 34  2  0
 35 43  1  0
 36 45  1  0
 37 52  1  0
 37 59  1  0
 38 55  2  0
 39 42  1  0
 39 55  1  0
 40 48  1  0
 40 50  1  0
 41 44  2  0
 41 45  1  0
 41 46  1  0
 42 43  2  0
 42 44  1  0
 43 47  1  0
 45 48  1  0
 46 47  2  0
 49 51  1  0
 49 53  2  0
 49 54  1  0
 50 51  1  0
 50 58  1  0
 52 56  2  0
 52 57  1  0
 53 56  1  0
 54 57  2  0
  1 61  1  0
  1 62  1  0
  2 63  1  0
  3 64  1  0
  6 65  1  0
  7 66  1  0
 11 67  1  0
 12 68  1  6
 13 69  1  0
 14 70  1  0
 15 71  1  0
 15 72  1  0
 17 73  1  6
 18 74  1  0
 18 75  1  0
 20 76  1  0
 21 77  1  0
 22 78  1  0
 23 79  1  0
 24 80  1  0
 25 81  1  0
 25 82  1  0
 25 83  1  0
 26 84  1  0
 26 85  1  0
 26 86  1  0
 27 87  1  0
 28 88  1  0
 33 89  1  0
 34 90  1  0
 35 91  1  0
 36 92  1  0
 39 93  1  0
 40 94  1  0
 44 95  1  0
 45 96  1  6
 46 97  1  0
 47 98  1  0
 48 99  1  0
 48100  1  0
 50101  1  1
 51102  1  0
 51103  1  0
 53104  1  0
 54105  1  0
 55106  1  0
 56107  1  0
 57108  1  0
 58109  1  0
 58110  1  0
 58111  1  0
 59112  1  0
 59113  1  0
 59114  1  0
 60115  1  0
 60116  1  0
M  END
> <Uni-Dock RESULT> 
ENERGY=   -5.769  LOWER_BOUND=    3.919  UPPER_BOUND=    6.606
INTER + INTRA:          -5.769
INTER:                  -5.769
INTRA:                   0.000
UNBOUND:                 0.000

$$$$

     RDKit          3D

116115  0  0  0  0  0  0  0  0999 V2000
   49.1999    9.6242   12.0987 O   0  0  0  0  0  0  0  0  0  0  0  0
   50.6878   13.6628    8.3667 O   0  0  0  0  0  0  0  0  0  0  0  0
   53.8831    9.6387   11.9395 O   0  0  0  0  0  0  0  0  0  0  0  0
   44.1923    4.7684   13.1429 O   0  0  0  0  0  0  0  0  0  0  0  0
   52.1828   15.1786   12.9136 O   0  0  0  0  0  0  0  0  0  0  0  0
   51.2199   14.7446   10.8240 N   0  0  0  0  0  0  0  0  0  0  0  0
   50.4182    9.5811   13.3699 N   0  0  0  0  0  0  0  0  0  0  0  0
   52.1321   11.1356   11.3332 C   0  0  0  0  0  0  0  0  0  0  0  0
   51.4589   13.3706   10.6228 C   0  0  0  0  0  0  0  0  0  0  0  0
   51.1278   12.8390    9.3703 C   0  0  0  0  0  0  0  0  0  0  0  0
   51.9727   12.5128   11.5964 C   0  0  0  0  0  0  0  0  0  0  0  0
   52.6666   10.2206   12.4159 C   0  0  1  0  0  0  0  0  0  0  0  0
   51.7789   10.6365   10.0676 C   0  0  0  0  0  0  0  0  0  0  0  0
   51.2758   11.4875    9.0859 C   0  0  0  0  0  0  0  0  0  0  0  0
   51.6879    9.0867   12.8301 C   0  0  0  0  0  0  0  0  0  0  0  0
   47.7496    6.9123   12.6864 C   0  0  0  0  0  0  0  0  0  0  0  0
   49.4248    8.5500   13.7187 C   0  0  1  0  0  0  0  0  0  0  0  0
   49.0557    7.6511   12.5148 C   0  0  0  0  0  0  0  0  0  0  0  0
   45.3040    5.5464   12.9691 C   0  0  0  0  0  0  0  0  0  0  0  0
   46.5352    7.5523   12.4036 C   0  0  0  0  0  0  0  0  0  0  0  0
   47.7269    5.5835   13.1199 C   0  0  0  0  0  0  0  0  0  0  0  0
   51.5511   15.5038   11.9202 C   0  0  0  0  0  0  0  0  0  0  0  0
   45.3199    6.8745   12.5433 C   0  0  0  0  0  0  0  0  0  0  0  0
   46.5120    4.9083   13.2596 C   0  0  0  0  0  0  0  0  0  0  0  0
   49.8610    7.7392   14.9438 C   0  0  0  0  0  0  0  0  0  0  0  0
   42.9460    5.3369   12.7627 C   0  0  0  0  0  0  0  0  0  0  0  0
   51.0095   11.5633   11.3636 O   0  0  0  0  0  0  0  0  0  0  0  0
   47.8464    6.8724   12.7075 O   0  0  0  0  0  0  0  0  0  0  0  0
   51.8297    9.8790   12.5940 O   0  0  0  0  0  0  0  0  0  0  0  0
   47.0196    8.5689   11.4905 O   0  0  0  0  0  0  0  0  0  0  0  0
   50.9103   10.3723   11.9722 C   0  0  0  0  0  0  0  0  0  0  0  0
   47.9426    8.0652   12.1022 C   0  0  0  0  0  0  0  0  0  0  0  0
   49.5741    9.8117   11.7687 C   0  0  0  0  0  0  0  0  0  0  0  0
   49.2825    8.6184   12.2988 C   0  0  0  0  0  0  0  0  0  0  0  0
   53.2762   15.5912   10.4194 O   0  0  0  0  0  0  0  0  0  0  0  0
   49.5815   10.5837   11.0764 O   0  0  0  0  0  0  0  0  0  0  0  0
   44.0102    4.6078   12.0093 O   0  0  0  0  0  0  0  0  0  0  0  0
   54.8904   10.8754   10.7840 O   0  0  0  0  0  0  0  0  0  0  0  0
   54.4035   13.1438   10.4849 N   0  0  0  0  0  0  0  0  0  0  0  0
   49.9175    9.4148   14.0299 N   0  0  0  0  0  0  0  0  0  0  0  0
   50.9512   12.4032   11.7641 C   0  0  0  0  0  0  0  0  0  0  0  0
   53.0628   13.2666   10.9028 C   0  0  0  0  0  0  0  0  0  0  0  0
   52.4983   14.5489   10.8597 C   0  0  0  0  0  0  0  0  0  0  0  0
   52.2815   12.1984   11.3490 C   0  0  0  0  0  0  0  0  0  0  0  0
   50.0752   11.2560   12.2362 C   0  0  2  0  0  0  0  0  0  0  0  0
   50.4121   13.6994   11.6957 C   0  0  0  0  0  0  0  0  0  0  0  0
   51.1811   14.7732   11.2476 C   0  0  0  0  0  0  0  0  0  0  0  0
   50.7927   10.2655   13.1985 C   0  0  0  0  0  0  0  0  0  0  0  0
   47.0638    6.8926   13.7153 C   0  0  0  0  0  0  0  0  0  0  0  0
   49.0694    8.4536   13.2945 C   0  0  2  0  0  0  0  0  0  0  0  0
   48.1436    7.7566   14.3282 C   0  0  0  0  0  0  0  0  0  0  0  0
   45.0502    5.2759   12.5967 C   0  0  0  0  0  0  0  0  0  0  0  0
   47.1004    5.5015   13.8632 C   0  0  0  0  0  0  0  0  0  0  0  0
   46.0092    7.4704   12.9971 C   0  0  0  0  0  0  0  0  0  0  0  0
   55.1820   12.0148   10.4552 C   0  0  0  0  0  0  0  0  0  0  0  0
   46.1012    4.6976   13.3036 C   0  0  0  0  0  0  0  0  0  0  0  0
   45.0137    6.6646   12.4439 C   0  0  0  0  0  0  0  0  0  0  0  0
   49.9119    7.4177   12.5378 C   0  0  0  0  0  0  0  0  0  0  0  0
   43.9592    3.2005   12.1996 C   0  0  0  0  0  0  0  0  0  0  0  0
   49.1037    9.5506   12.1110 O   0  0  0  0  0  0  0  0  0  0  0  0
   48.8093    8.7818   12.3765 H   0  0  0  0  0  0  0  0  0  0  0  0
   50.1395    9.5335   12.3181 H   0  0  0  0  0  0  0  0  0  0  0  0
   51.4762   14.1887    8.1196 H   0  0  0  0  0  0  0  0  0  0  0  0
   54.3712    9.3345   12.7203 H   0  0  0  0  0  0  0  0  0  0  0  0
   50.7057   15.2034   10.0807 H   0  0  0  0  0  0  0  0  0  0  0  0
   50.5894   10.1814   14.1746 H   0  0  0  0  0  0  0  0  0  0  0  0
   52.2407   12.8940   12.5771 H   0  0  0  0  0  0  0  0  0  0  0  0
   52.9192   10.8081   13.3079 H   0  0  0  0  0  0  0  0  0  0  0  0
   51.9087    9.5792    9.8447 H   0  0  0  0  0  0  0  0  0  0  0  0
   51.0104   11.0979    8.1075 H   0  0  0  0  0  0  0  0  0  0  0  0
   51.5200    8.4406   11.9623 H   0  0  0  0  0  0  0  0  0  0  0  0
   52.1972    8.4665   13.5760 H   0  0  0  0  0  0  0  0  0  0  0  0
   48.5249    9.1069   14.0115 H   0  0  0  0  0  0  0  0  0  0  0  0
   49.8554    6.9270   12.3085 H   0  0  0  0  0  0  0  0  0  0  0  0
   48.9696    8.2635   11.6057 H   0  0  0  0  0  0  0  0  0  0  0  0
   46.5267    8.5864   12.0602 H   0  0  0  0  0  0  0  0  0  0  0  0
   48.6529    5.0594   13.3440 H   0  0  0  0  0  0  0  0  0  0  0  0
   51.1761   16.5347   11.7999 H   0  0  0  0  0  0  0  0  0  0  0  0
   44.4073    7.4091   12.3034 H   0  0  0  0  0  0  0  0  0  0  0  0
   46.5068    3.8742   13.5958 H   0  0  0  0  0  0  0  0  0  0  0  0
   50.1691    8.4006   15.7598 H   0  0  0  0  0  0  0  0  0  0  0  0
   50.6930    7.0656   14.7192 H   0  0  0  0  0  0  0  0  0  0  0  0
   49.0345    7.1297   15.3225 H   0  0  0  0  0  0  0  0  0  0  0  0
   42.7041    6.2022   13.3889 H   0  0  0  0  0  0  0  0  0  0  0  0
   42.9367    5.6029   11.7000 H   0  0  0  0  0  0  0  0  0  0  0  0
   42.1719    4.5806   12.9240 H   0  0  0  0  0  0  0  0  0  0  0  0
   51.9230   11.8579   11.5625 H   0  0  0  0  0  0  0  0  0  0  0  0
   46.9252    6.5846   12.5367 H   0  0  0  0  0  0  0  0  0  0  0  0
   48.8614   10.3930   11.1957 H   0  0  0  0  0  0  0  0  0  0  0  0
   49.9926    8.0367   12.8746 H   0  0  0  0  0  0  0  0  0  0  0  0
   52.7398   16.4018   10.4537 H   0  0  0  0  0  0  0  0  0  0  0  0
   50.3522   10.3713   10.5229 H   0  0  0  0  0  0  0  0  0  0  0  0
   54.8239   14.0198   10.1909 H   0  0  0  0  0  0  0  0  0  0  0  0
   49.3148   10.0206   14.5872 H   0  0  0  0  0  0  0  0  0  0  0  0
   52.6949   11.1957   11.3711 H   0  0  0  0  0  0  0  0  0  0  0  0
   49.2063   11.6678   12.7647 H   0  0  0  0  0  0  0  0  0  0  0  0
   49.3779   13.8777   11.9864 H   0  0  0  0  0  0  0  0  0  0  0  0
   50.7384   15.7628   11.2067 H   0  0  0  0  0  0  0  0  0  0  0  0
   51.5026    9.6342   12.6516 H   0  0  0  0  0  0  0  0  0  0  0  0
   51.3949   10.8496   13.9058 H   0  0  0  0  0  0  0  0  0  0  0  0
   48.4351    8.9923   12.5825 H   0  0  0  0  0  0  0  0  0  0  0  0
   48.7487    7.1649   15.0314 H   0  0  0  0  0  0  0  0  0  0  0  0
   47.6377    8.5139   14.9451 H   0  0  0  0  0  0  0  0  0  0  0  0
   47.9116    5.0290   14.4158 H   0  0  0  0  0  0  0  0  0  0  0  0
   45.9567    8.5497   12.8670 H   0  0  0  0  0  0  0  0  0  0  0  0
   56.1937   12.2504   10.0784 H   0  0  0  0  0  0  0  0  0  0  0  0
   46.1759    3.6255   13.4398 H   0  0  0  0  0  0  0  0  0  0  0  0
   44.2008    7.1259   11.8893 H   0  0  0  0  0  0  0  0  0  0  0  0
   50.5254    7.8852   11.7617 H   0  0  0  0  0  0  0  0  0  0  0  0
   50.5770    6.8744   13.2181 H   0  0  0  0  0  0  0  0  0  0  0  0
   49.2754    6.6847   12.0301 H   0  0  0  0  0  0  0  0  0  0  0  0
   43.8804    2.9409   13.2624 H   0  0  0  0  0  0  0  0  0  0  0  0
   44.8223    2.7076   11.7368 H   0  0  0  0  0  0  0  0  0  0  0  0
   43.0582    2.8282   11.7014 H   0  0  0  0  0  0  0  0  0  0  0  0
   50.0496    9.7338   12.2168 H   0  0  0  0  0  0  0  0  0  0  0  0
   48.9953    8.6551   12.4655 H   0  0  0  0  0  0  0  0  0  0  0  0
  2 10  1  0
  3 12  1  0
  4 19  1  0
  4 26  1  0
  5 22  2  0
  6  9  1  0
  6 22  1  0
  7 15  1  0
  7 17  1  0
  8 11  2  0
  8 12  1  0
  8 13  1  0
  9 10  2  0
  9 11  1  0
 10 14  1  0
 12 15  1  0
 13 14  2  0
 16 18  1  0
 16 20  2  0
 16 21  1  0
 17 18  1  0
 17 25  1  0
 19 23  2  0
 19 24  1  0
 20 23  1  0
 21 24  2  0
 27 31  1  0
 28 32  1  0
 29 31  2  0
 30 32  2  0
 31 33  1  0
 32 34  1  0
 33 34  2  0
 35 43  1  0
 36 45  1  0
 37 52  1  0
 37 59  1  0
 38 55  2  0
 39 42  1  0
 39 55  1  0
 40 48  1  0
 40 50  1  0
 41 44  2  0
 41 45  1  0
 41 46  1  0
 42 43  2  0
 42 44  1  0
 43 47  1  0
 45 48  1  0
 46 47  2  0
 49 51  1  0
 49 53  2  0
 49 54  1  0
 50 51  1  0
 50 58  1  0
 52 56  2  0
 52 57  1  0
 53 56  1  0
 54 57  2  0
  1 61  1  0
  1 62  1  0
  2 63  1  0
  3 64  1  0
  6 65  1  0
  7 66  1  0
 11 67  1  0
 12 68  1  6
 13 69  1  0
 14 70  1  0
 15 71  1  0
 15 72  1  0
 17 73  1  6
 18 74  1  0
 18 75  1  0
 20 76  1  0
 21 77  1  0
 22 78  1  0
 23 79  1  0
 24 80  1  0
 25 81  1  0
 25 82  1  0
 25 83  1  0
 26 84  1  0
 26 85  1  0
 26 86  1  0
 27 87  1  0
 28 88  1  0
 33 89  1  0
 34 90  1  0
 35 91  1  0
 36 92  1  0
 39 93  1  0
 40 94  1  0
 44 95  1  0
 45 96  1  6
 46 97  1  0
 47 98  1  0
 48 99  1  0
 48100  1  0
 50101  1  1
 51102  1  0
 51103  1  0
 53104  1  0
 54105  1  0
 55106  1  0
 56107  1  0
 57108  1  0
 58109  1  0
 58110  1  0
 58111  1  0
 59112  1  0
 59113  1  0
 59114  1  0
 60115  1  0
 60116  1  0
M  END
> <Uni-Dock RESULT> 
ENERGY=   -5.769  LOWER_BOUND=    3.919  UPPER_BOUND=    6.606
INTER + INTRA:          -5.769
INTER:                  -5.769
INTRA:                   0.000
UNBOUND:                 0.000

$$$$

     RDKit          3D

116115  0  0  0  0  0  0  0  0999 V2000
   48.4951    8.3077   14.5085 O   0  0  0  0  0  0  0  0  0  0  0  0
   46.3030    6.0415   19.2530 O   0  0  0  0  0  0  0  0  0  0  0  0
   52.1202    7.2350   17.2772 O   0  0  0  0  0  0  0  0  0  0  0  0
   47.0949   13.2894    9.7161 O   0  0  0  0  0  0  0  0  0  0  0  0
   48.7986    2.4062   16.8524 O   0  0  0  0  0  0  0  0  0  0  0  0
   47.3200    3.9149   17.8620 N   0  0  0  0  0  0  0  0  0  0  0  0
   50.0274    7.5046   14.1784 N   0  0  0  0  0  0  0  0  0  0  0  0
   49.8253    6.6156   17.1230 C   0  0  0  0  0  0  0  0  0  0  0  0
   48.0169    5.1392   17.8324 C   0  0  0  0  0  0  0  0  0  0  0  0
   47.4426    6.2203   18.5124 C   0  0  0  0  0  0  0  0  0  0  0  0
   49.2166    5.3427   17.1491 C   0  0  0  0  0  0  0  0  0  0  0  0
   51.1133    6.8169   16.3514 C   0  0  1  0  0  0  0  0  0  0  0  0
   49.2137    7.6795   17.8085 C   0  0  0  0  0  0  0  0  0  0  0  0
   48.0219    7.4827   18.5027 C   0  0  0  0  0  0  0  0  0  0  0  0
   51.0109    7.8610   15.2049 C   0  0  0  0  0  0  0  0  0  0  0  0
   48.7789   10.7635   12.5871 C   0  0  0  0  0  0  0  0  0  0  0  0
   49.8404    8.4909   13.0995 C   0  0  1  0  0  0  0  0  0  0  0  0
   49.4165    9.8799   13.6331 C   0  0  0  0  0  0  0  0  0  0  0  0
   47.5609   12.4194   10.6634 C   0  0  0  0  0  0  0  0  0  0  0  0
   47.4195   10.6210   12.2774 C   0  0  0  0  0  0  0  0  0  0  0  0
   49.5246   11.7384   11.9182 C   0  0  0  0  0  0  0  0  0  0  0  0
   47.7279    2.7029   17.3595 C   0  0  0  0  0  0  0  0  0  0  0  0
   46.8134   11.4435   11.3223 C   0  0  0  0  0  0  0  0  0  0  0  0
   48.9178   12.5585   10.9639 C   0  0  0  0  0  0  0  0  0  0  0  0
   51.0675    8.5641   12.1844 C   0  0  0  0  0  0  0  0  0  0  0  0
   45.6990   13.2588    9.4486 C   0  0  0  0  0  0  0  0  0  0  0  0
   48.7661    6.5010   16.5670 O   0  0  0  0  0  0  0  0  0  0  0  0
   48.8818   10.7658   12.6156 O   0  0  0  0  0  0  0  0  0  0  0  0
   50.6773    7.2391   15.6584 O   0  0  0  0  0  0  0  0  0  0  0  0
   46.9659   10.0128   13.5128 O   0  0  0  0  0  0  0  0  0  0  0  0
   49.4675    7.2992   15.7487 C   0  0  0  0  0  0  0  0  0  0  0  0
   48.1786    9.9654   13.4300 C   0  0  0  0  0  0  0  0  0  0  0  0
   48.5664    8.1964   15.0248 C   0  0  0  0  0  0  0  0  0  0  0  0
   49.0829    9.0767   14.1597 C   0  0  0  0  0  0  0  0  0  0  0  0
   48.4025    2.8569   19.5406 O   0  0  0  0  0  0  0  0  0  0  0  0
   47.9377    7.8209   15.7590 O   0  0  0  0  0  0  0  0  0  0  0  0
   46.5292   13.9607   10.4733 O   0  0  0  0  0  0  0  0  0  0  0  0
   51.8793    6.4135   19.0510 O   0  0  0  0  0  0  0  0  0  0  0  0
   50.3821    4.6862   19.5476 N   0  0  0  0  0  0  0  0  0  0  0  0
   49.9900    7.4860   13.3345 N   0  0  0  0  0  0  0  0  0  0  0  0
   48.5296    5.6120   16.4148 C   0  0  0  0  0  0  0  0  0  0  0  0
   49.4507    4.7226   18.4901 C   0  0  0  0  0  0  0  0  0  0  0  0
   48.4303    3.7617   18.5081 C   0  0  0  0  0  0  0  0  0  0  0  0
   49.4896    5.6482   17.4449 C   0  0  0  0  0  0  0  0  0  0  0  0
   48.5392    6.6180   15.2772 C   0  0  2  0  0  0  0  0  0  0  0  0
   47.5125    4.6438   16.4704 C   0  0  0  0  0  0  0  0  0  0  0  0
   47.4605    3.7171   17.5115 C   0  0  0  0  0  0  0  0  0  0  0  0
   49.9525    6.8927   14.6863 C   0  0  0  0  0  0  0  0  0  0  0  0
   48.6916   10.5032   11.3814 C   0  0  0  0  0  0  0  0  0  0  0  0
   49.4175    8.8429   13.2125 C   0  0  2  0  0  0  0  0  0  0  0  0
   49.4362    9.2277   11.7081 C   0  0  0  0  0  0  0  0  0  0  0  0
   47.3161   12.8763   10.7516 C   0  0  0  0  0  0  0  0  0  0  0  0
   49.3874   11.6410   10.9573 C   0  0  0  0  0  0  0  0  0  0  0  0
   47.2966   10.5637   11.4918 C   0  0  0  0  0  0  0  0  0  0  0  0
   51.4736    5.4935   19.7440 C   0  0  0  0  0  0  0  0  0  0  0  0
   48.7036   12.8219   10.6479 C   0  0  0  0  0  0  0  0  0  0  0  0
   46.6193   11.7426   11.1791 C   0  0  0  0  0  0  0  0  0  0  0  0
   50.2040    9.8667   14.0425 C   0  0  0  0  0  0  0  0  0  0  0  0
   47.1812   15.1155    9.9624 C   0  0  0  0  0  0  0  0  0  0  0  0
   48.4563    8.3896   14.4272 O   0  0  0  0  0  0  0  0  0  0  0  0
   48.6719    9.0151   13.8700 H   0  0  0  0  0  0  0  0  0  0  0  0
   49.3719    8.0657   14.8429 H   0  0  0  0  0  0  0  0  0  0  0  0
   46.5910    5.5003   20.0169 H   0  0  0  0  0  0  0  0  0  0  0  0
   52.9761    7.0460   16.8623 H   0  0  0  0  0  0  0  0  0  0  0  0
   46.3926    3.9595   18.2689 H   0  0  0  0  0  0  0  0  0  0  0  0
   50.2514    6.5949   13.7791 H   0  0  0  0  0  0  0  0  0  0  0  0
   49.6884    4.5245   16.6134 H   0  0  0  0  0  0  0  0  0  0  0  0
   51.4451    5.8612   15.9259 H   0  0  0  0  0  0  0  0  0  0  0  0
   49.6778    8.6638   17.8091 H   0  0  0  0  0  0  0  0  0  0  0  0
   47.5568    8.3066   19.0361 H   0  0  0  0  0  0  0  0  0  0  0  0
   50.7820    8.8369   15.6452 H   0  0  0  0  0  0  0  0  0  0  0  0
   52.0054    7.9569   14.7553 H   0  0  0  0  0  0  0  0  0  0  0  0
   49.0151    8.0974   12.4917 H   0  0  0  0  0  0  0  0  0  0  0  0
   50.2726   10.4058   14.0765 H   0  0  0  0  0  0  0  0  0  0  0  0
   48.6889    9.7591   14.4486 H   0  0  0  0  0  0  0  0  0  0  0  0
   46.8158    9.8713   12.7880 H   0  0  0  0  0  0  0  0  0  0  0  0
   50.5805   11.8748   12.1391 H   0  0  0  0  0  0  0  0  0  0  0  0
   46.9328    1.9483   17.4862 H   0  0  0  0  0  0  0  0  0  0  0  0
   45.7567   11.3015   11.1239 H   0  0  0  0  0  0  0  0  0  0  0  0
   49.5075   13.3147   10.4512 H   0  0  0  0  0  0  0  0  0  0  0  0
   51.3782    7.5633   11.8677 H   0  0  0  0  0  0  0  0  0  0  0  0
   51.9194    9.0462   12.6725 H   0  0  0  0  0  0  0  0  0  0  0  0
   50.8427    9.1305   11.2752 H   0  0  0  0  0  0  0  0  0  0  0  0
   45.4044   12.2949    9.0203 H   0  0  0  0  0  0  0  0  0  0  0  0
   45.1158   13.4869   10.3475 H   0  0  0  0  0  0  0  0  0  0  0  0
   45.4850   14.0338    8.7066 H   0  0  0  0  0  0  0  0  0  0  0  0
   49.4464    5.9389   16.9936 H   0  0  0  0  0  0  0  0  0  0  0  0
   48.2046   11.3117   12.1639 H   0  0  0  0  0  0  0  0  0  0  0  0
   47.5030    8.1090   15.2138 H   0  0  0  0  0  0  0  0  0  0  0  0
   50.1456    9.1639   13.9670 H   0  0  0  0  0  0  0  0  0  0  0  0
   47.6423    2.2663   19.4020 H   0  0  0  0  0  0  0  0  0  0  0  0
   48.3987    8.0580   16.5815 H   0  0  0  0  0  0  0  0  0  0  0  0
   50.2072    3.9493   20.2236 H   0  0  0  0  0  0  0  0  0  0  0  0
   49.4929    6.8644   12.6962 H   0  0  0  0  0  0  0  0  0  0  0  0
   50.2603    6.4114   17.4244 H   0  0  0  0  0  0  0  0  0  0  0  0
   47.9033    6.2418   14.4660 H   0  0  0  0  0  0  0  0  0  0  0  0
   46.7440    4.6128   15.6995 H   0  0  0  0  0  0  0  0  0  0  0  0
   46.6643    2.9805   17.5275 H   0  0  0  0  0  0  0  0  0  0  0  0
   50.5498    7.5061   15.3707 H   0  0  0  0  0  0  0  0  0  0  0  0
   50.4819    5.9351   14.6032 H   0  0  0  0  0  0  0  0  0  0  0  0
   48.3742    8.8335   13.5456 H   0  0  0  0  0  0  0  0  0  0  0  0
   50.4755    9.2940   11.3529 H   0  0  0  0  0  0  0  0  0  0  0  0
   48.9758    8.4254   11.1128 H   0  0  0  0  0  0  0  0  0  0  0  0
   50.4727   11.6188   10.8656 H   0  0  0  0  0  0  0  0  0  0  0  0
   46.7310    9.6934   11.8194 H   0  0  0  0  0  0  0  0  0  0  0  0
   52.0075    5.2068   20.6679 H   0  0  0  0  0  0  0  0  0  0  0  0
   49.2862   13.6779   10.3297 H   0  0  0  0  0  0  0  0  0  0  0  0
   45.5367   11.7758   11.2687 H   0  0  0  0  0  0  0  0  0  0  0  0
   50.1498    9.6460   15.1128 H   0  0  0  0  0  0  0  0  0  0  0  0
   51.2599    9.8863   13.7506 H   0  0  0  0  0  0  0  0  0  0  0  0
   49.7986   10.8762   13.9131 H   0  0  0  0  0  0  0  0  0  0  0  0
   47.6921   14.9030    9.0154 H   0  0  0  0  0  0  0  0  0  0  0  0
   47.8761   15.5354   10.6992 H   0  0  0  0  0  0  0  0  0  0  0  0
   46.4146   15.8708    9.7615 H   0  0  0  0  0  0  0  0  0  0  0  0
   49.1701    7.9567   14.9197 H   0  0  0  0  0  0  0  0  0  0  0  0
   48.9123    9.0422   13.8745 H   0  0  0  0  0  0  0  0  0  0  0  0
  2 10  1  0
  3 12  1  0
  4 19  1  0
  4 26  1  0
  5 22  2  0
  6  9  1  0
  6 22  1  0
  7 15  1  0
  7 17  1  0
  8 11  2  0
  8 12  1  0
  8 13  1  0
  9 10  2  0
  9 11  1  0
 10 14  1  0
 12 15  1  0
 13 14  2  0
 16 18  1  0
 16 20  2  0
 16 21  1  0
 17 18  1  0
 17 25  1  0
 19 23  2  0
 19 24  1  0
 20 23  1  0
 21 24  2  0
 27 31  1  0
 28 32  1  0
 29 31  2  0
 30 32  2  0
 31 33  1  0
 32 34  1  0
 33 34  2  0
 35 43  1  0
 36 45  1  0
 37 52  1  0
 37 59  1  0
 38 55  2  0
 39 42  1  0
 39 55  1  0
 40 48  1  0
 40 50  1  0
 41 44  2  0
 41 45  1  0
 41 46  1  0
 42 43  2  0
 42 44  1  0
 43 47  1  0
 45 48  1  0
 46 47  2  0
 49 51  1  0
 49 53  2  0
 49 54  1  0
 50 51  1  0
 50 58  1  0
 52 56  2  0
 52 57  1  0
 53 56  1  0
 54 57  2  0
  1 61  1  0
  1 62  1  0
  2 63  1  0
  3 64  1  0
  6 65  1  0
  7 66  1  0
 11 67  1  0
 12 68  1  6
 13 69  1  0
 14 70  1  0
 15 71  1  0
 15 72  1  0
 17 73  1  6
 18 74  1  0
 18 75  1  0
 20 76  1  0
 21 77  1  0
 22 78  1  0
 23 79  1  0
 24 80  1  0
 25 81  1  0
 25 82  1  0
 25 83  1  0
 26 84  1  0
 26 85  1  0
 26 86  1  0
 27 87  1  0
 28 88  1  0
 33 89  1  0
 34 90  1  0
 35 91  1  0
 36 92  1  0
 39 93  1  0
 40 94  1  0
 44 95  1  0
 45 96  1  6
 46 97  1  0
 47 98  1  0
 48 99  1  0
 48100  1  0
 50101  1  1
 51102  1  0
 51103  1  0
 53104  1  0
 54105  1  0
 55106  1  0
 56107  1  0
 57108  1  0
 58109  1  0
 58110  1  0
 58111  1  0
 59112  1  0
 59113  1  0
 59114  1  0
 60115  1  0
 60116  1  0
M  END
> <Uni-Dock RESULT> 
ENERGY=   -5.636  LOWER_BOUND=    3.482  UPPER_BOUND=    5.531
INTER + INTRA:          -5.636
INTER:                  -5.636
INTRA:                   0.000
UNBOUND:                 0.000

$$$$

     RDKit          3D

116115  0  0  0  0  0  0  0  0999 V2000
   46.2590   10.7144   11.6188 O   0  0  0  0  0  0  0  0  0  0  0  0
   50.0575    7.7882   14.6944 O   0  0  0  0  0  0  0  0  0  0  0  0
   49.7495   13.6803   12.6074 O   0  0  0  0  0  0  0  0  0  0  0  0
   39.2910   11.2458   10.6647 O   0  0  0  0  0  0  0  0  0  0  0  0
   52.1937    8.8693   10.2814 O   0  0  0  0  0  0  0  0  0  0  0  0
   51.1826    8.0064   12.2088 N   0  0  0  0  0  0  0  0  0  0  0  0
   47.1388   11.8673   10.6194 N   0  0  0  0  0  0  0  0  0  0  0  0
   49.4477   11.3176   12.5862 C   0  0  0  0  0  0  0  0  0  0  0  0
   50.4407    9.0925   12.7141 C   0  0  0  0  0  0  0  0  0  0  0  0
   49.8360    8.9285   13.9664 C   0  0  0  0  0  0  0  0  0  0  0  0
   50.2511   10.2968   12.0348 C   0  0  0  0  0  0  0  0  0  0  0  0
   49.2355   12.6051   11.8166 C   0  0  1  0  0  0  0  0  0  0  0  0
   48.8483   11.1125   13.8410 C   0  0  0  0  0  0  0  0  0  0  0  0
   49.0413    9.9178   14.5312 C   0  0  0  0  0  0  0  0  0  0  0  0
   47.7506   12.8973   11.4637 C   0  0  0  0  0  0  0  0  0  0  0  0
   43.3682   11.8802   11.3225 C   0  0  0  0  0  0  0  0  0  0  0  0
   45.7114   12.0589   10.3068 C   0  0  1  0  0  0  0  0  0  0  0  0
   44.8329   12.1468   11.5773 C   0  0  0  0  0  0  0  0  0  0  0  0
   40.6374   11.3584   10.8792 C   0  0  0  0  0  0  0  0  0  0  0  0
   42.8930   10.5636   11.2528 C   0  0  0  0  0  0  0  0  0  0  0  0
   42.4636   12.9334   11.1600 C   0  0  0  0  0  0  0  0  0  0  0  0
   51.9393    7.9657   11.0628 C   0  0  0  0  0  0  0  0  0  0  0  0
   41.5366   10.3033   11.0331 C   0  0  0  0  0  0  0  0  0  0  0  0
   41.1091   12.6716   10.9399 C   0  0  0  0  0  0  0  0  0  0  0  0
   45.4962   13.2461    9.3620 C   0  0  0  0  0  0  0  0  0  0  0  0
   38.7439    9.9341   10.6972 C   0  0  0  0  0  0  0  0  0  0  0  0
   48.8994   10.2953   12.2725 O   0  0  0  0  0  0  0  0  0  0  0  0
   43.4135   11.9768   11.3272 O   0  0  0  0  0  0  0  0  0  0  0  0
   48.3854   12.3579   11.5619 O   0  0  0  0  0  0  0  0  0  0  0  0
   43.9310    9.9048   12.0213 O   0  0  0  0  0  0  0  0  0  0  0  0
   48.0304   11.2468   11.9006 C   0  0  0  0  0  0  0  0  0  0  0  0
   44.2815   11.0230   11.6950 C   0  0  0  0  0  0  0  0  0  0  0  0
   46.6617   10.7336   11.9673 C   0  0  0  0  0  0  0  0  0  0  0  0
   45.6481   11.5420   11.6371 C   0  0  0  0  0  0  0  0  0  0  0  0
   53.2765    8.6173   12.8015 O   0  0  0  0  0  0  0  0  0  0  0  0
   47.1820   10.0014   12.4854 O   0  0  0  0  0  0  0  0  0  0  0  0
   39.0456   10.9433   11.7566 O   0  0  0  0  0  0  0  0  0  0  0  0
   51.3227   13.1365   13.6601 O   0  0  0  0  0  0  0  0  0  0  0  0
   52.4775   11.1166   13.4182 N   0  0  0  0  0  0  0  0  0  0  0  0
   46.6569   11.8387    9.9259 N   0  0  0  0  0  0  0  0  0  0  0  0
   49.4189    9.7614   11.7118 C   0  0  0  0  0  0  0  0  0  0  0  0
   51.5640   10.2750   12.7513 C   0  0  0  0  0  0  0  0  0  0  0  0
   52.0020    8.9801   12.4414 C   0  0  0  0  0  0  0  0  0  0  0  0
   50.2698   10.6558   12.3900 C   0  0  0  0  0  0  0  0  0  0  0  0
   48.0015   10.1446   11.3239 C   0  0  2  0  0  0  0  0  0  0  0  0
   49.8850    8.4663   11.4280 C   0  0  0  0  0  0  0  0  0  0  0  0
   51.1739    8.0730   11.7878 C   0  0  0  0  0  0  0  0  0  0  0  0
   47.8745   11.5724   10.7179 C   0  0  0  0  0  0  0  0  0  0  0  0
   42.8478   11.7249   10.2115 C   0  0  0  0  0  0  0  0  0  0  0  0
   45.3818   11.7866   10.6711 C   0  0  2  0  0  0  0  0  0  0  0  0
   44.2298   11.9636    9.6448 C   0  0  0  0  0  0  0  0  0  0  0  0
   40.2668   11.2902   11.2458 C   0  0  0  0  0  0  0  0  0  0  0  0
   41.9448   12.7854   10.3473 C   0  0  0  0  0  0  0  0  0  0  0  0
   42.4487   10.4405   10.6024 C   0  0  0  0  0  0  0  0  0  0  0  0
   52.3008   12.4203   13.8067 C   0  0  0  0  0  0  0  0  0  0  0  0
   40.6629   12.5696   10.8651 C   0  0  0  0  0  0  0  0  0  0  0  0
   41.1684   10.2302   11.1152 C   0  0  0  0  0  0  0  0  0  0  0  0
   45.3133   12.8721   11.7539 C   0  0  0  0  0  0  0  0  0  0  0  0
   38.0667   11.9702   11.8390 C   0  0  0  0  0  0  0  0  0  0  0  0
   46.1383   10.7084   11.6041 O   0  0  0  0  0  0  0  0  0  0  0  0
   45.4058   11.1404   11.4456 H   0  0  0  0  0  0  0  0  0  0  0  0
   46.8973   11.4431   11.5930 H   0  0  0  0  0  0  0  0  0  0  0  0
   50.9948    7.8538   14.9711 H   0  0  0  0  0  0  0  0  0  0  0  0
   49.9106   14.4199   12.0012 H   0  0  0  0  0  0  0  0  0  0  0  0
   51.1055    7.1489   12.7440 H   0  0  0  0  0  0  0  0  0  0  0  0
   47.6695   11.7603    9.7568 H   0  0  0  0  0  0  0  0  0  0  0  0
   50.7077   10.4560   11.0626 H   0  0  0  0  0  0  0  0  0  0  0  0
   49.8185   12.5829   10.8869 H   0  0  0  0  0  0  0  0  0  0  0  0
   48.2370   11.8954   14.2856 H   0  0  0  0  0  0  0  0  0  0  0  0
   48.5810    9.7670   15.5033 H   0  0  0  0  0  0  0  0  0  0  0  0
   47.1915   13.0225   12.3966 H   0  0  0  0  0  0  0  0  0  0  0  0
   47.7160   13.8679   10.9568 H   0  0  0  0  0  0  0  0  0  0  0  0
   45.4157   11.1571    9.7546 H   0  0  0  0  0  0  0  0  0  0  0  0
   44.9425   13.1268   12.0607 H   0  0  0  0  0  0  0  0  0  0  0  0
   45.1764   11.4112   12.3189 H   0  0  0  0  0  0  0  0  0  0  0  0
   43.5776    9.7255   11.3803 H   0  0  0  0  0  0  0  0  0  0  0  0
   42.8018   13.9655   11.2120 H   0  0  0  0  0  0  0  0  0  0  0  0
   52.3498    6.9528   10.9102 H   0  0  0  0  0  0  0  0  0  0  0  0
   41.2153    9.2681   10.9967 H   0  0  0  0  0  0  0  0  0  0  0  0
   40.4144   13.4989   10.8168 H   0  0  0  0  0  0  0  0  0  0  0  0
   46.1696   13.1866    8.5010 H   0  0  0  0  0  0  0  0  0  0  0  0
   45.6636   14.2060    9.8590 H   0  0  0  0  0  0  0  0  0  0  0  0
   44.4750   13.2509    8.9680 H   0  0  0  0  0  0  0  0  0  0  0  0
   39.1444    9.3235    9.8811 H   0  0  0  0  0  0  0  0  0  0  0  0
   38.9124    9.4558   11.6683 H   0  0  0  0  0  0  0  0  0  0  0  0
   37.6631   10.0203   10.5510 H   0  0  0  0  0  0  0  0  0  0  0  0
   49.7760   10.7254   12.1865 H   0  0  0  0  0  0  0  0  0  0  0  0
   42.5359   11.5442   11.3834 H   0  0  0  0  0  0  0  0  0  0  0  0
   46.5195    9.7056   12.2787 H   0  0  0  0  0  0  0  0  0  0  0  0
   45.7881   12.5694   11.3226 H   0  0  0  0  0  0  0  0  0  0  0  0
   53.4200    7.6994   12.5140 H   0  0  0  0  0  0  0  0  0  0  0  0
   47.6115   10.5037   13.1984 H   0  0  0  0  0  0  0  0  0  0  0  0
   53.3752   10.6814   13.6057 H   0  0  0  0  0  0  0  0  0  0  0  0
   46.6155   11.1634    9.1623 H   0  0  0  0  0  0  0  0  0  0  0  0
   49.9064   11.6472   12.6387 H   0  0  0  0  0  0  0  0  0  0  0  0
   47.6323    9.4292   10.5784 H   0  0  0  0  0  0  0  0  0  0  0  0
   49.2363    7.7488   10.9278 H   0  0  0  0  0  0  0  0  0  0  0  0
   51.5067    7.0672   11.5547 H   0  0  0  0  0  0  0  0  0  0  0  0
   47.9786   12.3378   11.4956 H   0  0  0  0  0  0  0  0  0  0  0  0
   48.7146   11.7291   10.0295 H   0  0  0  0  0  0  0  0  0  0  0  0
   45.2689   10.8027   11.1389 H   0  0  0  0  0  0  0  0  0  0  0  0
   44.2855   12.9643    9.1907 H   0  0  0  0  0  0  0  0  0  0  0  0
   44.3618   11.2579    8.8115 H   0  0  0  0  0  0  0  0  0  0  0  0
   42.2330   13.7935   10.0519 H   0  0  0  0  0  0  0  0  0  0  0  0
   43.1313    9.5981   10.5076 H   0  0  0  0  0  0  0  0  0  0  0  0
   53.2096   12.8035   14.3050 H   0  0  0  0  0  0  0  0  0  0  0  0
   40.0017   13.4227   10.9566 H   0  0  0  0  0  0  0  0  0  0  0  0
   40.8714    9.2284   11.4144 H   0  0  0  0  0  0  0  0  0  0  0  0
   46.0803   12.7266   12.5207 H   0  0  0  0  0  0  0  0  0  0  0  0
   45.4459   13.8707   11.3230 H   0  0  0  0  0  0  0  0  0  0  0  0
   44.3486   12.8530   12.2728 H   0  0  0  0  0  0  0  0  0  0  0  0
   37.8370   12.3872   10.8508 H   0  0  0  0  0  0  0  0  0  0  0  0
   38.3774   12.7574   12.5360 H   0  0  0  0  0  0  0  0  0  0  0  0
   37.1467   11.5245   12.2309 H   0  0  0  0  0  0  0  0  0  0  0  0
   46.9642   11.2147   11.6355 H   0  0  0  0  0  0  0  0  0  0  0  0
   45.4595   11.3747   11.4178 H   0  0  0  0  0  0  0  0  0  0  0  0
  2 10  1  0
  3 12  1  0
  4 19  1  0
  4 26  1  0
  5 22  2  0
  6  9  1  0
  6 22  1  0
  7 15  1  0
  7 17  1  0
  8 11  2  0
  8 12  1  0
  8 13  1  0
  9 10  2  0
  9 11  1  0
 10 14  1  0
 12 15  1  0
 13 14  2  0
 16 18  1  0
 16 20  2  0
 16 21  1  0
 17 18  1  0
 17 25  1  0
 19 23  2  0
 19 24  1  0
 20 23  1  0
 21 24  2  0
 27 31  1  0
 28 32  1  0
 29 31  2  0
 30 32  2  0
 31 33  1  0
 32 34  1  0
 33 34  2  0
 35 43  1  0
 36 45  1  0
 37 52  1  0
 37 59  1  0
 38 55  2  0
 39 42  1  0
 39 55  1  0
 40 48  1  0
 40 50  1  0
 41 44  2  0
 41 45  1  0
 41 46  1  0
 42 43  2  0
 42 44  1  0
 43 47  1  0
 45 48  1  0
 46 47  2  0
 49 51  1  0
 49 53  2  0
 49 54  1  0
 50 51  1  0
 50 58  1  0
 52 56  2  0
 52 57  1  0
 53 56  1  0
 54 57  2  0
  1 61  1  0
  1 62  1  0
  2 63  1  0
  3 64  1  0
  6 65  1  0
  7 66  1  0
 11 67  1  0
 12 68  1  6
 13 69  1  0
 14 70  1  0
 15 71  1  0
 15 72  1  0
 17 73  1  6
 18 74  1  0
 18 75  1  0
 20 76  1  0
 21 77  1  0
 22 78  1  0
 23 79  1  0
 24 80  1  0
 25 81  1  0
 25 82  1  0
 25 83  1  0
 26 84  1  0
 26 85  1  0
 26 86  1  0
 27 87  1  0
 28 88  1  0
 33 89  1  0
 34 90  1  0
 35 91  1  0
 36 92  1  0
 39 93  1  0
 40 94  1  0
 44 95  1  0
 45 96  1  6
 46 97  1  0
 47 98  1  0
 48 99  1  0
 48100  1  0
 50101  1  1
 51102  1  0
 51103  1  0
 53104  1  0
 54105  1  0
 55106  1  0
 56107  1  0
 57108  1  0
 58109  1  0
 58110  1  0
 58111  1  0
 59112  1  0
 59113  1  0
 59114  1  0
 60115  1  0
 60116  1  0
M  END
> <Uni-Dock RESULT> 
ENERGY=   -5.500  LOWER_BOUND=    4.916  UPPER_BOUND=    7.058
INTER + INTRA:          -5.500
INTER:                  -5.500
INTRA:                   0.000
UNBOUND:                 0.000

$$$$

     RDKit          3D

116115  0  0  0  0  0  0  0  0999 V2000
   49.0832   12.7251   18.3524 O   0  0  0  0  0  0  0  0  0  0  0  0
   52.4522   15.5333   14.7171 O   0  0  0  0  0  0  0  0  0  0  0  0
   50.7567   16.4359   20.6735 O   0  0  0  0  0  0  0  0  0  0  0  0
   47.1972    6.1402   20.0339 O   0  0  0  0  0  0  0  0  0  0  0  0
   48.4695   18.4452   15.6474 O   0  0  0  0  0  0  0  0  0  0  0  0
   50.1708   17.0380   14.8682 N   0  0  0  0  0  0  0  0  0  0  0  0
   48.3001   13.9088   19.3952 N   0  0  0  0  0  0  0  0  0  0  0  0
   50.5293   15.7870   18.3929 C   0  0  0  0  0  0  0  0  0  0  0  0
   50.6408   16.4016   16.0342 C   0  0  0  0  0  0  0  0  0  0  0  0
   51.7812   15.5983   15.9108 C   0  0  0  0  0  0  0  0  0  0  0  0
   50.0269   16.5003   17.2836 C   0  0  0  0  0  0  0  0  0  0  0  0
   49.8287   15.8897   19.7321 C   0  0  1  0  0  0  0  0  0  0  0  0
   51.6699   14.9823   18.2279 C   0  0  0  0  0  0  0  0  0  0  0  0
   52.2958   14.8867   16.9869 C   0  0  0  0  0  0  0  0  0  0  0  0
   49.2915   14.5358   20.2738 C   0  0  0  0  0  0  0  0  0  0  0  0
   48.4647   10.1213   19.9775 C   0  0  0  0  0  0  0  0  0  0  0  0
   47.8037   12.5900   19.8267 C   0  0  1  0  0  0  0  0  0  0  0  0
   48.9410   11.5545   19.9946 C   0  0  0  0  0  0  0  0  0  0  0  0
   47.6063    7.4406   19.9198 C   0  0  0  0  0  0  0  0  0  0  0  0
   48.2376    9.4684   18.7584 C   0  0  0  0  0  0  0  0  0  0  0  0
   48.2500    9.4210   21.1681 C   0  0  0  0  0  0  0  0  0  0  0  0
   49.1426   17.9429   14.7606 C   0  0  0  0  0  0  0  0  0  0  0  0
   47.8117    8.1366   18.7286 C   0  0  0  0  0  0  0  0  0  0  0  0
   47.8239    8.0910   21.1366 C   0  0  0  0  0  0  0  0  0  0  0  0
   46.9228   12.7008   21.0758 C   0  0  0  0  0  0  0  0  0  0  0  0
   47.0613    5.4025   18.8263 C   0  0  0  0  0  0  0  0  0  0  0  0
   50.0713   15.1437   17.4870 O   0  0  0  0  0  0  0  0  0  0  0  0
   48.4825   10.1795   20.0653 O   0  0  0  0  0  0  0  0  0  0  0  0
   49.4404   15.0598   19.6360 O   0  0  0  0  0  0  0  0  0  0  0  0
   49.0969   10.2678   17.9072 O   0  0  0  0  0  0  0  0  0  0  0  0
   49.6478   14.4942   18.5813 C   0  0  0  0  0  0  0  0  0  0  0  0
   48.9016   10.8282   18.9690 C   0  0  0  0  0  0  0  0  0  0  0  0
   49.4854   13.0693   18.2908 C   0  0  0  0  0  0  0  0  0  0  0  0
   49.0728   12.2506   19.2652 C   0  0  0  0  0  0  0  0  0  0  0  0
   51.0932   19.0874   15.1086 O   0  0  0  0  0  0  0  0  0  0  0  0
   50.0195   13.3893   17.4616 O   0  0  0  0  0  0  0  0  0  0  0  0
   48.2201    5.6910   19.7240 O   0  0  0  0  0  0  0  0  0  0  0  0
   51.9801   17.7331   19.8369 O   0  0  0  0  0  0  0  0  0  0  0  0
   51.7634   18.5922   17.6720 N   0  0  0  0  0  0  0  0  0  0  0  0
   47.5453   13.5376   19.4763 N   0  0  0  0  0  0  0  0  0  0  0  0
   49.5536   15.6546   16.9037 C   0  0  0  0  0  0  0  0  0  0  0  0
   50.9178   17.6724   17.0191 C   0  0  0  0  0  0  0  0  0  0  0  0
   50.5834   17.9510   15.6867 C   0  0  0  0  0  0  0  0  0  0  0  0
   50.4053   16.5195   17.6181 C   0  0  0  0  0  0  0  0  0  0  0  0
   48.9977   14.3857   17.5260 C   0  0  2  0  0  0  0  0  0  0  0  0
   49.2490   15.9568   15.5653 C   0  0  0  0  0  0  0  0  0  0  0  0
   49.7584   17.1027   14.9549 C   0  0  0  0  0  0  0  0  0  0  0  0
   48.4804   14.5684   18.9824 C   0  0  0  0  0  0  0  0  0  0  0  0
   47.2834    9.7558   19.9592 C   0  0  0  0  0  0  0  0  0  0  0  0
   48.0983   12.1722   19.5939 C   0  0  2  0  0  0  0  0  0  0  0  0
   46.9349   11.2272   20.0003 C   0  0  0  0  0  0  0  0  0  0  0  0
   47.9115    7.0133   19.8946 C   0  0  0  0  0  0  0  0  0  0  0  0
   47.3641    9.0135   21.1429 C   0  0  0  0  0  0  0  0  0  0  0  0
   47.5242    9.1131   18.7383 C   0  0  0  0  0  0  0  0  0  0  0  0
   52.2128   18.5585   18.9676 C   0  0  0  0  0  0  0  0  0  0  0  0
   47.6801    7.6508   21.1107 C   0  0  0  0  0  0  0  0  0  0  0  0
   47.8358    7.7534   18.7115 C   0  0  0  0  0  0  0  0  0  0  0  0
   49.2334   12.1071   20.6248 C   0  0  0  0  0  0  0  0  0  0  0  0
   48.2350    4.8775   20.8890 C   0  0  0  0  0  0  0  0  0  0  0  0
   49.0513   12.6085   18.3665 O   0  0  0  0  0  0  0  0  0  0  0  0
   48.8217   11.9818   18.9168 H   0  0  0  0  0  0  0  0  0  0  0  0
   49.1982   13.4628   18.9703 H   0  0  0  0  0  0  0  0  0  0  0  0
   52.8619   16.4175   14.6192 H   0  0  0  0  0  0  0  0  0  0  0  0
   50.2321   16.7960   21.4052 H   0  0  0  0  0  0  0  0  0  0  0  0
   50.6289   16.7528   14.0101 H   0  0  0  0  0  0  0  0  0  0  0  0
   47.5154   14.5404   19.2452 H   0  0  0  0  0  0  0  0  0  0  0  0
   49.1420   17.1162   17.4130 H   0  0  0  0  0  0  0  0  0  0  0  0
   48.9911   16.5952   19.6604 H   0  0  0  0  0  0  0  0  0  0  0  0
   52.0774   14.4367   19.0769 H   0  0  0  0  0  0  0  0  0  0  0  0
   53.1806   14.2686   16.8664 H   0  0  0  0  0  0  0  0  0  0  0  0
   50.1429   13.8687   20.4432 H   0  0  0  0  0  0  0  0  0  0  0  0
   48.8534   14.7248   21.2601 H   0  0  0  0  0  0  0  0  0  0  0  0
   47.1542   12.2475   19.0105 H   0  0  0  0  0  0  0  0  0  0  0  0
   49.5019   11.7374   20.9209 H   0  0  0  0  0  0  0  0  0  0  0  0
   49.6706   11.6678   19.1799 H   0  0  0  0  0  0  0  0  0  0  0  0
   48.4017    9.9914   17.8167 H   0  0  0  0  0  0  0  0  0  0  0  0
   48.4207    9.8997   22.1294 H   0  0  0  0  0  0  0  0  0  0  0  0
   48.9794   18.2138   13.7034 H   0  0  0  0  0  0  0  0  0  0  0  0
   47.6586    7.6716   17.7609 H   0  0  0  0  0  0  0  0  0  0  0  0
   47.6620    7.5557   22.0691 H   0  0  0  0  0  0  0  0  0  0  0  0
   46.1631   13.4788   20.9496 H   0  0  0  0  0  0  0  0  0  0  0  0
   47.5039   12.9350   21.9724 H   0  0  0  0  0  0  0  0  0  0  0  0
   46.3903   11.7628   21.2619 H   0  0  0  0  0  0  0  0  0  0  0  0
   46.2692    5.8238   18.1982 H   0  0  0  0  0  0  0  0  0  0  0  0
   48.0109    5.3492   18.2826 H   0  0  0  0  0  0  0  0  0  0  0  0
   46.7707    4.3813   19.0908 H   0  0  0  0  0  0  0  0  0  0  0  0
   50.1396   16.0781   17.7751 H   0  0  0  0  0  0  0  0  0  0  0  0
   48.3844    9.2481   19.7764 H   0  0  0  0  0  0  0  0  0  0  0  0
   49.7016   12.7282   17.2853 H   0  0  0  0  0  0  0  0  0  0  0  0
   48.8533   12.5899   20.2706 H   0  0  0  0  0  0  0  0  0  0  0  0
   50.7658   19.1320   14.1939 H   0  0  0  0  0  0  0  0  0  0  0  0
   50.8190   13.7781   17.8551 H   0  0  0  0  0  0  0  0  0  0  0  0
   52.0447   19.3755   17.0907 H   0  0  0  0  0  0  0  0  0  0  0  0
   46.7385   13.5095   18.8526 H   0  0  0  0  0  0  0  0  0  0  0  0
   50.6685   16.2772   18.6422 H   0  0  0  0  0  0  0  0  0  0  0  0
   48.1598   14.0286   16.9143 H   0  0  0  0  0  0  0  0  0  0  0  0
   48.6139   15.2893   14.9848 H   0  0  0  0  0  0  0  0  0  0  0  0
   49.5052   17.3107   13.9208 H   0  0  0  0  0  0  0  0  0  0  0  0
   49.3163   14.6693   19.6843 H   0  0  0  0  0  0  0  0  0  0  0  0
   47.9297   15.5161   19.0347 H   0  0  0  0  0  0  0  0  0  0  0  0
   48.4760   11.8430   18.6200 H   0  0  0  0  0  0  0  0  0  0  0  0
   46.5637   11.5009   20.9992 H   0  0  0  0  0  0  0  0  0  0  0  0
   46.0814   11.3743   19.3221 H   0  0  0  0  0  0  0  0  0  0  0  0
   47.1829    9.4918   22.1047 H   0  0  0  0  0  0  0  0  0  0  0  0
   47.4682    9.6668   17.8030 H   0  0  0  0  0  0  0  0  0  0  0  0
   52.8594   19.4297   19.1771 H   0  0  0  0  0  0  0  0  0  0  0  0
   47.7367    7.1200   22.0533 H   0  0  0  0  0  0  0  0  0  0  0  0
   48.0200    7.2670   17.7572 H   0  0  0  0  0  0  0  0  0  0  0  0
   50.0885   12.7196   20.3231 H   0  0  0  0  0  0  0  0  0  0  0  0
   48.8958   12.4522   21.6084 H   0  0  0  0  0  0  0  0  0  0  0  0
   49.6087   11.0839   20.7360 H   0  0  0  0  0  0  0  0  0  0  0  0
   47.2557    4.8642   21.3829 H   0  0  0  0  0  0  0  0  0  0  0  0
   49.0217    5.1957   21.5832 H   0  0  0  0  0  0  0  0  0  0  0  0
   48.4616    3.8525   20.5782 H   0  0  0  0  0  0  0  0  0  0  0  0
   49.2337   13.4873   18.7323 H   0  0  0  0  0  0  0  0  0  0  0  0
   48.8180   12.0739   19.1406 H   0  0  0  0  0  0  0  0  0  0  0  0
  2 10  1  0
  3 12  1  0
  4 19  1  0
  4 26  1  0
  5 22  2  0
  6  9  1  0
  6 22  1  0
  7 15  1  0
  7 17  1  0
  8 11  2  0
  8 12  1  0
  8 13  1  0
  9 10  2  0
  9 11  1  0
 10 14  1  0
 12 15  1  0
 13 14  2  0
 16 18  1  0
 16 20  2  0
 16 21  1  0
 17 18  1  0
 17 25  1  0
 19 23  2  0
 19 24  1  0
 20 23  1  0
 21 24  2  0
 27 31  1  0
 28 32  1  0
 29 31  2  0
 30 32  2  0
 31 33  1  0
 32 34  1  0
 33 34  2  0
 35 43  1  0
 36 45  1  0
 37 52  1  0
 37 59  1  0
 38 55  2  0
 39 42  1  0
 39 55  1  0
 40 48  1  0
 40 50  1  0
 41 44  2  0
 41 45  1  0
 41 46  1  0
 42 43  2  0
 42 44  1  0
 43 47  1  0
 45 48  1  0
 46 47  2  0
 49 51  1  0
 49 53  2  0
 49 54  1  0
 50 51  1  0
 50 58  1  0
 52 56  2  0
 52 57  1  0
 53 56  1  0
 54 57  2  0
  1 61  1  0
  1 62  1  0
  2 63  1  0
  3 64  1  0
  6 65  1  0
  7 66  1  0
 11 67  1  0
 12 68  1  6
 13 69  1  0
 14 70  1  0
 15 71  1  0
 15 72  1  0
 17 73  1  6
 18 74  1  0
 18 75  1  0
 20 76  1  0
 21 77  1  0
 22 78  1  0
 23 79  1  0
 24 80  1  0
 25 81  1  0
 25 82  1  0
 25 83  1  0
 26 84  1  0
 26 85  1  0
 26 86  1  0
 27 87  1  0
 28 88  1  0
 33 89  1  0
 34 90  1  0
 35 91  1  0
 36 92  1  0
 39 93  1  0
 40 94  1  0
 44 95  1  0
 45 96  1  6
 46 97  1  0
 47 98  1  0
 48 99  1  0
 48100  1  0
 50101  1  1
 51102  1  0
 51103  1  0
 53104  1  0
 54105  1  0
 55106  1  0
 56107  1  0
 57108  1  0
 58109  1  0
 58110  1  0
 58111  1  0
 59112  1  0
 59113  1  0
 59114  1  0
 60115  1  0
 60116  1  0
M  END
> <Uni-Dock RESULT> 
ENERGY=   -5.440  LOWER_BOUND=    5.839  UPPER_BOUND=    8.719
INTER + INTRA:          -5.440
INTER:                  -5.440
INTRA:                   0.000
UNBOUND:                 0.000

$$$$

     RDKit          3D

116115  0  0  0  0  0  0  0  0999 V2000
   48.6057   11.4576   17.7298 O   0  0  0  0  0  0  0  0  0  0  0  0
   51.7773   12.4033   13.0933 O   0  0  0  0  0  0  0  0  0  0  0  0
   49.7881   15.9909   17.8198 O   0  0  0  0  0  0  0  0  0  0  0  0
   47.3821    6.4557   22.5496 O   0  0  0  0  0  0  0  0  0  0  0  0
   47.4743   14.9266   12.5242 O   0  0  0  0  0  0  0  0  0  0  0  0
   49.3433   13.5165   12.5202 N   0  0  0  0  0  0  0  0  0  0  0  0
   47.6638   12.9106   18.0517 N   0  0  0  0  0  0  0  0  0  0  0  0
   49.7114   14.2606   16.1845 C   0  0  0  0  0  0  0  0  0  0  0  0
   49.8382   13.6108   13.8361 C   0  0  0  0  0  0  0  0  0  0  0  0
   51.0621   12.9864   14.1070 C   0  0  0  0  0  0  0  0  0  0  0  0
   49.1741   14.2571   14.8796 C   0  0  0  0  0  0  0  0  0  0  0  0
   48.9577   14.9461   17.3056 C   0  0  1  0  0  0  0  0  0  0  0  0
   50.9371   13.6142   16.4204 C   0  0  0  0  0  0  0  0  0  0  0  0
   51.6125   12.9761   15.3823 C   0  0  0  0  0  0  0  0  0  0  0  0
   48.5508   14.0000   18.4694 C   0  0  0  0  0  0  0  0  0  0  0  0
   48.2148    9.9777   20.4613 C   0  0  0  0  0  0  0  0  0  0  0  0
   47.2976   11.9434   19.1016 C   0  0  1  0  0  0  0  0  0  0  0  0
   48.5332   11.2666   19.7412 C   0  0  0  0  0  0  0  0  0  0  0  0
   47.6526    7.5574   21.7850 C   0  0  0  0  0  0  0  0  0  0  0  0
   48.1020    8.7789   19.7441 C   0  0  0  0  0  0  0  0  0  0  0  0
   48.0355    9.9540   21.8474 C   0  0  0  0  0  0  0  0  0  0  0  0
   48.2281   14.1238   11.9959 C   0  0  0  0  0  0  0  0  0  0  0  0
   47.8232    7.5759   20.4008 C   0  0  0  0  0  0  0  0  0  0  0  0
   47.7564    8.7517   22.5016 C   0  0  0  0  0  0  0  0  0  0  0  0
   46.3669   12.5705   20.1452 C   0  0  0  0  0  0  0  0  0  0  0  0
   47.3686    5.2001   21.8829 C   0  0  0  0  0  0  0  0  0  0  0  0
   49.3572   13.2025   15.7385 O   0  0  0  0  0  0  0  0  0  0  0  0
   48.2232   10.0737   20.5072 O   0  0  0  0  0  0  0  0  0  0  0  0
   48.6645   14.1439   17.6509 O   0  0  0  0  0  0  0  0  0  0  0  0
   48.8993    9.1296   18.5852 O   0  0  0  0  0  0  0  0  0  0  0  0
   48.9682   13.1508   17.0210 C   0  0  0  0  0  0  0  0  0  0  0  0
   48.6080   10.1233   19.2235 C   0  0  0  0  0  0  0  0  0  0  0  0
   48.9704   11.7658   17.4932 C   0  0  0  0  0  0  0  0  0  0  0  0
   48.6146   11.5099   18.7573 C   0  0  0  0  0  0  0  0  0  0  0  0
   50.0308   15.4951   11.6711 O   0  0  0  0  0  0  0  0  0  0  0  0
   49.4954   11.6810   16.6030 O   0  0  0  0  0  0  0  0  0  0  0  0
   48.4576    6.0277   22.4838 O   0  0  0  0  0  0  0  0  0  0  0  0
   50.8931   16.8157   16.4134 O   0  0  0  0  0  0  0  0  0  0  0  0
   50.6607   16.4367   14.1168 N   0  0  0  0  0  0  0  0  0  0  0  0
   46.9511   12.5501   18.3274 N   0  0  0  0  0  0  0  0  0  0  0  0
   48.8081   13.2889   14.9899 C   0  0  0  0  0  0  0  0  0  0  0  0
   49.9423   15.2263   14.0382 C   0  0  0  0  0  0  0  0  0  0  0  0
   49.6265   14.7566   12.7558 C   0  0  0  0  0  0  0  0  0  0  0  0
   49.5363   14.4840   15.1493 C   0  0  0  0  0  0  0  0  0  0  0  0
   48.3707   12.4542   16.1808 C   0  0  2  0  0  0  0  0  0  0  0  0
   48.5195   12.8396   13.6899 C   0  0  0  0  0  0  0  0  0  0  0  0
   48.9236   13.5699   12.5725 C   0  0  0  0  0  0  0  0  0  0  0  0
   47.7864   13.2874   17.3582 C   0  0  0  0  0  0  0  0  0  0  0  0
   47.0812    9.5249   20.6587 C   0  0  0  0  0  0  0  0  0  0  0  0
   47.6434   11.5007   19.1043 C   0  0  2  0  0  0  0  0  0  0  0  0
   46.5750   10.7674   19.9603 C   0  0  0  0  0  0  0  0  0  0  0  0
   48.0027    7.2124   21.9714 C   0  0  0  0  0  0  0  0  0  0  0  0
   47.2000    9.4943   22.0528 C   0  0  0  0  0  0  0  0  0  0  0  0
   47.4321    8.3856   19.9234 C   0  0  0  0  0  0  0  0  0  0  0  0
   51.0657   17.1104   15.2410 C   0  0  0  0  0  0  0  0  0  0  0  0
   47.6618    8.3457   22.7049 C   0  0  0  0  0  0  0  0  0  0  0  0
   47.8891    7.2418   20.5787 C   0  0  0  0  0  0  0  0  0  0  0  0
   48.7423   12.0899   19.9991 C   0  0  0  0  0  0  0  0  0  0  0  0
   48.5194    5.9196   23.8994 C   0  0  0  0  0  0  0  0  0  0  0  0
   48.5860   11.3612   17.8017 O   0  0  0  0  0  0  0  0  0  0  0  0
   48.4062   11.0764   18.5983 H   0  0  0  0  0  0  0  0  0  0  0  0
   48.6190   12.4136   17.8880 H   0  0  0  0  0  0  0  0  0  0  0  0
   52.0926   13.1567   12.5526 H   0  0  0  0  0  0  0  0  0  0  0  0
   49.2026   16.6102   18.2824 H   0  0  0  0  0  0  0  0  0  0  0  0
   49.8591   12.8903   11.9123 H   0  0  0  0  0  0  0  0  0  0  0  0
   46.8214   13.2893   17.6226 H   0  0  0  0  0  0  0  0  0  0  0  0
   48.2241   14.7521   14.7021 H   0  0  0  0  0  0  0  0  0  0  0  0
   48.0519   15.4218   16.9083 H   0  0  0  0  0  0  0  0  0  0  0  0
   51.3711   13.6197   17.4184 H   0  0  0  0  0  0  0  0  0  0  0  0
   52.5624   12.4836   15.5686 H   0  0  0  0  0  0  0  0  0  0  0  0
   49.4626   13.6079   18.9314 H   0  0  0  0  0  0  0  0  0  0  0  0
   48.0608   14.6105   19.2359 H   0  0  0  0  0  0  0  0  0  0  0  0
   46.7175   11.1669   18.5858 H   0  0  0  0  0  0  0  0  0  0  0  0
   49.0385   11.9521   20.4347 H   0  0  0  0  0  0  0  0  0  0  0  0
   49.2743   11.0337   18.9631 H   0  0  0  0  0  0  0  0  0  0  0  0
   48.2415    8.7704   18.6635 H   0  0  0  0  0  0  0  0  0  0  0  0
   48.1200   10.8674   22.4312 H   0  0  0  0  0  0  0  0  0  0  0  0
   48.0736   13.8050   10.9508 H   0  0  0  0  0  0  0  0  0  0  0  0
   47.7549    6.6731   19.8040 H   0  0  0  0  0  0  0  0  0  0  0  0
   47.6207    8.7452   23.5804 H   0  0  0  0  0  0  0  0  0  0  0  0
   45.5327   13.0894   19.6623 H   0  0  0  0  0  0  0  0  0  0  0  0
   46.8878   13.2871   20.7866 H   0  0  0  0  0  0  0  0  0  0  0  0
   45.9323   11.8019   20.7921 H   0  0  0  0  0  0  0  0  0  0  0  0
   46.5582    5.1570   21.1477 H   0  0  0  0  0  0  0  0  0  0  0  0
   48.3367    4.9854   21.4173 H   0  0  0  0  0  0  0  0  0  0  0  0
   47.1806    4.4266   22.6335 H   0  0  0  0  0  0  0  0  0  0  0  0
   49.3144   14.1557   15.5140 H   0  0  0  0  0  0  0  0  0  0  0  0
   48.2361    9.1194   20.7302 H   0  0  0  0  0  0  0  0  0  0  0  0
   49.2569   10.9908   16.7923 H   0  0  0  0  0  0  0  0  0  0  0  0
   48.3250   12.2830   19.4591 H   0  0  0  0  0  0  0  0  0  0  0  0
   49.7325   15.0361   10.8672 H   0  0  0  0  0  0  0  0  0  0  0  0
   50.2342   12.3007   16.7270 H   0  0  0  0  0  0  0  0  0  0  0  0
   50.8761   16.8458   13.2131 H   0  0  0  0  0  0  0  0  0  0  0  0
   46.1741   12.1225   17.8230 H   0  0  0  0  0  0  0  0  0  0  0  0
   49.7883   14.8215   16.1490 H   0  0  0  0  0  0  0  0  0  0  0  0
   47.5979   11.7473   15.8536 H   0  0  0  0  0  0  0  0  0  0  0  0
   47.9806   11.9052   13.5411 H   0  0  0  0  0  0  0  0  0  0  0  0
   48.6856   13.1990   11.5812 H   0  0  0  0  0  0  0  0  0  0  0  0
   48.5816   13.8199   17.8926 H   0  0  0  0  0  0  0  0  0  0  0  0
   47.1353   14.0648   16.9386 H   0  0  0  0  0  0  0  0  0  0  0  0
   48.0880   10.7697   18.4207 H   0  0  0  0  0  0  0  0  0  0  0  0
   46.1419   11.4643   20.6933 H   0  0  0  0  0  0  0  0  0  0  0  0
   45.7348   10.4574   19.3216 H   0  0  0  0  0  0  0  0  0  0  0  0
   46.9350   10.3688   22.6460 H   0  0  0  0  0  0  0  0  0  0  0  0
   47.3494    8.3824   18.8382 H   0  0  0  0  0  0  0  0  0  0  0  0
   51.6071   18.0338   14.9665 H   0  0  0  0  0  0  0  0  0  0  0  0
   47.7423    8.3723   23.7849 H   0  0  0  0  0  0  0  0  0  0  0  0
   48.1576    6.3645   19.9962 H   0  0  0  0  0  0  0  0  0  0  0  0
   49.5365   12.5570   19.4089 H   0  0  0  0  0  0  0  0  0  0  0  0
   48.3355   12.8439   20.6821 H   0  0  0  0  0  0  0  0  0  0  0  0
   49.2215   11.3109   20.6022 H   0  0  0  0  0  0  0  0  0  0  0  0
   47.5306    6.0489   24.3562 H   0  0  0  0  0  0  0  0  0  0  0  0
   49.2426    6.6289   24.3187 H   0  0  0  0  0  0  0  0  0  0  0  0
   48.8658    4.9100   24.1428 H   0  0  0  0  0  0  0  0  0  0  0  0
   48.6599   12.3186   17.6694 H   0  0  0  0  0  0  0  0  0  0  0  0
   48.3849   11.2676   18.7451 H   0  0  0  0  0  0  0  0  0  0  0  0
  2 10  1  0
  3 12  1  0
  4 19  1  0
  4 26  1  0
  5 22  2  0
  6  9  1  0
  6 22  1  0
  7 15  1  0
  7 17  1  0
  8 11  2  0
  8 12  1  0
  8 13  1  0
  9 10  2  0
  9 11  1  0
 10 14  1  0
 12 15  1  0
 13 14  2  0
 16 18  1  0
 16 20  2  0
 16 21  1  0
 17 18  1  0
 17 25  1  0
 19 23  2  0
 19 24  1  0
 20 23  1  0
 21 24  2  0
 27 31  1  0
 28 32  1  0
 29 31  2  0
 30 32  2  0
 31 33  1  0
 32 34  1  0
 33 34  2  0
 35 43  1  0
 36 45  1  0
 37 52  1  0
 37 59  1  0
 38 55  2  0
 39 42  1  0
 39 55  1  0
 40 48  1  0
 40 50  1  0
 41 44  2  0
 41 45  1  0
 41 46  1  0
 42 43  2  0
 42 44  1  0
 43 47  1  0
 45 48  1  0
 46 47  2  0
 49 51  1  0
 49 53  2  0
 49 54  1  0
 50 51  1  0
 50 58  1  0
 52 56  2  0
 52 57  1  0
 53 56  1  0
 54 57  2  0
  1 61  1  0
  1 62  1  0
  2 63  1  0
  3 64  1  0
  6 65  1  0
  7 66  1  0
 11 67  1  0
 12 68  1  6
 13 69  1  0
 14 70  1  0
 15 71  1  0
 15 72  1  0
 17 73  1  6
 18 74  1  0
 18 75  1  0
 20 76  1  0
 21 77  1  0
 22 78  1  0
 23 79  1  0
 24 80  1  0
 25 81  1  0
 25 82  1  0
 25 83  1  0
 26 84  1  0
 26 85  1  0
 26 86  1  0
 27 87  1  0
 28 88  1  0
 33 89  1  0
 34 90  1  0
 35 91  1  0
 36 92  1  0
 39 93  1  0
 40 94  1  0
 44 95  1  0
 45 96  1  6
 46 97  1  0
 47 98  1  0
 48 99  1  0
 48100  1  0
 50101  1  1
 51102  1  0
 51103  1  0
 53104  1  0
 54105  1  0
 55106  1  0
 56107  1  0
 57108  1  0
 58109  1  0
 58110  1  0
 58111  1  0
 59112  1  0
 59113  1  0
 59114  1  0
 60115  1  0
 60116  1  0
M  END
> <Uni-Dock RESULT> 
ENERGY=   -5.393  LOWER_BOUND=    6.127  UPPER_BOUND=    8.451
INTER + INTRA:          -5.393
INTER:                  -5.393
INTRA:                   0.000
UNBOUND:                 0.000

$$$$
