
     RDKit          3D

116115  0  0  0  0  0  0  0  0999 V2000
   50.3405   10.1821   10.9753 O   0  0  0  0  0  0  0  0  0  0  0  0
   56.2567   12.2515    7.9672 O   0  0  0  0  0  0  0  0  0  0  0  0
   50.0558   12.1755    8.5659 O   0  0  0  0  0  0  0  0  0  0  0  0
   46.3311    5.1442   14.0473 O   0  0  0  0  0  0  0  0  0  0  0  0
   54.0976   14.8442   11.7034 O   0  0  0  0  0  0  0  0  0  0  0  0
   55.3990   13.7436   10.0896 N   0  0  0  0  0  0  0  0  0  0  0  0
   48.9301   12.0144   11.1369 N   0  0  0  0  0  0  0  0  0  0  0  0
   52.3153   11.7829    9.2223 C   0  0  0  0  0  0  0  0  0  0  0  0
   54.4906   12.8619    9.4693 C   0  0  0  0  0  0  0  0  0  0  0  0
   54.9743   12.0782    8.4175 C   0  0  0  0  0  0  0  0  0  0  0  0
   53.1551   12.7187    9.8542 C   0  0  0  0  0  0  0  0  0  0  0  0
   50.8586   11.5908    9.5965 C   0  0  1  0  0  0  0  0  0  0  0  0
   52.8478   10.9989    8.1810 C   0  0  0  0  0  0  0  0  0  0  0  0
   54.1755   11.1411    7.7805 C   0  0  0  0  0  0  0  0  0  0  0  0
   50.3932   12.1652   10.9604 C   0  0  0  0  0  0  0  0  0  0  0  0
   48.2959    8.3474   12.2208 C   0  0  0  0  0  0  0  0  0  0  0  0
   48.5035   10.8983   12.0130 C   0  0  1  0  0  0  0  0  0  0  0  0
   48.9692    9.5075   11.5212 C   0  0  0  0  0  0  0  0  0  0  0  0
   47.0488    6.1712   13.5006 C   0  0  0  0  0  0  0  0  0  0  0  0
   46.9485    8.0578   11.9786 C   0  0  0  0  0  0  0  0  0  0  0  0
   49.0103    7.5382   13.1129 C   0  0  0  0  0  0  0  0  0  0  0  0
   55.1507   14.6155   11.1224 C   0  0  0  0  0  0  0  0  0  0  0  0
   46.3317    6.9799   12.6175 C   0  0  0  0  0  0  0  0  0  0  0  0
   48.3909    6.4565   13.7479 C   0  0  0  0  0  0  0  0  0  0  0  0
   48.8851   11.1617   13.4770 C   0  0  0  0  0  0  0  0  0  0  0  0
   47.0286    4.2633   14.9174 C   0  0  0  0  0  0  0  0  0  0  0  0
   50.8928   12.1126    9.9095 O   0  0  0  0  0  0  0  0  0  0  0  0
   50.1759    8.2008   12.8190 O   0  0  0  0  0  0  0  0  0  0  0  0
   52.9890   11.5010   10.3818 O   0  0  0  0  0  0  0  0  0  0  0  0
   48.0810    8.7817   12.3061 O   0  0  0  0  0  0  0  0  0  0  0  0
   51.7919   11.3188   10.5081 C   0  0  0  0  0  0  0  0  0  0  0  0
   49.2774    8.9789   12.2004 C   0  0  0  0  0  0  0  0  0  0  0  0
   51.1951   10.2416   11.3030 C   0  0  0  0  0  0  0  0  0  0  0  0
   49.8717   10.0577   11.4071 C   0  0  0  0  0  0  0  0  0  0  0  0
   54.7573   15.4273   10.2479 O   0  0  0  0  0  0  0  0  0  0  0  0
   52.9067    9.5386    9.1100 O   0  0  0  0  0  0  0  0  0  0  0  0
   44.5790    6.6294   12.9778 O   0  0  0  0  0  0  0  0  0  0  0  0
   54.2763   16.4734    8.0175 O   0  0  0  0  0  0  0  0  0  0  0  0
   53.2504   14.3940    7.7889 N   0  0  0  0  0  0  0  0  0  0  0  0
   51.8321    9.7983   12.6994 N   0  0  0  0  0  0  0  0  0  0  0  0
   53.0030   11.6303   10.2533 C   0  0  0  0  0  0  0  0  0  0  0  0
   53.4562   13.7346    9.0242 C   0  0  0  0  0  0  0  0  0  0  0  0
   54.1490   14.2111   10.1410 C   0  0  0  0  0  0  0  0  0  0  0  0
   52.8912   12.4465    9.1066 C   0  0  0  0  0  0  0  0  0  0  0  0
   52.3533   10.2570   10.2254 C   0  0  2  0  0  0  0  0  0  0  0  0
   53.7007   12.1420   11.3453 C   0  0  0  0  0  0  0  0  0  0  0  0
   54.2689   13.4184   11.2858 C   0  0  0  0  0  0  0  0  0  0  0  0
   52.4906    9.3328   11.4681 C   0  0  0  0  0  0  0  0  0  0  0  0
   48.1565    8.6673   12.2712 C   0  0  0  0  0  0  0  0  0  0  0  0
   50.5741    9.0844   13.0123 C   0  0  2  0  0  0  0  0  0  0  0  0
   49.4320    9.4436   12.0364 C   0  0  0  0  0  0  0  0  0  0  0  0
   45.7825    7.2190   12.7043 C   0  0  0  0  0  0  0  0  0  0  0  0
   47.0780    9.2562   12.9389 C   0  0  0  0  0  0  0  0  0  0  0  0
   48.0346    7.3457   11.8229 C   0  0  0  0  0  0  0  0  0  0  0  0
   53.6556   15.6367    7.3798 C   0  0  0  0  0  0  0  0  0  0  0  0
   45.9009    8.5366   13.1513 C   0  0  0  0  0  0  0  0  0  0  0  0
   46.8551    6.6238   12.0396 C   0  0  0  0  0  0  0  0  0  0  0  0
   50.2077    9.4521   14.4577 C   0  0  0  0  0  0  0  0  0  0  0  0
   44.3794    5.3159   12.4713 C   0  0  0  0  0  0  0  0  0  0  0  0
   50.2978   10.1326   10.9997 O   0  0  0  0  0  0  0  0  0  0  0  0
   49.9719    9.7335   11.7505 H   0  0  0  0  0  0  0  0  0  0  0  0
   50.9366   10.8461   11.3533 H   0  0  0  0  0  0  0  0  0  0  0  0
   56.2365   13.1000    7.4903 H   0  0  0  0  0  0  0  0  0  0  0  0
   49.1643   12.2270    8.9632 H   0  0  0  0  0  0  0  0  0  0  0  0
   56.3568   13.6646    9.7679 H   0  0  0  0  0  0  0  0  0  0  0  0
   48.5780   12.8821   11.5516 H   0  0  0  0  0  0  0  0  0  0  0  0
   52.7558   13.3377   10.6497 H   0  0  0  0  0  0  0  0  0  0  0  0
   50.6575   10.5151    9.5846 H   0  0  0  0  0  0  0  0  0  0  0  0
   52.2117   10.2826    7.6643 H   0  0  0  0  0  0  0  0  0  0  0  0
   54.5722   10.5352    6.9720 H   0  0  0  0  0  0  0  0  0  0  0  0
   50.5782   13.2458   10.9642 H   0  0  0  0  0  0  0  0  0  0  0  0
   50.9729   11.7468   11.7885 H   0  0  0  0  0  0  0  0  0  0  0  0
   47.4053   10.9149   11.9722 H   0  0  0  0  0  0  0  0  0  0  0  0
   48.7552    9.4084   10.4482 H   0  0  0  0  0  0  0  0  0  0  0  0
   50.0579    9.4102   11.6251 H   0  0  0  0  0  0  0  0  0  0  0  0
   46.3684    8.6640   11.2857 H   0  0  0  0  0  0  0  0  0  0  0  0
   50.0591    7.7401   13.3196 H   0  0  0  0  0  0  0  0  0  0  0  0
   56.0743   15.1460   11.4068 H   0  0  0  0  0  0  0  0  0  0  0  0
   45.2844    6.7656   12.4222 H   0  0  0  0  0  0  0  0  0  0  0  0
   48.9858    5.8580   14.4286 H   0  0  0  0  0  0  0  0  0  0  0  0
   48.5859   12.1707   13.7894 H   0  0  0  0  0  0  0  0  0  0  0  0
   48.3714   10.4588   14.1425 H   0  0  0  0  0  0  0  0  0  0  0  0
   49.9628   11.0576   13.6494 H   0  0  0  0  0  0  0  0  0  0  0  0
   47.8443    3.7537   14.3950 H   0  0  0  0  0  0  0  0  0  0  0  0
   46.3227    3.5001   15.2564 H   0  0  0  0  0  0  0  0  0  0  0  0
   47.3955    4.7930   15.8019 H   0  0  0  0  0  0  0  0  0  0  0  0
   51.4411   12.7680    9.4295 H   0  0  0  0  0  0  0  0  0  0  0  0
   49.6275    7.5442   13.2970 H   0  0  0  0  0  0  0  0  0  0  0  0
   51.9121    9.5989   11.8011 H   0  0  0  0  0  0  0  0  0  0  0  0
   49.1552   10.7005   10.9074 H   0  0  0  0  0  0  0  0  0  0  0  0
   54.6246   15.9300    9.4165 H   0  0  0  0  0  0  0  0  0  0  0  0
   53.8577    9.7408    9.0915 H   0  0  0  0  0  0  0  0  0  0  0  0
   52.7295   13.8690    7.0975 H   0  0  0  0  0  0  0  0  0  0  0  0
   52.4781    9.6444   13.4771 H   0  0  0  0  0  0  0  0  0  0  0  0
   52.3428   12.0431    8.2545 H   0  0  0  0  0  0  0  0  0  0  0  0
   51.2908   10.4017   10.0069 H   0  0  0  0  0  0  0  0  0  0  0  0
   53.8112   11.5765   12.2651 H   0  0  0  0  0  0  0  0  0  0  0  0
   54.8087   13.8091   12.1468 H   0  0  0  0  0  0  0  0  0  0  0  0
   53.5629    9.2103   11.6816 H   0  0  0  0  0  0  0  0  0  0  0  0
   52.1600    8.3188   11.2046 H   0  0  0  0  0  0  0  0  0  0  0  0
   50.7591    8.0027   12.9905 H   0  0  0  0  0  0  0  0  0  0  0  0
   49.2231   10.5205   12.0793 H   0  0  0  0  0  0  0  0  0  0  0  0
   49.7362    9.2381   11.0041 H   0  0  0  0  0  0  0  0  0  0  0  0
   47.1436   10.2801   13.2993 H   0  0  0  0  0  0  0  0  0  0  0  0
   48.8552    6.8689   11.2910 H   0  0  0  0  0  0  0  0  0  0  0  0
   53.3359   15.8337    6.3414 H   0  0  0  0  0  0  0  0  0  0  0  0
   45.0675    9.0070   13.6684 H   0  0  0  0  0  0  0  0  0  0  0  0
   46.8038    5.6045   11.6702 H   0  0  0  0  0  0  0  0  0  0  0  0
   51.0339    9.2286   15.1436 H   0  0  0  0  0  0  0  0  0  0  0  0
   49.3451    8.8770   14.8074 H   0  0  0  0  0  0  0  0  0  0  0  0
   49.9699   10.5185   14.5498 H   0  0  0  0  0  0  0  0  0  0  0  0
   43.3674    5.0033   12.7445 H   0  0  0  0  0  0  0  0  0  0  0  0
   44.4502    5.2968   11.3785 H   0  0  0  0  0  0  0  0  0  0  0  0
   45.0819    4.6097   12.9268 H   0  0  0  0  0  0  0  0  0  0  0  0
   50.9255   10.8387   11.2151 H   0  0  0  0  0  0  0  0  0  0  0  0
   50.0258    9.7906   11.8645 H   0  0  0  0  0  0  0  0  0  0  0  0
  2 10  1  0
  3 12  1  0
  4 19  1  0
  4 26  1  0
  5 22  2  0
  6  9  1  0
  6 22  1  0
  7 15  1  0
  7 17  1  0
  8 11  2  0
  8 12  1  0
  8 13  1  0
  9 10  2  0
  9 11  1  0
 10 14  1  0
 12 15  1  0
 13 14  2  0
 16 18  1  0
 16 20  2  0
 16 21  1  0
 17 18  1  0
 17 25  1  0
 19 23  2  0
 19 24  1  0
 20 23  1  0
 21 24  2  0
 27 31  1  0
 28 32  1  0
 29 31  2  0
 30 32  2  0
 31 33  1  0
 32 34  1  0
 33 34  2  0
 35 43  1  0
 36 45  1  0
 37 52  1  0
 37 59  1  0
 38 55  2  0
 39 42  1  0
 39 55  1  0
 40 48  1  0
 40 50  1  0
 41 44  2  0
 41 45  1  0
 41 46  1  0
 42 43  2  0
 42 44  1  0
 43 47  1  0
 45 48  1  0
 46 47  2  0
 49 51  1  0
 49 53  2  0
 49 54  1  0
 50 51  1  0
 50 58  1  0
 52 56  2  0
 52 57  1  0
 53 56  1  0
 54 57  2  0
  1 61  1  0
  1 62  1  0
  2 63  1  0
  3 64  1  0
  6 65  1  0
  7 66  1  0
 11 67  1  0
 12 68  1  1
 13 69  1  0
 14 70  1  0
 15 71  1  0
 15 72  1  0
 17 73  1  6
 18 74  1  0
 18 75  1  0
 20 76  1  0
 21 77  1  0
 22 78  1  0
 23 79  1  0
 24 80  1  0
 25 81  1  0
 25 82  1  0
 25 83  1  0
 26 84  1  0
 26 85  1  0
 26 86  1  0
 27 87  1  0
 28 88  1  0
 33 89  1  0
 34 90  1  0
 35 91  1  0
 36 92  1  0
 39 93  1  0
 40 94  1  0
 44 95  1  0
 45 96  1  6
 46 97  1  0
 47 98  1  0
 48 99  1  0
 48100  1  0
 50101  1  1
 51102  1  0
 51103  1  0
 53104  1  0
 54105  1  0
 55106  1  0
 56107  1  0
 57108  1  0
 58109  1  0
 58110  1  0
 58111  1  0
 59112  1  0
 59113  1  0
 59114  1  0
 60115  1  0
 60116  1  0
M  END
> <Uni-Dock RESULT> 
ENERGY=   -5.203  LOWER_BOUND=    0.000  UPPER_BOUND=    0.000
INTER + INTRA:          -5.203
INTER:                  -5.203
INTRA:                   0.000
UNBOUND:                 0.000

$$$$

     RDKit          3D

116115  0  0  0  0  0  0  0  0999 V2000
   48.2864    9.9711   14.1537 O   0  0  0  0  0  0  0  0  0  0  0  0
   50.1517   16.6479   14.6770 O   0  0  0  0  0  0  0  0  0  0  0  0
   48.2173   11.2156   17.0358 O   0  0  0  0  0  0  0  0  0  0  0  0
   44.9903    4.6636   10.7100 O   0  0  0  0  0  0  0  0  0  0  0  0
   53.4480   12.8883   15.2626 O   0  0  0  0  0  0  0  0  0  0  0  0
   52.1709   14.8158   14.8590 N   0  0  0  0  0  0  0  0  0  0  0  0
   49.2035    8.8199   15.9444 N   0  0  0  0  0  0  0  0  0  0  0  0
   49.1302   12.6747   15.3841 C   0  0  0  0  0  0  0  0  0  0  0  0
   50.8405   14.3765   15.0152 C   0  0  0  0  0  0  0  0  0  0  0  0
   49.8289   15.3301   14.8686 C   0  0  0  0  0  0  0  0  0  0  0  0
   50.4819   13.0540   15.2887 C   0  0  0  0  0  0  0  0  0  0  0  0
   48.6863   11.2563   15.6842 C   0  0  1  0  0  0  0  0  0  0  0  0
   48.1420   13.6625   15.2096 C   0  0  0  0  0  0  0  0  0  0  0  0
   48.4879   14.9873   14.9478 C   0  0  0  0  0  0  0  0  0  0  0  0
   49.7357   10.1288   15.4992 C   0  0  0  0  0  0  0  0  0  0  0  0
   46.9502    7.4866   13.0864 C   0  0  0  0  0  0  0  0  0  0  0  0
   48.7540    7.9116   14.8636 C   0  0  1  0  0  0  0  0  0  0  0  0
   47.6238    8.4992   13.9860 C   0  0  0  0  0  0  0  0  0  0  0  0
   45.6731    5.6185   11.4105 C   0  0  0  0  0  0  0  0  0  0  0  0
   46.1133    6.5036   13.6260 C   0  0  0  0  0  0  0  0  0  0  0  0
   47.1432    7.5216   11.6998 C   0  0  0  0  0  0  0  0  0  0  0  0
   53.3200   14.0707   14.9723 C   0  0  0  0  0  0  0  0  0  0  0  0
   45.4840    5.5761   12.7927 C   0  0  0  0  0  0  0  0  0  0  0  0
   46.5079    6.5941   10.8672 C   0  0  0  0  0  0  0  0  0  0  0  0
   49.9411    7.4053   14.0313 C   0  0  0  0  0  0  0  0  0  0  0  0
   45.1124    4.6935    9.2944 C   0  0  0  0  0  0  0  0  0  0  0  0
   49.2608   11.1341   15.8465 O   0  0  0  0  0  0  0  0  0  0  0  0
   47.8709    8.6805   11.8056 O   0  0  0  0  0  0  0  0  0  0  0  0
   49.8480   12.5523   14.2233 O   0  0  0  0  0  0  0  0  0  0  0  0
   47.2380    7.2849   13.4306 O   0  0  0  0  0  0  0  0  0  0  0  0
   49.3593   11.4885   14.5576 C   0  0  0  0  0  0  0  0  0  0  0  0
   47.7495    8.3372   13.0950 C   0  0  0  0  0  0  0  0  0  0  0  0
   48.8292   10.4889   13.6260 C   0  0  0  0  0  0  0  0  0  0  0  0
   48.2808    9.3339   14.0280 C   0  0  0  0  0  0  0  0  0  0  0  0
   53.2547   14.2891   16.2079 O   0  0  0  0  0  0  0  0  0  0  0  0
   47.6485   13.1038   13.6464 O   0  0  0  0  0  0  0  0  0  0  0  0
   44.8105    3.9144   13.1237 O   0  0  0  0  0  0  0  0  0  0  0  0
   52.5326   15.2201   18.4243 O   0  0  0  0  0  0  0  0  0  0  0  0
   50.5205   14.3974   17.5855 N   0  0  0  0  0  0  0  0  0  0  0  0
   49.5557   10.1928   12.2342 N   0  0  0  0  0  0  0  0  0  0  0  0
   49.8715   12.6439   14.3798 C   0  0  0  0  0  0  0  0  0  0  0  0
   50.8406   13.8278   16.3300 C   0  0  0  0  0  0  0  0  0  0  0  0
   52.0906   13.7859   15.7055 C   0  0  0  0  0  0  0  0  0  0  0  0
   49.7509   13.2485   15.6500 C   0  0  0  0  0  0  0  0  0  0  0  0
   48.6249   12.0533   13.7426 C   0  0  2  0  0  0  0  0  0  0  0  0
   51.1343   12.6220   13.7916 C   0  0  0  0  0  0  0  0  0  0  0  0
   52.2300   13.1902   14.4489 C   0  0  0  0  0  0  0  0  0  0  0  0
   48.7326   11.4091   12.3316 C   0  0  0  0  0  0  0  0  0  0  0  0
   47.1617    7.3606   13.3387 C   0  0  0  0  0  0  0  0  0  0  0  0
   48.7687    8.9444   12.1234 C   0  0  2  0  0  0  0  0  0  0  0  0
   48.0461    8.5822   13.4396 C   0  0  0  0  0  0  0  0  0  0  0  0
   45.5108    5.0889   13.1508 C   0  0  0  0  0  0  0  0  0  0  0  0
   47.5928    6.1271   13.8373 C   0  0  0  0  0  0  0  0  0  0  0  0
   45.8959    7.4451   12.7446 C   0  0  0  0  0  0  0  0  0  0  0  0
   51.3281   15.0292   18.4935 C   0  0  0  0  0  0  0  0  0  0  0  0
   46.7718    5.0021   13.7445 C   0  0  0  0  0  0  0  0  0  0  0  0
   45.0749    6.3155   12.6487 C   0  0  0  0  0  0  0  0  0  0  0  0
   49.7515    7.8407   11.7058 C   0  0  0  0  0  0  0  0  0  0  0  0
   43.4885    3.9687   12.6031 C   0  0  0  0  0  0  0  0  0  0  0  0
   48.2494    9.9195   14.1247 O   0  0  0  0  0  0  0  0  0  0  0  0
   48.2830    9.2034   13.5633 H   0  0  0  0  0  0  0  0  0  0  0  0
   49.2044   10.2804   14.1265 H   0  0  0  0  0  0  0  0  0  0  0  0
   50.4804   16.9482   15.5427 H   0  0  0  0  0  0  0  0  0  0  0  0
   48.1671   10.2608   17.2384 H   0  0  0  0  0  0  0  0  0  0  0  0
   52.2694   15.7804   14.5645 H   0  0  0  0  0  0  0  0  0  0  0  0
   49.9498    8.3413   16.4572 H   0  0  0  0  0  0  0  0  0  0  0  0
   51.2541   12.3066   15.4326 H   0  0  0  0  0  0  0  0  0  0  0  0
   47.8264   11.0406   15.0425 H   0  0  0  0  0  0  0  0  0  0  0  0
   47.0904   13.3964   15.2987 H   0  0  0  0  0  0  0  0  0  0  0  0
   47.7167   15.7406   14.8216 H   0  0  0  0  0  0  0  0  0  0  0  0
   50.5886   10.3361   16.1561 H   0  0  0  0  0  0  0  0  0  0  0  0
   50.1263   10.1106   14.4776 H   0  0  0  0  0  0  0  0  0  0  0  0
   48.3471    7.0346   15.3866 H   0  0  0  0  0  0  0  0  0  0  0  0
   46.8456    8.9291   14.6313 H   0  0  0  0  0  0  0  0  0  0  0  0
   48.0057    9.3281   13.3755 H   0  0  0  0  0  0  0  0  0  0  0  0
   45.9381    6.4544   14.6989 H   0  0  0  0  0  0  0  0  0  0  0  0
   47.7882    8.2751   11.2531 H   0  0  0  0  0  0  0  0  0  0  0  0
   54.2041   14.6949   14.7620 H   0  0  0  0  0  0  0  0  0  0  0  0
   44.8372    4.8167   13.2236 H   0  0  0  0  0  0  0  0  0  0  0  0
   46.6869    6.6626    9.8001 H   0  0  0  0  0  0  0  0  0  0  0  0
   50.7489    7.0360   14.6765 H   0  0  0  0  0  0  0  0  0  0  0  0
   49.6366    6.5674   13.3940 H   0  0  0  0  0  0  0  0  0  0  0  0
   50.3544    8.1858   13.3816 H   0  0  0  0  0  0  0  0  0  0  0  0
   44.7295    5.6328    8.8833 H   0  0  0  0  0  0  0  0  0  0  0  0
   44.5034    3.8806    8.8893 H   0  0  0  0  0  0  0  0  0  0  0  0
   46.1475    4.5193    8.9851 H   0  0  0  0  0  0  0  0  0  0  0  0
   49.6521   11.8922   16.3290 H   0  0  0  0  0  0  0  0  0  0  0  0
   47.4775    7.9234   11.3235 H   0  0  0  0  0  0  0  0  0  0  0  0
   48.9129   10.7592   12.5794 H   0  0  0  0  0  0  0  0  0  0  0  0
   48.1964    9.0650   15.0753 H   0  0  0  0  0  0  0  0  0  0  0  0
   53.0841   14.6804   17.0907 H   0  0  0  0  0  0  0  0  0  0  0  0
   48.1264   13.9055   13.3731 H   0  0  0  0  0  0  0  0  0  0  0  0
   49.5467   14.3356   17.8551 H   0  0  0  0  0  0  0  0  0  0  0  0
   50.1325   10.2719   11.3936 H   0  0  0  0  0  0  0  0  0  0  0  0
   48.7612   13.2621   16.1079 H   0  0  0  0  0  0  0  0  0  0  0  0
   48.2196   11.3137   14.4399 H   0  0  0  0  0  0  0  0  0  0  0  0
   51.3032   12.1588   12.8247 H   0  0  0  0  0  0  0  0  0  0  0  0
   53.2127   13.1639   13.9810 H   0  0  0  0  0  0  0  0  0  0  0  0
   49.1546   12.1608   11.6480 H   0  0  0  0  0  0  0  0  0  0  0  0
   47.7233   11.2337   11.9349 H   0  0  0  0  0  0  0  0  0  0  0  0
   48.0375    9.0509   11.3116 H   0  0  0  0  0  0  0  0  0  0  0  0
   48.7776    8.4439   14.2464 H   0  0  0  0  0  0  0  0  0  0  0  0
   47.4009    9.4085   13.7582 H   0  0  0  0  0  0  0  0  0  0  0  0
   48.5708    6.0305   14.3029 H   0  0  0  0  0  0  0  0  0  0  0  0
   45.5331    8.3957   12.3592 H   0  0  0  0  0  0  0  0  0  0  0  0
   50.7470   15.3685   19.3690 H   0  0  0  0  0  0  0  0  0  0  0  0
   47.1166    4.0491   14.1397 H   0  0  0  0  0  0  0  0  0  0  0  0
   44.1001    6.4292   12.1851 H   0  0  0  0  0  0  0  0  0  0  0  0
   50.2889    8.1162   10.7901 H   0  0  0  0  0  0  0  0  0  0  0  0
   49.2291    6.9032   11.4931 H   0  0  0  0  0  0  0  0  0  0  0  0
   50.4939    7.6502   12.4899 H   0  0  0  0  0  0  0  0  0  0  0  0
   43.0579    2.9662   12.6810 H   0  0  0  0  0  0  0  0  0  0  0  0
   42.8592    4.6479   13.1881 H   0  0  0  0  0  0  0  0  0  0  0  0
   43.4958    4.2480   11.5441 H   0  0  0  0  0  0  0  0  0  0  0  0
   49.1139   10.3496   14.2060 H   0  0  0  0  0  0  0  0  0  0  0  0
   48.4107    9.1858   13.5127 H   0  0  0  0  0  0  0  0  0  0  0  0
  2 10  1  0
  3 12  1  0
  4 19  1  0
  4 26  1  0
  5 22  2  0
  6  9  1  0
  6 22  1  0
  7 15  1  0
  7 17  1  0
  8 11  2  0
  8 12  1  0
  8 13  1  0
  9 10  2  0
  9 11  1  0
 10 14  1  0
 12 15  1  0
 13 14  2  0
 16 18  1  0
 16 20  2  0
 16 21  1  0
 17 18  1  0
 17 25  1  0
 19 23  2  0
 19 24  1  0
 20 23  1  0
 21 24  2  0
 27 31  1  0
 28 32  1  0
 29 31  2  0
 30 32  2  0
 31 33  1  0
 32 34  1  0
 33 34  2  0
 35 43  1  0
 36 45  1  0
 37 52  1  0
 37 59  1  0
 38 55  2  0
 39 42  1  0
 39 55  1  0
 40 48  1  0
 40 50  1  0
 41 44  2  0
 41 45  1  0
 41 46  1  0
 42 43  2  0
 42 44  1  0
 43 47  1  0
 45 48  1  0
 46 47  2  0
 49 51  1  0
 49 53  2  0
 49 54  1  0
 50 51  1  0
 50 58  1  0
 52 56  2  0
 52 57  1  0
 53 56  1  0
 54 57  2  0
  1 61  1  0
  1 62  1  0
  2 63  1  0
  3 64  1  0
  6 65  1  0
  7 66  1  0
 11 67  1  0
 12 68  1  1
 13 69  1  0
 14 70  1  0
 15 71  1  0
 15 72  1  0
 17 73  1  6
 18 74  1  0
 18 75  1  0
 20 76  1  0
 21 77  1  0
 22 78  1  0
 23 79  1  0
 24 80  1  0
 25 81  1  0
 25 82  1  0
 25 83  1  0
 26 84  1  0
 26 85  1  0
 26 86  1  0
 27 87  1  0
 28 88  1  0
 33 89  1  0
 34 90  1  0
 35 91  1  0
 36 92  1  0
 39 93  1  0
 40 94  1  0
 44 95  1  0
 45 96  1  6
 46 97  1  0
 47 98  1  0
 48 99  1  0
 48100  1  0
 50101  1  1
 51102  1  0
 51103  1  0
 53104  1  0
 54105  1  0
 55106  1  0
 56107  1  0
 57108  1  0
 58109  1  0
 58110  1  0
 58111  1  0
 59112  1  0
 59113  1  0
 59114  1  0
 60115  1  0
 60116  1  0
M  END
> <Uni-Dock RESULT> 
ENERGY=   -5.038  LOWER_BOUND=    3.850  UPPER_BOUND=    5.458
INTER + INTRA:          -5.038
INTER:                  -5.038
INTRA:                   0.000
UNBOUND:                 0.000

$$$$

     RDKit          3D

116115  0  0  0  0  0  0  0  0999 V2000
   48.6342   10.7896   11.1801 O   0  0  0  0  0  0  0  0  0  0  0  0
   47.9052    5.4552   15.5785 O   0  0  0  0  0  0  0  0  0  0  0  0
   51.2370    9.1617   11.8399 O   0  0  0  0  0  0  0  0  0  0  0  0
   46.2472   14.8012    5.7854 O   0  0  0  0  0  0  0  0  0  0  0  0
   49.1587   10.0720   17.1460 O   0  0  0  0  0  0  0  0  0  0  0  0
   48.4124    7.8894   16.7116 N   0  0  0  0  0  0  0  0  0  0  0  0
   50.6020   11.8969   11.7037 N   0  0  0  0  0  0  0  0  0  0  0  0
   49.3396    8.4953   13.1228 C   0  0  0  0  0  0  0  0  0  0  0  0
   48.6538    7.7196   15.3331 C   0  0  0  0  0  0  0  0  0  0  0  0
   48.3387    6.4771   14.7752 C   0  0  0  0  0  0  0  0  0  0  0  0
   49.1689    8.7176   14.5018 C   0  0  0  0  0  0  0  0  0  0  0  0
   49.8987    9.5406   12.1776 C   0  0  1  0  0  0  0  0  0  0  0  0
   48.9905    7.2364   12.5977 C   0  0  0  0  0  0  0  0  0  0  0  0
   48.4867    6.2292   13.4192 C   0  0  0  0  0  0  0  0  0  0  0  0
   49.9200   11.0100   12.6747 C   0  0  0  0  0  0  0  0  0  0  0  0
   48.0511   12.6602    8.8870 C   0  0  0  0  0  0  0  0  0  0  0  0
   49.7101   12.7119   10.8462 C   0  0  1  0  0  0  0  0  0  0  0  0
   48.7447   11.8725    9.9765 C   0  0  0  0  0  0  0  0  0  0  0  0
   46.7557   14.1023    6.8445 C   0  0  0  0  0  0  0  0  0  0  0  0
   48.7674   13.1150    7.7743 C   0  0  0  0  0  0  0  0  0  0  0  0
   46.6810   12.9384    8.9673 C   0  0  0  0  0  0  0  0  0  0  0  0
   48.6556    9.0057   17.4754 C   0  0  0  0  0  0  0  0  0  0  0  0
   48.1229   13.8331    6.7645 C   0  0  0  0  0  0  0  0  0  0  0  0
   46.0373   13.6539    7.9521 C   0  0  0  0  0  0  0  0  0  0  0  0
   48.9796   13.7867   11.6645 C   0  0  0  0  0  0  0  0  0  0  0  0
   44.8499   15.0601    5.7965 C   0  0  0  0  0  0  0  0  0  0  0  0
   50.0780    9.8560   12.6673 O   0  0  0  0  0  0  0  0  0  0  0  0
   46.5671   12.1735   10.1013 O   0  0  0  0  0  0  0  0  0  0  0  0
   48.2177    9.0898   13.6384 O   0  0  0  0  0  0  0  0  0  0  0  0
   48.4252   12.9006    9.0974 O   0  0  0  0  0  0  0  0  0  0  0  0
   48.7453    9.7924   12.7957 C   0  0  0  0  0  0  0  0  0  0  0  0
   47.8984   12.2178    9.9563 C   0  0  0  0  0  0  0  0  0  0  0  0
   48.0171   10.6320   11.8401 C   0  0  0  0  0  0  0  0  0  0  0  0
   48.6284   11.3811   10.9120 C   0  0  0  0  0  0  0  0  0  0  0  0
   49.8299    8.5765   17.6005 O   0  0  0  0  0  0  0  0  0  0  0  0
   47.5600    7.7997   11.8005 O   0  0  0  0  0  0  0  0  0  0  0  0
   48.7587   14.9990    5.5151 O   0  0  0  0  0  0  0  0  0  0  0  0
   51.8397    7.0772   17.4859 O   0  0  0  0  0  0  0  0  0  0  0  0
   51.1776    7.1421   15.2529 N   0  0  0  0  0  0  0  0  0  0  0  0
   46.7004   11.4246   12.2763 N   0  0  0  0  0  0  0  0  0  0  0  0
   48.3545    8.9909   13.7087 C   0  0  0  0  0  0  0  0  0  0  0  0
   50.0474    7.9934   15.2198 C   0  0  0  0  0  0  0  0  0  0  0  0
   49.4351    8.6415   16.2965 C   0  0  0  0  0  0  0  0  0  0  0  0
   49.4917    8.1864   13.9394 C   0  0  0  0  0  0  0  0  0  0  0  0
   47.8437    9.1234   12.2838 C   0  0  2  0  0  0  0  0  0  0  0  0
   47.7741    9.6201   14.8080 C   0  0  0  0  0  0  0  0  0  0  0  0
   48.3095    9.4432   16.0876 C   0  0  0  0  0  0  0  0  0  0  0  0
   46.5755    9.9816   12.0144 C   0  0  0  0  0  0  0  0  0  0  0  0
   48.3213   12.8170    9.0504 C   0  0  0  0  0  0  0  0  0  0  0  0
   46.8261   12.2468   11.0522 C   0  0  2  0  0  0  0  0  0  0  0  0
   48.1903   12.0601   10.3522 C   0  0  0  0  0  0  0  0  0  0  0  0
   48.5647   14.2221    6.6240 C   0  0  0  0  0  0  0  0  0  0  0  0
   49.0370   14.0172    8.9944 C   0  0  0  0  0  0  0  0  0  0  0  0
   47.7282   12.3277    7.8795 C   0  0  0  0  0  0  0  0  0  0  0  0
   51.9492    6.7496   16.3143 C   0  0  0  0  0  0  0  0  0  0  0  0
   49.1578   14.7117    7.7896 C   0  0  0  0  0  0  0  0  0  0  0  0
   47.8469   13.0268    6.6726 C   0  0  0  0  0  0  0  0  0  0  0  0
   46.6146   13.7066   11.4794 C   0  0  0  0  0  0  0  0  0  0  0  0
   48.2438   14.5018    4.2866 C   0  0  0  0  0  0  0  0  0  0  0  0
   48.6154   10.8258   11.1235 O   0  0  0  0  0  0  0  0  0  0  0  0
   48.1958   11.5769   10.8253 H   0  0  0  0  0  0  0  0  0  0  0  0
   48.5456   10.8878   12.1402 H   0  0  0  0  0  0  0  0  0  0  0  0
   48.6989    5.1738   16.0670 H   0  0  0  0  0  0  0  0  0  0  0  0
   51.6128    9.9659   11.4309 H   0  0  0  0  0  0  0  0  0  0  0  0
   47.9442    7.1113   17.1613 H   0  0  0  0  0  0  0  0  0  0  0  0
   51.1907   12.5438   12.2367 H   0  0  0  0  0  0  0  0  0  0  0  0
   49.4444    9.6782   14.9226 H   0  0  0  0  0  0  0  0  0  0  0  0
   49.3124    9.4935   11.2548 H   0  0  0  0  0  0  0  0  0  0  0  0
   49.1325    7.0349   11.5375 H   0  0  0  0  0  0  0  0  0  0  0  0
   48.2274    5.2607   13.0032 H   0  0  0  0  0  0  0  0  0  0  0  0
   50.5230   11.0593   13.5890 H   0  0  0  0  0  0  0  0  0  0  0  0
   48.9174   11.3551   12.9435 H   0  0  0  0  0  0  0  0  0  0  0  0
   50.3881   13.2482   10.1674 H   0  0  0  0  0  0  0  0  0  0  0  0
   49.3033   11.0632    9.4869 H   0  0  0  0  0  0  0  0  0  0  0  0
   47.9896   11.3839   10.6064 H   0  0  0  0  0  0  0  0  0  0  0  0
   49.8317   12.9092    7.6798 H   0  0  0  0  0  0  0  0  0  0  0  0
   46.0995   12.5967    9.8209 H   0  0  0  0  0  0  0  0  0  0  0  0
   48.3291    8.8376   18.5149 H   0  0  0  0  0  0  0  0  0  0  0  0
   48.6901   14.1820    5.9058 H   0  0  0  0  0  0  0  0  0  0  0  0
   44.9750   13.8429    8.0583 H   0  0  0  0  0  0  0  0  0  0  0  0
   49.6778   14.3381   12.3077 H   0  0  0  0  0  0  0  0  0  0  0  0
   48.5096   14.5230   11.0028 H   0  0  0  0  0  0  0  0  0  0  0  0
   48.1948   13.3608   12.3007 H   0  0  0  0  0  0  0  0  0  0  0  0
   44.2743   14.1292    5.7869 H   0  0  0  0  0  0  0  0  0  0  0  0
   44.6051   15.6119    4.8848 H   0  0  0  0  0  0  0  0  0  0  0  0
   44.5729   15.6875    6.6493 H   0  0  0  0  0  0  0  0  0  0  0  0
   50.4101    9.2523   13.3643 H   0  0  0  0  0  0  0  0  0  0  0  0
   46.2352   12.7754    9.4028 H   0  0  0  0  0  0  0  0  0  0  0  0
   46.9382   10.5976   11.9409 H   0  0  0  0  0  0  0  0  0  0  0  0
   49.7077   11.4139   10.8112 H   0  0  0  0  0  0  0  0  0  0  0  0
   50.6260    8.0083   17.6700 H   0  0  0  0  0  0  0  0  0  0  0  0
   47.1408    7.3182   12.5341 H   0  0  0  0  0  0  0  0  0  0  0  0
   51.4590    6.7584   14.3594 H   0  0  0  0  0  0  0  0  0  0  0  0
   45.8567   11.7275   12.7684 H   0  0  0  0  0  0  0  0  0  0  0  0
   49.9442    7.6970   13.0762 H   0  0  0  0  0  0  0  0  0  0  0  0
   48.6677    9.5078   11.6748 H   0  0  0  0  0  0  0  0  0  0  0  0
   46.9085   10.2662   14.7017 H   0  0  0  0  0  0  0  0  0  0  0  0
   47.8495    9.9428   16.9385 H   0  0  0  0  0  0  0  0  0  0  0  0
   45.7627    9.5909   12.6446 H   0  0  0  0  0  0  0  0  0  0  0  0
   46.2231    9.7969   10.9905 H   0  0  0  0  0  0  0  0  0  0  0  0
   46.0124   11.9905   10.3615 H   0  0  0  0  0  0  0  0  0  0  0  0
   49.0050   12.3459   11.0301 H   0  0  0  0  0  0  0  0  0  0  0  0
   48.3539   11.0029   10.1156 H   0  0  0  0  0  0  0  0  0  0  0  0
   49.5075   14.4223    9.8872 H   0  0  0  0  0  0  0  0  0  0  0  0
   47.1756   11.3906    7.8946 H   0  0  0  0  0  0  0  0  0  0  0  0
   52.7498    6.0631   15.9871 H   0  0  0  0  0  0  0  0  0  0  0  0
   49.7206   15.6421    7.7578 H   0  0  0  0  0  0  0  0  0  0  0  0
   47.3752   12.6072    5.7897 H   0  0  0  0  0  0  0  0  0  0  0  0
   45.6611   13.8295   12.0075 H   0  0  0  0  0  0  0  0  0  0  0  0
   46.5815   14.3734   10.6126 H   0  0  0  0  0  0  0  0  0  0  0  0
   47.4167   14.0476   12.1448 H   0  0  0  0  0  0  0  0  0  0  0  0
   48.5077   15.2156    3.5010 H   0  0  0  0  0  0  0  0  0  0  0  0
   48.6964   13.5387    4.0273 H   0  0  0  0  0  0  0  0  0  0  0  0
   47.1513   14.4304    4.3202 H   0  0  0  0  0  0  0  0  0  0  0  0
   48.6114   10.7756   12.0912 H   0  0  0  0  0  0  0  0  0  0  0  0
   48.1487   11.6529   10.9310 H   0  0  0  0  0  0  0  0  0  0  0  0
  2 10  1  0
  3 12  1  0
  4 19  1  0
  4 26  1  0
  5 22  2  0
  6  9  1  0
  6 22  1  0
  7 15  1  0
  7 17  1  0
  8 11  2  0
  8 12  1  0
  8 13  1  0
  9 10  2  0
  9 11  1  0
 10 14  1  0
 12 15  1  0
 13 14  2  0
 16 18  1  0
 16 20  2  0
 16 21  1  0
 17 18  1  0
 17 25  1  0
 19 23  2  0
 19 24  1  0
 20 23  1  0
 21 24  2  0
 27 31  1  0
 28 32  1  0
 29 31  2  0
 30 32  2  0
 31 33  1  0
 32 34  1  0
 33 34  2  0
 35 43  1  0
 36 45  1  0
 37 52  1  0
 37 59  1  0
 38 55  2  0
 39 42  1  0
 39 55  1  0
 40 48  1  0
 40 50  1  0
 41 44  2  0
 41 45  1  0
 41 46  1  0
 42 43  2  0
 42 44  1  0
 43 47  1  0
 45 48  1  0
 46 47  2  0
 49 51  1  0
 49 53  2  0
 49 54  1  0
 50 51  1  0
 50 58  1  0
 52 56  2  0
 52 57  1  0
 53 56  1  0
 54 57  2  0
  1 61  1  0
  1 62  1  0
  2 63  1  0
  3 64  1  0
  6 65  1  0
  7 66  1  0
 11 67  1  0
 12 68  1  1
 13 69  1  0
 14 70  1  0
 15 71  1  0
 15 72  1  0
 17 73  1  6
 18 74  1  0
 18 75  1  0
 20 76  1  0
 21 77  1  0
 22 78  1  0
 23 79  1  0
 24 80  1  0
 25 81  1  0
 25 82  1  0
 25 83  1  0
 26 84  1  0
 26 85  1  0
 26 86  1  0
 27 87  1  0
 28 88  1  0
 33 89  1  0
 34 90  1  0
 35 91  1  0
 36 92  1  0
 39 93  1  0
 40 94  1  0
 44 95  1  0
 45 96  1  6
 46 97  1  0
 47 98  1  0
 48 99  1  0
 48100  1  0
 50101  1  1
 51102  1  0
 51103  1  0
 53104  1  0
 54105  1  0
 55106  1  0
 56107  1  0
 57108  1  0
 58109  1  0
 58110  1  0
 58111  1  0
 59112  1  0
 59113  1  0
 59114  1  0
 60115  1  0
 60116  1  0
M  END
> <Uni-Dock RESULT> 
ENERGY=   -4.685  LOWER_BOUND=    3.394  UPPER_BOUND=    7.947
INTER + INTRA:          -4.685
INTER:                  -4.685
INTRA:                   0.000
UNBOUND:                 0.000

$$$$

     RDKit          3D

116115  0  0  0  0  0  0  0  0999 V2000
   44.9491   12.5342   10.1675 O   0  0  0  0  0  0  0  0  0  0  0  0
   38.1123   13.7861   10.0099 O   0  0  0  0  0  0  0  0  0  0  0  0
   43.1032   10.1011    9.4374 O   0  0  0  0  0  0  0  0  0  0  0  0
   51.6857   14.5061    8.8938 O   0  0  0  0  0  0  0  0  0  0  0  0
   40.4366   12.1046   14.1467 O   0  0  0  0  0  0  0  0  0  0  0  0
   39.1469   13.0538   12.4306 N   0  0  0  0  0  0  0  0  0  0  0  0
   45.2853   10.4719   11.1708 N   0  0  0  0  0  0  0  0  0  0  0  0
   41.8993   12.0586   10.0770 C   0  0  0  0  0  0  0  0  0  0  0  0
   39.9117   12.8241   11.2688 C   0  0  0  0  0  0  0  0  0  0  0  0
   39.3743   13.2540   10.0520 C   0  0  0  0  0  0  0  0  0  0  0  0
   41.1682   12.2129   11.2694 C   0  0  0  0  0  0  0  0  0  0  0  0
   43.2631   11.3985   10.0204 C   0  0  1  0  0  0  0  0  0  0  0  0
   41.3305   12.5240    8.8760 C   0  0  0  0  0  0  0  0  0  0  0  0
   40.0728   13.1248    8.8614 C   0  0  0  0  0  0  0  0  0  0  0  0
   44.0321   11.2393   11.3583 C   0  0  0  0  0  0  0  0  0  0  0  0
   47.9042   12.9271    9.7090 C   0  0  0  0  0  0  0  0  0  0  0  0
   46.5268   11.2787   11.1156 C   0  0  1  0  0  0  0  0  0  0  0  0
   46.5448   12.3162    9.9683 C   0  0  0  0  0  0  0  0  0  0  0  0
   50.4265   14.0708    9.1997 C   0  0  0  0  0  0  0  0  0  0  0  0
   48.9254   12.1662    9.1290 C   0  0  0  0  0  0  0  0  0  0  0  0
   48.1610   14.2648   10.0342 C   0  0  0  0  0  0  0  0  0  0  0  0
   39.4593   12.7084   13.7236 C   0  0  0  0  0  0  0  0  0  0  0  0
   50.1765   12.7352    8.8808 C   0  0  0  0  0  0  0  0  0  0  0  0
   49.4137   14.8332    9.7802 C   0  0  0  0  0  0  0  0  0  0  0  0
   46.8445   11.9067   12.4805 C   0  0  0  0  0  0  0  0  0  0  0  0
   51.9758   15.8725    9.1559 C   0  0  0  0  0  0  0  0  0  0  0  0
   43.1624   11.1920   10.5848 O   0  0  0  0  0  0  0  0  0  0  0  0
   46.8492   14.4556   10.3903 O   0  0  0  0  0  0  0  0  0  0  0  0
   42.0869   13.1208   10.9223 O   0  0  0  0  0  0  0  0  0  0  0  0
   47.9173   12.5326   10.0027 O   0  0  0  0  0  0  0  0  0  0  0  0
   43.1291   12.5252   10.7193 C   0  0  0  0  0  0  0  0  0  0  0  0
   46.8791   13.1256   10.2307 C   0  0  0  0  0  0  0  0  0  0  0  0
   44.4415   13.1662   10.5967 C   0  0  0  0  0  0  0  0  0  0  0  0
   45.5687   12.4825   10.3551 C   0  0  0  0  0  0  0  0  0  0  0  0
   38.9687   11.5809   13.4652 O   0  0  0  0  0  0  0  0  0  0  0  0
   42.3840   13.8910    8.7329 O   0  0  0  0  0  0  0  0  0  0  0  0
   51.8255   11.9862    8.6703 O   0  0  0  0  0  0  0  0  0  0  0  0
   37.7741    9.7227   12.2733 O   0  0  0  0  0  0  0  0  0  0  0  0
   39.3454   10.3666   10.6780 N   0  0  0  0  0  0  0  0  0  0  0  0
   44.8441   14.4032   11.5243 N   0  0  0  0  0  0  0  0  0  0  0  0
   41.9563   12.9943   10.9018 C   0  0  0  0  0  0  0  0  0  0  0  0
   40.0877   11.4103   11.2802 C   0  0  0  0  0  0  0  0  0  0  0  0
   39.9071   11.9625   12.5518 C   0  0  0  0  0  0  0  0  0  0  0  0
   41.1182   11.9399   10.4784 C   0  0  0  0  0  0  0  0  0  0  0  0
   43.0337   13.4844    9.9489 C   0  0  2  0  0  0  0  0  0  0  0  0
   41.7445   13.5166   12.1761 C   0  0  0  0  0  0  0  0  0  0  0  0
   40.7279   13.0056   12.9892 C   0  0  0  0  0  0  0  0  0  0  0  0
   43.9473   14.6639   10.3866 C   0  0  0  0  0  0  0  0  0  0  0  0
   47.8935   12.6439    9.9186 C   0  0  0  0  0  0  0  0  0  0  0  0
   46.2572   14.1947   11.1374 C   0  0  2  0  0  0  0  0  0  0  0  0
   46.4783   12.8517   10.4071 C   0  0  0  0  0  0  0  0  0  0  0  0
   50.5273   12.2578    9.0045 C   0  0  0  0  0  0  0  0  0  0  0  0
   48.7747   11.8167   10.6224 C   0  0  0  0  0  0  0  0  0  0  0  0
   48.3445   13.2761    8.7528 C   0  0  0  0  0  0  0  0  0  0  0  0
   38.2942    9.6402   11.1712 C   0  0  0  0  0  0  0  0  0  0  0  0
   50.0800   11.6254   10.1664 C   0  0  0  0  0  0  0  0  0  0  0  0
   49.6548   13.0865    8.2984 C   0  0  0  0  0  0  0  0  0  0  0  0
   47.0825   14.2677   12.4304 C   0  0  0  0  0  0  0  0  0  0  0  0
   52.3027   12.5411    7.4514 C   0  0  0  0  0  0  0  0  0  0  0  0
   45.0149   12.5493   10.1499 O   0  0  0  0  0  0  0  0  0  0  0  0
   45.8045   12.8942   10.4446 H   0  0  0  0  0  0  0  0  0  0  0  0
   44.3955   12.6169   10.9586 H   0  0  0  0  0  0  0  0  0  0  0  0
   37.5207   13.0249   10.1444 H   0  0  0  0  0  0  0  0  0  0  0  0
   43.9465    9.6487    9.6362 H   0  0  0  0  0  0  0  0  0  0  0  0
   38.3030   13.5959   12.2851 H   0  0  0  0  0  0  0  0  0  0  0  0
   45.3734    9.8265   11.9611 H   0  0  0  0  0  0  0  0  0  0  0  0
   41.5882   11.8488   12.2003 H   0  0  0  0  0  0  0  0  0  0  0  0
   43.8804   11.9830    9.3311 H   0  0  0  0  0  0  0  0  0  0  0  0
   41.8689   12.3975    7.9385 H   0  0  0  0  0  0  0  0  0  0  0  0
   39.6425   13.4736    7.9279 H   0  0  0  0  0  0  0  0  0  0  0  0
   43.4208   10.6381   12.0415 H   0  0  0  0  0  0  0  0  0  0  0  0
   44.1871   12.2056   11.8471 H   0  0  0  0  0  0  0  0  0  0  0  0
   47.3253   10.5499   10.9175 H   0  0  0  0  0  0  0  0  0  0  0  0
   46.2213   11.8352    9.0350 H   0  0  0  0  0  0  0  0  0  0  0  0
   45.8199   13.1169   10.1656 H   0  0  0  0  0  0  0  0  0  0  0  0
   48.7548   11.1260    8.8590 H   0  0  0  0  0  0  0  0  0  0  0  0
   47.3854   14.8796   10.4857 H   0  0  0  0  0  0  0  0  0  0  0  0
   38.6719   13.0536   14.4136 H   0  0  0  0  0  0  0  0  0  0  0  0
   50.9619   12.1339    8.4310 H   0  0  0  0  0  0  0  0  0  0  0  0
   49.5639   15.8730   10.0478 H   0  0  0  0  0  0  0  0  0  0  0  0
   46.7805   11.1617   13.2843 H   0  0  0  0  0  0  0  0  0  0  0  0
   47.8666   12.3017   12.4954 H   0  0  0  0  0  0  0  0  0  0  0  0
   46.1645   12.7311   12.7256 H   0  0  0  0  0  0  0  0  0  0  0  0
   51.3289   16.5341    8.5714 H   0  0  0  0  0  0  0  0  0  0  0  0
   53.0082   16.0598    8.8482 H   0  0  0  0  0  0  0  0  0  0  0  0
   51.9026   16.0918   10.2256 H   0  0  0  0  0  0  0  0  0  0  0  0
   42.2264   10.9218   10.6919 H   0  0  0  0  0  0  0  0  0  0  0  0
   47.7848   14.7258   10.2809 H   0  0  0  0  0  0  0  0  0  0  0  0
   44.4294   14.2438   10.7144 H   0  0  0  0  0  0  0  0  0  0  0  0
   45.5795   11.4046   10.2363 H   0  0  0  0  0  0  0  0  0  0  0  0
   38.4389   10.8428   13.0963 H   0  0  0  0  0  0  0  0  0  0  0  0
   41.5710   14.3571    8.9927 H   0  0  0  0  0  0  0  0  0  0  0  0
   39.6272   10.1194    9.7376 H   0  0  0  0  0  0  0  0  0  0  0  0
   44.8084   15.2161   12.1435 H   0  0  0  0  0  0  0  0  0  0  0  0
   41.2883   11.5327    9.4811 H   0  0  0  0  0  0  0  0  0  0  0  0
   43.6617   12.6250    9.6947 H   0  0  0  0  0  0  0  0  0  0  0  0
   42.3620   14.3161   12.5727 H   0  0  0  0  0  0  0  0  0  0  0  0
   40.5741   13.4193   13.9844 H   0  0  0  0  0  0  0  0  0  0  0  0
   43.2998   15.5128   10.6519 H   0  0  0  0  0  0  0  0  0  0  0  0
   44.5111   15.0282    9.5170 H   0  0  0  0  0  0  0  0  0  0  0  0
   46.5819   15.0263   10.4987 H   0  0  0  0  0  0  0  0  0  0  0  0
   46.1841   12.0161   11.0555 H   0  0  0  0  0  0  0  0  0  0  0  0
   45.8318   12.7886    9.5247 H   0  0  0  0  0  0  0  0  0  0  0  0
   48.4534   11.3134   11.5313 H   0  0  0  0  0  0  0  0  0  0  0  0
   47.6749   13.9156    8.1814 H   0  0  0  0  0  0  0  0  0  0  0  0
   37.9373    8.9074   10.4263 H   0  0  0  0  0  0  0  0  0  0  0  0
   50.7548   10.9764   10.7203 H   0  0  0  0  0  0  0  0  0  0  0  0
   49.9588   13.5924    7.3875 H   0  0  0  0  0  0  0  0  0  0  0  0
   46.8967   15.2074   12.9650 H   0  0  0  0  0  0  0  0  0  0  0  0
   48.1555   14.2337   12.2194 H   0  0  0  0  0  0  0  0  0  0  0  0
   46.8387   13.4395   13.1064 H   0  0  0  0  0  0  0  0  0  0  0  0
   53.3352   12.2072    7.3144 H   0  0  0  0  0  0  0  0  0  0  0  0
   51.7202   12.1814    6.5965 H   0  0  0  0  0  0  0  0  0  0  0  0
   52.3084   13.6356    7.4951 H   0  0  0  0  0  0  0  0  0  0  0  0
   44.3391   12.5619   10.8442 H   0  0  0  0  0  0  0  0  0  0  0  0
   45.7950   12.9342   10.5768 H   0  0  0  0  0  0  0  0  0  0  0  0
  2 10  1  0
  3 12  1  0
  4 19  1  0
  4 26  1  0
  5 22  2  0
  6  9  1  0
  6 22  1  0
  7 15  1  0
  7 17  1  0
  8 11  2  0
  8 12  1  0
  8 13  1  0
  9 10  2  0
  9 11  1  0
 10 14  1  0
 12 15  1  0
 13 14  2  0
 16 18  1  0
 16 20  2  0
 16 21  1  0
 17 18  1  0
 17 25  1  0
 19 23  2  0
 19 24  1  0
 20 23  1  0
 21 24  2  0
 27 31  1  0
 28 32  1  0
 29 31  2  0
 30 32  2  0
 31 33  1  0
 32 34  1  0
 33 34  2  0
 35 43  1  0
 36 45  1  0
 37 52  1  0
 37 59  1  0
 38 55  2  0
 39 42  1  0
 39 55  1  0
 40 48  1  0
 40 50  1  0
 41 44  2  0
 41 45  1  0
 41 46  1  0
 42 43  2  0
 42 44  1  0
 43 47  1  0
 45 48  1  0
 46 47  2  0
 49 51  1  0
 49 53  2  0
 49 54  1  0
 50 51  1  0
 50 58  1  0
 52 56  2  0
 52 57  1  0
 53 56  1  0
 54 57  2  0
  1 61  1  0
  1 62  1  0
  2 63  1  0
  3 64  1  0
  6 65  1  0
  7 66  1  0
 11 67  1  0
 12 68  1  1
 13 69  1  0
 14 70  1  0
 15 71  1  0
 15 72  1  0
 17 73  1  6
 18 74  1  0
 18 75  1  0
 20 76  1  0
 21 77  1  0
 22 78  1  0
 23 79  1  0
 24 80  1  0
 25 81  1  0
 25 82  1  0
 25 83  1  0
 26 84  1  0
 26 85  1  0
 26 86  1  0
 27 87  1  0
 28 88  1  0
 33 89  1  0
 34 90  1  0
 35 91  1  0
 36 92  1  0
 39 93  1  0
 40 94  1  0
 44 95  1  0
 45 96  1  6
 46 97  1  0
 47 98  1  0
 48 99  1  0
 48100  1  0
 50101  1  1
 51102  1  0
 51103  1  0
 53104  1  0
 54105  1  0
 55106  1  0
 56107  1  0
 57108  1  0
 58109  1  0
 58110  1  0
 58111  1  0
 59112  1  0
 59113  1  0
 59114  1  0
 60115  1  0
 60116  1  0
M  END
> <Uni-Dock RESULT> 
ENERGY=   -4.549  LOWER_BOUND=    5.491  UPPER_BOUND=   10.505
INTER + INTRA:          -4.549
INTER:                  -4.549
INTRA:                   0.000
UNBOUND:                 0.000

$$$$

     RDKit          3D

116115  0  0  0  0  0  0  0  0999 V2000
   45.3462   12.7068    8.9335 O   0  0  0  0  0  0  0  0  0  0  0  0
   39.3296    9.7919   10.8403 O   0  0  0  0  0  0  0  0  0  0  0  0
   44.4781   13.1296   11.9215 O   0  0  0  0  0  0  0  0  0  0  0  0
   51.4705   12.5591    5.2776 O   0  0  0  0  0  0  0  0  0  0  0  0
   39.6028   14.5336    9.1716 O   0  0  0  0  0  0  0  0  0  0  0  0
   39.1699   12.3147    9.8028 N   0  0  0  0  0  0  0  0  0  0  0  0
   45.4702   14.8107    9.8984 N   0  0  0  0  0  0  0  0  0  0  0  0
   42.8308   12.0302   10.5918 C   0  0  0  0  0  0  0  0  0  0  0  0
   40.4243   11.8367   10.2333 C   0  0  0  0  0  0  0  0  0  0  0  0
   40.4802   10.5253   10.7143 C   0  0  0  0  0  0  0  0  0  0  0  0
   41.6023   12.5870   10.1908 C   0  0  0  0  0  0  0  0  0  0  0  0
   44.1364   12.8008   10.5710 C   0  0  1  0  0  0  0  0  0  0  0  0
   42.8465   10.6991   11.0506 C   0  0  0  0  0  0  0  0  0  0  0  0
   41.6758    9.9446   11.1084 C   0  0  0  0  0  0  0  0  0  0  0  0
   44.1806   14.1020    9.7275 C   0  0  0  0  0  0  0  0  0  0  0  0
   48.0570   13.0065    7.6453 C   0  0  0  0  0  0  0  0  0  0  0  0
   46.4443   14.6406    8.7952 C   0  0  1  0  0  0  0  0  0  0  0  0
   46.8527   13.1695    8.5463 C   0  0  0  0  0  0  0  0  0  0  0  0
   50.3033   12.6773    5.9794 C   0  0  0  0  0  0  0  0  0  0  0  0
   49.3342   13.3564    8.0973 C   0  0  0  0  0  0  0  0  0  0  0  0
   47.9167   12.4938    6.3497 C   0  0  0  0  0  0  0  0  0  0  0  0
   38.8703   13.5627    9.3116 C   0  0  0  0  0  0  0  0  0  0  0  0
   50.4461   13.1953    7.2676 C   0  0  0  0  0  0  0  0  0  0  0  0
   49.0329   12.3294    5.5225 C   0  0  0  0  0  0  0  0  0  0  0  0
   45.9653   15.3418    7.5156 C   0  0  0  0  0  0  0  0  0  0  0  0
   51.3848   11.9926    3.9770 C   0  0  0  0  0  0  0  0  0  0  0  0
   43.8096   13.3097   10.4965 O   0  0  0  0  0  0  0  0  0  0  0  0
   46.5840   12.2465    6.5654 O   0  0  0  0  0  0  0  0  0  0  0  0
   42.4228   12.0461    9.2837 O   0  0  0  0  0  0  0  0  0  0  0  0
   47.9876   13.4679    7.8012 O   0  0  0  0  0  0  0  0  0  0  0  0
   43.5114   12.5749    9.4159 C   0  0  0  0  0  0  0  0  0  0  0  0
   46.8907   12.9602    7.6571 C   0  0  0  0  0  0  0  0  0  0  0  0
   44.6047   12.4790    8.4443 C   0  0  0  0  0  0  0  0  0  0  0  0
   45.7987   13.0592    8.6286 C   0  0  0  0  0  0  0  0  0  0  0  0
   38.7443   13.9250   10.5081 O   0  0  0  0  0  0  0  0  0  0  0  0
   43.6146   10.0633    9.6347 O   0  0  0  0  0  0  0  0  0  0  0  0
   52.0855   13.9933    7.2737 O   0  0  0  0  0  0  0  0  0  0  0  0
   38.5722   13.8494   13.0111 O   0  0  0  0  0  0  0  0  0  0  0  0
   40.5972   12.7553   12.6490 N   0  0  0  0  0  0  0  0  0  0  0  0
   44.3158   12.5107    6.8734 N   0  0  0  0  0  0  0  0  0  0  0  0
   42.3394   12.0705    9.4446 C   0  0  0  0  0  0  0  0  0  0  0  0
   40.7878   12.7699   11.2467 C   0  0  0  0  0  0  0  0  0  0  0  0
   39.9352   13.3021   10.2750 C   0  0  0  0  0  0  0  0  0  0  0  0
   41.9817   12.1643   10.8073 C   0  0  0  0  0  0  0  0  0  0  0  0
   43.6526   11.3931    9.0902 C   0  0  2  0  0  0  0  0  0  0  0  0
   41.4631   12.6138    8.5075 C   0  0  0  0  0  0  0  0  0  0  0  0
   40.2730   13.2203    8.9213 C   0  0  0  0  0  0  0  0  0  0  0  0
   44.0493   11.2548    7.5932 C   0  0  0  0  0  0  0  0  0  0  0  0
   47.9904   13.3309    7.7660 C   0  0  0  0  0  0  0  0  0  0  0  0
   45.7536   12.7765    6.6448 C   0  0  2  0  0  0  0  0  0  0  0  0
   46.5020   13.1389    7.9465 C   0  0  0  0  0  0  0  0  0  0  0  0
   50.7626   13.6842    7.4322 C   0  0  0  0  0  0  0  0  0  0  0  0
   48.5391   14.6157    7.7009 C   0  0  0  0  0  0  0  0  0  0  0  0
   48.8436   12.2248    7.6618 C   0  0  0  0  0  0  0  0  0  0  0  0
   39.5641   13.2514   13.3990 C   0  0  0  0  0  0  0  0  0  0  0  0
   49.9145   14.7886    7.5369 C   0  0  0  0  0  0  0  0  0  0  0  0
   50.2222   12.3993    7.4936 C   0  0  0  0  0  0  0  0  0  0  0  0
   45.8323   13.9183    5.6209 C   0  0  0  0  0  0  0  0  0  0  0  0
   52.9988   12.9039    7.2442 C   0  0  0  0  0  0  0  0  0  0  0  0
   45.4092   12.7043    8.9036 O   0  0  0  0  0  0  0  0  0  0  0  0
   45.8959   12.9402    8.1710 H   0  0  0  0  0  0  0  0  0  0  0  0
   44.4751   13.0681    8.7107 H   0  0  0  0  0  0  0  0  0  0  0  0
   38.8711   10.1844   11.6041 H   0  0  0  0  0  0  0  0  0  0  0  0
   45.1797   13.8037   11.8289 H   0  0  0  0  0  0  0  0  0  0  0  0
   38.4284   11.6238    9.8005 H   0  0  0  0  0  0  0  0  0  0  0  0
   45.2650   15.8112    9.9754 H   0  0  0  0  0  0  0  0  0  0  0  0
   41.5727   13.6147    9.8464 H   0  0  0  0  0  0  0  0  0  0  0  0
   44.9111   12.1208   10.2034 H   0  0  0  0  0  0  0  0  0  0  0  0
   43.7817   10.2537   11.3847 H   0  0  0  0  0  0  0  0  0  0  0  0
   41.7002    8.9215   11.4701 H   0  0  0  0  0  0  0  0  0  0  0  0
   43.4165   14.7898   10.1085 H   0  0  0  0  0  0  0  0  0  0  0  0
   43.9308   13.9077    8.6804 H   0  0  0  0  0  0  0  0  0  0  0  0
   47.3407   15.1830    9.1275 H   0  0  0  0  0  0  0  0  0  0  0  0
   47.0966   12.6904    9.5043 H   0  0  0  0  0  0  0  0  0  0  0  0
   46.0093   12.6040    8.1287 H   0  0  0  0  0  0  0  0  0  0  0  0
   49.4766   13.7512    9.1013 H   0  0  0  0  0  0  0  0  0  0  0  0
   46.9357   12.2133    5.9724 H   0  0  0  0  0  0  0  0  0  0  0  0
   37.8056   13.6189    9.0310 H   0  0  0  0  0  0  0  0  0  0  0  0
   51.4327   13.4716    7.6295 H   0  0  0  0  0  0  0  0  0  0  0  0
   48.8740   11.9270    4.5284 H   0  0  0  0  0  0  0  0  0  0  0  0
   45.6376   16.3684    7.7250 H   0  0  0  0  0  0  0  0  0  0  0  0
   46.7796   15.4119    6.7856 H   0  0  0  0  0  0  0  0  0  0  0  0
   45.1339   14.8098    7.0382 H   0  0  0  0  0  0  0  0  0  0  0  0
   51.0063   10.9664    4.0159 H   0  0  0  0  0  0  0  0  0  0  0  0
   52.3952   11.9589    3.5601 H   0  0  0  0  0  0  0  0  0  0  0  0
   50.7732   12.6149    3.3165 H   0  0  0  0  0  0  0  0  0  0  0  0
   42.9917   13.2770   11.0356 H   0  0  0  0  0  0  0  0  0  0  0  0
   47.4026   12.2775    6.0276 H   0  0  0  0  0  0  0  0  0  0  0  0
   44.3721   11.8960    7.5604 H   0  0  0  0  0  0  0  0  0  0  0  0
   46.0307   13.6413    9.5138 H   0  0  0  0  0  0  0  0  0  0  0  0
   38.5779   13.9547   11.4740 H   0  0  0  0  0  0  0  0  0  0  0  0
   42.7164    9.7238    9.4809 H   0  0  0  0  0  0  0  0  0  0  0  0
   41.3310   12.3062   13.1826 H   0  0  0  0  0  0  0  0  0  0  0  0
   43.8622   12.4495    5.9589 H   0  0  0  0  0  0  0  0  0  0  0  0
   42.6710   11.7395   11.5379 H   0  0  0  0  0  0  0  0  0  0  0  0
   44.4488   11.9246    9.6203 H   0  0  0  0  0  0  0  0  0  0  0  0
   41.6824   12.5923    7.4448 H   0  0  0  0  0  0  0  0  0  0  0  0
   39.5978   13.6445    8.1800 H   0  0  0  0  0  0  0  0  0  0  0  0
   43.2324   10.7320    7.0738 H   0  0  0  0  0  0  0  0  0  0  0  0
   44.8985   10.5634    7.5053 H   0  0  0  0  0  0  0  0  0  0  0  0
   46.2134   11.8940    6.1815 H   0  0  0  0  0  0  0  0  0  0  0  0
   46.0643   14.0400    8.3955 H   0  0  0  0  0  0  0  0  0  0  0  0
   46.3784   12.3432    8.6895 H   0  0  0  0  0  0  0  0  0  0  0  0
   47.9017   15.4935    7.7779 H   0  0  0  0  0  0  0  0  0  0  0  0
   48.4425   11.2152    7.7207 H   0  0  0  0  0  0  0  0  0  0  0  0
   39.7272   13.0552   14.4734 H   0  0  0  0  0  0  0  0  0  0  0  0
   50.3299   15.7929    7.4918 H   0  0  0  0  0  0  0  0  0  0  0  0
   50.8453   11.5135    7.4228 H   0  0  0  0  0  0  0  0  0  0  0  0
   45.2704   13.6727    4.7114 H   0  0  0  0  0  0  0  0  0  0  0  0
   46.8651   14.1037    5.3112 H   0  0  0  0  0  0  0  0  0  0  0  0
   45.4237   14.8499    6.0303 H   0  0  0  0  0  0  0  0  0  0  0  0
   54.0070   13.3165    7.1464 H   0  0  0  0  0  0  0  0  0  0  0  0
   52.9627   12.3304    8.1766 H   0  0  0  0  0  0  0  0  0  0  0  0
   52.8146   12.2619    6.3762 H   0  0  0  0  0  0  0  0  0  0  0  0
   44.4899   13.0020    8.8319 H   0  0  0  0  0  0  0  0  0  0  0  0
   45.8179   13.0091    8.0796 H   0  0  0  0  0  0  0  0  0  0  0  0
  2 10  1  0
  3 12  1  0
  4 19  1  0
  4 26  1  0
  5 22  2  0
  6  9  1  0
  6 22  1  0
  7 15  1  0
  7 17  1  0
  8 11  2  0
  8 12  1  0
  8 13  1  0
  9 10  2  0
  9 11  1  0
 10 14  1  0
 12 15  1  0
 13 14  2  0
 16 18  1  0
 16 20  2  0
 16 21  1  0
 17 18  1  0
 17 25  1  0
 19 23  2  0
 19 24  1  0
 20 23  1  0
 21 24  2  0
 27 31  1  0
 28 32  1  0
 29 31  2  0
 30 32  2  0
 31 33  1  0
 32 34  1  0
 33 34  2  0
 35 43  1  0
 36 45  1  0
 37 52  1  0
 37 59  1  0
 38 55  2  0
 39 42  1  0
 39 55  1  0
 40 48  1  0
 40 50  1  0
 41 44  2  0
 41 45  1  0
 41 46  1  0
 42 43  2  0
 42 44  1  0
 43 47  1  0
 45 48  1  0
 46 47  2  0
 49 51  1  0
 49 53  2  0
 49 54  1  0
 50 51  1  0
 50 58  1  0
 52 56  2  0
 52 57  1  0
 53 56  1  0
 54 57  2  0
  1 61  1  0
  1 62  1  0
  2 63  1  0
  3 64  1  0
  6 65  1  0
  7 66  1  0
 11 67  1  0
 12 68  1  1
 13 69  1  0
 14 70  1  0
 15 71  1  0
 15 72  1  0
 17 73  1  6
 18 74  1  0
 18 75  1  0
 20 76  1  0
 21 77  1  0
 22 78  1  0
 23 79  1  0
 24 80  1  0
 25 81  1  0
 25 82  1  0
 25 83  1  0
 26 84  1  0
 26 85  1  0
 26 86  1  0
 27 87  1  0
 28 88  1  0
 33 89  1  0
 34 90  1  0
 35 91  1  0
 36 92  1  0
 39 93  1  0
 40 94  1  0
 44 95  1  0
 45 96  1  6
 46 97  1  0
 47 98  1  0
 48 99  1  0
 48100  1  0
 50101  1  1
 51102  1  0
 51103  1  0
 53104  1  0
 54105  1  0
 55106  1  0
 56107  1  0
 57108  1  0
 58109  1  0
 58110  1  0
 58111  1  0
 59112  1  0
 59113  1  0
 59114  1  0
 60115  1  0
 60116  1  0
M  END
> <Uni-Dock RESULT> 
ENERGY=   -4.505  LOWER_BOUND=    5.875  UPPER_BOUND=   10.660
INTER + INTRA:          -4.505
INTER:                  -4.505
INTRA:                   0.000
UNBOUND:                 0.000

$$$$

     RDKit          3D

116115  0  0  0  0  0  0  0  0999 V2000
   49.3837    9.1940   14.6743 O   0  0  0  0  0  0  0  0  0  0  0  0
   53.1686   12.5600   19.4363 O   0  0  0  0  0  0  0  0  0  0  0  0
   51.1372    7.4122   16.5744 O   0  0  0  0  0  0  0  0  0  0  0  0
   43.3919    8.4043   10.8837 O   0  0  0  0  0  0  0  0  0  0  0  0
   55.0110   11.3524   14.9097 O   0  0  0  0  0  0  0  0  0  0  0  0
   54.3507   12.1895   17.0007 N   0  0  0  0  0  0  0  0  0  0  0  0
   50.6755    7.4784   13.8021 N   0  0  0  0  0  0  0  0  0  0  0  0
   51.4956    9.7537   16.8564 C   0  0  0  0  0  0  0  0  0  0  0  0
   53.2144   11.4215   17.3268 C   0  0  0  0  0  0  0  0  0  0  0  0
   52.6053   11.6694   18.5605 C   0  0  0  0  0  0  0  0  0  0  0  0
   52.6615   10.4503   16.4882 C   0  0  0  0  0  0  0  0  0  0  0  0
   50.8576    8.6874   15.9876 C   0  0  1  0  0  0  0  0  0  0  0  0
   50.9018   10.0483   18.0987 C   0  0  0  0  0  0  0  0  0  0  0  0
   51.4510   11.0070   18.9489 C   0  0  0  0  0  0  0  0  0  0  0  0
   51.2800    8.6394   14.4956 C   0  0  0  0  0  0  0  0  0  0  0  0
   47.0183    8.4464   12.9586 C   0  0  0  0  0  0  0  0  0  0  0  0
   49.4985    7.7816   12.9549 C   0  0  1  0  0  0  0  0  0  0  0  0
   48.3188    8.4134   13.7308 C   0  0  0  0  0  0  0  0  0  0  0  0
   44.5832    8.5094   11.5458 C   0  0  0  0  0  0  0  0  0  0  0  0
   46.3109    7.2651   12.7089 C   0  0  0  0  0  0  0  0  0  0  0  0
   46.4951    9.6580   12.4903 C   0  0  0  0  0  0  0  0  0  0  0  0
   55.1178   12.1129   15.8631 C   0  0  0  0  0  0  0  0  0  0  0  0
   45.1052    7.2990   12.0049 C   0  0  0  0  0  0  0  0  0  0  0  0
   45.2849    9.6893   11.7893 C   0  0  0  0  0  0  0  0  0  0  0  0
   49.8972    8.6037   11.7206 C   0  0  0  0  0  0  0  0  0  0  0  0
   42.7950    9.6143   10.4370 C   0  0  0  0  0  0  0  0  0  0  0  0
   51.3690    8.6823   15.6562 O   0  0  0  0  0  0  0  0  0  0  0  0
   47.4881   10.3607   13.1260 O   0  0  0  0  0  0  0  0  0  0  0  0
   51.4644   10.8756   16.0702 O   0  0  0  0  0  0  0  0  0  0  0  0
   47.3632    8.1620   12.7532 O   0  0  0  0  0  0  0  0  0  0  0  0
   50.9136    9.9362   15.5258 C   0  0  0  0  0  0  0  0  0  0  0  0
   47.9284    9.1043   13.2767 C   0  0  0  0  0  0  0  0  0  0  0  0
   49.7179   10.0480   14.6855 C   0  0  0  0  0  0  0  0  0  0  0  0
   49.1249    8.9904   14.1144 C   0  0  0  0  0  0  0  0  0  0  0  0
   55.7458   11.1870   16.4349 O   0  0  0  0  0  0  0  0  0  0  0  0
   49.5539   10.8984   17.4210 O   0  0  0  0  0  0  0  0  0  0  0  0
   44.2227    6.0169   11.0551 O   0  0  0  0  0  0  0  0  0  0  0  0
   56.5424    9.5879   18.1981 O   0  0  0  0  0  0  0  0  0  0  0  0
   54.2408    9.2287   18.2475 N   0  0  0  0  0  0  0  0  0  0  0  0
   49.5265   11.2784   13.6846 N   0  0  0  0  0  0  0  0  0  0  0  0
   51.5890   10.7991   16.1801 C   0  0  0  0  0  0  0  0  0  0  0  0
   53.7045   10.0856   17.2568 C   0  0  0  0  0  0  0  0  0  0  0  0
   54.3976   10.9801   16.4360 C   0  0  0  0  0  0  0  0  0  0  0  0
   52.3054   10.0115   17.1074 C   0  0  0  0  0  0  0  0  0  0  0  0
   50.0801   10.6340   16.1097 C   0  0  2  0  0  0  0  0  0  0  0  0
   52.3165   11.6777   15.3801 C   0  0  0  0  0  0  0  0  0  0  0  0
   53.7059   11.7670   15.5109 C   0  0  0  0  0  0  0  0  0  0  0  0
   49.2712   11.5135   15.1149 C   0  0  0  0  0  0  0  0  0  0  0  0
   47.2781    8.2486   12.8258 C   0  0  0  0  0  0  0  0  0  0  0  0
   48.4559   10.5178   13.0023 C   0  0  2  0  0  0  0  0  0  0  0  0
   48.4150    9.0359   13.4359 C   0  0  0  0  0  0  0  0  0  0  0  0
   45.1589    6.7825   11.6940 C   0  0  0  0  0  0  0  0  0  0  0  0
   47.5063    7.3915   11.7444 C   0  0  0  0  0  0  0  0  0  0  0  0
   45.9781    8.3645   13.3345 C   0  0  0  0  0  0  0  0  0  0  0  0
   55.5399    9.0503   18.6430 C   0  0  0  0  0  0  0  0  0  0  0  0
   46.4541    6.6642   11.1856 C   0  0  0  0  0  0  0  0  0  0  0  0
   44.9230    7.6375   12.7710 C   0  0  0  0  0  0  0  0  0  0  0  0
   48.7154   10.6497   11.4944 C   0  0  0  0  0  0  0  0  0  0  0  0
   42.9046    6.0401   11.5875 C   0  0  0  0  0  0  0  0  0  0  0  0
   49.3236    9.1811   14.6411 O   0  0  0  0  0  0  0  0  0  0  0  0
   48.8560    9.3084   13.8702 H   0  0  0  0  0  0  0  0  0  0  0  0
   50.2097    9.6611   14.4778 H   0  0  0  0  0  0  0  0  0  0  0  0
   53.9575   12.1027   19.7774 H   0  0  0  0  0  0  0  0  0  0  0  0
   50.9103    6.7744   15.8696 H   0  0  0  0  0  0  0  0  0  0  0  0
   54.5741   12.9228   17.6637 H   0  0  0  0  0  0  0  0  0  0  0  0
   51.3940    7.0724   13.1956 H   0  0  0  0  0  0  0  0  0  0  0  0
   53.1365   10.2257   15.5398 H   0  0  0  0  0  0  0  0  0  0  0  0
   49.7738    8.8301   16.0384 H   0  0  0  0  0  0  0  0  0  0  0  0
   50.0109    9.5081   18.4135 H   0  0  0  0  0  0  0  0  0  0  0  0
   50.9874   11.2203   19.9068 H   0  0  0  0  0  0  0  0  0  0  0  0
   52.3633    8.4780   14.4457 H   0  0  0  0  0  0  0  0  0  0  0  0
   51.0834    9.5916   13.9942 H   0  0  0  0  0  0  0  0  0  0  0  0
   49.1644    6.8039   12.5800 H   0  0  0  0  0  0  0  0  0  0  0  0
   48.1364    7.8399   14.6499 H   0  0  0  0  0  0  0  0  0  0  0  0
   48.5744    9.4316   14.0525 H   0  0  0  0  0  0  0  0  0  0  0  0
   46.6881    6.3088   13.0655 H   0  0  0  0  0  0  0  0  0  0  0  0
   47.0237   10.5915   12.6704 H   0  0  0  0  0  0  0  0  0  0  0  0
   55.9197   12.8690   15.8897 H   0  0  0  0  0  0  0  0  0  0  0  0
   44.5655    6.3749   11.8162 H   0  0  0  0  0  0  0  0  0  0  0  0
   44.9195   10.6515   11.4486 H   0  0  0  0  0  0  0  0  0  0  0  0
   50.7645    8.1618   11.2130 H   0  0  0  0  0  0  0  0  0  0  0  0
   49.0802    8.6254   10.9905 H   0  0  0  0  0  0  0  0  0  0  0  0
   50.1443    9.6410   11.9758 H   0  0  0  0  0  0  0  0  0  0  0  0
   42.5613   10.2748   11.2778 H   0  0  0  0  0  0  0  0  0  0  0  0
   41.8536    9.3597    9.9424 H   0  0  0  0  0  0  0  0  0  0  0  0
   43.4305   10.1187    9.7027 H   0  0  0  0  0  0  0  0  0  0  0  0
   52.1555    8.7771   16.2334 H   0  0  0  0  0  0  0  0  0  0  0  0
   46.7004   10.2655   12.5507 H   0  0  0  0  0  0  0  0  0  0  0  0
   49.3459   11.0590   14.5634 H   0  0  0  0  0  0  0  0  0  0  0  0
   49.4971    7.9794   14.2382 H   0  0  0  0  0  0  0  0  0  0  0  0
   56.1644   10.5977   17.0975 H   0  0  0  0  0  0  0  0  0  0  0  0
   50.0474   11.6593   17.7720 H   0  0  0  0  0  0  0  0  0  0  0  0
   53.5645    8.6638   18.7458 H   0  0  0  0  0  0  0  0  0  0  0  0
   49.6007   12.1894   13.2261 H   0  0  0  0  0  0  0  0  0  0  0  0
   51.7326    9.3238   17.7306 H   0  0  0  0  0  0  0  0  0  0  0  0
   49.8755    9.5799   15.8982 H   0  0  0  0  0  0  0  0  0  0  0  0
   51.8329   12.3008   14.6345 H   0  0  0  0  0  0  0  0  0  0  0  0
   54.2641   12.4546   14.8778 H   0  0  0  0  0  0  0  0  0  0  0  0
   49.4999   12.5675   15.3322 H   0  0  0  0  0  0  0  0  0  0  0  0
   48.1999   11.4271   15.3425 H   0  0  0  0  0  0  0  0  0  0  0  0
   47.4889   10.9950   13.2072 H   0  0  0  0  0  0  0  0  0  0  0  0
   49.3702    8.5476   13.2031 H   0  0  0  0  0  0  0  0  0  0  0  0
   48.2973    8.9617   14.5228 H   0  0  0  0  0  0  0  0  0  0  0  0
   48.5047    7.2816   11.3274 H   0  0  0  0  0  0  0  0  0  0  0  0
   45.7768    9.0160   14.1823 H   0  0  0  0  0  0  0  0  0  0  0  0
   55.6053    8.3093   19.4591 H   0  0  0  0  0  0  0  0  0  0  0  0
   46.6450    5.9978   10.3473 H   0  0  0  0  0  0  0  0  0  0  0  0
   43.9335    7.7549   13.2012 H   0  0  0  0  0  0  0  0  0  0  0  0
   48.7792   11.7031   11.1952 H   0  0  0  0  0  0  0  0  0  0  0  0
   47.9028   10.2065   10.9111 H   0  0  0  0  0  0  0  0  0  0  0  0
   49.6526   10.1585   11.2066 H   0  0  0  0  0  0  0  0  0  0  0  0
   42.2918    5.3583   10.9909 H   0  0  0  0  0  0  0  0  0  0  0  0
   42.8883    5.6832   12.6228 H   0  0  0  0  0  0  0  0  0  0  0  0
   42.4670    7.0409   11.5061 H   0  0  0  0  0  0  0  0  0  0  0  0
   50.1965    9.5999   14.6019 H   0  0  0  0  0  0  0  0  0  0  0  0
   48.9294    9.3825   13.7792 H   0  0  0  0  0  0  0  0  0  0  0  0
  2 10  1  0
  3 12  1  0
  4 19  1  0
  4 26  1  0
  5 22  2  0
  6  9  1  0
  6 22  1  0
  7 15  1  0
  7 17  1  0
  8 11  2  0
  8 12  1  0
  8 13  1  0
  9 10  2  0
  9 11  1  0
 10 14  1  0
 12 15  1  0
 13 14  2  0
 16 18  1  0
 16 20  2  0
 16 21  1  0
 17 18  1  0
 17 25  1  0
 19 23  2  0
 19 24  1  0
 20 23  1  0
 21 24  2  0
 27 31  1  0
 28 32  1  0
 29 31  2  0
 30 32  2  0
 31 33  1  0
 32 34  1  0
 33 34  2  0
 35 43  1  0
 36 45  1  0
 37 52  1  0
 37 59  1  0
 38 55  2  0
 39 42  1  0
 39 55  1  0
 40 48  1  0
 40 50  1  0
 41 44  2  0
 41 45  1  0
 41 46  1  0
 42 43  2  0
 42 44  1  0
 43 47  1  0
 45 48  1  0
 46 47  2  0
 49 51  1  0
 49 53  2  0
 49 54  1  0
 50 51  1  0
 50 58  1  0
 52 56  2  0
 52 57  1  0
 53 56  1  0
 54 57  2  0
  1 61  1  0
  1 62  1  0
  2 63  1  0
  3 64  1  0
  6 65  1  0
  7 66  1  0
 11 67  1  0
 12 68  1  1
 13 69  1  0
 14 70  1  0
 15 71  1  0
 15 72  1  0
 17 73  1  6
 18 74  1  0
 18 75  1  0
 20 76  1  0
 21 77  1  0
 22 78  1  0
 23 79  1  0
 24 80  1  0
 25 81  1  0
 25 82  1  0
 25 83  1  0
 26 84  1  0
 26 85  1  0
 26 86  1  0
 27 87  1  0
 28 88  1  0
 33 89  1  0
 34 90  1  0
 35 91  1  0
 36 92  1  0
 39 93  1  0
 40 94  1  0
 44 95  1  0
 45 96  1  6
 46 97  1  0
 47 98  1  0
 48 99  1  0
 48100  1  0
 50101  1  1
 51102  1  0
 51103  1  0
 53104  1  0
 54105  1  0
 55106  1  0
 56107  1  0
 57108  1  0
 58109  1  0
 58110  1  0
 58111  1  0
 59112  1  0
 59113  1  0
 59114  1  0
 60115  1  0
 60116  1  0
M  END
> <Uni-Dock RESULT> 
ENERGY=   -4.488  LOWER_BOUND=    4.127  UPPER_BOUND=    6.243
INTER + INTRA:          -4.488
INTER:                  -4.488
INTRA:                   0.000
UNBOUND:                 0.000

$$$$

     RDKit          3D

116115  0  0  0  0  0  0  0  0999 V2000
   48.6796   10.9284   14.7845 O   0  0  0  0  0  0  0  0  0  0  0  0
   47.2609   12.2670    8.1115 O   0  0  0  0  0  0  0  0  0  0  0  0
   48.3597   13.9540   14.0075 O   0  0  0  0  0  0  0  0  0  0  0  0
   47.8785    6.9647   20.6617 O   0  0  0  0  0  0  0  0  0  0  0  0
   51.9722   12.1558    9.8821 O   0  0  0  0  0  0  0  0  0  0  0  0
   49.9076   12.0889    8.7677 N   0  0  0  0  0  0  0  0  0  0  0  0
   50.2208   12.4930   15.5258 N   0  0  0  0  0  0  0  0  0  0  0  0
   48.2962   12.4732   12.1384 C   0  0  0  0  0  0  0  0  0  0  0  0
   48.9623   12.2528    9.8007 C   0  0  0  0  0  0  0  0  0  0  0  0
   47.6135   12.2921    9.4354 C   0  0  0  0  0  0  0  0  0  0  0  0
   49.2949   12.3601   11.1535 C   0  0  0  0  0  0  0  0  0  0  0  0
   48.6017   12.5981   13.6182 C   0  0  1  0  0  0  0  0  0  0  0  0
   46.9490   12.4884   11.7294 C   0  0  0  0  0  0  0  0  0  0  0  0
   46.6055   12.3936   10.3817 C   0  0  0  0  0  0  0  0  0  0  0  0
   50.0278   12.2049   14.0855 C   0  0  0  0  0  0  0  0  0  0  0  0
   48.5467    9.6009   17.4896 C   0  0  0  0  0  0  0  0  0  0  0  0
   50.1295   11.3226   16.4297 C   0  0  1  0  0  0  0  0  0  0  0  0
   48.7659   10.5947   16.3703 C   0  0  0  0  0  0  0  0  0  0  0  0
   48.1104    7.7531   19.5692 C   0  0  0  0  0  0  0  0  0  0  0  0
   48.3309   10.0433   18.7994 C   0  0  0  0  0  0  0  0  0  0  0  0
   48.5452    8.2241   17.2335 C   0  0  0  0  0  0  0  0  0  0  0  0
   51.2761   12.0382    8.8819 C   0  0  0  0  0  0  0  0  0  0  0  0
   48.1183    9.1244   19.8295 C   0  0  0  0  0  0  0  0  0  0  0  0
   48.3275    7.3063   18.2666 C   0  0  0  0  0  0  0  0  0  0  0  0
   51.3146   10.3674   16.2261 C   0  0  0  0  0  0  0  0  0  0  0  0
   47.8139    5.5622   20.4410 C   0  0  0  0  0  0  0  0  0  0  0  0
   49.1809   12.7117   13.4669 O   0  0  0  0  0  0  0  0  0  0  0  0
   48.6551    8.4501   15.8841 O   0  0  0  0  0  0  0  0  0  0  0  0
   48.8539   11.2706   11.7914 O   0  0  0  0  0  0  0  0  0  0  0  0
   48.9317    9.8985   17.5618 O   0  0  0  0  0  0  0  0  0  0  0  0
   48.9584   11.4805   12.9861 C   0  0  0  0  0  0  0  0  0  0  0  0
   48.8524    9.6845   16.3662 C   0  0  0  0  0  0  0  0  0  0  0  0
   48.8556   10.4492   14.0226 C   0  0  0  0  0  0  0  0  0  0  0  0
   48.9577   10.7167   15.3318 C   0  0  0  0  0  0  0  0  0  0  0  0
   51.2546   13.2938    8.8412 O   0  0  0  0  0  0  0  0  0  0  0  0
   46.6022   10.8913   12.3023 O   0  0  0  0  0  0  0  0  0  0  0  0
   48.3392    9.2584   21.6345 O   0  0  0  0  0  0  0  0  0  0  0  0
   50.4337   15.6520    8.5853 O   0  0  0  0  0  0  0  0  0  0  0  0
   48.9583   14.8147   10.1824 N   0  0  0  0  0  0  0  0  0  0  0  0
   49.4761    8.9938   13.8009 N   0  0  0  0  0  0  0  0  0  0  0  0
   48.8492   11.4367   11.7153 C   0  0  0  0  0  0  0  0  0  0  0  0
   49.3649   13.4778   10.4066 C   0  0  0  0  0  0  0  0  0  0  0  0
   50.4118   12.7887    9.7873 C   0  0  0  0  0  0  0  0  0  0  0  0
   48.6030   12.7826   11.3667 C   0  0  0  0  0  0  0  0  0  0  0  0
   47.9597   10.7906   12.7641 C   0  0  2  0  0  0  0  0  0  0  0  0
   49.9021   10.7857   11.0759 C   0  0  0  0  0  0  0  0  0  0  0  0
   50.6719   11.4565   10.1204 C   0  0  0  0  0  0  0  0  0  0  0  0
   48.1974    9.3007   13.1398 C   0  0  0  0  0  0  0  0  0  0  0  0
   48.8192    9.8220   17.5232 C   0  0  0  0  0  0  0  0  0  0  0  0
   49.3553    8.7536   15.2562 C   0  0  2  0  0  0  0  0  0  0  0  0
   49.0369   10.0436   16.0439 C   0  0  0  0  0  0  0  0  0  0  0  0
   48.4090    9.4101   20.2770 C   0  0  0  0  0  0  0  0  0  0  0  0
   49.8283   10.1228   18.4436 C   0  0  0  0  0  0  0  0  0  0  0  0
   47.6028    9.3124   17.9954 C   0  0  0  0  0  0  0  0  0  0  0  0
   49.4735   15.7575    9.3329 C   0  0  0  0  0  0  0  0  0  0  0  0
   49.6222    9.9192   19.8090 C   0  0  0  0  0  0  0  0  0  0  0  0
   47.3985    9.1052   19.3646 C   0  0  0  0  0  0  0  0  0  0  0  0
   50.6859    8.1371   15.7121 C   0  0  0  0  0  0  0  0  0  0  0  0
   47.0957    8.8203   22.1670 C   0  0  0  0  0  0  0  0  0  0  0  0
   48.6679   10.8945   14.8444 O   0  0  0  0  0  0  0  0  0  0  0  0
   48.9688   10.2389   15.4001 H   0  0  0  0  0  0  0  0  0  0  0  0
   49.3379   10.8959   14.0740 H   0  0  0  0  0  0  0  0  0  0  0  0
   47.5058   13.1474    7.7759 H   0  0  0  0  0  0  0  0  0  0  0  0
   48.7835   14.0256   14.8853 H   0  0  0  0  0  0  0  0  0  0  0  0
   49.5113   11.9252    7.8494 H   0  0  0  0  0  0  0  0  0  0  0  0
   51.1560   12.8952   15.6377 H   0  0  0  0  0  0  0  0  0  0  0  0
   50.3372   12.3590   11.4524 H   0  0  0  0  0  0  0  0  0  0  0  0
   47.8761   11.9788   14.1548 H   0  0  0  0  0  0  0  0  0  0  0  0
   46.1601   12.5950   12.4717 H   0  0  0  0  0  0  0  0  0  0  0  0
   45.5633   12.4130   10.0789 H   0  0  0  0  0  0  0  0  0  0  0  0
   50.7528   12.8384   13.5611 H   0  0  0  0  0  0  0  0  0  0  0  0
   50.2652   11.1714   13.8169 H   0  0  0  0  0  0  0  0  0  0  0  0
   50.2397   11.7405   17.4403 H   0  0  0  0  0  0  0  0  0  0  0  0
   47.9543   11.3329   16.4277 H   0  0  0  0  0  0  0  0  0  0  0  0
   48.6464   10.0848   15.4052 H   0  0  0  0  0  0  0  0  0  0  0  0
   48.3197   11.1068   19.0292 H   0  0  0  0  0  0  0  0  0  0  0  0
   48.7100    7.8522   16.2246 H   0  0  0  0  0  0  0  0  0  0  0  0
   51.7373   11.8697    7.8949 H   0  0  0  0  0  0  0  0  0  0  0  0
   47.9530    9.4800   20.8429 H   0  0  0  0  0  0  0  0  0  0  0  0
   48.3337    6.2508   18.0186 H   0  0  0  0  0  0  0  0  0  0  0  0
   52.2677   10.9123   16.2260 H   0  0  0  0  0  0  0  0  0  0  0  0
   51.3671    9.6377   17.0420 H   0  0  0  0  0  0  0  0  0  0  0  0
   51.2409    9.8105   15.2845 H   0  0  0  0  0  0  0  0  0  0  0  0
   46.9941    5.3050   19.7631 H   0  0  0  0  0  0  0  0  0  0  0  0
   47.6135    5.0817   21.4026 H   0  0  0  0  0  0  0  0  0  0  0  0
   48.7691    5.1780   20.0701 H   0  0  0  0  0  0  0  0  0  0  0  0
   49.2244   13.2727   12.6644 H   0  0  0  0  0  0  0  0  0  0  0  0
   48.6093    7.8897   16.6868 H   0  0  0  0  0  0  0  0  0  0  0  0
   48.6863    9.4469   13.6457 H   0  0  0  0  0  0  0  0  0  0  0  0
   49.1259   11.7199   15.7079 H   0  0  0  0  0  0  0  0  0  0  0  0
   51.0207   14.2298    8.6656 H   0  0  0  0  0  0  0  0  0  0  0  0
   46.6172   10.7062   11.3477 H   0  0  0  0  0  0  0  0  0  0  0  0
   48.1626   15.1240   10.7265 H   0  0  0  0  0  0  0  0  0  0  0  0
   49.8517    8.1429   13.3760 H   0  0  0  0  0  0  0  0  0  0  0  0
   47.7792   13.2893   11.8706 H   0  0  0  0  0  0  0  0  0  0  0  0
   48.0266   11.3998   13.6708 H   0  0  0  0  0  0  0  0  0  0  0  0
   50.1585    9.7567   11.3070 H   0  0  0  0  0  0  0  0  0  0  0  0
   51.4943   10.9385    9.6300 H   0  0  0  0  0  0  0  0  0  0  0  0
   48.1410    8.7059   12.2160 H   0  0  0  0  0  0  0  0  0  0  0  0
   47.3493    8.9371   13.7359 H   0  0  0  0  0  0  0  0  0  0  0  0
   48.5736    8.0037   15.4336 H   0  0  0  0  0  0  0  0  0  0  0  0
   49.8332   10.7841   15.8938 H   0  0  0  0  0  0  0  0  0  0  0  0
   48.1208   10.5062   15.6601 H   0  0  0  0  0  0  0  0  0  0  0  0
   50.7835   10.5187   18.1067 H   0  0  0  0  0  0  0  0  0  0  0  0
   46.7981    9.0811   17.3006 H   0  0  0  0  0  0  0  0  0  0  0  0
   48.9028   16.7005    9.3976 H   0  0  0  0  0  0  0  0  0  0  0  0
   50.4133   10.1608   20.5155 H   0  0  0  0  0  0  0  0  0  0  0  0
   46.4383    8.7134   19.6852 H   0  0  0  0  0  0  0  0  0  0  0  0
   50.9270    7.2411   15.1270 H   0  0  0  0  0  0  0  0  0  0  0  0
   50.6410    7.8251   16.7597 H   0  0  0  0  0  0  0  0  0  0  0  0
   51.5136    8.8475   15.6002 H   0  0  0  0  0  0  0  0  0  0  0  0
   47.1940    8.7820   23.2557 H   0  0  0  0  0  0  0  0  0  0  0  0
   46.2919    9.5254   21.9298 H   0  0  0  0  0  0  0  0  0  0  0  0
   46.8538    7.8109   21.8174 H   0  0  0  0  0  0  0  0  0  0  0  0
   49.2350   10.9888   14.0644 H   0  0  0  0  0  0  0  0  0  0  0  0
   49.0834   10.1798   15.3498 H   0  0  0  0  0  0  0  0  0  0  0  0
  2 10  1  0
  3 12  1  0
  4 19  1  0
  4 26  1  0
  5 22  2  0
  6  9  1  0
  6 22  1  0
  7 15  1  0
  7 17  1  0
  8 11  2  0
  8 12  1  0
  8 13  1  0
  9 10  2  0
  9 11  1  0
 10 14  1  0
 12 15  1  0
 13 14  2  0
 16 18  1  0
 16 20  2  0
 16 21  1  0
 17 18  1  0
 17 25  1  0
 19 23  2  0
 19 24  1  0
 20 23  1  0
 21 24  2  0
 27 31  1  0
 28 32  1  0
 29 31  2  0
 30 32  2  0
 31 33  1  0
 32 34  1  0
 33 34  2  0
 35 43  1  0
 36 45  1  0
 37 52  1  0
 37 59  1  0
 38 55  2  0
 39 42  1  0
 39 55  1  0
 40 48  1  0
 40 50  1  0
 41 44  2  0
 41 45  1  0
 41 46  1  0
 42 43  2  0
 42 44  1  0
 43 47  1  0
 45 48  1  0
 46 47  2  0
 49 51  1  0
 49 53  2  0
 49 54  1  0
 50 51  1  0
 50 58  1  0
 52 56  2  0
 52 57  1  0
 53 56  1  0
 54 57  2  0
  1 61  1  0
  1 62  1  0
  2 63  1  0
  3 64  1  0
  6 65  1  0
  7 66  1  0
 11 67  1  0
 12 68  1  1
 13 69  1  0
 14 70  1  0
 15 71  1  0
 15 72  1  0
 17 73  1  6
 18 74  1  0
 18 75  1  0
 20 76  1  0
 21 77  1  0
 22 78  1  0
 23 79  1  0
 24 80  1  0
 25 81  1  0
 25 82  1  0
 25 83  1  0
 26 84  1  0
 26 85  1  0
 26 86  1  0
 27 87  1  0
 28 88  1  0
 33 89  1  0
 34 90  1  0
 35 91  1  0
 36 92  1  0
 39 93  1  0
 40 94  1  0
 44 95  1  0
 45 96  1  6
 46 97  1  0
 47 98  1  0
 48 99  1  0
 48100  1  0
 50101  1  1
 51102  1  0
 51103  1  0
 53104  1  0
 54105  1  0
 55106  1  0
 56107  1  0
 57108  1  0
 58109  1  0
 58110  1  0
 58111  1  0
 59112  1  0
 59113  1  0
 59114  1  0
 60115  1  0
 60116  1  0
M  END
> <Uni-Dock RESULT> 
ENERGY=   -4.440  LOWER_BOUND=    3.632  UPPER_BOUND=    5.572
INTER + INTRA:          -4.440
INTER:                  -4.440
INTRA:                   0.000
UNBOUND:                 0.000

$$$$

     RDKit          3D

116115  0  0  0  0  0  0  0  0999 V2000
   47.0162   13.4210   13.0663 O   0  0  0  0  0  0  0  0  0  0  0  0
   43.5434   10.5109    7.7934 O   0  0  0  0  0  0  0  0  0  0  0  0
   44.5064   14.9892   12.0164 O   0  0  0  0  0  0  0  0  0  0  0  0
   50.6289   12.9111   19.1967 O   0  0  0  0  0  0  0  0  0  0  0  0
   47.2280   13.8606    7.0544 O   0  0  0  0  0  0  0  0  0  0  0  0
   45.6137   12.1575    7.1086 N   0  0  0  0  0  0  0  0  0  0  0  0
   47.1438   15.7027   12.6786 N   0  0  0  0  0  0  0  0  0  0  0  0
   45.0534   13.0708   10.7084 C   0  0  0  0  0  0  0  0  0  0  0  0
   45.1044   12.2186    8.4218 C   0  0  0  0  0  0  0  0  0  0  0  0
   44.0778   11.3296    8.7534 C   0  0  0  0  0  0  0  0  0  0  0  0
   45.5749   13.0967    9.4016 C   0  0  0  0  0  0  0  0  0  0  0  0
   45.5234   14.0039   11.8071 C   0  0  1  0  0  0  0  0  0  0  0  0
   44.0344   12.1458   11.0061 C   0  0  0  0  0  0  0  0  0  0  0  0
   43.5490   11.2729   10.0337 C   0  0  0  0  0  0  0  0  0  0  0  0
   46.8731   14.7368   11.5885 C   0  0  0  0  0  0  0  0  0  0  0  0
   48.4922   13.6624   15.6856 C   0  0  0  0  0  0  0  0  0  0  0  0
   48.1120   15.2526   13.7058 C   0  0  1  0  0  0  0  0  0  0  0  0
   47.6827   13.9624   14.4434 C   0  0  0  0  0  0  0  0  0  0  0  0
   49.9775   13.0879   18.0079 C   0  0  0  0  0  0  0  0  0  0  0  0
   48.3478   14.4487   16.8340 C   0  0  0  0  0  0  0  0  0  0  0  0
   49.3904   12.5883   15.7118 C   0  0  0  0  0  0  0  0  0  0  0  0
   46.6022   12.9348    6.5543 C   0  0  0  0  0  0  0  0  0  0  0  0
   49.0884   14.1636   17.9833 C   0  0  0  0  0  0  0  0  0  0  0  0
   50.1275   12.3024   16.8659 C   0  0  0  0  0  0  0  0  0  0  0  0
   49.5317   15.1545   13.1286 C   0  0  0  0  0  0  0  0  0  0  0  0
   51.5107   11.8004   19.2884 C   0  0  0  0  0  0  0  0  0  0  0  0
   45.8003   14.3354   11.3772 O   0  0  0  0  0  0  0  0  0  0  0  0
   48.9878   12.1892   14.4618 O   0  0  0  0  0  0  0  0  0  0  0  0
   46.1871   12.3867   10.3555 O   0  0  0  0  0  0  0  0  0  0  0  0
   48.5623   14.1160   15.5085 O   0  0  0  0  0  0  0  0  0  0  0  0
   46.3943   13.1369   11.2917 C   0  0  0  0  0  0  0  0  0  0  0  0
   48.3748   13.3766   14.5600 C   0  0  0  0  0  0  0  0  0  0  0  0
   47.2890   12.8376   12.4134 C   0  0  0  0  0  0  0  0  0  0  0  0
   47.4816   13.6788   13.4388 C   0  0  0  0  0  0  0  0  0  0  0  0
   45.7026   13.7762    6.3064 O   0  0  0  0  0  0  0  0  0  0  0  0
   45.0488   11.1061   11.9489 O   0  0  0  0  0  0  0  0  0  0  0  0
   49.5717   15.2048   19.3999 O   0  0  0  0  0  0  0  0  0  0  0  0
   43.4425   14.8408    6.0640 O   0  0  0  0  0  0  0  0  0  0  0  0
   43.4059   14.1701    8.2950 N   0  0  0  0  0  0  0  0  0  0  0  0
   48.6712   12.0702   12.1826 N   0  0  0  0  0  0  0  0  0  0  0  0
   46.0501   12.4647   10.2629 C   0  0  0  0  0  0  0  0  0  0  0  0
   44.6662   13.5701    8.5287 C   0  0  0  0  0  0  0  0  0  0  0  0
   45.7084   13.3899    7.6145 C   0  0  0  0  0  0  0  0  0  0  0  0
   44.8626   13.1032    9.8436 C   0  0  0  0  0  0  0  0  0  0  0  0
   46.1469   12.0015   11.7068 C   0  0  2  0  0  0  0  0  0  0  0  0
   47.0651   12.3051    9.3219 C   0  0  0  0  0  0  0  0  0  0  0  0
   46.8920   12.7616    8.0115 C   0  0  0  0  0  0  0  0  0  0  0  0
   47.4354   11.2706   12.1791 C   0  0  0  0  0  0  0  0  0  0  0  0
   48.5303   13.9827   15.5434 C   0  0  0  0  0  0  0  0  0  0  0  0
   49.1014   12.5018   13.5312 C   0  0  2  0  0  0  0  0  0  0  0  0
   48.1730   13.5810   14.1307 C   0  0  0  0  0  0  0  0  0  0  0  0
   49.1918   14.7281   18.1755 C   0  0  0  0  0  0  0  0  0  0  0  0
   49.2214   15.1731   15.7912 C   0  0  0  0  0  0  0  0  0  0  0  0
   48.1743   13.1690   16.6267 C   0  0  0  0  0  0  0  0  0  0  0  0
   42.8962   14.7225    7.1501 C   0  0  0  0  0  0  0  0  0  0  0  0
   49.5471   15.5416   17.0975 C   0  0  0  0  0  0  0  0  0  0  0  0
   48.5047   13.5377   17.9360 C   0  0  0  0  0  0  0  0  0  0  0  0
   50.5395   13.0213   13.3886 C   0  0  0  0  0  0  0  0  0  0  0  0
   49.1618   14.4533   20.5352 C   0  0  0  0  0  0  0  0  0  0  0  0
   47.0461   13.4184   13.1293 O   0  0  0  0  0  0  0  0  0  0  0  0
   47.8384   13.3844   13.5770 H   0  0  0  0  0  0  0  0  0  0  0  0
   47.3161   13.4392   12.1450 H   0  0  0  0  0  0  0  0  0  0  0  0
   43.0158   11.1048    7.2307 H   0  0  0  0  0  0  0  0  0  0  0  0
   44.9511   15.6757   12.5514 H   0  0  0  0  0  0  0  0  0  0  0  0
   45.2423   11.4038    6.5421 H   0  0  0  0  0  0  0  0  0  0  0  0
   47.5228   16.5528   12.2510 H   0  0  0  0  0  0  0  0  0  0  0  0
   46.3517   13.8115    9.1544 H   0  0  0  0  0  0  0  0  0  0  0  0
   45.5911   13.4162   12.7278 H   0  0  0  0  0  0  0  0  0  0  0  0
   43.6019   12.1212   12.0047 H   0  0  0  0  0  0  0  0  0  0  0  0
   42.7586   10.5689   10.2743 H   0  0  0  0  0  0  0  0  0  0  0  0
   46.7978   15.3397   10.6759 H   0  0  0  0  0  0  0  0  0  0  0  0
   47.6907   14.0281   11.4274 H   0  0  0  0  0  0  0  0  0  0  0  0
   48.1344   16.0662   14.4445 H   0  0  0  0  0  0  0  0  0  0  0  0
   46.6324   14.0505   14.7534 H   0  0  0  0  0  0  0  0  0  0  0  0
   47.7288   13.1007   13.7645 H   0  0  0  0  0  0  0  0  0  0  0  0
   47.6531   15.2861   16.8471 H   0  0  0  0  0  0  0  0  0  0  0  0
   49.5224   11.9602   14.8335 H   0  0  0  0  0  0  0  0  0  0  0  0
   46.7981   12.6226    5.5153 H   0  0  0  0  0  0  0  0  0  0  0  0
   48.9685   14.7822   18.8686 H   0  0  0  0  0  0  0  0  0  0  0  0
   50.8089   11.4595   16.8382 H   0  0  0  0  0  0  0  0  0  0  0  0
   49.7966   16.0623   12.5710 H   0  0  0  0  0  0  0  0  0  0  0  0
   50.2691   15.0500   13.9324 H   0  0  0  0  0  0  0  0  0  0  0  0
   49.6471   14.2962   12.4562 H   0  0  0  0  0  0  0  0  0  0  0  0
   50.9748   10.8563   19.1492 H   0  0  0  0  0  0  0  0  0  0  0  0
   51.9378   11.7951   20.2950 H   0  0  0  0  0  0  0  0  0  0  0  0
   52.3371   11.8946   18.5772 H   0  0  0  0  0  0  0  0  0  0  0  0
   45.2486   14.3822   10.5684 H   0  0  0  0  0  0  0  0  0  0  0  0
   49.5375   12.1417   15.2717 H   0  0  0  0  0  0  0  0  0  0  0  0
   47.7841   11.8751   12.3505 H   0  0  0  0  0  0  0  0  0  0  0  0
   46.9850   14.6409   13.5013 H   0  0  0  0  0  0  0  0  0  0  0  0
   44.8503   14.2160    6.1023 H   0  0  0  0  0  0  0  0  0  0  0  0
   44.9620   10.5494   11.1563 H   0  0  0  0  0  0  0  0  0  0  0  0
   42.7806   14.1917    9.0910 H   0  0  0  0  0  0  0  0  0  0  0  0
   49.4180   11.4936   11.7882 H   0  0  0  0  0  0  0  0  0  0  0  0
   44.0712   13.2278   10.5835 H   0  0  0  0  0  0  0  0  0  0  0  0
   45.9821   12.8764   12.3432 H   0  0  0  0  0  0  0  0  0  0  0  0
   48.0107   11.8386    9.5792 H   0  0  0  0  0  0  0  0  0  0  0  0
   47.6936   12.6345    7.2858 H   0  0  0  0  0  0  0  0  0  0  0  0
   47.5933   10.4038   11.5203 H   0  0  0  0  0  0  0  0  0  0  0  0
   47.2561   10.8196   13.1646 H   0  0  0  0  0  0  0  0  0  0  0  0
   49.1372   11.6279   14.1944 H   0  0  0  0  0  0  0  0  0  0  0  0
   48.1600   14.4690   13.4855 H   0  0  0  0  0  0  0  0  0  0  0  0
   47.1397   13.2178   14.1621 H   0  0  0  0  0  0  0  0  0  0  0  0
   49.5119   15.8246   14.9704 H   0  0  0  0  0  0  0  0  0  0  0  0
   47.6267   12.2436   16.4610 H   0  0  0  0  0  0  0  0  0  0  0  0
   41.8678   15.0900    7.3136 H   0  0  0  0  0  0  0  0  0  0  0  0
   50.0812   16.4719   17.2778 H   0  0  0  0  0  0  0  0  0  0  0  0
   48.2040   12.8790   18.7444 H   0  0  0  0  0  0  0  0  0  0  0  0
   51.1889   12.2655   12.9301 H   0  0  0  0  0  0  0  0  0  0  0  0
   50.9747   13.2588   14.3640 H   0  0  0  0  0  0  0  0  0  0  0  0
   50.5778   13.9233   12.7663 H   0  0  0  0  0  0  0  0  0  0  0  0
   49.5127   14.9792   21.4278 H   0  0  0  0  0  0  0  0  0  0  0  0
   48.0701   14.3880   20.5949 H   0  0  0  0  0  0  0  0  0  0  0  0
   49.6191   13.4581   20.5321 H   0  0  0  0  0  0  0  0  0  0  0  0
   47.1795   13.4422   12.1698 H   0  0  0  0  0  0  0  0  0  0  0  0
   47.9452   13.3840   13.4889 H   0  0  0  0  0  0  0  0  0  0  0  0
  2 10  1  0
  3 12  1  0
  4 19  1  0
  4 26  1  0
  5 22  2  0
  6  9  1  0
  6 22  1  0
  7 15  1  0
  7 17  1  0
  8 11  2  0
  8 12  1  0
  8 13  1  0
  9 10  2  0
  9 11  1  0
 10 14  1  0
 12 15  1  0
 13 14  2  0
 16 18  1  0
 16 20  2  0
 16 21  1  0
 17 18  1  0
 17 25  1  0
 19 23  2  0
 19 24  1  0
 20 23  1  0
 21 24  2  0
 27 31  1  0
 28 32  1  0
 29 31  2  0
 30 32  2  0
 31 33  1  0
 32 34  1  0
 33 34  2  0
 35 43  1  0
 36 45  1  0
 37 52  1  0
 37 59  1  0
 38 55  2  0
 39 42  1  0
 39 55  1  0
 40 48  1  0
 40 50  1  0
 41 44  2  0
 41 45  1  0
 41 46  1  0
 42 43  2  0
 42 44  1  0
 43 47  1  0
 45 48  1  0
 46 47  2  0
 49 51  1  0
 49 53  2  0
 49 54  1  0
 50 51  1  0
 50 58  1  0
 52 56  2  0
 52 57  1  0
 53 56  1  0
 54 57  2  0
  1 61  1  0
  1 62  1  0
  2 63  1  0
  3 64  1  0
  6 65  1  0
  7 66  1  0
 11 67  1  0
 12 68  1  1
 13 69  1  0
 14 70  1  0
 15 71  1  0
 15 72  1  0
 17 73  1  6
 18 74  1  0
 18 75  1  0
 20 76  1  0
 21 77  1  0
 22 78  1  0
 23 79  1  0
 24 80  1  0
 25 81  1  0
 25 82  1  0
 25 83  1  0
 26 84  1  0
 26 85  1  0
 26 86  1  0
 27 87  1  0
 28 88  1  0
 33 89  1  0
 34 90  1  0
 35 91  1  0
 36 92  1  0
 39 93  1  0
 40 94  1  0
 44 95  1  0
 45 96  1  6
 46 97  1  0
 47 98  1  0
 48 99  1  0
 48100  1  0
 50101  1  1
 51102  1  0
 51103  1  0
 53104  1  0
 54105  1  0
 55106  1  0
 56107  1  0
 57108  1  0
 58109  1  0
 58110  1  0
 58111  1  0
 59112  1  0
 59113  1  0
 59114  1  0
 60115  1  0
 60116  1  0
M  END
> <Uni-Dock RESULT> 
ENERGY=   -4.426  LOWER_BOUND=    4.934  UPPER_BOUND=    7.918
INTER + INTRA:          -4.426
INTER:                  -4.426
INTRA:                   0.000
UNBOUND:                 0.000

$$$$

     RDKit          3D

116115  0  0  0  0  0  0  0  0999 V2000
   48.8943   12.6011   13.3840 O   0  0  0  0  0  0  0  0  0  0  0  0
   49.0505   19.2128   15.5274 O   0  0  0  0  0  0  0  0  0  0  0  0
   51.5326   13.5445   14.8016 O   0  0  0  0  0  0  0  0  0  0  0  0
   45.4406    6.4344   12.4155 O   0  0  0  0  0  0  0  0  0  0  0  0
   50.7603   17.8190   11.0022 O   0  0  0  0  0  0  0  0  0  0  0  0
   49.8732   18.7590   12.9614 N   0  0  0  0  0  0  0  0  0  0  0  0
   50.9600   12.0877   12.4664 N   0  0  0  0  0  0  0  0  0  0  0  0
   49.9643   15.3028   14.4285 C   0  0  0  0  0  0  0  0  0  0  0  0
   49.7853   17.6669   13.8485 C   0  0  0  0  0  0  0  0  0  0  0  0
   49.3154   17.9256   15.1395 C   0  0  0  0  0  0  0  0  0  0  0  0
   50.1225   16.3546   13.5071 C   0  0  0  0  0  0  0  0  0  0  0  0
   50.3194   13.8632   14.1121 C   0  0  1  0  0  0  0  0  0  0  0  0
   49.4684   15.6035   15.7116 C   0  0  0  0  0  0  0  0  0  0  0  0
   49.1397   16.9106   16.0674 C   0  0  0  0  0  0  0  0  0  0  0  0
   50.4957   13.4863   12.6176 C   0  0  0  0  0  0  0  0  0  0  0  0
   47.8506    9.8137   12.8955 C   0  0  0  0  0  0  0  0  0  0  0  0
   49.9174   11.1054   12.0876 C   0  0  1  0  0  0  0  0  0  0  0  0
   48.7544   11.0089   13.1030 C   0  0  0  0  0  0  0  0  0  0  0  0
   46.1599    7.5906   12.5365 C   0  0  0  0  0  0  0  0  0  0  0  0
   48.3033    8.5222   13.1874 C   0  0  0  0  0  0  0  0  0  0  0  0
   46.5442    9.9791   12.4189 C   0  0  0  0  0  0  0  0  0  0  0  0
   50.3171   18.7509   11.6609 C   0  0  0  0  0  0  0  0  0  0  0  0
   47.4637    7.4211   13.0050 C   0  0  0  0  0  0  0  0  0  0  0  0
   45.7041    8.8747   12.2416 C   0  0  0  0  0  0  0  0  0  0  0  0
   49.4257   11.3403   10.6519 C   0  0  0  0  0  0  0  0  0  0  0  0
   44.0912    6.5579   11.9868 C   0  0  0  0  0  0  0  0  0  0  0  0
   50.6155   14.0672   13.6201 O   0  0  0  0  0  0  0  0  0  0  0  0
   46.6736   11.3447   12.4663 O   0  0  0  0  0  0  0  0  0  0  0  0
   49.0086   15.6144   13.4971 O   0  0  0  0  0  0  0  0  0  0  0  0
   48.2697    9.7917   12.6388 O   0  0  0  0  0  0  0  0  0  0  0  0
   49.3471   14.4480   13.4132 C   0  0  0  0  0  0  0  0  0  0  0  0
   47.9363   10.9609   12.6978 C   0  0  0  0  0  0  0  0  0  0  0  0
   48.4419   13.3420   13.0880 C   0  0  0  0  0  0  0  0  0  0  0  0
   48.8433   12.0650   13.0209 C   0  0  0  0  0  0  0  0  0  0  0  0
   51.4761   18.8711   12.1310 O   0  0  0  0  0  0  0  0  0  0  0  0
   47.9090   14.9026   15.4359 O   0  0  0  0  0  0  0  0  0  0  0  0
   47.8265    5.6520   12.7541 O   0  0  0  0  0  0  0  0  0  0  0  0
   53.3626   19.2131   13.7510 O   0  0  0  0  0  0  0  0  0  0  0  0
   52.2054   17.4529   14.7467 N   0  0  0  0  0  0  0  0  0  0  0  0
   47.2839   13.5175   12.0014 N   0  0  0  0  0  0  0  0  0  0  0  0
   49.1551   15.7005   13.5646 C   0  0  0  0  0  0  0  0  0  0  0  0
   51.1223   17.1755   13.8789 C   0  0  0  0  0  0  0  0  0  0  0  0
   50.7932   17.8302   12.6884 C   0  0  0  0  0  0  0  0  0  0  0  0
   50.2919   16.1149   14.2923 C   0  0  0  0  0  0  0  0  0  0  0  0
   48.3334   14.5446   14.1101 C   0  0  2  0  0  0  0  0  0  0  0  0
   48.8617   16.3781   12.3831 C   0  0  0  0  0  0  0  0  0  0  0  0
   49.6726   17.4332   11.9534 C   0  0  0  0  0  0  0  0  0  0  0  0
   47.0617   14.0933   13.3376 C   0  0  0  0  0  0  0  0  0  0  0  0
   48.1554    9.8163   12.7185 C   0  0  0  0  0  0  0  0  0  0  0  0
   47.1469   12.0447   11.9536 C   0  0  2  0  0  0  0  0  0  0  0  0
   48.3071   11.3194   12.6704 C   0  0  0  0  0  0  0  0  0  0  0  0
   47.8719    7.0177   12.8128 C   0  0  0  0  0  0  0  0  0  0  0  0
   48.8722    9.0004   11.8372 C   0  0  0  0  0  0  0  0  0  0  0  0
   47.2948    9.2168   13.6471 C   0  0  0  0  0  0  0  0  0  0  0  0
   53.1897   18.4000   14.6459 C   0  0  0  0  0  0  0  0  0  0  0  0
   48.7312    7.6126   11.8868 C   0  0  0  0  0  0  0  0  0  0  0  0
   47.1515    7.8252   13.6935 C   0  0  0  0  0  0  0  0  0  0  0  0
   47.0805   11.6571   10.4691 C   0  0  0  0  0  0  0  0  0  0  0  0
   47.0285    4.9950   13.7304 C   0  0  0  0  0  0  0  0  0  0  0  0
   48.8639   12.5384   13.3797 O   0  0  0  0  0  0  0  0  0  0  0  0
   48.4080   11.9670   12.8366 H   0  0  0  0  0  0  0  0  0  0  0  0
   49.0323   13.3580   12.7948 H   0  0  0  0  0  0  0  0  0  0  0  0
   49.9273   19.6232   15.6302 H   0  0  0  0  0  0  0  0  0  0  0  0
   51.8262   12.7097   14.3867 H   0  0  0  0  0  0  0  0  0  0  0  0
   49.4998   19.6303   13.3198 H   0  0  0  0  0  0  0  0  0  0  0  0
   51.6735   12.0767   11.7318 H   0  0  0  0  0  0  0  0  0  0  0  0
   50.5143   16.1401   12.5192 H   0  0  0  0  0  0  0  0  0  0  0  0
   49.5349   13.2316   14.5405 H   0  0  0  0  0  0  0  0  0  0  0  0
   49.3565   14.8093   16.4474 H   0  0  0  0  0  0  0  0  0  0  0  0
   48.7645   17.1302   17.0620 H   0  0  0  0  0  0  0  0  0  0  0  0
   51.2945   14.1067   12.1943 H   0  0  0  0  0  0  0  0  0  0  0  0
   49.5922   13.7055   12.0413 H   0  0  0  0  0  0  0  0  0  0  0  0
   50.4354   10.1360   12.0821 H   0  0  0  0  0  0  0  0  0  0  0  0
   49.1622   10.9351   14.1204 H   0  0  0  0  0  0  0  0  0  0  0  0
   48.1516   11.9264   13.0821 H   0  0  0  0  0  0  0  0  0  0  0  0
   49.3110    8.3617   13.5655 H   0  0  0  0  0  0  0  0  0  0  0  0
   46.1659   10.9717   12.1843 H   0  0  0  0  0  0  0  0  0  0  0  0
   50.2346   19.7585   11.2212 H   0  0  0  0  0  0  0  0  0  0  0  0
   47.8270    6.4230   13.2341 H   0  0  0  0  0  0  0  0  0  0  0  0
   44.7006    9.0535   11.8720 H   0  0  0  0  0  0  0  0  0  0  0  0
   50.2686   11.4515    9.9573 H   0  0  0  0  0  0  0  0  0  0  0  0
   48.8366   10.4856   10.3007 H   0  0  0  0  0  0  0  0  0  0  0  0
   48.7972   12.2349   10.5704 H   0  0  0  0  0  0  0  0  0  0  0  0
   43.5032    7.1504   12.6946 H   0  0  0  0  0  0  0  0  0  0  0  0
   43.6583    5.5543   11.9529 H   0  0  0  0  0  0  0  0  0  0  0  0
   44.0360    6.9780   10.9778 H   0  0  0  0  0  0  0  0  0  0  0  0
   51.0823   14.9053   13.8209 H   0  0  0  0  0  0  0  0  0  0  0  0
   46.2065   10.5064   12.2679 H   0  0  0  0  0  0  0  0  0  0  0  0
   47.4148   13.6385   12.9076 H   0  0  0  0  0  0  0  0  0  0  0  0
   49.8708   11.7693   13.2026 H   0  0  0  0  0  0  0  0  0  0  0  0
   52.2506   19.0878   12.6920 H   0  0  0  0  0  0  0  0  0  0  0  0
   47.6570   15.8414   15.4049 H   0  0  0  0  0  0  0  0  0  0  0  0
   52.2623   16.8684   15.5713 H   0  0  0  0  0  0  0  0  0  0  0  0
   46.5853   13.9149   11.3692 H   0  0  0  0  0  0  0  0  0  0  0  0
   50.5193   15.5809   15.2157 H   0  0  0  0  0  0  0  0  0  0  0  0
   49.0052   13.6876   14.2184 H   0  0  0  0  0  0  0  0  0  0  0  0
   48.0134   16.1019   11.7650 H   0  0  0  0  0  0  0  0  0  0  0  0
   49.4354   17.9529   11.0266 H   0  0  0  0  0  0  0  0  0  0  0  0
   46.4055   14.9692   13.2254 H   0  0  0  0  0  0  0  0  0  0  0  0
   46.4777   13.4093   13.9684 H   0  0  0  0  0  0  0  0  0  0  0  0
   46.1890   11.7575   12.4062 H   0  0  0  0  0  0  0  0  0  0  0  0
   49.2638   11.5800   12.1995 H   0  0  0  0  0  0  0  0  0  0  0  0
   48.3821   11.6583   13.7097 H   0  0  0  0  0  0  0  0  0  0  0  0
   49.5471    9.4372   11.1048 H   0  0  0  0  0  0  0  0  0  0  0  0
   46.7347    9.8290   14.3508 H   0  0  0  0  0  0  0  0  0  0  0  0
   53.8738   18.3513   15.5114 H   0  0  0  0  0  0  0  0  0  0  0  0
   49.2973    6.9885   11.1988 H   0  0  0  0  0  0  0  0  0  0  0  0
   46.4774    7.4045   14.4329 H   0  0  0  0  0  0  0  0  0  0  0  0
   46.2783   12.2002    9.9546 H   0  0  0  0  0  0  0  0  0  0  0  0
   46.8670   10.5912   10.3459 H   0  0  0  0  0  0  0  0  0  0  0  0
   48.0236   11.8803    9.9562 H   0  0  0  0  0  0  0  0  0  0  0  0
   47.1240    3.9174   13.5692 H   0  0  0  0  0  0  0  0  0  0  0  0
   47.3819    5.2127   14.7439 H   0  0  0  0  0  0  0  0  0  0  0  0
   45.9716    5.2581   13.6139 H   0  0  0  0  0  0  0  0  0  0  0  0
   49.0819   13.3655   12.9244 H   0  0  0  0  0  0  0  0  0  0  0  0
   48.3888   12.0224   12.7112 H   0  0  0  0  0  0  0  0  0  0  0  0
  2 10  1  0
  3 12  1  0
  4 19  1  0
  4 26  1  0
  5 22  2  0
  6  9  1  0
  6 22  1  0
  7 15  1  0
  7 17  1  0
  8 11  2  0
  8 12  1  0
  8 13  1  0
  9 10  2  0
  9 11  1  0
 10 14  1  0
 12 15  1  0
 13 14  2  0
 16 18  1  0
 16 20  2  0
 16 21  1  0
 17 18  1  0
 17 25  1  0
 19 23  2  0
 19 24  1  0
 20 23  1  0
 21 24  2  0
 27 31  1  0
 28 32  1  0
 29 31  2  0
 30 32  2  0
 31 33  1  0
 32 34  1  0
 33 34  2  0
 35 43  1  0
 36 45  1  0
 37 52  1  0
 37 59  1  0
 38 55  2  0
 39 42  1  0
 39 55  1  0
 40 48  1  0
 40 50  1  0
 41 44  2  0
 41 45  1  0
 41 46  1  0
 42 43  2  0
 42 44  1  0
 43 47  1  0
 45 48  1  0
 46 47  2  0
 49 51  1  0
 49 53  2  0
 49 54  1  0
 50 51  1  0
 50 58  1  0
 52 56  2  0
 52 57  1  0
 53 56  1  0
 54 57  2  0
  1 61  1  0
  1 62  1  0
  2 63  1  0
  3 64  1  0
  6 65  1  0
  7 66  1  0
 11 67  1  0
 12 68  1  1
 13 69  1  0
 14 70  1  0
 15 71  1  0
 15 72  1  0
 17 73  1  6
 18 74  1  0
 18 75  1  0
 20 76  1  0
 21 77  1  0
 22 78  1  0
 23 79  1  0
 24 80  1  0
 25 81  1  0
 25 82  1  0
 25 83  1  0
 26 84  1  0
 26 85  1  0
 26 86  1  0
 27 87  1  0
 28 88  1  0
 33 89  1  0
 34 90  1  0
 35 91  1  0
 36 92  1  0
 39 93  1  0
 40 94  1  0
 44 95  1  0
 45 96  1  6
 46 97  1  0
 47 98  1  0
 48 99  1  0
 48100  1  0
 50101  1  1
 51102  1  0
 51103  1  0
 53104  1  0
 54105  1  0
 55106  1  0
 56107  1  0
 57108  1  0
 58109  1  0
 58110  1  0
 58111  1  0
 59112  1  0
 59113  1  0
 59114  1  0
 60115  1  0
 60116  1  0
M  END
> <Uni-Dock RESULT> 
ENERGY=   -4.419  LOWER_BOUND=    3.861  UPPER_BOUND=    5.566
INTER + INTRA:          -4.419
INTER:                  -4.419
INTRA:                   0.000
UNBOUND:                 0.000

$$$$
