
     RDKit          3D

116115  0  0  0  0  0  0  0  0999 V2000
   49.3147    7.5507   16.1744 O   0  0  0  0  0  0  0  0  0  0  0  0
   48.9030    6.2808   21.2174 O   0  0  0  0  0  0  0  0  0  0  0  0
   53.7043    5.4493   17.2350 O   0  0  0  0  0  0  0  0  0  0  0  0
   45.6587    9.0337   11.9273 O   0  0  0  0  0  0  0  0  0  0  0  0
   47.7551    5.1573   16.5091 O   0  0  0  0  0  0  0  0  0  0  0  0
   48.0505    5.4775   18.8009 N   0  0  0  0  0  0  0  0  0  0  0  0
   52.1699    8.8107   16.4141 N   0  0  0  0  0  0  0  0  0  0  0  0
   51.6386    6.2822   18.0777 C   0  0  0  0  0  0  0  0  0  0  0  0
   49.3960    5.8694   18.9230 C   0  0  0  0  0  0  0  0  0  0  0  0
   49.8210    6.2764   20.1940 C   0  0  0  0  0  0  0  0  0  0  0  0
   50.3082    5.8813   17.8691 C   0  0  0  0  0  0  0  0  0  0  0  0
   52.6102    6.3052   16.9117 C   0  0  1  0  0  0  0  0  0  0  0  0
   52.0437    6.6596   19.3692 C   0  0  0  0  0  0  0  0  0  0  0  0
   51.1360    6.6656   20.4274 C   0  0  0  0  0  0  0  0  0  0  0  0
   53.1464    7.7262   16.5746 C   0  0  0  0  0  0  0  0  0  0  0  0
   48.9216    9.4443   14.5095 C   0  0  0  0  0  0  0  0  0  0  0  0
   51.2323    8.6270   15.2879 C   0  0  1  0  0  0  0  0  0  0  0  0
   50.0888    9.6613   15.4454 C   0  0  0  0  0  0  0  0  0  0  0  0
   46.7073    9.0811   12.8047 C   0  0  0  0  0  0  0  0  0  0  0  0
   48.1332    8.2893   14.6005 C   0  0  0  0  0  0  0  0  0  0  0  0
   48.5922   10.4154   13.5592 C   0  0  0  0  0  0  0  0  0  0  0  0
   47.3685    5.1296   17.6664 C   0  0  0  0  0  0  0  0  0  0  0  0
   47.0389    8.1062   13.7471 C   0  0  0  0  0  0  0  0  0  0  0  0
   47.4924   10.2322   12.7188 C   0  0  0  0  0  0  0  0  0  0  0  0
   51.9535    8.8114   13.9459 C   0  0  0  0  0  0  0  0  0  0  0  0
   44.7802    7.9271   12.0376 C   0  0  0  0  0  0  0  0  0  0  0  0
   48.6897    8.9258   13.6170 O   0  0  0  0  0  0  0  0  0  0  0  0
   50.6742    6.2891   18.4077 O   0  0  0  0  0  0  0  0  0  0  0  0
   47.6012    9.0218   15.5742 O   0  0  0  0  0  0  0  0  0  0  0  0
   51.7807    6.2267   16.4608 O   0  0  0  0  0  0  0  0  0  0  0  0
   48.5483    8.6352   14.9182 C   0  0  0  0  0  0  0  0  0  0  0  0
   50.8246    6.5975   17.1127 C   0  0  0  0  0  0  0  0  0  0  0  0
   49.6701    7.8173   15.3783 C   0  0  0  0  0  0  0  0  0  0  0  0
   49.7050    7.4202   16.6561 C   0  0  0  0  0  0  0  0  0  0  0  0
   52.5612    4.1206   22.2223 O   0  0  0  0  0  0  0  0  0  0  0  0
   53.0908    7.5148   16.8411 O   0  0  0  0  0  0  0  0  0  0  0  0
   45.5638   11.3482   11.2196 O   0  0  0  0  0  0  0  0  0  0  0  0
   48.1533    5.0736   20.0885 O   0  0  0  0  0  0  0  0  0  0  0  0
   50.0483    4.5968   21.3639 N   0  0  0  0  0  0  0  0  0  0  0  0
   51.0206    7.1193   15.0924 N   0  0  0  0  0  0  0  0  0  0  0  0
   52.0665    6.3701   18.7383 C   0  0  0  0  0  0  0  0  0  0  0  0
   51.1163    5.1316   20.6166 C   0  0  0  0  0  0  0  0  0  0  0  0
   52.4097    4.8790   21.0871 C   0  0  0  0  0  0  0  0  0  0  0  0
   50.9534    5.8880   19.4567 C   0  0  0  0  0  0  0  0  0  0  0  0
   51.8448    7.1857   17.4743 C   0  0  2  0  0  0  0  0  0  0  0  0
   53.3519    6.1039   19.2399 C   0  0  0  0  0  0  0  0  0  0  0  0
   53.5247    5.3676   20.4145 C   0  0  0  0  0  0  0  0  0  0  0  0
   50.9496    6.4602   16.4201 C   0  0  0  0  0  0  0  0  0  0  0  0
   48.7766    9.1671   12.7689 C   0  0  0  0  0  0  0  0  0  0  0  0
   49.8529    7.9760   14.7849 C   0  0  2  0  0  0  0  0  0  0  0  0
   49.9690    8.4130   13.3027 C   0  0  0  0  0  0  0  0  0  0  0  0
   46.5550   10.5665   11.7473 C   0  0  0  0  0  0  0  0  0  0  0  0
   48.9028   10.4965   12.3560 C   0  0  0  0  0  0  0  0  0  0  0  0
   47.5267    8.5447   12.6614 C   0  0  0  0  0  0  0  0  0  0  0  0
   48.7124    4.6169   21.0705 C   0  0  0  0  0  0  0  0  0  0  0  0
   47.7971   11.1927   11.8623 C   0  0  0  0  0  0  0  0  0  0  0  0
   46.4225    9.2402   12.1591 C   0  0  0  0  0  0  0  0  0  0  0  0
   49.7787    9.1885   15.7165 C   0  0  0  0  0  0  0  0  0  0  0  0
   44.3320   10.7031   10.9219 C   0  0  0  0  0  0  0  0  0  0  0  0
   49.2994    7.5705   16.1414 O   0  0  0  0  0  0  0  0  0  0  0  0
   50.1662    7.4134   16.6163 H   0  0  0  0  0  0  0  0  0  0  0  0
   49.5315    8.1158   15.4178 H   0  0  0  0  0  0  0  0  0  0  0  0
   49.2952    6.7413   21.9789 H   0  0  0  0  0  0  0  0  0  0  0  0
   54.3517    5.5238   16.5121 H   0  0  0  0  0  0  0  0  0  0  0  0
   47.5405    5.4854   19.6770 H   0  0  0  0  0  0  0  0  0  0  0  0
   51.6278    8.8701   17.2774 H   0  0  0  0  0  0  0  0  0  0  0  0
   50.0071    5.5660   16.8763 H   0  0  0  0  0  0  0  0  0  0  0  0
   52.1369    5.8789   16.0185 H   0  0  0  0  0  0  0  0  0  0  0  0
   53.0768    6.9448   19.5473 H   0  0  0  0  0  0  0  0  0  0  0  0
   51.4699    6.9510   21.4191 H   0  0  0  0  0  0  0  0  0  0  0  0
   53.7913    7.6668   15.6892 H   0  0  0  0  0  0  0  0  0  0  0  0
   53.8302    8.0317   17.3747 H   0  0  0  0  0  0  0  0  0  0  0  0
   50.7989    7.6217   15.3217 H   0  0  0  0  0  0  0  0  0  0  0  0
   49.6909    9.6243   16.4702 H   0  0  0  0  0  0  0  0  0  0  0  0
   50.4907   10.6762   15.3141 H   0  0  0  0  0  0  0  0  0  0  0  0
   48.3547    7.5200   15.3404 H   0  0  0  0  0  0  0  0  0  0  0  0
   49.1745   11.3299   13.4713 H   0  0  0  0  0  0  0  0  0  0  0  0
   46.3366    4.8320   17.9153 H   0  0  0  0  0  0  0  0  0  0  0  0
   46.4724    7.1881   13.8489 H   0  0  0  0  0  0  0  0  0  0  0  0
   47.2448   11.0004   11.9951 H   0  0  0  0  0  0  0  0  0  0  0  0
   52.4313    9.7941   13.8859 H   0  0  0  0  0  0  0  0  0  0  0  0
   52.7272    8.0510   13.7947 H   0  0  0  0  0  0  0  0  0  0  0  0
   51.2566    8.7209   13.1075 H   0  0  0  0  0  0  0  0  0  0  0  0
   43.9929    8.0473   11.2907 H   0  0  0  0  0  0  0  0  0  0  0  0
   44.2988    7.9003   13.0164 H   0  0  0  0  0  0  0  0  0  0  0  0
   45.2996    6.9909   11.8195 H   0  0  0  0  0  0  0  0  0  0  0  0
   47.8974    9.4622   13.4084 H   0  0  0  0  0  0  0  0  0  0  0  0
   51.4669    5.7541   18.6224 H   0  0  0  0  0  0  0  0  0  0  0  0
   50.4427    7.5677   14.6586 H   0  0  0  0  0  0  0  0  0  0  0  0
   48.9334    7.6690   17.3750 H   0  0  0  0  0  0  0  0  0  0  0  0
   53.5015    3.9098   22.3275 H   0  0  0  0  0  0  0  0  0  0  0  0
   52.8399    7.6861   15.9093 H   0  0  0  0  0  0  0  0  0  0  0  0
   50.3432    4.1064   22.1990 H   0  0  0  0  0  0  0  0  0  0  0  0
   51.0458    6.3756   14.3895 H   0  0  0  0  0  0  0  0  0  0  0  0
   49.9569    6.1151   19.0951 H   0  0  0  0  0  0  0  0  0  0  0  0
   51.3975    8.1420   17.7664 H   0  0  0  0  0  0  0  0  0  0  0  0
   54.2294    6.4825   18.7208 H   0  0  0  0  0  0  0  0  0  0  0  0
   54.5321    5.1758   20.7746 H   0  0  0  0  0  0  0  0  0  0  0  0
   51.3467    5.4438   16.2750 H   0  0  0  0  0  0  0  0  0  0  0  0
   49.9157    6.3318   16.7634 H   0  0  0  0  0  0  0  0  0  0  0  0
   48.9372    7.3838   14.8991 H   0  0  0  0  0  0  0  0  0  0  0  0
   50.0975    7.5291   12.6672 H   0  0  0  0  0  0  0  0  0  0  0  0
   50.8787    9.0063   13.1654 H   0  0  0  0  0  0  0  0  0  0  0  0
   49.8623   11.0022   12.4199 H   0  0  0  0  0  0  0  0  0  0  0  0
   47.3966    7.5056   12.9559 H   0  0  0  0  0  0  0  0  0  0  0  0
   48.1328    4.1224   21.8639 H   0  0  0  0  0  0  0  0  0  0  0  0
   47.9081   12.2261   11.5466 H   0  0  0  0  0  0  0  0  0  0  0  0
   45.4723    8.7206   12.1103 H   0  0  0  0  0  0  0  0  0  0  0  0
   48.9755    9.8671   15.4155 H   0  0  0  0  0  0  0  0  0  0  0  0
   49.5612    8.8848   16.7437 H   0  0  0  0  0  0  0  0  0  0  0  0
   50.7117    9.7590   15.7145 H   0  0  0  0  0  0  0  0  0  0  0  0
   43.6907   11.4359   10.4246 H   0  0  0  0  0  0  0  0  0  0  0  0
   44.4779    9.8622   10.2338 H   0  0  0  0  0  0  0  0  0  0  0  0
   43.8234   10.3790   11.8396 H   0  0  0  0  0  0  0  0  0  0  0  0
   49.6122    8.1326   15.4166 H   0  0  0  0  0  0  0  0  0  0  0  0
   50.1009    7.3769   16.6505 H   0  0  0  0  0  0  0  0  0  0  0  0
  2 10  1  0
  3 12  1  0
  4 19  1  0
  4 26  1  0
  5 22  2  0
  6  9  1  0
  6 22  1  0
  7 15  1  0
  7 17  1  0
  8 11  2  0
  8 12  1  0
  8 13  1  0
  9 10  2  0
  9 11  1  0
 10 14  1  0
 12 15  1  0
 13 14  2  0
 16 18  1  0
 16 20  2  0
 16 21  1  0
 17 18  1  0
 17 25  1  0
 19 23  2  0
 19 24  1  0
 20 23  1  0
 21 24  2  0
 27 31  1  0
 28 32  1  0
 29 31  2  0
 30 32  2  0
 31 33  1  0
 32 34  1  0
 33 34  2  0
 35 43  1  0
 36 45  1  0
 37 52  1  0
 37 59  1  0
 38 55  2  0
 39 42  1  0
 39 55  1  0
 40 48  1  0
 40 50  1  0
 41 44  2  0
 41 45  1  0
 41 46  1  0
 42 43  2  0
 42 44  1  0
 43 47  1  0
 45 48  1  0
 46 47  2  0
 49 51  1  0
 49 53  2  0
 49 54  1  0
 50 51  1  0
 50 58  1  0
 52 56  2  0
 52 57  1  0
 53 56  1  0
 54 57  2  0
  1 61  1  0
  1 62  1  0
  2 63  1  0
  3 64  1  0
  6 65  1  0
  7 66  1  0
 11 67  1  0
 12 68  1  6
 13 69  1  0
 14 70  1  0
 15 71  1  0
 15 72  1  0
 17 73  1  6
 18 74  1  0
 18 75  1  0
 20 76  1  0
 21 77  1  0
 22 78  1  0
 23 79  1  0
 24 80  1  0
 25 81  1  0
 25 82  1  0
 25 83  1  0
 26 84  1  0
 26 85  1  0
 26 86  1  0
 27 87  1  0
 28 88  1  0
 33 89  1  0
 34 90  1  0
 35 91  1  0
 36 92  1  0
 39 93  1  0
 40 94  1  0
 44 95  1  0
 45 96  1  1
 46 97  1  0
 47 98  1  0
 48 99  1  0
 48100  1  0
 50101  1  1
 51102  1  0
 51103  1  0
 53104  1  0
 54105  1  0
 55106  1  0
 56107  1  0
 57108  1  0
 58109  1  0
 58110  1  0
 58111  1  0
 59112  1  0
 59113  1  0
 59114  1  0
 60115  1  0
 60116  1  0
M  END
> <Uni-Dock RESULT> 
ENERGY=   -5.384  LOWER_BOUND=    0.000  UPPER_BOUND=    0.000
INTER + INTRA:          -5.384
INTER:                  -5.384
INTRA:                   0.000
UNBOUND:                 0.000

$$$$

     RDKit          3D

116115  0  0  0  0  0  0  0  0999 V2000
   50.1805    6.8512   16.2921 O   0  0  0  0  0  0  0  0  0  0  0  0
   51.3712    6.1705   21.3253 O   0  0  0  0  0  0  0  0  0  0  0  0
   55.0376    7.9303   16.5228 O   0  0  0  0  0  0  0  0  0  0  0  0
   45.8052    5.3582   12.7948 O   0  0  0  0  0  0  0  0  0  0  0  0
   50.4708    4.0577   16.9124 O   0  0  0  0  0  0  0  0  0  0  0  0
   50.8417    4.7488   19.1095 N   0  0  0  0  0  0  0  0  0  0  0  0
   51.6745    9.5858   15.9972 N   0  0  0  0  0  0  0  0  0  0  0  0
   53.0434    7.4511   17.7329 C   0  0  0  0  0  0  0  0  0  0  0  0
   51.6700    5.8783   18.9797 C   0  0  0  0  0  0  0  0  0  0  0  0
   51.9397    6.5999   20.1495 C   0  0  0  0  0  0  0  0  0  0  0  0
   52.2197    6.3137   17.7750 C   0  0  0  0  0  0  0  0  0  0  0  0
   53.6161    7.9182   16.4070 C   0  0  1  0  0  0  0  0  0  0  0  0
   53.3186    8.1397   18.9267 C   0  0  0  0  0  0  0  0  0  0  0  0
   52.7622    7.7217   20.1348 C   0  0  0  0  0  0  0  0  0  0  0  0
   53.1197    9.3278   15.9750 C   0  0  0  0  0  0  0  0  0  0  0  0
   48.4773    7.9290   14.7270 C   0  0  0  0  0  0  0  0  0  0  0  0
   50.8905    8.7513   15.0645 C   0  0  1  0  0  0  0  0  0  0  0  0
   49.3923    8.9057   15.4302 C   0  0  0  0  0  0  0  0  0  0  0  0
   46.7224    6.1227   13.4626 C   0  0  0  0  0  0  0  0  0  0  0  0
   48.5792    6.5515   14.9638 C   0  0  0  0  0  0  0  0  0  0  0  0
   47.4901    8.3944   13.8533 C   0  0  0  0  0  0  0  0  0  0  0  0
   50.3557    3.9360   18.1213 C   0  0  0  0  0  0  0  0  0  0  0  0
   47.7124    5.6548   14.3281 C   0  0  0  0  0  0  0  0  0  0  0  0
   46.6211    7.4957   13.2314 C   0  0  0  0  0  0  0  0  0  0  0  0
   51.1439    9.1764   13.6119 C   0  0  0  0  0  0  0  0  0  0  0  0
   45.8102    3.9674   13.0670 C   0  0  0  0  0  0  0  0  0  0  0  0
   48.4815    7.2776   13.8935 O   0  0  0  0  0  0  0  0  0  0  0  0
   52.3356    6.9173   18.2360 O   0  0  0  0  0  0  0  0  0  0  0  0
   47.8610    6.9251   16.0184 O   0  0  0  0  0  0  0  0  0  0  0  0
   52.9512    7.3085   16.1178 O   0  0  0  0  0  0  0  0  0  0  0  0
   48.7388    7.1104   15.1986 C   0  0  0  0  0  0  0  0  0  0  0  0
   52.0754    7.1048   16.9353 C   0  0  0  0  0  0  0  0  0  0  0  0
   50.1787    7.1848   15.4437 C   0  0  0  0  0  0  0  0  0  0  0  0
   50.6348    7.0359   16.6932 C   0  0  0  0  0  0  0  0  0  0  0  0
   55.6857    6.7592   21.6369 O   0  0  0  0  0  0  0  0  0  0  0  0
   53.2440    9.1571   16.2474 O   0  0  0  0  0  0  0  0  0  0  0  0
   44.2184    7.0571   12.1146 O   0  0  0  0  0  0  0  0  0  0  0  0
   51.3564    4.6361   20.3561 O   0  0  0  0  0  0  0  0  0  0  0  0
   53.3109    5.5364   21.2586 N   0  0  0  0  0  0  0  0  0  0  0  0
   51.6148    7.4064   14.9131 N   0  0  0  0  0  0  0  0  0  0  0  0
   53.4202    7.8519   18.3027 C   0  0  0  0  0  0  0  0  0  0  0  0
   53.7085    6.5144   20.3259 C   0  0  0  0  0  0  0  0  0  0  0  0
   54.9396    7.1412   20.5487 C   0  0  0  0  0  0  0  0  0  0  0  0
   52.9511    6.8853   19.2155 C   0  0  0  0  0  0  0  0  0  0  0  0
   52.5657    8.2227   17.1009 C   0  0  2  0  0  0  0  0  0  0  0  0
   54.6579    8.4666   18.5576 C   0  0  0  0  0  0  0  0  0  0  0  0
   55.4129    8.1193   19.6807 C   0  0  0  0  0  0  0  0  0  0  0  0
   52.1551    6.9920   16.2316 C   0  0  0  0  0  0  0  0  0  0  0  0
   48.2781    7.4247   13.0437 C   0  0  0  0  0  0  0  0  0  0  0  0
   50.1377    7.3526   14.8265 C   0  0  2  0  0  0  0  0  0  0  0  0
   49.7451    7.6003   13.3481 C   0  0  0  0  0  0  0  0  0  0  0  0
   45.5444    7.0898   12.4502 C   0  0  0  0  0  0  0  0  0  0  0  0
   47.5067    8.5078   12.6133 C   0  0  0  0  0  0  0  0  0  0  0  0
   47.6668    6.1710   13.1704 C   0  0  0  0  0  0  0  0  0  0  0  0
   52.2141    4.7199   21.2179 C   0  0  0  0  0  0  0  0  0  0  0  0
   46.1484    8.3426   12.3324 C   0  0  0  0  0  0  0  0  0  0  0  0
   46.3089    6.0053   12.8808 C   0  0  0  0  0  0  0  0  0  0  0  0
   49.4780    8.3760   15.7545 C   0  0  0  0  0  0  0  0  0  0  0  0
   43.6073    5.7747   12.0509 C   0  0  0  0  0  0  0  0  0  0  0  0
   50.1517    6.8540   16.2625 O   0  0  0  0  0  0  0  0  0  0  0  0
   50.9927    7.3018   16.5687 H   0  0  0  0  0  0  0  0  0  0  0  0
   49.8947    7.3432   15.5079 H   0  0  0  0  0  0  0  0  0  0  0  0
   51.5081    6.8569   22.0005 H   0  0  0  0  0  0  0  0  0  0  0  0
   55.3912    8.2945   15.6924 H   0  0  0  0  0  0  0  0  0  0  0  0
   50.5676    4.5495   20.0649 H   0  0  0  0  0  0  0  0  0  0  0  0
   51.3422    9.4067   16.9460 H   0  0  0  0  0  0  0  0  0  0  0  0
   52.0314    5.7706   16.8555 H   0  0  0  0  0  0  0  0  0  0  0  0
   53.3759    7.1953   15.6175 H   0  0  0  0  0  0  0  0  0  0  0  0
   53.9765    9.0040   18.9099 H   0  0  0  0  0  0  0  0  0  0  0  0
   52.9939    8.2605   21.0471 H   0  0  0  0  0  0  0  0  0  0  0  0
   53.5290    9.5658   14.9854 H   0  0  0  0  0  0  0  0  0  0  0  0
   53.5839   10.0700   16.6342 H   0  0  0  0  0  0  0  0  0  0  0  0
   51.1696    7.6984   15.1790 H   0  0  0  0  0  0  0  0  0  0  0  0
   49.2546    8.7548   16.5109 H   0  0  0  0  0  0  0  0  0  0  0  0
   49.0685    9.9363   15.2256 H   0  0  0  0  0  0  0  0  0  0  0  0
   49.3286    6.1578   15.6505 H   0  0  0  0  0  0  0  0  0  0  0  0
   47.3744    9.4581   13.6581 H   0  0  0  0  0  0  0  0  0  0  0  0
   49.7688    3.1109   18.5575 H   0  0  0  0  0  0  0  0  0  0  0  0
   47.8448    4.5992   14.5341 H   0  0  0  0  0  0  0  0  0  0  0  0
   45.8543    7.8748   12.5654 H   0  0  0  0  0  0  0  0  0  0  0  0
   50.9094   10.2350   13.4634 H   0  0  0  0  0  0  0  0  0  0  0  0
   52.1880    9.0189   13.3207 H   0  0  0  0  0  0  0  0  0  0  0  0
   50.5330    8.5925   12.9172 H   0  0  0  0  0  0  0  0  0  0  0  0
   45.0138    3.5070   12.4789 H   0  0  0  0  0  0  0  0  0  0  0  0
   45.5945    3.7694   14.1181 H   0  0  0  0  0  0  0  0  0  0  0  0
   46.7532    3.5107   12.7574 H   0  0  0  0  0  0  0  0  0  0  0  0
   47.5067    7.2055   13.8348 H   0  0  0  0  0  0  0  0  0  0  0  0
   53.3108    6.9915   18.3006 H   0  0  0  0  0  0  0  0  0  0  0  0
   50.8276    7.3672   14.5935 H   0  0  0  0  0  0  0  0  0  0  0  0
   49.9870    6.8533   17.5425 H   0  0  0  0  0  0  0  0  0  0  0  0
   56.5626    7.1663   21.5662 H   0  0  0  0  0  0  0  0  0  0  0  0
   52.8077    9.0370   15.3781 H   0  0  0  0  0  0  0  0  0  0  0  0
   53.9617    5.4186   22.0251 H   0  0  0  0  0  0  0  0  0  0  0  0
   51.9842    6.7517   14.2184 H   0  0  0  0  0  0  0  0  0  0  0  0
   51.9829    6.4283   19.0446 H   0  0  0  0  0  0  0  0  0  0  0  0
   51.6775    8.7470   17.4699 H   0  0  0  0  0  0  0  0  0  0  0  0
   55.0355    9.2329   17.8845 H   0  0  0  0  0  0  0  0  0  0  0  0
   56.3679    8.6107   19.8479 H   0  0  0  0  0  0  0  0  0  0  0  0
   53.0623    6.4067   16.0164 H   0  0  0  0  0  0  0  0  0  0  0  0
   51.4775    6.3106   16.7607 H   0  0  0  0  0  0  0  0  0  0  0  0
   49.8011    6.3481   15.1090 H   0  0  0  0  0  0  0  0  0  0  0  0
   50.2904    6.9038   12.7006 H   0  0  0  0  0  0  0  0  0  0  0  0
   50.0730    8.5995   13.0439 H   0  0  0  0  0  0  0  0  0  0  0  0
   47.9562    9.4902   12.4977 H   0  0  0  0  0  0  0  0  0  0  0  0
   48.2412    5.3024   13.4849 H   0  0  0  0  0  0  0  0  0  0  0  0
   52.1795    4.0711   22.1055 H   0  0  0  0  0  0  0  0  0  0  0  0
   45.5595    9.1929   12.0006 H   0  0  0  0  0  0  0  0  0  0  0  0
   45.8773    5.0191   13.0095 H   0  0  0  0  0  0  0  0  0  0  0  0
   48.3946    8.3996   15.6069 H   0  0  0  0  0  0  0  0  0  0  0  0
   49.6438    8.1216   16.8045 H   0  0  0  0  0  0  0  0  0  0  0  0
   49.8578    9.3863   15.5791 H   0  0  0  0  0  0  0  0  0  0  0  0
   42.5882    5.9160   11.6804 H   0  0  0  0  0  0  0  0  0  0  0  0
   44.1322    5.1167   11.3486 H   0  0  0  0  0  0  0  0  0  0  0  0
   43.5424    5.3176   13.0474 H   0  0  0  0  0  0  0  0  0  0  0  0
   49.9472    7.4046   15.4917 H   0  0  0  0  0  0  0  0  0  0  0  0
   50.9690    7.2377   16.6144 H   0  0  0  0  0  0  0  0  0  0  0  0
  2 10  1  0
  3 12  1  0
  4 19  1  0
  4 26  1  0
  5 22  2  0
  6  9  1  0
  6 22  1  0
  7 15  1  0
  7 17  1  0
  8 11  2  0
  8 12  1  0
  8 13  1  0
  9 10  2  0
  9 11  1  0
 10 14  1  0
 12 15  1  0
 13 14  2  0
 16 18  1  0
 16 20  2  0
 16 21  1  0
 17 18  1  0
 17 25  1  0
 19 23  2  0
 19 24  1  0
 20 23  1  0
 21 24  2  0
 27 31  1  0
 28 32  1  0
 29 31  2  0
 30 32  2  0
 31 33  1  0
 32 34  1  0
 33 34  2  0
 35 43  1  0
 36 45  1  0
 37 52  1  0
 37 59  1  0
 38 55  2  0
 39 42  1  0
 39 55  1  0
 40 48  1  0
 40 50  1  0
 41 44  2  0
 41 45  1  0
 41 46  1  0
 42 43  2  0
 42 44  1  0
 43 47  1  0
 45 48  1  0
 46 47  2  0
 49 51  1  0
 49 53  2  0
 49 54  1  0
 50 51  1  0
 50 58  1  0
 52 56  2  0
 52 57  1  0
 53 56  1  0
 54 57  2  0
  1 61  1  0
  1 62  1  0
  2 63  1  0
  3 64  1  0
  6 65  1  0
  7 66  1  0
 11 67  1  0
 12 68  1  6
 13 69  1  0
 14 70  1  0
 15 71  1  0
 15 72  1  0
 17 73  1  6
 18 74  1  0
 18 75  1  0
 20 76  1  0
 21 77  1  0
 22 78  1  0
 23 79  1  0
 24 80  1  0
 25 81  1  0
 25 82  1  0
 25 83  1  0
 26 84  1  0
 26 85  1  0
 26 86  1  0
 27 87  1  0
 28 88  1  0
 33 89  1  0
 34 90  1  0
 35 91  1  0
 36 92  1  0
 39 93  1  0
 40 94  1  0
 44 95  1  0
 45 96  1  1
 46 97  1  0
 47 98  1  0
 48 99  1  0
 48100  1  0
 50101  1  1
 51102  1  0
 51103  1  0
 53104  1  0
 54105  1  0
 55106  1  0
 56107  1  0
 57108  1  0
 58109  1  0
 58110  1  0
 58111  1  0
 59112  1  0
 59113  1  0
 59114  1  0
 60115  1  0
 60116  1  0
M  END
> <Uni-Dock RESULT> 
ENERGY=   -5.276  LOWER_BOUND=    1.807  UPPER_BOUND=    2.498
INTER + INTRA:          -5.276
INTER:                  -5.276
INTRA:                   0.000
UNBOUND:                 0.000

$$$$

     RDKit          3D

116115  0  0  0  0  0  0  0  0999 V2000
   50.5474    7.6170   20.0883 O   0  0  0  0  0  0  0  0  0  0  0  0
   54.5324    4.6332   18.5293 O   0  0  0  0  0  0  0  0  0  0  0  0
   48.3882    3.3069   18.8353 O   0  0  0  0  0  0  0  0  0  0  0  0
   49.9378   12.5437   23.0816 O   0  0  0  0  0  0  0  0  0  0  0  0
   51.9965    6.5745   22.3435 O   0  0  0  0  0  0  0  0  0  0  0  0
   53.4253    5.6064   20.7739 N   0  0  0  0  0  0  0  0  0  0  0  0
   48.6770    6.9008   17.6830 N   0  0  0  0  0  0  0  0  0  0  0  0
   50.3790    4.6137   18.8298 C   0  0  0  0  0  0  0  0  0  0  0  0
   52.5613    5.1201   19.7760 C   0  0  0  0  0  0  0  0  0  0  0  0
   53.1606    4.6095   18.6177 C   0  0  0  0  0  0  0  0  0  0  0  0
   51.1707    5.1248   19.8719 C   0  0  0  0  0  0  0  0  0  0  0  0
   48.8660    4.6460   18.9475 C   0  0  1  0  0  0  0  0  0  0  0  0
   51.0085    4.0830   17.6910 C   0  0  0  0  0  0  0  0  0  0  0  0
   52.3981    4.0867   17.5782 C   0  0  0  0  0  0  0  0  0  0  0  0
   48.1755    5.5340   17.8728 C   0  0  0  0  0  0  0  0  0  0  0  0
   49.5181    9.9386   19.8381 C   0  0  0  0  0  0  0  0  0  0  0  0
   48.5244    7.7768   18.8622 C   0  0  1  0  0  0  0  0  0  0  0  0
   49.3729    9.0515   18.6226 C   0  0  0  0  0  0  0  0  0  0  0  0
   49.8418   11.6243   22.0731 C   0  0  0  0  0  0  0  0  0  0  0  0
   50.1914    9.4865   20.9810 C   0  0  0  0  0  0  0  0  0  0  0  0
   49.0092   11.2407   19.8231 C   0  0  0  0  0  0  0  0  0  0  0  0
   53.0988    6.2333   21.9460 C   0  0  0  0  0  0  0  0  0  0  0  0
   50.3437   10.3220   22.0937 C   0  0  0  0  0  0  0  0  0  0  0  0
   49.1746   12.0730   20.9318 C   0  0  0  0  0  0  0  0  0  0  0  0
   47.0492    8.1372   19.0831 C   0  0  0  0  0  0  0  0  0  0  0  0
   50.6847   12.1651   24.2250 C   0  0  0  0  0  0  0  0  0  0  0  0
   49.0638   10.0952   20.7806 O   0  0  0  0  0  0  0  0  0  0  0  0
   51.2834    4.9789   19.1261 O   0  0  0  0  0  0  0  0  0  0  0  0
   51.2210    9.8505   20.2226 O   0  0  0  0  0  0  0  0  0  0  0  0
   49.1194    5.2334   19.6463 O   0  0  0  0  0  0  0  0  0  0  0  0
   50.1143    9.3705   20.3698 C   0  0  0  0  0  0  0  0  0  0  0  0
   50.2302    5.7087   19.5167 C   0  0  0  0  0  0  0  0  0  0  0  0
   49.7139    7.9818   20.1457 C   0  0  0  0  0  0  0  0  0  0  0  0
   50.6313    7.0982   19.7346 C   0  0  0  0  0  0  0  0  0  0  0  0
   52.8423    0.6931   17.7058 O   0  0  0  0  0  0  0  0  0  0  0  0
   48.4174    5.2908   17.9073 O   0  0  0  0  0  0  0  0  0  0  0  0
   49.3688   14.5744   21.8902 O   0  0  0  0  0  0  0  0  0  0  0  0
   54.3032    4.6775   20.3291 O   0  0  0  0  0  0  0  0  0  0  0  0
   53.9366    2.7538   19.0602 N   0  0  0  0  0  0  0  0  0  0  0  0
   48.6115    6.8970   20.1170 N   0  0  0  0  0  0  0  0  0  0  0  0
   50.5540    4.1502   18.2120 C   0  0  0  0  0  0  0  0  0  0  0  0
   52.6309    2.9117   18.5552 C   0  0  0  0  0  0  0  0  0  0  0  0
   52.0886    1.8326   17.8483 C   0  0  0  0  0  0  0  0  0  0  0  0
   51.8674    4.0670   18.7176 C   0  0  0  0  0  0  0  0  0  0  0  0
   49.7531    5.4263   18.4167 C   0  0  2  0  0  0  0  0  0  0  0  0
   50.0404    3.0515   17.5021 C   0  0  0  0  0  0  0  0  0  0  0  0
   50.8066    1.8987   17.3131 C   0  0  0  0  0  0  0  0  0  0  0  0
   49.6523    5.8589   19.9139 C   0  0  0  0  0  0  0  0  0  0  0  0
   48.3799   10.6076   21.0147 C   0  0  0  0  0  0  0  0  0  0  0  0
   49.1515    8.2685   20.2567 C   0  0  2  0  0  0  0  0  0  0  0  0
   47.9803    9.1937   20.6729 C   0  0  0  0  0  0  0  0  0  0  0  0
   49.1054   13.2500   21.6697 C   0  0  0  0  0  0  0  0  0  0  0  0
   47.9234   11.6812   20.2449 C   0  0  0  0  0  0  0  0  0  0  0  0
   49.2007   10.8715   22.1183 C   0  0  0  0  0  0  0  0  0  0  0  0
   54.6483    3.6082   19.8568 C   0  0  0  0  0  0  0  0  0  0  0  0
   48.2952   12.9894   20.5633 C   0  0  0  0  0  0  0  0  0  0  0  0
   49.5653   12.1824   22.4409 C   0  0  0  0  0  0  0  0  0  0  0  0
   49.8082    8.7535   18.9616 C   0  0  0  0  0  0  0  0  0  0  0  0
   50.0413   14.8988   23.1003 C   0  0  0  0  0  0  0  0  0  0  0  0
   50.5331    7.6542   20.0994 O   0  0  0  0  0  0  0  0  0  0  0  0
   50.2840    6.8674   19.5335 H   0  0  0  0  0  0  0  0  0  0  0  0
   49.8220    8.2511   19.9856 H   0  0  0  0  0  0  0  0  0  0  0  0
   54.7846    4.4098   17.6170 H   0  0  0  0  0  0  0  0  0  0  0  0
   47.4158    3.3462   18.8442 H   0  0  0  0  0  0  0  0  0  0  0  0
   54.4086    5.4838   20.5599 H   0  0  0  0  0  0  0  0  0  0  0  0
   49.6704    6.8378   17.4555 H   0  0  0  0  0  0  0  0  0  0  0  0
   50.6811    5.5093   20.7598 H   0  0  0  0  0  0  0  0  0  0  0  0
   48.5732    4.9966   19.9450 H   0  0  0  0  0  0  0  0  0  0  0  0
   50.4067    3.6600   16.8915 H   0  0  0  0  0  0  0  0  0  0  0  0
   52.8659    3.6640   16.6956 H   0  0  0  0  0  0  0  0  0  0  0  0
   47.0951    5.5526   18.0614 H   0  0  0  0  0  0  0  0  0  0  0  0
   48.2623    5.0277   16.9047 H   0  0  0  0  0  0  0  0  0  0  0  0
   48.9028    7.2701   19.7564 H   0  0  0  0  0  0  0  0  0  0  0  0
   50.3881    8.7698   18.3066 H   0  0  0  0  0  0  0  0  0  0  0  0
   48.9455    9.6259   17.7883 H   0  0  0  0  0  0  0  0  0  0  0  0
   50.6125    8.4818   21.0190 H   0  0  0  0  0  0  0  0  0  0  0  0
   48.4937   11.6281   18.9472 H   0  0  0  0  0  0  0  0  0  0  0  0
   54.0080    6.4528   22.5297 H   0  0  0  0  0  0  0  0  0  0  0  0
   50.8584    9.9173   22.9571 H   0  0  0  0  0  0  0  0  0  0  0  0
   48.7832   13.0835   20.8989 H   0  0  0  0  0  0  0  0  0  0  0  0
   46.6224    8.6161   18.1964 H   0  0  0  0  0  0  0  0  0  0  0  0
   46.4462    7.2517   19.3107 H   0  0  0  0  0  0  0  0  0  0  0  0
   46.9323    8.8220   19.9283 H   0  0  0  0  0  0  0  0  0  0  0  0
   50.6850   13.0072   24.9201 H   0  0  0  0  0  0  0  0  0  0  0  0
   51.7240   11.9559   23.9671 H   0  0  0  0  0  0  0  0  0  0  0  0
   50.2189   11.3185   24.7349 H   0  0  0  0  0  0  0  0  0  0  0  0
   49.4327   10.9936   20.9065 H   0  0  0  0  0  0  0  0  0  0  0  0
   50.9186    4.0785   18.9957 H   0  0  0  0  0  0  0  0  0  0  0  0
   48.6746    7.7212   20.3168 H   0  0  0  0  0  0  0  0  0  0  0  0
   51.6694    7.3580   19.5640 H   0  0  0  0  0  0  0  0  0  0  0  0
   52.2790   -0.0032   17.3350 H   0  0  0  0  0  0  0  0  0  0  0  0
   47.9107    5.9697   18.4002 H   0  0  0  0  0  0  0  0  0  0  0  0
   54.3604    1.8668   18.8183 H   0  0  0  0  0  0  0  0  0  0  0  0
   48.1280    6.6701   20.9902 H   0  0  0  0  0  0  0  0  0  0  0  0
   52.2841    4.9212   19.2392 H   0  0  0  0  0  0  0  0  0  0  0  0
   50.2211    6.2156   17.8185 H   0  0  0  0  0  0  0  0  0  0  0  0
   49.0391    3.0945   17.0796 H   0  0  0  0  0  0  0  0  0  0  0  0
   50.3794    1.0647   16.7624 H   0  0  0  0  0  0  0  0  0  0  0  0
   49.3280    4.9863   20.5014 H   0  0  0  0  0  0  0  0  0  0  0  0
   50.6216    6.1578   20.3315 H   0  0  0  0  0  0  0  0  0  0  0  0
   49.8991    8.2765   21.0587 H   0  0  0  0  0  0  0  0  0  0  0  0
   47.4814    8.7810   21.5575 H   0  0  0  0  0  0  0  0  0  0  0  0
   47.2201    9.2002   19.8852 H   0  0  0  0  0  0  0  0  0  0  0  0
   47.2785   11.5071   19.3882 H   0  0  0  0  0  0  0  0  0  0  0  0
   49.5589   10.0618   22.7502 H   0  0  0  0  0  0  0  0  0  0  0  0
   55.6473    3.1999   20.0695 H   0  0  0  0  0  0  0  0  0  0  0  0
   47.9353   13.8149   19.9558 H   0  0  0  0  0  0  0  0  0  0  0  0
   50.2155   12.3348   23.2949 H   0  0  0  0  0  0  0  0  0  0  0  0
   50.1104    9.8015   19.0425 H   0  0  0  0  0  0  0  0  0  0  0  0
   50.7148    8.1841   18.7411 H   0  0  0  0  0  0  0  0  0  0  0  0
   49.1306    8.6697   18.1074 H   0  0  0  0  0  0  0  0  0  0  0  0
   50.0872   15.9893   23.1668 H   0  0  0  0  0  0  0  0  0  0  0  0
   49.4903   14.5316   23.9740 H   0  0  0  0  0  0  0  0  0  0  0  0
   51.0715   14.5187   23.0945 H   0  0  0  0  0  0  0  0  0  0  0  0
   49.7644    8.2210   19.9349 H   0  0  0  0  0  0  0  0  0  0  0  0
   50.3558    6.8602   19.5730 H   0  0  0  0  0  0  0  0  0  0  0  0
  2 10  1  0
  3 12  1  0
  4 19  1  0
  4 26  1  0
  5 22  2  0
  6  9  1  0
  6 22  1  0
  7 15  1  0
  7 17  1  0
  8 11  2  0
  8 12  1  0
  8 13  1  0
  9 10  2  0
  9 11  1  0
 10 14  1  0
 12 15  1  0
 13 14  2  0
 16 18  1  0
 16 20  2  0
 16 21  1  0
 17 18  1  0
 17 25  1  0
 19 23  2  0
 19 24  1  0
 20 23  1  0
 21 24  2  0
 27 31  1  0
 28 32  1  0
 29 31  2  0
 30 32  2  0
 31 33  1  0
 32 34  1  0
 33 34  2  0
 35 43  1  0
 36 45  1  0
 37 52  1  0
 37 59  1  0
 38 55  2  0
 39 42  1  0
 39 55  1  0
 40 48  1  0
 40 50  1  0
 41 44  2  0
 41 45  1  0
 41 46  1  0
 42 43  2  0
 42 44  1  0
 43 47  1  0
 45 48  1  0
 46 47  2  0
 49 51  1  0
 49 53  2  0
 49 54  1  0
 50 51  1  0
 50 58  1  0
 52 56  2  0
 52 57  1  0
 53 56  1  0
 54 57  2  0
  1 61  1  0
  1 62  1  0
  2 63  1  0
  3 64  1  0
  6 65  1  0
  7 66  1  0
 11 67  1  0
 12 68  1  6
 13 69  1  0
 14 70  1  0
 15 71  1  0
 15 72  1  0
 17 73  1  6
 18 74  1  0
 18 75  1  0
 20 76  1  0
 21 77  1  0
 22 78  1  0
 23 79  1  0
 24 80  1  0
 25 81  1  0
 25 82  1  0
 25 83  1  0
 26 84  1  0
 26 85  1  0
 26 86  1  0
 27 87  1  0
 28 88  1  0
 33 89  1  0
 34 90  1  0
 35 91  1  0
 36 92  1  0
 39 93  1  0
 40 94  1  0
 44 95  1  0
 45 96  1  1
 46 97  1  0
 47 98  1  0
 48 99  1  0
 48100  1  0
 50101  1  1
 51102  1  0
 51103  1  0
 53104  1  0
 54105  1  0
 55106  1  0
 56107  1  0
 57108  1  0
 58109  1  0
 58110  1  0
 58111  1  0
 59112  1  0
 59113  1  0
 59114  1  0
 60115  1  0
 60116  1  0
M  END
> <Uni-Dock RESULT> 
ENERGY=   -4.866  LOWER_BOUND=    4.232  UPPER_BOUND=    6.680
INTER + INTRA:          -4.866
INTER:                  -4.866
INTRA:                   0.000
UNBOUND:                 0.000

$$$$

     RDKit          3D

116115  0  0  0  0  0  0  0  0999 V2000
   48.7723   10.0788   18.2399 O   0  0  0  0  0  0  0  0  0  0  0  0
   49.2715    9.2804   23.3709 O   0  0  0  0  0  0  0  0  0  0  0  0
   46.6554    5.6287   18.9636 O   0  0  0  0  0  0  0  0  0  0  0  0
   49.1872   14.6177   14.6580 O   0  0  0  0  0  0  0  0  0  0  0  0
   46.8091   11.5803   19.7111 O   0  0  0  0  0  0  0  0  0  0  0  0
   47.8244   10.7228   21.6284 N   0  0  0  0  0  0  0  0  0  0  0  0
   49.7142    7.2153   17.3973 N   0  0  0  0  0  0  0  0  0  0  0  0
   47.9428    7.3988   19.9017 C   0  0  0  0  0  0  0  0  0  0  0  0
   48.0817    9.3773   21.3090 C   0  0  0  0  0  0  0  0  0  0  0  0
   48.8309    8.6417   22.2360 C   0  0  0  0  0  0  0  0  0  0  0  0
   47.6471    8.7511   20.1419 C   0  0  0  0  0  0  0  0  0  0  0  0
   47.4755    6.7423   18.6153 C   0  0  1  0  0  0  0  0  0  0  0  0
   48.6732    6.6783   20.8620 C   0  0  0  0  0  0  0  0  0  0  0  0
   49.1255    7.2984   22.0259 C   0  0  0  0  0  0  0  0  0  0  0  0
   48.6395    6.2624   17.7013 C   0  0  0  0  0  0  0  0  0  0  0  0
   50.0505   10.8106   16.1560 C   0  0  0  0  0  0  0  0  0  0  0  0
   49.2791    8.4053   16.6386 C   0  0  1  0  0  0  0  0  0  0  0  0
   50.4291    9.4436   16.6789 C   0  0  0  0  0  0  0  0  0  0  0  0
   49.4008   13.3851   15.2119 C   0  0  0  0  0  0  0  0  0  0  0  0
   49.0841   11.5872   16.8095 C   0  0  0  0  0  0  0  0  0  0  0  0
   50.6888   11.3334   15.0274 C   0  0  0  0  0  0  0  0  0  0  0  0
   47.2039   11.6722   20.8622 C   0  0  0  0  0  0  0  0  0  0  0  0
   48.7561   12.8623   16.3341 C   0  0  0  0  0  0  0  0  0  0  0  0
   50.3655   12.6106   14.5651 C   0  0  0  0  0  0  0  0  0  0  0  0
   48.9338    8.0298   15.1914 C   0  0  0  0  0  0  0  0  0  0  0  0
   48.2826   15.4753   15.3322 C   0  0  0  0  0  0  0  0  0  0  0  0
   49.2985   11.2697   15.5703 O   0  0  0  0  0  0  0  0  0  0  0  0
   48.1647    8.2523   20.4129 O   0  0  0  0  0  0  0  0  0  0  0  0
   50.1488   11.8420   17.5639 O   0  0  0  0  0  0  0  0  0  0  0  0
   47.3475    7.6589   18.4133 O   0  0  0  0  0  0  0  0  0  0  0  0
   49.4661   11.0966   16.8892 C   0  0  0  0  0  0  0  0  0  0  0  0
   48.0150    8.4145   19.0916 C   0  0  0  0  0  0  0  0  0  0  0  0
   48.7231    9.9215   17.3433 C   0  0  0  0  0  0  0  0  0  0  0  0
   48.7633    9.5865   18.6386 C   0  0  0  0  0  0  0  0  0  0  0  0
   47.1629    5.5543   24.2250 O   0  0  0  0  0  0  0  0  0  0  0  0
   48.5342    6.2574   18.0295 O   0  0  0  0  0  0  0  0  0  0  0  0
   51.1395   14.8132   13.2377 O   0  0  0  0  0  0  0  0  0  0  0  0
   47.8538   10.3199   22.9200 O   0  0  0  0  0  0  0  0  0  0  0  0
   47.6106    8.1854   23.8310 N   0  0  0  0  0  0  0  0  0  0  0  0
   47.8237    8.7039   17.0247 N   0  0  0  0  0  0  0  0  0  0  0  0
   48.1931    6.8196   20.3804 C   0  0  0  0  0  0  0  0  0  0  0  0
   47.7495    7.3175   22.7299 C   0  0  0  0  0  0  0  0  0  0  0  0
   47.5213    5.9564   22.9615 C   0  0  0  0  0  0  0  0  0  0  0  0
   48.0993    7.7367   21.4470 C   0  0  0  0  0  0  0  0  0  0  0  0
   48.5711    7.3196   18.9951 C   0  0  2  0  0  0  0  0  0  0  0  0
   47.9632    5.4591   20.6467 C   0  0  0  0  0  0  0  0  0  0  0  0
   47.6360    5.0261   21.9341 C   0  0  0  0  0  0  0  0  0  0  0  0
   47.6462    8.4672   18.4789 C   0  0  0  0  0  0  0  0  0  0  0  0
   49.2387   11.3861   14.6940 C   0  0  0  0  0  0  0  0  0  0  0  0
   48.6580    9.8850   16.7068 C   0  0  2  0  0  0  0  0  0  0  0  0
   48.5717   10.1225   15.1779 C   0  0  0  0  0  0  0  0  0  0  0  0
   50.4671   13.7470   13.7697 C   0  0  0  0  0  0  0  0  0  0  0  0
   50.3377   11.3248   13.8326 C   0  0  0  0  0  0  0  0  0  0  0  0
   48.7590   12.6424   15.0849 C   0  0  0  0  0  0  0  0  0  0  0  0
   47.6830    9.5512   23.8504 C   0  0  0  0  0  0  0  0  0  0  0  0
   50.9537   12.4962   13.3862 C   0  0  0  0  0  0  0  0  0  0  0  0
   49.3714   13.8145   14.6305 C   0  0  0  0  0  0  0  0  0  0  0  0
   50.1084    9.6920   17.1571 C   0  0  0  0  0  0  0  0  0  0  0  0
   50.5744   16.0993   13.4587 C   0  0  0  0  0  0  0  0  0  0  0  0
   48.7818   10.1011   18.2064 O   0  0  0  0  0  0  0  0  0  0  0  0
   48.6924    9.1496   18.5031 H   0  0  0  0  0  0  0  0  0  0  0  0
   49.0317   10.0371   17.3073 H   0  0  0  0  0  0  0  0  0  0  0  0
   49.9084    8.6998   23.8217 H   0  0  0  0  0  0  0  0  0  0  0  0
   46.4171    5.1761   18.1355 H   0  0  0  0  0  0  0  0  0  0  0  0
   48.1745   11.0022   22.5378 H   0  0  0  0  0  0  0  0  0  0  0  0
   50.1121    7.5272   18.2845 H   0  0  0  0  0  0  0  0  0  0  0  0
   47.0610    9.2958   19.4101 H   0  0  0  0  0  0  0  0  0  0  0  0
   46.8368    7.4327   18.0505 H   0  0  0  0  0  0  0  0  0  0  0  0
   48.8836    5.6250   20.6992 H   0  0  0  0  0  0  0  0  0  0  0  0
   49.6796    6.7233   22.7597 H   0  0  0  0  0  0  0  0  0  0  0  0
   48.2228    5.8563   16.7714 H   0  0  0  0  0  0  0  0  0  0  0  0
   49.1108    5.3945   18.1763 H   0  0  0  0  0  0  0  0  0  0  0  0
   48.3949    8.8474   17.1103 H   0  0  0  0  0  0  0  0  0  0  0  0
   50.7731    9.5792   17.7148 H   0  0  0  0  0  0  0  0  0  0  0  0
   51.2940    9.0557   16.1219 H   0  0  0  0  0  0  0  0  0  0  0  0
   48.5786   11.2145   17.7004 H   0  0  0  0  0  0  0  0  0  0  0  0
   51.4535   10.7631   14.5048 H   0  0  0  0  0  0  0  0  0  0  0  0
   47.1210   12.6202   21.4190 H   0  0  0  0  0  0  0  0  0  0  0  0
   47.9908   13.4139   16.8672 H   0  0  0  0  0  0  0  0  0  0  0  0
   50.8782   13.0047   13.6950 H   0  0  0  0  0  0  0  0  0  0  0  0
   49.7833    7.5518   14.6938 H   0  0  0  0  0  0  0  0  0  0  0  0
   48.0843    7.3400   15.1442 H   0  0  0  0  0  0  0  0  0  0  0  0
   48.6532    8.9133   14.6104 H   0  0  0  0  0  0  0  0  0  0  0  0
   48.2398   16.4177   14.7824 H   0  0  0  0  0  0  0  0  0  0  0  0
   48.6306   15.7028   16.3410 H   0  0  0  0  0  0  0  0  0  0  0  0
   47.2747   15.0537   15.3403 H   0  0  0  0  0  0  0  0  0  0  0  0
   49.8225   12.0724   15.3701 H   0  0  0  0  0  0  0  0  0  0  0  0
   47.6441    7.4476   20.6182 H   0  0  0  0  0  0  0  0  0  0  0  0
   48.1677    9.3567   16.6019 H   0  0  0  0  0  0  0  0  0  0  0  0
   49.3176   10.1506   19.3794 H   0  0  0  0  0  0  0  0  0  0  0  0
   46.8943    4.6237   24.1865 H   0  0  0  0  0  0  0  0  0  0  0  0
   48.4190    6.7237   17.1753 H   0  0  0  0  0  0  0  0  0  0  0  0
   47.3898    7.7098   24.6969 H   0  0  0  0  0  0  0  0  0  0  0  0
   46.8936    8.8742   16.6329 H   0  0  0  0  0  0  0  0  0  0  0  0
   48.3058    8.7842   21.2583 H   0  0  0  0  0  0  0  0  0  0  0  0
   49.6140    7.6525   19.0317 H   0  0  0  0  0  0  0  0  0  0  0  0
   48.0512    4.7245   19.8495 H   0  0  0  0  0  0  0  0  0  0  0  0
   47.4609    3.9674   22.1068 H   0  0  0  0  0  0  0  0  0  0  0  0
   46.6004    8.1487   18.6082 H   0  0  0  0  0  0  0  0  0  0  0  0
   47.7531    9.3889   19.0641 H   0  0  0  0  0  0  0  0  0  0  0  0
   48.2417   10.7622   17.2161 H   0  0  0  0  0  0  0  0  0  0  0  0
   47.5204   10.1803   14.8730 H   0  0  0  0  0  0  0  0  0  0  0  0
   48.9823    9.2567   14.6484 H   0  0  0  0  0  0  0  0  0  0  0  0
   50.7260   10.3641   13.5060 H   0  0  0  0  0  0  0  0  0  0  0  0
   47.8943   12.7276   15.7393 H   0  0  0  0  0  0  0  0  0  0  0  0
   47.5425    9.9334   24.8722 H   0  0  0  0  0  0  0  0  0  0  0  0
   51.8083   12.4349   12.7185 H   0  0  0  0  0  0  0  0  0  0  0  0
   48.9739   14.7629   14.9737 H   0  0  0  0  0  0  0  0  0  0  0  0
   50.7369   10.5236   16.8261 H   0  0  0  0  0  0  0  0  0  0  0  0
   50.1827    9.6602   18.2471 H   0  0  0  0  0  0  0  0  0  0  0  0
   50.5390    8.7712   16.7539 H   0  0  0  0  0  0  0  0  0  0  0  0
   51.1718   16.8205   12.8941 H   0  0  0  0  0  0  0  0  0  0  0  0
   49.5443   16.1519   13.0872 H   0  0  0  0  0  0  0  0  0  0  0  0
   50.6264   16.3771   14.5198 H   0  0  0  0  0  0  0  0  0  0  0  0
   49.0380    9.9587   17.2827 H   0  0  0  0  0  0  0  0  0  0  0  0
   48.6766    9.2056   18.5612 H   0  0  0  0  0  0  0  0  0  0  0  0
  2 10  1  0
  3 12  1  0
  4 19  1  0
  4 26  1  0
  5 22  2  0
  6  9  1  0
  6 22  1  0
  7 15  1  0
  7 17  1  0
  8 11  2  0
  8 12  1  0
  8 13  1  0
  9 10  2  0
  9 11  1  0
 10 14  1  0
 12 15  1  0
 13 14  2  0
 16 18  1  0
 16 20  2  0
 16 21  1  0
 17 18  1  0
 17 25  1  0
 19 23  2  0
 19 24  1  0
 20 23  1  0
 21 24  2  0
 27 31  1  0
 28 32  1  0
 29 31  2  0
 30 32  2  0
 31 33  1  0
 32 34  1  0
 33 34  2  0
 35 43  1  0
 36 45  1  0
 37 52  1  0
 37 59  1  0
 38 55  2  0
 39 42  1  0
 39 55  1  0
 40 48  1  0
 40 50  1  0
 41 44  2  0
 41 45  1  0
 41 46  1  0
 42 43  2  0
 42 44  1  0
 43 47  1  0
 45 48  1  0
 46 47  2  0
 49 51  1  0
 49 53  2  0
 49 54  1  0
 50 51  1  0
 50 58  1  0
 52 56  2  0
 52 57  1  0
 53 56  1  0
 54 57  2  0
  1 61  1  0
  1 62  1  0
  2 63  1  0
  3 64  1  0
  6 65  1  0
  7 66  1  0
 11 67  1  0
 12 68  1  6
 13 69  1  0
 14 70  1  0
 15 71  1  0
 15 72  1  0
 17 73  1  6
 18 74  1  0
 18 75  1  0
 20 76  1  0
 21 77  1  0
 22 78  1  0
 23 79  1  0
 24 80  1  0
 25 81  1  0
 25 82  1  0
 25 83  1  0
 26 84  1  0
 26 85  1  0
 26 86  1  0
 27 87  1  0
 28 88  1  0
 33 89  1  0
 34 90  1  0
 35 91  1  0
 36 92  1  0
 39 93  1  0
 40 94  1  0
 44 95  1  0
 45 96  1  1
 46 97  1  0
 47 98  1  0
 48 99  1  0
 48100  1  0
 50101  1  1
 51102  1  0
 51103  1  0
 53104  1  0
 54105  1  0
 55106  1  0
 56107  1  0
 57108  1  0
 58109  1  0
 58110  1  0
 58111  1  0
 59112  1  0
 59113  1  0
 59114  1  0
 60115  1  0
 60116  1  0
M  END
> <Uni-Dock RESULT> 
ENERGY=   -4.831  LOWER_BOUND=    3.293  UPPER_BOUND=    4.772
INTER + INTRA:          -4.831
INTER:                  -4.831
INTRA:                   0.000
UNBOUND:                 0.000

$$$$

     RDKit          3D

116115  0  0  0  0  0  0  0  0999 V2000
   47.7769    9.2981   12.0629 O   0  0  0  0  0  0  0  0  0  0  0  0
   49.1408   12.7758    8.4215 O   0  0  0  0  0  0  0  0  0  0  0  0
   50.3413   12.7335   14.5989 O   0  0  0  0  0  0  0  0  0  0  0  0
   43.9559    4.9582   12.4725 O   0  0  0  0  0  0  0  0  0  0  0  0
   45.5659   11.0136   11.3986 O   0  0  0  0  0  0  0  0  0  0  0  0
   46.9987   11.9868    9.8358 N   0  0  0  0  0  0  0  0  0  0  0  0
   50.5991    9.1497   13.4084 N   0  0  0  0  0  0  0  0  0  0  0  0
   49.6707   11.9222   12.4628 C   0  0  0  0  0  0  0  0  0  0  0  0
   48.2282   12.0871   10.5118 C   0  0  0  0  0  0  0  0  0  0  0  0
   49.3300   12.5085    9.7568 C   0  0  0  0  0  0  0  0  0  0  0  0
   48.4076   11.7897   11.8617 C   0  0  0  0  0  0  0  0  0  0  0  0
   49.8472   11.5749   13.9299 C   0  0  1  0  0  0  0  0  0  0  0  0
   50.7523   12.3730   11.6871 C   0  0  0  0  0  0  0  0  0  0  0  0
   50.5873   12.6592   10.3326 C   0  0  0  0  0  0  0  0  0  0  0  0
   50.8152   10.3822   14.1764 C   0  0  0  0  0  0  0  0  0  0  0  0
   47.7091    6.7985   12.5719 C   0  0  0  0  0  0  0  0  0  0  0  0
   49.3099    8.4809   13.6765 C   0  0  1  0  0  0  0  0  0  0  0  0
   49.0936    7.4054   12.5816 C   0  0  0  0  0  0  0  0  0  0  0  0
   45.1401    5.6430   12.4901 C   0  0  0  0  0  0  0  0  0  0  0  0
   46.5839    7.5812   12.2799 C   0  0  0  0  0  0  0  0  0  0  0  0
   47.5378    5.4336   12.8217 C   0  0  0  0  0  0  0  0  0  0  0  0
   45.8049   11.5170   10.3127 C   0  0  0  0  0  0  0  0  0  0  0  0
   45.3074    7.0075   12.2483 C   0  0  0  0  0  0  0  0  0  0  0  0
   46.2633    4.8652   12.7772 C   0  0  0  0  0  0  0  0  0  0  0  0
   49.3085    7.8452   15.0732 C   0  0  0  0  0  0  0  0  0  0  0  0
   42.7997    5.6867   12.0973 C   0  0  0  0  0  0  0  0  0  0  0  0
   46.8628    6.7113   13.2007 O   0  0  0  0  0  0  0  0  0  0  0  0
   49.1305   11.8249   11.6039 O   0  0  0  0  0  0  0  0  0  0  0  0
   47.0275    7.3291   11.0522 O   0  0  0  0  0  0  0  0  0  0  0  0
   49.0010   11.1896   13.7482 O   0  0  0  0  0  0  0  0  0  0  0  0
   47.2086    7.5688   12.2297 C   0  0  0  0  0  0  0  0  0  0  0  0
   48.8034   10.9584   12.5717 C   0  0  0  0  0  0  0  0  0  0  0  0
   47.8053    8.7726   12.8073 C   0  0  0  0  0  0  0  0  0  0  0  0
   48.2123    9.7529   11.9918 C   0  0  0  0  0  0  0  0  0  0  0  0
   51.1217   16.0354   10.5451 O   0  0  0  0  0  0  0  0  0  0  0  0
   50.7881   10.6753   13.9971 O   0  0  0  0  0  0  0  0  0  0  0  0
   44.7613    2.6761   12.3714 O   0  0  0  0  0  0  0  0  0  0  0  0
   47.4556   12.9958    9.0581 O   0  0  0  0  0  0  0  0  0  0  0  0
   49.1616   14.5384    9.4520 N   0  0  0  0  0  0  0  0  0  0  0  0
   48.2861    9.5628   14.0473 N   0  0  0  0  0  0  0  0  0  0  0  0
   50.3285   12.2982   12.2324 C   0  0  0  0  0  0  0  0  0  0  0  0
   49.8652   14.0083   10.5514 C   0  0  0  0  0  0  0  0  0  0  0  0
   50.8835   14.7995   11.0949 C   0  0  0  0  0  0  0  0  0  0  0  0
   49.6064   12.7583   11.1125 C   0  0  0  0  0  0  0  0  0  0  0  0
   50.0101   10.9314   12.8177 C   0  0  2  0  0  0  0  0  0  0  0  0
   51.3483   13.1140   12.7514 C   0  0  0  0  0  0  0  0  0  0  0  0
   51.6315   14.3575   12.1809 C   0  0  0  0  0  0  0  0  0  0  0  0
   48.5039   10.7549   13.1907 C   0  0  0  0  0  0  0  0  0  0  0  0
   46.6605    6.1084   13.8176 C   0  0  0  0  0  0  0  0  0  0  0  0
   47.7465    8.3918   13.3194 C   0  0  2  0  0  0  0  0  0  0  0  0
   47.3751    7.3161   14.3711 C   0  0  0  0  0  0  0  0  0  0  0  0
   45.3137    3.8494   12.8075 C   0  0  0  0  0  0  0  0  0  0  0  0
   47.2506    4.8428   13.8797 C   0  0  0  0  0  0  0  0  0  0  0  0
   45.3872    6.2302   13.2476 C   0  0  0  0  0  0  0  0  0  0  0  0
   48.0737   14.0161    8.8079 C   0  0  0  0  0  0  0  0  0  0  0  0
   46.5869    3.7262   13.3661 C   0  0  0  0  0  0  0  0  0  0  0  0
   44.7203    5.1102   12.7414 C   0  0  0  0  0  0  0  0  0  0  0  0
   48.7497    7.8472   12.2993 C   0  0  0  0  0  0  0  0  0  0  0  0
   43.4019    2.7254   11.9573 C   0  0  0  0  0  0  0  0  0  0  0  0
   47.7610    9.2612   12.0725 O   0  0  0  0  0  0  0  0  0  0  0  0
   48.5230    9.8619   12.3172 H   0  0  0  0  0  0  0  0  0  0  0  0
   47.8782    8.5105   12.6180 H   0  0  0  0  0  0  0  0  0  0  0  0
   50.0125   12.8873    8.0048 H   0  0  0  0  0  0  0  0  0  0  0  0
   50.5145   12.4808   15.5227 H   0  0  0  0  0  0  0  0  0  0  0  0
   47.0377   12.2861    8.8680 H   0  0  0  0  0  0  0  0  0  0  0  0
   50.6359    9.3917   12.4171 H   0  0  0  0  0  0  0  0  0  0  0  0
   47.5706   11.4666   12.4706 H   0  0  0  0  0  0  0  0  0  0  0  0
   48.8742   11.3472   14.3827 H   0  0  0  0  0  0  0  0  0  0  0  0
   51.7269   12.5055   12.1483 H   0  0  0  0  0  0  0  0  0  0  0  0
   51.4320   13.0150    9.7527 H   0  0  0  0  0  0  0  0  0  0  0  0
   50.8423   10.1567   15.2496 H   0  0  0  0  0  0  0  0  0  0  0  0
   51.8344   10.7185   13.9552 H   0  0  0  0  0  0  0  0  0  0  0  0
   48.4920    9.2069   13.6170 H   0  0  0  0  0  0  0  0  0  0  0  0
   49.2587    7.8465   11.5876 H   0  0  0  0  0  0  0  0  0  0  0  0
   49.8490    6.6138   12.6898 H   0  0  0  0  0  0  0  0  0  0  0  0
   46.6852    8.6452   12.0662 H   0  0  0  0  0  0  0  0  0  0  0  0
   48.3911    4.7947   13.0376 H   0  0  0  0  0  0  0  0  0  0  0  0
   45.0210   11.6106    9.5433 H   0  0  0  0  0  0  0  0  0  0  0  0
   44.4700    7.6607   12.0332 H   0  0  0  0  0  0  0  0  0  0  0  0
   46.1500    3.8031   12.9626 H   0  0  0  0  0  0  0  0  0  0  0  0
   50.1347    7.1364   15.1856 H   0  0  0  0  0  0  0  0  0  0  0  0
   49.4029    8.6001   15.8612 H   0  0  0  0  0  0  0  0  0  0  0  0
   48.3735    7.3097   15.2623 H   0  0  0  0  0  0  0  0  0  0  0  0
   41.9508    5.0002   12.1109 H   0  0  0  0  0  0  0  0  0  0  0  0
   42.8886    6.0739   11.0811 H   0  0  0  0  0  0  0  0  0  0  0  0
   42.5889    6.4839   12.8141 H   0  0  0  0  0  0  0  0  0  0  0  0
   46.4735    5.9537   12.7176 H   0  0  0  0  0  0  0  0  0  0  0  0
   49.5237   12.5846   12.0823 H   0  0  0  0  0  0  0  0  0  0  0  0
   47.9022    8.8211   13.8869 H   0  0  0  0  0  0  0  0  0  0  0  0
   48.1152    9.7050   10.9136 H   0  0  0  0  0  0  0  0  0  0  0  0
   51.7389   16.5133   11.1198 H   0  0  0  0  0  0  0  0  0  0  0  0
   50.2674    9.9972   14.4762 H   0  0  0  0  0  0  0  0  0  0  0  0
   49.5041   15.4414    9.1484 H   0  0  0  0  0  0  0  0  0  0  0  0
   47.5957    9.8250   14.7560 H   0  0  0  0  0  0  0  0  0  0  0  0
   48.8391   12.1226   10.6852 H   0  0  0  0  0  0  0  0  0  0  0  0
   50.3174   10.1743   12.0881 H   0  0  0  0  0  0  0  0  0  0  0  0
   51.9386   12.7762   13.6000 H   0  0  0  0  0  0  0  0  0  0  0  0
   52.4242   14.9664   12.6078 H   0  0  0  0  0  0  0  0  0  0  0  0
   48.1969   11.6221   13.7953 H   0  0  0  0  0  0  0  0  0  0  0  0
   47.8496   10.7567   12.3103 H   0  0  0  0  0  0  0  0  0  0  0  0
   46.8318    8.6903   12.7936 H   0  0  0  0  0  0  0  0  0  0  0  0
   46.7176    7.7550   15.1306 H   0  0  0  0  0  0  0  0  0  0  0  0
   48.2755    7.0034   14.9097 H   0  0  0  0  0  0  0  0  0  0  0  0
   48.2339    4.7170   14.3242 H   0  0  0  0  0  0  0  0  0  0  0  0
   44.8904    7.1967   13.1996 H   0  0  0  0  0  0  0  0  0  0  0  0
   47.7643   14.6671    7.9771 H   0  0  0  0  0  0  0  0  0  0  0  0
   47.0573    2.7485   13.4187 H   0  0  0  0  0  0  0  0  0  0  0  0
   43.7434    5.2575   12.2952 H   0  0  0  0  0  0  0  0  0  0  0  0
   48.3836    6.9232   11.8425 H   0  0  0  0  0  0  0  0  0  0  0  0
   48.9077    8.5567   11.4831 H   0  0  0  0  0  0  0  0  0  0  0  0
   49.7172    7.6279   12.7594 H   0  0  0  0  0  0  0  0  0  0  0  0
   43.0904    1.7012   11.7343 H   0  0  0  0  0  0  0  0  0  0  0  0
   42.7550    3.1072   12.7558 H   0  0  0  0  0  0  0  0  0  0  0  0
   43.2891    3.3184   11.0399 H   0  0  0  0  0  0  0  0  0  0  0  0
   47.9445    8.5178   12.6664 H   0  0  0  0  0  0  0  0  0  0  0  0
   48.4728    9.8916   12.2592 H   0  0  0  0  0  0  0  0  0  0  0  0
  2 10  1  0
  3 12  1  0
  4 19  1  0
  4 26  1  0
  5 22  2  0
  6  9  1  0
  6 22  1  0
  7 15  1  0
  7 17  1  0
  8 11  2  0
  8 12  1  0
  8 13  1  0
  9 10  2  0
  9 11  1  0
 10 14  1  0
 12 15  1  0
 13 14  2  0
 16 18  1  0
 16 20  2  0
 16 21  1  0
 17 18  1  0
 17 25  1  0
 19 23  2  0
 19 24  1  0
 20 23  1  0
 21 24  2  0
 27 31  1  0
 28 32  1  0
 29 31  2  0
 30 32  2  0
 31 33  1  0
 32 34  1  0
 33 34  2  0
 35 43  1  0
 36 45  1  0
 37 52  1  0
 37 59  1  0
 38 55  2  0
 39 42  1  0
 39 55  1  0
 40 48  1  0
 40 50  1  0
 41 44  2  0
 41 45  1  0
 41 46  1  0
 42 43  2  0
 42 44  1  0
 43 47  1  0
 45 48  1  0
 46 47  2  0
 49 51  1  0
 49 53  2  0
 49 54  1  0
 50 51  1  0
 50 58  1  0
 52 56  2  0
 52 57  1  0
 53 56  1  0
 54 57  2  0
  1 61  1  0
  1 62  1  0
  2 63  1  0
  3 64  1  0
  6 65  1  0
  7 66  1  0
 11 67  1  0
 12 68  1  6
 13 69  1  0
 14 70  1  0
 15 71  1  0
 15 72  1  0
 17 73  1  6
 18 74  1  0
 18 75  1  0
 20 76  1  0
 21 77  1  0
 22 78  1  0
 23 79  1  0
 24 80  1  0
 25 81  1  0
 25 82  1  0
 25 83  1  0
 26 84  1  0
 26 85  1  0
 26 86  1  0
 27 87  1  0
 28 88  1  0
 33 89  1  0
 34 90  1  0
 35 91  1  0
 36 92  1  0
 39 93  1  0
 40 94  1  0
 44 95  1  0
 45 96  1  1
 46 97  1  0
 47 98  1  0
 48 99  1  0
 48100  1  0
 50101  1  1
 51102  1  0
 51103  1  0
 53104  1  0
 54105  1  0
 55106  1  0
 56107  1  0
 57108  1  0
 58109  1  0
 58110  1  0
 58111  1  0
 59112  1  0
 59113  1  0
 59114  1  0
 60115  1  0
 60116  1  0
M  END
> <Uni-Dock RESULT> 
ENERGY=   -4.824  LOWER_BOUND=    4.289  UPPER_BOUND=    8.130
INTER + INTRA:          -4.824
INTER:                  -4.824
INTRA:                   0.000
UNBOUND:                 0.000

$$$$

     RDKit          3D

116115  0  0  0  0  0  0  0  0999 V2000
   52.9897    9.3610    8.3082 O   0  0  0  0  0  0  0  0  0  0  0  0
   48.7904   12.3409    9.1454 O   0  0  0  0  0  0  0  0  0  0  0  0
   53.2811   12.8508    4.7662 O   0  0  0  0  0  0  0  0  0  0  0  0
   55.9403    5.3652   11.2965 O   0  0  0  0  0  0  0  0  0  0  0  0
   53.4211   11.1498   10.5188 O   0  0  0  0  0  0  0  0  0  0  0  0
   51.2247   11.8540   10.1695 N   0  0  0  0  0  0  0  0  0  0  0  0
   52.5983    9.1543    5.2096 N   0  0  0  0  0  0  0  0  0  0  0  0
   51.9695   11.8730    6.4967 C   0  0  0  0  0  0  0  0  0  0  0  0
   51.1083   11.9369    8.7701 C   0  0  0  0  0  0  0  0  0  0  0  0
   49.8313   12.1999    8.2584 C   0  0  0  0  0  0  0  0  0  0  0  0
   52.1704   11.7682    7.8833 C   0  0  0  0  0  0  0  0  0  0  0  0
   53.1369   11.6670    5.5485 C   0  0  1  0  0  0  0  0  0  0  0  0
   50.6827   12.1644    6.0130 C   0  0  0  0  0  0  0  0  0  0  0  0
   49.6103   12.3205    6.8902 C   0  0  0  0  0  0  0  0  0  0  0  0
   52.9662   10.4411    4.6060 C   0  0  0  0  0  0  0  0  0  0  0  0
   53.7609    6.9380    8.0934 C   0  0  0  0  0  0  0  0  0  0  0  0
   53.6026    8.6087    6.1449 C   0  0  1  0  0  0  0  0  0  0  0  0
   52.9435    7.4440    6.9267 C   0  0  0  0  0  0  0  0  0  0  0  0
   55.2282    5.9634   10.2931 C   0  0  0  0  0  0  0  0  0  0  0  0
   54.0301    7.7635    9.1935 C   0  0  0  0  0  0  0  0  0  0  0  0
   54.2314    5.6215    8.1040 C   0  0  0  0  0  0  0  0  0  0  0  0
   52.3262   11.5207   10.9102 C   0  0  0  0  0  0  0  0  0  0  0  0
   54.7666    7.2806   10.2815 C   0  0  0  0  0  0  0  0  0  0  0  0
   54.9555    5.1424    9.1974 C   0  0  0  0  0  0  0  0  0  0  0  0
   54.8438    8.1220    5.3849 C   0  0  0  0  0  0  0  0  0  0  0  0
   56.1638    6.1305   12.4681 C   0  0  0  0  0  0  0  0  0  0  0  0
   54.7529    6.9756    8.4592 O   0  0  0  0  0  0  0  0  0  0  0  0
   51.5601   11.7258    7.4185 O   0  0  0  0  0  0  0  0  0  0  0  0
   52.8005    7.3558    9.4930 O   0  0  0  0  0  0  0  0  0  0  0  0
   53.4921   11.3254    6.3576 O   0  0  0  0  0  0  0  0  0  0  0  0
   53.6516    7.7022    8.6976 C   0  0  0  0  0  0  0  0  0  0  0  0
   52.6499   10.9887    7.1662 C   0  0  0  0  0  0  0  0  0  0  0  0
   53.6586    8.9143    7.8792 C   0  0  0  0  0  0  0  0  0  0  0  0
   52.6381    9.7743    7.9812 C   0  0  0  0  0  0  0  0  0  0  0  0
   49.0769   15.6548    6.3179 O   0  0  0  0  0  0  0  0  0  0  0  0
   52.7952   10.7153    4.7259 O   0  0  0  0  0  0  0  0  0  0  0  0
   55.7043    3.0339   10.6828 O   0  0  0  0  0  0  0  0  0  0  0  0
   50.2049   12.7430   10.2089 O   0  0  0  0  0  0  0  0  0  0  0  0
   49.4163   14.1944    8.5607 N   0  0  0  0  0  0  0  0  0  0  0  0
   54.3306    9.7922    6.7972 N   0  0  0  0  0  0  0  0  0  0  0  0
   51.3748   12.1761    6.0704 C   0  0  0  0  0  0  0  0  0  0  0  0
   50.0152   13.7323    7.3722 C   0  0  0  0  0  0  0  0  0  0  0  0
   49.8170   14.5018    6.2204 C   0  0  0  0  0  0  0  0  0  0  0  0
   50.7776   12.5680    7.2858 C   0  0  0  0  0  0  0  0  0  0  0  0
   52.2041   10.9026    6.0210 C   0  0  2  0  0  0  0  0  0  0  0  0
   51.1524   12.9674    4.9307 C   0  0  0  0  0  0  0  0  0  0  0  0
   50.3698   14.1226    5.0018 C   0  0  0  0  0  0  0  0  0  0  0  0
   53.3520   10.8715    7.0795 C   0  0  0  0  0  0  0  0  0  0  0  0
   55.4504    6.4551    8.2933 C   0  0  0  0  0  0  0  0  0  0  0  0
   54.1636    8.5933    7.6498 C   0  0  2  0  0  0  0  0  0  0  0  0
   55.3731    7.6603    7.3893 C   0  0  0  0  0  0  0  0  0  0  0  0
   55.6215    4.2042    9.9789 C   0  0  0  0  0  0  0  0  0  0  0  0
   55.3402    5.1645    7.7683 C   0  0  0  0  0  0  0  0  0  0  0  0
   55.6510    6.6067    9.6710 C   0  0  0  0  0  0  0  0  0  0  0  0
   49.5351   13.6862    9.8251 C   0  0  0  0  0  0  0  0  0  0  0  0
   55.4118    4.0502    8.6076 C   0  0  0  0  0  0  0  0  0  0  0  0
   55.7309    5.4900   10.5089 C   0  0  0  0  0  0  0  0  0  0  0  0
   52.8401    7.8774    7.3679 C   0  0  0  0  0  0  0  0  0  0  0  0
   56.0902    3.1356   12.0477 C   0  0  0  0  0  0  0  0  0  0  0  0
   53.0108    9.3264    8.3164 O   0  0  0  0  0  0  0  0  0  0  0  0
   52.7267    9.8942    7.5428 H   0  0  0  0  0  0  0  0  0  0  0  0
   53.4944    8.6296    7.9222 H   0  0  0  0  0  0  0  0  0  0  0  0
   47.9580   12.3475    8.6425 H   0  0  0  0  0  0  0  0  0  0  0  0
   53.9869   12.6831    4.1173 H   0  0  0  0  0  0  0  0  0  0  0  0
   50.3616   12.0485   10.6645 H   0  0  0  0  0  0  0  0  0  0  0  0
   51.7240    9.2897    5.7195 H   0  0  0  0  0  0  0  0  0  0  0  0
   53.1702   11.5690    8.2528 H   0  0  0  0  0  0  0  0  0  0  0  0
   54.0687   11.5560    6.1168 H   0  0  0  0  0  0  0  0  0  0  0  0
   50.5218   12.2750    4.9444 H   0  0  0  0  0  0  0  0  0  0  0  0
   48.6264   12.5545    6.4984 H   0  0  0  0  0  0  0  0  0  0  0  0
   53.8718   10.3259    3.9978 H   0  0  0  0  0  0  0  0  0  0  0  0
   52.1883   10.6805    3.8721 H   0  0  0  0  0  0  0  0  0  0  0  0
   53.9057    9.3804    6.8606 H   0  0  0  0  0  0  0  0  0  0  0  0
   51.9728    7.7678    7.3302 H   0  0  0  0  0  0  0  0  0  0  0  0
   52.7230    6.6168    6.2369 H   0  0  0  0  0  0  0  0  0  0  0  0
   53.6650    8.7901    9.2226 H   0  0  0  0  0  0  0  0  0  0  0  0
   54.0284    4.9499    7.2729 H   0  0  0  0  0  0  0  0  0  0  0  0
   52.0994   11.5893   11.9869 H   0  0  0  0  0  0  0  0  0  0  0  0
   54.9599    7.9653   11.0988 H   0  0  0  0  0  0  0  0  0  0  0  0
   55.3033    4.1156    9.1938 H   0  0  0  0  0  0  0  0  0  0  0  0
   54.5780    7.3722    4.6332 H   0  0  0  0  0  0  0  0  0  0  0  0
   55.3537    8.9454    4.8735 H   0  0  0  0  0  0  0  0  0  0  0  0
   55.5741    7.6756    6.0662 H   0  0  0  0  0  0  0  0  0  0  0  0
   56.7204    5.5103   13.1736 H   0  0  0  0  0  0  0  0  0  0  0  0
   55.2225    6.4038   12.9476 H   0  0  0  0  0  0  0  0  0  0  0  0
   56.7745    7.0101   12.2512 H   0  0  0  0  0  0  0  0  0  0  0  0
   54.6565    6.2015    9.0511 H   0  0  0  0  0  0  0  0  0  0  0  0
   51.6503   12.5013    6.8258 H   0  0  0  0  0  0  0  0  0  0  0  0
   54.4976    9.0667    7.2083 H   0  0  0  0  0  0  0  0  0  0  0  0
   51.8002    9.6227    8.6513 H   0  0  0  0  0  0  0  0  0  0  0  0
   49.1608   16.1449    5.4858 H   0  0  0  0  0  0  0  0  0  0  0  0
   53.5600   10.1284    4.9021 H   0  0  0  0  0  0  0  0  0  0  0  0
   48.8659   15.0350    8.4372 H   0  0  0  0  0  0  0  0  0  0  0  0
   55.2611   10.1738    6.9878 H   0  0  0  0  0  0  0  0  0  0  0  0
   50.9171   11.9471    8.1635 H   0  0  0  0  0  0  0  0  0  0  0  0
   51.5256   10.0547    6.1640 H   0  0  0  0  0  0  0  0  0  0  0  0
   51.5803   12.6783    3.9735 H   0  0  0  0  0  0  0  0  0  0  0  0
   50.2195   14.7151    4.1031 H   0  0  0  0  0  0  0  0  0  0  0  0
   53.9129   11.8158    7.0044 H   0  0  0  0  0  0  0  0  0  0  0  0
   52.9742   10.8286    8.1085 H   0  0  0  0  0  0  0  0  0  0  0  0
   54.1847    8.8995    8.7024 H   0  0  0  0  0  0  0  0  0  0  0  0
   56.3059    8.2201    7.5242 H   0  0  0  0  0  0  0  0  0  0  0  0
   55.3722    7.3423    6.3417 H   0  0  0  0  0  0  0  0  0  0  0  0
   55.1928    5.0164    6.7022 H   0  0  0  0  0  0  0  0  0  0  0  0
   55.7598    7.5956   10.1108 H   0  0  0  0  0  0  0  0  0  0  0  0
   48.9309   14.2683   10.5363 H   0  0  0  0  0  0  0  0  0  0  0  0
   55.3225    3.0525    8.1874 H   0  0  0  0  0  0  0  0  0  0  0  0
   55.8706    5.6588   11.5706 H   0  0  0  0  0  0  0  0  0  0  0  0
   52.7737    6.9394    7.9263 H   0  0  0  0  0  0  0  0  0  0  0  0
   51.9875    8.4863    7.6794 H   0  0  0  0  0  0  0  0  0  0  0  0
   52.7259    7.6393    6.3067 H   0  0  0  0  0  0  0  0  0  0  0  0
   56.2010    2.1182   12.4330 H   0  0  0  0  0  0  0  0  0  0  0  0
   57.0568    3.6420   12.1525 H   0  0  0  0  0  0  0  0  0  0  0  0
   55.3147    3.6374   12.6416 H   0  0  0  0  0  0  0  0  0  0  0  0
   53.4978    8.6371    7.8401 H   0  0  0  0  0  0  0  0  0  0  0  0
   52.7020    9.9213    7.6165 H   0  0  0  0  0  0  0  0  0  0  0  0
  2 10  1  0
  3 12  1  0
  4 19  1  0
  4 26  1  0
  5 22  2  0
  6  9  1  0
  6 22  1  0
  7 15  1  0
  7 17  1  0
  8 11  2  0
  8 12  1  0
  8 13  1  0
  9 10  2  0
  9 11  1  0
 10 14  1  0
 12 15  1  0
 13 14  2  0
 16 18  1  0
 16 20  2  0
 16 21  1  0
 17 18  1  0
 17 25  1  0
 19 23  2  0
 19 24  1  0
 20 23  1  0
 21 24  2  0
 27 31  1  0
 28 32  1  0
 29 31  2  0
 30 32  2  0
 31 33  1  0
 32 34  1  0
 33 34  2  0
 35 43  1  0
 36 45  1  0
 37 52  1  0
 37 59  1  0
 38 55  2  0
 39 42  1  0
 39 55  1  0
 40 48  1  0
 40 50  1  0
 41 44  2  0
 41 45  1  0
 41 46  1  0
 42 43  2  0
 42 44  1  0
 43 47  1  0
 45 48  1  0
 46 47  2  0
 49 51  1  0
 49 53  2  0
 49 54  1  0
 50 51  1  0
 50 58  1  0
 52 56  2  0
 52 57  1  0
 53 56  1  0
 54 57  2  0
  1 61  1  0
  1 62  1  0
  2 63  1  0
  3 64  1  0
  6 65  1  0
  7 66  1  0
 11 67  1  0
 12 68  1  6
 13 69  1  0
 14 70  1  0
 15 71  1  0
 15 72  1  0
 17 73  1  6
 18 74  1  0
 18 75  1  0
 20 76  1  0
 21 77  1  0
 22 78  1  0
 23 79  1  0
 24 80  1  0
 25 81  1  0
 25 82  1  0
 25 83  1  0
 26 84  1  0
 26 85  1  0
 26 86  1  0
 27 87  1  0
 28 88  1  0
 33 89  1  0
 34 90  1  0
 35 91  1  0
 36 92  1  0
 39 93  1  0
 40 94  1  0
 44 95  1  0
 45 96  1  1
 46 97  1  0
 47 98  1  0
 48 99  1  0
 48100  1  0
 50101  1  1
 51102  1  0
 51103  1  0
 53104  1  0
 54105  1  0
 55106  1  0
 56107  1  0
 57108  1  0
 58109  1  0
 58110  1  0
 58111  1  0
 59112  1  0
 59113  1  0
 59114  1  0
 60115  1  0
 60116  1  0
M  END
> <Uni-Dock RESULT> 
ENERGY=   -4.607  LOWER_BOUND=    7.544  UPPER_BOUND=   11.809
INTER + INTRA:          -4.607
INTER:                  -4.607
INTRA:                   0.000
UNBOUND:                 0.000

$$$$

     RDKit          3D

116115  0  0  0  0  0  0  0  0999 V2000
   45.3041   12.9833   11.8285 O   0  0  0  0  0  0  0  0  0  0  0  0
   45.0160    7.9788   13.2731 O   0  0  0  0  0  0  0  0  0  0  0  0
   49.9436   11.2895   11.1846 O   0  0  0  0  0  0  0  0  0  0  0  0
   41.5275   17.1489   10.4183 O   0  0  0  0  0  0  0  0  0  0  0  0
   44.1164   11.3805    9.7564 O   0  0  0  0  0  0  0  0  0  0  0  0
   44.3279    9.5927   11.2401 N   0  0  0  0  0  0  0  0  0  0  0  0
   47.9343   13.6011   13.4087 N   0  0  0  0  0  0  0  0  0  0  0  0
   47.7646   10.8544   12.0412 C   0  0  0  0  0  0  0  0  0  0  0  0
   45.5975    9.7736   11.8181 C   0  0  0  0  0  0  0  0  0  0  0  0
   45.9387    8.9154   12.8711 C   0  0  0  0  0  0  0  0  0  0  0  0
   46.5125   10.7442   11.4134 C   0  0  0  0  0  0  0  0  0  0  0  0
   48.7383   11.9308   11.5968 C   0  0  1  0  0  0  0  0  0  0  0  0
   48.0903    9.9622   13.0769 C   0  0  0  0  0  0  0  0  0  0  0  0
   47.1770    8.9972   13.4995 C   0  0  0  0  0  0  0  0  0  0  0  0
   49.0601   12.9761   12.7032 C   0  0  0  0  0  0  0  0  0  0  0  0
   44.6551   15.3492   12.5307 C   0  0  0  0  0  0  0  0  0  0  0  0
   47.0510   14.4150   12.5494 C   0  0  1  0  0  0  0  0  0  0  0  0
   45.7632   14.7305   13.3521 C   0  0  0  0  0  0  0  0  0  0  0  0
   42.5446   16.4867   11.0497 C   0  0  0  0  0  0  0  0  0  0  0  0
   44.0475   14.6340   11.4899 C   0  0  0  0  0  0  0  0  0  0  0  0
   44.1973   16.6372   12.8241 C   0  0  0  0  0  0  0  0  0  0  0  0
   43.7219   10.3471   10.2720 C   0  0  0  0  0  0  0  0  0  0  0  0
   43.0052   15.2038   10.7494 C   0  0  0  0  0  0  0  0  0  0  0  0
   43.1494   17.1954   12.0894 C   0  0  0  0  0  0  0  0  0  0  0  0
   47.7553   15.7084   12.1179 C   0  0  0  0  0  0  0  0  0  0  0  0
   40.8234   16.4359    9.4161 C   0  0  0  0  0  0  0  0  0  0  0  0
   44.5162   15.8381   11.6029 O   0  0  0  0  0  0  0  0  0  0  0  0
   46.8055   10.5120   12.0846 O   0  0  0  0  0  0  0  0  0  0  0  0
   43.3980   14.1346   12.5369 O   0  0  0  0  0  0  0  0  0  0  0  0
   47.9364   12.2248   11.1869 O   0  0  0  0  0  0  0  0  0  0  0  0
   44.4016   14.5634   12.0023 C   0  0  0  0  0  0  0  0  0  0  0  0
   46.9263   11.7909   11.7048 C   0  0  0  0  0  0  0  0  0  0  0  0
   45.6267   13.8256   11.6961 C   0  0  0  0  0  0  0  0  0  0  0  0
   45.7026   12.5284   12.0171 C   0  0  0  0  0  0  0  0  0  0  0  0
   48.9421    6.2558   12.4514 O   0  0  0  0  0  0  0  0  0  0  0  0
   49.0330   12.6362   12.6525 O   0  0  0  0  0  0  0  0  0  0  0  0
   41.0967   18.9252   12.0076 O   0  0  0  0  0  0  0  0  0  0  0  0
   44.4719    8.2880   11.5696 O   0  0  0  0  0  0  0  0  0  0  0  0
   46.3987    7.0726   12.0748 N   0  0  0  0  0  0  0  0  0  0  0  0
   47.0705   13.8044   11.1413 N   0  0  0  0  0  0  0  0  0  0  0  0
   48.1651   10.3589   12.5117 C   0  0  0  0  0  0  0  0  0  0  0  0
   47.3848    8.0551   12.2918 C   0  0  0  0  0  0  0  0  0  0  0  0
   48.6947    7.6062   12.4939 C   0  0  0  0  0  0  0  0  0  0  0  0
   47.1269    9.4251   12.3186 C   0  0  0  0  0  0  0  0  0  0  0  0
   47.8416   11.8446   12.5275 C   0  0  2  0  0  0  0  0  0  0  0  0
   49.4687    9.8760   12.7172 C   0  0  0  0  0  0  0  0  0  0  0  0
   49.7332    8.5042   12.7164 C   0  0  0  0  0  0  0  0  0  0  0  0
   47.0803   12.3245   11.2512 C   0  0  0  0  0  0  0  0  0  0  0  0
   44.5779   16.6950   11.3859 C   0  0  0  0  0  0  0  0  0  0  0  0
   45.7920   14.4278   11.5522 C   0  0  2  0  0  0  0  0  0  0  0  0
   45.8622   15.9307   11.1811 C   0  0  0  0  0  0  0  0  0  0  0  0
   42.1863   18.1392   11.7489 C   0  0  0  0  0  0  0  0  0  0  0  0
   44.5093   17.7324   12.3201 C   0  0  0  0  0  0  0  0  0  0  0  0
   43.4371   16.3908   10.6327 C   0  0  0  0  0  0  0  0  0  0  0  0
   45.0792    7.2486   11.7601 C   0  0  0  0  0  0  0  0  0  0  0  0
   43.3188   18.4384   12.5081 C   0  0  0  0  0  0  0  0  0  0  0  0
   42.2483   17.1039   10.8160 C   0  0  0  0  0  0  0  0  0  0  0  0
   45.5237   14.2377   13.0474 C   0  0  0  0  0  0  0  0  0  0  0  0
   39.9799   18.7741   11.1404 C   0  0  0  0  0  0  0  0  0  0  0  0
   45.2865   13.0206   11.8263 O   0  0  0  0  0  0  0  0  0  0  0  0
   46.1602   12.5889   12.0537 H   0  0  0  0  0  0  0  0  0  0  0  0
   45.4444   13.9341   11.9507 H   0  0  0  0  0  0  0  0  0  0  0  0
   45.3239    7.5834   14.1066 H   0  0  0  0  0  0  0  0  0  0  0  0
   50.5828   11.9902   10.9663 H   0  0  0  0  0  0  0  0  0  0  0  0
   43.8101    8.8109   11.6252 H   0  0  0  0  0  0  0  0  0  0  0  0
   47.3773   12.8543   13.8267 H   0  0  0  0  0  0  0  0  0  0  0  0
   46.2761   11.4179   10.5973 H   0  0  0  0  0  0  0  0  0  0  0  0
   48.3469   12.4514   10.7140 H   0  0  0  0  0  0  0  0  0  0  0  0
   49.0663   10.0206   13.5505 H   0  0  0  0  0  0  0  0  0  0  0  0
   47.4503    8.3114   14.2942 H   0  0  0  0  0  0  0  0  0  0  0  0
   49.7190   13.7485   12.2878 H   0  0  0  0  0  0  0  0  0  0  0  0
   49.6789   12.4877   13.4645 H   0  0  0  0  0  0  0  0  0  0  0  0
   46.7728   13.8479   11.6547 H   0  0  0  0  0  0  0  0  0  0  0  0
   45.3609   13.8055   13.7905 H   0  0  0  0  0  0  0  0  0  0  0  0
   46.0102   15.3843   14.2009 H   0  0  0  0  0  0  0  0  0  0  0  0
   44.3714   13.6223   11.2454 H   0  0  0  0  0  0  0  0  0  0  0  0
   44.6371   17.2144   13.6344 H   0  0  0  0  0  0  0  0  0  0  0  0
   42.7429    9.9154   10.0064 H   0  0  0  0  0  0  0  0  0  0  0  0
   42.5815   14.6139    9.9452 H   0  0  0  0  0  0  0  0  0  0  0  0
   42.7997   18.1910   12.3377 H   0  0  0  0  0  0  0  0  0  0  0  0
   48.0811   16.2894   12.9862 H   0  0  0  0  0  0  0  0  0  0  0  0
   48.6363   15.5025   11.5006 H   0  0  0  0  0  0  0  0  0  0  0  0
   47.0918   16.3379   11.5177 H   0  0  0  0  0  0  0  0  0  0  0  0
   40.0376   17.0878    9.0292 H   0  0  0  0  0  0  0  0  0  0  0  0
   40.3376   15.5501    9.8283 H   0  0  0  0  0  0  0  0  0  0  0  0
   41.4803   16.1820    8.5808 H   0  0  0  0  0  0  0  0  0  0  0  0
   43.6555   16.2383   11.8437 H   0  0  0  0  0  0  0  0  0  0  0  0
   47.6664   10.1072   11.8483 H   0  0  0  0  0  0  0  0  0  0  0  0
   46.4381   14.3673   11.2214 H   0  0  0  0  0  0  0  0  0  0  0  0
   44.8923   11.9869   12.4908 H   0  0  0  0  0  0  0  0  0  0  0  0
   49.9018    6.1192   12.4541 H   0  0  0  0  0  0  0  0  0  0  0  0
   48.7725   13.5076   12.2874 H   0  0  0  0  0  0  0  0  0  0  0  0
   46.7519    6.1253   12.1257 H   0  0  0  0  0  0  0  0  0  0  0  0
   47.2169   14.0328   10.1543 H   0  0  0  0  0  0  0  0  0  0  0  0
   46.1128    9.7866   12.1908 H   0  0  0  0  0  0  0  0  0  0  0  0
   47.2519   12.0499   13.4275 H   0  0  0  0  0  0  0  0  0  0  0  0
   50.2868   10.5709   12.8924 H   0  0  0  0  0  0  0  0  0  0  0  0
   50.7529    8.1626   12.8747 H   0  0  0  0  0  0  0  0  0  0  0  0
   47.6273   11.9592   10.3684 H   0  0  0  0  0  0  0  0  0  0  0  0
   46.0726   11.8975   11.1770 H   0  0  0  0  0  0  0  0  0  0  0  0
   44.9740   13.9700   10.9835 H   0  0  0  0  0  0  0  0  0  0  0  0
   46.1309   16.0367   10.1236 H   0  0  0  0  0  0  0  0  0  0  0  0
   46.6745   16.4085   11.7381 H   0  0  0  0  0  0  0  0  0  0  0  0
   45.3811   17.9960   12.9124 H   0  0  0  0  0  0  0  0  0  0  0  0
   43.4602   15.6021    9.8839 H   0  0  0  0  0  0  0  0  0  0  0  0
   44.5691    6.2785   11.6673 H   0  0  0  0  0  0  0  0  0  0  0  0
   43.2780   19.2411   13.2387 H   0  0  0  0  0  0  0  0  0  0  0  0
   41.3876   16.8208   10.2208 H   0  0  0  0  0  0  0  0  0  0  0  0
   44.6321   14.7887   13.3601 H   0  0  0  0  0  0  0  0  0  0  0  0
   45.3396   13.1869   13.2852 H   0  0  0  0  0  0  0  0  0  0  0  0
   46.3605   14.5891   13.6574 H   0  0  0  0  0  0  0  0  0  0  0  0
   39.2431   19.5318   11.4208 H   0  0  0  0  0  0  0  0  0  0  0  0
   40.2600   18.9482   10.0949 H   0  0  0  0  0  0  0  0  0  0  0  0
   39.5127   17.7882   11.2654 H   0  0  0  0  0  0  0  0  0  0  0  0
   45.5217   13.9489   11.9753 H   0  0  0  0  0  0  0  0  0  0  0  0
   46.1006   12.5368   12.0314 H   0  0  0  0  0  0  0  0  0  0  0  0
  2 10  1  0
  3 12  1  0
  4 19  1  0
  4 26  1  0
  5 22  2  0
  6  9  1  0
  6 22  1  0
  7 15  1  0
  7 17  1  0
  8 11  2  0
  8 12  1  0
  8 13  1  0
  9 10  2  0
  9 11  1  0
 10 14  1  0
 12 15  1  0
 13 14  2  0
 16 18  1  0
 16 20  2  0
 16 21  1  0
 17 18  1  0
 17 25  1  0
 19 23  2  0
 19 24  1  0
 20 23  1  0
 21 24  2  0
 27 31  1  0
 28 32  1  0
 29 31  2  0
 30 32  2  0
 31 33  1  0
 32 34  1  0
 33 34  2  0
 35 43  1  0
 36 45  1  0
 37 52  1  0
 37 59  1  0
 38 55  2  0
 39 42  1  0
 39 55  1  0
 40 48  1  0
 40 50  1  0
 41 44  2  0
 41 45  1  0
 41 46  1  0
 42 43  2  0
 42 44  1  0
 43 47  1  0
 45 48  1  0
 46 47  2  0
 49 51  1  0
 49 53  2  0
 49 54  1  0
 50 51  1  0
 50 58  1  0
 52 56  2  0
 52 57  1  0
 53 56  1  0
 54 57  2  0
  1 61  1  0
  1 62  1  0
  2 63  1  0
  3 64  1  0
  6 65  1  0
  7 66  1  0
 11 67  1  0
 12 68  1  6
 13 69  1  0
 14 70  1  0
 15 71  1  0
 15 72  1  0
 17 73  1  6
 18 74  1  0
 18 75  1  0
 20 76  1  0
 21 77  1  0
 22 78  1  0
 23 79  1  0
 24 80  1  0
 25 81  1  0
 25 82  1  0
 25 83  1  0
 26 84  1  0
 26 85  1  0
 26 86  1  0
 27 87  1  0
 28 88  1  0
 33 89  1  0
 34 90  1  0
 35 91  1  0
 36 92  1  0
 39 93  1  0
 40 94  1  0
 44 95  1  0
 45 96  1  1
 46 97  1  0
 47 98  1  0
 48 99  1  0
 48100  1  0
 50101  1  1
 51102  1  0
 51103  1  0
 53104  1  0
 54105  1  0
 55106  1  0
 56107  1  0
 57108  1  0
 58109  1  0
 58110  1  0
 58111  1  0
 59112  1  0
 59113  1  0
 59114  1  0
 60115  1  0
 60116  1  0
M  END
> <Uni-Dock RESULT> 
ENERGY=   -4.557  LOWER_BOUND=    5.376  UPPER_BOUND=    8.662
INTER + INTRA:          -4.557
INTER:                  -4.557
INTRA:                   0.000
UNBOUND:                 0.000

$$$$

     RDKit          3D

116115  0  0  0  0  0  0  0  0999 V2000
   46.0730   13.4195   12.4871 O   0  0  0  0  0  0  0  0  0  0  0  0
   46.5220    8.4096   13.8707 O   0  0  0  0  0  0  0  0  0  0  0  0
   50.1469   11.8779   10.0713 O   0  0  0  0  0  0  0  0  0  0  0  0
   41.9199   17.4577   12.7043 O   0  0  0  0  0  0  0  0  0  0  0  0
   44.2229   11.7767   11.0203 O   0  0  0  0  0  0  0  0  0  0  0  0
   45.0490    9.9982   12.2839 N   0  0  0  0  0  0  0  0  0  0  0  0
   49.0904   14.1246   12.9285 N   0  0  0  0  0  0  0  0  0  0  0  0
   48.4866   11.3725   11.7019 C   0  0  0  0  0  0  0  0  0  0  0  0
   46.4372   10.2211   12.3254 C   0  0  0  0  0  0  0  0  0  0  0  0
   47.1869    9.3755   13.1529 C   0  0  0  0  0  0  0  0  0  0  0  0
   47.0929   11.2207   11.6086 C   0  0  0  0  0  0  0  0  0  0  0  0
   49.1776   12.4798   10.9270 C   0  0  1  0  0  0  0  0  0  0  0  0
   49.2163   10.4925   12.5191 C   0  0  0  0  0  0  0  0  0  0  0  0
   48.5690    9.4985   13.2519 C   0  0  0  0  0  0  0  0  0  0  0  0
   49.8720   13.5361   11.8338 C   0  0  0  0  0  0  0  0  0  0  0  0
   45.6760   15.7635   13.4143 C   0  0  0  0  0  0  0  0  0  0  0  0
   47.9181   14.9083   12.4897 C   0  0  1  0  0  0  0  0  0  0  0  0
   47.0346   15.1822   13.7333 C   0  0  0  0  0  0  0  0  0  0  0  0
   43.1222   16.8299   12.8831 C   0  0  0  0  0  0  0  0  0  0  0  0
   44.7338   15.0278   12.6828 C   0  0  0  0  0  0  0  0  0  0  0  0
   45.3291   17.0361   13.8778 C   0  0  0  0  0  0  0  0  0  0  0  0
   44.0916   10.7313   11.6364 C   0  0  0  0  0  0  0  0  0  0  0  0
   43.4688   15.5625   12.4122 C   0  0  0  0  0  0  0  0  0  0  0  0
   44.0615   17.5589   13.6145 C   0  0  0  0  0  0  0  0  0  0  0  0
   48.3594   16.2236   11.8338 C   0  0  0  0  0  0  0  0  0  0  0  0
   40.9038   16.7211   12.0460 C   0  0  0  0  0  0  0  0  0  0  0  0
   45.1725   16.2467   12.6191 O   0  0  0  0  0  0  0  0  0  0  0  0
   47.6307   10.9989   12.1105 O   0  0  0  0  0  0  0  0  0  0  0  0
   44.5579   14.5084   13.8940 O   0  0  0  0  0  0  0  0  0  0  0  0
   48.2708   12.7470   10.8643 O   0  0  0  0  0  0  0  0  0  0  0  0
   45.2612   14.9693   13.0166 C   0  0  0  0  0  0  0  0  0  0  0  0
   47.5552   12.2808   11.7287 C   0  0  0  0  0  0  0  0  0  0  0  0
   46.2928   14.2717   12.2498 C   0  0  0  0  0  0  0  0  0  0  0  0
   46.5272   12.9780   12.5007 C   0  0  0  0  0  0  0  0  0  0  0  0
   49.8708    6.8154   11.5679 O   0  0  0  0  0  0  0  0  0  0  0  0
   49.8377   13.1955   11.7936 O   0  0  0  0  0  0  0  0  0  0  0  0
   42.0866   19.2205   14.3571 O   0  0  0  0  0  0  0  0  0  0  0  0
   45.3494    8.6992   12.5162 O   0  0  0  0  0  0  0  0  0  0  0  0
   47.3573    7.5481   12.2187 N   0  0  0  0  0  0  0  0  0  0  0  0
   47.4075   14.2974   11.1774 N   0  0  0  0  0  0  0  0  0  0  0  0
   49.0534   10.8909   11.9740 C   0  0  0  0  0  0  0  0  0  0  0  0
   48.3197    8.5625   12.0472 C   0  0  0  0  0  0  0  0  0  0  0  0
   49.6183    8.1570   11.7192 C   0  0  0  0  0  0  0  0  0  0  0  0
   48.0507    9.9233   12.1883 C   0  0  0  0  0  0  0  0  0  0  0  0
   48.7162   12.3651   12.1319 C   0  0  2  0  0  0  0  0  0  0  0  0
   50.3484   10.4511   11.6512 C   0  0  0  0  0  0  0  0  0  0  0  0
   50.6336    9.0887   11.5314 C   0  0  0  0  0  0  0  0  0  0  0  0
   47.5044   12.8187   11.2573 C   0  0  0  0  0  0  0  0  0  0  0  0
   45.1189   17.1049   12.4054 C   0  0  0  0  0  0  0  0  0  0  0  0
   46.3708   14.8789   12.0601 C   0  0  2  0  0  0  0  0  0  0  0  0
   46.2453   16.3829   11.7087 C   0  0  0  0  0  0  0  0  0  0  0  0
   43.0135   18.4704   13.6861 C   0  0  0  0  0  0  0  0  0  0  0  0
   45.3870   18.1404   13.3051 C   0  0  0  0  0  0  0  0  0  0  0  0
   43.7849   16.7628   12.1510 C   0  0  0  0  0  0  0  0  0  0  0  0
   46.0145    7.6804   12.4435 C   0  0  0  0  0  0  0  0  0  0  0  0
   44.3422   18.8072   13.9492 C   0  0  0  0  0  0  0  0  0  0  0  0
   42.7396   17.4368   12.7901 C   0  0  0  0  0  0  0  0  0  0  0  0
   46.7106   14.6815   13.5397 C   0  0  0  0  0  0  0  0  0  0  0  0
   40.7258   19.0321   13.9901 C   0  0  0  0  0  0  0  0  0  0  0  0
   46.0548   13.4562   12.4924 O   0  0  0  0  0  0  0  0  0  0  0  0
   46.9609   13.0535   12.3574 H   0  0  0  0  0  0  0  0  0  0  0  0
   46.2206   14.3745   12.5565 H   0  0  0  0  0  0  0  0  0  0  0  0
   47.1416    8.0253   14.5144 H   0  0  0  0  0  0  0  0  0  0  0  0
   50.6292   12.5991    9.6302 H   0  0  0  0  0  0  0  0  0  0  0  0
   44.7457    9.2002   12.8307 H   0  0  0  0  0  0  0  0  0  0  0  0
   48.7628   13.3603   13.5212 H   0  0  0  0  0  0  0  0  0  0  0  0
   46.5374   11.8856   10.9565 H   0  0  0  0  0  0  0  0  0  0  0  0
   48.4581   12.9865   10.2718 H   0  0  0  0  0  0  0  0  0  0  0  0
   50.2973   10.5832   12.5770 H   0  0  0  0  0  0  0  0  0  0  0  0
   49.1504    8.8228   13.8698 H   0  0  0  0  0  0  0  0  0  0  0  0
   50.2937   14.3293   11.2043 H   0  0  0  0  0  0  0  0  0  0  0  0
   50.7526   13.0690   12.2891 H   0  0  0  0  0  0  0  0  0  0  0  0
   47.3315   14.3315   11.7666 H   0  0  0  0  0  0  0  0  0  0  0  0
   46.8627   14.2449   14.2825 H   0  0  0  0  0  0  0  0  0  0  0  0
   47.5720   15.8445   14.4271 H   0  0  0  0  0  0  0  0  0  0  0  0
   44.9679   14.0270   12.3198 H   0  0  0  0  0  0  0  0  0  0  0  0
   46.0314   17.6281   14.4603 H   0  0  0  0  0  0  0  0  0  0  0  0
   43.1000   10.2676   11.7669 H   0  0  0  0  0  0  0  0  0  0  0  0
   42.7841   14.9582   11.8289 H   0  0  0  0  0  0  0  0  0  0  0  0
   43.8056   18.5428   13.9909 H   0  0  0  0  0  0  0  0  0  0  0  0
   48.9792   16.8159   12.5141 H   0  0  0  0  0  0  0  0  0  0  0  0
   48.9371   16.0462   10.9204 H   0  0  0  0  0  0  0  0  0  0  0  0
   47.4960   16.8305   11.5460 H   0  0  0  0  0  0  0  0  0  0  0  0
   40.0098   17.3466   12.0025 H   0  0  0  0  0  0  0  0  0  0  0  0
   40.6437   15.8203   12.6040 H   0  0  0  0  0  0  0  0  0  0  0  0
   41.1918   16.4881   11.0182 H   0  0  0  0  0  0  0  0  0  0  0  0
   44.4613   16.6187   13.1801 H   0  0  0  0  0  0  0  0  0  0  0  0
   48.3439   10.6224   11.5535 H   0  0  0  0  0  0  0  0  0  0  0  0
   46.8390   14.8393   11.5036 H   0  0  0  0  0  0  0  0  0  0  0  0
   45.9817   12.4108   13.2455 H   0  0  0  0  0  0  0  0  0  0  0  0
   50.7598    6.7103   11.1960 H   0  0  0  0  0  0  0  0  0  0  0  0
   49.4293   14.0575   11.5687 H   0  0  0  0  0  0  0  0  0  0  0  0
   47.7313    6.6129   12.1171 H   0  0  0  0  0  0  0  0  0  0  0  0
   47.1516   14.5294   10.2139 H   0  0  0  0  0  0  0  0  0  0  0  0
   47.0562   10.2513   12.4689 H   0  0  0  0  0  0  0  0  0  0  0  0
   48.5167   12.5519   13.1926 H   0  0  0  0  0  0  0  0  0  0  0  0
   51.1487   11.1726   11.5031 H   0  0  0  0  0  0  0  0  0  0  0  0
   51.6445    8.7809   11.2772 H   0  0  0  0  0  0  0  0  0  0  0  0
   47.6762   12.4706   10.2271 H   0  0  0  0  0  0  0  0  0  0  0  0
   46.5607   12.3588   11.5754 H   0  0  0  0  0  0  0  0  0  0  0  0
   45.4104   14.3940   11.8485 H   0  0  0  0  0  0  0  0  0  0  0  0
   46.0784   16.4967   10.6312 H   0  0  0  0  0  0  0  0  0  0  0  0
   47.1952   16.8876   11.9120 H   0  0  0  0  0  0  0  0  0  0  0  0
   46.4120   18.4331   13.5153 H   0  0  0  0  0  0  0  0  0  0  0  0
   43.5392   15.9746   11.4427 H   0  0  0  0  0  0  0  0  0  0  0  0
   45.5383    6.6940   12.5446 H   0  0  0  0  0  0  0  0  0  0  0  0
   44.5641   19.6089   14.6477 H   0  0  0  0  0  0  0  0  0  0  0  0
   41.7243   17.1250   12.5728 H   0  0  0  0  0  0  0  0  0  0  0  0
   45.9943   15.2033   14.1807 H   0  0  0  0  0  0  0  0  0  0  0  0
   46.6657   13.6255   13.8179 H   0  0  0  0  0  0  0  0  0  0  0  0
   47.7076   15.0607   13.7808 H   0  0  0  0  0  0  0  0  0  0  0  0
   40.1331   19.7655   14.5438 H   0  0  0  0  0  0  0  0  0  0  0  0
   40.5720   19.2143   12.9201 H   0  0  0  0  0  0  0  0  0  0  0  0
   40.3742   18.0315   14.2751 H   0  0  0  0  0  0  0  0  0  0  0  0
   46.3009   14.3918   12.5493 H   0  0  0  0  0  0  0  0  0  0  0  0
   46.8990   12.9994   12.3593 H   0  0  0  0  0  0  0  0  0  0  0  0
  2 10  1  0
  3 12  1  0
  4 19  1  0
  4 26  1  0
  5 22  2  0
  6  9  1  0
  6 22  1  0
  7 15  1  0
  7 17  1  0
  8 11  2  0
  8 12  1  0
  8 13  1  0
  9 10  2  0
  9 11  1  0
 10 14  1  0
 12 15  1  0
 13 14  2  0
 16 18  1  0
 16 20  2  0
 16 21  1  0
 17 18  1  0
 17 25  1  0
 19 23  2  0
 19 24  1  0
 20 23  1  0
 21 24  2  0
 27 31  1  0
 28 32  1  0
 29 31  2  0
 30 32  2  0
 31 33  1  0
 32 34  1  0
 33 34  2  0
 35 43  1  0
 36 45  1  0
 37 52  1  0
 37 59  1  0
 38 55  2  0
 39 42  1  0
 39 55  1  0
 40 48  1  0
 40 50  1  0
 41 44  2  0
 41 45  1  0
 41 46  1  0
 42 43  2  0
 42 44  1  0
 43 47  1  0
 45 48  1  0
 46 47  2  0
 49 51  1  0
 49 53  2  0
 49 54  1  0
 50 51  1  0
 50 58  1  0
 52 56  2  0
 52 57  1  0
 53 56  1  0
 54 57  2  0
  1 61  1  0
  1 62  1  0
  2 63  1  0
  3 64  1  0
  6 65  1  0
  7 66  1  0
 11 67  1  0
 12 68  1  6
 13 69  1  0
 14 70  1  0
 15 71  1  0
 15 72  1  0
 17 73  1  6
 18 74  1  0
 18 75  1  0
 20 76  1  0
 21 77  1  0
 22 78  1  0
 23 79  1  0
 24 80  1  0
 25 81  1  0
 25 82  1  0
 25 83  1  0
 26 84  1  0
 26 85  1  0
 26 86  1  0
 27 87  1  0
 28 88  1  0
 33 89  1  0
 34 90  1  0
 35 91  1  0
 36 92  1  0
 39 93  1  0
 40 94  1  0
 44 95  1  0
 45 96  1  1
 46 97  1  0
 47 98  1  0
 48 99  1  0
 48100  1  0
 50101  1  1
 51102  1  0
 51103  1  0
 53104  1  0
 54105  1  0
 55106  1  0
 56107  1  0
 57108  1  0
 58109  1  0
 58110  1  0
 58111  1  0
 59112  1  0
 59113  1  0
 59114  1  0
 60115  1  0
 60116  1  0
M  END
> <Uni-Dock RESULT> 
ENERGY=   -4.534  LOWER_BOUND=    5.474  UPPER_BOUND=    8.616
INTER + INTRA:          -4.534
INTER:                  -4.534
INTRA:                   0.000
UNBOUND:                 0.000

$$$$
