
     RDKit          3D

116115  0  0  0  0  0  0  0  0999 V2000
   45.2911   11.9725   10.8070 O   0  0  0  0  0  0  0  0  0  0  0  0
   37.8541   13.0977   11.1855 O   0  0  0  0  0  0  0  0  0  0  0  0
   42.8232    9.3532   10.1701 O   0  0  0  0  0  0  0  0  0  0  0  0
   52.2361   13.2694   12.9780 O   0  0  0  0  0  0  0  0  0  0  0  0
   40.9007   13.7303    7.2887 O   0  0  0  0  0  0  0  0  0  0  0  0
   39.2952   13.6453    8.9883 N   0  0  0  0  0  0  0  0  0  0  0  0
   45.1825   10.0733   11.7245 N   0  0  0  0  0  0  0  0  0  0  0  0
   41.6152   11.3305   10.8241 C   0  0  0  0  0  0  0  0  0  0  0  0
   39.8586   12.7779    9.9438 C   0  0  0  0  0  0  0  0  0  0  0  0
   39.0863   12.5034   11.0798 C   0  0  0  0  0  0  0  0  0  0  0  0
   41.1186   12.1878    9.8227 C   0  0  0  0  0  0  0  0  0  0  0  0
   42.9824   10.6970   10.6425 C   0  0  1  0  0  0  0  0  0  0  0  0
   40.8038   11.0468   11.9354 C   0  0  0  0  0  0  0  0  0  0  0  0
   39.5481   11.6433   12.0726 C   0  0  0  0  0  0  0  0  0  0  0  0
   43.8597   10.6903   11.9261 C   0  0  0  0  0  0  0  0  0  0  0  0
   48.8538   11.0219   12.0018 C   0  0  0  0  0  0  0  0  0  0  0  0
   46.3062   11.0208   11.6726 C   0  0  1  0  0  0  0  0  0  0  0  0
   47.6200   10.1995   11.7034 C   0  0  0  0  0  0  0  0  0  0  0  0
   51.1605   12.5293   12.5723 C   0  0  0  0  0  0  0  0  0  0  0  0
   49.0898   11.4985   13.2973 C   0  0  0  0  0  0  0  0  0  0  0  0
   49.7790   11.3180   10.9938 C   0  0  0  0  0  0  0  0  0  0  0  0
   39.8294   14.0424    7.7902 C   0  0  0  0  0  0  0  0  0  0  0  0
   50.2332   12.2481   13.5765 C   0  0  0  0  0  0  0  0  0  0  0  0
   50.9264   12.0668   11.2764 C   0  0  0  0  0  0  0  0  0  0  0  0
   46.2482   11.9144   10.4296 C   0  0  0  0  0  0  0  0  0  0  0  0
   53.3031   13.3997   12.0498 C   0  0  0  0  0  0  0  0  0  0  0  0
   47.6393   12.3369   10.9600 O   0  0  0  0  0  0  0  0  0  0  0  0
   42.8199   11.3956   11.4124 O   0  0  0  0  0  0  0  0  0  0  0  0
   47.5290   11.4690   13.0148 O   0  0  0  0  0  0  0  0  0  0  0  0
   42.9260   12.2886    9.3654 O   0  0  0  0  0  0  0  0  0  0  0  0
   46.9650   11.8089   11.9914 C   0  0  0  0  0  0  0  0  0  0  0  0
   43.4910   11.9384   10.3853 C   0  0  0  0  0  0  0  0  0  0  0  0
   45.5247   11.6824   11.7562 C   0  0  0  0  0  0  0  0  0  0  0  0
   44.9314   12.0683   10.6186 C   0  0  0  0  0  0  0  0  0  0  0  0
   51.0255    8.5929   12.6685 O   0  0  0  0  0  0  0  0  0  0  0  0
   46.3169   12.7795   12.3263 O   0  0  0  0  0  0  0  0  0  0  0  0
   39.1582   10.7343   12.1800 O   0  0  0  0  0  0  0  0  0  0  0  0
   52.9652   10.1667   12.6836 O   0  0  0  0  0  0  0  0  0  0  0  0
   51.2025   11.6184   12.2080 N   0  0  0  0  0  0  0  0  0  0  0  0
   44.9254   12.3774    9.5257 N   0  0  0  0  0  0  0  0  0  0  0  0
   47.6026   10.8294   11.8388 C   0  0  0  0  0  0  0  0  0  0  0  0
   50.0470   10.7998   12.1722 C   0  0  0  0  0  0  0  0  0  0  0  0
   49.9729    9.4172   12.3912 C   0  0  0  0  0  0  0  0  0  0  0  0
   48.8468   11.4861   11.8905 C   0  0  0  0  0  0  0  0  0  0  0  0
   46.3302   11.5933   11.5300 C   0  0  2  0  0  0  0  0  0  0  0  0
   47.5648    9.4511   12.0575 C   0  0  0  0  0  0  0  0  0  0  0  0
   48.7420    8.7567   12.3360 C   0  0  0  0  0  0  0  0  0  0  0  0
   46.2441   11.9367   10.0201 C   0  0  0  0  0  0  0  0  0  0  0  0
   41.9931   13.0785   10.2092 C   0  0  0  0  0  0  0  0  0  0  0  0
   44.4739   13.6937   10.0167 C   0  0  2  0  0  0  0  0  0  0  0  0
   43.0237   13.9601    9.5336 C   0  0  0  0  0  0  0  0  0  0  0  0
   40.0736   11.4452   11.4570 C   0  0  0  0  0  0  0  0  0  0  0  0
   41.6152   13.3173   11.5352 C   0  0  0  0  0  0  0  0  0  0  0  0
   41.3994   12.0181    9.5102 C   0  0  0  0  0  0  0  0  0  0  0  0
   52.5091   11.2760   12.4441 C   0  0  0  0  0  0  0  0  0  0  0  0
   40.6625   12.5050   12.1492 C   0  0  0  0  0  0  0  0  0  0  0  0
   40.4470   11.2041   10.1325 C   0  0  0  0  0  0  0  0  0  0  0  0
   45.3729   14.8336    9.5172 C   0  0  0  0  0  0  0  0  0  0  0  0
   38.4066    9.7577   11.4785 C   0  0  0  0  0  0  0  0  0  0  0  0
   45.3069   11.9724   10.8095 O   0  0  0  0  0  0  0  0  0  0  0  0
   44.4439   11.7941   11.2431 H   0  0  0  0  0  0  0  0  0  0  0  0
   45.9539   11.7800   11.4878 H   0  0  0  0  0  0  0  0  0  0  0  0
   37.4484   12.8009   12.0163 H   0  0  0  0  0  0  0  0  0  0  0  0
   41.9275    9.2768    9.8016 H   0  0  0  0  0  0  0  0  0  0  0  0
   38.3750   13.9933    9.2474 H   0  0  0  0  0  0  0  0  0  0  0  0
   45.1424    9.4835   10.8896 H   0  0  0  0  0  0  0  0  0  0  0  0
   41.7391   12.3850    8.9508 H   0  0  0  0  0  0  0  0  0  0  0  0
   43.5207   11.2377    9.8561 H   0  0  0  0  0  0  0  0  0  0  0  0
   41.1415   10.3539   12.7070 H   0  0  0  0  0  0  0  0  0  0  0  0
   38.9481   11.4159   12.9482 H   0  0  0  0  0  0  0  0  0  0  0  0
   43.3693   10.0642   12.6842 H   0  0  0  0  0  0  0  0  0  0  0  0
   43.9384   11.6972   12.3568 H   0  0  0  0  0  0  0  0  0  0  0  0
   46.2651   11.6547   12.5687 H   0  0  0  0  0  0  0  0  0  0  0  0
   47.7503    9.6636   10.7537 H   0  0  0  0  0  0  0  0  0  0  0  0
   47.5581    9.4197   12.4749 H   0  0  0  0  0  0  0  0  0  0  0  0
   48.3885   11.2860   14.1005 H   0  0  0  0  0  0  0  0  0  0  0  0
   49.6139   10.9646    9.9782 H   0  0  0  0  0  0  0  0  0  0  0  0
   39.1403   14.7274    7.2659 H   0  0  0  0  0  0  0  0  0  0  0  0
   50.4139   12.6053   14.5867 H   0  0  0  0  0  0  0  0  0  0  0  0
   51.6115   12.2743   10.4607 H   0  0  0  0  0  0  0  0  0  0  0  0
   45.3589   12.5528   10.4406 H   0  0  0  0  0  0  0  0  0  0  0  0
   46.2273   11.3188    9.5101 H   0  0  0  0  0  0  0  0  0  0  0  0
   47.1128   12.5816   10.3820 H   0  0  0  0  0  0  0  0  0  0  0  0
   52.9978   13.9984   11.1859 H   0  0  0  0  0  0  0  0  0  0  0  0
   53.6807   12.4201   11.7416 H   0  0  0  0  0  0  0  0  0  0  0  0
   54.1193   13.9298   12.5495 H   0  0  0  0  0  0  0  0  0  0  0  0
   48.5708   12.3470   11.2657 H   0  0  0  0  0  0  0  0  0  0  0  0
   41.8904   11.3903   11.1014 H   0  0  0  0  0  0  0  0  0  0  0  0
   44.9689   11.2537   12.5820 H   0  0  0  0  0  0  0  0  0  0  0  0
   45.4865   12.4987    9.7934 H   0  0  0  0  0  0  0  0  0  0  0  0
   51.8531    9.1172   12.6964 H   0  0  0  0  0  0  0  0  0  0  0  0
   46.4457   12.4915   13.2465 H   0  0  0  0  0  0  0  0  0  0  0  0
   51.0460   12.6047   12.0257 H   0  0  0  0  0  0  0  0  0  0  0  0
   44.2335   11.6786    9.7994 H   0  0  0  0  0  0  0  0  0  0  0  0
   48.8629   12.5613   11.7082 H   0  0  0  0  0  0  0  0  0  0  0  0
   45.4561   10.9955   11.8203 H   0  0  0  0  0  0  0  0  0  0  0  0
   46.6254    8.9040   12.0168 H   0  0  0  0  0  0  0  0  0  0  0  0
   48.7080    7.6821   12.5043 H   0  0  0  0  0  0  0  0  0  0  0  0
   47.0142   12.6674    9.7442 H   0  0  0  0  0  0  0  0  0  0  0  0
   46.4818   11.0285    9.4502 H   0  0  0  0  0  0  0  0  0  0  0  0
   44.4680   13.7073   11.1112 H   0  0  0  0  0  0  0  0  0  0  0  0
   42.7492   15.0066    9.7395 H   0  0  0  0  0  0  0  0  0  0  0  0
   42.9639   13.8460    8.4407 H   0  0  0  0  0  0  0  0  0  0  0  0
   42.0611   14.1381   12.0948 H   0  0  0  0  0  0  0  0  0  0  0  0
   41.6835   11.8133    8.4800 H   0  0  0  0  0  0  0  0  0  0  0  0
   53.1630   12.1642   12.3971 H   0  0  0  0  0  0  0  0  0  0  0  0
   40.3759   12.7028   13.1798 H   0  0  0  0  0  0  0  0  0  0  0  0
   40.0171   10.3895    9.5589 H   0  0  0  0  0  0  0  0  0  0  0  0
   45.4200   14.8578    8.4260 H   0  0  0  0  0  0  0  0  0  0  0  0
   44.9819   15.7956    9.8570 H   0  0  0  0  0  0  0  0  0  0  0  0
   46.3896   14.7520    9.9097 H   0  0  0  0  0  0  0  0  0  0  0  0
   39.0458    8.9291   11.1566 H   0  0  0  0  0  0  0  0  0  0  0  0
   37.6579    9.3523   12.1680 H   0  0  0  0  0  0  0  0  0  0  0  0
   37.8693   10.1987   10.6306 H   0  0  0  0  0  0  0  0  0  0  0  0
   44.4423   11.8038   11.2132 H   0  0  0  0  0  0  0  0  0  0  0  0
   45.9397   11.7705   11.5153 H   0  0  0  0  0  0  0  0  0  0  0  0
  2 10  1  0
  3 12  1  0
  4 19  1  0
  4 26  1  0
  5 22  2  0
  6  9  1  0
  6 22  1  0
  7 15  1  0
  7 17  1  0
  8 11  2  0
  8 12  1  0
  8 13  1  0
  9 10  2  0
  9 11  1  0
 10 14  1  0
 12 15  1  0
 13 14  2  0
 16 18  1  0
 16 20  2  0
 16 21  1  0
 17 18  1  0
 17 25  1  0
 19 23  2  0
 19 24  1  0
 20 23  1  0
 21 24  2  0
 27 31  1  0
 28 32  1  0
 29 31  2  0
 30 32  2  0
 31 33  1  0
 32 34  1  0
 33 34  2  0
 35 43  1  0
 36 45  1  0
 37 52  1  0
 37 59  1  0
 38 55  2  0
 39 42  1  0
 39 55  1  0
 40 48  1  0
 40 50  1  0
 41 44  2  0
 41 45  1  0
 41 46  1  0
 42 43  2  0
 42 44  1  0
 43 47  1  0
 45 48  1  0
 46 47  2  0
 49 51  1  0
 49 53  2  0
 49 54  1  0
 50 51  1  0
 50 58  1  0
 52 56  2  0
 52 57  1  0
 53 56  1  0
 54 57  2  0
  1 61  1  0
  1 62  1  0
  2 63  1  0
  3 64  1  0
  6 65  1  0
  7 66  1  0
 11 67  1  0
 12 68  1  6
 13 69  1  0
 14 70  1  0
 15 71  1  0
 15 72  1  0
 17 73  1  6
 18 74  1  0
 18 75  1  0
 20 76  1  0
 21 77  1  0
 22 78  1  0
 23 79  1  0
 24 80  1  0
 25 81  1  0
 25 82  1  0
 25 83  1  0
 26 84  1  0
 26 85  1  0
 26 86  1  0
 27 87  1  0
 28 88  1  0
 33 89  1  0
 34 90  1  0
 35 91  1  0
 36 92  1  0
 39 93  1  0
 40 94  1  0
 44 95  1  0
 45 96  1  1
 46 97  1  0
 47 98  1  0
 48 99  1  0
 48100  1  0
 50101  1  6
 51102  1  0
 51103  1  0
 53104  1  0
 54105  1  0
 55106  1  0
 56107  1  0
 57108  1  0
 58109  1  0
 58110  1  0
 58111  1  0
 59112  1  0
 59113  1  0
 59114  1  0
 60115  1  0
 60116  1  0
M  END
> <Uni-Dock RESULT> 
ENERGY=   -5.231  LOWER_BOUND=    0.000  UPPER_BOUND=    0.000
INTER + INTRA:          -5.231
INTER:                  -5.231
INTRA:                   0.000
UNBOUND:                 0.000

$$$$

     RDKit          3D

116115  0  0  0  0  0  0  0  0999 V2000
   48.0310   10.0149   12.4154 O   0  0  0  0  0  0  0  0  0  0  0  0
   44.8314    3.2890   11.3006 O   0  0  0  0  0  0  0  0  0  0  0  0
   44.6143    9.2161   13.4375 O   0  0  0  0  0  0  0  0  0  0  0  0
   52.5857   15.5076   10.4885 O   0  0  0  0  0  0  0  0  0  0  0  0
   47.5884    4.8193   15.1638 O   0  0  0  0  0  0  0  0  0  0  0  0
   46.3918    3.8211   13.4187 N   0  0  0  0  0  0  0  0  0  0  0  0
   46.2730   11.0783   11.9268 N   0  0  0  0  0  0  0  0  0  0  0  0
   45.4870    7.2878   12.2900 C   0  0  0  0  0  0  0  0  0  0  0  0
   45.8462    4.9117   12.7145 C   0  0  0  0  0  0  0  0  0  0  0  0
   45.0317    4.6093   11.6157 C   0  0  0  0  0  0  0  0  0  0  0  0
   46.0675    6.2503   13.0456 C   0  0  0  0  0  0  0  0  0  0  0  0
   45.7400    8.7280   12.6966 C   0  0  1  0  0  0  0  0  0  0  0  0
   44.6471    6.9534   11.2146 C   0  0  0  0  0  0  0  0  0  0  0  0
   44.4312    5.6178   10.8667 C   0  0  0  0  0  0  0  0  0  0  0  0
   46.0278    9.6872   11.5073 C   0  0  0  0  0  0  0  0  0  0  0  0
   49.0242   13.6923   11.6987 C   0  0  0  0  0  0  0  0  0  0  0  0
   47.6765   11.5107   11.8475 C   0  0  1  0  0  0  0  0  0  0  0  0
   47.7145   13.0416   12.0844 C   0  0  0  0  0  0  0  0  0  0  0  0
   51.4462   14.9270   10.9716 C   0  0  0  0  0  0  0  0  0  0  0  0
   49.3574   13.8658   10.3496 C   0  0  0  0  0  0  0  0  0  0  0  0
   49.9216   14.1333   12.6785 C   0  0  0  0  0  0  0  0  0  0  0  0
   47.1860    3.8498   14.5354 C   0  0  0  0  0  0  0  0  0  0  0  0
   50.5604   14.4759    9.9921 C   0  0  0  0  0  0  0  0  0  0  0  0
   51.1256   14.7477   12.3182 C   0  0  0  0  0  0  0  0  0  0  0  0
   48.5621   10.7777   12.8601 C   0  0  0  0  0  0  0  0  0  0  0  0
   53.4126   16.1674   11.4362 C   0  0  0  0  0  0  0  0  0  0  0  0
   49.5947   11.8094   12.3458 O   0  0  0  0  0  0  0  0  0  0  0  0
   46.1145    8.3612   11.7842 O   0  0  0  0  0  0  0  0  0  0  0  0
   48.5198   12.5301   10.5257 O   0  0  0  0  0  0  0  0  0  0  0  0
   47.2066    7.6253   13.5910 O   0  0  0  0  0  0  0  0  0  0  0  0
   48.6402   11.7033   11.4105 C   0  0  0  0  0  0  0  0  0  0  0  0
   47.0788    8.4577   12.7119 C   0  0  0  0  0  0  0  0  0  0  0  0
   47.7816   10.5271   11.5697 C   0  0  0  0  0  0  0  0  0  0  0  0
   47.9405    9.6318   12.5538 C   0  0  0  0  0  0  0  0  0  0  0  0
   48.1145   16.8912   11.7232 O   0  0  0  0  0  0  0  0  0  0  0  0
   49.0363   10.7132   10.8299 O   0  0  0  0  0  0  0  0  0  0  0  0
   43.4530    5.7870   10.9331 O   0  0  0  0  0  0  0  0  0  0  0  0
   50.4711   17.6881   11.4978 O   0  0  0  0  0  0  0  0  0  0  0  0
   50.7716   15.3752   11.5269 N   0  0  0  0  0  0  0  0  0  0  0  0
   48.3511    9.2745   13.5506 N   0  0  0  0  0  0  0  0  0  0  0  0
   48.2043   12.7211   11.8147 C   0  0  0  0  0  0  0  0  0  0  0  0
   49.4696   14.8335   11.6615 C   0  0  0  0  0  0  0  0  0  0  0  0
   48.2579   15.5335   11.7433 C   0  0  0  0  0  0  0  0  0  0  0  0
   49.4191   13.4242   11.7058 C   0  0  0  0  0  0  0  0  0  0  0  0
   48.1821   11.2061   11.8638 C   0  0  2  0  0  0  0  0  0  0  0  0
   47.0160   13.4491   11.8983 C   0  0  0  0  0  0  0  0  0  0  0  0
   47.0477   14.8429   11.8573 C   0  0  0  0  0  0  0  0  0  0  0  0
   48.6380   10.6913   13.2538 C   0  0  0  0  0  0  0  0  0  0  0  0
   47.2239    6.5810   12.5350 C   0  0  0  0  0  0  0  0  0  0  0  0
   49.1171    8.2947   12.7563 C   0  0  2  0  0  0  0  0  0  0  0  0
   48.6130    6.8614   13.0711 C   0  0  0  0  0  0  0  0  0  0  0  0
   44.6453    6.0524   11.5447 C   0  0  0  0  0  0  0  0  0  0  0  0
   47.0206    6.3721   11.1663 C   0  0  0  0  0  0  0  0  0  0  0  0
   46.1268    6.5188   13.4057 C   0  0  0  0  0  0  0  0  0  0  0  0
   51.1704   16.6854   11.4596 C   0  0  0  0  0  0  0  0  0  0  0  0
   45.7402    6.1097   10.6803 C   0  0  0  0  0  0  0  0  0  0  0  0
   44.8440    6.2590   12.9120 C   0  0  0  0  0  0  0  0  0  0  0  0
   50.6213    8.3608   13.0560 C   0  0  0  0  0  0  0  0  0  0  0  0
   42.3389    5.5489   11.7774 C   0  0  0  0  0  0  0  0  0  0  0  0
   48.0393   10.0286   12.4141 O   0  0  0  0  0  0  0  0  0  0  0  0
   47.3567    9.4777   11.9723 H   0  0  0  0  0  0  0  0  0  0  0  0
   48.1361   10.7872   11.8389 H   0  0  0  0  0  0  0  0  0  0  0  0
   44.2437    3.2509   10.5285 H   0  0  0  0  0  0  0  0  0  0  0  0
   44.1146    8.4448   13.7525 H   0  0  0  0  0  0  0  0  0  0  0  0
   46.1370    2.9167   13.0288 H   0  0  0  0  0  0  0  0  0  0  0  0
   45.8866   11.2079   12.8651 H   0  0  0  0  0  0  0  0  0  0  0  0
   46.6967    6.5126   13.8937 H   0  0  0  0  0  0  0  0  0  0  0  0
   46.5948    8.7569   13.3814 H   0  0  0  0  0  0  0  0  0  0  0  0
   44.1486    7.7323   10.6363 H   0  0  0  0  0  0  0  0  0  0  0  0
   43.7877    5.3891   10.0229 H   0  0  0  0  0  0  0  0  0  0  0  0
   45.1329    9.7380   10.8717 H   0  0  0  0  0  0  0  0  0  0  0  0
   46.8378    9.3010   10.8746 H   0  0  0  0  0  0  0  0  0  0  0  0
   48.0457   11.3009   10.8346 H   0  0  0  0  0  0  0  0  0  0  0  0
   47.4826   13.2651   13.1344 H   0  0  0  0  0  0  0  0  0  0  0  0
   46.9256   13.5326   11.4982 H   0  0  0  0  0  0  0  0  0  0  0  0
   48.6813   13.5322    9.5661 H   0  0  0  0  0  0  0  0  0  0  0  0
   49.6879   14.0034   13.7331 H   0  0  0  0  0  0  0  0  0  0  0  0
   47.4496    2.8252   14.8507 H   0  0  0  0  0  0  0  0  0  0  0  0
   50.8065   14.6159    8.9431 H   0  0  0  0  0  0  0  0  0  0  0  0
   51.7906   15.0682   13.1137 H   0  0  0  0  0  0  0  0  0  0  0  0
   48.5997    9.7038   12.6509 H   0  0  0  0  0  0  0  0  0  0  0  0
   48.1939   10.9116   13.8834 H   0  0  0  0  0  0  0  0  0  0  0  0
   49.5922   11.1414   12.8201 H   0  0  0  0  0  0  0  0  0  0  0  0
   53.8646   15.4488   12.1270 H   0  0  0  0  0  0  0  0  0  0  0  0
   52.8570   16.9413   11.9745 H   0  0  0  0  0  0  0  0  0  0  0  0
   54.2235   16.6580   10.8896 H   0  0  0  0  0  0  0  0  0  0  0  0
   50.0684   12.6344   12.1088 H   0  0  0  0  0  0  0  0  0  0  0  0
   45.6466    7.5344   12.0256 H   0  0  0  0  0  0  0  0  0  0  0  0
   47.0038   10.4320   10.8212 H   0  0  0  0  0  0  0  0  0  0  0  0
   48.7194    9.7257   13.3014 H   0  0  0  0  0  0  0  0  0  0  0  0
   48.9955   17.3120   11.6380 H   0  0  0  0  0  0  0  0  0  0  0  0
   48.7354   11.1318   10.0051 H   0  0  0  0  0  0  0  0  0  0  0  0
   51.5252   14.6967   11.4798 H   0  0  0  0  0  0  0  0  0  0  0  0
   47.3567    9.1108   13.3890 H   0  0  0  0  0  0  0  0  0  0  0  0
   50.3405   12.8431   11.6511 H   0  0  0  0  0  0  0  0  0  0  0  0
   47.1686   10.8406   11.6518 H   0  0  0  0  0  0  0  0  0  0  0  0
   46.0568   12.9447   11.9933 H   0  0  0  0  0  0  0  0  0  0  0  0
   46.1191   15.4062   11.9243 H   0  0  0  0  0  0  0  0  0  0  0  0
   49.7019   10.9031   13.4159 H   0  0  0  0  0  0  0  0  0  0  0  0
   48.1028   11.2653   14.0219 H   0  0  0  0  0  0  0  0  0  0  0  0
   48.9656    8.4736   11.6871 H   0  0  0  0  0  0  0  0  0  0  0  0
   49.2951    6.1207   12.6249 H   0  0  0  0  0  0  0  0  0  0  0  0
   48.6455    6.6806   14.1561 H   0  0  0  0  0  0  0  0  0  0  0  0
   47.8596    6.4121   10.4733 H   0  0  0  0  0  0  0  0  0  0  0  0
   46.2638    6.6832   14.4725 H   0  0  0  0  0  0  0  0  0  0  0  0
   52.2671   16.7578   11.3567 H   0  0  0  0  0  0  0  0  0  0  0  0
   45.5961    5.9469    9.6145 H   0  0  0  0  0  0  0  0  0  0  0  0
   44.0210    6.2266   13.6183 H   0  0  0  0  0  0  0  0  0  0  0  0
   50.8261    8.1970   14.1166 H   0  0  0  0  0  0  0  0  0  0  0  0
   51.1506    7.5905   12.4899 H   0  0  0  0  0  0  0  0  0  0  0  0
   51.0535    9.3200   12.7601 H   0  0  0  0  0  0  0  0  0  0  0  0
   42.0530    6.4595   12.3139 H   0  0  0  0  0  0  0  0  0  0  0  0
   41.4945    5.2568   11.1435 H   0  0  0  0  0  0  0  0  0  0  0  0
   42.5317    4.7220   12.4712 H   0  0  0  0  0  0  0  0  0  0  0  0
   47.3681    9.4661   11.9992 H   0  0  0  0  0  0  0  0  0  0  0  0
   48.1165   10.7851   11.8133 H   0  0  0  0  0  0  0  0  0  0  0  0
  2 10  1  0
  3 12  1  0
  4 19  1  0
  4 26  1  0
  5 22  2  0
  6  9  1  0
  6 22  1  0
  7 15  1  0
  7 17  1  0
  8 11  2  0
  8 12  1  0
  8 13  1  0
  9 10  2  0
  9 11  1  0
 10 14  1  0
 12 15  1  0
 13 14  2  0
 16 18  1  0
 16 20  2  0
 16 21  1  0
 17 18  1  0
 17 25  1  0
 19 23  2  0
 19 24  1  0
 20 23  1  0
 21 24  2  0
 27 31  1  0
 28 32  1  0
 29 31  2  0
 30 32  2  0
 31 33  1  0
 32 34  1  0
 33 34  2  0
 35 43  1  0
 36 45  1  0
 37 52  1  0
 37 59  1  0
 38 55  2  0
 39 42  1  0
 39 55  1  0
 40 48  1  0
 40 50  1  0
 41 44  2  0
 41 45  1  0
 41 46  1  0
 42 43  2  0
 42 44  1  0
 43 47  1  0
 45 48  1  0
 46 47  2  0
 49 51  1  0
 49 53  2  0
 49 54  1  0
 50 51  1  0
 50 58  1  0
 52 56  2  0
 52 57  1  0
 53 56  1  0
 54 57  2  0
  1 61  1  0
  1 62  1  0
  2 63  1  0
  3 64  1  0
  6 65  1  0
  7 66  1  0
 11 67  1  0
 12 68  1  6
 13 69  1  0
 14 70  1  0
 15 71  1  0
 15 72  1  0
 17 73  1  6
 18 74  1  0
 18 75  1  0
 20 76  1  0
 21 77  1  0
 22 78  1  0
 23 79  1  0
 24 80  1  0
 25 81  1  0
 25 82  1  0
 25 83  1  0
 26 84  1  0
 26 85  1  0
 26 86  1  0
 27 87  1  0
 28 88  1  0
 33 89  1  0
 34 90  1  0
 35 91  1  0
 36 92  1  0
 39 93  1  0
 40 94  1  0
 44 95  1  0
 45 96  1  1
 46 97  1  0
 47 98  1  0
 48 99  1  0
 48100  1  0
 50101  1  6
 51102  1  0
 51103  1  0
 53104  1  0
 54105  1  0
 55106  1  0
 56107  1  0
 57108  1  0
 58109  1  0
 58110  1  0
 58111  1  0
 59112  1  0
 59113  1  0
 59114  1  0
 60115  1  0
 60116  1  0
M  END
> <Uni-Dock RESULT> 
ENERGY=   -4.910  LOWER_BOUND=    4.198  UPPER_BOUND=    6.474
INTER + INTRA:          -4.910
INTER:                  -4.910
INTRA:                   0.000
UNBOUND:                 0.000

$$$$

     RDKit          3D

116115  0  0  0  0  0  0  0  0999 V2000
   43.8211   11.0245   11.3704 O   0  0  0  0  0  0  0  0  0  0  0  0
   43.5605   17.9711    8.4728 O   0  0  0  0  0  0  0  0  0  0  0  0
   45.3204   13.9387   12.9880 O   0  0  0  0  0  0  0  0  0  0  0  0
   44.1765    3.6688   10.7421 O   0  0  0  0  0  0  0  0  0  0  0  0
   40.2574   15.7189   11.4535 O   0  0  0  0  0  0  0  0  0  0  0  0
   41.5727   16.9399    9.9526 N   0  0  0  0  0  0  0  0  0  0  0  0
   45.8179   11.2316   12.0262 N   0  0  0  0  0  0  0  0  0  0  0  0
   44.4224   14.6744   10.8787 C   0  0  0  0  0  0  0  0  0  0  0  0
   42.8402   16.3326   10.0408 C   0  0  0  0  0  0  0  0  0  0  0  0
   43.8627   16.8907    9.2629 C   0  0  0  0  0  0  0  0  0  0  0  0
   43.1275   15.2279   10.8455 C   0  0  0  0  0  0  0  0  0  0  0  0
   44.6940   13.4848   11.7813 C   0  0  1  0  0  0  0  0  0  0  0  0
   45.4355   15.2767   10.1142 C   0  0  0  0  0  0  0  0  0  0  0  0
   45.1548   16.3730    9.2951 C   0  0  0  0  0  0  0  0  0  0  0  0
   45.5705   12.3766   11.1324 C   0  0  0  0  0  0  0  0  0  0  0  0
   45.2065    7.4800   12.1053 C   0  0  0  0  0  0  0  0  0  0  0  0
   45.0684   10.0113   11.6911 C   0  0  1  0  0  0  0  0  0  0  0  0
   45.6247    8.8588   12.5650 C   0  0  0  0  0  0  0  0  0  0  0  0
   44.4550    4.9040   11.2578 C   0  0  0  0  0  0  0  0  0  0  0  0
   45.7719    6.9163   10.9547 C   0  0  0  0  0  0  0  0  0  0  0  0
   44.2532    6.7447   12.8195 C   0  0  0  0  0  0  0  0  0  0  0  0
   40.4282   16.6062   10.6286 C   0  0  0  0  0  0  0  0  0  0  0  0
   45.3952    5.6398   10.5355 C   0  0  0  0  0  0  0  0  0  0  0  0
   43.8792    5.4637   12.3995 C   0  0  0  0  0  0  0  0  0  0  0  0
   43.5617   10.1841   11.9073 C   0  0  0  0  0  0  0  0  0  0  0  0
   43.3916    2.8053   11.5517 C   0  0  0  0  0  0  0  0  0  0  0  0
   43.5847    8.6667   11.6044 O   0  0  0  0  0  0  0  0  0  0  0  0
   44.7465   13.3797   10.7357 O   0  0  0  0  0  0  0  0  0  0  0  0
   45.6509    8.4879   10.7757 O   0  0  0  0  0  0  0  0  0  0  0  0
   42.6682   13.5571   11.5407 O   0  0  0  0  0  0  0  0  0  0  0  0
   44.7098    9.1897   11.0968 C   0  0  0  0  0  0  0  0  0  0  0  0
   43.6140   12.8567   11.2293 C   0  0  0  0  0  0  0  0  0  0  0  0
   44.6865   10.6499   10.9826 C   0  0  0  0  0  0  0  0  0  0  0  0
   43.6336   11.3962   11.3424 C   0  0  0  0  0  0  0  0  0  0  0  0
   47.3195    5.6125   13.8685 O   0  0  0  0  0  0  0  0  0  0  0  0
   44.2809    9.6013   10.0381 O   0  0  0  0  0  0  0  0  0  0  0  0
   45.8894   16.8664    9.7500 O   0  0  0  0  0  0  0  0  0  0  0  0
   46.1433    3.4942   13.2612 O   0  0  0  0  0  0  0  0  0  0  0  0
   44.8431    5.0755   12.1434 N   0  0  0  0  0  0  0  0  0  0  0  0
   42.6452   11.5769   11.8719 N   0  0  0  0  0  0  0  0  0  0  0  0
   45.2739    8.7525   12.0349 C   0  0  0  0  0  0  0  0  0  0  0  0
   45.4405    6.3248   12.4415 C   0  0  0  0  0  0  0  0  0  0  0  0
   46.5780    6.5619   13.2257 C   0  0  0  0  0  0  0  0  0  0  0  0
   44.7992    7.4388   11.8597 C   0  0  0  0  0  0  0  0  0  0  0  0
   44.5611    9.9302   11.4000 C   0  0  2  0  0  0  0  0  0  0  0  0
   46.4069    8.9539   12.8254 C   0  0  0  0  0  0  0  0  0  0  0  0
   47.0525    7.8640   13.4092 C   0  0  0  0  0  0  0  0  0  0  0  0
   43.2577   10.2678   12.1696 C   0  0  0  0  0  0  0  0  0  0  0  0
   42.7360   14.1683   10.1887 C   0  0  0  0  0  0  0  0  0  0  0  0
   42.0737   11.7142   10.5183 C   0  0  2  0  0  0  0  0  0  0  0  0
   41.5975   13.1747   10.3000 C   0  0  0  0  0  0  0  0  0  0  0  0
   44.8428   16.0197    9.9823 C   0  0  0  0  0  0  0  0  0  0  0  0
   43.5139   14.2284    9.0270 C   0  0  0  0  0  0  0  0  0  0  0  0
   43.0176   15.0455   11.2454 C   0  0  0  0  0  0  0  0  0  0  0  0
   45.2045    3.8156   12.5462 C   0  0  0  0  0  0  0  0  0  0  0  0
   44.5569   15.1487    8.9293 C   0  0  0  0  0  0  0  0  0  0  0  0
   44.0678   15.9640   11.1434 C   0  0  0  0  0  0  0  0  0  0  0  0
   40.8808   10.7730   10.2990 C   0  0  0  0  0  0  0  0  0  0  0  0
   46.1156   17.8841   10.7112 C   0  0  0  0  0  0  0  0  0  0  0  0
   43.8223   11.0087   11.3727 O   0  0  0  0  0  0  0  0  0  0  0  0
   44.2854   11.7826   10.9839 H   0  0  0  0  0  0  0  0  0  0  0  0
   44.4127   10.2744   11.2058 H   0  0  0  0  0  0  0  0  0  0  0  0
   44.3708   18.2399    8.0099 H   0  0  0  0  0  0  0  0  0  0  0  0
   45.1478   14.8915   13.0667 H   0  0  0  0  0  0  0  0  0  0  0  0
   41.5419   17.7246    9.3059 H   0  0  0  0  0  0  0  0  0  0  0  0
   45.6500   11.5294   12.9903 H   0  0  0  0  0  0  0  0  0  0  0  0
   42.3512   14.7747   11.4587 H   0  0  0  0  0  0  0  0  0  0  0  0
   43.7373   13.0417   12.0793 H   0  0  0  0  0  0  0  0  0  0  0  0
   46.4579   14.8986   10.1507 H   0  0  0  0  0  0  0  0  0  0  0  0
   45.9544   16.8103    8.7053 H   0  0  0  0  0  0  0  0  0  0  0  0
   46.5661   12.7922   10.9244 H   0  0  0  0  0  0  0  0  0  0  0  0
   45.1567   12.0603   10.1659 H   0  0  0  0  0  0  0  0  0  0  0  0
   45.2512    9.7730   10.6345 H   0  0  0  0  0  0  0  0  0  0  0  0
   45.3315    9.0069   13.6130 H   0  0  0  0  0  0  0  0  0  0  0  0
   46.7232    8.8805   12.5613 H   0  0  0  0  0  0  0  0  0  0  0  0
   46.5137    7.4639   10.3784 H   0  0  0  0  0  0  0  0  0  0  0  0
   43.7949    7.1641   13.7126 H   0  0  0  0  0  0  0  0  0  0  0  0
   39.5983   17.2751   10.3409 H   0  0  0  0  0  0  0  0  0  0  0  0
   45.8464    5.2058    9.6474 H   0  0  0  0  0  0  0  0  0  0  0  0
   43.1328    4.9350   12.9836 H   0  0  0  0  0  0  0  0  0  0  0  0
   43.1490   10.9453   11.2373 H   0  0  0  0  0  0  0  0  0  0  0  0
   43.3376   10.4814   12.9378 H   0  0  0  0  0  0  0  0  0  0  0  0
   43.0234    9.2562   11.6973 H   0  0  0  0  0  0  0  0  0  0  0  0
   42.3700    3.1851   11.6509 H   0  0  0  0  0  0  0  0  0  0  0  0
   43.8557    2.6512   12.5306 H   0  0  0  0  0  0  0  0  0  0  0  0
   43.3378    1.8338   11.0514 H   0  0  0  0  0  0  0  0  0  0  0  0
   43.7589    7.7020   11.6230 H   0  0  0  0  0  0  0  0  0  0  0  0
   44.5651   14.3428   10.7178 H   0  0  0  0  0  0  0  0  0  0  0  0
   45.5922   11.0850   10.5764 H   0  0  0  0  0  0  0  0  0  0  0  0
   42.7271   10.9614   11.7469 H   0  0  0  0  0  0  0  0  0  0  0  0
   46.9372    4.7267   13.6961 H   0  0  0  0  0  0  0  0  0  0  0  0
   45.1283    9.3337    9.6425 H   0  0  0  0  0  0  0  0  0  0  0  0
   44.0209    5.1142   11.5492 H   0  0  0  0  0  0  0  0  0  0  0  0
   43.3587   12.2967   11.9931 H   0  0  0  0  0  0  0  0  0  0  0  0
   43.9077    7.2970   11.2476 H   0  0  0  0  0  0  0  0  0  0  0  0
   45.2214   10.8075   11.3948 H   0  0  0  0  0  0  0  0  0  0  0  0
   46.8004    9.9539   12.9942 H   0  0  0  0  0  0  0  0  0  0  0  0
   47.9344    8.0259   14.0259 H   0  0  0  0  0  0  0  0  0  0  0  0
   42.5171    9.4679   12.0475 H   0  0  0  0  0  0  0  0  0  0  0  0
   43.4920   10.2914   13.2423 H   0  0  0  0  0  0  0  0  0  0  0  0
   42.8348   11.4957    9.7626 H   0  0  0  0  0  0  0  0  0  0  0  0
   41.0102   13.2396    9.3706 H   0  0  0  0  0  0  0  0  0  0  0  0
   40.9112   13.4718   11.1073 H   0  0  0  0  0  0  0  0  0  0  0  0
   43.3094   13.5589    8.1929 H   0  0  0  0  0  0  0  0  0  0  0  0
   42.4272   15.0109   12.1587 H   0  0  0  0  0  0  0  0  0  0  0  0
   44.5176    3.0578   12.1308 H   0  0  0  0  0  0  0  0  0  0  0  0
   45.1527   15.1867    8.0199 H   0  0  0  0  0  0  0  0  0  0  0  0
   44.2574   16.6199   11.9866 H   0  0  0  0  0  0  0  0  0  0  0  0
   40.0936   10.9453   11.0368 H   0  0  0  0  0  0  0  0  0  0  0  0
   40.4519   10.9362    9.3074 H   0  0  0  0  0  0  0  0  0  0  0  0
   41.1780    9.7222   10.3431 H   0  0  0  0  0  0  0  0  0  0  0  0
   46.4533   17.4569   11.6611 H   0  0  0  0  0  0  0  0  0  0  0  0
   46.9158   18.5299   10.3333 H   0  0  0  0  0  0  0  0  0  0  0  0
   45.2255   18.5090   10.8499 H   0  0  0  0  0  0  0  0  0  0  0  0
   44.2576   11.7888   10.9972 H   0  0  0  0  0  0  0  0  0  0  0  0
   44.4394   10.2840   11.1901 H   0  0  0  0  0  0  0  0  0  0  0  0
  2 10  1  0
  3 12  1  0
  4 19  1  0
  4 26  1  0
  5 22  2  0
  6  9  1  0
  6 22  1  0
  7 15  1  0
  7 17  1  0
  8 11  2  0
  8 12  1  0
  8 13  1  0
  9 10  2  0
  9 11  1  0
 10 14  1  0
 12 15  1  0
 13 14  2  0
 16 18  1  0
 16 20  2  0
 16 21  1  0
 17 18  1  0
 17 25  1  0
 19 23  2  0
 19 24  1  0
 20 23  1  0
 21 24  2  0
 27 31  1  0
 28 32  1  0
 29 31  2  0
 30 32  2  0
 31 33  1  0
 32 34  1  0
 33 34  2  0
 35 43  1  0
 36 45  1  0
 37 52  1  0
 37 59  1  0
 38 55  2  0
 39 42  1  0
 39 55  1  0
 40 48  1  0
 40 50  1  0
 41 44  2  0
 41 45  1  0
 41 46  1  0
 42 43  2  0
 42 44  1  0
 43 47  1  0
 45 48  1  0
 46 47  2  0
 49 51  1  0
 49 53  2  0
 49 54  1  0
 50 51  1  0
 50 58  1  0
 52 56  2  0
 52 57  1  0
 53 56  1  0
 54 57  2  0
  1 61  1  0
  1 62  1  0
  2 63  1  0
  3 64  1  0
  6 65  1  0
  7 66  1  0
 11 67  1  0
 12 68  1  6
 13 69  1  0
 14 70  1  0
 15 71  1  0
 15 72  1  0
 17 73  1  6
 18 74  1  0
 18 75  1  0
 20 76  1  0
 21 77  1  0
 22 78  1  0
 23 79  1  0
 24 80  1  0
 25 81  1  0
 25 82  1  0
 25 83  1  0
 26 84  1  0
 26 85  1  0
 26 86  1  0
 27 87  1  0
 28 88  1  0
 33 89  1  0
 34 90  1  0
 35 91  1  0
 36 92  1  0
 39 93  1  0
 40 94  1  0
 44 95  1  0
 45 96  1  1
 46 97  1  0
 47 98  1  0
 48 99  1  0
 48100  1  0
 50101  1  6
 51102  1  0
 51103  1  0
 53104  1  0
 54105  1  0
 55106  1  0
 56107  1  0
 57108  1  0
 58109  1  0
 58110  1  0
 58111  1  0
 59112  1  0
 59113  1  0
 59114  1  0
 60115  1  0
 60116  1  0
M  END
> <Uni-Dock RESULT> 
ENERGY=   -4.659  LOWER_BOUND=    3.257  UPPER_BOUND=    5.963
INTER + INTRA:          -4.659
INTER:                  -4.659
INTRA:                   0.000
UNBOUND:                 0.000

$$$$

     RDKit          3D

116115  0  0  0  0  0  0  0  0999 V2000
   49.5424   10.7662   12.2470 O   0  0  0  0  0  0  0  0  0  0  0  0
   48.6935    7.7539   19.0971 O   0  0  0  0  0  0  0  0  0  0  0  0
   50.7465   12.3564   15.3095 O   0  0  0  0  0  0  0  0  0  0  0  0
   47.3050   12.0244    5.3160 O   0  0  0  0  0  0  0  0  0  0  0  0
   52.3896    7.0467   15.8251 O   0  0  0  0  0  0  0  0  0  0  0  0
   50.7222    7.1012   17.4654 N   0  0  0  0  0  0  0  0  0  0  0  0
   49.1260   12.7263   12.9140 N   0  0  0  0  0  0  0  0  0  0  0  0
   49.5867   10.3476   15.9548 C   0  0  0  0  0  0  0  0  0  0  0  0
   50.0294    8.2992   17.2050 C   0  0  0  0  0  0  0  0  0  0  0  0
   48.9776    8.6210   18.0724 C   0  0  0  0  0  0  0  0  0  0  0  0
   50.3283    9.1663   16.1518 C   0  0  0  0  0  0  0  0  0  0  0  0
   49.9578   11.2697   14.8078 C   0  0  1  0  0  0  0  0  0  0  0  0
   48.5601   10.6611   16.8611 C   0  0  0  0  0  0  0  0  0  0  0  0
   48.2441    9.7932   17.9092 C   0  0  0  0  0  0  0  0  0  0  0  0
   48.7409   11.8368   14.0237 C   0  0  0  0  0  0  0  0  0  0  0  0
   48.7200   12.9319    9.1394 C   0  0  0  0  0  0  0  0  0  0  0  0
   48.9699   12.1453   11.5719 C   0  0  1  0  0  0  0  0  0  0  0  0
   49.1809   13.2796   10.5373 C   0  0  0  0  0  0  0  0  0  0  0  0
   47.8535   12.3129    6.5346 C   0  0  0  0  0  0  0  0  0  0  0  0
   47.3534   12.8753    8.8388 C   0  0  0  0  0  0  0  0  0  0  0  0
   49.6467   12.6640    8.1249 C   0  0  0  0  0  0  0  0  0  0  0  0
   51.7972    6.5841   16.7904 C   0  0  0  0  0  0  0  0  0  0  0  0
   46.9267   12.5655    7.5469 C   0  0  0  0  0  0  0  0  0  0  0  0
   49.2171   12.3567    6.8295 C   0  0  0  0  0  0  0  0  0  0  0  0
   49.9481   10.9920   11.3271 C   0  0  0  0  0  0  0  0  0  0  0  0
   48.1998   11.9693    4.2144 C   0  0  0  0  0  0  0  0  0  0  0  0
   49.3668   11.1165    9.8983 O   0  0  0  0  0  0  0  0  0  0  0  0
   49.0336   10.7667   14.8058 O   0  0  0  0  0  0  0  0  0  0  0  0
   47.5919   12.4003   10.3335 O   0  0  0  0  0  0  0  0  0  0  0  0
   50.7947    9.4605   14.3680 O   0  0  0  0  0  0  0  0  0  0  0  0
   48.4823   11.6751   10.7365 C   0  0  0  0  0  0  0  0  0  0  0  0
   49.9103   10.1946   13.9667 C   0  0  0  0  0  0  0  0  0  0  0  0
   48.7024   11.3351   12.1443 C   0  0  0  0  0  0  0  0  0  0  0  0
   49.6910   10.5309   12.5579 C   0  0  0  0  0  0  0  0  0  0  0  0
   48.7405   15.9539    7.7509 O   0  0  0  0  0  0  0  0  0  0  0  0
   47.8979   10.6773   11.1069 O   0  0  0  0  0  0  0  0  0  0  0  0
   48.3568   10.5556   18.5383 O   0  0  0  0  0  0  0  0  0  0  0  0
   48.3851   15.0341    5.4559 O   0  0  0  0  0  0  0  0  0  0  0  0
   48.4349   13.0801    6.7287 N   0  0  0  0  0  0  0  0  0  0  0  0
   50.6714    9.9719   12.4304 N   0  0  0  0  0  0  0  0  0  0  0  0
   48.8920   12.7234   10.3868 C   0  0  0  0  0  0  0  0  0  0  0  0
   48.6429   13.5109    8.0620 C   0  0  0  0  0  0  0  0  0  0  0  0
   48.7745   14.8282    8.5229 C   0  0  0  0  0  0  0  0  0  0  0  0
   48.7115   12.4714    9.0135 C   0  0  0  0  0  0  0  0  0  0  0  0
   48.9655   11.5851   11.3852 C   0  0  2  0  0  0  0  0  0  0  0  0
   49.0237   14.0467   10.8117 C   0  0  0  0  0  0  0  0  0  0  0  0
   48.9596   15.0866    9.8843 C   0  0  0  0  0  0  0  0  0  0  0  0
   50.3388   10.8689   11.3068 C   0  0  0  0  0  0  0  0  0  0  0  0
   49.7553    8.6774   15.0840 C   0  0  0  0  0  0  0  0  0  0  0  0
   49.8550    8.7462   12.5238 C   0  0  2  0  0  0  0  0  0  0  0  0
   50.2168    7.9773   13.8220 C   0  0  0  0  0  0  0  0  0  0  0  0
   48.9037    9.9705   17.4318 C   0  0  0  0  0  0  0  0  0  0  0  0
   48.4020    8.6790   15.4398 C   0  0  0  0  0  0  0  0  0  0  0  0
   50.6807    9.3243   15.9150 C   0  0  0  0  0  0  0  0  0  0  0  0
   48.3274   13.8185    5.5783 C   0  0  0  0  0  0  0  0  0  0  0  0
   47.9849    9.3210   16.6053 C   0  0  0  0  0  0  0  0  0  0  0  0
   50.2561    9.9701   17.0810 C   0  0  0  0  0  0  0  0  0  0  0  0
   50.0779    7.8134   11.3249 C   0  0  0  0  0  0  0  0  0  0  0  0
   49.2594   11.0804   19.4978 C   0  0  0  0  0  0  0  0  0  0  0  0
   49.5404   10.7713   12.2320 O   0  0  0  0  0  0  0  0  0  0  0  0
   49.1419   10.8049   13.1290 H   0  0  0  0  0  0  0  0  0  0  0  0
   48.9495   11.2971   11.6934 H   0  0  0  0  0  0  0  0  0  0  0  0
   47.9524    8.1226   19.6050 H   0  0  0  0  0  0  0  0  0  0  0  0
   51.0980   12.0878   16.1744 H   0  0  0  0  0  0  0  0  0  0  0  0
   50.3596    6.5872   18.2650 H   0  0  0  0  0  0  0  0  0  0  0  0
   50.0804   13.0563   13.0779 H   0  0  0  0  0  0  0  0  0  0  0  0
   51.1396    8.9394   15.4632 H   0  0  0  0  0  0  0  0  0  0  0  0
   50.5984   10.7224   14.1075 H   0  0  0  0  0  0  0  0  0  0  0  0
   47.9955   11.5889   16.7613 H   0  0  0  0  0  0  0  0  0  0  0  0
   47.4373   10.0547   18.5866 H   0  0  0  0  0  0  0  0  0  0  0  0
   48.1502   12.4697   14.7004 H   0  0  0  0  0  0  0  0  0  0  0  0
   48.0745   11.0304   13.6903 H   0  0  0  0  0  0  0  0  0  0  0  0
   47.9431   11.7671   11.4767 H   0  0  0  0  0  0  0  0  0  0  0  0
   50.2376   13.5782   10.5176 H   0  0  0  0  0  0  0  0  0  0  0  0
   48.6274   14.1773   10.8453 H   0  0  0  0  0  0  0  0  0  0  0  0
   46.6100   13.0771    9.6063 H   0  0  0  0  0  0  0  0  0  0  0  0
   50.7136   12.6950    8.3358 H   0  0  0  0  0  0  0  0  0  0  0  0
   52.1147    5.6274   17.2407 H   0  0  0  0  0  0  0  0  0  0  0  0
   45.8647   12.5339    7.3197 H   0  0  0  0  0  0  0  0  0  0  0  0
   49.9733   12.1521    6.0784 H   0  0  0  0  0  0  0  0  0  0  0  0
   49.7539   10.1555   12.0062 H   0  0  0  0  0  0  0  0  0  0  0  0
   50.9863   11.3117   11.4704 H   0  0  0  0  0  0  0  0  0  0  0  0
   49.8509   10.6004   10.3112 H   0  0  0  0  0  0  0  0  0  0  0  0
   48.8781   11.1152    4.3049 H   0  0  0  0  0  0  0  0  0  0  0  0
   48.7532   12.9072    4.1074 H   0  0  0  0  0  0  0  0  0  0  0  0
   47.6058   11.8271    3.3067 H   0  0  0  0  0  0  0  0  0  0  0  0
   49.0936   11.4411    9.0144 H   0  0  0  0  0  0  0  0  0  0  0  0
   49.3109   10.4370   15.6862 H   0  0  0  0  0  0  0  0  0  0  0  0
   47.9953   11.7835   12.8324 H   0  0  0  0  0  0  0  0  0  0  0  0
   50.3972   10.0810   11.8699 H   0  0  0  0  0  0  0  0  0  0  0  0
   48.6049   15.7034    6.8131 H   0  0  0  0  0  0  0  0  0  0  0  0
   47.0828   11.2080   11.1030 H   0  0  0  0  0  0  0  0  0  0  0  0
   48.3606   12.0759    6.5997 H   0  0  0  0  0  0  0  0  0  0  0  0
   50.5624   10.4965   13.2991 H   0  0  0  0  0  0  0  0  0  0  0  0
   48.6197   11.4325    8.6943 H   0  0  0  0  0  0  0  0  0  0  0  0
   48.8102   11.9698   12.4019 H   0  0  0  0  0  0  0  0  0  0  0  0
   49.1744   14.2842   11.8626 H   0  0  0  0  0  0  0  0  0  0  0  0
   49.0643   16.1165   10.2199 H   0  0  0  0  0  0  0  0  0  0  0  0
   50.4441   10.3356   10.3541 H   0  0  0  0  0  0  0  0  0  0  0  0
   51.1238   11.6368   11.3031 H   0  0  0  0  0  0  0  0  0  0  0  0
   48.7921    9.0027   12.5739 H   0  0  0  0  0  0  0  0  0  0  0  0
   49.7486    6.9806   13.8070 H   0  0  0  0  0  0  0  0  0  0  0  0
   51.3015    7.7962   13.8626 H   0  0  0  0  0  0  0  0  0  0  0  0
   47.6673    8.1790   14.8106 H   0  0  0  0  0  0  0  0  0  0  0  0
   51.7367    9.3382   15.6530 H   0  0  0  0  0  0  0  0  0  0  0  0
   48.1686   13.1636    4.7040 H   0  0  0  0  0  0  0  0  0  0  0  0
   46.9302    9.3130   16.8716 H   0  0  0  0  0  0  0  0  0  0  0  0
   51.0031   10.4652   17.6926 H   0  0  0  0  0  0  0  0  0  0  0  0
   51.1294    7.5339   11.2248 H   0  0  0  0  0  0  0  0  0  0  0  0
   49.4981    6.8960   11.4508 H   0  0  0  0  0  0  0  0  0  0  0  0
   49.7460    8.2681   10.3882 H   0  0  0  0  0  0  0  0  0  0  0  0
   49.7955   11.9472   19.0975 H   0  0  0  0  0  0  0  0  0  0  0  0
   48.6732   11.4199   20.3588 H   0  0  0  0  0  0  0  0  0  0  0  0
   49.9554   10.3123   19.8551 H   0  0  0  0  0  0  0  0  0  0  0  0
   49.1684   10.7881   13.1266 H   0  0  0  0  0  0  0  0  0  0  0  0
   48.9249   11.3088   11.7109 H   0  0  0  0  0  0  0  0  0  0  0  0
  2 10  1  0
  3 12  1  0
  4 19  1  0
  4 26  1  0
  5 22  2  0
  6  9  1  0
  6 22  1  0
  7 15  1  0
  7 17  1  0
  8 11  2  0
  8 12  1  0
  8 13  1  0
  9 10  2  0
  9 11  1  0
 10 14  1  0
 12 15  1  0
 13 14  2  0
 16 18  1  0
 16 20  2  0
 16 21  1  0
 17 18  1  0
 17 25  1  0
 19 23  2  0
 19 24  1  0
 20 23  1  0
 21 24  2  0
 27 31  1  0
 28 32  1  0
 29 31  2  0
 30 32  2  0
 31 33  1  0
 32 34  1  0
 33 34  2  0
 35 43  1  0
 36 45  1  0
 37 52  1  0
 37 59  1  0
 38 55  2  0
 39 42  1  0
 39 55  1  0
 40 48  1  0
 40 50  1  0
 41 44  2  0
 41 45  1  0
 41 46  1  0
 42 43  2  0
 42 44  1  0
 43 47  1  0
 45 48  1  0
 46 47  2  0
 49 51  1  0
 49 53  2  0
 49 54  1  0
 50 51  1  0
 50 58  1  0
 52 56  2  0
 52 57  1  0
 53 56  1  0
 54 57  2  0
  1 61  1  0
  1 62  1  0
  2 63  1  0
  3 64  1  0
  6 65  1  0
  7 66  1  0
 11 67  1  0
 12 68  1  6
 13 69  1  0
 14 70  1  0
 15 71  1  0
 15 72  1  0
 17 73  1  6
 18 74  1  0
 18 75  1  0
 20 76  1  0
 21 77  1  0
 22 78  1  0
 23 79  1  0
 24 80  1  0
 25 81  1  0
 25 82  1  0
 25 83  1  0
 26 84  1  0
 26 85  1  0
 26 86  1  0
 27 87  1  0
 28 88  1  0
 33 89  1  0
 34 90  1  0
 35 91  1  0
 36 92  1  0
 39 93  1  0
 40 94  1  0
 44 95  1  0
 45 96  1  1
 46 97  1  0
 47 98  1  0
 48 99  1  0
 48100  1  0
 50101  1  6
 51102  1  0
 51103  1  0
 53104  1  0
 54105  1  0
 55106  1  0
 56107  1  0
 57108  1  0
 58109  1  0
 58110  1  0
 58111  1  0
 59112  1  0
 59113  1  0
 59114  1  0
 60115  1  0
 60116  1  0
M  END
> <Uni-Dock RESULT> 
ENERGY=   -4.424  LOWER_BOUND=    4.880  UPPER_BOUND=    8.552
INTER + INTRA:          -4.424
INTER:                  -4.424
INTRA:                   0.000
UNBOUND:                 0.000

$$$$

     RDKit          3D

116115  0  0  0  0  0  0  0  0999 V2000
   48.9732   10.6200   15.4599 O   0  0  0  0  0  0  0  0  0  0  0  0
   51.9358   15.3654   10.4178 O   0  0  0  0  0  0  0  0  0  0  0  0
   47.4658   13.8341   14.5913 O   0  0  0  0  0  0  0  0  0  0  0  0
   49.5318    5.4930   20.7542 O   0  0  0  0  0  0  0  0  0  0  0  0
   48.7697   11.5901    9.6494 O   0  0  0  0  0  0  0  0  0  0  0  0
   50.3479   13.3156    9.7240 N   0  0  0  0  0  0  0  0  0  0  0  0
   48.4191   12.1677   16.7857 N   0  0  0  0  0  0  0  0  0  0  0  0
   49.5368   13.6633   13.3752 C   0  0  0  0  0  0  0  0  0  0  0  0
   50.3151   13.7474   11.0639 C   0  0  0  0  0  0  0  0  0  0  0  0
   51.1490   14.8212   11.4013 C   0  0  0  0  0  0  0  0  0  0  0  0
   49.5126   13.1759   12.0538 C   0  0  0  0  0  0  0  0  0  0  0  0
   48.6347   13.0236   14.4148 C   0  0  1  0  0  0  0  0  0  0  0  0
   50.3573   14.7633   13.6758 C   0  0  0  0  0  0  0  0  0  0  0  0
   51.1743   15.3326   12.6961 C   0  0  0  0  0  0  0  0  0  0  0  0
   49.3130   12.7920   15.7945 C   0  0  0  0  0  0  0  0  0  0  0  0
   48.2659    9.0261   18.9215 C   0  0  0  0  0  0  0  0  0  0  0  0
   48.7025   10.7529   17.0706 C   0  0  1  0  0  0  0  0  0  0  0  0
   47.8436   10.3342   18.2906 C   0  0  0  0  0  0  0  0  0  0  0  0
   49.0450    6.6032   20.1221 C   0  0  0  0  0  0  0  0  0  0  0  0
   49.4363    8.9556   19.6873 C   0  0  0  0  0  0  0  0  0  0  0  0
   47.4969    7.8683   18.7542 C   0  0  0  0  0  0  0  0  0  0  0  0
   49.6124   12.3168    9.1409 C   0  0  0  0  0  0  0  0  0  0  0  0
   49.8214    7.7521   20.2792 C   0  0  0  0  0  0  0  0  0  0  0  0
   47.8830    6.6634   19.3511 C   0  0  0  0  0  0  0  0  0  0  0  0
   48.4144    9.8543   15.8638 C   0  0  0  0  0  0  0  0  0  0  0  0
   48.6744    4.3617   20.8000 C   0  0  0  0  0  0  0  0  0  0  0  0
   48.7002    8.7548   16.9147 O   0  0  0  0  0  0  0  0  0  0  0  0
   49.6804   12.9389   14.4961 O   0  0  0  0  0  0  0  0  0  0  0  0
   49.6275   10.0068   18.5147 O   0  0  0  0  0  0  0  0  0  0  0  0
   48.7761   11.6765   12.8875 O   0  0  0  0  0  0  0  0  0  0  0  0
   49.2687    9.8849   17.3582 C   0  0  0  0  0  0  0  0  0  0  0  0
   49.1254   11.8031   14.0468 C   0  0  0  0  0  0  0  0  0  0  0  0
   49.3987   10.9250   16.3349 C   0  0  0  0  0  0  0  0  0  0  0  0
   48.9963   10.7603   15.0676 C   0  0  0  0  0  0  0  0  0  0  0  0
   46.5872    9.1932   21.7877 O   0  0  0  0  0  0  0  0  0  0  0  0
   50.3097    9.8449   16.7346 O   0  0  0  0  0  0  0  0  0  0  0  0
   50.7620   16.2141   12.9031 O   0  0  0  0  0  0  0  0  0  0  0  0
   47.1108    6.8218   22.3721 O   0  0  0  0  0  0  0  0  0  0  0  0
   48.1817    7.0315   20.3106 N   0  0  0  0  0  0  0  0  0  0  0  0
   48.4209   10.2362   14.2405 N   0  0  0  0  0  0  0  0  0  0  0  0
   48.3545    9.9939   18.0941 C   0  0  0  0  0  0  0  0  0  0  0  0
   47.9281    8.3616   19.8943 C   0  0  0  0  0  0  0  0  0  0  0  0
   47.2037    9.3472   20.5792 C   0  0  0  0  0  0  0  0  0  0  0  0
   48.4906    8.7064   18.6472 C   0  0  0  0  0  0  0  0  0  0  0  0
   48.9672   10.3337   16.7499 C   0  0  2  0  0  0  0  0  0  0  0  0
   47.6231   10.9507   18.8004 C   0  0  0  0  0  0  0  0  0  0  0  0
   47.0591   10.6264   20.0341 C   0  0  0  0  0  0  0  0  0  0  0  0
   48.1384    9.7178   15.5929 C   0  0  0  0  0  0  0  0  0  0  0  0
   50.1369   12.1098   12.4793 C   0  0  0  0  0  0  0  0  0  0  0  0
   49.7461    9.8866   13.6936 C   0  0  2  0  0  0  0  0  0  0  0  0
   49.9579   10.6118   12.3384 C   0  0  0  0  0  0  0  0  0  0  0  0
   50.4685   14.8911   12.7314 C   0  0  0  0  0  0  0  0  0  0  0  0
   51.3361   12.6377   12.9706 C   0  0  0  0  0  0  0  0  0  0  0  0
   49.1057   12.9850   12.1105 C   0  0  0  0  0  0  0  0  0  0  0  0
   47.7824    6.3811   21.4497 C   0  0  0  0  0  0  0  0  0  0  0  0
   51.4958   14.0176   13.0930 C   0  0  0  0  0  0  0  0  0  0  0  0
   49.2701   14.3682   12.2391 C   0  0  0  0  0  0  0  0  0  0  0  0
   49.8953    8.3754   13.4680 C   0  0  0  0  0  0  0  0  0  0  0  0
   49.8251   17.1494   12.3949 C   0  0  0  0  0  0  0  0  0  0  0  0
   48.9707   10.6095   15.4717 O   0  0  0  0  0  0  0  0  0  0  0  0
   49.3910   11.4729   15.2655 H   0  0  0  0  0  0  0  0  0  0  0  0
   49.1579   10.4738   16.4002 H   0  0  0  0  0  0  0  0  0  0  0  0
   52.4412   16.0968   10.8085 H   0  0  0  0  0  0  0  0  0  0  0  0
   47.3899   14.4113   13.8135 H   0  0  0  0  0  0  0  0  0  0  0  0
   51.0014   13.8372    9.1445 H   0  0  0  0  0  0  0  0  0  0  0  0
   47.4514   12.3098   16.4859 H   0  0  0  0  0  0  0  0  0  0  0  0
   48.8566   12.3403   11.8185 H   0  0  0  0  0  0  0  0  0  0  0  0
   48.2848   12.0582   14.0329 H   0  0  0  0  0  0  0  0  0  0  0  0
   50.3667   15.1913   14.6790 H   0  0  0  0  0  0  0  0  0  0  0  0
   51.8079   16.1736   12.9599 H   0  0  0  0  0  0  0  0  0  0  0  0
   49.5746   13.7680   16.2262 H   0  0  0  0  0  0  0  0  0  0  0  0
   50.2542   12.2375   15.6846 H   0  0  0  0  0  0  0  0  0  0  0  0
   49.7639   10.6604   17.3377 H   0  0  0  0  0  0  0  0  0  0  0  0
   46.7842   10.2850   18.0050 H   0  0  0  0  0  0  0  0  0  0  0  0
   47.9017   11.1031   19.0732 H   0  0  0  0  0  0  0  0  0  0  0  0
   50.0548    9.8378   19.8337 H   0  0  0  0  0  0  0  0  0  0  0  0
   46.5873    7.8966   18.1581 H   0  0  0  0  0  0  0  0  0  0  0  0
   49.8666   12.2216    8.0708 H   0  0  0  0  0  0  0  0  0  0  0  0
   50.7255    7.7085   20.8803 H   0  0  0  0  0  0  0  0  0  0  0  0
   47.2567    5.7922   19.1886 H   0  0  0  0  0  0  0  0  0  0  0  0
   49.0721   10.0959   15.0227 H   0  0  0  0  0  0  0  0  0  0  0  0
   47.3776    9.9602   15.5255 H   0  0  0  0  0  0  0  0  0  0  0  0
   48.5867    8.8020   16.1047 H   0  0  0  0  0  0  0  0  0  0  0  0
   48.5294    3.9412   19.8000 H   0  0  0  0  0  0  0  0  0  0  0  0
   47.7179    4.6095   21.2700 H   0  0  0  0  0  0  0  0  0  0  0  0
   49.1600    3.5977   21.4144 H   0  0  0  0  0  0  0  0  0  0  0  0
   48.6788    8.1741   17.7044 H   0  0  0  0  0  0  0  0  0  0  0  0
   49.7006   13.5135   13.7023 H   0  0  0  0  0  0  0  0  0  0  0  0
   49.8541   11.8449   16.6823 H   0  0  0  0  0  0  0  0  0  0  0  0
   48.5425    9.8398   14.7194 H   0  0  0  0  0  0  0  0  0  0  0  0
   46.7301    8.2801   22.1138 H   0  0  0  0  0  0  0  0  0  0  0  0
   50.7435   10.2148   17.5227 H   0  0  0  0  0  0  0  0  0  0  0  0
   48.7351    6.4706   19.6705 H   0  0  0  0  0  0  0  0  0  0  0  0
   48.3434   11.2536   14.2674 H   0  0  0  0  0  0  0  0  0  0  0  0
   49.0564    7.9661   18.0803 H   0  0  0  0  0  0  0  0  0  0  0  0
   49.0153   11.4237   16.6264 H   0  0  0  0  0  0  0  0  0  0  0  0
   47.4858   11.9543   18.4037 H   0  0  0  0  0  0  0  0  0  0  0  0
   46.4886   11.3750   20.5804 H   0  0  0  0  0  0  0  0  0  0  0  0
   48.2144    8.6235   15.6013 H   0  0  0  0  0  0  0  0  0  0  0  0
   47.0789    9.9410   15.7765 H   0  0  0  0  0  0  0  0  0  0  0  0
   50.5358   10.2177   14.3754 H   0  0  0  0  0  0  0  0  0  0  0  0
   50.8579   10.2168   11.8416 H   0  0  0  0  0  0  0  0  0  0  0  0
   49.1213   10.3912   11.6584 H   0  0  0  0  0  0  0  0  0  0  0  0
   52.1511   11.9758   13.2589 H   0  0  0  0  0  0  0  0  0  0  0  0
   48.1640   12.5937   11.7309 H   0  0  0  0  0  0  0  0  0  0  0  0
   48.1546    5.3419   21.4601 H   0  0  0  0  0  0  0  0  0  0  0  0
   52.4338   14.4152   13.4742 H   0  0  0  0  0  0  0  0  0  0  0  0
   48.4450   15.0106   11.9495 H   0  0  0  0  0  0  0  0  0  0  0  0
   49.1217    7.9919   12.7986 H   0  0  0  0  0  0  0  0  0  0  0  0
   50.8665    8.1578   13.0170 H   0  0  0  0  0  0  0  0  0  0  0  0
   49.8536    7.8176   14.4069 H   0  0  0  0  0  0  0  0  0  0  0  0
   48.8881   17.1109   12.9600 H   0  0  0  0  0  0  0  0  0  0  0  0
   50.2496   18.1514   12.5217 H   0  0  0  0  0  0  0  0  0  0  0  0
   49.6501   16.9988   11.3231 H   0  0  0  0  0  0  0  0  0  0  0  0
   49.3764   11.4588   15.2414 H   0  0  0  0  0  0  0  0  0  0  0  0
   49.1750   10.4984   16.4125 H   0  0  0  0  0  0  0  0  0  0  0  0
  2 10  1  0
  3 12  1  0
  4 19  1  0
  4 26  1  0
  5 22  2  0
  6  9  1  0
  6 22  1  0
  7 15  1  0
  7 17  1  0
  8 11  2  0
  8 12  1  0
  8 13  1  0
  9 10  2  0
  9 11  1  0
 10 14  1  0
 12 15  1  0
 13 14  2  0
 16 18  1  0
 16 20  2  0
 16 21  1  0
 17 18  1  0
 17 25  1  0
 19 23  2  0
 19 24  1  0
 20 23  1  0
 21 24  2  0
 27 31  1  0
 28 32  1  0
 29 31  2  0
 30 32  2  0
 31 33  1  0
 32 34  1  0
 33 34  2  0
 35 43  1  0
 36 45  1  0
 37 52  1  0
 37 59  1  0
 38 55  2  0
 39 42  1  0
 39 55  1  0
 40 48  1  0
 40 50  1  0
 41 44  2  0
 41 45  1  0
 41 46  1  0
 42 43  2  0
 42 44  1  0
 43 47  1  0
 45 48  1  0
 46 47  2  0
 49 51  1  0
 49 53  2  0
 49 54  1  0
 50 51  1  0
 50 58  1  0
 52 56  2  0
 52 57  1  0
 53 56  1  0
 54 57  2  0
  1 61  1  0
  1 62  1  0
  2 63  1  0
  3 64  1  0
  6 65  1  0
  7 66  1  0
 11 67  1  0
 12 68  1  6
 13 69  1  0
 14 70  1  0
 15 71  1  0
 15 72  1  0
 17 73  1  6
 18 74  1  0
 18 75  1  0
 20 76  1  0
 21 77  1  0
 22 78  1  0
 23 79  1  0
 24 80  1  0
 25 81  1  0
 25 82  1  0
 25 83  1  0
 26 84  1  0
 26 85  1  0
 26 86  1  0
 27 87  1  0
 28 88  1  0
 33 89  1  0
 34 90  1  0
 35 91  1  0
 36 92  1  0
 39 93  1  0
 40 94  1  0
 44 95  1  0
 45 96  1  1
 46 97  1  0
 47 98  1  0
 48 99  1  0
 48100  1  0
 50101  1  6
 51102  1  0
 51103  1  0
 53104  1  0
 54105  1  0
 55106  1  0
 56107  1  0
 57108  1  0
 58109  1  0
 58110  1  0
 58111  1  0
 59112  1  0
 59113  1  0
 59114  1  0
 60115  1  0
 60116  1  0
M  END
> <Uni-Dock RESULT> 
ENERGY=   -4.403  LOWER_BOUND=    5.886  UPPER_BOUND=    8.909
INTER + INTRA:          -4.403
INTER:                  -4.403
INTRA:                   0.000
UNBOUND:                 0.000

$$$$

     RDKit          3D

116115  0  0  0  0  0  0  0  0999 V2000
   48.9395   11.2534   17.5546 O   0  0  0  0  0  0  0  0  0  0  0  0
   47.4284   17.3039   13.3324 O   0  0  0  0  0  0  0  0  0  0  0  0
   50.8678   12.1721   14.5889 O   0  0  0  0  0  0  0  0  0  0  0  0
   46.9258    5.6164   21.8902 O   0  0  0  0  0  0  0  0  0  0  0  0
   50.3296   16.9787   17.3753 O   0  0  0  0  0  0  0  0  0  0  0  0
   48.9280   17.4227   15.5554 N   0  0  0  0  0  0  0  0  0  0  0  0
   49.3689   10.0333   15.8850 N   0  0  0  0  0  0  0  0  0  0  0  0
   49.0587   13.7489   14.7827 C   0  0  0  0  0  0  0  0  0  0  0  0
   48.7444   16.1628   14.9537 C   0  0  0  0  0  0  0  0  0  0  0  0
   47.9618   16.1264   13.7924 C   0  0  0  0  0  0  0  0  0  0  0  0
   49.2894   14.9729   15.4408 C   0  0  0  0  0  0  0  0  0  0  0  0
   49.6855   12.4827   15.3373 C   0  0  1  0  0  0  0  0  0  0  0  0
   48.2985   13.7487   13.6013 C   0  0  0  0  0  0  0  0  0  0  0  0
   47.7372   14.9314   13.1140 C   0  0  0  0  0  0  0  0  0  0  0  0
   48.7395   11.2489   15.3398 C   0  0  0  0  0  0  0  0  0  0  0  0
   48.8299    7.5585   18.7205 C   0  0  0  0  0  0  0  0  0  0  0  0
   48.9102    9.6478   17.2282 C   0  0  1  0  0  0  0  0  0  0  0  0
   49.4805    8.2405   17.5376 C   0  0  0  0  0  0  0  0  0  0  0  0
   47.6219    6.2636   20.9074 C   0  0  0  0  0  0  0  0  0  0  0  0
   47.5339    7.0390   18.6125 C   0  0  0  0  0  0  0  0  0  0  0  0
   49.5091    7.4326   19.9381 C   0  0  0  0  0  0  0  0  0  0  0  0
   49.6678   17.7265   16.6684 C   0  0  0  0  0  0  0  0  0  0  0  0
   46.9365    6.3998   19.6995 C   0  0  0  0  0  0  0  0  0  0  0  0
   48.9098    6.7885   21.0258 C   0  0  0  0  0  0  0  0  0  0  0  0
   49.3402   10.6595   18.2952 C   0  0  0  0  0  0  0  0  0  0  0  0
   47.6534    5.2687   23.0593 C   0  0  0  0  0  0  0  0  0  0  0  0
   48.7621    9.5660   19.2253 O   0  0  0  0  0  0  0  0  0  0  0  0
   48.6401   12.6027   15.3419 O   0  0  0  0  0  0  0  0  0  0  0  0
   47.6644    8.3406   17.7150 O   0  0  0  0  0  0  0  0  0  0  0  0
   49.7161   13.8398   16.8620 O   0  0  0  0  0  0  0  0  0  0  0  0
   48.2239    9.3798   18.0117 C   0  0  0  0  0  0  0  0  0  0  0  0
   49.1657   12.7965   16.5609 C   0  0  0  0  0  0  0  0  0  0  0  0
   48.3848   10.5227   17.1096 C   0  0  0  0  0  0  0  0  0  0  0  0
   49.0041   11.6560   17.4661 C   0  0  0  0  0  0  0  0  0  0  0  0
   49.9417    4.4542   18.2868 O   0  0  0  0  0  0  0  0  0  0  0  0
   47.3209   10.1899   18.0654 O   0  0  0  0  0  0  0  0  0  0  0  0
   48.1804   14.7504   12.2418 O   0  0  0  0  0  0  0  0  0  0  0  0
   49.1051    3.7137   20.5210 O   0  0  0  0  0  0  0  0  0  0  0  0
   48.4686    5.9577   20.5154 N   0  0  0  0  0  0  0  0  0  0  0  0
   49.6766   12.2846   18.1313 N   0  0  0  0  0  0  0  0  0  0  0  0
   48.9876    8.4940   17.8667 C   0  0  0  0  0  0  0  0  0  0  0  0
   48.9155    6.4671   19.2714 C   0  0  0  0  0  0  0  0  0  0  0  0
   49.5824    5.7710   18.2537 C   0  0  0  0  0  0  0  0  0  0  0  0
   48.6335    7.8330   19.0581 C   0  0  0  0  0  0  0  0  0  0  0  0
   48.6746    9.9638   17.6679 C   0  0  2  0  0  0  0  0  0  0  0  0
   49.6547    7.7723   16.8750 C   0  0  0  0  0  0  0  0  0  0  0  0
   49.9425    6.4216   17.0698 C   0  0  0  0  0  0  0  0  0  0  0  0
   49.6492   10.8520   18.4841 C   0  0  0  0  0  0  0  0  0  0  0  0
   48.5023   14.5593   16.3983 C   0  0  0  0  0  0  0  0  0  0  0  0
   48.4533   13.0406   18.4624 C   0  0  2  0  0  0  0  0  0  0  0  0
   48.5690   14.4860   17.9102 C   0  0  0  0  0  0  0  0  0  0  0  0
   48.3808   14.7046   13.5923 C   0  0  0  0  0  0  0  0  0  0  0  0
   47.2841   14.3825   15.7326 C   0  0  0  0  0  0  0  0  0  0  0  0
   49.6593   14.8142   15.6488 C   0  0  0  0  0  0  0  0  0  0  0  0
   48.5840    4.6938   21.0345 C   0  0  0  0  0  0  0  0  0  0  0  0
   47.2290   14.4562   14.3413 C   0  0  0  0  0  0  0  0  0  0  0  0
   49.5988   14.8832   14.2529 C   0  0  0  0  0  0  0  0  0  0  0  0
   48.2141   13.1137   19.9772 C   0  0  0  0  0  0  0  0  0  0  0  0
   49.2771   15.1668   11.4452 C   0  0  0  0  0  0  0  0  0  0  0  0
   48.9388   11.2402   17.5636 O   0  0  0  0  0  0  0  0  0  0  0  0
   48.6449   11.6254   16.7093 H   0  0  0  0  0  0  0  0  0  0  0  0
   48.5671   10.3584   17.5629 H   0  0  0  0  0  0  0  0  0  0  0  0
   46.9260   17.1100   12.5244 H   0  0  0  0  0  0  0  0  0  0  0  0
   51.1418   12.9808   14.1257 H   0  0  0  0  0  0  0  0  0  0  0  0
   48.4461   18.1778   15.0732 H   0  0  0  0  0  0  0  0  0  0  0  0
   50.3847   10.1482   15.8475 H   0  0  0  0  0  0  0  0  0  0  0  0
   49.9002   14.9733   16.3413 H   0  0  0  0  0  0  0  0  0  0  0  0
   50.0132   12.6718   16.3655 H   0  0  0  0  0  0  0  0  0  0  0  0
   48.1373   12.8245   13.0449 H   0  0  0  0  0  0  0  0  0  0  0  0
   47.1434   14.8994   12.2058 H   0  0  0  0  0  0  0  0  0  0  0  0
   48.4896   10.9950   14.3004 H   0  0  0  0  0  0  0  0  0  0  0  0
   47.7902   11.4792   15.8412 H   0  0  0  0  0  0  0  0  0  0  0  0
   47.8135    9.5892   17.2150 H   0  0  0  0  0  0  0  0  0  0  0  0
   50.5659    8.3010   17.6933 H   0  0  0  0  0  0  0  0  0  0  0  0
   49.3443    7.5804   16.6700 H   0  0  0  0  0  0  0  0  0  0  0  0
   46.9808    7.1230   17.6801 H   0  0  0  0  0  0  0  0  0  0  0  0
   50.5142    7.8342   20.0484 H   0  0  0  0  0  0  0  0  0  0  0  0
   49.6139   18.8073   16.8873 H   0  0  0  0  0  0  0  0  0  0  0  0
   45.9345    5.9905   19.6040 H   0  0  0  0  0  0  0  0  0  0  0  0
   49.4745    6.7200   21.9500 H   0  0  0  0  0  0  0  0  0  0  0  0
   48.8787   11.6374   18.1242 H   0  0  0  0  0  0  0  0  0  0  0  0
   50.4276   10.7939   18.3030 H   0  0  0  0  0  0  0  0  0  0  0  0
   49.0312   10.3369   19.2929 H   0  0  0  0  0  0  0  0  0  0  0  0
   47.9472    6.1636   23.6167 H   0  0  0  0  0  0  0  0  0  0  0  0
   48.5216    4.6493   22.8148 H   0  0  0  0  0  0  0  0  0  0  0  0
   46.9931    4.6788   23.7020 H   0  0  0  0  0  0  0  0  0  0  0  0
   48.5806    8.7257   19.6967 H   0  0  0  0  0  0  0  0  0  0  0  0
   48.8230   13.4460   14.8770 H   0  0  0  0  0  0  0  0  0  0  0  0
   47.9565   10.3829   16.1239 H   0  0  0  0  0  0  0  0  0  0  0  0
   49.4310   11.7968   18.4522 H   0  0  0  0  0  0  0  0  0  0  0  0
   49.6577    4.0590   19.1376 H   0  0  0  0  0  0  0  0  0  0  0  0
   46.7805    9.5529   17.5671 H   0  0  0  0  0  0  0  0  0  0  0  0
   47.9987    6.6255   21.1185 H   0  0  0  0  0  0  0  0  0  0  0  0
   49.8388   12.3616   17.1266 H   0  0  0  0  0  0  0  0  0  0  0  0
   48.1214    8.4112   19.8282 H   0  0  0  0  0  0  0  0  0  0  0  0
   48.7492   10.2206   16.6029 H   0  0  0  0  0  0  0  0  0  0  0  0
   49.9547    8.2478   15.9436 H   0  0  0  0  0  0  0  0  0  0  0  0
   50.4640    5.8634   16.2947 H   0  0  0  0  0  0  0  0  0  0  0  0
   49.4746   10.7314   19.5603 H   0  0  0  0  0  0  0  0  0  0  0  0
   50.6702   10.4877   18.3084 H   0  0  0  0  0  0  0  0  0  0  0  0
   47.5816   12.5737   17.9932 H   0  0  0  0  0  0  0  0  0  0  0  0
   47.7479   15.1031   18.3075 H   0  0  0  0  0  0  0  0  0  0  0  0
   49.4963   14.9547   18.2730 H   0  0  0  0  0  0  0  0  0  0  0  0
   46.3728   14.1876   16.2959 H   0  0  0  0  0  0  0  0  0  0  0  0
   50.6168   14.9497   16.1476 H   0  0  0  0  0  0  0  0  0  0  0  0
   48.1246    4.6369   22.0367 H   0  0  0  0  0  0  0  0  0  0  0  0
   46.2753   14.3191   13.8362 H   0  0  0  0  0  0  0  0  0  0  0  0
   50.5183   15.0750   13.7099 H   0  0  0  0  0  0  0  0  0  0  0  0
   49.0631   13.5657   20.4955 H   0  0  0  0  0  0  0  0  0  0  0  0
   47.3308   13.7211   20.1884 H   0  0  0  0  0  0  0  0  0  0  0  0
   48.0263   12.1269   20.4077 H   0  0  0  0  0  0  0  0  0  0  0  0
   50.0824   14.4253   11.4701 H   0  0  0  0  0  0  0  0  0  0  0  0
   48.9283   15.2450   10.4096 H   0  0  0  0  0  0  0  0  0  0  0  0
   49.6383   16.1570   11.7471 H   0  0  0  0  0  0  0  0  0  0  0  0
   48.6624   11.6443   16.7273 H   0  0  0  0  0  0  0  0  0  0  0  0
   48.5503   10.3527   17.5359 H   0  0  0  0  0  0  0  0  0  0  0  0
  2 10  1  0
  3 12  1  0
  4 19  1  0
  4 26  1  0
  5 22  2  0
  6  9  1  0
  6 22  1  0
  7 15  1  0
  7 17  1  0
  8 11  2  0
  8 12  1  0
  8 13  1  0
  9 10  2  0
  9 11  1  0
 10 14  1  0
 12 15  1  0
 13 14  2  0
 16 18  1  0
 16 20  2  0
 16 21  1  0
 17 18  1  0
 17 25  1  0
 19 23  2  0
 19 24  1  0
 20 23  1  0
 21 24  2  0
 27 31  1  0
 28 32  1  0
 29 31  2  0
 30 32  2  0
 31 33  1  0
 32 34  1  0
 33 34  2  0
 35 43  1  0
 36 45  1  0
 37 52  1  0
 37 59  1  0
 38 55  2  0
 39 42  1  0
 39 55  1  0
 40 48  1  0
 40 50  1  0
 41 44  2  0
 41 45  1  0
 41 46  1  0
 42 43  2  0
 42 44  1  0
 43 47  1  0
 45 48  1  0
 46 47  2  0
 49 51  1  0
 49 53  2  0
 49 54  1  0
 50 51  1  0
 50 58  1  0
 52 56  2  0
 52 57  1  0
 53 56  1  0
 54 57  2  0
  1 61  1  0
  1 62  1  0
  2 63  1  0
  3 64  1  0
  6 65  1  0
  7 66  1  0
 11 67  1  0
 12 68  1  6
 13 69  1  0
 14 70  1  0
 15 71  1  0
 15 72  1  0
 17 73  1  6
 18 74  1  0
 18 75  1  0
 20 76  1  0
 21 77  1  0
 22 78  1  0
 23 79  1  0
 24 80  1  0
 25 81  1  0
 25 82  1  0
 25 83  1  0
 26 84  1  0
 26 85  1  0
 26 86  1  0
 27 87  1  0
 28 88  1  0
 33 89  1  0
 34 90  1  0
 35 91  1  0
 36 92  1  0
 39 93  1  0
 40 94  1  0
 44 95  1  0
 45 96  1  1
 46 97  1  0
 47 98  1  0
 48 99  1  0
 48100  1  0
 50101  1  6
 51102  1  0
 51103  1  0
 53104  1  0
 54105  1  0
 55106  1  0
 56107  1  0
 57108  1  0
 58109  1  0
 58110  1  0
 58111  1  0
 59112  1  0
 59113  1  0
 59114  1  0
 60115  1  0
 60116  1  0
M  END
> <Uni-Dock RESULT> 
ENERGY=   -4.360  LOWER_BOUND=    6.089  UPPER_BOUND=    9.236
INTER + INTRA:          -4.360
INTER:                  -4.360
INTRA:                   0.000
UNBOUND:                 0.000

$$$$

     RDKit          3D

116115  0  0  0  0  0  0  0  0999 V2000
   44.2458   13.4054   10.1338 O   0  0  0  0  0  0  0  0  0  0  0  0
   37.6751   11.0382   12.9517 O   0  0  0  0  0  0  0  0  0  0  0  0
   41.2826   12.7862    8.0861 O   0  0  0  0  0  0  0  0  0  0  0  0
   51.6315   13.6809   10.0671 O   0  0  0  0  0  0  0  0  0  0  0  0
   39.3263   15.7132   12.4178 O   0  0  0  0  0  0  0  0  0  0  0  0
   38.3835   13.6266   12.8981 N   0  0  0  0  0  0  0  0  0  0  0  0
   44.1108   12.1659    8.4291 N   0  0  0  0  0  0  0  0  0  0  0  0
   40.7293   12.1753   10.3483 C   0  0  0  0  0  0  0  0  0  0  0  0
   39.0672   12.7408   12.0432 C   0  0  0  0  0  0  0  0  0  0  0  0
   38.6772   11.3960   12.0855 C   0  0  0  0  0  0  0  0  0  0  0  0
   40.0907   13.1221   11.1728 C   0  0  0  0  0  0  0  0  0  0  0  0
   41.8246   12.6373    9.4046 C   0  0  1  0  0  0  0  0  0  0  0  0
   40.2934   10.8403   10.3876 C   0  0  0  0  0  0  0  0  0  0  0  0
   39.2803   10.4463   11.2651 C   0  0  0  0  0  0  0  0  0  0  0  0
   43.0603   11.6954    9.3491 C   0  0  0  0  0  0  0  0  0  0  0  0
   47.7744   13.1750    8.5466 C   0  0  0  0  0  0  0  0  0  0  0  0
   45.3037   12.7232    9.0845 C   0  0  1  0  0  0  0  0  0  0  0  0
   46.3861   12.9359    7.9962 C   0  0  0  0  0  0  0  0  0  0  0  0
   50.3690   13.6047    9.5480 C   0  0  0  0  0  0  0  0  0  0  0  0
   48.5053   12.1191    9.1052 C   0  0  0  0  0  0  0  0  0  0  0  0
   48.3522   14.4495    8.5055 C   0  0  0  0  0  0  0  0  0  0  0  0
   38.5539   14.9810   13.0210 C   0  0  0  0  0  0  0  0  0  0  0  0
   49.7906   12.3358    9.6034 C   0  0  0  0  0  0  0  0  0  0  0  0
   49.6422   14.6641    9.0024 C   0  0  0  0  0  0  0  0  0  0  0  0
   44.9983   14.0338    9.8166 C   0  0  0  0  0  0  0  0  0  0  0  0
   52.3376   14.8927    9.8429 C   0  0  0  0  0  0  0  0  0  0  0  0
   46.5381   14.0293    9.9718 O   0  0  0  0  0  0  0  0  0  0  0  0
   42.0520   11.9955   10.2068 O   0  0  0  0  0  0  0  0  0  0  0  0
   46.9598   11.9127    9.3975 O   0  0  0  0  0  0  0  0  0  0  0  0
   41.6334   14.1081   10.8072 O   0  0  0  0  0  0  0  0  0  0  0  0
   46.1596   12.7654    9.7345 C   0  0  0  0  0  0  0  0  0  0  0  0
   42.4316   13.2571   10.4596 C   0  0  0  0  0  0  0  0  0  0  0  0
   44.7241   12.5328    9.9112 C   0  0  0  0  0  0  0  0  0  0  0  0
   43.8671   13.4921   10.2860 C   0  0  0  0  0  0  0  0  0  0  0  0
   49.5768   12.7537    5.7835 O   0  0  0  0  0  0  0  0  0  0  0  0
   45.8414   12.4359   10.8590 O   0  0  0  0  0  0  0  0  0  0  0  0
   38.7929   10.0630   10.4871 O   0  0  0  0  0  0  0  0  0  0  0  0
   51.6596   13.6063    6.8674 O   0  0  0  0  0  0  0  0  0  0  0  0
   50.1260   13.7917    8.6151 N   0  0  0  0  0  0  0  0  0  0  0  0
   43.5558   14.5706   10.4586 N   0  0  0  0  0  0  0  0  0  0  0  0
   46.5265   12.9192    8.6250 C   0  0  0  0  0  0  0  0  0  0  0  0
   48.8975   13.3307    8.0813 C   0  0  0  0  0  0  0  0  0  0  0  0
   48.6558   12.8504    6.7867 C   0  0  0  0  0  0  0  0  0  0  0  0
   47.8137   13.3622    8.9841 C   0  0  0  0  0  0  0  0  0  0  0  0
   45.3804   12.9688    9.6160 C   0  0  2  0  0  0  0  0  0  0  0  0
   46.3190   12.4507    7.3264 C   0  0  0  0  0  0  0  0  0  0  0  0
   47.3790   12.4139    6.4206 C   0  0  0  0  0  0  0  0  0  0  0  0
   44.8634   14.4203    9.7913 C   0  0  0  0  0  0  0  0  0  0  0  0
   41.1871   13.1840   11.8810 C   0  0  0  0  0  0  0  0  0  0  0  0
   43.5329   14.2170   11.8910 C   0  0  2  0  0  0  0  0  0  0  0  0
   42.0762   14.2857   12.4210 C   0  0  0  0  0  0  0  0  0  0  0  0
   39.5293   11.1435   10.8825 C   0  0  0  0  0  0  0  0  0  0  0  0
   41.3166   11.8729   12.3524 C   0  0  0  0  0  0  0  0  0  0  0  0
   40.2177   13.4675   10.9086 C   0  0  0  0  0  0  0  0  0  0  0  0
   51.3546   13.8977    8.0154 C   0  0  0  0  0  0  0  0  0  0  0  0
   40.4918   10.8648   11.8546 C   0  0  0  0  0  0  0  0  0  0  0  0
   39.3956   12.4515   10.4100 C   0  0  0  0  0  0  0  0  0  0  0  0
   44.4039   15.1617   12.7312 C   0  0  0  0  0  0  0  0  0  0  0  0
   37.6912   10.3171    9.6311 C   0  0  0  0  0  0  0  0  0  0  0  0
   44.2613   13.4078   10.1304 O   0  0  0  0  0  0  0  0  0  0  0  0
   43.5725   12.7115   10.2043 H   0  0  0  0  0  0  0  0  0  0  0  0
   45.0508   12.9302    9.8769 H   0  0  0  0  0  0  0  0  0  0  0  0
   37.5204   10.0846   12.8538 H   0  0  0  0  0  0  0  0  0  0  0  0
   40.3170   12.8503    8.1722 H   0  0  0  0  0  0  0  0  0  0  0  0
   37.6776   13.1731   13.4734 H   0  0  0  0  0  0  0  0  0  0  0  0
   43.6934   12.8280    7.7704 H   0  0  0  0  0  0  0  0  0  0  0  0
   40.4133   14.1600   11.1211 H   0  0  0  0  0  0  0  0  0  0  0  0
   42.1602   13.6335    9.7135 H   0  0  0  0  0  0  0  0  0  0  0  0
   40.7381   10.0914    9.7312 H   0  0  0  0  0  0  0  0  0  0  0  0
   38.9725    9.4055   11.2835 H   0  0  0  0  0  0  0  0  0  0  0  0
   42.7447   10.7243    8.9435 H   0  0  0  0  0  0  0  0  0  0  0  0
   43.4541   11.4997   10.3552 H   0  0  0  0  0  0  0  0  0  0  0  0
   45.6737   11.9875    9.8115 H   0  0  0  0  0  0  0  0  0  0  0  0
   46.0985   13.7663    7.3376 H   0  0  0  0  0  0  0  0  0  0  0  0
   46.4449   12.0520    7.3463 H   0  0  0  0  0  0  0  0  0  0  0  0
   48.0824   11.1185    9.1525 H   0  0  0  0  0  0  0  0  0  0  0  0
   47.8014   15.2869    8.0825 H   0  0  0  0  0  0  0  0  0  0  0  0
   37.8636   15.3919   13.7784 H   0  0  0  0  0  0  0  0  0  0  0  0
   50.3549   11.5089   10.0259 H   0  0  0  0  0  0  0  0  0  0  0  0
   50.0451   15.6705    8.9526 H   0  0  0  0  0  0  0  0  0  0  0  0
   44.2908   13.8751   10.6368 H   0  0  0  0  0  0  0  0  0  0  0  0
   44.5699   14.7799    9.1381 H   0  0  0  0  0  0  0  0  0  0  0  0
   45.9027   14.4585   10.2602 H   0  0  0  0  0  0  0  0  0  0  0  0
   51.8757   15.7204   10.3900 H   0  0  0  0  0  0  0  0  0  0  0  0
   52.4121   15.1147    8.7740 H   0  0  0  0  0  0  0  0  0  0  0  0
   53.3533   14.7651   10.2288 H   0  0  0  0  0  0  0  0  0  0  0  0
   47.5044   14.0226    9.8061 H   0  0  0  0  0  0  0  0  0  0  0  0
   41.0866   12.0086   10.3761 H   0  0  0  0  0  0  0  0  0  0  0  0
   44.4052   11.5150    9.7191 H   0  0  0  0  0  0  0  0  0  0  0  0
   44.1860   14.5095   10.4800 H   0  0  0  0  0  0  0  0  0  0  0  0
   50.4464   13.0704    6.1061 H   0  0  0  0  0  0  0  0  0  0  0  0
   46.2133   11.5597   10.6588 H   0  0  0  0  0  0  0  0  0  0  0  0
   50.0959   14.0963    9.5830 H   0  0  0  0  0  0  0  0  0  0  0  0
   42.8806   13.9799    9.9717 H   0  0  0  0  0  0  0  0  0  0  0  0
   47.9593   13.7345    9.9988 H   0  0  0  0  0  0  0  0  0  0  0  0
   44.5597   12.3266    9.2700 H   0  0  0  0  0  0  0  0  0  0  0  0
   45.3374   12.1085    7.0055 H   0  0  0  0  0  0  0  0  0  0  0  0
   47.2123   12.0494    5.4089 H   0  0  0  0  0  0  0  0  0  0  0  0
   45.6161   15.0422   10.2910 H   0  0  0  0  0  0  0  0  0  0  0  0
   44.7345   14.8588    8.7927 H   0  0  0  0  0  0  0  0  0  0  0  0
   43.8910   13.1925   12.0333 H   0  0  0  0  0  0  0  0  0  0  0  0
   42.0754   14.2025   13.5191 H   0  0  0  0  0  0  0  0  0  0  0  0
   41.6399   15.2707   12.1965 H   0  0  0  0  0  0  0  0  0  0  0  0
   42.0604   11.6319   13.1104 H   0  0  0  0  0  0  0  0  0  0  0  0
   40.1049   14.4798   10.5259 H   0  0  0  0  0  0  0  0  0  0  0  0
   52.1030   14.2993    8.7205 H   0  0  0  0  0  0  0  0  0  0  0  0
   40.6012    9.8501   12.2312 H   0  0  0  0  0  0  0  0  0  0  0  0
   38.6632   12.7114    9.6529 H   0  0  0  0  0  0  0  0  0  0  0  0
   44.0918   16.2025   12.6165 H   0  0  0  0  0  0  0  0  0  0  0  0
   44.3243   14.9029   13.7897 H   0  0  0  0  0  0  0  0  0  0  0  0
   45.4615   15.0824   12.4676 H   0  0  0  0  0  0  0  0  0  0  0  0
   38.0306   10.6577    8.6474 H   0  0  0  0  0  0  0  0  0  0  0  0
   37.1526    9.3737    9.4893 H   0  0  0  0  0  0  0  0  0  0  0  0
   36.9916   11.0319   10.0803 H   0  0  0  0  0  0  0  0  0  0  0  0
   43.5629   12.7408   10.2105 H   0  0  0  0  0  0  0  0  0  0  0  0
   45.0450   12.8984    9.8741 H   0  0  0  0  0  0  0  0  0  0  0  0
  2 10  1  0
  3 12  1  0
  4 19  1  0
  4 26  1  0
  5 22  2  0
  6  9  1  0
  6 22  1  0
  7 15  1  0
  7 17  1  0
  8 11  2  0
  8 12  1  0
  8 13  1  0
  9 10  2  0
  9 11  1  0
 10 14  1  0
 12 15  1  0
 13 14  2  0
 16 18  1  0
 16 20  2  0
 16 21  1  0
 17 18  1  0
 17 25  1  0
 19 23  2  0
 19 24  1  0
 20 23  1  0
 21 24  2  0
 27 31  1  0
 28 32  1  0
 29 31  2  0
 30 32  2  0
 31 33  1  0
 32 34  1  0
 33 34  2  0
 35 43  1  0
 36 45  1  0
 37 52  1  0
 37 59  1  0
 38 55  2  0
 39 42  1  0
 39 55  1  0
 40 48  1  0
 40 50  1  0
 41 44  2  0
 41 45  1  0
 41 46  1  0
 42 43  2  0
 42 44  1  0
 43 47  1  0
 45 48  1  0
 46 47  2  0
 49 51  1  0
 49 53  2  0
 49 54  1  0
 50 51  1  0
 50 58  1  0
 52 56  2  0
 52 57  1  0
 53 56  1  0
 54 57  2  0
  1 61  1  0
  1 62  1  0
  2 63  1  0
  3 64  1  0
  6 65  1  0
  7 66  1  0
 11 67  1  0
 12 68  1  6
 13 69  1  0
 14 70  1  0
 15 71  1  0
 15 72  1  0
 17 73  1  6
 18 74  1  0
 18 75  1  0
 20 76  1  0
 21 77  1  0
 22 78  1  0
 23 79  1  0
 24 80  1  0
 25 81  1  0
 25 82  1  0
 25 83  1  0
 26 84  1  0
 26 85  1  0
 26 86  1  0
 27 87  1  0
 28 88  1  0
 33 89  1  0
 34 90  1  0
 35 91  1  0
 36 92  1  0
 39 93  1  0
 40 94  1  0
 44 95  1  0
 45 96  1  1
 46 97  1  0
 47 98  1  0
 48 99  1  0
 48100  1  0
 50101  1  6
 51102  1  0
 51103  1  0
 53104  1  0
 54105  1  0
 55106  1  0
 56107  1  0
 57108  1  0
 58109  1  0
 58110  1  0
 58111  1  0
 59112  1  0
 59113  1  0
 59114  1  0
 60115  1  0
 60116  1  0
M  END
> <Uni-Dock RESULT> 
ENERGY=   -4.318  LOWER_BOUND=    2.533  UPPER_BOUND=    3.596
INTER + INTRA:          -4.318
INTER:                  -4.318
INTRA:                   0.000
UNBOUND:                 0.000

$$$$

     RDKit          3D

116115  0  0  0  0  0  0  0  0999 V2000
   50.9740    7.4571   17.2206 O   0  0  0  0  0  0  0  0  0  0  0  0
   47.9553    4.9804   23.6605 O   0  0  0  0  0  0  0  0  0  0  0  0
   50.0153    9.6611   19.9739 O   0  0  0  0  0  0  0  0  0  0  0  0
   52.0361    7.1000    9.9150 O   0  0  0  0  0  0  0  0  0  0  0  0
   52.7726    5.5076   22.4845 O   0  0  0  0  0  0  0  0  0  0  0  0
   50.6037    5.0427   23.2282 N   0  0  0  0  0  0  0  0  0  0  0  0
   49.7051    9.1425   17.1215 N   0  0  0  0  0  0  0  0  0  0  0  0
   49.3782    7.4235   20.5936 C   0  0  0  0  0  0  0  0  0  0  0  0
   49.7849    5.8392   22.4047 C   0  0  0  0  0  0  0  0  0  0  0  0
   48.4068    5.7937   22.6519 C   0  0  0  0  0  0  0  0  0  0  0  0
   50.2620    6.6559   21.3771 C   0  0  0  0  0  0  0  0  0  0  0  0
   49.9422    8.3107   19.4990 C   0  0  1  0  0  0  0  0  0  0  0  0
   48.0049    7.3837   20.8874 C   0  0  0  0  0  0  0  0  0  0  0  0
   47.5164    6.5592   21.9037 C   0  0  0  0  0  0  0  0  0  0  0  0
   49.1371    8.2761   18.1694 C   0  0  0  0  0  0  0  0  0  0  0  0
   51.1013    8.8320   13.5989 C   0  0  0  0  0  0  0  0  0  0  0  0
   50.3951    8.4298   16.0356 C   0  0  1  0  0  0  0  0  0  0  0  0
   50.7081    9.4573   14.9187 C   0  0  0  0  0  0  0  0  0  0  0  0
   51.8186    7.6900   11.1290 C   0  0  0  0  0  0  0  0  0  0  0  0
   50.1368    8.2115   12.7950 C   0  0  0  0  0  0  0  0  0  0  0  0
   52.4295    8.8640   13.1579 C   0  0  0  0  0  0  0  0  0  0  0  0
   51.9700    4.9363   23.2098 C   0  0  0  0  0  0  0  0  0  0  0  0
   50.4961    7.6438   11.5720 C   0  0  0  0  0  0  0  0  0  0  0  0
   52.7871    8.2972   11.9299 C   0  0  0  0  0  0  0  0  0  0  0  0
   51.6750    7.7421   16.5213 C   0  0  0  0  0  0  0  0  0  0  0  0
   53.3133    7.3062    9.3290 C   0  0  0  0  0  0  0  0  0  0  0  0
   51.8371    7.4977   15.0017 O   0  0  0  0  0  0  0  0  0  0  0  0
   49.3389    7.4844   19.2533 O   0  0  0  0  0  0  0  0  0  0  0  0
   49.7703    8.0055   14.3247 O   0  0  0  0  0  0  0  0  0  0  0  0
   51.4023    6.9503   19.9283 O   0  0  0  0  0  0  0  0  0  0  0  0
   50.5370    7.7321   15.2295 C   0  0  0  0  0  0  0  0  0  0  0  0
   50.6370    7.2344   19.0252 C   0  0  0  0  0  0  0  0  0  0  0  0
   50.1547    7.6346   16.6402 C   0  0  0  0  0  0  0  0  0  0  0  0
   51.0217    7.3288   17.6148 C   0  0  0  0  0  0  0  0  0  0  0  0
   50.8390   11.4771   11.6000 O   0  0  0  0  0  0  0  0  0  0  0  0
   50.1901    6.6218   15.5776 O   0  0  0  0  0  0  0  0  0  0  0  0
   47.0731    7.3567   22.3004 O   0  0  0  0  0  0  0  0  0  0  0  0
   51.9232   10.2907    9.6878 O   0  0  0  0  0  0  0  0  0  0  0  0
   51.9664    8.6389   11.3341 N   0  0  0  0  0  0  0  0  0  0  0  0
   52.0630    7.1955   18.0483 N   0  0  0  0  0  0  0  0  0  0  0  0
   50.7146    8.8212   14.8152 C   0  0  0  0  0  0  0  0  0  0  0  0
   51.3699    9.2341   12.4728 C   0  0  0  0  0  0  0  0  0  0  0  0
   50.8497   10.5311   12.5845 C   0  0  0  0  0  0  0  0  0  0  0  0
   51.2972    8.3966   13.6059 C   0  0  0  0  0  0  0  0  0  0  0  0
   50.6544    7.8995   16.0172 C   0  0  2  0  0  0  0  0  0  0  0  0
   50.2098   10.1204   14.8939 C   0  0  0  0  0  0  0  0  0  0  0  0
   50.2747   10.9622   13.7836 C   0  0  0  0  0  0  0  0  0  0  0  0
   52.0445    7.7827   16.6946 C   0  0  0  0  0  0  0  0  0  0  0  0
   50.4499    5.8866   20.3377 C   0  0  0  0  0  0  0  0  0  0  0  0
   51.7276    5.7602   18.1193 C   0  0  2  0  0  0  0  0  0  0  0  0
   51.6472    5.3172   19.6042 C   0  0  0  0  0  0  0  0  0  0  0  0
   48.2311    6.9401   21.7075 C   0  0  0  0  0  0  0  0  0  0  0  0
   49.1663    5.3832   20.0985 C   0  0  0  0  0  0  0  0  0  0  0  0
   50.6156    6.9189   21.2717 C   0  0  0  0  0  0  0  0  0  0  0  0
   52.1953    9.1682   10.0901 C   0  0  0  0  0  0  0  0  0  0  0  0
   48.0695    5.9085   20.7808 C   0  0  0  0  0  0  0  0  0  0  0  0
   49.5111    7.4447   21.9504 C   0  0  0  0  0  0  0  0  0  0  0  0
   52.7708    4.8893   17.4050 C   0  0  0  0  0  0  0  0  0  0  0  0
   47.1969    8.2799   23.3696 C   0  0  0  0  0  0  0  0  0  0  0  0
   50.9780    7.4596   17.2053 O   0  0  0  0  0  0  0  0  0  0  0  0
   50.2132    7.4124   17.8197 H   0  0  0  0  0  0  0  0  0  0  0  0
   50.5842    7.6575   16.3560 H   0  0  0  0  0  0  0  0  0  0  0  0
   46.9894    5.0687   23.7072 H   0  0  0  0  0  0  0  0  0  0  0  0
   49.9769    9.6325   20.9442 H   0  0  0  0  0  0  0  0  0  0  0  0
   50.0849    4.5008   23.9153 H   0  0  0  0  0  0  0  0  0  0  0  0
   50.3102    9.8370   17.5665 H   0  0  0  0  0  0  0  0  0  0  0  0
   51.3277    6.7088   21.1637 H   0  0  0  0  0  0  0  0  0  0  0  0
   50.9725    8.0021   19.2898 H   0  0  0  0  0  0  0  0  0  0  0  0
   47.2993    7.9987   20.3274 H   0  0  0  0  0  0  0  0  0  0  0  0
   46.4490    6.5386   22.1001 H   0  0  0  0  0  0  0  0  0  0  0  0
   48.1326    8.6806   18.3556 H   0  0  0  0  0  0  0  0  0  0  0  0
   48.9977    7.2453   17.8180 H   0  0  0  0  0  0  0  0  0  0  0  0
   49.7127    7.6685   15.6340 H   0  0  0  0  0  0  0  0  0  0  0  0
   51.4944   10.1474   15.2527 H   0  0  0  0  0  0  0  0  0  0  0  0
   49.8271   10.0855   14.7279 H   0  0  0  0  0  0  0  0  0  0  0  0
   49.0975    8.1695   13.1117 H   0  0  0  0  0  0  0  0  0  0  0  0
   53.1977    9.3343   13.7680 H   0  0  0  0  0  0  0  0  0  0  0  0
   52.3146    4.2283   23.9837 H   0  0  0  0  0  0  0  0  0  0  0  0
   49.7397    7.1734   10.9497 H   0  0  0  0  0  0  0  0  0  0  0  0
   53.8301    8.3430   11.6335 H   0  0  0  0  0  0  0  0  0  0  0  0
   51.4524    6.9615   17.2558 H   0  0  0  0  0  0  0  0  0  0  0  0
   52.3621    8.4587   16.9849 H   0  0  0  0  0  0  0  0  0  0  0  0
   52.1996    7.2550   15.6951 H   0  0  0  0  0  0  0  0  0  0  0  0
   54.0940    6.8029    9.9078 H   0  0  0  0  0  0  0  0  0  0  0  0
   53.5281    8.3730    9.2146 H   0  0  0  0  0  0  0  0  0  0  0  0
   53.3000    6.8596    8.3303 H   0  0  0  0  0  0  0  0  0  0  0  0
   51.9315    7.6069   14.0320 H   0  0  0  0  0  0  0  0  0  0  0  0
   49.2510    7.3718   20.2230 H   0  0  0  0  0  0  0  0  0  0  0  0
   49.1063    7.8253   16.8375 H   0  0  0  0  0  0  0  0  0  0  0  0
   52.0698    7.1363   17.4176 H   0  0  0  0  0  0  0  0  0  0  0  0
   51.2509   11.1106   10.7897 H   0  0  0  0  0  0  0  0  0  0  0  0
   49.3560    6.7832   15.1037 H   0  0  0  0  0  0  0  0  0  0  0  0
   52.2787    7.6804   11.4542 H   0  0  0  0  0  0  0  0  0  0  0  0
   51.3973    7.7092   18.6268 H   0  0  0  0  0  0  0  0  0  0  0  0
   51.6962    7.3825   13.5614 H   0  0  0  0  0  0  0  0  0  0  0  0
   49.9237    8.2802   16.7432 H   0  0  0  0  0  0  0  0  0  0  0  0
   49.7606   10.4910   15.8127 H   0  0  0  0  0  0  0  0  0  0  0  0
   49.8813   11.9746   13.8501 H   0  0  0  0  0  0  0  0  0  0  0  0
   52.7498    7.2521   16.0432 H   0  0  0  0  0  0  0  0  0  0  0  0
   52.4537    8.7953   16.8092 H   0  0  0  0  0  0  0  0  0  0  0  0
   50.7491    5.5776   17.6639 H   0  0  0  0  0  0  0  0  0  0  0  0
   51.5787    4.2195   19.6619 H   0  0  0  0  0  0  0  0  0  0  0  0
   52.5770    5.5856   20.1281 H   0  0  0  0  0  0  0  0  0  0  0  0
   49.0161    4.5788   19.3801 H   0  0  0  0  0  0  0  0  0  0  0  0
   51.6049    7.3270   21.4680 H   0  0  0  0  0  0  0  0  0  0  0  0
   52.6837    8.4287    9.4319 H   0  0  0  0  0  0  0  0  0  0  0  0
   47.0773    5.5067   20.5873 H   0  0  0  0  0  0  0  0  0  0  0  0
   49.6814    8.2479   22.6596 H   0  0  0  0  0  0  0  0  0  0  0  0
   53.7707    5.0420   17.8181 H   0  0  0  0  0  0  0  0  0  0  0  0
   52.5188    3.8324   17.5200 H   0  0  0  0  0  0  0  0  0  0  0  0
   52.8015    5.0894   16.3311 H   0  0  0  0  0  0  0  0  0  0  0  0
   47.5590    9.2486   23.0100 H   0  0  0  0  0  0  0  0  0  0  0  0
   46.1996    8.4345   23.7959 H   0  0  0  0  0  0  0  0  0  0  0  0
   47.8386    7.8859   24.1666 H   0  0  0  0  0  0  0  0  0  0  0  0
   50.2413    7.4074   17.8327 H   0  0  0  0  0  0  0  0  0  0  0  0
   50.5519    7.6600   16.3582 H   0  0  0  0  0  0  0  0  0  0  0  0
  2 10  1  0
  3 12  1  0
  4 19  1  0
  4 26  1  0
  5 22  2  0
  6  9  1  0
  6 22  1  0
  7 15  1  0
  7 17  1  0
  8 11  2  0
  8 12  1  0
  8 13  1  0
  9 10  2  0
  9 11  1  0
 10 14  1  0
 12 15  1  0
 13 14  2  0
 16 18  1  0
 16 20  2  0
 16 21  1  0
 17 18  1  0
 17 25  1  0
 19 23  2  0
 19 24  1  0
 20 23  1  0
 21 24  2  0
 27 31  1  0
 28 32  1  0
 29 31  2  0
 30 32  2  0
 31 33  1  0
 32 34  1  0
 33 34  2  0
 35 43  1  0
 36 45  1  0
 37 52  1  0
 37 59  1  0
 38 55  2  0
 39 42  1  0
 39 55  1  0
 40 48  1  0
 40 50  1  0
 41 44  2  0
 41 45  1  0
 41 46  1  0
 42 43  2  0
 42 44  1  0
 43 47  1  0
 45 48  1  0
 46 47  2  0
 49 51  1  0
 49 53  2  0
 49 54  1  0
 50 51  1  0
 50 58  1  0
 52 56  2  0
 52 57  1  0
 53 56  1  0
 54 57  2  0
  1 61  1  0
  1 62  1  0
  2 63  1  0
  3 64  1  0
  6 65  1  0
  7 66  1  0
 11 67  1  0
 12 68  1  6
 13 69  1  0
 14 70  1  0
 15 71  1  0
 15 72  1  0
 17 73  1  6
 18 74  1  0
 18 75  1  0
 20 76  1  0
 21 77  1  0
 22 78  1  0
 23 79  1  0
 24 80  1  0
 25 81  1  0
 25 82  1  0
 25 83  1  0
 26 84  1  0
 26 85  1  0
 26 86  1  0
 27 87  1  0
 28 88  1  0
 33 89  1  0
 34 90  1  0
 35 91  1  0
 36 92  1  0
 39 93  1  0
 40 94  1  0
 44 95  1  0
 45 96  1  1
 46 97  1  0
 47 98  1  0
 48 99  1  0
 48100  1  0
 50101  1  6
 51102  1  0
 51103  1  0
 53104  1  0
 54105  1  0
 55106  1  0
 56107  1  0
 57108  1  0
 58109  1  0
 58110  1  0
 58111  1  0
 59112  1  0
 59113  1  0
 59114  1  0
 60115  1  0
 60116  1  0
M  END
> <Uni-Dock RESULT> 
ENERGY=   -4.208  LOWER_BOUND=    7.329  UPPER_BOUND=   11.142
INTER + INTRA:          -4.208
INTER:                  -4.208
INTRA:                   0.000
UNBOUND:                 0.000

$$$$

     RDKit          3D

116115  0  0  0  0  0  0  0  0999 V2000
   46.8818   12.2627   11.8226 O   0  0  0  0  0  0  0  0  0  0  0  0
   54.1635   10.7160   12.9641 O   0  0  0  0  0  0  0  0  0  0  0  0
   48.0654    9.8775   14.3260 O   0  0  0  0  0  0  0  0  0  0  0  0
   41.1657   14.0854    7.5061 O   0  0  0  0  0  0  0  0  0  0  0  0
   51.3870   14.3087   15.0259 O   0  0  0  0  0  0  0  0  0  0  0  0
   52.9271   12.8069   14.1060 N   0  0  0  0  0  0  0  0  0  0  0  0
   46.2840   10.2497   12.0481 N   0  0  0  0  0  0  0  0  0  0  0  0
   49.9956   10.6723   13.1262 C   0  0  0  0  0  0  0  0  0  0  0  0
   52.1251   11.7651   13.6017 C   0  0  0  0  0  0  0  0  0  0  0  0
   52.7927   10.6827   13.0144 C   0  0  0  0  0  0  0  0  0  0  0  0
   50.7296   11.7519   13.6551 C   0  0  0  0  0  0  0  0  0  0  0  0
   48.4810   10.6916   13.2219 C   0  0  1  0  0  0  0  0  0  0  0  0
   50.6938    9.5852   12.5743 C   0  0  0  0  0  0  0  0  0  0  0  0
   52.0889    9.5954   12.5033 C   0  0  0  0  0  0  0  0  0  0  0  0
   47.7526   10.2195   11.9321 C   0  0  0  0  0  0  0  0  0  0  0  0
   43.3138   11.9082   10.3503 C   0  0  0  0  0  0  0  0  0  0  0  0
   45.6271   11.3405   11.3120 C   0  0  1  0  0  0  0  0  0  0  0  0
   44.0999   11.0793   11.3416 C   0  0  0  0  0  0  0  0  0  0  0  0
   41.8330   13.4275    8.5016 C   0  0  0  0  0  0  0  0  0  0  0  0
   43.3652   11.6117    8.9826 C   0  0  0  0  0  0  0  0  0  0  0  0
   42.5225   12.9800   10.7802 C   0  0  0  0  0  0  0  0  0  0  0  0
   52.5226   13.9484   14.7477 C   0  0  0  0  0  0  0  0  0  0  0  0
   42.6319   12.3686    8.0679 C   0  0  0  0  0  0  0  0  0  0  0  0
   41.7854   13.7356    9.8621 C   0  0  0  0  0  0  0  0  0  0  0  0
   45.9591   12.7145   11.9026 C   0  0  0  0  0  0  0  0  0  0  0  0
   40.1837   15.0265    7.9149 C   0  0  0  0  0  0  0  0  0  0  0  0
   44.8845   13.1508   10.8780 O   0  0  0  0  0  0  0  0  0  0  0  0
   48.9535   10.7456   12.2833 O   0  0  0  0  0  0  0  0  0  0  0  0
   44.7661   11.2874    9.6526 O   0  0  0  0  0  0  0  0  0  0  0  0
   49.0862   12.6226   13.4909 O   0  0  0  0  0  0  0  0  0  0  0  0
   45.3553   11.9615   10.4769 C   0  0  0  0  0  0  0  0  0  0  0  0
   48.4917   11.9429   12.6743 C   0  0  0  0  0  0  0  0  0  0  0  0
   46.6104   11.5714   11.1240 C   0  0  0  0  0  0  0  0  0  0  0  0
   47.2379   12.3367   12.0271 C   0  0  0  0  0  0  0  0  0  0  0  0
   40.4019   10.3034   10.4290 O   0  0  0  0  0  0  0  0  0  0  0  0
   46.3542   12.3273    9.8914 O   0  0  0  0  0  0  0  0  0  0  0  0
   52.0922    8.7198   12.9756 O   0  0  0  0  0  0  0  0  0  0  0  0
   39.2499   12.0796    9.1032 O   0  0  0  0  0  0  0  0  0  0  0  0
   41.4113   12.9449    9.2456 N   0  0  0  0  0  0  0  0  0  0  0  0
   47.2995   13.1913   12.7726 N   0  0  0  0  0  0  0  0  0  0  0  0
   44.3737   11.4824   10.9197 C   0  0  0  0  0  0  0  0  0  0  0  0
   42.1431   11.9936    9.9979 C   0  0  0  0  0  0  0  0  0  0  0  0
   41.6760   10.7836   10.5298 C   0  0  0  0  0  0  0  0  0  0  0  0
   43.4975   12.3264   10.2113 C   0  0  0  0  0  0  0  0  0  0  0  0
   45.8234   11.8689   11.1363 C   0  0  2  0  0  0  0  0  0  0  0  0
   43.8751   10.2866   11.4399 C   0  0  0  0  0  0  0  0  0  0  0  0
   42.5384    9.9426   11.2394 C   0  0  0  0  0  0  0  0  0  0  0  0
   45.9468   12.9622   12.2293 C   0  0  0  0  0  0  0  0  0  0  0  0
   50.3050   12.4773   12.6546 C   0  0  0  0  0  0  0  0  0  0  0  0
   48.2648   13.7931   11.8326 C   0  0  2  0  0  0  0  0  0  0  0  0
   49.6695   13.8428   12.4896 C   0  0  0  0  0  0  0  0  0  0  0  0
   51.4916    9.9466   12.9662 C   0  0  0  0  0  0  0  0  0  0  0  0
   50.8264   11.7990   11.5472 C   0  0  0  0  0  0  0  0  0  0  0  0
   50.3862   11.8811   13.9209 C   0  0  0  0  0  0  0  0  0  0  0  0
   40.0929   12.9341    8.8687 C   0  0  0  0  0  0  0  0  0  0  0  0
   51.4143   10.5448   11.7070 C   0  0  0  0  0  0  0  0  0  0  0  0
   50.9736   10.6209   14.0747 C   0  0  0  0  0  0  0  0  0  0  0  0
   47.8629   15.2188   11.4292 C   0  0  0  0  0  0  0  0  0  0  0  0
   52.3510    8.1428   14.2448 C   0  0  0  0  0  0  0  0  0  0  0  0
   46.8674   12.2659   11.8163 O   0  0  0  0  0  0  0  0  0  0  0  0
   47.6136   11.6282   11.7829 H   0  0  0  0  0  0  0  0  0  0  0  0
   46.2396   11.9253   11.1795 H   0  0  0  0  0  0  0  0  0  0  0  0
   54.4679    9.8975   12.5394 H   0  0  0  0  0  0  0  0  0  0  0  0
   48.8332    9.7625   14.9100 H   0  0  0  0  0  0  0  0  0  0  0  0
   53.9237   12.6561   13.9683 H   0  0  0  0  0  0  0  0  0  0  0  0
   46.0362   10.2563   13.0406 H   0  0  0  0  0  0  0  0  0  0  0  0
   50.1865   12.5805   14.1052 H   0  0  0  0  0  0  0  0  0  0  0  0
   48.1545   11.7118   13.4521 H   0  0  0  0  0  0  0  0  0  0  0  0
   50.1566    8.7151   12.1950 H   0  0  0  0  0  0  0  0  0  0  0  0
   52.6015    8.7476   12.0598 H   0  0  0  0  0  0  0  0  0  0  0  0
   47.9996    9.1636   11.7549 H   0  0  0  0  0  0  0  0  0  0  0  0
   48.1058   10.7739   11.0527 H   0  0  0  0  0  0  0  0  0  0  0  0
   45.9705   11.3092   10.2691 H   0  0  0  0  0  0  0  0  0  0  0  0
   43.7104   11.2428   12.3553 H   0  0  0  0  0  0  0  0  0  0  0  0
   43.8942   10.0243   11.1143 H   0  0  0  0  0  0  0  0  0  0  0  0
   43.9721   10.7863    8.6185 H   0  0  0  0  0  0  0  0  0  0  0  0
   42.4720   13.2339   11.8369 H   0  0  0  0  0  0  0  0  0  0  0  0
   53.3936   14.5686   15.0227 H   0  0  0  0  0  0  0  0  0  0  0  0
   42.6693   12.1254    7.0096 H   0  0  0  0  0  0  0  0  0  0  0  0
   41.1907   14.5594   10.2432 H   0  0  0  0  0  0  0  0  0  0  0  0
   47.0275   12.9368   11.8151 H   0  0  0  0  0  0  0  0  0  0  0  0
   45.6863   12.7702   12.9623 H   0  0  0  0  0  0  0  0  0  0  0  0
   45.4287   13.5106   11.3735 H   0  0  0  0  0  0  0  0  0  0  0  0
   40.6482   15.8858    8.4084 H   0  0  0  0  0  0  0  0  0  0  0  0
   39.4306   14.5586    8.5562 H   0  0  0  0  0  0  0  0  0  0  0  0
   39.6764   15.3930    7.0175 H   0  0  0  0  0  0  0  0  0  0  0  0
   44.0537   13.2609   10.3691 H   0  0  0  0  0  0  0  0  0  0  0  0
   49.7840   10.6427   12.7936 H   0  0  0  0  0  0  0  0  0  0  0  0
   46.9996   10.6098   10.8102 H   0  0  0  0  0  0  0  0  0  0  0  0
   46.8499   13.2991   12.3397 H   0  0  0  0  0  0  0  0  0  0  0  0
   39.8533   10.9358    9.9193 H   0  0  0  0  0  0  0  0  0  0  0  0
   46.1779   11.6231    9.2441 H   0  0  0  0  0  0  0  0  0  0  0  0
   41.9346   13.7609    8.9443 H   0  0  0  0  0  0  0  0  0  0  0  0
   47.6729   12.2941   13.0848 H   0  0  0  0  0  0  0  0  0  0  0  0
   43.8979   13.2619    9.8188 H   0  0  0  0  0  0  0  0  0  0  0  0
   46.4047   10.9861   11.4336 H   0  0  0  0  0  0  0  0  0  0  0  0
   44.5163    9.6109   12.0018 H   0  0  0  0  0  0  0  0  0  0  0  0
   42.1538    9.0102   11.6479 H   0  0  0  0  0  0  0  0  0  0  0  0
   45.5143   13.9084   11.8817 H   0  0  0  0  0  0  0  0  0  0  0  0
   45.3345   12.6560   13.0879 H   0  0  0  0  0  0  0  0  0  0  0  0
   48.3420   13.1825   10.9274 H   0  0  0  0  0  0  0  0  0  0  0  0
   50.3484   14.4506   11.8710 H   0  0  0  0  0  0  0  0  0  0  0  0
   49.6128   14.3557   13.4615 H   0  0  0  0  0  0  0  0  0  0  0  0
   50.7773   12.2459   10.5554 H   0  0  0  0  0  0  0  0  0  0  0  0
   49.9822   12.3905   14.7934 H   0  0  0  0  0  0  0  0  0  0  0  0
   39.8432   13.8376    8.2856 H   0  0  0  0  0  0  0  0  0  0  0  0
   51.8178   10.0291   10.8384 H   0  0  0  0  0  0  0  0  0  0  0  0
   51.0097   10.1915   15.0705 H   0  0  0  0  0  0  0  0  0  0  0  0
   47.7631   15.8689   12.3016 H   0  0  0  0  0  0  0  0  0  0  0  0
   48.6231   15.6514   10.7743 H   0  0  0  0  0  0  0  0  0  0  0  0
   46.9230   15.2345   10.8717 H   0  0  0  0  0  0  0  0  0  0  0  0
   51.4174    7.8762   14.7510 H   0  0  0  0  0  0  0  0  0  0  0  0
   52.9179    7.2193   14.0837 H   0  0  0  0  0  0  0  0  0  0  0  0
   52.9665    8.8033   14.8669 H   0  0  0  0  0  0  0  0  0  0  0  0
   47.6171   11.6521   11.8031 H   0  0  0  0  0  0  0  0  0  0  0  0
   46.2505   11.8981   11.1655 H   0  0  0  0  0  0  0  0  0  0  0  0
  2 10  1  0
  3 12  1  0
  4 19  1  0
  4 26  1  0
  5 22  2  0
  6  9  1  0
  6 22  1  0
  7 15  1  0
  7 17  1  0
  8 11  2  0
  8 12  1  0
  8 13  1  0
  9 10  2  0
  9 11  1  0
 10 14  1  0
 12 15  1  0
 13 14  2  0
 16 18  1  0
 16 20  2  0
 16 21  1  0
 17 18  1  0
 17 25  1  0
 19 23  2  0
 19 24  1  0
 20 23  1  0
 21 24  2  0
 27 31  1  0
 28 32  1  0
 29 31  2  0
 30 32  2  0
 31 33  1  0
 32 34  1  0
 33 34  2  0
 35 43  1  0
 36 45  1  0
 37 52  1  0
 37 59  1  0
 38 55  2  0
 39 42  1  0
 39 55  1  0
 40 48  1  0
 40 50  1  0
 41 44  2  0
 41 45  1  0
 41 46  1  0
 42 43  2  0
 42 44  1  0
 43 47  1  0
 45 48  1  0
 46 47  2  0
 49 51  1  0
 49 53  2  0
 49 54  1  0
 50 51  1  0
 50 58  1  0
 52 56  2  0
 52 57  1  0
 53 56  1  0
 54 57  2  0
  1 61  1  0
  1 62  1  0
  2 63  1  0
  3 64  1  0
  6 65  1  0
  7 66  1  0
 11 67  1  0
 12 68  1  6
 13 69  1  0
 14 70  1  0
 15 71  1  0
 15 72  1  0
 17 73  1  6
 18 74  1  0
 18 75  1  0
 20 76  1  0
 21 77  1  0
 22 78  1  0
 23 79  1  0
 24 80  1  0
 25 81  1  0
 25 82  1  0
 25 83  1  0
 26 84  1  0
 26 85  1  0
 26 86  1  0
 27 87  1  0
 28 88  1  0
 33 89  1  0
 34 90  1  0
 35 91  1  0
 36 92  1  0
 39 93  1  0
 40 94  1  0
 44 95  1  0
 45 96  1  1
 46 97  1  0
 47 98  1  0
 48 99  1  0
 48100  1  0
 50101  1  6
 51102  1  0
 51103  1  0
 53104  1  0
 54105  1  0
 55106  1  0
 56107  1  0
 57108  1  0
 58109  1  0
 58110  1  0
 58111  1  0
 59112  1  0
 59113  1  0
 59114  1  0
 60115  1  0
 60116  1  0
M  END
> <Uni-Dock RESULT> 
ENERGY=   -4.165  LOWER_BOUND=    1.632  UPPER_BOUND=    8.852
INTER + INTRA:          -4.165
INTER:                  -4.165
INTRA:                   0.000
UNBOUND:                 0.000

$$$$
