
     RDKit          3D

116115  0  0  0  0  0  0  0  0999 V2000
   48.7066   11.7866   19.3523 O   0  0  0  0  0  0  0  0  0  0  0  0
   50.0944   16.0458   13.6088 O   0  0  0  0  0  0  0  0  0  0  0  0
   50.7573   14.5958   19.6923 O   0  0  0  0  0  0  0  0  0  0  0  0
   47.6172    5.2457   22.8172 O   0  0  0  0  0  0  0  0  0  0  0  0
   50.7000   19.0032   17.5806 O   0  0  0  0  0  0  0  0  0  0  0  0
   50.4456   17.8685   15.5511 N   0  0  0  0  0  0  0  0  0  0  0  0
   48.9424   12.7398   20.7814 N   0  0  0  0  0  0  0  0  0  0  0  0
   49.6236   14.7984   17.5617 C   0  0  0  0  0  0  0  0  0  0  0  0
   50.1021   16.5567   15.9314 C   0  0  0  0  0  0  0  0  0  0  0  0
   49.9318   15.6221   14.9043 C   0  0  0  0  0  0  0  0  0  0  0  0
   49.9373   16.1414   17.2518 C   0  0  0  0  0  0  0  0  0  0  0  0
   49.4916   14.4162   19.0267 C   0  0  1  0  0  0  0  0  0  0  0  0
   49.4605   13.8883   16.5078 C   0  0  0  0  0  0  0  0  0  0  0  0
   49.6125   14.2959   15.1812 C   0  0  0  0  0  0  0  0  0  0  0  0
   49.0272   12.9639   19.3279 C   0  0  0  0  0  0  0  0  0  0  0  0
   47.7117    9.1051   21.2161 C   0  0  0  0  0  0  0  0  0  0  0  0
   48.9755   11.3290   21.2098 C   0  0  1  0  0  0  0  0  0  0  0  0
   47.8151   10.4909   20.6166 C   0  0  0  0  0  0  0  0  0  0  0  0
   47.6086    6.5383   22.3710 C   0  0  0  0  0  0  0  0  0  0  0  0
   47.3086    8.9349   22.5482 C   0  0  0  0  0  0  0  0  0  0  0  0
   48.0387    7.9718   20.4593 C   0  0  0  0  0  0  0  0  0  0  0  0
   50.7120   18.9413   16.3618 C   0  0  0  0  0  0  0  0  0  0  0  0
   47.2578    7.6598   23.1227 C   0  0  0  0  0  0  0  0  0  0  0  0
   47.9803    6.7010   21.0345 C   0  0  0  0  0  0  0  0  0  0  0  0
   50.3530   10.6908   20.9630 C   0  0  0  0  0  0  0  0  0  0  0  0
   47.5521    5.0632   24.2247 C   0  0  0  0  0  0  0  0  0  0  0  0
   48.4044   14.1976   18.0227 O   0  0  0  0  0  0  0  0  0  0  0  0
   47.7927   10.3638   20.9325 O   0  0  0  0  0  0  0  0  0  0  0  0
   50.5246   13.4646   18.0867 O   0  0  0  0  0  0  0  0  0  0  0  0
   49.8238    9.4719   21.2062 O   0  0  0  0  0  0  0  0  0  0  0  0
   49.3625   13.3504   18.4274 C   0  0  0  0  0  0  0  0  0  0  0  0
   49.1143   10.3244   20.7023 C   0  0  0  0  0  0  0  0  0  0  0  0
   48.7906   12.3268   19.3032 C   0  0  0  0  0  0  0  0  0  0  0  0
   49.5957   11.3875   19.8163 C   0  0  0  0  0  0  0  0  0  0  0  0
   51.7245   16.7511   16.0105 O   0  0  0  0  0  0  0  0  0  0  0  0
   48.8080   15.1347   21.2749 O   0  0  0  0  0  0  0  0  0  0  0  0
   50.2861    6.6327   22.6480 O   0  0  0  0  0  0  0  0  0  0  0  0
   47.1017   14.7789   15.8341 O   0  0  0  0  0  0  0  0  0  0  0  0
   49.3016   15.5231   15.5233 N   0  0  0  0  0  0  0  0  0  0  0  0
   48.3742   11.9601   19.3587 N   0  0  0  0  0  0  0  0  0  0  0  0
   49.8670   14.7623   19.1588 C   0  0  0  0  0  0  0  0  0  0  0  0
   49.8475   15.4797   16.8241 C   0  0  0  0  0  0  0  0  0  0  0  0
   51.1126   16.0515   17.0166 C   0  0  0  0  0  0  0  0  0  0  0  0
   49.2274   14.8506   17.9070 C   0  0  0  0  0  0  0  0  0  0  0  0
   49.2360   14.1024   20.3737 C   0  0  2  0  0  0  0  0  0  0  0  0
   51.1397   15.3420   19.3071 C   0  0  0  0  0  0  0  0  0  0  0  0
   51.7691   15.9758   18.2380 C   0  0  0  0  0  0  0  0  0  0  0  0
   48.0337   13.1475   20.1477 C   0  0  0  0  0  0  0  0  0  0  0  0
   47.6193    9.3513   20.9160 C   0  0  0  0  0  0  0  0  0  0  0  0
   47.2086   11.1193   19.0530 C   0  0  2  0  0  0  0  0  0  0  0  0
   46.6510   10.3033   20.2471 C   0  0  0  0  0  0  0  0  0  0  0  0
   49.4412    7.5854   22.1486 C   0  0  0  0  0  0  0  0  0  0  0  0
   47.7728    8.0433   20.4427 C   0  0  0  0  0  0  0  0  0  0  0  0
   48.3822    9.7613   22.0174 C   0  0  0  0  0  0  0  0  0  0  0  0
   48.0453   15.1252   15.1377 C   0  0  0  0  0  0  0  0  0  0  0  0
   48.6767    7.1710   21.0553 C   0  0  0  0  0  0  0  0  0  0  0  0
   49.2889    8.8859   22.6292 C   0  0  0  0  0  0  0  0  0  0  0  0
   47.5934   10.2225   17.8731 C   0  0  0  0  0  0  0  0  0  0  0  0
   51.1362    7.0213   23.7181 C   0  0  0  0  0  0  0  0  0  0  0  0
   48.7081   11.8104   19.3361 O   0  0  0  0  0  0  0  0  0  0  0  0
   49.1725   11.3708   20.0933 H   0  0  0  0  0  0  0  0  0  0  0  0
   49.1972   12.6086   19.2027 H   0  0  0  0  0  0  0  0  0  0  0  0
   49.9566   15.2862   13.0204 H   0  0  0  0  0  0  0  0  0  0  0  0
   51.4076   14.8946   19.0316 H   0  0  0  0  0  0  0  0  0  0  0  0
   50.5281   18.0015   14.5472 H   0  0  0  0  0  0  0  0  0  0  0  0
   49.7347   13.2357   21.2039 H   0  0  0  0  0  0  0  0  0  0  0  0
   50.0533   16.8472   18.0718 H   0  0  0  0  0  0  0  0  0  0  0  0
   48.7789   15.1121   19.4877 H   0  0  0  0  0  0  0  0  0  0  0  0
   49.2117   12.8475   16.6963 H   0  0  0  0  0  0  0  0  0  0  0  0
   49.4827   13.5667   14.3862 H   0  0  0  0  0  0  0  0  0  0  0  0
   48.0513   12.7748   18.8727 H   0  0  0  0  0  0  0  0  0  0  0  0
   49.7601   12.2789   18.8903 H   0  0  0  0  0  0  0  0  0  0  0  0
   48.8436   11.3586   22.2999 H   0  0  0  0  0  0  0  0  0  0  0  0
   46.8600   11.0051   20.7862 H   0  0  0  0  0  0  0  0  0  0  0  0
   47.9163   10.4090   19.5279 H   0  0  0  0  0  0  0  0  0  0  0  0
   47.0384    9.7989   23.1517 H   0  0  0  0  0  0  0  0  0  0  0  0
   48.3498    8.0712   19.4219 H   0  0  0  0  0  0  0  0  0  0  0  0
   50.9644   19.8275   15.7555 H   0  0  0  0  0  0  0  0  0  0  0  0
   46.9368    7.5770   24.1566 H   0  0  0  0  0  0  0  0  0  0  0  0
   48.2447    5.8278   20.4425 H   0  0  0  0  0  0  0  0  0  0  0  0
   50.4518    9.7516   21.5181 H   0  0  0  0  0  0  0  0  0  0  0  0
   51.1638   11.3447   21.3055 H   0  0  0  0  0  0  0  0  0  0  0  0
   50.5211   10.4680   19.9043 H   0  0  0  0  0  0  0  0  0  0  0  0
   48.3402    5.6213   24.7401 H   0  0  0  0  0  0  0  0  0  0  0  0
   46.5622    5.3295   24.6133 H   0  0  0  0  0  0  0  0  0  0  0  0
   47.7162    4.0004   24.4316 H   0  0  0  0  0  0  0  0  0  0  0  0
   48.8752   14.8393   17.4518 H   0  0  0  0  0  0  0  0  0  0  0  0
   47.6343    9.6048   21.5325 H   0  0  0  0  0  0  0  0  0  0  0  0
   47.7264   12.3718   19.5027 H   0  0  0  0  0  0  0  0  0  0  0  0
   50.6610   11.3610   19.6088 H   0  0  0  0  0  0  0  0  0  0  0  0
   51.0789   17.4289   15.7391 H   0  0  0  0  0  0  0  0  0  0  0  0
   48.6796   15.9395   20.7450 H   0  0  0  0  0  0  0  0  0  0  0  0
   49.9416   15.8055   14.7895 H   0  0  0  0  0  0  0  0  0  0  0  0
   49.0882   11.4052   19.8320 H   0  0  0  0  0  0  0  0  0  0  0  0
   48.2543   14.3873   17.7759 H   0  0  0  0  0  0  0  0  0  0  0  0
   50.0143   13.5304   20.8940 H   0  0  0  0  0  0  0  0  0  0  0  0
   51.6491   15.2929   20.2696 H   0  0  0  0  0  0  0  0  0  0  0  0
   52.7533   16.4185   18.3666 H   0  0  0  0  0  0  0  0  0  0  0  0
   47.6577   12.8453   21.1334 H   0  0  0  0  0  0  0  0  0  0  0  0
   47.2128   13.7065   19.6795 H   0  0  0  0  0  0  0  0  0  0  0  0
   46.3973   11.7638   18.6909 H   0  0  0  0  0  0  0  0  0  0  0  0
   46.2505   10.9882   21.0068 H   0  0  0  0  0  0  0  0  0  0  0  0
   45.7759    9.7321   19.9087 H   0  0  0  0  0  0  0  0  0  0  0  0
   47.1946    7.6920   19.5902 H   0  0  0  0  0  0  0  0  0  0  0  0
   48.2759   10.7689   22.4124 H   0  0  0  0  0  0  0  0  0  0  0  0
   47.9461   15.1737   14.0406 H   0  0  0  0  0  0  0  0  0  0  0  0
   48.7869    6.1584   20.6725 H   0  0  0  0  0  0  0  0  0  0  0  0
   49.8566    9.2512   23.4788 H   0  0  0  0  0  0  0  0  0  0  0  0
   46.7647    9.5614   17.5999 H   0  0  0  0  0  0  0  0  0  0  0  0
   48.4688    9.6020   18.0914 H   0  0  0  0  0  0  0  0  0  0  0  0
   47.8372   10.8286   16.9924 H   0  0  0  0  0  0  0  0  0  0  0  0
   50.5536    7.2721   24.6103 H   0  0  0  0  0  0  0  0  0  0  0  0
   51.7888    7.8500   23.4241 H   0  0  0  0  0  0  0  0  0  0  0  0
   51.7758    6.1679   23.9615 H   0  0  0  0  0  0  0  0  0  0  0  0
   49.2406   12.6140   19.2392 H   0  0  0  0  0  0  0  0  0  0  0  0
   49.1276   11.3415   20.0730 H   0  0  0  0  0  0  0  0  0  0  0  0
  2 10  1  0
  3 12  1  0
  4 19  1  0
  4 26  1  0
  5 22  2  0
  6  9  1  0
  6 22  1  0
  7 15  1  0
  7 17  1  0
  8 11  2  0
  8 12  1  0
  8 13  1  0
  9 10  2  0
  9 11  1  0
 10 14  1  0
 12 15  1  0
 13 14  2  0
 16 18  1  0
 16 20  2  0
 16 21  1  0
 17 18  1  0
 17 25  1  0
 19 23  2  0
 19 24  1  0
 20 23  1  0
 21 24  2  0
 27 31  1  0
 28 32  1  0
 29 31  2  0
 30 32  2  0
 31 33  1  0
 32 34  1  0
 33 34  2  0
 35 43  1  0
 36 45  1  0
 37 52  1  0
 37 59  1  0
 38 55  2  0
 39 42  1  0
 39 55  1  0
 40 48  1  0
 40 50  1  0
 41 44  2  0
 41 45  1  0
 41 46  1  0
 42 43  2  0
 42 44  1  0
 43 47  1  0
 45 48  1  0
 46 47  2  0
 49 51  1  0
 49 53  2  0
 49 54  1  0
 50 51  1  0
 50 58  1  0
 52 56  2  0
 52 57  1  0
 53 56  1  0
 54 57  2  0
  1 61  1  0
  1 62  1  0
  2 63  1  0
  3 64  1  0
  6 65  1  0
  7 66  1  0
 11 67  1  0
 12 68  1  6
 13 69  1  0
 14 70  1  0
 15 71  1  0
 15 72  1  0
 17 73  1  6
 18 74  1  0
 18 75  1  0
 20 76  1  0
 21 77  1  0
 22 78  1  0
 23 79  1  0
 24 80  1  0
 25 81  1  0
 25 82  1  0
 25 83  1  0
 26 84  1  0
 26 85  1  0
 26 86  1  0
 27 87  1  0
 28 88  1  0
 33 89  1  0
 34 90  1  0
 35 91  1  0
 36 92  1  0
 39 93  1  0
 40 94  1  0
 44 95  1  0
 45 96  1  1
 46 97  1  0
 47 98  1  0
 48 99  1  0
 48100  1  0
 50101  1  6
 51102  1  0
 51103  1  0
 53104  1  0
 54105  1  0
 55106  1  0
 56107  1  0
 57108  1  0
 58109  1  0
 58110  1  0
 58111  1  0
 59112  1  0
 59113  1  0
 59114  1  0
 60115  1  0
 60116  1  0
M  END
> <Uni-Dock RESULT> 
ENERGY=   -4.814  LOWER_BOUND=    0.000  UPPER_BOUND=    0.000
INTER + INTRA:          -4.814
INTER:                  -4.814
INTRA:                   0.000
UNBOUND:                 0.000

$$$$

     RDKit          3D

116115  0  0  0  0  0  0  0  0999 V2000
   48.1011    9.2545   13.3589 O   0  0  0  0  0  0  0  0  0  0  0  0
   51.6624   14.1549   17.4033 O   0  0  0  0  0  0  0  0  0  0  0  0
   47.5869   12.6732   12.8485 O   0  0  0  0  0  0  0  0  0  0  0  0
   44.4317    2.8425   12.1764 O   0  0  0  0  0  0  0  0  0  0  0  0
   50.5539   16.5441   13.1663 O   0  0  0  0  0  0  0  0  0  0  0  0
   51.2407   15.6677   15.2234 N   0  0  0  0  0  0  0  0  0  0  0  0
   47.6408   10.0311   11.8785 N   0  0  0  0  0  0  0  0  0  0  0  0
   49.5689   12.4510   14.2226 C   0  0  0  0  0  0  0  0  0  0  0  0
   50.7523   14.3468   15.2145 C   0  0  0  0  0  0  0  0  0  0  0  0
   50.9762   13.5795   16.3629 C   0  0  0  0  0  0  0  0  0  0  0  0
   50.0594   13.7747   14.1488 C   0  0  0  0  0  0  0  0  0  0  0  0
   48.7952   11.9094   13.0319 C   0  0  1  0  0  0  0  0  0  0  0  0
   49.8108   11.7109   15.3885 C   0  0  0  0  0  0  0  0  0  0  0  0
   50.5132   12.2704   16.4575 C   0  0  0  0  0  0  0  0  0  0  0  0
   48.3766   10.4140   13.0958 C   0  0  0  0  0  0  0  0  0  0  0  0
   46.7995    6.2846   12.2914 C   0  0  0  0  0  0  0  0  0  0  0  0
   46.7996    8.8255   11.9971 C   0  0  1  0  0  0  0  0  0  0  0  0
   47.6088    7.5605   12.3790 C   0  0  0  0  0  0  0  0  0  0  0  0
   45.2118    3.9644   12.1222 C   0  0  0  0  0  0  0  0  0  0  0  0
   46.3881    5.7876   11.0465 C   0  0  0  0  0  0  0  0  0  0  0  0
   46.4282    5.5915   13.4515 C   0  0  0  0  0  0  0  0  0  0  0  0
   51.1081   16.6245   14.2507 C   0  0  0  0  0  0  0  0  0  0  0  0
   45.5986    4.6352   10.9619 C   0  0  0  0  0  0  0  0  0  0  0  0
   45.6461    4.4386   13.3621 C   0  0  0  0  0  0  0  0  0  0  0  0
   45.5952    9.0602   12.9244 C   0  0  0  0  0  0  0  0  0  0  0  0
   43.7211    2.5098   10.9920 C   0  0  0  0  0  0  0  0  0  0  0  0
   50.0148   11.2439   13.5868 O   0  0  0  0  0  0  0  0  0  0  0  0
   47.4181    7.4096   12.1397 O   0  0  0  0  0  0  0  0  0  0  0  0
   48.0536   11.7677   14.5438 O   0  0  0  0  0  0  0  0  0  0  0  0
   45.3546    7.7309   12.9364 O   0  0  0  0  0  0  0  0  0  0  0  0
   48.7240   11.0106   13.8679 C   0  0  0  0  0  0  0  0  0  0  0  0
   46.5064    8.1129   12.8291 C   0  0  0  0  0  0  0  0  0  0  0  0
   48.2939    9.7564   13.2484 C   0  0  0  0  0  0  0  0  0  0  0  0
   47.0274    9.3524   13.4115 C   0  0  0  0  0  0  0  0  0  0  0  0
   49.5627   15.3758   15.6642 O   0  0  0  0  0  0  0  0  0  0  0  0
   48.5371   11.9097   10.5882 O   0  0  0  0  0  0  0  0  0  0  0  0
   43.0800    5.4582   12.8140 O   0  0  0  0  0  0  0  0  0  0  0  0
   52.3168   11.2531   14.8218 O   0  0  0  0  0  0  0  0  0  0  0  0
   51.1135   13.0932   15.6316 N   0  0  0  0  0  0  0  0  0  0  0  0
   48.4258    9.2197   13.1746 N   0  0  0  0  0  0  0  0  0  0  0  0
   48.5947   12.3874   12.9348 C   0  0  0  0  0  0  0  0  0  0  0  0
   50.0495   13.2172   14.7128 C   0  0  0  0  0  0  0  0  0  0  0  0
   49.2398   14.3574   14.8071 C   0  0  0  0  0  0  0  0  0  0  0  0
   49.7258   12.2454   13.7620 C   0  0  0  0  0  0  0  0  0  0  0  0
   48.2023   11.3705   11.8759 C   0  0  2  0  0  0  0  0  0  0  0  0
   47.8041   13.5429   13.0676 C   0  0  0  0  0  0  0  0  0  0  0  0
   48.1159   14.5222   14.0081 C   0  0  0  0  0  0  0  0  0  0  0  0
   48.8152    9.9473   11.9633 C   0  0  0  0  0  0  0  0  0  0  0  0
   47.1214    6.4714   12.4353 C   0  0  0  0  0  0  0  0  0  0  0  0
   49.0986    7.9200   13.3058 C   0  0  2  0  0  0  0  0  0  0  0  0
   48.5930    6.8141   12.3444 C   0  0  0  0  0  0  0  0  0  0  0  0
   44.3759    5.8506   12.6201 C   0  0  0  0  0  0  0  0  0  0  0  0
   46.6695    5.5097   13.3459 C   0  0  0  0  0  0  0  0  0  0  0  0
   46.1842    7.1120   11.6139 C   0  0  0  0  0  0  0  0  0  0  0  0
   52.0850   12.1232   15.6492 C   0  0  0  0  0  0  0  0  0  0  0  0
   45.3086    5.2047   13.4353 C   0  0  0  0  0  0  0  0  0  0  0  0
   44.8201    6.8060   11.7062 C   0  0  0  0  0  0  0  0  0  0  0  0
   48.9900    7.4994   14.7741 C   0  0  0  0  0  0  0  0  0  0  0  0
   42.0824    6.1311   12.0585 C   0  0  0  0  0  0  0  0  0  0  0  0
   48.1180    9.2769   13.3654 O   0  0  0  0  0  0  0  0  0  0  0  0
   47.2083    9.0817   13.0240 H   0  0  0  0  0  0  0  0  0  0  0  0
   48.1545   10.2216   13.3865 H   0  0  0  0  0  0  0  0  0  0  0  0
   51.7245   13.5064   18.1228 H   0  0  0  0  0  0  0  0  0  0  0  0
   47.5406   13.3416   13.5553 H   0  0  0  0  0  0  0  0  0  0  0  0
   51.7214   15.9268   16.0802 H   0  0  0  0  0  0  0  0  0  0  0  0
   47.0469   10.8292   11.6284 H   0  0  0  0  0  0  0  0  0  0  0  0
   49.8784   14.3427   13.2386 H   0  0  0  0  0  0  0  0  0  0  0  0
   49.4148   12.0593   12.1383 H   0  0  0  0  0  0  0  0  0  0  0  0
   49.4601   10.6874   15.4884 H   0  0  0  0  0  0  0  0  0  0  0  0
   50.6823   11.6728   17.3491 H   0  0  0  0  0  0  0  0  0  0  0  0
   49.2584    9.7767   13.2040 H   0  0  0  0  0  0  0  0  0  0  0  0
   47.7351   10.2816   13.9727 H   0  0  0  0  0  0  0  0  0  0  0  0
   46.3850    8.6668   10.9924 H   0  0  0  0  0  0  0  0  0  0  0  0
   48.4756    7.4579   11.7131 H   0  0  0  0  0  0  0  0  0  0  0  0
   48.0235    7.6587   13.3893 H   0  0  0  0  0  0  0  0  0  0  0  0
   46.6742    6.3020   10.1314 H   0  0  0  0  0  0  0  0  0  0  0  0
   46.7365    5.9493   14.4312 H   0  0  0  0  0  0  0  0  0  0  0  0
   51.5918   17.5638   14.5676 H   0  0  0  0  0  0  0  0  0  0  0  0
   45.3067    4.2864    9.9761 H   0  0  0  0  0  0  0  0  0  0  0  0
   45.3548    3.9122   14.2682 H   0  0  0  0  0  0  0  0  0  0  0  0
   44.8461    8.2711   12.7966 H   0  0  0  0  0  0  0  0  0  0  0  0
   45.0941   10.0086   12.6969 H   0  0  0  0  0  0  0  0  0  0  0  0
   45.8837    9.0737   13.9806 H   0  0  0  0  0  0  0  0  0  0  0  0
   43.1123    3.3481   10.6385 H   0  0  0  0  0  0  0  0  0  0  0  0
   44.4014    2.1587   10.2073 H   0  0  0  0  0  0  0  0  0  0  0  0
   43.0376    1.6885   11.2321 H   0  0  0  0  0  0  0  0  0  0  0  0
   50.2095   12.0930   14.0345 H   0  0  0  0  0  0  0  0  0  0  0  0
   46.9208    6.6280   11.8190 H   0  0  0  0  0  0  0  0  0  0  0  0
   49.0268    9.1998   12.6764 H   0  0  0  0  0  0  0  0  0  0  0  0
   46.3055    9.9260   13.9845 H   0  0  0  0  0  0  0  0  0  0  0  0
   50.4780   15.6223   15.4374 H   0  0  0  0  0  0  0  0  0  0  0  0
   49.2385   12.5678   10.7291 H   0  0  0  0  0  0  0  0  0  0  0  0
   51.1034   13.7501   16.4039 H   0  0  0  0  0  0  0  0  0  0  0  0
   47.4138    9.0920   13.2090 H   0  0  0  0  0  0  0  0  0  0  0  0
   50.3303   11.3470   13.6827 H   0  0  0  0  0  0  0  0  0  0  0  0
   47.1113   11.2582   11.8984 H   0  0  0  0  0  0  0  0  0  0  0  0
   46.9291   13.6773   12.4315 H   0  0  0  0  0  0  0  0  0  0  0  0
   47.4954   15.4095   14.1006 H   0  0  0  0  0  0  0  0  0  0  0  0
   48.4939    9.3904   11.0740 H   0  0  0  0  0  0  0  0  0  0  0  0
   49.9079   10.0203   11.8847 H   0  0  0  0  0  0  0  0  0  0  0  0
   50.1695    8.0586   13.1093 H   0  0  0  0  0  0  0  0  0  0  0  0
   48.8255    7.0924   11.3075 H   0  0  0  0  0  0  0  0  0  0  0  0
   49.1766    5.8997   12.5171 H   0  0  0  0  0  0  0  0  0  0  0  0
   47.3709    4.9922   13.9976 H   0  0  0  0  0  0  0  0  0  0  0  0
   46.5084    7.8562   10.8903 H   0  0  0  0  0  0  0  0  0  0  0  0
   52.7126   12.2233   16.5503 H   0  0  0  0  0  0  0  0  0  0  0  0
   44.9732    4.4571   14.1515 H   0  0  0  0  0  0  0  0  0  0  0  0
   44.1341    7.3298   11.0484 H   0  0  0  0  0  0  0  0  0  0  0  0
   49.4681    6.5282   14.9374 H   0  0  0  0  0  0  0  0  0  0  0  0
   47.9504    7.4302   15.1105 H   0  0  0  0  0  0  0  0  0  0  0  0
   49.4923    8.2282   15.4214 H   0  0  0  0  0  0  0  0  0  0  0  0
   42.2021    5.9346   10.9883 H   0  0  0  0  0  0  0  0  0  0  0  0
   42.0853    7.2059   12.2677 H   0  0  0  0  0  0  0  0  0  0  0  0
   41.1095    5.7375   12.3672 H   0  0  0  0  0  0  0  0  0  0  0  0
   48.1061   10.2457   13.3686 H   0  0  0  0  0  0  0  0  0  0  0  0
   47.2397    9.0352   13.0354 H   0  0  0  0  0  0  0  0  0  0  0  0
  2 10  1  0
  3 12  1  0
  4 19  1  0
  4 26  1  0
  5 22  2  0
  6  9  1  0
  6 22  1  0
  7 15  1  0
  7 17  1  0
  8 11  2  0
  8 12  1  0
  8 13  1  0
  9 10  2  0
  9 11  1  0
 10 14  1  0
 12 15  1  0
 13 14  2  0
 16 18  1  0
 16 20  2  0
 16 21  1  0
 17 18  1  0
 17 25  1  0
 19 23  2  0
 19 24  1  0
 20 23  1  0
 21 24  2  0
 27 31  1  0
 28 32  1  0
 29 31  2  0
 30 32  2  0
 31 33  1  0
 32 34  1  0
 33 34  2  0
 35 43  1  0
 36 45  1  0
 37 52  1  0
 37 59  1  0
 38 55  2  0
 39 42  1  0
 39 55  1  0
 40 48  1  0
 40 50  1  0
 41 44  2  0
 41 45  1  0
 41 46  1  0
 42 43  2  0
 42 44  1  0
 43 47  1  0
 45 48  1  0
 46 47  2  0
 49 51  1  0
 49 53  2  0
 49 54  1  0
 50 51  1  0
 50 58  1  0
 52 56  2  0
 52 57  1  0
 53 56  1  0
 54 57  2  0
  1 61  1  0
  1 62  1  0
  2 63  1  0
  3 64  1  0
  6 65  1  0
  7 66  1  0
 11 67  1  0
 12 68  1  6
 13 69  1  0
 14 70  1  0
 15 71  1  0
 15 72  1  0
 17 73  1  6
 18 74  1  0
 18 75  1  0
 20 76  1  0
 21 77  1  0
 22 78  1  0
 23 79  1  0
 24 80  1  0
 25 81  1  0
 25 82  1  0
 25 83  1  0
 26 84  1  0
 26 85  1  0
 26 86  1  0
 27 87  1  0
 28 88  1  0
 33 89  1  0
 34 90  1  0
 35 91  1  0
 36 92  1  0
 39 93  1  0
 40 94  1  0
 44 95  1  0
 45 96  1  1
 46 97  1  0
 47 98  1  0
 48 99  1  0
 48100  1  0
 50101  1  6
 51102  1  0
 51103  1  0
 53104  1  0
 54105  1  0
 55106  1  0
 56107  1  0
 57108  1  0
 58109  1  0
 58110  1  0
 58111  1  0
 59112  1  0
 59113  1  0
 59114  1  0
 60115  1  0
 60116  1  0
M  END
> <Uni-Dock RESULT> 
ENERGY=   -4.491  LOWER_BOUND=    5.716  UPPER_BOUND=    7.945
INTER + INTRA:          -4.491
INTER:                  -4.491
INTRA:                   0.000
UNBOUND:                 0.000

$$$$

     RDKit          3D

116115  0  0  0  0  0  0  0  0999 V2000
   43.3557   13.9835   11.3793 O   0  0  0  0  0  0  0  0  0  0  0  0
   37.6866   14.6507   15.9038 O   0  0  0  0  0  0  0  0  0  0  0  0
   42.7733   16.9990   13.0469 O   0  0  0  0  0  0  0  0  0  0  0  0
   46.8208   11.6390    5.1768 O   0  0  0  0  0  0  0  0  0  0  0  0
   40.9976   18.0326   17.4815 O   0  0  0  0  0  0  0  0  0  0  0  0
   39.2872   16.5137   16.9926 N   0  0  0  0  0  0  0  0  0  0  0  0
   44.5369   15.1662   11.8405 N   0  0  0  0  0  0  0  0  0  0  0  0
   41.3972   15.3184   14.1181 C   0  0  0  0  0  0  0  0  0  0  0  0
   39.7592   15.8163   15.8637 C   0  0  0  0  0  0  0  0  0  0  0  0
   38.9062   14.8563   15.3084 C   0  0  0  0  0  0  0  0  0  0  0  0
   41.0021   16.0339   15.2714 C   0  0  0  0  0  0  0  0  0  0  0  0
   42.7544   15.6350   13.5120 C   0  0  1  0  0  0  0  0  0  0  0  0
   40.5175   14.3641   13.5877 C   0  0  0  0  0  0  0  0  0  0  0  0
   39.2748   14.1305   14.1794 C   0  0  0  0  0  0  0  0  0  0  0  0
   43.2086   14.7470   12.3201 C   0  0  0  0  0  0  0  0  0  0  0  0
   45.4206   12.7604    8.9516 C   0  0  0  0  0  0  0  0  0  0  0  0
   44.8783   14.7476   10.4682 C   0  0  1  0  0  0  0  0  0  0  0  0
   44.8643   13.2089   10.2858 C   0  0  0  0  0  0  0  0  0  0  0  0
   46.4503   12.0185    6.4373 C   0  0  0  0  0  0  0  0  0  0  0  0
   46.7868   12.8984    8.6683 C   0  0  0  0  0  0  0  0  0  0  0  0
   44.5781   12.2219    7.9696 C   0  0  0  0  0  0  0  0  0  0  0  0
   39.9062   17.5242   17.6817 C   0  0  0  0  0  0  0  0  0  0  0  0
   47.2989   12.5305    7.4189 C   0  0  0  0  0  0  0  0  0  0  0  0
   45.0943   11.8502    6.7268 C   0  0  0  0  0  0  0  0  0  0  0  0
   44.0198   15.4757    9.4202 C   0  0  0  0  0  0  0  0  0  0  0  0
   48.0998   12.0737    4.7368 C   0  0  0  0  0  0  0  0  0  0  0  0
   42.3524   14.2610   13.9462 O   0  0  0  0  0  0  0  0  0  0  0  0
   45.1534   13.2624   10.1126 O   0  0  0  0  0  0  0  0  0  0  0  0
   41.4304   15.6697   12.4623 O   0  0  0  0  0  0  0  0  0  0  0  0
   44.4558   14.6145    8.4751 O   0  0  0  0  0  0  0  0  0  0  0  0
   42.2612   14.8231   12.7316 C   0  0  0  0  0  0  0  0  0  0  0  0
   44.3457   14.2147    9.6206 C   0  0  0  0  0  0  0  0  0  0  0  0
   43.2832   14.2679   11.8433 C   0  0  0  0  0  0  0  0  0  0  0  0
   43.3565   14.7102   10.5812 C   0  0  0  0  0  0  0  0  0  0  0  0
   39.0938   17.2372   15.4007 O   0  0  0  0  0  0  0  0  0  0  0  0
   45.0795   16.3059   13.9391 O   0  0  0  0  0  0  0  0  0  0  0  0
   45.4785   14.3233    5.4382 O   0  0  0  0  0  0  0  0  0  0  0  0
   41.0084   12.5870   15.4349 O   0  0  0  0  0  0  0  0  0  0  0  0
   39.7425   14.5558   15.3283 N   0  0  0  0  0  0  0  0  0  0  0  0
   43.5159   13.7950   11.6611 N   0  0  0  0  0  0  0  0  0  0  0  0
   42.7071   16.1415   13.6512 C   0  0  0  0  0  0  0  0  0  0  0  0
   40.6507   15.4996   14.8024 C   0  0  0  0  0  0  0  0  0  0  0  0
   40.2557   16.8443   14.7911 C   0  0  0  0  0  0  0  0  0  0  0  0
   41.8860   15.1619   14.2428 C   0  0  0  0  0  0  0  0  0  0  0  0
   44.0642   15.8348   13.0400 C   0  0  2  0  0  0  0  0  0  0  0  0
   42.2694   17.4780   13.6535 C   0  0  0  0  0  0  0  0  0  0  0  0
   41.0422   17.8308   14.2108 C   0  0  0  0  0  0  0  0  0  0  0  0
   44.3941   14.3592   12.6901 C   0  0  0  0  0  0  0  0  0  0  0  0
   45.1999   12.6730    9.2724 C   0  0  0  0  0  0  0  0  0  0  0  0
   43.7601   12.3668   11.4168 C   0  0  2  0  0  0  0  0  0  0  0  0
   45.0626   12.0423   10.6416 C   0  0  0  0  0  0  0  0  0  0  0  0
   45.4357   13.8604    6.7246 C   0  0  0  0  0  0  0  0  0  0  0  0
   44.6858   12.0329    8.1392 C   0  0  0  0  0  0  0  0  0  0  0  0
   45.8398   13.9094    9.1136 C   0  0  0  0  0  0  0  0  0  0  0  0
   39.9647   13.2166   15.5339 C   0  0  0  0  0  0  0  0  0  0  0  0
   44.8038   12.6240    6.8783 C   0  0  0  0  0  0  0  0  0  0  0  0
   45.9557   14.5011    7.8490 C   0  0  0  0  0  0  0  0  0  0  0  0
   42.5190   11.8080   10.7156 C   0  0  0  0  0  0  0  0  0  0  0  0
   46.0503   15.6078    5.2335 C   0  0  0  0  0  0  0  0  0  0  0  0
   43.3410   13.9887   11.4036 O   0  0  0  0  0  0  0  0  0  0  0  0
   43.7955   14.4744   10.6690 H   0  0  0  0  0  0  0  0  0  0  0  0
   43.0135   14.6777   11.9624 H   0  0  0  0  0  0  0  0  0  0  0  0
   37.2124   13.9703   15.3996 H   0  0  0  0  0  0  0  0  0  0  0  0
   41.8943   17.3863   13.2077 H   0  0  0  0  0  0  0  0  0  0  0  0
   38.3586   16.2338   17.2952 H   0  0  0  0  0  0  0  0  0  0  0  0
   44.5606   16.1903   11.8927 H   0  0  0  0  0  0  0  0  0  0  0  0
   41.6914   16.7665   15.6861 H   0  0  0  0  0  0  0  0  0  0  0  0
   43.5017   15.5526   14.3118 H   0  0  0  0  0  0  0  0  0  0  0  0
   40.7804   13.7843   12.7072 H   0  0  0  0  0  0  0  0  0  0  0  0
   38.6136   13.3866   13.7435 H   0  0  0  0  0  0  0  0  0  0  0  0
   43.2448   13.6965   12.6208 H   0  0  0  0  0  0  0  0  0  0  0  0
   42.4732   14.8597   11.5174 H   0  0  0  0  0  0  0  0  0  0  0  0
   45.9090   15.0936   10.3123 H   0  0  0  0  0  0  0  0  0  0  0  0
   45.4595   12.7347   11.0772 H   0  0  0  0  0  0  0  0  0  0  0  0
   43.8478   12.8157   10.4060 H   0  0  0  0  0  0  0  0  0  0  0  0
   47.4623   13.3027    9.4193 H   0  0  0  0  0  0  0  0  0  0  0  0
   43.5149   12.0977    8.1616 H   0  0  0  0  0  0  0  0  0  0  0  0
   39.2672   17.8709   18.5113 H   0  0  0  0  0  0  0  0  0  0  0  0
   48.3638   12.6528    7.2463 H   0  0  0  0  0  0  0  0  0  0  0  0
   44.4316   11.4418    5.9673 H   0  0  0  0  0  0  0  0  0  0  0  0
   44.4522   15.3673    8.4195 H   0  0  0  0  0  0  0  0  0  0  0  0
   43.9666   16.5517    9.6244 H   0  0  0  0  0  0  0  0  0  0  0  0
   42.9970   15.0868    9.3818 H   0  0  0  0  0  0  0  0  0  0  0  0
   48.2094   13.1592    4.8268 H   0  0  0  0  0  0  0  0  0  0  0  0
   48.9014   11.5513    5.2720 H   0  0  0  0  0  0  0  0  0  0  0  0
   48.1905   11.8235    3.6746 H   0  0  0  0  0  0  0  0  0  0  0  0
   41.6412   14.6905   14.4648 H   0  0  0  0  0  0  0  0  0  0  0  0
   45.7462   13.0445    9.3628 H   0  0  0  0  0  0  0  0  0  0  0  0
   43.9465   13.5127   12.2483 H   0  0  0  0  0  0  0  0  0  0  0  0
   42.6860   15.4712   10.1941 H   0  0  0  0  0  0  0  0  0  0  0  0
   39.1583   16.9059   16.3150 H   0  0  0  0  0  0  0  0  0  0  0  0
   44.6805   16.3417   14.8248 H   0  0  0  0  0  0  0  0  0  0  0  0
   38.8028   14.8983   15.4941 H   0  0  0  0  0  0  0  0  0  0  0  0
   43.6020   14.3164   10.7880 H   0  0  0  0  0  0  0  0  0  0  0  0
   42.2046   14.1241   14.2268 H   0  0  0  0  0  0  0  0  0  0  0  0
   44.1626   16.4193   12.1168 H   0  0  0  0  0  0  0  0  0  0  0  0
   42.8930   18.2536   13.2088 H   0  0  0  0  0  0  0  0  0  0  0  0
   40.7160   18.8674   14.2046 H   0  0  0  0  0  0  0  0  0  0  0  0
   45.4373   14.3217   12.3517 H   0  0  0  0  0  0  0  0  0  0  0  0
   44.3613   13.7557   13.6067 H   0  0  0  0  0  0  0  0  0  0  0  0
   43.8189   11.8512   12.3839 H   0  0  0  0  0  0  0  0  0  0  0  0
   45.9333   12.3264   11.2481 H   0  0  0  0  0  0  0  0  0  0  0  0
   45.1502   10.9525   10.5354 H   0  0  0  0  0  0  0  0  0  0  0  0
   44.1843   11.0709    8.2269 H   0  0  0  0  0  0  0  0  0  0  0  0
   46.2575   14.4244    9.9755 H   0  0  0  0  0  0  0  0  0  0  0  0
   39.0344   12.7162   15.8499 H   0  0  0  0  0  0  0  0  0  0  0  0
   44.3951   12.1150    6.0077 H   0  0  0  0  0  0  0  0  0  0  0  0
   46.4596   15.4596    7.7786 H   0  0  0  0  0  0  0  0  0  0  0  0
   42.6417   10.7424   10.4970 H   0  0  0  0  0  0  0  0  0  0  0  0
   42.3034   12.3278    9.7763 H   0  0  0  0  0  0  0  0  0  0  0  0
   41.6347   11.9147   11.3553 H   0  0  0  0  0  0  0  0  0  0  0  0
   47.1143   15.6087    5.4912 H   0  0  0  0  0  0  0  0  0  0  0  0
   45.5059   16.3768    5.7914 H   0  0  0  0  0  0  0  0  0  0  0  0
   45.9605   15.8461    4.1696 H   0  0  0  0  0  0  0  0  0  0  0  0
   43.0262   14.7296   11.9428 H   0  0  0  0  0  0  0  0  0  0  0  0
   43.7975   14.4173   10.6642 H   0  0  0  0  0  0  0  0  0  0  0  0
  2 10  1  0
  3 12  1  0
  4 19  1  0
  4 26  1  0
  5 22  2  0
  6  9  1  0
  6 22  1  0
  7 15  1  0
  7 17  1  0
  8 11  2  0
  8 12  1  0
  8 13  1  0
  9 10  2  0
  9 11  1  0
 10 14  1  0
 12 15  1  0
 13 14  2  0
 16 18  1  0
 16 20  2  0
 16 21  1  0
 17 18  1  0
 17 25  1  0
 19 23  2  0
 19 24  1  0
 20 23  1  0
 21 24  2  0
 27 31  1  0
 28 32  1  0
 29 31  2  0
 30 32  2  0
 31 33  1  0
 32 34  1  0
 33 34  2  0
 35 43  1  0
 36 45  1  0
 37 52  1  0
 37 59  1  0
 38 55  2  0
 39 42  1  0
 39 55  1  0
 40 48  1  0
 40 50  1  0
 41 44  2  0
 41 45  1  0
 41 46  1  0
 42 43  2  0
 42 44  1  0
 43 47  1  0
 45 48  1  0
 46 47  2  0
 49 51  1  0
 49 53  2  0
 49 54  1  0
 50 51  1  0
 50 58  1  0
 52 56  2  0
 52 57  1  0
 53 56  1  0
 54 57  2  0
  1 61  1  0
  1 62  1  0
  2 63  1  0
  3 64  1  0
  6 65  1  0
  7 66  1  0
 11 67  1  0
 12 68  1  6
 13 69  1  0
 14 70  1  0
 15 71  1  0
 15 72  1  0
 17 73  1  6
 18 74  1  0
 18 75  1  0
 20 76  1  0
 21 77  1  0
 22 78  1  0
 23 79  1  0
 24 80  1  0
 25 81  1  0
 25 82  1  0
 25 83  1  0
 26 84  1  0
 26 85  1  0
 26 86  1  0
 27 87  1  0
 28 88  1  0
 33 89  1  0
 34 90  1  0
 35 91  1  0
 36 92  1  0
 39 93  1  0
 40 94  1  0
 44 95  1  0
 45 96  1  1
 46 97  1  0
 47 98  1  0
 48 99  1  0
 48100  1  0
 50101  1  6
 51102  1  0
 51103  1  0
 53104  1  0
 54105  1  0
 55106  1  0
 56107  1  0
 57108  1  0
 58109  1  0
 58110  1  0
 58111  1  0
 59112  1  0
 59113  1  0
 59114  1  0
 60115  1  0
 60116  1  0
M  END
> <Uni-Dock RESULT> 
ENERGY=   -4.464  LOWER_BOUND=    9.251  UPPER_BOUND=   12.208
INTER + INTRA:          -4.464
INTER:                  -4.464
INTRA:                   0.000
UNBOUND:                 0.000

$$$$

     RDKit          3D

116115  0  0  0  0  0  0  0  0999 V2000
   49.5065    8.5879   15.3699 O   0  0  0  0  0  0  0  0  0  0  0  0
   53.1895   11.3912    9.7457 O   0  0  0  0  0  0  0  0  0  0  0  0
   48.1388   11.1956   13.4878 O   0  0  0  0  0  0  0  0  0  0  0  0
   48.8072    5.7368   22.2516 O   0  0  0  0  0  0  0  0  0  0  0  0
   48.3941   12.3310    8.7408 O   0  0  0  0  0  0  0  0  0  0  0  0
   50.7005   11.9910    8.9312 N   0  0  0  0  0  0  0  0  0  0  0  0
   47.8238    8.9178   15.1118 N   0  0  0  0  0  0  0  0  0  0  0  0
   50.0137   10.3197   12.2295 C   0  0  0  0  0  0  0  0  0  0  0  0
   50.8491   11.3241   10.1628 C   0  0  0  0  0  0  0  0  0  0  0  0
   52.1543   11.0285   10.5710 C   0  0  0  0  0  0  0  0  0  0  0  0
   49.7876   10.9591   10.9893 C   0  0  0  0  0  0  0  0  0  0  0  0
   48.8065    9.9822   13.0888 C   0  0  1  0  0  0  0  0  0  0  0  0
   51.3343   10.0391   12.6077 C   0  0  0  0  0  0  0  0  0  0  0  0
   52.4042   10.3904   11.7824 C   0  0  0  0  0  0  0  0  0  0  0  0
   49.0806    9.1722   14.3866 C   0  0  0  0  0  0  0  0  0  0  0  0
   48.8037    6.8508   18.2234 C   0  0  0  0  0  0  0  0  0  0  0  0
   47.9707    8.5893   16.5420 C   0  0  1  0  0  0  0  0  0  0  0  0
   48.8260    7.3201   16.7847 C   0  0  0  0  0  0  0  0  0  0  0  0
   48.7224    6.0634   20.9263 C   0  0  0  0  0  0  0  0  0  0  0  0
   47.6343    6.3103   18.7769 C   0  0  0  0  0  0  0  0  0  0  0  0
   49.9418    6.9692   19.0325 C   0  0  0  0  0  0  0  0  0  0  0  0
   49.5432   12.4294    8.3416 C   0  0  0  0  0  0  0  0  0  0  0  0
   47.5932    5.9195   20.1201 C   0  0  0  0  0  0  0  0  0  0  0  0
   49.8984    6.5721   20.3702 C   0  0  0  0  0  0  0  0  0  0  0  0
   48.4609    9.7981   17.3569 C   0  0  0  0  0  0  0  0  0  0  0  0
   47.5772    5.5149   22.9271 C   0  0  0  0  0  0  0  0  0  0  0  0
   49.8038    8.9609   12.6414 O   0  0  0  0  0  0  0  0  0  0  0  0
   48.5829    7.2429   17.0114 O   0  0  0  0  0  0  0  0  0  0  0  0
   50.0527   10.8422   13.8395 O   0  0  0  0  0  0  0  0  0  0  0  0
   48.6982    8.9839   18.4084 O   0  0  0  0  0  0  0  0  0  0  0  0
   49.7676    9.6610   13.7851 C   0  0  0  0  0  0  0  0  0  0  0  0
   48.8270    8.5343   17.2836 C   0  0  0  0  0  0  0  0  0  0  0  0
   49.3453    8.7980   14.8890 C   0  0  0  0  0  0  0  0  0  0  0  0
   49.2424    9.3195   16.1184 C   0  0  0  0  0  0  0  0  0  0  0  0
   50.7216   12.9353   10.4155 O   0  0  0  0  0  0  0  0  0  0  0  0
   46.4464    9.2987   13.1231 O   0  0  0  0  0  0  0  0  0  0  0  0
   48.4638    8.6581   21.6010 O   0  0  0  0  0  0  0  0  0  0  0  0
   51.5847    8.0133   10.9815 O   0  0  0  0  0  0  0  0  0  0  0  0
   51.6130   10.3434   10.7377 N   0  0  0  0  0  0  0  0  0  0  0  0
   49.4297    8.3052   15.1358 N   0  0  0  0  0  0  0  0  0  0  0  0
   48.5562   10.4150   12.9209 C   0  0  0  0  0  0  0  0  0  0  0  0
   50.4357   10.7549   11.3983 C   0  0  0  0  0  0  0  0  0  0  0  0
   50.0539   12.0973   11.2689 C   0  0  0  0  0  0  0  0  0  0  0  0
   49.6699    9.9190   12.2156 C   0  0  0  0  0  0  0  0  0  0  0  0
   47.6803    9.5505   13.8124 C   0  0  2  0  0  0  0  0  0  0  0  0
   48.2124   11.7703   12.7696 C   0  0  0  0  0  0  0  0  0  0  0  0
   48.9637   12.6152   11.9556 C   0  0  0  0  0  0  0  0  0  0  0  0
   48.2409    8.1833   14.2872 C   0  0  0  0  0  0  0  0  0  0  0  0
   48.9850    6.8428   17.8680 C   0  0  0  0  0  0  0  0  0  0  0  0
   50.0205    7.0065   15.4876 C   0  0  2  0  0  0  0  0  0  0  0  0
   49.2247    6.1788   16.5290 C   0  0  0  0  0  0  0  0  0  0  0  0
   48.5482    8.1000   20.3551 C   0  0  0  0  0  0  0  0  0  0  0  0
   49.9264    6.7293   18.8972 C   0  0  0  0  0  0  0  0  0  0  0  0
   47.8202    7.5857   18.1015 C   0  0  0  0  0  0  0  0  0  0  0  0
   52.1063    9.0657   10.6413 C   0  0  0  0  0  0  0  0  0  0  0  0
   49.7072    7.3538   20.1282 C   0  0  0  0  0  0  0  0  0  0  0  0
   47.6031    8.2123   19.3356 C   0  0  0  0  0  0  0  0  0  0  0  0
   51.4590    7.2707   15.9407 C   0  0  0  0  0  0  0  0  0  0  0  0
   47.3371    9.4832   21.8632 C   0  0  0  0  0  0  0  0  0  0  0  0
   49.5122    8.5962   15.3429 O   0  0  0  0  0  0  0  0  0  0  0  0
   48.9879    8.8824   16.1337 H   0  0  0  0  0  0  0  0  0  0  0  0
   49.3348    9.2655   14.6989 H   0  0  0  0  0  0  0  0  0  0  0  0
   54.0228   11.1313   10.1702 H   0  0  0  0  0  0  0  0  0  0  0  0
   48.6419   11.9496   13.1318 H   0  0  0  0  0  0  0  0  0  0  0  0
   51.5772   12.1848    8.4556 H   0  0  0  0  0  0  0  0  0  0  0  0
   47.2531    9.7653   15.0209 H   0  0  0  0  0  0  0  0  0  0  0  0
   48.7610   11.1663   10.6945 H   0  0  0  0  0  0  0  0  0  0  0  0
   48.1047    9.4134   12.4653 H   0  0  0  0  0  0  0  0  0  0  0  0
   51.5570    9.5423   13.5480 H   0  0  0  0  0  0  0  0  0  0  0  0
   53.4166   10.1623   12.1042 H   0  0  0  0  0  0  0  0  0  0  0  0
   49.5614    8.2201   14.1461 H   0  0  0  0  0  0  0  0  0  0  0  0
   49.7569    9.7611   15.0141 H   0  0  0  0  0  0  0  0  0  0  0  0
   46.9514    8.3779   16.8925 H   0  0  0  0  0  0  0  0  0  0  0  0
   48.4600    6.4986   16.1550 H   0  0  0  0  0  0  0  0  0  0  0  0
   49.8638    7.4895   16.4740 H   0  0  0  0  0  0  0  0  0  0  0  0
   46.7419    6.1975   18.1650 H   0  0  0  0  0  0  0  0  0  0  0  0
   50.8652    7.3798   18.6303 H   0  0  0  0  0  0  0  0  0  0  0  0
   49.7656   12.9286    7.3835 H   0  0  0  0  0  0  0  0  0  0  0  0
   46.6666    5.5035   20.5037 H   0  0  0  0  0  0  0  0  0  0  0  0
   50.7837    6.6762   20.9933 H   0  0  0  0  0  0  0  0  0  0  0  0
   48.3106    9.6314   18.4291 H   0  0  0  0  0  0  0  0  0  0  0  0
   47.9036   10.7066   17.0993 H   0  0  0  0  0  0  0  0  0  0  0  0
   49.5260    9.9975   17.1998 H   0  0  0  0  0  0  0  0  0  0  0  0
   46.8967    6.3649   22.8144 H   0  0  0  0  0  0  0  0  0  0  0  0
   47.1039    4.5844   22.5927 H   0  0  0  0  0  0  0  0  0  0  0  0
   47.7966    5.4119   23.9951 H   0  0  0  0  0  0  0  0  0  0  0  0
   50.0901    9.6126   11.9686 H   0  0  0  0  0  0  0  0  0  0  0  0
   48.3187    6.8647   17.8764 H   0  0  0  0  0  0  0  0  0  0  0  0
   49.1305    7.7601   14.6633 H   0  0  0  0  0  0  0  0  0  0  0  0
   49.4574   10.3634   16.3248 H   0  0  0  0  0  0  0  0  0  0  0  0
   50.7037   12.4881    9.5497 H   0  0  0  0  0  0  0  0  0  0  0  0
   46.6248    9.4037   12.1733 H   0  0  0  0  0  0  0  0  0  0  0  0
   52.1899   11.0899   10.3663 H   0  0  0  0  0  0  0  0  0  0  0  0
   49.2149    8.8302   15.9843 H   0  0  0  0  0  0  0  0  0  0  0  0
   49.9568    8.8796   12.3425 H   0  0  0  0  0  0  0  0  0  0  0  0
   47.4295   10.1300   14.7095 H   0  0  0  0  0  0  0  0  0  0  0  0
   47.3491   12.1731   13.2994 H   0  0  0  0  0  0  0  0  0  0  0  0
   48.6871   13.6607   11.8489 H   0  0  0  0  0  0  0  0  0  0  0  0
   47.4424    7.6675   14.8353 H   0  0  0  0  0  0  0  0  0  0  0  0
   48.4482    7.5552   13.4108 H   0  0  0  0  0  0  0  0  0  0  0  0
   50.0970    6.3985   14.5771 H   0  0  0  0  0  0  0  0  0  0  0  0
   48.2552    5.8855   16.1038 H   0  0  0  0  0  0  0  0  0  0  0  0
   49.7456    5.2268   16.6985 H   0  0  0  0  0  0  0  0  0  0  0  0
   50.8412    6.1584   18.7498 H   0  0  0  0  0  0  0  0  0  0  0  0
   47.0671    7.6822   17.3230 H   0  0  0  0  0  0  0  0  0  0  0  0
   53.0992    9.0716   10.1619 H   0  0  0  0  0  0  0  0  0  0  0  0
   50.4510    7.2590   20.9168 H   0  0  0  0  0  0  0  0  0  0  0  0
   46.6854    8.7764   19.4669 H   0  0  0  0  0  0  0  0  0  0  0  0
   51.9550    6.3375   16.2263 H   0  0  0  0  0  0  0  0  0  0  0  0
   51.5068    7.9583   16.7914 H   0  0  0  0  0  0  0  0  0  0  0  0
   52.0422    7.7198   15.1278 H   0  0  0  0  0  0  0  0  0  0  0  0
   46.4099    8.9022   21.8314 H   0  0  0  0  0  0  0  0  0  0  0  0
   47.2983   10.3313   21.1717 H   0  0  0  0  0  0  0  0  0  0  0  0
   47.4483    9.8864   22.8741 H   0  0  0  0  0  0  0  0  0  0  0  0
   49.2996    9.3058   14.7184 H   0  0  0  0  0  0  0  0  0  0  0  0
   49.0173    8.8338   16.1413 H   0  0  0  0  0  0  0  0  0  0  0  0
  2 10  1  0
  3 12  1  0
  4 19  1  0
  4 26  1  0
  5 22  2  0
  6  9  1  0
  6 22  1  0
  7 15  1  0
  7 17  1  0
  8 11  2  0
  8 12  1  0
  8 13  1  0
  9 10  2  0
  9 11  1  0
 10 14  1  0
 12 15  1  0
 13 14  2  0
 16 18  1  0
 16 20  2  0
 16 21  1  0
 17 18  1  0
 17 25  1  0
 19 23  2  0
 19 24  1  0
 20 23  1  0
 21 24  2  0
 27 31  1  0
 28 32  1  0
 29 31  2  0
 30 32  2  0
 31 33  1  0
 32 34  1  0
 33 34  2  0
 35 43  1  0
 36 45  1  0
 37 52  1  0
 37 59  1  0
 38 55  2  0
 39 42  1  0
 39 55  1  0
 40 48  1  0
 40 50  1  0
 41 44  2  0
 41 45  1  0
 41 46  1  0
 42 43  2  0
 42 44  1  0
 43 47  1  0
 45 48  1  0
 46 47  2  0
 49 51  1  0
 49 53  2  0
 49 54  1  0
 50 51  1  0
 50 58  1  0
 52 56  2  0
 52 57  1  0
 53 56  1  0
 54 57  2  0
  1 61  1  0
  1 62  1  0
  2 63  1  0
  3 64  1  0
  6 65  1  0
  7 66  1  0
 11 67  1  0
 12 68  1  6
 13 69  1  0
 14 70  1  0
 15 71  1  0
 15 72  1  0
 17 73  1  6
 18 74  1  0
 18 75  1  0
 20 76  1  0
 21 77  1  0
 22 78  1  0
 23 79  1  0
 24 80  1  0
 25 81  1  0
 25 82  1  0
 25 83  1  0
 26 84  1  0
 26 85  1  0
 26 86  1  0
 27 87  1  0
 28 88  1  0
 33 89  1  0
 34 90  1  0
 35 91  1  0
 36 92  1  0
 39 93  1  0
 40 94  1  0
 44 95  1  0
 45 96  1  1
 46 97  1  0
 47 98  1  0
 48 99  1  0
 48100  1  0
 50101  1  6
 51102  1  0
 51103  1  0
 53104  1  0
 54105  1  0
 55106  1  0
 56107  1  0
 57108  1  0
 58109  1  0
 58110  1  0
 58111  1  0
 59112  1  0
 59113  1  0
 59114  1  0
 60115  1  0
 60116  1  0
M  END
> <Uni-Dock RESULT> 
ENERGY=   -4.454  LOWER_BOUND=    4.569  UPPER_BOUND=    6.236
INTER + INTRA:          -4.454
INTER:                  -4.454
INTRA:                   0.000
UNBOUND:                 0.000

$$$$

     RDKit          3D

116115  0  0  0  0  0  0  0  0999 V2000
   49.5064    8.5881   15.3698 O   0  0  0  0  0  0  0  0  0  0  0  0
   53.1894   11.3917    9.7458 O   0  0  0  0  0  0  0  0  0  0  0  0
   48.1386   11.1957   13.4877 O   0  0  0  0  0  0  0  0  0  0  0  0
   48.8072    5.7368   22.2514 O   0  0  0  0  0  0  0  0  0  0  0  0
   48.3940   12.3313    8.7408 O   0  0  0  0  0  0  0  0  0  0  0  0
   50.7004   11.9914    8.9312 N   0  0  0  0  0  0  0  0  0  0  0  0
   47.8238    8.9180   15.1117 N   0  0  0  0  0  0  0  0  0  0  0  0
   50.0137   10.3200   12.2295 C   0  0  0  0  0  0  0  0  0  0  0  0
   50.8490   11.3244   10.1627 C   0  0  0  0  0  0  0  0  0  0  0  0
   52.1543   11.0290   10.5710 C   0  0  0  0  0  0  0  0  0  0  0  0
   49.7876   10.9594   10.9892 C   0  0  0  0  0  0  0  0  0  0  0  0
   48.8064    9.9824   13.0887 C   0  0  1  0  0  0  0  0  0  0  0  0
   51.3342   10.0394   12.6076 C   0  0  0  0  0  0  0  0  0  0  0  0
   52.4042   10.3908   11.7824 C   0  0  0  0  0  0  0  0  0  0  0  0
   49.0805    9.1724   14.3865 C   0  0  0  0  0  0  0  0  0  0  0  0
   48.8037    6.8509   18.2232 C   0  0  0  0  0  0  0  0  0  0  0  0
   47.9707    8.5894   16.5419 C   0  0  1  0  0  0  0  0  0  0  0  0
   48.8260    7.3203   16.7846 C   0  0  0  0  0  0  0  0  0  0  0  0
   48.7224    6.0634   20.9262 C   0  0  0  0  0  0  0  0  0  0  0  0
   47.6344    6.3103   18.7767 C   0  0  0  0  0  0  0  0  0  0  0  0
   49.9418    6.9694   19.0323 C   0  0  0  0  0  0  0  0  0  0  0  0
   49.5431   12.4297    8.3416 C   0  0  0  0  0  0  0  0  0  0  0  0
   47.5932    5.9195   20.1199 C   0  0  0  0  0  0  0  0  0  0  0  0
   49.8983    6.5722   20.3700 C   0  0  0  0  0  0  0  0  0  0  0  0
   48.4608    9.7982   17.3568 C   0  0  0  0  0  0  0  0  0  0  0  0
   47.5772    5.5148   22.9270 C   0  0  0  0  0  0  0  0  0  0  0  0
   49.8038    8.9612   12.6413 O   0  0  0  0  0  0  0  0  0  0  0  0
   48.5829    7.2430   17.0113 O   0  0  0  0  0  0  0  0  0  0  0  0
   50.0526   10.8425   13.8394 O   0  0  0  0  0  0  0  0  0  0  0  0
   48.6981    8.9840   18.4083 O   0  0  0  0  0  0  0  0  0  0  0  0
   49.7675    9.6612   13.7851 C   0  0  0  0  0  0  0  0  0  0  0  0
   48.8269    8.5344   17.2835 C   0  0  0  0  0  0  0  0  0  0  0  0
   49.3452    8.7982   14.8889 C   0  0  0  0  0  0  0  0  0  0  0  0
   49.2424    9.3196   16.1183 C   0  0  0  0  0  0  0  0  0  0  0  0
   50.7214   12.9356   10.4155 O   0  0  0  0  0  0  0  0  0  0  0  0
   46.4464    9.2988   13.1230 O   0  0  0  0  0  0  0  0  0  0  0  0
   48.4636    8.6581   21.6009 O   0  0  0  0  0  0  0  0  0  0  0  0
   51.5848    8.0137   10.9814 O   0  0  0  0  0  0  0  0  0  0  0  0
   51.6130   10.3438   10.7377 N   0  0  0  0  0  0  0  0  0  0  0  0
   49.4297    8.3054   15.1357 N   0  0  0  0  0  0  0  0  0  0  0  0
   48.5561   10.4152   12.9208 C   0  0  0  0  0  0  0  0  0  0  0  0
   50.4356   10.7553   11.3983 C   0  0  0  0  0  0  0  0  0  0  0  0
   50.0538   12.0976   11.2689 C   0  0  0  0  0  0  0  0  0  0  0  0
   49.6699    9.9193   12.2155 C   0  0  0  0  0  0  0  0  0  0  0  0
   47.6803    9.5506   13.8123 C   0  0  2  0  0  0  0  0  0  0  0  0
   48.2122   11.7704   12.7696 C   0  0  0  0  0  0  0  0  0  0  0  0
   48.9635   12.6155   11.9556 C   0  0  0  0  0  0  0  0  0  0  0  0
   48.2409    8.1835   14.2871 C   0  0  0  0  0  0  0  0  0  0  0  0
   48.9851    6.8429   17.8679 C   0  0  0  0  0  0  0  0  0  0  0  0
   50.0205    7.0068   15.4875 C   0  0  2  0  0  0  0  0  0  0  0  0
   49.2248    6.1790   16.5288 C   0  0  0  0  0  0  0  0  0  0  0  0
   48.5481    8.1001   20.3550 C   0  0  0  0  0  0  0  0  0  0  0  0
   49.9264    6.7295   18.8971 C   0  0  0  0  0  0  0  0  0  0  0  0
   47.8202    7.5857   18.1014 C   0  0  0  0  0  0  0  0  0  0  0  0
   52.1063    9.0662   10.6413 C   0  0  0  0  0  0  0  0  0  0  0  0
   49.7072    7.3539   20.1281 C   0  0  0  0  0  0  0  0  0  0  0  0
   47.6030    8.2123   19.3355 C   0  0  0  0  0  0  0  0  0  0  0  0
   51.4591    7.2710   15.9406 C   0  0  0  0  0  0  0  0  0  0  0  0
   47.3369    9.4831   21.8631 C   0  0  0  0  0  0  0  0  0  0  0  0
   49.5122    8.5964   15.3428 O   0  0  0  0  0  0  0  0  0  0  0  0
   48.9879    8.8825   16.1336 H   0  0  0  0  0  0  0  0  0  0  0  0
   49.3347    9.2657   14.6988 H   0  0  0  0  0  0  0  0  0  0  0  0
   54.0227   11.1319   10.1702 H   0  0  0  0  0  0  0  0  0  0  0  0
   48.6418   11.9498   13.1317 H   0  0  0  0  0  0  0  0  0  0  0  0
   51.5771   12.1852    8.4556 H   0  0  0  0  0  0  0  0  0  0  0  0
   47.2531    9.7654   15.0208 H   0  0  0  0  0  0  0  0  0  0  0  0
   48.7609   11.1666   10.6944 H   0  0  0  0  0  0  0  0  0  0  0  0
   48.1046    9.4136   12.4652 H   0  0  0  0  0  0  0  0  0  0  0  0
   51.5570    9.5426   13.5479 H   0  0  0  0  0  0  0  0  0  0  0  0
   53.4166   10.1628   12.1042 H   0  0  0  0  0  0  0  0  0  0  0  0
   49.5614    8.2203   14.1460 H   0  0  0  0  0  0  0  0  0  0  0  0
   49.7568    9.7613   15.0140 H   0  0  0  0  0  0  0  0  0  0  0  0
   46.9514    8.3779   16.8923 H   0  0  0  0  0  0  0  0  0  0  0  0
   48.4601    6.4987   16.1548 H   0  0  0  0  0  0  0  0  0  0  0  0
   49.8638    7.4897   16.4739 H   0  0  0  0  0  0  0  0  0  0  0  0
   46.7419    6.1975   18.1648 H   0  0  0  0  0  0  0  0  0  0  0  0
   50.8652    7.3800   18.6302 H   0  0  0  0  0  0  0  0  0  0  0  0
   49.7655   12.9290    7.3835 H   0  0  0  0  0  0  0  0  0  0  0  0
   46.6667    5.5035   20.5035 H   0  0  0  0  0  0  0  0  0  0  0  0
   50.7836    6.6763   20.9932 H   0  0  0  0  0  0  0  0  0  0  0  0
   48.3105    9.6314   18.4290 H   0  0  0  0  0  0  0  0  0  0  0  0
   47.9034   10.7066   17.0992 H   0  0  0  0  0  0  0  0  0  0  0  0
   49.5259    9.9976   17.1998 H   0  0  0  0  0  0  0  0  0  0  0  0
   46.8967    6.3648   22.8143 H   0  0  0  0  0  0  0  0  0  0  0  0
   47.1039    4.5843   22.5925 H   0  0  0  0  0  0  0  0  0  0  0  0
   47.7966    5.4118   23.9949 H   0  0  0  0  0  0  0  0  0  0  0  0
   50.0901    9.6129   11.9685 H   0  0  0  0  0  0  0  0  0  0  0  0
   48.3187    6.8648   17.8763 H   0  0  0  0  0  0  0  0  0  0  0  0
   49.1305    7.7603   14.6632 H   0  0  0  0  0  0  0  0  0  0  0  0
   49.4573   10.3636   16.3247 H   0  0  0  0  0  0  0  0  0  0  0  0
   50.7036   12.4884    9.5497 H   0  0  0  0  0  0  0  0  0  0  0  0
   46.6248    9.4038   12.1732 H   0  0  0  0  0  0  0  0  0  0  0  0
   52.1898   11.0903   10.3663 H   0  0  0  0  0  0  0  0  0  0  0  0
   49.2149    8.8304   15.9842 H   0  0  0  0  0  0  0  0  0  0  0  0
   49.9569    8.8799   12.3424 H   0  0  0  0  0  0  0  0  0  0  0  0
   47.4294   10.1301   14.7094 H   0  0  0  0  0  0  0  0  0  0  0  0
   47.3489   12.1732   13.2993 H   0  0  0  0  0  0  0  0  0  0  0  0
   48.6869   13.6610   11.8489 H   0  0  0  0  0  0  0  0  0  0  0  0
   47.4424    7.6676   14.8352 H   0  0  0  0  0  0  0  0  0  0  0  0
   48.4482    7.5553   13.4107 H   0  0  0  0  0  0  0  0  0  0  0  0
   50.0971    6.3987   14.5769 H   0  0  0  0  0  0  0  0  0  0  0  0
   48.2553    5.8856   16.1037 H   0  0  0  0  0  0  0  0  0  0  0  0
   49.7457    5.2270   16.6984 H   0  0  0  0  0  0  0  0  0  0  0  0
   50.8412    6.1586   18.7497 H   0  0  0  0  0  0  0  0  0  0  0  0
   47.0671    7.6822   17.3229 H   0  0  0  0  0  0  0  0  0  0  0  0
   53.0992    9.0721   10.1619 H   0  0  0  0  0  0  0  0  0  0  0  0
   50.4510    7.2591   20.9167 H   0  0  0  0  0  0  0  0  0  0  0  0
   46.6853    8.7764   19.4667 H   0  0  0  0  0  0  0  0  0  0  0  0
   51.9550    6.3378   16.2262 H   0  0  0  0  0  0  0  0  0  0  0  0
   51.5068    7.9586   16.7913 H   0  0  0  0  0  0  0  0  0  0  0  0
   52.0422    7.7201   15.1278 H   0  0  0  0  0  0  0  0  0  0  0  0
   46.4097    8.9021   21.8313 H   0  0  0  0  0  0  0  0  0  0  0  0
   47.2980   10.3313   21.1716 H   0  0  0  0  0  0  0  0  0  0  0  0
   47.4481    9.8864   22.8740 H   0  0  0  0  0  0  0  0  0  0  0  0
   49.2995    9.3060   14.7183 H   0  0  0  0  0  0  0  0  0  0  0  0
   49.0173    8.8339   16.1412 H   0  0  0  0  0  0  0  0  0  0  0  0
  2 10  1  0
  3 12  1  0
  4 19  1  0
  4 26  1  0
  5 22  2  0
  6  9  1  0
  6 22  1  0
  7 15  1  0
  7 17  1  0
  8 11  2  0
  8 12  1  0
  8 13  1  0
  9 10  2  0
  9 11  1  0
 10 14  1  0
 12 15  1  0
 13 14  2  0
 16 18  1  0
 16 20  2  0
 16 21  1  0
 17 18  1  0
 17 25  1  0
 19 23  2  0
 19 24  1  0
 20 23  1  0
 21 24  2  0
 27 31  1  0
 28 32  1  0
 29 31  2  0
 30 32  2  0
 31 33  1  0
 32 34  1  0
 33 34  2  0
 35 43  1  0
 36 45  1  0
 37 52  1  0
 37 59  1  0
 38 55  2  0
 39 42  1  0
 39 55  1  0
 40 48  1  0
 40 50  1  0
 41 44  2  0
 41 45  1  0
 41 46  1  0
 42 43  2  0
 42 44  1  0
 43 47  1  0
 45 48  1  0
 46 47  2  0
 49 51  1  0
 49 53  2  0
 49 54  1  0
 50 51  1  0
 50 58  1  0
 52 56  2  0
 52 57  1  0
 53 56  1  0
 54 57  2  0
  1 61  1  0
  1 62  1  0
  2 63  1  0
  3 64  1  0
  6 65  1  0
  7 66  1  0
 11 67  1  0
 12 68  1  6
 13 69  1  0
 14 70  1  0
 15 71  1  0
 15 72  1  0
 17 73  1  6
 18 74  1  0
 18 75  1  0
 20 76  1  0
 21 77  1  0
 22 78  1  0
 23 79  1  0
 24 80  1  0
 25 81  1  0
 25 82  1  0
 25 83  1  0
 26 84  1  0
 26 85  1  0
 26 86  1  0
 27 87  1  0
 28 88  1  0
 33 89  1  0
 34 90  1  0
 35 91  1  0
 36 92  1  0
 39 93  1  0
 40 94  1  0
 44 95  1  0
 45 96  1  1
 46 97  1  0
 47 98  1  0
 48 99  1  0
 48100  1  0
 50101  1  6
 51102  1  0
 51103  1  0
 53104  1  0
 54105  1  0
 55106  1  0
 56107  1  0
 57108  1  0
 58109  1  0
 58110  1  0
 58111  1  0
 59112  1  0
 59113  1  0
 59114  1  0
 60115  1  0
 60116  1  0
M  END
> <Uni-Dock RESULT> 
ENERGY=   -4.454  LOWER_BOUND=    4.569  UPPER_BOUND=    6.236
INTER + INTRA:          -4.454
INTER:                  -4.454
INTRA:                   0.000
UNBOUND:                 0.000

$$$$

     RDKit          3D

116115  0  0  0  0  0  0  0  0999 V2000
   48.9846    8.8398   14.2440 O   0  0  0  0  0  0  0  0  0  0  0  0
   48.4562    4.1410   19.7845 O   0  0  0  0  0  0  0  0  0  0  0  0
   51.5922    8.5288   16.5496 O   0  0  0  0  0  0  0  0  0  0  0  0
   46.3881   13.9573    9.4434 O   0  0  0  0  0  0  0  0  0  0  0  0
   53.3567    4.7162   19.0474 O   0  0  0  0  0  0  0  0  0  0  0  0
   51.1343    4.2247   19.5866 N   0  0  0  0  0  0  0  0  0  0  0  0
   50.6707    9.1255   13.9575 N   0  0  0  0  0  0  0  0  0  0  0  0
   50.1201    6.6348   16.8835 C   0  0  0  0  0  0  0  0  0  0  0  0
   50.3818    5.0154   18.6966 C   0  0  0  0  0  0  0  0  0  0  0  0
   48.9893    4.9624   18.8225 C   0  0  0  0  0  0  0  0  0  0  0  0
   50.9373    5.8429   17.7221 C   0  0  0  0  0  0  0  0  0  0  0  0
   50.8019    7.5356   15.8669 C   0  0  1  0  0  0  0  0  0  0  0  0
   48.7286    6.5576   17.0374 C   0  0  0  0  0  0  0  0  0  0  0  0
   48.1613    5.7238   18.0028 C   0  0  0  0  0  0  0  0  0  0  0  0
   49.8742    8.2990   14.8809 C   0  0  0  0  0  0  0  0  0  0  0  0
   48.1238   10.8325   11.6092 C   0  0  0  0  0  0  0  0  0  0  0  0
   49.9427   10.2288   13.3034 C   0  0  1  0  0  0  0  0  0  0  0  0
   48.7424    9.7398   12.4542 C   0  0  0  0  0  0  0  0  0  0  0  0
   47.0229   12.9322   10.0888 C   0  0  0  0  0  0  0  0  0  0  0  0
   48.8239   11.3718   10.5206 C   0  0  0  0  0  0  0  0  0  0  0  0
   46.8531   11.3393   11.9131 C   0  0  0  0  0  0  0  0  0  0  0  0
   52.4981    4.1407   19.6964 C   0  0  0  0  0  0  0  0  0  0  0  0
   48.2776   12.4156    9.7652 C   0  0  0  0  0  0  0  0  0  0  0  0
   46.3091   12.3763   11.1528 C   0  0  0  0  0  0  0  0  0  0  0  0
   49.5499   11.3262   14.3069 C   0  0  0  0  0  0  0  0  0  0  0  0
   47.1872   14.7467    8.5735 C   0  0  0  0  0  0  0  0  0  0  0  0
   49.7870    6.5018   15.4938 O   0  0  0  0  0  0  0  0  0  0  0  0
   48.8580    9.9651   12.2255 O   0  0  0  0  0  0  0  0  0  0  0  0
   49.6598    8.2641   16.8775 O   0  0  0  0  0  0  0  0  0  0  0  0
   48.7411   11.8779   13.3760 O   0  0  0  0  0  0  0  0  0  0  0  0
   49.6080    7.8059   15.7519 C   0  0  0  0  0  0  0  0  0  0  0  0
   48.9000   10.6701   13.3668 C   0  0  0  0  0  0  0  0  0  0  0  0
   49.3567    8.5342   14.5076 C   0  0  0  0  0  0  0  0  0  0  0  0
   49.1576    9.8577   14.5586 C   0  0  0  0  0  0  0  0  0  0  0  0
   50.8509    5.9161   19.9790 O   0  0  0  0  0  0  0  0  0  0  0  0
   52.7103    7.8272   14.3468 O   0  0  0  0  0  0  0  0  0  0  0  0
   47.7313   14.6323   12.0541 O   0  0  0  0  0  0  0  0  0  0  0  0
   48.5212    4.2441   15.8477 O   0  0  0  0  0  0  0  0  0  0  0  0
   49.2251    4.9578   17.9655 N   0  0  0  0  0  0  0  0  0  0  0  0
   49.0580    8.5359   14.0368 N   0  0  0  0  0  0  0  0  0  0  0  0
   51.2043    7.6174   16.1978 C   0  0  0  0  0  0  0  0  0  0  0  0
   50.1571    5.9766   17.6733 C   0  0  0  0  0  0  0  0  0  0  0  0
   50.9145    6.4879   18.7360 C   0  0  0  0  0  0  0  0  0  0  0  0
   50.3217    6.5395   16.4048 C   0  0  0  0  0  0  0  0  0  0  0  0
   51.4332    8.2597   14.8396 C   0  0  2  0  0  0  0  0  0  0  0  0
   51.9391    8.1060   17.2929 C   0  0  0  0  0  0  0  0  0  0  0  0
   51.7887    7.5529   18.5627 C   0  0  0  0  0  0  0  0  0  0  0  0
   50.3870    8.0041   13.7221 C   0  0  0  0  0  0  0  0  0  0  0  0
   48.0852   10.4728   11.7777 C   0  0  0  0  0  0  0  0  0  0  0  0
   48.0472    8.1919   13.0273 C   0  0  2  0  0  0  0  0  0  0  0  0
   48.1616    8.9637   11.6878 C   0  0  0  0  0  0  0  0  0  0  0  0
   47.9426   13.2836   11.9690 C   0  0  0  0  0  0  0  0  0  0  0  0
   46.8485   11.1264   11.7378 C   0  0  0  0  0  0  0  0  0  0  0  0
   49.2486   11.2431   11.9064 C   0  0  0  0  0  0  0  0  0  0  0  0
   48.4658    4.2468   17.0693 C   0  0  0  0  0  0  0  0  0  0  0  0
   46.7812   12.5192   11.8332 C   0  0  0  0  0  0  0  0  0  0  0  0
   49.1790   12.6390   12.0035 C   0  0  0  0  0  0  0  0  0  0  0  0
   46.6742    8.3733   13.6802 C   0  0  0  0  0  0  0  0  0  0  0  0
   48.8731   15.4523   12.2608 C   0  0  0  0  0  0  0  0  0  0  0  0
   48.9912    8.8179   14.2615 O   0  0  0  0  0  0  0  0  0  0  0  0
   49.2590    9.7535   14.0740 H   0  0  0  0  0  0  0  0  0  0  0  0
   49.5624    8.5558   14.9682 H   0  0  0  0  0  0  0  0  0  0  0  0
   47.4897    4.2238   19.7541 H   0  0  0  0  0  0  0  0  0  0  0  0
   51.4766    8.4018   17.5083 H   0  0  0  0  0  0  0  0  0  0  0  0
   50.5726    3.6816   20.2360 H   0  0  0  0  0  0  0  0  0  0  0  0
   51.4467    9.5151   14.5035 H   0  0  0  0  0  0  0  0  0  0  0  0
   52.0163    5.8979   17.5932 H   0  0  0  0  0  0  0  0  0  0  0  0
   51.4927    6.9132   15.2836 H   0  0  0  0  0  0  0  0  0  0  0  0
   48.0598    7.1415   16.4110 H   0  0  0  0  0  0  0  0  0  0  0  0
   47.0798    5.6877   18.1000 H   0  0  0  0  0  0  0  0  0  0  0  0
   49.2670    7.5938   14.3070 H   0  0  0  0  0  0  0  0  0  0  0  0
   49.2103    8.9387   15.4707 H   0  0  0  0  0  0  0  0  0  0  0  0
   50.6714   10.6862   12.6205 H   0  0  0  0  0  0  0  0  0  0  0  0
   49.0655    8.9341   11.7820 H   0  0  0  0  0  0  0  0  0  0  0  0
   47.9715    9.2967   13.0958 H   0  0  0  0  0  0  0  0  0  0  0  0
   49.8069   10.9863   10.2583 H   0  0  0  0  0  0  0  0  0  0  0  0
   46.2835   10.9379   12.7481 H   0  0  0  0  0  0  0  0  0  0  0  0
   52.7761    3.4408   20.5024 H   0  0  0  0  0  0  0  0  0  0  0  0
   48.8552   12.7991    8.9298 H   0  0  0  0  0  0  0  0  0  0  0  0
   45.3262   12.7698   11.4016 H   0  0  0  0  0  0  0  0  0  0  0  0
   49.2589   12.2445   13.7852 H   0  0  0  0  0  0  0  0  0  0  0  0
   50.3898   11.5893   14.9608 H   0  0  0  0  0  0  0  0  0  0  0  0
   48.7086   11.0251   14.9397 H   0  0  0  0  0  0  0  0  0  0  0  0
   48.0698   15.1429    9.0857 H   0  0  0  0  0  0  0  0  0  0  0  0
   47.4718   14.1836    7.6770 H   0  0  0  0  0  0  0  0  0  0  0  0
   46.5849   15.6028    8.2517 H   0  0  0  0  0  0  0  0  0  0  0  0
   49.9490    6.1018   16.3731 H   0  0  0  0  0  0  0  0  0  0  0  0
   48.6838   10.6404   11.5366 H   0  0  0  0  0  0  0  0  0  0  0  0
   49.3421    7.9657   13.5852 H   0  0  0  0  0  0  0  0  0  0  0  0
   49.1804   10.4115   15.4921 H   0  0  0  0  0  0  0  0  0  0  0  0
   51.0498    4.9724   19.8384 H   0  0  0  0  0  0  0  0  0  0  0  0
   52.9159    6.9864   14.7890 H   0  0  0  0  0  0  0  0  0  0  0  0
   49.0469    4.7974   18.9506 H   0  0  0  0  0  0  0  0  0  0  0  0
   49.0946    9.5484   14.1606 H   0  0  0  0  0  0  0  0  0  0  0  0
   49.7336    6.1692   15.5706 H   0  0  0  0  0  0  0  0  0  0  0  0
   51.4999    9.3453   14.9826 H   0  0  0  0  0  0  0  0  0  0  0  0
   52.6343    8.9339   17.1534 H   0  0  0  0  0  0  0  0  0  0  0  0
   52.3621    7.9412   19.4002 H   0  0  0  0  0  0  0  0  0  0  0  0
   50.7644    8.4644   12.8002 H   0  0  0  0  0  0  0  0  0  0  0  0
   50.3385    6.9272   13.5137 H   0  0  0  0  0  0  0  0  0  0  0  0
   48.1332    7.1224   12.7960 H   0  0  0  0  0  0  0  0  0  0  0  0
   49.0975    8.6889   11.1826 H   0  0  0  0  0  0  0  0  0  0  0  0
   47.3734    8.6132   11.0079 H   0  0  0  0  0  0  0  0  0  0  0  0
   45.9256   10.5585   11.6370 H   0  0  0  0  0  0  0  0  0  0  0  0
   50.2237   10.7623   11.9301 H   0  0  0  0  0  0  0  0  0  0  0  0
   47.7497    3.5984   17.6008 H   0  0  0  0  0  0  0  0  0  0  0  0
   45.8113   13.0117   11.8044 H   0  0  0  0  0  0  0  0  0  0  0  0
   50.1083   13.1905   12.1021 H   0  0  0  0  0  0  0  0  0  0  0  0
   45.8724    8.1390   12.9726 H   0  0  0  0  0  0  0  0  0  0  0  0
   46.5202    9.3935   14.0468 H   0  0  0  0  0  0  0  0  0  0  0  0
   46.5644    7.7003   14.5390 H   0  0  0  0  0  0  0  0  0  0  0  0
   49.5527   15.4011   11.4042 H   0  0  0  0  0  0  0  0  0  0  0  0
   49.3865   15.1886   13.1913 H   0  0  0  0  0  0  0  0  0  0  0  0
   48.5274   16.4858   12.3562 H   0  0  0  0  0  0  0  0  0  0  0  0
   49.5980    8.5973   14.9839 H   0  0  0  0  0  0  0  0  0  0  0  0
   49.2166    9.7339   14.0406 H   0  0  0  0  0  0  0  0  0  0  0  0
  2 10  1  0
  3 12  1  0
  4 19  1  0
  4 26  1  0
  5 22  2  0
  6  9  1  0
  6 22  1  0
  7 15  1  0
  7 17  1  0
  8 11  2  0
  8 12  1  0
  8 13  1  0
  9 10  2  0
  9 11  1  0
 10 14  1  0
 12 15  1  0
 13 14  2  0
 16 18  1  0
 16 20  2  0
 16 21  1  0
 17 18  1  0
 17 25  1  0
 19 23  2  0
 19 24  1  0
 20 23  1  0
 21 24  2  0
 27 31  1  0
 28 32  1  0
 29 31  2  0
 30 32  2  0
 31 33  1  0
 32 34  1  0
 33 34  2  0
 35 43  1  0
 36 45  1  0
 37 52  1  0
 37 59  1  0
 38 55  2  0
 39 42  1  0
 39 55  1  0
 40 48  1  0
 40 50  1  0
 41 44  2  0
 41 45  1  0
 41 46  1  0
 42 43  2  0
 42 44  1  0
 43 47  1  0
 45 48  1  0
 46 47  2  0
 49 51  1  0
 49 53  2  0
 49 54  1  0
 50 51  1  0
 50 58  1  0
 52 56  2  0
 52 57  1  0
 53 56  1  0
 54 57  2  0
  1 61  1  0
  1 62  1  0
  2 63  1  0
  3 64  1  0
  6 65  1  0
  7 66  1  0
 11 67  1  0
 12 68  1  6
 13 69  1  0
 14 70  1  0
 15 71  1  0
 15 72  1  0
 17 73  1  6
 18 74  1  0
 18 75  1  0
 20 76  1  0
 21 77  1  0
 22 78  1  0
 23 79  1  0
 24 80  1  0
 25 81  1  0
 25 82  1  0
 25 83  1  0
 26 84  1  0
 26 85  1  0
 26 86  1  0
 27 87  1  0
 28 88  1  0
 33 89  1  0
 34 90  1  0
 35 91  1  0
 36 92  1  0
 39 93  1  0
 40 94  1  0
 44 95  1  0
 45 96  1  1
 46 97  1  0
 47 98  1  0
 48 99  1  0
 48100  1  0
 50101  1  6
 51102  1  0
 51103  1  0
 53104  1  0
 54105  1  0
 55106  1  0
 56107  1  0
 57108  1  0
 58109  1  0
 58110  1  0
 58111  1  0
 59112  1  0
 59113  1  0
 59114  1  0
 60115  1  0
 60116  1  0
M  END
> <Uni-Dock RESULT> 
ENERGY=   -4.307  LOWER_BOUND=    5.176  UPPER_BOUND=   10.133
INTER + INTRA:          -4.307
INTER:                  -4.307
INTRA:                   0.000
UNBOUND:                 0.000

$$$$

     RDKit          3D

116115  0  0  0  0  0  0  0  0999 V2000
   48.9749   11.8347   15.3972 O   0  0  0  0  0  0  0  0  0  0  0  0
   46.6637    9.2502   21.8029 O   0  0  0  0  0  0  0  0  0  0  0  0
   48.8408   13.9208   18.1977 O   0  0  0  0  0  0  0  0  0  0  0  0
   48.8831   12.5160    7.9471 O   0  0  0  0  0  0  0  0  0  0  0  0
   49.6009   13.1139   22.9578 O   0  0  0  0  0  0  0  0  0  0  0  0
   48.2181   11.2431   22.7143 N   0  0  0  0  0  0  0  0  0  0  0  0
   49.9720   13.2166   15.7180 N   0  0  0  0  0  0  0  0  0  0  0  0
   48.6086   11.6459   18.9955 C   0  0  0  0  0  0  0  0  0  0  0  0
   48.1219   11.0659   21.3204 C   0  0  0  0  0  0  0  0  0  0  0  0
   47.3009   10.0273   20.8678 C   0  0  0  0  0  0  0  0  0  0  0  0
   48.7777   11.8615   20.3823 C   0  0  0  0  0  0  0  0  0  0  0  0
   49.3321   12.5757   18.0355 C   0  0  1  0  0  0  0  0  0  0  0  0
   47.7784   10.5965   18.5771 C   0  0  0  0  0  0  0  0  0  0  0  0
   47.1254    9.7867   19.5082 C   0  0  0  0  0  0  0  0  0  0  0  0
   49.2227   12.2363   16.5227 C   0  0  0  0  0  0  0  0  0  0  0  0
   49.5763   12.0868   12.0462 C   0  0  0  0  0  0  0  0  0  0  0  0
   49.5848   13.3013   14.2974 C   0  0  1  0  0  0  0  0  0  0  0  0
   49.7613   11.9594   13.5429 C   0  0  0  0  0  0  0  0  0  0  0  0
   49.1932   12.4128    9.2750 C   0  0  0  0  0  0  0  0  0  0  0  0
   50.5156   12.7806   11.2702 C   0  0  0  0  0  0  0  0  0  0  0  0
   48.4538   11.5347   11.4144 C   0  0  0  0  0  0  0  0  0  0  0  0
   48.9106   12.2087   23.3979 C   0  0  0  0  0  0  0  0  0  0  0  0
   50.3254   12.9434    9.8933 C   0  0  0  0  0  0  0  0  0  0  0  0
   48.2712   11.6940   10.0394 C   0  0  0  0  0  0  0  0  0  0  0  0
   48.1771   13.8966   14.1251 C   0  0  0  0  0  0  0  0  0  0  0  0
   49.6108   13.4825    7.2021 C   0  0  0  0  0  0  0  0  0  0  0  0
   49.4948   11.0887   18.0135 O   0  0  0  0  0  0  0  0  0  0  0  0
   49.8940   12.1558   13.2975 O   0  0  0  0  0  0  0  0  0  0  0  0
   47.6716   12.3783   17.7906 O   0  0  0  0  0  0  0  0  0  0  0  0
   48.1819   13.5143   12.8294 O   0  0  0  0  0  0  0  0  0  0  0  0
   48.6560   11.8568   17.3021 C   0  0  0  0  0  0  0  0  0  0  0  0
   48.7879   12.8349   13.6389 C   0  0  0  0  0  0  0  0  0  0  0  0
   49.1143   11.9500   15.9154 C   0  0  0  0  0  0  0  0  0  0  0  0
   48.4069   12.6826   15.0455 C   0  0  0  0  0  0  0  0  0  0  0  0
   47.0607   12.2109   21.8093 O   0  0  0  0  0  0  0  0  0  0  0  0
   51.3429   13.9255   17.6194 O   0  0  0  0  0  0  0  0  0  0  0  0
   47.4253   14.3700    9.8213 O   0  0  0  0  0  0  0  0  0  0  0  0
   49.5143    8.7295   19.1353 O   0  0  0  0  0  0  0  0  0  0  0  0
   48.0527   10.0591   20.3945 N   0  0  0  0  0  0  0  0  0  0  0  0
   49.2942   11.6553   15.4776 N   0  0  0  0  0  0  0  0  0  0  0  0
   49.2744   12.9790   18.3703 C   0  0  0  0  0  0  0  0  0  0  0  0
   48.3350   11.3677   19.9475 C   0  0  0  0  0  0  0  0  0  0  0  0
   47.7546   12.4330   20.6495 C   0  0  0  0  0  0  0  0  0  0  0  0
   49.1058   11.6540   18.8174 C   0  0  0  0  0  0  0  0  0  0  0  0
   50.1113   13.3504   17.1574 C   0  0  2  0  0  0  0  0  0  0  0  0
   48.6681   14.0179   19.0989 C   0  0  0  0  0  0  0  0  0  0  0  0
   47.8998   13.7487   20.2295 C   0  0  0  0  0  0  0  0  0  0  0  0
   50.4667   12.2321   16.1416 C   0  0  0  0  0  0  0  0  0  0  0  0
   49.5860   11.8490   12.3666 C   0  0  0  0  0  0  0  0  0  0  0  0
   49.6279   10.5223   14.6034 C   0  0  2  0  0  0  0  0  0  0  0  0
   50.3343   10.8978   13.2757 C   0  0  0  0  0  0  0  0  0  0  0  0
   48.1748   13.6244   10.6891 C   0  0  0  0  0  0  0  0  0  0  0  0
   48.6692   11.3630   11.4277 C   0  0  0  0  0  0  0  0  0  0  0  0
   49.7932   13.2323   12.4498 C   0  0  0  0  0  0  0  0  0  0  0  0
   48.5959    8.8880   19.9271 C   0  0  0  0  0  0  0  0  0  0  0  0
   47.9713   12.2452   10.5983 C   0  0  0  0  0  0  0  0  0  0  0  0
   49.0915   14.1152   11.6186 C   0  0  0  0  0  0  0  0  0  0  0  0
   48.3351    9.7373   14.3652 C   0  0  0  0  0  0  0  0  0  0  0  0
   47.5430   15.7828    9.9169 C   0  0  0  0  0  0  0  0  0  0  0  0
   48.9751   11.8281   15.4252 O   0  0  0  0  0  0  0  0  0  0  0  0
   48.8580   12.6102   14.8280 H   0  0  0  0  0  0  0  0  0  0  0  0
   48.8817   12.1900   16.2938 H   0  0  0  0  0  0  0  0  0  0  0  0
   46.1285    8.5889   21.3357 H   0  0  0  0  0  0  0  0  0  0  0  0
   48.1360   13.9071   18.8698 H   0  0  0  0  0  0  0  0  0  0  0  0
   47.6740   10.5776   23.2559 H   0  0  0  0  0  0  0  0  0  0  0  0
   49.8288   14.1319   16.1581 H   0  0  0  0  0  0  0  0  0  0  0  0
   49.4307   12.6705   20.7035 H   0  0  0  0  0  0  0  0  0  0  0  0
   50.3936   12.5800   18.3152 H   0  0  0  0  0  0  0  0  0  0  0  0
   47.6238   10.3875   17.5221 H   0  0  0  0  0  0  0  0  0  0  0  0
   46.4860    8.9832   19.1531 H   0  0  0  0  0  0  0  0  0  0  0  0
   49.6115   11.2329   16.3291 H   0  0  0  0  0  0  0  0  0  0  0  0
   48.1637   12.2642   16.2476 H   0  0  0  0  0  0  0  0  0  0  0  0
   50.2798   14.0278   13.8550 H   0  0  0  0  0  0  0  0  0  0  0  0
   50.7666   11.5584   13.7268 H   0  0  0  0  0  0  0  0  0  0  0  0
   49.0674   11.2046   13.9317 H   0  0  0  0  0  0  0  0  0  0  0  0
   51.4010   13.2075   11.7367 H   0  0  0  0  0  0  0  0  0  0  0  0
   47.7104   10.9866   11.9887 H   0  0  0  0  0  0  0  0  0  0  0  0
   48.7729   12.0830   24.4850 H   0  0  0  0  0  0  0  0  0  0  0  0
   51.0810   13.4856    9.3331 H   0  0  0  0  0  0  0  0  0  0  0  0
   47.3924   11.2702    9.5589 H   0  0  0  0  0  0  0  0  0  0  0  0
   48.0084   14.2024   13.0868 H   0  0  0  0  0  0  0  0  0  0  0  0
   48.0438   14.7932   14.7421 H   0  0  0  0  0  0  0  0  0  0  0  0
   47.3912   13.1820   14.3908 H   0  0  0  0  0  0  0  0  0  0  0  0
   49.5469   14.4751    7.6592 H   0  0  0  0  0  0  0  0  0  0  0  0
   50.6551   13.1764    7.0697 H   0  0  0  0  0  0  0  0  0  0  0  0
   49.1551   13.5508    6.2087 H   0  0  0  0  0  0  0  0  0  0  0  0
   49.1137   11.0869   18.9158 H   0  0  0  0  0  0  0  0  0  0  0  0
   50.0131   12.3606   12.3462 H   0  0  0  0  0  0  0  0  0  0  0  0
   50.0182   11.4161   15.6466 H   0  0  0  0  0  0  0  0  0  0  0  0
   47.5057   13.2147   15.3343 H   0  0  0  0  0  0  0  0  0  0  0  0
   47.6716   11.7136   22.3833 H   0  0  0  0  0  0  0  0  0  0  0  0
   51.4902   13.5950   18.5216 H   0  0  0  0  0  0  0  0  0  0  0  0
   47.3092    9.9817   21.0794 H   0  0  0  0  0  0  0  0  0  0  0  0
   48.7936   12.3684   14.9460 H   0  0  0  0  0  0  0  0  0  0  0  0
   49.5515   10.8430   18.2497 H   0  0  0  0  0  0  0  0  0  0  0  0
   49.5818   14.1368   16.6054 H   0  0  0  0  0  0  0  0  0  0  0  0
   48.7927   15.0514   18.7757 H   0  0  0  0  0  0  0  0  0  0  0  0
   47.4360   14.5613   20.7823 H   0  0  0  0  0  0  0  0  0  0  0  0
   51.1443   12.6634   15.3940 H   0  0  0  0  0  0  0  0  0  0  0  0
   51.0498   11.4541   16.6518 H   0  0  0  0  0  0  0  0  0  0  0  0
   50.2971    9.8445   15.1487 H   0  0  0  0  0  0  0  0  0  0  0  0
   51.3235   11.3236   13.4919 H   0  0  0  0  0  0  0  0  0  0  0  0
   50.5515    9.9775   12.7168 H   0  0  0  0  0  0  0  0  0  0  0  0
   48.4855   10.2942   11.3357 H   0  0  0  0  0  0  0  0  0  0  0  0
   50.5071   13.6370   13.1634 H   0  0  0  0  0  0  0  0  0  0  0  0
   48.0989    8.0206   20.3922 H   0  0  0  0  0  0  0  0  0  0  0  0
   47.2590   11.8513    9.8761 H   0  0  0  0  0  0  0  0  0  0  0  0
   49.2872   15.1775   11.7219 H   0  0  0  0  0  0  0  0  0  0  0  0
   48.5156    8.8791   13.7100 H   0  0  0  0  0  0  0  0  0  0  0  0
   47.5518   10.3546   13.9130 H   0  0  0  0  0  0  0  0  0  0  0  0
   47.9383    9.3527   15.3123 H   0  0  0  0  0  0  0  0  0  0  0  0
   48.5540   16.1105    9.6544 H   0  0  0  0  0  0  0  0  0  0  0  0
   47.2566   16.1373   10.9125 H   0  0  0  0  0  0  0  0  0  0  0  0
   46.8475   16.2239    9.1968 H   0  0  0  0  0  0  0  0  0  0  0  0
   48.8719   12.2460   16.2932 H   0  0  0  0  0  0  0  0  0  0  0  0
   48.8676   12.5609   14.8005 H   0  0  0  0  0  0  0  0  0  0  0  0
  2 10  1  0
  3 12  1  0
  4 19  1  0
  4 26  1  0
  5 22  2  0
  6  9  1  0
  6 22  1  0
  7 15  1  0
  7 17  1  0
  8 11  2  0
  8 12  1  0
  8 13  1  0
  9 10  2  0
  9 11  1  0
 10 14  1  0
 12 15  1  0
 13 14  2  0
 16 18  1  0
 16 20  2  0
 16 21  1  0
 17 18  1  0
 17 25  1  0
 19 23  2  0
 19 24  1  0
 20 23  1  0
 21 24  2  0
 27 31  1  0
 28 32  1  0
 29 31  2  0
 30 32  2  0
 31 33  1  0
 32 34  1  0
 33 34  2  0
 35 43  1  0
 36 45  1  0
 37 52  1  0
 37 59  1  0
 38 55  2  0
 39 42  1  0
 39 55  1  0
 40 48  1  0
 40 50  1  0
 41 44  2  0
 41 45  1  0
 41 46  1  0
 42 43  2  0
 42 44  1  0
 43 47  1  0
 45 48  1  0
 46 47  2  0
 49 51  1  0
 49 53  2  0
 49 54  1  0
 50 51  1  0
 50 58  1  0
 52 56  2  0
 52 57  1  0
 53 56  1  0
 54 57  2  0
  1 61  1  0
  1 62  1  0
  2 63  1  0
  3 64  1  0
  6 65  1  0
  7 66  1  0
 11 67  1  0
 12 68  1  6
 13 69  1  0
 14 70  1  0
 15 71  1  0
 15 72  1  0
 17 73  1  6
 18 74  1  0
 18 75  1  0
 20 76  1  0
 21 77  1  0
 22 78  1  0
 23 79  1  0
 24 80  1  0
 25 81  1  0
 25 82  1  0
 25 83  1  0
 26 84  1  0
 26 85  1  0
 26 86  1  0
 27 87  1  0
 28 88  1  0
 33 89  1  0
 34 90  1  0
 35 91  1  0
 36 92  1  0
 39 93  1  0
 40 94  1  0
 44 95  1  0
 45 96  1  1
 46 97  1  0
 47 98  1  0
 48 99  1  0
 48100  1  0
 50101  1  6
 51102  1  0
 51103  1  0
 53104  1  0
 54105  1  0
 55106  1  0
 56107  1  0
 57108  1  0
 58109  1  0
 58110  1  0
 58111  1  0
 59112  1  0
 59113  1  0
 59114  1  0
 60115  1  0
 60116  1  0
M  END
> <Uni-Dock RESULT> 
ENERGY=   -3.982  LOWER_BOUND=    3.267  UPPER_BOUND=    8.644
INTER + INTRA:          -3.982
INTER:                  -3.982
INTRA:                   0.000
UNBOUND:                 0.000

$$$$

     RDKit          3D

116115  0  0  0  0  0  0  0  0999 V2000
   48.8540   11.2594   16.4248 O   0  0  0  0  0  0  0  0  0  0  0  0
   47.2648   14.3905   10.0433 O   0  0  0  0  0  0  0  0  0  0  0  0
   49.9051    9.7962   13.4303 O   0  0  0  0  0  0  0  0  0  0  0  0
   47.4329    9.1304   23.4550 O   0  0  0  0  0  0  0  0  0  0  0  0
   51.3621   11.6836    9.1639 O   0  0  0  0  0  0  0  0  0  0  0  0
   49.4799   13.0660    9.2969 N   0  0  0  0  0  0  0  0  0  0  0  0
   50.2506   10.2599   16.1854 N   0  0  0  0  0  0  0  0  0  0  0  0
   49.1968   12.0525   12.9075 C   0  0  0  0  0  0  0  0  0  0  0  0
   49.0524   12.9369   10.6326 C   0  0  0  0  0  0  0  0  0  0  0  0
   47.8923   13.6289   10.9974 C   0  0  0  0  0  0  0  0  0  0  0  0
   49.7021   12.1618   11.5919 C   0  0  0  0  0  0  0  0  0  0  0  0
   49.9439   11.1626   13.8871 C   0  0  1  0  0  0  0  0  0  0  0  0
   48.0319   12.7590   13.2386 C   0  0  0  0  0  0  0  0  0  0  0  0
   47.3794   13.5469   12.2887 C   0  0  0  0  0  0  0  0  0  0  0  0
   49.4328   11.1608   15.3549 C   0  0  0  0  0  0  0  0  0  0  0  0
   48.8003   10.5133   19.7557 C   0  0  0  0  0  0  0  0  0  0  0  0
   49.6208    9.8047   17.4389 C   0  0  1  0  0  0  0  0  0  0  0  0
   49.2442   10.9735   18.3839 C   0  0  0  0  0  0  0  0  0  0  0  0
   47.9661    9.5657   22.2734 C   0  0  0  0  0  0  0  0  0  0  0  0
   49.7191    9.9371   20.6443 C   0  0  0  0  0  0  0  0  0  0  0  0
   47.4615   10.6336   20.1522 C   0  0  0  0  0  0  0  0  0  0  0  0
   50.5462   12.4566    8.6880 C   0  0  0  0  0  0  0  0  0  0  0  0
   49.3050    9.4655   21.8951 C   0  0  0  0  0  0  0  0  0  0  0  0
   47.0540   10.1677   21.4036 C   0  0  0  0  0  0  0  0  0  0  0  0
   48.4402    8.8558   17.1715 C   0  0  0  0  0  0  0  0  0  0  0  0
   48.2387    8.2489   24.2246 C   0  0  0  0  0  0  0  0  0  0  0  0
   49.6632   12.6091   14.1455 O   0  0  0  0  0  0  0  0  0  0  0  0
   49.3745   10.7722   18.6268 O   0  0  0  0  0  0  0  0  0  0  0  0
   48.2836   10.8883   13.7305 O   0  0  0  0  0  0  0  0  0  0  0  0
   48.0682    8.9657   18.4656 O   0  0  0  0  0  0  0  0  0  0  0  0
   48.9537   11.5324   14.5152 C   0  0  0  0  0  0  0  0  0  0  0  0
   48.6058    9.9196   17.9315 C   0  0  0  0  0  0  0  0  0  0  0  0
   49.1241   11.2863   15.9478 C   0  0  0  0  0  0  0  0  0  0  0  0
   48.4946   10.2449   16.5073 C   0  0  0  0  0  0  0  0  0  0  0  0
   48.4901   11.6825    9.7458 O   0  0  0  0  0  0  0  0  0  0  0  0
   52.1278   10.3014   14.6133 O   0  0  0  0  0  0  0  0  0  0  0  0
   46.9886    7.3761   21.0466 O   0  0  0  0  0  0  0  0  0  0  0  0
   49.2325   15.0715   13.3865 O   0  0  0  0  0  0  0  0  0  0  0  0
   48.5073   13.6932   11.6360 N   0  0  0  0  0  0  0  0  0  0  0  0
   49.1175   11.5248   16.4517 N   0  0  0  0  0  0  0  0  0  0  0  0
   50.0749   10.8313   13.4983 C   0  0  0  0  0  0  0  0  0  0  0  0
   49.0564   12.4347   11.9627 C   0  0  0  0  0  0  0  0  0  0  0  0
   48.9647   11.4174   11.0030 C   0  0  0  0  0  0  0  0  0  0  0  0
   49.6275   12.1336   13.2022 C   0  0  0  0  0  0  0  0  0  0  0  0
   50.7152   10.4498   14.8226 C   0  0  2  0  0  0  0  0  0  0  0  0
   49.9568    9.8377   12.5100 C   0  0  0  0  0  0  0  0  0  0  0  0
   49.3931   10.1233   11.2683 C   0  0  0  0  0  0  0  0  0  0  0  0
   50.5167   11.3998   16.0336 C   0  0  0  0  0  0  0  0  0  0  0  0
   48.8067   10.8041   19.4824 C   0  0  0  0  0  0  0  0  0  0  0  0
   48.9236   12.5112   17.5235 C   0  0  2  0  0  0  0  0  0  0  0  0
   49.4195   12.0708   18.9245 C   0  0  0  0  0  0  0  0  0  0  0  0
   47.6533    8.4401   20.5015 C   0  0  0  0  0  0  0  0  0  0  0  0
   47.6162   10.8528   20.2163 C   0  0  0  0  0  0  0  0  0  0  0  0
   49.4160    9.5600   19.2720 C   0  0  0  0  0  0  0  0  0  0  0  0
   48.5821   14.8476   12.3755 C   0  0  0  0  0  0  0  0  0  0  0  0
   47.0471    9.6797   20.7195 C   0  0  0  0  0  0  0  0  0  0  0  0
   48.8431    8.3850   19.7758 C   0  0  0  0  0  0  0  0  0  0  0  0
   47.4393   12.8871   17.5306 C   0  0  0  0  0  0  0  0  0  0  0  0
   47.5253    6.0842   20.7979 C   0  0  0  0  0  0  0  0  0  0  0  0
   48.8580   11.2712   16.3989 O   0  0  0  0  0  0  0  0  0  0  0  0
   48.8510   10.3832   16.8388 H   0  0  0  0  0  0  0  0  0  0  0  0
   49.0535   11.0750   15.4948 H   0  0  0  0  0  0  0  0  0  0  0  0
   46.4777   14.7929   10.4440 H   0  0  0  0  0  0  0  0  0  0  0  0
   49.3801    9.7654   12.6105 H   0  0  0  0  0  0  0  0  0  0  0  0
   48.8907   13.6679    8.7287 H   0  0  0  0  0  0  0  0  0  0  0  0
   50.4707    9.4423   15.6064 H   0  0  0  0  0  0  0  0  0  0  0  0
   50.6118   11.6201   11.3412 H   0  0  0  0  0  0  0  0  0  0  0  0
   50.9954   11.4776   13.8852 H   0  0  0  0  0  0  0  0  0  0  0  0
   47.6103   12.7120   14.2389 H   0  0  0  0  0  0  0  0  0  0  0  0
   46.4769   14.0803   12.5745 H   0  0  0  0  0  0  0  0  0  0  0  0
   49.4676   12.1713   15.7708 H   0  0  0  0  0  0  0  0  0  0  0  0
   48.3938   10.8167   15.3488 H   0  0  0  0  0  0  0  0  0  0  0  0
   50.3891    9.2020   17.9418 H   0  0  0  0  0  0  0  0  0  0  0  0
   50.1068   11.6403   18.5134 H   0  0  0  0  0  0  0  0  0  0  0  0
   48.4578   11.5929   17.9365 H   0  0  0  0  0  0  0  0  0  0  0  0
   50.7660    9.8440   20.3632 H   0  0  0  0  0  0  0  0  0  0  0  0
   46.7264   11.0809   19.4871 H   0  0  0  0  0  0  0  0  0  0  0  0
   50.6047   12.7546    7.6276 H   0  0  0  0  0  0  0  0  0  0  0  0
   50.0527    9.0296   22.5506 H   0  0  0  0  0  0  0  0  0  0  0  0
   46.0112   10.2567   21.6994 H   0  0  0  0  0  0  0  0  0  0  0  0
   48.1570    8.3203   18.0843 H   0  0  0  0  0  0  0  0  0  0  0  0
   48.7006    8.0931   16.4280 H   0  0  0  0  0  0  0  0  0  0  0  0
   47.5540    9.3899   16.8136 H   0  0  0  0  0  0  0  0  0  0  0  0
   48.5588    7.3811   23.6391 H   0  0  0  0  0  0  0  0  0  0  0  0
   49.1001    8.7733   24.6546 H   0  0  0  0  0  0  0  0  0  0  0  0
   47.6280    7.8760   25.0536 H   0  0  0  0  0  0  0  0  0  0  0  0
   49.4917   12.6928   13.1848 H   0  0  0  0  0  0  0  0  0  0  0  0
   49.3494   10.4212   19.5417 H   0  0  0  0  0  0  0  0  0  0  0  0
   49.7605   11.9651   16.5033 H   0  0  0  0  0  0  0  0  0  0  0  0
   47.8644    9.5724   15.9335 H   0  0  0  0  0  0  0  0  0  0  0  0
   49.0362   12.4188    9.4147 H   0  0  0  0  0  0  0  0  0  0  0  0
   52.3559   10.8284   13.8289 H   0  0  0  0  0  0  0  0  0  0  0  0
   47.9305   13.7157   10.8026 H   0  0  0  0  0  0  0  0  0  0  0  0
   48.7454   10.6196   16.7413 H   0  0  0  0  0  0  0  0  0  0  0  0
   49.6941   12.9026   13.9658 H   0  0  0  0  0  0  0  0  0  0  0  0
   50.3331    9.4638   15.1148 H   0  0  0  0  0  0  0  0  0  0  0  0
   50.3046    8.8252   12.7147 H   0  0  0  0  0  0  0  0  0  0  0  0
   49.3070    9.3454   10.5144 H   0  0  0  0  0  0  0  0  0  0  0  0
   51.1211   11.0129   16.8638 H   0  0  0  0  0  0  0  0  0  0  0  0
   50.9430   12.3829   15.7938 H   0  0  0  0  0  0  0  0  0  0  0  0
   49.4664   13.4276   17.2584 H   0  0  0  0  0  0  0  0  0  0  0  0
   50.5118   11.9556   18.9097 H   0  0  0  0  0  0  0  0  0  0  0  0
   49.2427   12.8882   19.6366 H   0  0  0  0  0  0  0  0  0  0  0  0
   47.1177   11.8027   20.3995 H   0  0  0  0  0  0  0  0  0  0  0  0
   50.3470    9.4937   18.7138 H   0  0  0  0  0  0  0  0  0  0  0  0
   47.9629   15.6377   11.9192 H   0  0  0  0  0  0  0  0  0  0  0  0
   46.1189    9.7345   21.2849 H   0  0  0  0  0  0  0  0  0  0  0  0
   49.3534    7.4463   19.5856 H   0  0  0  0  0  0  0  0  0  0  0  0
   47.2264   13.6177   18.3175 H   0  0  0  0  0  0  0  0  0  0  0  0
   46.7916   12.0181   17.6856 H   0  0  0  0  0  0  0  0  0  0  0  0
   47.1521   13.3388   16.5735 H   0  0  0  0  0  0  0  0  0  0  0  0
   48.5113    5.9737   21.2604 H   0  0  0  0  0  0  0  0  0  0  0  0
   47.5642    5.8718   19.7244 H   0  0  0  0  0  0  0  0  0  0  0  0
   46.8539    5.3516   21.2552 H   0  0  0  0  0  0  0  0  0  0  0  0
   49.0603   11.0192   15.4855 H   0  0  0  0  0  0  0  0  0  0  0  0
   48.8402   10.4270   16.8740 H   0  0  0  0  0  0  0  0  0  0  0  0
  2 10  1  0
  3 12  1  0
  4 19  1  0
  4 26  1  0
  5 22  2  0
  6  9  1  0
  6 22  1  0
  7 15  1  0
  7 17  1  0
  8 11  2  0
  8 12  1  0
  8 13  1  0
  9 10  2  0
  9 11  1  0
 10 14  1  0
 12 15  1  0
 13 14  2  0
 16 18  1  0
 16 20  2  0
 16 21  1  0
 17 18  1  0
 17 25  1  0
 19 23  2  0
 19 24  1  0
 20 23  1  0
 21 24  2  0
 27 31  1  0
 28 32  1  0
 29 31  2  0
 30 32  2  0
 31 33  1  0
 32 34  1  0
 33 34  2  0
 35 43  1  0
 36 45  1  0
 37 52  1  0
 37 59  1  0
 38 55  2  0
 39 42  1  0
 39 55  1  0
 40 48  1  0
 40 50  1  0
 41 44  2  0
 41 45  1  0
 41 46  1  0
 42 43  2  0
 42 44  1  0
 43 47  1  0
 45 48  1  0
 46 47  2  0
 49 51  1  0
 49 53  2  0
 49 54  1  0
 50 51  1  0
 50 58  1  0
 52 56  2  0
 52 57  1  0
 53 56  1  0
 54 57  2  0
  1 61  1  0
  1 62  1  0
  2 63  1  0
  3 64  1  0
  6 65  1  0
  7 66  1  0
 11 67  1  0
 12 68  1  6
 13 69  1  0
 14 70  1  0
 15 71  1  0
 15 72  1  0
 17 73  1  6
 18 74  1  0
 18 75  1  0
 20 76  1  0
 21 77  1  0
 22 78  1  0
 23 79  1  0
 24 80  1  0
 25 81  1  0
 25 82  1  0
 25 83  1  0
 26 84  1  0
 26 85  1  0
 26 86  1  0
 27 87  1  0
 28 88  1  0
 33 89  1  0
 34 90  1  0
 35 91  1  0
 36 92  1  0
 39 93  1  0
 40 94  1  0
 44 95  1  0
 45 96  1  1
 46 97  1  0
 47 98  1  0
 48 99  1  0
 48100  1  0
 50101  1  6
 51102  1  0
 51103  1  0
 53104  1  0
 54105  1  0
 55106  1  0
 56107  1  0
 57108  1  0
 58109  1  0
 58110  1  0
 58111  1  0
 59112  1  0
 59113  1  0
 59114  1  0
 60115  1  0
 60116  1  0
M  END
> <Uni-Dock RESULT> 
ENERGY=   -3.943  LOWER_BOUND=    3.394  UPPER_BOUND=    5.196
INTER + INTRA:          -3.943
INTER:                  -3.943
INTRA:                   0.000
UNBOUND:                 0.000

$$$$

     RDKit          3D

116115  0  0  0  0  0  0  0  0999 V2000
   49.3459   11.5924   18.7229 O   0  0  0  0  0  0  0  0  0  0  0  0
   52.3169   18.1657   17.7132 O   0  0  0  0  0  0  0  0  0  0  0  0
   49.5571   13.8602   21.3734 O   0  0  0  0  0  0  0  0  0  0  0  0
   48.8117    4.1913   17.7670 O   0  0  0  0  0  0  0  0  0  0  0  0
   49.2256   18.7318   21.5878 O   0  0  0  0  0  0  0  0  0  0  0  0
   50.7078   18.7683   19.7787 N   0  0  0  0  0  0  0  0  0  0  0  0
   48.2862   11.7003   20.0911 N   0  0  0  0  0  0  0  0  0  0  0  0
   50.0029   15.1002   19.3413 C   0  0  0  0  0  0  0  0  0  0  0  0
   50.7069   17.4414   19.3067 C   0  0  0  0  0  0  0  0  0  0  0  0
   51.5581   17.1481   18.2357 C   0  0  0  0  0  0  0  0  0  0  0  0
   49.9281   16.4186   19.8456 C   0  0  0  0  0  0  0  0  0  0  0  0
   49.1460   14.0335   20.0030 C   0  0  1  0  0  0  0  0  0  0  0  0
   50.8667   14.8415   18.2677 C   0  0  0  0  0  0  0  0  0  0  0  0
   51.6431   15.8608   17.7133 C   0  0  0  0  0  0  0  0  0  0  0  0
   49.1600   12.6243   19.3477 C   0  0  0  0  0  0  0  0  0  0  0  0
   48.4700    8.3333   18.2086 C   0  0  0  0  0  0  0  0  0  0  0  0
   48.5551   10.2653   19.8829 C   0  0  1  0  0  0  0  0  0  0  0  0
   48.4111    9.8332   18.4018 C   0  0  0  0  0  0  0  0  0  0  0  0
   48.6136    5.5332   17.9408 C   0  0  0  0  0  0  0  0  0  0  0  0
   47.4287    7.5155   18.6698 C   0  0  0  0  0  0  0  0  0  0  0  0
   49.5745    7.7346   17.5875 C   0  0  0  0  0  0  0  0  0  0  0  0
   50.0073   19.2903   20.8350 C   0  0  0  0  0  0  0  0  0  0  0  0
   47.4998    6.1240   18.5376 C   0  0  0  0  0  0  0  0  0  0  0  0
   49.6384    6.3466   17.4518 C   0  0  0  0  0  0  0  0  0  0  0  0
   49.9020    9.8434   20.4942 C   0  0  0  0  0  0  0  0  0  0  0  0
   47.9650    3.3265   18.5111 C   0  0  0  0  0  0  0  0  0  0  0  0
   49.0825   14.3437   18.5409 O   0  0  0  0  0  0  0  0  0  0  0  0
   48.2467    9.5645   18.5332 O   0  0  0  0  0  0  0  0  0  0  0  0
   50.7920   13.6871   19.8382 O   0  0  0  0  0  0  0  0  0  0  0  0
   49.8221    8.6648   19.8388 O   0  0  0  0  0  0  0  0  0  0  0  0
   49.8098   13.4121   19.1753 C   0  0  0  0  0  0  0  0  0  0  0  0
   49.3279    9.6519   19.3236 C   0  0  0  0  0  0  0  0  0  0  0  0
   49.2398   12.0847   18.9415 C   0  0  0  0  0  0  0  0  0  0  0  0
   49.8266   11.0182   19.5003 C   0  0  0  0  0  0  0  0  0  0  0  0
   51.7236   17.5770   20.5811 O   0  0  0  0  0  0  0  0  0  0  0  0
   47.0229   13.5230   21.1299 O   0  0  0  0  0  0  0  0  0  0  0  0
   50.2831    5.4876   20.0539 O   0  0  0  0  0  0  0  0  0  0  0  0
   49.3089   15.9395   16.4849 O   0  0  0  0  0  0  0  0  0  0  0  0
   50.7714   16.7489   18.1268 N   0  0  0  0  0  0  0  0  0  0  0  0
   49.0466   11.7378   18.5500 N   0  0  0  0  0  0  0  0  0  0  0  0
   49.2024   14.2681   20.4719 C   0  0  0  0  0  0  0  0  0  0  0  0
   50.3678   16.0607   19.2911 C   0  0  0  0  0  0  0  0  0  0  0  0
   50.9282   16.4642   20.5108 C   0  0  0  0  0  0  0  0  0  0  0  0
   49.4939   14.9702   19.2862 C   0  0  0  0  0  0  0  0  0  0  0  0
   48.2507   13.0847   20.5286 C   0  0  2  0  0  0  0  0  0  0  0  0
   49.7925   14.7006   21.6730 C   0  0  0  0  0  0  0  0  0  0  0  0
   50.6627   15.7884   21.6946 C   0  0  0  0  0  0  0  0  0  0  0  0
   47.8933   12.3670   19.1998 C   0  0  0  0  0  0  0  0  0  0  0  0
   48.5013    8.6964   18.0462 C   0  0  0  0  0  0  0  0  0  0  0  0
   48.7228   11.1590   17.2388 C   0  0  2  0  0  0  0  0  0  0  0  0
   47.8916    9.8513   17.2808 C   0  0  0  0  0  0  0  0  0  0  0  0
   49.6552    6.5585   19.4797 C   0  0  0  0  0  0  0  0  0  0  0  0
   49.3728    7.8037   17.4125 C   0  0  0  0  0  0  0  0  0  0  0  0
   48.2087    8.5014   19.4026 C   0  0  0  0  0  0  0  0  0  0  0  0
   50.2733   16.5929   16.8569 C   0  0  0  0  0  0  0  0  0  0  0  0
   49.9432    6.7457   18.1256 C   0  0  0  0  0  0  0  0  0  0  0  0
   48.7827    7.4412   20.1161 C   0  0  0  0  0  0  0  0  0  0  0  0
   50.0430   10.9775   16.4847 C   0  0  0  0  0  0  0  0  0  0  0  0
   50.0786    5.2902   21.4460 C   0  0  0  0  0  0  0  0  0  0  0  0
   49.3483   11.6211   18.7225 O   0  0  0  0  0  0  0  0  0  0  0  0
   49.3658   10.8629   19.3604 H   0  0  0  0  0  0  0  0  0  0  0  0
   49.4845   12.3806   19.2692 H   0  0  0  0  0  0  0  0  0  0  0  0
   52.8573   17.8037   16.9929 H   0  0  0  0  0  0  0  0  0  0  0  0
   50.3113   14.4532   21.5410 H   0  0  0  0  0  0  0  0  0  0  0  0
   51.3359   19.3878   19.2746 H   0  0  0  0  0  0  0  0  0  0  0  0
   48.4014   11.9205   21.0863 H   0  0  0  0  0  0  0  0  0  0  0  0
   49.2493   16.6177   20.6723 H   0  0  0  0  0  0  0  0  0  0  0  0
   48.1117   14.4007   20.0164 H   0  0  0  0  0  0  0  0  0  0  0  0
   50.9524   13.8458   17.8415 H   0  0  0  0  0  0  0  0  0  0  0  0
   52.3054   15.6288   16.8838 H   0  0  0  0  0  0  0  0  0  0  0  0
   48.8256   12.6849   18.3084 H   0  0  0  0  0  0  0  0  0  0  0  0
   50.1901   12.2548   19.3665 H   0  0  0  0  0  0  0  0  0  0  0  0
   47.7806    9.7429   20.4606 H   0  0  0  0  0  0  0  0  0  0  0  0
   47.4523   10.1885   18.0019 H   0  0  0  0  0  0  0  0  0  0  0  0
   49.1822   10.3094   17.7847 H   0  0  0  0  0  0  0  0  0  0  0  0
   46.5556    7.9584   19.1445 H   0  0  0  0  0  0  0  0  0  0  0  0
   50.3955    8.3429   17.2147 H   0  0  0  0  0  0  0  0  0  0  0  0
   50.2373   20.3622   20.9563 H   0  0  0  0  0  0  0  0  0  0  0  0
   46.6682    5.5319   18.9070 H   0  0  0  0  0  0  0  0  0  0  0  0
   50.5037    5.8899   16.9768 H   0  0  0  0  0  0  0  0  0  0  0  0
   49.9685    8.7529   20.5741 H   0  0  0  0  0  0  0  0  0  0  0  0
   50.0223   10.2405   21.5092 H   0  0  0  0  0  0  0  0  0  0  0  0
   50.7524   10.1830   19.8940 H   0  0  0  0  0  0  0  0  0  0  0  0
   47.9975    3.5539   19.5814 H   0  0  0  0  0  0  0  0  0  0  0  0
   46.9365    3.3573   18.1329 H   0  0  0  0  0  0  0  0  0  0  0  0
   48.3364    2.3042   18.3832 H   0  0  0  0  0  0  0  0  0  0  0  0
   49.5319   15.1874   18.7544 H   0  0  0  0  0  0  0  0  0  0  0  0
   48.0404    8.6062   18.5196 H   0  0  0  0  0  0  0  0  0  0  0  0
   48.3557   12.0187   18.3184 H   0  0  0  0  0  0  0  0  0  0  0  0
   50.7097   11.1043   20.1259 H   0  0  0  0  0  0  0  0  0  0  0  0
   51.1940   18.2966   20.1917 H   0  0  0  0  0  0  0  0  0  0  0  0
   46.9687   14.4845   20.9972 H   0  0  0  0  0  0  0  0  0  0  0  0
   51.5694   17.3645   18.2370 H   0  0  0  0  0  0  0  0  0  0  0  0
   49.4553   11.0234   19.1536 H   0  0  0  0  0  0  0  0  0  0  0  0
   49.0609   14.6310   18.3501 H   0  0  0  0  0  0  0  0  0  0  0  0
   48.6816   12.3322   21.2006 H   0  0  0  0  0  0  0  0  0  0  0  0
   49.5739   14.1772   22.6038 H   0  0  0  0  0  0  0  0  0  0  0  0
   51.1124   16.1110   22.6298 H   0  0  0  0  0  0  0  0  0  0  0  0
   47.1320   11.6091   19.4241 H   0  0  0  0  0  0  0  0  0  0  0  0
   47.4051   13.0819   18.5243 H   0  0  0  0  0  0  0  0  0  0  0  0
   48.1451   11.8945   16.6644 H   0  0  0  0  0  0  0  0  0  0  0  0
   46.8958   10.0603   17.6947 H   0  0  0  0  0  0  0  0  0  0  0  0
   47.6938    9.5233   16.2513 H   0  0  0  0  0  0  0  0  0  0  0  0
   49.6202    7.9253   16.3596 H   0  0  0  0  0  0  0  0  0  0  0  0
   47.5269    9.1739   19.9178 H   0  0  0  0  0  0  0  0  0  0  0  0
   50.8622   17.1852   16.1371 H   0  0  0  0  0  0  0  0  0  0  0  0
   50.6221    6.0626   17.6189 H   0  0  0  0  0  0  0  0  0  0  0  0
   48.5247    7.3330   21.1646 H   0  0  0  0  0  0  0  0  0  0  0  0
   49.8700   10.5394   15.4965 H   0  0  0  0  0  0  0  0  0  0  0  0
   50.7454   10.3353   17.0260 H   0  0  0  0  0  0  0  0  0  0  0  0
   50.5372   11.9450   16.3357 H   0  0  0  0  0  0  0  0  0  0  0  0
   49.0305    5.0565   21.6589 H   0  0  0  0  0  0  0  0  0  0  0  0
   50.4171    6.1573   22.0226 H   0  0  0  0  0  0  0  0  0  0  0  0
   50.6847    4.4327   21.7529 H   0  0  0  0  0  0  0  0  0  0  0  0
   49.4905   12.3671   19.3242 H   0  0  0  0  0  0  0  0  0  0  0  0
   49.3574   10.8476   19.3058 H   0  0  0  0  0  0  0  0  0  0  0  0
  2 10  1  0
  3 12  1  0
  4 19  1  0
  4 26  1  0
  5 22  2  0
  6  9  1  0
  6 22  1  0
  7 15  1  0
  7 17  1  0
  8 11  2  0
  8 12  1  0
  8 13  1  0
  9 10  2  0
  9 11  1  0
 10 14  1  0
 12 15  1  0
 13 14  2  0
 16 18  1  0
 16 20  2  0
 16 21  1  0
 17 18  1  0
 17 25  1  0
 19 23  2  0
 19 24  1  0
 20 23  1  0
 21 24  2  0
 27 31  1  0
 28 32  1  0
 29 31  2  0
 30 32  2  0
 31 33  1  0
 32 34  1  0
 33 34  2  0
 35 43  1  0
 36 45  1  0
 37 52  1  0
 37 59  1  0
 38 55  2  0
 39 42  1  0
 39 55  1  0
 40 48  1  0
 40 50  1  0
 41 44  2  0
 41 45  1  0
 41 46  1  0
 42 43  2  0
 42 44  1  0
 43 47  1  0
 45 48  1  0
 46 47  2  0
 49 51  1  0
 49 53  2  0
 49 54  1  0
 50 51  1  0
 50 58  1  0
 52 56  2  0
 52 57  1  0
 53 56  1  0
 54 57  2  0
  1 61  1  0
  1 62  1  0
  2 63  1  0
  3 64  1  0
  6 65  1  0
  7 66  1  0
 11 67  1  0
 12 68  1  6
 13 69  1  0
 14 70  1  0
 15 71  1  0
 15 72  1  0
 17 73  1  6
 18 74  1  0
 18 75  1  0
 20 76  1  0
 21 77  1  0
 22 78  1  0
 23 79  1  0
 24 80  1  0
 25 81  1  0
 25 82  1  0
 25 83  1  0
 26 84  1  0
 26 85  1  0
 26 86  1  0
 27 87  1  0
 28 88  1  0
 33 89  1  0
 34 90  1  0
 35 91  1  0
 36 92  1  0
 39 93  1  0
 40 94  1  0
 44 95  1  0
 45 96  1  1
 46 97  1  0
 47 98  1  0
 48 99  1  0
 48100  1  0
 50101  1  6
 51102  1  0
 51103  1  0
 53104  1  0
 54105  1  0
 55106  1  0
 56107  1  0
 57108  1  0
 58109  1  0
 58110  1  0
 58111  1  0
 59112  1  0
 59113  1  0
 59114  1  0
 60115  1  0
 60116  1  0
M  END
> <Uni-Dock RESULT> 
ENERGY=   -3.867  LOWER_BOUND=    2.172  UPPER_BOUND=    3.010
INTER + INTRA:          -3.867
INTER:                  -3.867
INTRA:                   0.000
UNBOUND:                 0.000

$$$$
