
     RDKit          3D

 28 29  0  0  0  0  0  0  0  0999 V2000
   -0.9916   -1.0119    0.2801 C   0  0  0  0  0  0  0  0  0  0  0  0
   -0.2271   -1.0036   -0.8377 O   0  0  0  0  0  0  0  0  0  0  0  0
   -0.7788   -1.6551    1.2960 O   0  0  0  0  0  0  0  0  0  0  0  0
   -2.1703   -0.1187    0.1101 C   0  0  0  0  0  0  0  0  0  0  0  0
    0.9651   -1.7955   -0.7834 C   0  0  0  0  0  0  0  0  0  0  0  0
    2.1418   -0.9025   -0.4888 C   0  0  0  0  0  0  0  0  0  0  0  0
   -3.1275   -0.0842    1.1338 C   0  0  0  0  0  0  0  0  0  0  0  0
   -2.3492    0.6841   -1.0252 C   0  0  0  0  0  0  0  0  0  0  0  0
    2.7957   -0.2183   -1.5229 C   0  0  0  0  0  0  0  0  0  0  0  0
    2.5719   -0.7110    0.8315 C   0  0  0  0  0  0  0  0  0  0  0  0
   -4.2503    0.7384    1.0218 C   0  0  0  0  0  0  0  0  0  0  0  0
   -3.4739    1.5061   -1.1334 C   0  0  0  0  0  0  0  0  0  0  0  0
    3.8730    0.6240   -1.2428 C   0  0  0  0  0  0  0  0  0  0  0  0
    3.6488    0.1321    1.1096 C   0  0  0  0  0  0  0  0  0  0  0  0
   -4.4225    1.5318   -0.1115 C   0  0  0  0  0  0  0  0  0  0  0  0
    4.3004    0.7970    0.0726 C   0  0  0  0  0  0  0  0  0  0  0  0
    1.0923   -2.2644   -1.7661 H   0  0  0  0  0  0  0  0  0  0  0  0
    0.8984   -2.6208   -0.0639 H   0  0  0  0  0  0  0  0  0  0  0  0
   -3.0015   -0.6983    2.0237 H   0  0  0  0  0  0  0  0  0  0  0  0
   -1.6194    0.6841   -1.8309 H   0  0  0  0  0  0  0  0  0  0  0  0
    2.4660   -0.3360   -2.5526 H   0  0  0  0  0  0  0  0  0  0  0  0
    2.0631   -1.2152    1.6517 H   0  0  0  0  0  0  0  0  0  0  0  0
   -4.9887    0.7602    1.8195 H   0  0  0  0  0  0  0  0  0  0  0  0
   -3.6084    2.1283   -2.0149 H   0  0  0  0  0  0  0  0  0  0  0  0
    4.3764    1.1488   -2.0504 H   0  0  0  0  0  0  0  0  0  0  0  0
    3.9752    0.2728    2.1367 H   0  0  0  0  0  0  0  0  0  0  0  0
   -5.2965    2.1730   -0.1976 H   0  0  0  0  0  0  0  0  0  0  0  0
    5.1377    1.4546    0.2905 H   0  0  0  0  0  0  0  0  0  0  0  0
  2  1  1  0
  3  1  2  0
  4  1  1  0
  5  2  1  0
  6  5  1  0
  7  4  2  0
  8  4  1  0
  9  6  2  0
 10  6  1  0
 11  7  1  0
 12  8  2  0
 13  9  1  0
 14 10  2  0
 15 12  1  0
 16 14  1  0
 15 11  2  0
 16 13  2  0
  5 17  1  0
  5 18  1  0
  7 19  1  0
  8 20  1  0
  9 21  1  0
 10 22  1  0
 11 23  1  0
 12 24  1  0
 13 25  1  0
 14 26  1  0
 15 27  1  0
 16 28  1  0
M  END
$$$$
