
     RDKit          3D

 28 29  0  0  0  0  0  0  0  0999 V2000
   -0.8006    0.8437   -0.8957 C   0  0  0  0  0  0  0  0  0  0  0  0
   -0.0437   -0.2352   -1.2070 O   0  0  0  0  0  0  0  0  0  0  0  0
   -0.4834    2.0142   -1.0389 O   0  0  0  0  0  0  0  0  0  0  0  0
   -2.1170    0.4146   -0.3489 C   0  0  0  0  0  0  0  0  0  0  0  0
    1.2688    0.0472   -1.7061 C   0  0  0  0  0  0  0  0  0  0  0  0
    2.2688   -0.1085   -0.5905 C   0  0  0  0  0  0  0  0  0  0  0  0
   -3.0707    1.4029   -0.0677 C   0  0  0  0  0  0  0  0  0  0  0  0
   -2.4281   -0.9301   -0.1033 C   0  0  0  0  0  0  0  0  0  0  0  0
    2.7978   -1.3680   -0.2761 C   0  0  0  0  0  0  0  0  0  0  0  0
    2.6517    1.0005    0.1767 C   0  0  0  0  0  0  0  0  0  0  0  0
   -4.3199    1.0510    0.4475 C   0  0  0  0  0  0  0  0  0  0  0  0
   -3.6791   -1.2781    0.4125 C   0  0  0  0  0  0  0  0  0  0  0  0
    3.7089   -1.5107    0.7718 C   0  0  0  0  0  0  0  0  0  0  0  0
    3.5623    0.8557    1.2243 C   0  0  0  0  0  0  0  0  0  0  0  0
   -4.6229   -0.2886    0.6863 C   0  0  0  0  0  0  0  0  0  0  0  0
    4.0924   -0.3989    1.5198 C   0  0  0  0  0  0  0  0  0  0  0  0
    1.3443    1.0351   -2.1770 H   0  0  0  0  0  0  0  0  0  0  0  0
    1.4815   -0.6795   -2.4988 H   0  0  0  0  0  0  0  0  0  0  0  0
   -2.8434    2.4519   -0.2488 H   0  0  0  0  0  0  0  0  0  0  0  0
   -1.7055   -1.7171   -0.3039 H   0  0  0  0  0  0  0  0  0  0  0  0
    2.4993   -2.2456   -0.8449 H   0  0  0  0  0  0  0  0  0  0  0  0
    2.2350    1.9837   -0.0364 H   0  0  0  0  0  0  0  0  0  0  0  0
   -5.0549    1.8227    0.6632 H   0  0  0  0  0  0  0  0  0  0  0  0
   -3.9162   -2.3221    0.6029 H   0  0  0  0  0  0  0  0  0  0  0  0
    4.1166   -2.4902    1.0074 H   0  0  0  0  0  0  0  0  0  0  0  0
    3.8535    1.7221    1.8124 H   0  0  0  0  0  0  0  0  0  0  0  0
   -5.5954   -0.5619    1.0887 H   0  0  0  0  0  0  0  0  0  0  0  0
    4.8000   -0.5107    2.3369 H   0  0  0  0  0  0  0  0  0  0  0  0
  2  1  1  0
  3  1  2  0
  4  1  1  0
  5  2  1  0
  6  5  1  0
  7  4  2  0
  8  4  1  0
  9  6  2  0
 10  6  1  0
 11  7  1  0
 12  8  2  0
 13  9  1  0
 14 10  2  0
 15 12  1  0
 16 14  1  0
 15 11  2  0
 16 13  2  0
  5 17  1  0
  5 18  1  0
  7 19  1  0
  8 20  1  0
  9 21  1  0
 10 22  1  0
 11 23  1  0
 12 24  1  0
 13 25  1  0
 14 26  1  0
 15 27  1  0
 16 28  1  0
M  END
$$$$
