
     RDKit          3D

 28 29  0  0  0  0  0  0  0  0999 V2000
   -1.2245   -1.2384   -0.3926 C   0  0  0  0  0  0  0  0  0  0  0  0
   -0.0537   -0.6157   -0.1216 O   0  0  0  0  0  0  0  0  0  0  0  0
   -1.3442   -2.3470   -0.8899 O   0  0  0  0  0  0  0  0  0  0  0  0
   -2.3756   -0.3812    0.0010 C   0  0  0  0  0  0  0  0  0  0  0  0
    1.1017   -1.3794   -0.4734 C   0  0  0  0  0  0  0  0  0  0  0  0
    2.3166   -0.5636   -0.1154 C   0  0  0  0  0  0  0  0  0  0  0  0
   -3.6707   -0.8742   -0.2107 C   0  0  0  0  0  0  0  0  0  0  0  0
   -2.2074    0.8890    0.5702 C   0  0  0  0  0  0  0  0  0  0  0  0
    2.8659    0.3373   -1.0386 C   0  0  0  0  0  0  0  0  0  0  0  0
    2.8894   -0.6625    1.1605 C   0  0  0  0  0  0  0  0  0  0  0  0
   -4.7828   -0.1071    0.1422 C   0  0  0  0  0  0  0  0  0  0  0  0
   -3.3228    1.6532    0.9218 C   0  0  0  0  0  0  0  0  0  0  0  0
    3.9795    1.1075   -0.6992 C   0  0  0  0  0  0  0  0  0  0  0  0
    4.0030    0.1085    1.4979 C   0  0  0  0  0  0  0  0  0  0  0  0
   -4.6078    1.1552    0.7078 C   0  0  0  0  0  0  0  0  0  0  0  0
    4.5489    0.9911    0.5675 C   0  0  0  0  0  0  0  0  0  0  0  0
    1.1119   -2.3289    0.0762 H   0  0  0  0  0  0  0  0  0  0  0  0
    1.1003   -1.5979   -1.5485 H   0  0  0  0  0  0  0  0  0  0  0  0
   -3.8181   -1.8584   -0.6516 H   0  0  0  0  0  0  0  0  0  0  0  0
   -1.2147    1.2969    0.7460 H   0  0  0  0  0  0  0  0  0  0  0  0
    2.4258    0.4454   -2.0275 H   0  0  0  0  0  0  0  0  0  0  0  0
    2.4680   -1.3402    1.8997 H   0  0  0  0  0  0  0  0  0  0  0  0
   -5.7847   -0.4951   -0.0245 H   0  0  0  0  0  0  0  0  0  0  0  0
   -3.1883    2.6379    1.3630 H   0  0  0  0  0  0  0  0  0  0  0  0
    4.4006    1.8009   -1.4224 H   0  0  0  0  0  0  0  0  0  0  0  0
    4.4426    0.0228    2.4882 H   0  0  0  0  0  0  0  0  0  0  0  0
   -5.4743    1.7520    0.9823 H   0  0  0  0  0  0  0  0  0  0  0  0
    5.4152    1.5919    0.8314 H   0  0  0  0  0  0  0  0  0  0  0  0
  2  1  1  0
  3  1  2  0
  4  1  1  0
  5  2  1  0
  6  5  1  0
  7  4  2  0
  8  4  1  0
  9  6  2  0
 10  6  1  0
 11  7  1  0
 12  8  2  0
 13  9  1  0
 14 10  2  0
 15 12  1  0
 16 14  1  0
 15 11  2  0
 16 13  2  0
  5 17  1  0
  5 18  1  0
  7 19  1  0
  8 20  1  0
  9 21  1  0
 10 22  1  0
 11 23  1  0
 12 24  1  0
 13 25  1  0
 14 26  1  0
 15 27  1  0
 16 28  1  0
M  END
$$$$
