
     RDKit          3D

 28 29  0  0  0  0  0  0  0  0999 V2000
   -1.1863   -1.2218    0.6593 C   0  0  0  0  0  0  0  0  0  0  0  0
   -0.0356   -0.5820    0.3457 O   0  0  0  0  0  0  0  0  0  0  0  0
   -1.2734   -2.2707    1.2782 O   0  0  0  0  0  0  0  0  0  0  0  0
   -2.3608   -0.4680    0.1426 C   0  0  0  0  0  0  0  0  0  0  0  0
    1.1404   -1.2478    0.8101 C   0  0  0  0  0  0  0  0  0  0  0  0
    2.3297   -0.4240    0.3893 C   0  0  0  0  0  0  0  0  0  0  0  0
   -3.6395   -0.9913    0.3795 C   0  0  0  0  0  0  0  0  0  0  0  0
   -2.2301    0.7350   -0.5654 C   0  0  0  0  0  0  0  0  0  0  0  0
    2.9386   -0.6376   -0.8554 C   0  0  0  0  0  0  0  0  0  0  0  0
    2.8176    0.5961    1.2181 C   0  0  0  0  0  0  0  0  0  0  0  0
   -4.7725   -0.3205   -0.0854 C   0  0  0  0  0  0  0  0  0  0  0  0
   -3.3663    1.4030   -1.0289 C   0  0  0  0  0  0  0  0  0  0  0  0
    4.0278    0.1395   -1.2529 C   0  0  0  0  0  0  0  0  0  0  0  0
    3.9070    1.3721    0.8186 C   0  0  0  0  0  0  0  0  0  0  0  0
   -4.6347    0.8754   -0.7888 C   0  0  0  0  0  0  0  0  0  0  0  0
    4.5130    1.1420   -0.4151 C   0  0  0  0  0  0  0  0  0  0  0  0
    1.2065   -2.2521    0.3736 H   0  0  0  0  0  0  0  0  0  0  0  0
    1.1175   -1.3425    1.9029 H   0  0  0  0  0  0  0  0  0  0  0  0
   -3.7579   -1.9243    0.9276 H   0  0  0  0  0  0  0  0  0  0  0  0
   -1.2508    1.1645   -0.7639 H   0  0  0  0  0  0  0  0  0  0  0  0
    2.5643   -1.4103   -1.5234 H   0  0  0  0  0  0  0  0  0  0  0  0
    2.3484    0.7930    2.1795 H   0  0  0  0  0  0  0  0  0  0  0  0
   -5.7615   -0.7315    0.1015 H   0  0  0  0  0  0  0  0  0  0  0  0
   -3.2608    2.3359   -1.5776 H   0  0  0  0  0  0  0  0  0  0  0  0
    4.4958   -0.0354   -2.2182 H   0  0  0  0  0  0  0  0  0  0  0  0
    4.2807    2.1586    1.4691 H   0  0  0  0  0  0  0  0  0  0  0  0
   -5.5174    1.3973   -1.1506 H   0  0  0  0  0  0  0  0  0  0  0  0
    5.3604    1.7473   -0.7259 H   0  0  0  0  0  0  0  0  0  0  0  0
  2  1  1  0
  3  1  2  0
  4  1  1  0
  5  2  1  0
  6  5  1  0
  7  4  2  0
  8  4  1  0
  9  6  2  0
 10  6  1  0
 11  7  1  0
 12  8  2  0
 13  9  1  0
 14 10  2  0
 15 12  1  0
 16 14  1  0
 15 11  2  0
 16 13  2  0
  5 17  1  0
  5 18  1  0
  7 19  1  0
  8 20  1  0
  9 21  1  0
 10 22  1  0
 11 23  1  0
 12 24  1  0
 13 25  1  0
 14 26  1  0
 15 27  1  0
 16 28  1  0
M  END
$$$$
