
     RDKit          3D

 28 29  0  0  0  0  0  0  0  0999 V2000
   -1.0864    1.4527    0.1457 C   0  0  0  0  0  0  0  0  0  0  0  0
    0.0096    0.6605    0.0885 O   0  0  0  0  0  0  0  0  0  0  0  0
   -1.0919    2.6445    0.4108 O   0  0  0  0  0  0  0  0  0  0  0  0
   -2.3137    0.6697   -0.1628 C   0  0  0  0  0  0  0  0  0  0  0  0
    1.2316    1.3439    0.3742 C   0  0  0  0  0  0  0  0  0  0  0  0
    2.3517    0.3413    0.2727 C   0  0  0  0  0  0  0  0  0  0  0  0
   -3.5461    1.3377   -0.1483 C   0  0  0  0  0  0  0  0  0  0  0  0
   -2.2766   -0.6991   -0.4640 C   0  0  0  0  0  0  0  0  0  0  0  0
    2.7386   -0.4089    1.3922 C   0  0  0  0  0  0  0  0  0  0  0  0
    2.9942    0.1140   -0.9525 C   0  0  0  0  0  0  0  0  0  0  0  0
   -4.7256    0.6460   -0.4311 C   0  0  0  0  0  0  0  0  0  0  0  0
   -3.4592   -1.3873   -0.7465 C   0  0  0  0  0  0  0  0  0  0  0  0
    3.7629   -1.3519    1.2925 C   0  0  0  0  0  0  0  0  0  0  0  0
    4.0184   -0.8295   -1.0500 C   0  0  0  0  0  0  0  0  0  0  0  0
   -4.6809   -0.7151   -0.7298 C   0  0  0  0  0  0  0  0  0  0  0  0
    4.4038   -1.5600    0.0725 C   0  0  0  0  0  0  0  0  0  0  0  0
    1.3898    2.1571   -0.3450 H   0  0  0  0  0  0  0  0  0  0  0  0
    1.2013    1.7715    1.3841 H   0  0  0  0  0  0  0  0  0  0  0  0
   -3.5918    2.4002    0.0837 H   0  0  0  0  0  0  0  0  0  0  0  0
   -1.3351   -1.2431   -0.4827 H   0  0  0  0  0  0  0  0  0  0  0  0
    2.2406   -0.2636    2.3483 H   0  0  0  0  0  0  0  0  0  0  0  0
    2.6971    0.6701   -1.8389 H   0  0  0  0  0  0  0  0  0  0  0  0
   -5.6783    1.1698   -0.4182 H   0  0  0  0  0  0  0  0  0  0  0  0
   -3.4263   -2.4490   -0.9796 H   0  0  0  0  0  0  0  0  0  0  0  0
    4.0586   -1.9265    2.1663 H   0  0  0  0  0  0  0  0  0  0  0  0
    4.5132   -0.9967   -2.0032 H   0  0  0  0  0  0  0  0  0  0  0  0
   -5.5999   -1.2531   -0.9500 H   0  0  0  0  0  0  0  0  0  0  0  0
    5.2005   -2.2952   -0.0046 H   0  0  0  0  0  0  0  0  0  0  0  0
  2  1  1  0
  3  1  2  0
  4  1  1  0
  5  2  1  0
  6  5  1  0
  7  4  2  0
  8  4  1  0
  9  6  2  0
 10  6  1  0
 11  7  1  0
 12  8  2  0
 13  9  1  0
 14 10  2  0
 15 12  1  0
 16 14  1  0
 15 11  2  0
 16 13  2  0
  5 17  1  0
  5 18  1  0
  7 19  1  0
  8 20  1  0
  9 21  1  0
 10 22  1  0
 11 23  1  0
 12 24  1  0
 13 25  1  0
 14 26  1  0
 15 27  1  0
 16 28  1  0
M  END
$$$$
