
     RDKit          3D

 28 29  0  0  0  0  0  0  0  0999 V2000
    0.8232   -0.2801   -1.0382 C   0  0  0  0  0  0  0  0  0  0  0  0
    0.1181   -1.1578   -0.2856 O   0  0  0  0  0  0  0  0  0  0  0  0
    0.4784    0.1921   -2.1103 O   0  0  0  0  0  0  0  0  0  0  0  0
    2.1200    0.0423   -0.3823 C   0  0  0  0  0  0  0  0  0  0  0  0
   -1.1729   -1.5164   -0.7917 C   0  0  0  0  0  0  0  0  0  0  0  0
   -2.2276   -0.7137   -0.0760 C   0  0  0  0  0  0  0  0  0  0  0  0
    2.4585   -0.4346    0.8919 C   0  0  0  0  0  0  0  0  0  0  0  0
    3.0259    0.8595   -1.0730 C   0  0  0  0  0  0  0  0  0  0  0  0
   -2.7340   -1.1405    1.1595 C   0  0  0  0  0  0  0  0  0  0  0  0
   -2.6862    0.4950   -0.6177 C   0  0  0  0  0  0  0  0  0  0  0  0
    3.6892   -0.1001    1.4623 C   0  0  0  0  0  0  0  0  0  0  0  0
    4.2551    1.1912   -0.4996 C   0  0  0  0  0  0  0  0  0  0  0  0
   -3.6967   -0.3830    1.8288 C   0  0  0  0  0  0  0  0  0  0  0  0
   -3.6482    1.2513    0.0532 C   0  0  0  0  0  0  0  0  0  0  0  0
    4.5855    0.7107    0.7667 C   0  0  0  0  0  0  0  0  0  0  0  0
   -4.1549    0.8109    1.2745 C   0  0  0  0  0  0  0  0  0  0  0  0
   -1.2528   -1.4030   -1.8798 H   0  0  0  0  0  0  0  0  0  0  0  0
   -1.3191   -2.5840   -0.5902 H   0  0  0  0  0  0  0  0  0  0  0  0
    1.7726   -1.0632    1.4542 H   0  0  0  0  0  0  0  0  0  0  0  0
    2.7767    1.2413   -2.0614 H   0  0  0  0  0  0  0  0  0  0  0  0
   -2.3777   -2.0649    1.6084 H   0  0  0  0  0  0  0  0  0  0  0  0
   -2.2889    0.8559   -1.5652 H   0  0  0  0  0  0  0  0  0  0  0  0
    3.9475   -0.4709    2.4513 H   0  0  0  0  0  0  0  0  0  0  0  0
    4.9529    1.8254   -1.0409 H   0  0  0  0  0  0  0  0  0  0  0  0
   -4.0864   -0.7222    2.7850 H   0  0  0  0  0  0  0  0  0  0  0  0
   -3.9980    2.1866   -0.3760 H   0  0  0  0  0  0  0  0  0  0  0  0
    5.5424    0.9705    1.2132 H   0  0  0  0  0  0  0  0  0  0  0  0
   -4.9027    1.4016    1.7970 H   0  0  0  0  0  0  0  0  0  0  0  0
  2  1  1  0
  3  1  2  0
  4  1  1  0
  5  2  1  0
  6  5  1  0
  7  4  2  0
  8  4  1  0
  9  6  2  0
 10  6  1  0
 11  7  1  0
 12  8  2  0
 13  9  1  0
 14 10  2  0
 15 12  1  0
 16 14  1  0
 15 11  2  0
 16 13  2  0
  5 17  1  0
  5 18  1  0
  7 19  1  0
  8 20  1  0
  9 21  1  0
 10 22  1  0
 11 23  1  0
 12 24  1  0
 13 25  1  0
 14 26  1  0
 15 27  1  0
 16 28  1  0
M  END
$$$$
