
     RDKit          3D

 28 29  0  0  0  0  0  0  0  0999 V2000
    0.8162    0.4868    0.7720 C   0  0  0  0  0  0  0  0  0  0  0  0
    0.1024    1.2168   -0.1177 O   0  0  0  0  0  0  0  0  0  0  0  0
    0.4743    0.1967    1.9078 O   0  0  0  0  0  0  0  0  0  0  0  0
    2.1188    0.0757    0.1803 C   0  0  0  0  0  0  0  0  0  0  0  0
   -1.1945    1.6386    0.3201 C   0  0  0  0  0  0  0  0  0  0  0  0
   -2.2370    0.7139   -0.2516 C   0  0  0  0  0  0  0  0  0  0  0  0
    3.0328   -0.6025    0.9990 C   0  0  0  0  0  0  0  0  0  0  0  0
    2.4550    0.3365   -1.1555 C   0  0  0  0  0  0  0  0  0  0  0  0
   -2.6820   -0.3927    0.4848 C   0  0  0  0  0  0  0  0  0  0  0  0
   -2.7452    0.9209   -1.5416 C   0  0  0  0  0  0  0  0  0  0  0  0
    4.2677   -1.0099    0.4902 C   0  0  0  0  0  0  0  0  0  0  0  0
    3.6915   -0.0731   -1.6609 C   0  0  0  0  0  0  0  0  0  0  0  0
   -3.6325   -1.2631   -0.0505 C   0  0  0  0  0  0  0  0  0  0  0  0
   -3.6963    0.0496   -2.0751 C   0  0  0  0  0  0  0  0  0  0  0  0
    4.5958   -0.7443   -0.8385 C   0  0  0  0  0  0  0  0  0  0  0  0
   -4.1412   -1.0403   -1.3288 C   0  0  0  0  0  0  0  0  0  0  0  0
   -1.3535    2.6554   -0.0576 H   0  0  0  0  0  0  0  0  0  0  0  0
   -1.2761    1.7083    1.4118 H   0  0  0  0  0  0  0  0  0  0  0  0
    2.7856   -0.8164    2.0372 H   0  0  0  0  0  0  0  0  0  0  0  0
    1.7629    0.8531   -1.8158 H   0  0  0  0  0  0  0  0  0  0  0  0
   -2.2830   -0.5845    1.4797 H   0  0  0  0  0  0  0  0  0  0  0  0
   -2.3992    1.7614   -2.1389 H   0  0  0  0  0  0  0  0  0  0  0  0
    4.9718   -1.5353    1.1307 H   0  0  0  0  0  0  0  0  0  0  0  0
    3.9480    0.1300   -2.6979 H   0  0  0  0  0  0  0  0  0  0  0  0
   -3.9718   -2.1175    0.5292 H   0  0  0  0  0  0  0  0  0  0  0  0
   -4.0874    0.2186   -3.0749 H   0  0  0  0  0  0  0  0  0  0  0  0
    5.5571   -1.0629   -1.2344 H   0  0  0  0  0  0  0  0  0  0  0  0
   -4.8800   -1.7197   -1.7453 H   0  0  0  0  0  0  0  0  0  0  0  0
  2  1  1  0
  3  1  2  0
  4  1  1  0
  5  2  1  0
  6  5  1  0
  7  4  2  0
  8  4  1  0
  9  6  2  0
 10  6  1  0
 11  7  1  0
 12  8  2  0
 13  9  1  0
 14 10  2  0
 15 12  1  0
 16 14  1  0
 15 11  2  0
 16 13  2  0
  5 17  1  0
  5 18  1  0
  7 19  1  0
  8 20  1  0
  9 21  1  0
 10 22  1  0
 11 23  1  0
 12 24  1  0
 13 25  1  0
 14 26  1  0
 15 27  1  0
 16 28  1  0
M  END
$$$$
