
     RDKit          3D

 28 29  0  0  0  0  0  0  0  0999 V2000
   -1.0801   -1.4456    0.4583 C   0  0  0  0  0  0  0  0  0  0  0  0
    0.0126   -0.6529    0.3604 O   0  0  0  0  0  0  0  0  0  0  0  0
   -1.0801   -2.6239    0.7778 O   0  0  0  0  0  0  0  0  0  0  0  0
   -2.3116   -0.6819    0.1191 C   0  0  0  0  0  0  0  0  0  0  0  0
    1.2383   -1.3181    0.6721 C   0  0  0  0  0  0  0  0  0  0  0  0
    2.3542   -0.3172    0.5200 C   0  0  0  0  0  0  0  0  0  0  0  0
   -2.2809    0.6718   -0.2446 C   0  0  0  0  0  0  0  0  0  0  0  0
   -3.5413   -1.3531    0.1689 C   0  0  0  0  0  0  0  0  0  0  0  0
    2.9851   -0.1381   -0.7192 C   0  0  0  0  0  0  0  0  0  0  0  0
    2.7487    0.4790    1.6045 C   0  0  0  0  0  0  0  0  0  0  0  0
   -3.4671    1.3420   -0.5537 C   0  0  0  0  0  0  0  0  0  0  0  0
   -4.7245   -0.6794   -0.1408 C   0  0  0  0  0  0  0  0  0  0  0  0
    4.0053    0.8034   -0.8643 C   0  0  0  0  0  0  0  0  0  0  0  0
    3.7692    1.4200    1.4572 C   0  0  0  0  0  0  0  0  0  0  0  0
   -4.6862    0.6667   -0.5016 C   0  0  0  0  0  0  0  0  0  0  0  0
    4.3984    1.5801    0.2240 C   0  0  0  0  0  0  0  0  0  0  0  0
    1.3969   -2.1627   -0.0099 H   0  0  0  0  0  0  0  0  0  0  0  0
    1.2134   -1.6991    1.7006 H   0  0  0  0  0  0  0  0  0  0  0  0
   -1.3415    1.2178   -0.2917 H   0  0  0  0  0  0  0  0  0  0  0  0
   -3.5821   -2.4040    0.4494 H   0  0  0  0  0  0  0  0  0  0  0  0
    2.6818   -0.7308   -1.5795 H   0  0  0  0  0  0  0  0  0  0  0  0
    2.2598    0.3714    2.5702 H   0  0  0  0  0  0  0  0  0  0  0  0
   -3.4391    2.3920   -0.8353 H   0  0  0  0  0  0  0  0  0  0  0  0
   -5.6752   -1.2056   -0.1003 H   0  0  0  0  0  0  0  0  0  0  0  0
    4.4911    0.9331   -1.8279 H   0  0  0  0  0  0  0  0  0  0  0  0
    4.0708    2.0305    2.3043 H   0  0  0  0  0  0  0  0  0  0  0  0
   -5.6080    1.1908   -0.7427 H   0  0  0  0  0  0  0  0  0  0  0  0
    5.1921    2.3138    0.1099 H   0  0  0  0  0  0  0  0  0  0  0  0
  2  1  1  0
  3  1  2  0
  4  1  1  0
  5  2  1  0
  6  5  1  0
  7  4  2  0
  8  4  1  0
  9  6  2  0
 10  6  1  0
 11  7  1  0
 12  8  2  0
 13  9  1  0
 14 10  2  0
 15 12  1  0
 16 14  1  0
 15 11  2  0
 16 13  2  0
  5 17  1  0
  5 18  1  0
  7 19  1  0
  8 20  1  0
  9 21  1  0
 10 22  1  0
 11 23  1  0
 12 24  1  0
 13 25  1  0
 14 26  1  0
 15 27  1  0
 16 28  1  0
M  END
$$$$
