
     RDKit          3D

 43 40  0  0  0  0  0  0  0  0999 V2000
   47.4152    1.9356    6.3147 S   0  0  0  0  0  0  0  0  0  0  0  0
   46.7226    0.6705    6.5475 O   0  0  0  0  0  0  0  0  0  0  0  0
   48.5841    2.1671    7.1609 O   0  0  0  0  0  0  0  0  0  0  0  0
   47.5949    2.2899    4.9087 O   0  0  0  0  0  0  0  0  0  0  0  0
   43.7092    4.6783   10.8657 C   0  0  0  0  0  0  0  0  0  0  0  0
   42.9802    5.4747   10.2829 O   0  0  0  0  0  0  0  0  0  0  0  0
   46.2510    3.1542    6.8832 C   0  0  0  0  0  0  0  0  0  0  0  0
   44.6721    3.9169   10.2482 N   0  0  0  0  0  0  0  0  0  0  0  0
   45.9055    2.9752    8.3546 C   0  0  0  0  0  0  0  0  0  0  0  0
   44.9793    4.0785    8.8398 C   0  0  0  0  0  0  0  0  0  0  0  0
   43.5937    4.4362   12.3471 C   0  0  0  0  0  0  0  0  0  0  0  0
   43.3215    3.5980   12.1502 S   0  0  0  0  0  0  0  0  0  0  0  0
   43.6426    4.0798   13.4915 O   0  0  0  0  0  0  0  0  0  0  0  0
   42.2946    4.3654   11.4495 O   0  0  0  0  0  0  0  0  0  0  0  0
   43.2001    2.1463   12.0314 O   0  0  0  0  0  0  0  0  0  0  0  0
   46.9077    3.5896    6.7543 C   0  0  0  0  0  0  0  0  0  0  0  0
   47.9281    4.2185    7.0150 O   0  0  0  0  0  0  0  0  0  0  0  0
   44.8032    3.9597   11.2351 C   0  0  0  0  0  0  0  0  0  0  0  0
   45.8946    3.3510    7.6519 N   0  0  0  0  0  0  0  0  0  0  0  0
   44.6903    3.5456    9.7746 C   0  0  0  0  0  0  0  0  0  0  0  0
   46.0022    3.7627    9.0387 C   0  0  0  0  0  0  0  0  0  0  0  0
   46.6707    2.9893    5.3943 C   0  0  0  0  0  0  0  0  0  0  0  0
   45.2879    3.4603    8.9996 Ca  0  0  0  0  0 15  0  0  0  0  0  0
   45.3551    3.0661    6.2595 H   0  0  0  0  0  0  0  0  0  0  0  0
   46.7025    4.1362    6.7047 H   0  0  0  0  0  0  0  0  0  0  0  0
   45.3489    3.4242   10.8166 H   0  0  0  0  0  0  0  0  0  0  0  0
   45.4329    1.9985    8.5163 H   0  0  0  0  0  0  0  0  0  0  0  0
   46.8199    2.9752    8.9606 H   0  0  0  0  0  0  0  0  0  0  0  0
   44.0395    4.0817    8.2761 H   0  0  0  0  0  0  0  0  0  0  0  0
   45.4469    5.0623    8.7178 H   0  0  0  0  0  0  0  0  0  0  0  0
   44.4543    3.8857   12.7372 H   0  0  0  0  0  0  0  0  0  0  0  0
   43.5424    5.3994   12.8636 H   0  0  0  0  0  0  0  0  0  0  0  0
   42.6851    3.8612   12.5453 H   0  0  0  0  0  0  0  0  0  0  0  0
   45.6233    3.4289   11.7301 H   0  0  0  0  0  0  0  0  0  0  0  0
   44.9855    5.0360   11.3207 H   0  0  0  0  0  0  0  0  0  0  0  0
   45.2144    2.6332    7.4348 H   0  0  0  0  0  0  0  0  0  0  0  0
   44.4027    2.4895    9.7013 H   0  0  0  0  0  0  0  0  0  0  0  0
   43.8913    4.1134    9.2818 H   0  0  0  0  0  0  0  0  0  0  0  0
   46.3004    4.8170    9.0645 H   0  0  0  0  0  0  0  0  0  0  0  0
   46.8078    3.1761    9.4941 H   0  0  0  0  0  0  0  0  0  0  0  0
   47.3042    2.1059    5.2776 H   0  0  0  0  0  0  0  0  0  0  0  0
   46.9224    3.7284    4.6284 H   0  0  0  0  0  0  0  0  0  0  0  0
   45.6249    2.6997    5.2579 H   0  0  0  0  0  0  0  0  0  0  0  0
  2  1  1  0
  3  1  2  0
  4  1  2  0
  5  8  1  0
  6  5  2  0
  7  1  1  0
  8 10  1  0
  9  7  1  0
 10  9  1  0
 11  5  1  0
 13 12  1  0
 14 12  2  0
 15 12  2  0
 16 19  1  0
 17 16  2  0
 18 12  1  0
 19 21  1  0
 20 18  1  0
 21 20  1  0
 22 16  1  0
  7 24  1  0
  7 25  1  0
  8 26  1  0
  9 27  1  0
  9 28  1  0
 10 29  1  0
 10 30  1  0
 11 31  1  0
 11 32  1  0
 11 33  1  0
 18 34  1  0
 18 35  1  0
 19 36  1  0
 20 37  1  0
 20 38  1  0
 21 39  1  0
 21 40  1  0
 22 41  1  0
 22 42  1  0
 22 43  1  0
M  CHG  3   2  -1  13  -1  23   2
M  END
> <Uni-Dock RESULT> 
ENERGY=   -4.819  LOWER_BOUND=    0.000  UPPER_BOUND=    0.000
INTER + INTRA:          -4.819
INTER:                  -4.819
INTRA:                   0.000
UNBOUND:                 0.000

$$$$

     RDKit          3D

 43 40  0  0  0  0  0  0  0  0999 V2000
   49.0874    8.1105   12.7599 S   0  0  0  0  0  0  0  0  0  0  0  0
   49.1465    8.0548   11.3012 O   0  0  0  0  0  0  0  0  0  0  0  0
   49.7485    7.0045   13.4497 O   0  0  0  0  0  0  0  0  0  0  0  0
   49.3350    9.4299   13.3364 O   0  0  0  0  0  0  0  0  0  0  0  0
   43.6472    4.5982   12.5660 C   0  0  0  0  0  0  0  0  0  0  0  0
   42.7442    5.3405   12.9386 O   0  0  0  0  0  0  0  0  0  0  0  0
   47.3651    7.8420   13.1136 C   0  0  0  0  0  0  0  0  0  0  0  0
   44.9705    4.9629   12.5011 N   0  0  0  0  0  0  0  0  0  0  0  0
   46.8744    6.4994   12.5909 C   0  0  0  0  0  0  0  0  0  0  0  0
   45.4260    6.2537   12.9811 C   0  0  0  0  0  0  0  0  0  0  0  0
   43.3768    3.1899   12.1076 C   0  0  0  0  0  0  0  0  0  0  0  0
   43.6416    3.4480   11.2837 S   0  0  0  0  0  0  0  0  0  0  0  0
   43.3717    2.0685   11.6817 O   0  0  0  0  0  0  0  0  0  0  0  0
   42.5338    4.3773   11.4931 O   0  0  0  0  0  0  0  0  0  0  0  0
   44.3412    3.5941   10.0088 O   0  0  0  0  0  0  0  0  0  0  0  0
   47.6979    7.8064   13.8385 C   0  0  0  0  0  0  0  0  0  0  0  0
   48.1455    7.3042   14.8642 O   0  0  0  0  0  0  0  0  0  0  0  0
   44.8521    3.9738   12.4760 C   0  0  0  0  0  0  0  0  0  0  0  0
   46.8095    7.1832   12.9950 N   0  0  0  0  0  0  0  0  0  0  0  0
   45.2811    5.4181   12.2586 C   0  0  0  0  0  0  0  0  0  0  0  0
   46.3927    5.8117   13.2173 C   0  0  0  0  0  0  0  0  0  0  0  0
   48.1037    9.1837   13.3862 C   0  0  0  0  0  0  0  0  0  0  0  0
   45.9763    6.0240   12.5971 Ca  0  0  0  0  0 15  0  0  0  0  0  0
   46.8056    8.6654   12.6572 H   0  0  0  0  0  0  0  0  0  0  0  0
   47.2481    7.9041   14.2010 H   0  0  0  0  0  0  0  0  0  0  0  0
   45.6717    4.2471   12.3603 H   0  0  0  0  0  0  0  0  0  0  0  0
   46.9748    6.4587   11.4992 H   0  0  0  0  0  0  0  0  0  0  0  0
   47.4998    5.6887   12.9846 H   0  0  0  0  0  0  0  0  0  0  0  0
   44.7695    7.0296   12.5714 H   0  0  0  0  0  0  0  0  0  0  0  0
   45.3096    6.2571   14.0710 H   0  0  0  0  0  0  0  0  0  0  0  0
   44.2964    2.6022   12.0363 H   0  0  0  0  0  0  0  0  0  0  0  0
   42.7145    2.7007   12.8280 H   0  0  0  0  0  0  0  0  0  0  0  0
   42.8977    3.2198   11.1252 H   0  0  0  0  0  0  0  0  0  0  0  0
   45.7062    3.2943   12.3867 H   0  0  0  0  0  0  0  0  0  0  0  0
   44.4096    3.8454   13.4693 H   0  0  0  0  0  0  0  0  0  0  0  0
   46.6794    7.5603   12.0645 H   0  0  0  0  0  0  0  0  0  0  0  0
   45.6240    5.5603   11.2263 H   0  0  0  0  0  0  0  0  0  0  0  0
   44.4240    6.0904   12.3898 H   0  0  0  0  0  0  0  0  0  0  0  0
   46.0693    5.7130   14.2598 H   0  0  0  0  0  0  0  0  0  0  0  0
   47.2729    5.1741   13.0785 H   0  0  0  0  0  0  0  0  0  0  0  0
   49.1189    9.1432   12.9822 H   0  0  0  0  0  0  0  0  0  0  0  0
   48.0733    9.8645   14.2417 H   0  0  0  0  0  0  0  0  0  0  0  0
   47.4285    9.5713   12.6180 H   0  0  0  0  0  0  0  0  0  0  0  0
  2  1  1  0
  3  1  2  0
  4  1  2  0
  5  8  1  0
  6  5  2  0
  7  1  1  0
  8 10  1  0
  9  7  1  0
 10  9  1  0
 11  5  1  0
 13 12  1  0
 14 12  2  0
 15 12  2  0
 16 19  1  0
 17 16  2  0
 18 12  1  0
 19 21  1  0
 20 18  1  0
 21 20  1  0
 22 16  1  0
  7 24  1  0
  7 25  1  0
  8 26  1  0
  9 27  1  0
  9 28  1  0
 10 29  1  0
 10 30  1  0
 11 31  1  0
 11 32  1  0
 11 33  1  0
 18 34  1  0
 18 35  1  0
 19 36  1  0
 20 37  1  0
 20 38  1  0
 21 39  1  0
 21 40  1  0
 22 41  1  0
 22 42  1  0
 22 43  1  0
M  CHG  3   2  -1  13  -1  23   2
M  END
> <Uni-Dock RESULT> 
ENERGY=   -4.626  LOWER_BOUND=    4.275  UPPER_BOUND=    6.063
INTER + INTRA:          -4.626
INTER:                  -4.626
INTRA:                   0.000
UNBOUND:                 0.000

$$$$

     RDKit          3D

 43 40  0  0  0  0  0  0  0  0999 V2000
   43.6340    3.7428   11.0999 S   0  0  0  0  0  0  0  0  0  0  0  0
   44.5675    3.5434    9.9939 O   0  0  0  0  0  0  0  0  0  0  0  0
   42.8585    4.9802   11.0409 O   0  0  0  0  0  0  0  0  0  0  0  0
   42.8710    2.5573   11.4832 O   0  0  0  0  0  0  0  0  0  0  0  0
   48.2768    6.9297   14.3024 C   0  0  0  0  0  0  0  0  0  0  0  0
   48.5790    6.2266   15.2614 O   0  0  0  0  0  0  0  0  0  0  0  0
   44.7011    3.9953   12.5002 C   0  0  0  0  0  0  0  0  0  0  0  0
   47.2957    6.6163   13.3928 N   0  0  0  0  0  0  0  0  0  0  0  0
   45.6099    5.2026   12.3188 C   0  0  0  0  0  0  0  0  0  0  0  0
   46.4488    5.4509   13.5618 C   0  0  0  0  0  0  0  0  0  0  0  0
   48.9915    8.2225   14.0115 C   0  0  0  0  0  0  0  0  0  0  0  0
   49.3057    7.8349   13.2587 S   0  0  0  0  0  0  0  0  0  0  0  0
   49.4470    9.2502   13.5927 O   0  0  0  0  0  0  0  0  0  0  0  0
   49.8380    6.9105   14.2569 O   0  0  0  0  0  0  0  0  0  0  0  0
   49.6176    7.4969   11.8715 O   0  0  0  0  0  0  0  0  0  0  0  0
   43.9815    4.1721   12.7973 C   0  0  0  0  0  0  0  0  0  0  0  0
   43.0483    4.8658   13.1882 O   0  0  0  0  0  0  0  0  0  0  0  0
   47.5482    7.5796   13.3556 C   0  0  0  0  0  0  0  0  0  0  0  0
   45.2861    4.5985   12.7253 N   0  0  0  0  0  0  0  0  0  0  0  0
   47.1606    6.1393   13.0512 C   0  0  0  0  0  0  0  0  0  0  0  0
   45.6506    5.9686   13.0323 C   0  0  0  0  0  0  0  0  0  0  0  0
   43.7769    2.7554   12.3313 C   0  0  0  0  0  0  0  0  0  0  0  0
   46.3353    5.6328   12.8858 Ca  0  0  0  0  0 15  0  0  0  0  0  0
   45.2899    3.0812   12.6313 H   0  0  0  0  0  0  0  0  0  0  0  0
   44.0556    4.1206   13.3763 H   0  0  0  0  0  0  0  0  0  0  0  0
   46.9835    7.3256   12.7421 H   0  0  0  0  0  0  0  0  0  0  0  0
   46.2673    5.0548   11.4530 H   0  0  0  0  0  0  0  0  0  0  0  0
   45.0127    6.0960   12.0986 H   0  0  0  0  0  0  0  0  0  0  0  0
   47.0848    4.5876   13.7881 H   0  0  0  0  0  0  0  0  0  0  0  0
   45.8100    5.6344   14.4334 H   0  0  0  0  0  0  0  0  0  0  0  0
   48.4539    8.8273   13.2758 H   0  0  0  0  0  0  0  0  0  0  0  0
   49.0721    8.8021   14.9360 H   0  0  0  0  0  0  0  0  0  0  0  0
   49.9901    7.9996   13.6260 H   0  0  0  0  0  0  0  0  0  0  0  0
   47.0843    8.2688   12.6420 H   0  0  0  0  0  0  0  0  0  0  0  0
   47.2321    7.8617   14.3653 H   0  0  0  0  0  0  0  0  0  0  0  0
   45.9424    4.0583   12.1752 H   0  0  0  0  0  0  0  0  0  0  0  0
   47.5734    5.8325   12.0822 H   0  0  0  0  0  0  0  0  0  0  0  0
   47.5999    5.4645   13.7965 H   0  0  0  0  0  0  0  0  0  0  0  0
   45.2102    6.2353   13.9998 H   0  0  0  0  0  0  0  0  0  0  0  0
   45.1941    6.6089   12.2692 H   0  0  0  0  0  0  0  0  0  0  0  0
   43.3077    2.7677   11.3438 H   0  0  0  0  0  0  0  0  0  0  0  0
   43.1286    2.2352   13.0421 H   0  0  0  0  0  0  0  0  0  0  0  0
   44.7230    2.2101   12.2706 H   0  0  0  0  0  0  0  0  0  0  0  0
  2  1  1  0
  3  1  2  0
  4  1  2  0
  5  8  1  0
  6  5  2  0
  7  1  1  0
  8 10  1  0
  9  7  1  0
 10  9  1  0
 11  5  1  0
 13 12  1  0
 14 12  2  0
 15 12  2  0
 16 19  1  0
 17 16  2  0
 18 12  1  0
 19 21  1  0
 20 18  1  0
 21 20  1  0
 22 16  1  0
  7 24  1  0
  7 25  1  0
  8 26  1  0
  9 27  1  0
  9 28  1  0
 10 29  1  0
 10 30  1  0
 11 31  1  0
 11 32  1  0
 11 33  1  0
 18 34  1  0
 18 35  1  0
 19 36  1  0
 20 37  1  0
 20 38  1  0
 21 39  1  0
 21 40  1  0
 22 41  1  0
 22 42  1  0
 22 43  1  0
M  CHG  3   2  -1  13  -1  23   2
M  END
> <Uni-Dock RESULT> 
ENERGY=   -4.615  LOWER_BOUND=    4.332  UPPER_BOUND=    6.501
INTER + INTRA:          -4.615
INTER:                  -4.615
INTRA:                   0.000
UNBOUND:                 0.000

$$$$

     RDKit          3D

 43 40  0  0  0  0  0  0  0  0999 V2000
   43.3035    4.3784   12.4460 S   0  0  0  0  0  0  0  0  0  0  0  0
   42.6679    5.6556   12.7607 O   0  0  0  0  0  0  0  0  0  0  0  0
   43.4893    3.4813   13.5848 O   0  0  0  0  0  0  0  0  0  0  0  0
   42.8190    3.7328   11.2282 O   0  0  0  0  0  0  0  0  0  0  0  0
   49.0624    7.0468   13.7434 C   0  0  0  0  0  0  0  0  0  0  0  0
   49.6622    7.1088   12.6749 O   0  0  0  0  0  0  0  0  0  0  0  0
   44.9658    4.8400   12.0135 C   0  0  0  0  0  0  0  0  0  0  0  0
   47.8088    6.5050   13.8959 N   0  0  0  0  0  0  0  0  0  0  0  0
   45.6807    5.5470   13.1561 C   0  0  0  0  0  0  0  0  0  0  0  0
   47.1253    5.8527   12.7952 C   0  0  0  0  0  0  0  0  0  0  0  0
   49.6501    7.5984   15.0150 C   0  0  0  0  0  0  0  0  0  0  0  0
   48.9872    8.2117   15.0102 S   0  0  0  0  0  0  0  0  0  0  0  0
   49.9208    7.9975   16.1133 O   0  0  0  0  0  0  0  0  0  0  0  0
   49.6121    8.5087   13.7234 O   0  0  0  0  0  0  0  0  0  0  0  0
   47.8249    9.0340   15.3398 O   0  0  0  0  0  0  0  0  0  0  0  0
   45.0106    4.0435   12.0456 C   0  0  0  0  0  0  0  0  0  0  0  0
   45.2720    2.9335   12.4975 O   0  0  0  0  0  0  0  0  0  0  0  0
   48.2871    6.5951   14.7654 C   0  0  0  0  0  0  0  0  0  0  0  0
   45.6316    5.2052   12.4379 N   0  0  0  0  0  0  0  0  0  0  0  0
   47.2732    6.5754   13.6302 C   0  0  0  0  0  0  0  0  0  0  0  0
   46.6088    5.2139   13.5099 C   0  0  0  0  0  0  0  0  0  0  0  0
   43.9440    4.2451   11.0025 C   0  0  0  0  0  0  0  0  0  0  0  0
   46.6060    5.9519   13.2680 Ca  0  0  0  0  0 15  0  0  0  0  0  0
   44.9063    5.4871   11.1319 H   0  0  0  0  0  0  0  0  0  0  0  0
   45.4911    3.9203   11.7337 H   0  0  0  0  0  0  0  0  0  0  0  0
   47.4604    6.3262   14.8289 H   0  0  0  0  0  0  0  0  0  0  0  0
   45.1588    6.4777   13.4109 H   0  0  0  0  0  0  0  0  0  0  0  0
   45.6552    4.9262   14.0601 H   0  0  0  0  0  0  0  0  0  0  0  0
   47.1835    6.5023   11.9146 H   0  0  0  0  0  0  0  0  0  0  0  0
   47.6743    4.9314   12.5692 H   0  0  0  0  0  0  0  0  0  0  0  0
   49.1014    7.2576   15.8975 H   0  0  0  0  0  0  0  0  0  0  0  0
   50.6865    7.2595   15.1059 H   0  0  0  0  0  0  0  0  0  0  0  0
   49.6197    8.6907   14.9781 H   0  0  0  0  0  0  0  0  0  0  0  0
   47.8208    6.3011   15.7117 H   0  0  0  0  0  0  0  0  0  0  0  0
   49.1147    5.9084   14.5590 H   0  0  0  0  0  0  0  0  0  0  0  0
   45.1999    6.0894   12.1994 H   0  0  0  0  0  0  0  0  0  0  0  0
   46.5053    7.3415   13.7946 H   0  0  0  0  0  0  0  0  0  0  0  0
   47.7624    6.8334   12.6825 H   0  0  0  0  0  0  0  0  0  0  0  0
   47.3477    4.4294   13.3109 H   0  0  0  0  0  0  0  0  0  0  0  0
   46.0838    4.9518   14.4353 H   0  0  0  0  0  0  0  0  0  0  0  0
   42.9614    4.1505   11.4724 H   0  0  0  0  0  0  0  0  0  0  0  0
   44.0564    3.4846   10.2245 H   0  0  0  0  0  0  0  0  0  0  0  0
   44.0216    5.2289   10.5311 H   0  0  0  0  0  0  0  0  0  0  0  0
  2  1  1  0
  3  1  2  0
  4  1  2  0
  5  8  1  0
  6  5  2  0
  7  1  1  0
  8 10  1  0
  9  7  1  0
 10  9  1  0
 11  5  1  0
 13 12  1  0
 14 12  2  0
 15 12  2  0
 16 19  1  0
 17 16  2  0
 18 12  1  0
 19 21  1  0
 20 18  1  0
 21 20  1  0
 22 16  1  0
  7 24  1  0
  7 25  1  0
  8 26  1  0
  9 27  1  0
  9 28  1  0
 10 29  1  0
 10 30  1  0
 11 31  1  0
 11 32  1  0
 11 33  1  0
 18 34  1  0
 18 35  1  0
 19 36  1  0
 20 37  1  0
 20 38  1  0
 21 39  1  0
 21 40  1  0
 22 41  1  0
 22 42  1  0
 22 43  1  0
M  CHG  3   2  -1  13  -1  23   2
M  END
> <Uni-Dock RESULT> 
ENERGY=   -4.190  LOWER_BOUND=    4.692  UPPER_BOUND=    6.803
INTER + INTRA:          -4.190
INTER:                  -4.190
INTRA:                   0.000
UNBOUND:                 0.000

$$$$

     RDKit          3D

 43 40  0  0  0  0  0  0  0  0999 V2000
   49.3910    8.1427   14.0585 S   0  0  0  0  0  0  0  0  0  0  0  0
   49.1874    7.1781   15.1366 O   0  0  0  0  0  0  0  0  0  0  0  0
   48.6498    9.3945   14.1987 O   0  0  0  0  0  0  0  0  0  0  0  0
   50.7769    8.2950   13.6219 O   0  0  0  0  0  0  0  0  0  0  0  0
   44.3000    5.5973   10.9648 C   0  0  0  0  0  0  0  0  0  0  0  0
   44.7455    5.0458    9.9635 O   0  0  0  0  0  0  0  0  0  0  0  0
   48.6191    7.3649   12.6576 C   0  0  0  0  0  0  0  0  0  0  0  0
   45.0659    6.2903   11.8711 N   0  0  0  0  0  0  0  0  0  0  0  0
   47.1385    7.1009   12.8914 C   0  0  0  0  0  0  0  0  0  0  0  0
   46.4815    6.5178   11.6509 C   0  0  0  0  0  0  0  0  0  0  0  0
   42.8371    5.5406   11.3158 C   0  0  0  0  0  0  0  0  0  0  0  0
   43.0691    5.0546   12.0408 S   0  0  0  0  0  0  0  0  0  0  0  0
   41.7336    5.5881   11.7838 O   0  0  0  0  0  0  0  0  0  0  0  0
   43.6042    4.1990   10.9843 O   0  0  0  0  0  0  0  0  0  0  0  0
   43.2851    4.5680   13.4019 O   0  0  0  0  0  0  0  0  0  0  0  0
   48.7790    8.0970   12.3823 C   0  0  0  0  0  0  0  0  0  0  0  0
   48.5738    9.2586   12.0455 O   0  0  0  0  0  0  0  0  0  0  0  0
   44.0965    6.5041   11.9578 C   0  0  0  0  0  0  0  0  0  0  0  0
   47.8061    7.1291   12.4571 N   0  0  0  0  0  0  0  0  0  0  0  0
   45.5658    6.1792   12.1876 C   0  0  0  0  0  0  0  0  0  0  0  0
   46.4096    7.4427   12.2211 C   0  0  0  0  0  0  0  0  0  0  0  0
   50.1504    7.6138   12.7719 C   0  0  0  0  0  0  0  0  0  0  0  0
   46.4005    6.6750   12.3378 Ca  0  0  0  0  0 15  0  0  0  0  0  0
   49.1557    6.4296   12.4664 H   0  0  0  0  0  0  0  0  0  0  0  0
   48.7664    8.0306   11.8002 H   0  0  0  0  0  0  0  0  0  0  0  0
   44.6065    6.8658   12.5651 H   0  0  0  0  0  0  0  0  0  0  0  0
   47.0053    6.4148   13.7370 H   0  0  0  0  0  0  0  0  0  0  0  0
   46.6279    8.0309   13.1705 H   0  0  0  0  0  0  0  0  0  0  0  0
   46.9474    5.5675   11.3668 H   0  0  0  0  0  0  0  0  0  0  0  0
   46.5743    7.2040   10.8012 H   0  0  0  0  0  0  0  0  0  0  0  0
   42.5772    6.2653   12.0925 H   0  0  0  0  0  0  0  0  0  0  0  0
   42.2465    5.7701   10.4239 H   0  0  0  0  0  0  0  0  0  0  0  0
   42.5940    4.5359   11.6723 H   0  0  0  0  0  0  0  0  0  0  0  0
   43.7270    7.2027   12.7159 H   0  0  0  0  0  0  0  0  0  0  0  0
   43.9480    6.9538   10.9705 H   0  0  0  0  0  0  0  0  0  0  0  0
   48.0086    6.2774   12.9657 H   0  0  0  0  0  0  0  0  0  0  0  0
   45.6902    5.6337   13.1314 H   0  0  0  0  0  0  0  0  0  0  0  0
   45.9324    5.5102   11.3991 H   0  0  0  0  0  0  0  0  0  0  0  0
   46.3335    7.9942   11.2771 H   0  0  0  0  0  0  0  0  0  0  0  0
   46.0821    8.1104   13.0258 H   0  0  0  0  0  0  0  0  0  0  0  0
   50.3961    7.9974   13.7659 H   0  0  0  0  0  0  0  0  0  0  0  0
   50.8792    7.9808   12.0437 H   0  0  0  0  0  0  0  0  0  0  0  0
   50.2041    6.5215   12.7870 H   0  0  0  0  0  0  0  0  0  0  0  0
  2  1  1  0
  3  1  2  0
  4  1  2  0
  5  8  1  0
  6  5  2  0
  7  1  1  0
  8 10  1  0
  9  7  1  0
 10  9  1  0
 11  5  1  0
 13 12  1  0
 14 12  2  0
 15 12  2  0
 16 19  1  0
 17 16  2  0
 18 12  1  0
 19 21  1  0
 20 18  1  0
 21 20  1  0
 22 16  1  0
  7 24  1  0
  7 25  1  0
  8 26  1  0
  9 27  1  0
  9 28  1  0
 10 29  1  0
 10 30  1  0
 11 31  1  0
 11 32  1  0
 11 33  1  0
 18 34  1  0
 18 35  1  0
 19 36  1  0
 20 37  1  0
 20 38  1  0
 21 39  1  0
 21 40  1  0
 22 41  1  0
 22 42  1  0
 22 43  1  0
M  CHG  3   2  -1  13  -1  23   2
M  END
> <Uni-Dock RESULT> 
ENERGY=   -3.994  LOWER_BOUND=    4.686  UPPER_BOUND=    6.256
INTER + INTRA:          -3.994
INTER:                  -3.994
INTRA:                   0.000
UNBOUND:                 0.000

$$$$

     RDKit          3D

 43 40  0  0  0  0  0  0  0  0999 V2000
   43.4286    4.4120   12.0770 S   0  0  0  0  0  0  0  0  0  0  0  0
   43.3615    3.8925   13.4408 O   0  0  0  0  0  0  0  0  0  0  0  0
   44.3259    3.6858   11.1806 O   0  0  0  0  0  0  0  0  0  0  0  0
   42.1402    4.7773   11.4929 O   0  0  0  0  0  0  0  0  0  0  0  0
   48.4090    8.1512   13.8613 C   0  0  0  0  0  0  0  0  0  0  0  0
   48.0051    9.3088   13.8143 O   0  0  0  0  0  0  0  0  0  0  0  0
   44.2332    5.9860   12.2741 C   0  0  0  0  0  0  0  0  0  0  0  0
   47.6548    7.0549   13.5184 N   0  0  0  0  0  0  0  0  0  0  0  0
   45.6214    5.8486   12.8827 C   0  0  0  0  0  0  0  0  0  0  0  0
   46.3235    7.1946   12.9598 C   0  0  0  0  0  0  0  0  0  0  0  0
   49.7971    7.8151   14.3376 C   0  0  0  0  0  0  0  0  0  0  0  0
   49.4136    7.4037   15.0442 S   0  0  0  0  0  0  0  0  0  0  0  0
   50.8340    7.3397   14.7087 O   0  0  0  0  0  0  0  0  0  0  0  0
   48.8831    8.7533   15.2223 O   0  0  0  0  0  0  0  0  0  0  0  0
   48.9725    6.4277   16.0387 O   0  0  0  0  0  0  0  0  0  0  0  0
   44.2163    5.8988   11.4806 C   0  0  0  0  0  0  0  0  0  0  0  0
   44.6287    5.6557   10.3512 O   0  0  0  0  0  0  0  0  0  0  0  0
   48.6286    6.8459   13.5489 C   0  0  0  0  0  0  0  0  0  0  0  0
   45.0200    6.2440   12.5408 N   0  0  0  0  0  0  0  0  0  0  0  0
   47.1109    6.8425   13.6650 C   0  0  0  0  0  0  0  0  0  0  0  0
   46.4653    6.2606   12.4184 C   0  0  0  0  0  0  0  0  0  0  0  0
   42.7528    5.8231   11.8249 C   0  0  0  0  0  0  0  0  0  0  0  0
   46.3471    6.5101   13.1442 Ca  0  0  0  0  0 15  0  0  0  0  0  0
   43.5896    6.6047   12.9084 H   0  0  0  0  0  0  0  0  0  0  0  0
   44.2859    6.4452   11.2810 H   0  0  0  0  0  0  0  0  0  0  0  0
   48.1112    6.1583   13.4097 H   0  0  0  0  0  0  0  0  0  0  0  0
   45.5532    5.4096   13.8858 H   0  0  0  0  0  0  0  0  0  0  0  0
   46.2285    5.1552   12.2876 H   0  0  0  0  0  0  0  0  0  0  0  0
   45.7579    7.9002   13.5788 H   0  0  0  0  0  0  0  0  0  0  0  0
   46.4319    7.6358   11.9623 H   0  0  0  0  0  0  0  0  0  0  0  0
   50.0701    6.7834   14.0983 H   0  0  0  0  0  0  0  0  0  0  0  0
   50.5140    8.4802   13.8470 H   0  0  0  0  0  0  0  0  0  0  0  0
   49.8459    7.9528   15.4212 H   0  0  0  0  0  0  0  0  0  0  0  0
   49.0076    5.8389   13.3443 H   0  0  0  0  0  0  0  0  0  0  0  0
   48.9549    7.5095   12.7413 H   0  0  0  0  0  0  0  0  0  0  0  0
   44.6363    6.1919   13.4763 H   0  0  0  0  0  0  0  0  0  0  0  0
   46.7991    6.2607   14.5413 H   0  0  0  0  0  0  0  0  0  0  0  0
   46.7426    7.8627   13.8306 H   0  0  0  0  0  0  0  0  0  0  0  0
   46.7305    6.8415   11.5277 H   0  0  0  0  0  0  0  0  0  0  0  0
   46.7930    5.2280   12.2539 H   0  0  0  0  0  0  0  0  0  0  0  0
   42.4537    4.7734   11.8881 H   0  0  0  0  0  0  0  0  0  0  0  0
   42.1752    6.3256   11.0437 H   0  0  0  0  0  0  0  0  0  0  0  0
   42.5366    6.3144   12.7779 H   0  0  0  0  0  0  0  0  0  0  0  0
  2  1  1  0
  3  1  2  0
  4  1  2  0
  5  8  1  0
  6  5  2  0
  7  1  1  0
  8 10  1  0
  9  7  1  0
 10  9  1  0
 11  5  1  0
 13 12  1  0
 14 12  2  0
 15 12  2  0
 16 19  1  0
 17 16  2  0
 18 12  1  0
 19 21  1  0
 20 18  1  0
 21 20  1  0
 22 16  1  0
  7 24  1  0
  7 25  1  0
  8 26  1  0
  9 27  1  0
  9 28  1  0
 10 29  1  0
 10 30  1  0
 11 31  1  0
 11 32  1  0
 11 33  1  0
 18 34  1  0
 18 35  1  0
 19 36  1  0
 20 37  1  0
 20 38  1  0
 21 39  1  0
 21 40  1  0
 22 41  1  0
 22 42  1  0
 22 43  1  0
M  CHG  3   2  -1  13  -1  23   2
M  END
> <Uni-Dock RESULT> 
ENERGY=   -3.977  LOWER_BOUND=    4.722  UPPER_BOUND=    6.752
INTER + INTRA:          -3.977
INTER:                  -3.977
INTRA:                   0.000
UNBOUND:                 0.000

$$$$

     RDKit          3D

 43 40  0  0  0  0  0  0  0  0999 V2000
   47.7519   10.6385   12.3684 S   0  0  0  0  0  0  0  0  0  0  0  0
   46.4751   11.3477   12.4037 O   0  0  0  0  0  0  0  0  0  0  0  0
   48.2101   10.2531   11.0352 O   0  0  0  0  0  0  0  0  0  0  0  0
   48.7876   11.1911   13.2381 O   0  0  0  0  0  0  0  0  0  0  0  0
   44.5272    5.0337   12.7646 C   0  0  0  0  0  0  0  0  0  0  0  0
   44.7941    4.5594   13.8642 O   0  0  0  0  0  0  0  0  0  0  0  0
   47.3795    9.0795   13.1394 C   0  0  0  0  0  0  0  0  0  0  0  0
   45.0481    6.2107   12.2833 N   0  0  0  0  0  0  0  0  0  0  0  0
   46.2996    8.3122   12.3901 C   0  0  0  0  0  0  0  0  0  0  0  0
   46.0610    6.9473   13.0151 C   0  0  0  0  0  0  0  0  0  0  0  0
   43.5571    4.3648   11.8275 C   0  0  0  0  0  0  0  0  0  0  0  0
   43.0132    5.0762   11.9440 S   0  0  0  0  0  0  0  0  0  0  0  0
   42.8036    4.0148   10.9623 O   0  0  0  0  0  0  0  0  0  0  0  0
   43.1298    4.6213   13.3275 O   0  0  0  0  0  0  0  0  0  0  0  0
   42.1857    6.2651   11.7497 O   0  0  0  0  0  0  0  0  0  0  0  0
   48.1171    8.9610   12.8576 C   0  0  0  0  0  0  0  0  0  0  0  0
   49.0002    8.5553   12.1091 O   0  0  0  0  0  0  0  0  0  0  0  0
   44.6515    5.6521   11.5597 C   0  0  0  0  0  0  0  0  0  0  0  0
   46.8622    8.4072   12.9463 N   0  0  0  0  0  0  0  0  0  0  0  0
   45.0959    6.7758   12.4854 C   0  0  0  0  0  0  0  0  0  0  0  0
   46.4509    7.3258   12.0715 C   0  0  0  0  0  0  0  0  0  0  0  0
   48.3251   10.1466   13.7616 C   0  0  0  0  0  0  0  0  0  0  0  0
   45.8360    7.4198   12.5364 Ca  0  0  0  0  0 15  0  0  0  0  0  0
   47.0653    9.2901   14.1672 H   0  0  0  0  0  0  0  0  0  0  0  0
   48.3132    8.5076   13.1726 H   0  0  0  0  0  0  0  0  0  0  0  0
   44.9239    6.4402   11.3056 H   0  0  0  0  0  0  0  0  0  0  0  0
   45.3636    8.8845   12.3842 H   0  0  0  0  0  0  0  0  0  0  0  0
   46.5858    8.1858   11.3386 H   0  0  0  0  0  0  0  0  0  0  0  0
   45.7383    7.0415   14.0581 H   0  0  0  0  0  0  0  0  0  0  0  0
   46.9773    6.3460   13.0005 H   0  0  0  0  0  0  0  0  0  0  0  0
   43.6121    4.7837   10.8188 H   0  0  0  0  0  0  0  0  0  0  0  0
   43.7957    3.2987   11.7676 H   0  0  0  0  0  0  0  0  0  0  0  0
   42.5417    4.4959   12.2113 H   0  0  0  0  0  0  0  0  0  0  0  0
   44.6372    5.9868   10.5170 H   0  0  0  0  0  0  0  0  0  0  0  0
   45.3266    4.7937   11.6388 H   0  0  0  0  0  0  0  0  0  0  0  0
   46.1294    8.9388   13.3995 H   0  0  0  0  0  0  0  0  0  0  0  0
   44.3570    7.5867   12.4791 H   0  0  0  0  0  0  0  0  0  0  0  0
   45.1434    6.4156   13.5207 H   0  0  0  0  0  0  0  0  0  0  0  0
   47.2200    6.5456   12.1005 H   0  0  0  0  0  0  0  0  0  0  0  0
   46.4163    7.7235   11.0511 H   0  0  0  0  0  0  0  0  0  0  0  0
   48.3062   11.0611   13.1628 H   0  0  0  0  0  0  0  0  0  0  0  0
   49.2942   10.0509   14.2596 H   0  0  0  0  0  0  0  0  0  0  0  0
   47.5508   10.2075   14.5317 H   0  0  0  0  0  0  0  0  0  0  0  0
  2  1  1  0
  3  1  2  0
  4  1  2  0
  5  8  1  0
  6  5  2  0
  7  1  1  0
  8 10  1  0
  9  7  1  0
 10  9  1  0
 11  5  1  0
 13 12  1  0
 14 12  2  0
 15 12  2  0
 16 19  1  0
 17 16  2  0
 18 12  1  0
 19 21  1  0
 20 18  1  0
 21 20  1  0
 22 16  1  0
  7 24  1  0
  7 25  1  0
  8 26  1  0
  9 27  1  0
  9 28  1  0
 10 29  1  0
 10 30  1  0
 11 31  1  0
 11 32  1  0
 11 33  1  0
 18 34  1  0
 18 35  1  0
 19 36  1  0
 20 37  1  0
 20 38  1  0
 21 39  1  0
 21 40  1  0
 22 41  1  0
 22 42  1  0
 22 43  1  0
M  CHG  3   2  -1  13  -1  23   2
M  END
> <Uni-Dock RESULT> 
ENERGY=   -3.790  LOWER_BOUND=    4.956  UPPER_BOUND=    6.805
INTER + INTRA:          -3.790
INTER:                  -3.790
INTRA:                   0.000
UNBOUND:                 0.000

$$$$

     RDKit          3D

 43 40  0  0  0  0  0  0  0  0999 V2000
   43.7925   11.5904   10.1071 S   0  0  0  0  0  0  0  0  0  0  0  0
   44.8967   11.5931    9.1505 O   0  0  0  0  0  0  0  0  0  0  0  0
   43.9809   12.4505   11.2736 O   0  0  0  0  0  0  0  0  0  0  0  0
   42.4603   11.6483    9.5100 O   0  0  0  0  0  0  0  0  0  0  0  0
   46.7212    6.7816   13.3112 C   0  0  0  0  0  0  0  0  0  0  0  0
   46.0163    5.7885   13.1620 O   0  0  0  0  0  0  0  0  0  0  0  0
   43.8460    9.9510   10.7947 C   0  0  0  0  0  0  0  0  0  0  0  0
   46.4212    8.0249   12.8088 N   0  0  0  0  0  0  0  0  0  0  0  0
   45.1730    9.6596   11.4808 C   0  0  0  0  0  0  0  0  0  0  0  0
   45.1633    8.2881   12.1362 C   0  0  0  0  0  0  0  0  0  0  0  0
   48.0283    6.7208   14.0557 C   0  0  0  0  0  0  0  0  0  0  0  0
   48.4390    6.9039   13.2725 S   0  0  0  0  0  0  0  0  0  0  0  0
   49.0977    6.8770   14.5763 O   0  0  0  0  0  0  0  0  0  0  0  0
   47.7436    5.6717   12.9083 O   0  0  0  0  0  0  0  0  0  0  0  0
   49.2230    7.5138   12.2005 O   0  0  0  0  0  0  0  0  0  0  0  0
   43.3121   10.3170   11.2620 C   0  0  0  0  0  0  0  0  0  0  0  0
   42.8631   10.8844   12.2526 O   0  0  0  0  0  0  0  0  0  0  0  0
   47.1158    8.0659   13.5222 C   0  0  0  0  0  0  0  0  0  0  0  0
   44.4201    9.5037   11.2713 N   0  0  0  0  0  0  0  0  0  0  0  0
   46.2685    8.2474   12.2706 C   0  0  0  0  0  0  0  0  0  0  0  0
   45.2137    9.3228   12.4719 C   0  0  0  0  0  0  0  0  0  0  0  0
   42.6843   10.4760    9.9031 C   0  0  0  0  0  0  0  0  0  0  0  0
   45.5580    8.8506   11.9604 Ca  0  0  0  0  0 15  0  0  0  0  0  0
   43.6689    9.2469    9.9747 H   0  0  0  0  0  0  0  0  0  0  0  0
   43.0145    9.8738   11.5037 H   0  0  0  0  0  0  0  0  0  0  0  0
   46.9535    8.8250   13.1258 H   0  0  0  0  0  0  0  0  0  0  0  0
   45.9944    9.7167   10.7559 H   0  0  0  0  0  0  0  0  0  0  0  0
   45.3825   10.4238   12.2394 H   0  0  0  0  0  0  0  0  0  0  0  0
   44.9914    7.4980   11.3966 H   0  0  0  0  0  0  0  0  0  0  0  0
   44.3695    8.2211   12.8891 H   0  0  0  0  0  0  0  0  0  0  0  0
   48.4063    7.7187   14.2951 H   0  0  0  0  0  0  0  0  0  0  0  0
   47.8800    6.1781   14.9942 H   0  0  0  0  0  0  0  0  0  0  0  0
   48.7663    6.2001   13.4396 H   0  0  0  0  0  0  0  0  0  0  0  0
   47.5741    9.0133   13.8252 H   0  0  0  0  0  0  0  0  0  0  0  0
   46.5069    7.6943   14.3529 H   0  0  0  0  0  0  0  0  0  0  0  0
   44.8591    9.2736   10.3885 H   0  0  0  0  0  0  0  0  0  0  0  0
   46.9045    8.5169   11.4183 H   0  0  0  0  0  0  0  0  0  0  0  0
   45.7846    7.3001   12.0016 H   0  0  0  0  0  0  0  0  0  0  0  0
   44.5395    9.0659   13.2969 H   0  0  0  0  0  0  0  0  0  0  0  0
   45.6780   10.2869   12.7074 H   0  0  0  0  0  0  0  0  0  0  0  0
   42.9304   11.4655    9.5087 H   0  0  0  0  0  0  0  0  0  0  0  0
   41.5993   10.3746    9.9963 H   0  0  0  0  0  0  0  0  0  0  0  0
   43.0389    9.7139    9.2033 H   0  0  0  0  0  0  0  0  0  0  0  0
  2  1  1  0
  3  1  2  0
  4  1  2  0
  5  8  1  0
  6  5  2  0
  7  1  1  0
  8 10  1  0
  9  7  1  0
 10  9  1  0
 11  5  1  0
 13 12  1  0
 14 12  2  0
 15 12  2  0
 16 19  1  0
 17 16  2  0
 18 12  1  0
 19 21  1  0
 20 18  1  0
 21 20  1  0
 22 16  1  0
  7 24  1  0
  7 25  1  0
  8 26  1  0
  9 27  1  0
  9 28  1  0
 10 29  1  0
 10 30  1  0
 11 31  1  0
 11 32  1  0
 11 33  1  0
 18 34  1  0
 18 35  1  0
 19 36  1  0
 20 37  1  0
 20 38  1  0
 21 39  1  0
 21 40  1  0
 22 41  1  0
 22 42  1  0
 22 43  1  0
M  CHG  3   2  -1  13  -1  23   2
M  END
> <Uni-Dock RESULT> 
ENERGY=   -3.386  LOWER_BOUND=    6.160  UPPER_BOUND=    7.824
INTER + INTRA:          -3.386
INTER:                  -3.386
INTRA:                   0.000
UNBOUND:                 0.000

$$$$

     RDKit          3D

 43 40  0  0  0  0  0  0  0  0999 V2000
   47.7744   12.9091   20.0521 S   0  0  0  0  0  0  0  0  0  0  0  0
   49.2084   12.8525   20.3254 O   0  0  0  0  0  0  0  0  0  0  0  0
   46.9246   13.0685   21.2304 O   0  0  0  0  0  0  0  0  0  0  0  0
   47.3978   13.7346   18.9069 O   0  0  0  0  0  0  0  0  0  0  0  0
   47.4798    6.4856   20.8391 C   0  0  0  0  0  0  0  0  0  0  0  0
   47.2266    6.0142   19.7351 O   0  0  0  0  0  0  0  0  0  0  0  0
   47.3953   11.2634   19.4940 C   0  0  0  0  0  0  0  0  0  0  0  0
   47.5899    7.8304   21.0988 N   0  0  0  0  0  0  0  0  0  0  0  0
   47.7167   10.2123   20.5468 C   0  0  0  0  0  0  0  0  0  0  0  0
   47.3033    8.8251   20.0826 C   0  0  0  0  0  0  0  0  0  0  0  0
   47.7265    5.6082   22.0375 C   0  0  0  0  0  0  0  0  0  0  0  0
   48.5779    5.9093   22.0347 S   0  0  0  0  0  0  0  0  0  0  0  0
   47.9819    5.0953   23.0914 O   0  0  0  0  0  0  0  0  0  0  0  0
   48.5151    5.3246   20.6973 O   0  0  0  0  0  0  0  0  0  0  0  0
   49.8561    6.5271   22.3820 O   0  0  0  0  0  0  0  0  0  0  0  0
   46.6712   11.5904   19.5720 C   0  0  0  0  0  0  0  0  0  0  0  0
   45.5797   11.8375   20.0745 O   0  0  0  0  0  0  0  0  0  0  0  0
   47.4691    7.2961   21.9312 C   0  0  0  0  0  0  0  0  0  0  0  0
   47.4186   10.4723   19.8550 N   0  0  0  0  0  0  0  0  0  0  0  0
   47.8951    8.2920   20.8616 C   0  0  0  0  0  0  0  0  0  0  0  0
   46.9984    9.5190   20.8644 C   0  0  0  0  0  0  0  0  0  0  0  0
   47.3196   12.5228   18.5839 C   0  0  0  0  0  0  0  0  0  0  0  0
   47.6457    9.1990   20.5785 Ca  0  0  0  0  0 15  0  0  0  0  0  0
   47.9719   11.0875   18.5797 H   0  0  0  0  0  0  0  0  0  0  0  0
   46.3298   11.2488   19.2402 H   0  0  0  0  0  0  0  0  0  0  0  0
   47.6190    8.1451   22.0601 H   0  0  0  0  0  0  0  0  0  0  0  0
   48.7898   10.2208   20.7749 H   0  0  0  0  0  0  0  0  0  0  0  0
   47.2036   10.4492   21.4870 H   0  0  0  0  0  0  0  0  0  0  0  0
   47.8272    8.5441   19.1621 H   0  0  0  0  0  0  0  0  0  0  0  0
   46.2266    8.7860   19.8810 H   0  0  0  0  0  0  0  0  0  0  0  0
   47.7046    6.1788   22.9702 H   0  0  0  0  0  0  0  0  0  0  0  0
   46.9457    4.8434   22.0871 H   0  0  0  0  0  0  0  0  0  0  0  0
   48.7054    5.1318   21.9359 H   0  0  0  0  0  0  0  0  0  0  0  0
   47.4518    7.7672   22.9197 H   0  0  0  0  0  0  0  0  0  0  0  0
   46.4704    6.9009   21.7182 H   0  0  0  0  0  0  0  0  0  0  0  0
   48.3954   10.4628   19.5891 H   0  0  0  0  0  0  0  0  0  0  0  0
   48.9350    8.6012   21.0243 H   0  0  0  0  0  0  0  0  0  0  0  0
   47.8700    7.8176   19.8726 H   0  0  0  0  0  0  0  0  0  0  0  0
   45.9548    9.2466   20.6701 H   0  0  0  0  0  0  0  0  0  0  0  0
   47.0361   10.0287   21.8337 H   0  0  0  0  0  0  0  0  0  0  0  0
   47.7070   13.3956   19.1163 H   0  0  0  0  0  0  0  0  0  0  0  0
   46.5745   12.8391   17.8484 H   0  0  0  0  0  0  0  0  0  0  0  0
   48.1408   12.0366   18.0495 H   0  0  0  0  0  0  0  0  0  0  0  0
  2  1  1  0
  3  1  2  0
  4  1  2  0
  5  8  1  0
  6  5  2  0
  7  1  1  0
  8 10  1  0
  9  7  1  0
 10  9  1  0
 11  5  1  0
 13 12  1  0
 14 12  2  0
 15 12  2  0
 16 19  1  0
 17 16  2  0
 18 12  1  0
 19 21  1  0
 20 18  1  0
 21 20  1  0
 22 16  1  0
  7 24  1  0
  7 25  1  0
  8 26  1  0
  9 27  1  0
  9 28  1  0
 10 29  1  0
 10 30  1  0
 11 31  1  0
 11 32  1  0
 11 33  1  0
 18 34  1  0
 18 35  1  0
 19 36  1  0
 20 37  1  0
 20 38  1  0
 21 39  1  0
 21 40  1  0
 22 41  1  0
 22 42  1  0
 22 43  1  0
M  CHG  3   2  -1  13  -1  23   2
M  END
> <Uni-Dock RESULT> 
ENERGY=   -3.274  LOWER_BOUND=   12.554  UPPER_BOUND=   13.935
INTER + INTRA:          -3.274
INTER:                  -3.274
INTRA:                   0.000
UNBOUND:                 0.000

$$$$
