
     RDKit          3D

 43 40  0  0  0  0  0  0  0  0999 V2000
   47.6244    1.9341    6.6588 S   0  0  0  0  0  0  0  0  0  0  0  0
   47.9591    1.5474    5.2897 O   0  0  0  0  0  0  0  0  0  0  0  0
   48.5558    2.8712    7.2784 O   0  0  0  0  0  0  0  0  0  0  0  0
   47.1974    0.8267    7.5120 O   0  0  0  0  0  0  0  0  0  0  0  0
   44.3952    4.2404   10.5110 C   0  0  0  0  0  0  0  0  0  0  0  0
   45.3231    5.0389   10.4638 O   0  0  0  0  0  0  0  0  0  0  0  0
   46.1412    2.8908    6.4427 C   0  0  0  0  0  0  0  0  0  0  0  0
   44.2806    3.1104    9.7354 N   0  0  0  0  0  0  0  0  0  0  0  0
   45.6321    3.5929    7.6983 C   0  0  0  0  0  0  0  0  0  0  0  0
   45.3444    2.6402    8.8563 C   0  0  0  0  0  0  0  0  0  0  0  0
   43.2467    4.4292   11.4673 C   0  0  0  0  0  0  0  0  0  0  0  0
   47.6764    2.3179    5.8803 S   0  0  0  0  0  0  0  0  0  0  0  0
   48.8267    2.5249    6.7568 O   0  0  0  0  0  0  0  0  0  0  0  0
   47.8172    2.8751    4.5371 O   0  0  0  0  0  0  0  0  0  0  0  0
   47.0901    0.9801    5.9321 O   0  0  0  0  0  0  0  0  0  0  0  0
   43.7733    4.0858   10.7394 C   0  0  0  0  0  0  0  0  0  0  0  0
   43.2385    5.1335   10.3909 O   0  0  0  0  0  0  0  0  0  0  0  0
   46.4165    3.3440    6.6035 C   0  0  0  0  0  0  0  0  0  0  0  0
   44.6564    3.3720    9.9651 N   0  0  0  0  0  0  0  0  0  0  0  0
   46.1052    2.9440    8.0388 C   0  0  0  0  0  0  0  0  0  0  0  0
   44.9625    3.7709    8.6045 C   0  0  0  0  0  0  0  0  0  0  0  0
   43.4922    3.4577   12.0783 C   0  0  0  0  0  0  0  0  0  0  0  0
   45.3454    3.2133    8.6748 Ca  0  0  0  0  0 15  0  0  0  0  0  0
   46.3596    3.6419    5.6752 H   0  0  0  0  0  0  0  0  0  0  0  0
   45.3777    2.2156    6.0411 H   0  0  0  0  0  0  0  0  0  0  0  0
   43.6147    2.4082   10.0244 H   0  0  0  0  0  0  0  0  0  0  0  0
   46.3554    4.3501    8.0234 H   0  0  0  0  0  0  0  0  0  0  0  0
   44.7184    4.1371    7.4276 H   0  0  0  0  0  0  0  0  0  0  0  0
   46.2405    2.4825    9.4657 H   0  0  0  0  0  0  0  0  0  0  0  0
   44.9940    1.6724    8.4834 H   0  0  0  0  0  0  0  0  0  0  0  0
   42.3762    3.8355   11.1744 H   0  0  0  0  0  0  0  0  0  0  0  0
   43.5633    4.1313   12.4703 H   0  0  0  0  0  0  0  0  0  0  0  0
   42.9532    5.4827   11.4710 H   0  0  0  0  0  0  0  0  0  0  0  0
   45.5269    3.2530    5.9708 H   0  0  0  0  0  0  0  0  0  0  0  0
   46.7706    4.3793    6.5563 H   0  0  0  0  0  0  0  0  0  0  0  0
   44.8704    2.4178   10.2265 H   0  0  0  0  0  0  0  0  0  0  0  0
   46.9962    3.0661    8.6671 H   0  0  0  0  0  0  0  0  0  0  0  0
   45.8426    1.8799    8.0867 H   0  0  0  0  0  0  0  0  0  0  0  0
   45.2087    4.8388    8.6028 H   0  0  0  0  0  0  0  0  0  0  0  0
   44.0515    3.6364    8.0104 H   0  0  0  0  0  0  0  0  0  0  0  0
   43.5098    4.2339   12.8485 H   0  0  0  0  0  0  0  0  0  0  0  0
   44.2429    2.7054   12.3360 H   0  0  0  0  0  0  0  0  0  0  0  0
   42.5066    2.9856   12.0525 H   0  0  0  0  0  0  0  0  0  0  0  0
  2  1  1  0
  3  1  2  0
  4  1  2  0
  5  8  1  0
  6  5  2  0
  7  1  1  0
  8 10  1  0
  9  7  1  0
 10  9  1  0
 11  5  1  0
 13 12  1  0
 14 12  2  0
 15 12  2  0
 16 19  1  0
 17 16  2  0
 18 12  1  0
 19 21  1  0
 20 18  1  0
 21 20  1  0
 22 16  1  0
  7 24  1  0
  7 25  1  0
  8 26  1  0
  9 27  1  0
  9 28  1  0
 10 29  1  0
 10 30  1  0
 11 31  1  0
 11 32  1  0
 11 33  1  0
 18 34  1  0
 18 35  1  0
 19 36  1  0
 20 37  1  0
 20 38  1  0
 21 39  1  0
 21 40  1  0
 22 41  1  0
 22 42  1  0
 22 43  1  0
M  CHG  3   2  -1  13  -1  23   2
M  END
> <Uni-Dock RESULT> 
ENERGY=   -6.500  LOWER_BOUND=    0.000  UPPER_BOUND=    0.000
INTER + INTRA:          -6.500
INTER:                  -6.500
INTRA:                   0.000
UNBOUND:                 0.000

$$$$

     RDKit          3D

 43 40  0  0  0  0  0  0  0  0999 V2000
   44.5890    5.5642   11.6964 S   0  0  0  0  0  0  0  0  0  0  0  0
   43.5737    6.3071   12.4402 O   0  0  0  0  0  0  0  0  0  0  0  0
   44.9811    4.2919   12.2939 O   0  0  0  0  0  0  0  0  0  0  0  0
   45.6926    6.3831   11.1982 O   0  0  0  0  0  0  0  0  0  0  0  0
   46.5060    2.8644    7.2667 C   0  0  0  0  0  0  0  0  0  0  0  0
   46.3500    1.9451    8.0613 O   0  0  0  0  0  0  0  0  0  0  0  0
   43.7212    5.0894   10.2189 C   0  0  0  0  0  0  0  0  0  0  0  0
   46.2164    4.1858    7.5153 N   0  0  0  0  0  0  0  0  0  0  0  0
   44.4775    4.1349    9.2993 C   0  0  0  0  0  0  0  0  0  0  0  0
   45.8252    4.6784    8.8305 C   0  0  0  0  0  0  0  0  0  0  0  0
   47.0569    2.6218    5.8859 C   0  0  0  0  0  0  0  0  0  0  0  0
   43.7520    5.4649   11.9098 S   0  0  0  0  0  0  0  0  0  0  0  0
   44.7001    4.7252   12.7395 O   0  0  0  0  0  0  0  0  0  0  0  0
   42.3585    5.3782   12.3403 O   0  0  0  0  0  0  0  0  0  0  0  0
   44.1892    6.8007   11.5090 O   0  0  0  0  0  0  0  0  0  0  0  0
   46.6421    3.0658    6.6313 C   0  0  0  0  0  0  0  0  0  0  0  0
   45.8165    2.3433    6.0823 O   0  0  0  0  0  0  0  0  0  0  0  0
   43.7495    4.5596   10.3789 C   0  0  0  0  0  0  0  0  0  0  0  0
   46.4009    3.7858    7.7769 N   0  0  0  0  0  0  0  0  0  0  0  0
   45.1304    4.5090    9.7405 C   0  0  0  0  0  0  0  0  0  0  0  0
   45.0867    3.8134    8.3900 C   0  0  0  0  0  0  0  0  0  0  0  0
   48.0297    3.2498    6.0774 C   0  0  0  0  0  0  0  0  0  0  0  0
   45.4426    4.2153    8.8075 Ca  0  0  0  0  0 15  0  0  0  0  0  0
   42.7879    4.6136   10.5406 H   0  0  0  0  0  0  0  0  0  0  0  0
   43.4599    6.0114    9.6880 H   0  0  0  0  0  0  0  0  0  0  0  0
   46.6075    4.8774    6.8919 H   0  0  0  0  0  0  0  0  0  0  0  0
   44.6302    3.1726    9.8023 H   0  0  0  0  0  0  0  0  0  0  0  0
   43.8363    3.9303    8.4326 H   0  0  0  0  0  0  0  0  0  0  0  0
   46.6198    4.4189    9.5380 H   0  0  0  0  0  0  0  0  0  0  0  0
   45.7872    5.7672    8.7233 H   0  0  0  0  0  0  0  0  0  0  0  0
   46.8401    3.4561    5.2128 H   0  0  0  0  0  0  0  0  0  0  0  0
   48.1395    2.4853    5.9512 H   0  0  0  0  0  0  0  0  0  0  0  0
   46.5963    1.7216    5.4695 H   0  0  0  0  0  0  0  0  0  0  0  0
   43.0304    5.0532    9.7160 H   0  0  0  0  0  0  0  0  0  0  0  0
   43.3840    3.5503   10.5960 H   0  0  0  0  0  0  0  0  0  0  0  0
   47.0458    4.5231    8.0321 H   0  0  0  0  0  0  0  0  0  0  0  0
   45.8338    3.9882   10.4019 H   0  0  0  0  0  0  0  0  0  0  0  0
   45.5264    5.5242    9.6140 H   0  0  0  0  0  0  0  0  0  0  0  0
   44.7274    2.7827    8.4878 H   0  0  0  0  0  0  0  0  0  0  0  0
   44.4145    4.3384    7.7018 H   0  0  0  0  0  0  0  0  0  0  0  0
   48.4298    2.2754    5.7834 H   0  0  0  0  0  0  0  0  0  0  0  0
   48.7051    3.6852    6.8192 H   0  0  0  0  0  0  0  0  0  0  0  0
   47.9831    3.9079    5.2059 H   0  0  0  0  0  0  0  0  0  0  0  0
  2  1  1  0
  3  1  2  0
  4  1  2  0
  5  8  1  0
  6  5  2  0
  7  1  1  0
  8 10  1  0
  9  7  1  0
 10  9  1  0
 11  5  1  0
 13 12  1  0
 14 12  2  0
 15 12  2  0
 16 19  1  0
 17 16  2  0
 18 12  1  0
 19 21  1  0
 20 18  1  0
 21 20  1  0
 22 16  1  0
  7 24  1  0
  7 25  1  0
  8 26  1  0
  9 27  1  0
  9 28  1  0
 10 29  1  0
 10 30  1  0
 11 31  1  0
 11 32  1  0
 11 33  1  0
 18 34  1  0
 18 35  1  0
 19 36  1  0
 20 37  1  0
 20 38  1  0
 21 39  1  0
 21 40  1  0
 22 41  1  0
 22 42  1  0
 22 43  1  0
M  CHG  3   2  -1  13  -1  23   2
M  END
> <Uni-Dock RESULT> 
ENERGY=   -6.377  LOWER_BOUND=    2.716  UPPER_BOUND=    5.886
INTER + INTRA:          -6.377
INTER:                  -6.377
INTRA:                   0.000
UNBOUND:                 0.000

$$$$

     RDKit          3D

 43 40  0  0  0  0  0  0  0  0999 V2000
   43.9455    3.5955   11.7294 S   0  0  0  0  0  0  0  0  0  0  0  0
   43.3911    4.3898   12.8238 O   0  0  0  0  0  0  0  0  0  0  0  0
   43.0006    2.6862   11.0893 O   0  0  0  0  0  0  0  0  0  0  0  0
   45.2652    3.0292   12.0023 O   0  0  0  0  0  0  0  0  0  0  0  0
   46.2968    2.9529    6.7650 C   0  0  0  0  0  0  0  0  0  0  0  0
   45.1632    2.5404    6.5508 O   0  0  0  0  0  0  0  0  0  0  0  0
   44.2668    4.8206   10.4814 C   0  0  0  0  0  0  0  0  0  0  0  0
   46.7462    3.4511    7.9656 N   0  0  0  0  0  0  0  0  0  0  0  0
   44.6981    4.2694    9.1254 C   0  0  0  0  0  0  0  0  0  0  0  0
   45.9553    3.4053    9.1896 C   0  0  0  0  0  0  0  0  0  0  0  0
   47.3492    2.9481    5.6873 C   0  0  0  0  0  0  0  0  0  0  0  0
   43.3530    4.2243   11.8270 S   0  0  0  0  0  0  0  0  0  0  0  0
   42.8149    2.8703   11.7194 O   0  0  0  0  0  0  0  0  0  0  0  0
   42.3606    5.2618   12.0977 O   0  0  0  0  0  0  0  0  0  0  0  0
   44.5894    4.3408   12.5975 O   0  0  0  0  0  0  0  0  0  0  0  0
   46.9044    3.1350    6.5193 C   0  0  0  0  0  0  0  0  0  0  0  0
   46.4772    3.8933    5.6547 O   0  0  0  0  0  0  0  0  0  0  0  0
   43.8702    4.5960   10.1664 C   0  0  0  0  0  0  0  0  0  0  0  0
   46.4279    3.0821    7.8073 N   0  0  0  0  0  0  0  0  0  0  0  0
   44.9189    3.6161    9.6595 C   0  0  0  0  0  0  0  0  0  0  0  0
   45.4143    4.0073    8.2771 C   0  0  0  0  0  0  0  0  0  0  0  0
   48.0329    2.1764    6.2478 C   0  0  0  0  0  0  0  0  0  0  0  0
   45.5279    3.6325    8.8330 Ca  0  0  0  0  0 15  0  0  0  0  0  0
   43.3416    5.3947   10.3576 H   0  0  0  0  0  0  0  0  0  0  0  0
   45.0284    5.4980   10.8831 H   0  0  0  0  0  0  0  0  0  0  0  0
   47.7444    3.5300    8.0971 H   0  0  0  0  0  0  0  0  0  0  0  0
   43.8816    3.6885    8.6804 H   0  0  0  0  0  0  0  0  0  0  0  0
   44.8668    5.1238    8.4576 H   0  0  0  0  0  0  0  0  0  0  0  0
   45.7015    2.3587    9.3882 H   0  0  0  0  0  0  0  0  0  0  0  0
   46.6304    3.7618    9.9742 H   0  0  0  0  0  0  0  0  0  0  0  0
   48.1776    3.6196    5.9296 H   0  0  0  0  0  0  0  0  0  0  0  0
   47.7339    1.9320    5.5671 H   0  0  0  0  0  0  0  0  0  0  0  0
   46.9018    3.2864    4.7484 H   0  0  0  0  0  0  0  0  0  0  0  0
   44.2625    5.6188   10.1744 H   0  0  0  0  0  0  0  0  0  0  0  0
   42.9773    4.5727    9.5325 H   0  0  0  0  0  0  0  0  0  0  0  0
   46.9775    2.6028    8.5093 H   0  0  0  0  0  0  0  0  0  0  0  0
   44.5047    2.6007    9.6301 H   0  0  0  0  0  0  0  0  0  0  0  0
   45.7681    3.5784   10.3530 H   0  0  0  0  0  0  0  0  0  0  0  0
   44.5929    4.0200    7.5518 H   0  0  0  0  0  0  0  0  0  0  0  0
   45.8637    5.0067    8.2915 H   0  0  0  0  0  0  0  0  0  0  0  0
   47.8636    1.6879    5.2841 H   0  0  0  0  0  0  0  0  0  0  0  0
   48.0961    1.4006    7.0161 H   0  0  0  0  0  0  0  0  0  0  0  0
   48.9747    2.7305    6.2204 H   0  0  0  0  0  0  0  0  0  0  0  0
  2  1  1  0
  3  1  2  0
  4  1  2  0
  5  8  1  0
  6  5  2  0
  7  1  1  0
  8 10  1  0
  9  7  1  0
 10  9  1  0
 11  5  1  0
 13 12  1  0
 14 12  2  0
 15 12  2  0
 16 19  1  0
 17 16  2  0
 18 12  1  0
 19 21  1  0
 20 18  1  0
 21 20  1  0
 22 16  1  0
  7 24  1  0
  7 25  1  0
  8 26  1  0
  9 27  1  0
  9 28  1  0
 10 29  1  0
 10 30  1  0
 11 31  1  0
 11 32  1  0
 11 33  1  0
 18 34  1  0
 18 35  1  0
 19 36  1  0
 20 37  1  0
 20 38  1  0
 21 39  1  0
 21 40  1  0
 22 41  1  0
 22 42  1  0
 22 43  1  0
M  CHG  3   2  -1  13  -1  23   2
M  END
> <Uni-Dock RESULT> 
ENERGY=   -5.888  LOWER_BOUND=    2.739  UPPER_BOUND=    5.743
INTER + INTRA:          -5.888
INTER:                  -5.888
INTRA:                   0.000
UNBOUND:                 0.000

$$$$

     RDKit          3D

 43 40  0  0  0  0  0  0  0  0999 V2000
   44.0561    4.5194   11.3722 S   0  0  0  0  0  0  0  0  0  0  0  0
   43.0219    4.4335   12.4012 O   0  0  0  0  0  0  0  0  0  0  0  0
   45.4254    4.5365   11.8763 O   0  0  0  0  0  0  0  0  0  0  0  0
   43.7728    5.4829   10.3100 O   0  0  0  0  0  0  0  0  0  0  0  0
   46.8280    2.6635    6.9610 C   0  0  0  0  0  0  0  0  0  0  0  0
   47.6593    2.5155    7.8486 O   0  0  0  0  0  0  0  0  0  0  0  0
   43.9249    2.9459   10.5544 C   0  0  0  0  0  0  0  0  0  0  0  0
   45.5538    3.1491    7.1402 N   0  0  0  0  0  0  0  0  0  0  0  0
   45.0109    2.6575    9.5219 C   0  0  0  0  0  0  0  0  0  0  0  0
   45.0847    3.6980    8.4068 C   0  0  0  0  0  0  0  0  0  0  0  0
   47.1403    2.3156    5.5290 C   0  0  0  0  0  0  0  0  0  0  0  0
   43.7906    3.9420   11.9655 S   0  0  0  0  0  0  0  0  0  0  0  0
   44.9635    4.7282   12.3402 O   0  0  0  0  0  0  0  0  0  0  0  0
   43.2871    3.0514   13.0086 O   0  0  0  0  0  0  0  0  0  0  0  0
   42.7599    4.6759   11.2341 O   0  0  0  0  0  0  0  0  0  0  0  0
   46.6414    2.5533    6.3162 C   0  0  0  0  0  0  0  0  0  0  0  0
   46.8501    1.3444    6.3211 O   0  0  0  0  0  0  0  0  0  0  0  0
   44.4246    2.8084   10.7504 C   0  0  0  0  0  0  0  0  0  0  0  0
   46.0199    3.2362    7.3342 N   0  0  0  0  0  0  0  0  0  0  0  0
   45.0214    3.5293    9.5501 C   0  0  0  0  0  0  0  0  0  0  0  0
   45.4707    2.5435    8.4842 C   0  0  0  0  0  0  0  0  0  0  0  0
   47.0426    3.4238    5.1554 C   0  0  0  0  0  0  0  0  0  0  0  0
   45.3204    3.1910    8.6278 Ca  0  0  0  0  0 15  0  0  0  0  0  0
   43.9615    2.1799   11.3372 H   0  0  0  0  0  0  0  0  0  0  0  0
   42.9321    2.9042   10.0930 H   0  0  0  0  0  0  0  0  0  0  0  0
   45.0488    3.4559    6.3211 H   0  0  0  0  0  0  0  0  0  0  0  0
   45.9873    2.5857   10.0155 H   0  0  0  0  0  0  0  0  0  0  0  0
   44.8089    1.6670    9.0947 H   0  0  0  0  0  0  0  0  0  0  0  0
   45.7497    4.5227    8.6840 H   0  0  0  0  0  0  0  0  0  0  0  0
   44.0909    4.1016    8.1877 H   0  0  0  0  0  0  0  0  0  0  0  0
   46.2298    2.2009    4.9341 H   0  0  0  0  0  0  0  0  0  0  0  0
   47.7558    3.1074    5.0943 H   0  0  0  0  0  0  0  0  0  0  0  0
   47.6852    1.3678    5.5013 H   0  0  0  0  0  0  0  0  0  0  0  0
   43.5910    2.1661   10.4458 H   0  0  0  0  0  0  0  0  0  0  0  0
   45.1782    2.1863   11.2449 H   0  0  0  0  0  0  0  0  0  0  0  0
   45.6846    4.1745    7.1560 H   0  0  0  0  0  0  0  0  0  0  0  0
   45.8719    4.1469    9.8644 H   0  0  0  0  0  0  0  0  0  0  0  0
   44.2861    4.2203    9.1195 H   0  0  0  0  0  0  0  0  0  0  0  0
   46.2331    1.8597    8.8744 H   0  0  0  0  0  0  0  0  0  0  0  0
   44.6277    1.9387    8.1312 H   0  0  0  0  0  0  0  0  0  0  0  0
   48.0542    3.1544    4.8388 H   0  0  0  0  0  0  0  0  0  0  0  0
   47.0418    4.4832    5.4270 H   0  0  0  0  0  0  0  0  0  0  0  0
   46.3432    3.2654    4.3304 H   0  0  0  0  0  0  0  0  0  0  0  0
  2  1  1  0
  3  1  2  0
  4  1  2  0
  5  8  1  0
  6  5  2  0
  7  1  1  0
  8 10  1  0
  9  7  1  0
 10  9  1  0
 11  5  1  0
 13 12  1  0
 14 12  2  0
 15 12  2  0
 16 19  1  0
 17 16  2  0
 18 12  1  0
 19 21  1  0
 20 18  1  0
 21 20  1  0
 22 16  1  0
  7 24  1  0
  7 25  1  0
  8 26  1  0
  9 27  1  0
  9 28  1  0
 10 29  1  0
 10 30  1  0
 11 31  1  0
 11 32  1  0
 11 33  1  0
 18 34  1  0
 18 35  1  0
 19 36  1  0
 20 37  1  0
 20 38  1  0
 21 39  1  0
 21 40  1  0
 22 41  1  0
 22 42  1  0
 22 43  1  0
M  CHG  3   2  -1  13  -1  23   2
M  END
> <Uni-Dock RESULT> 
ENERGY=   -5.738  LOWER_BOUND=    2.481  UPPER_BOUND=    5.747
INTER + INTRA:          -5.738
INTER:                  -5.738
INTRA:                   0.000
UNBOUND:                 0.000

$$$$

     RDKit          3D

 43 40  0  0  0  0  0  0  0  0999 V2000
   43.2066    5.1214   12.0693 S   0  0  0  0  0  0  0  0  0  0  0  0
   42.7939    3.7816   11.6563 O   0  0  0  0  0  0  0  0  0  0  0  0
   42.9238    5.4499   13.4627 O   0  0  0  0  0  0  0  0  0  0  0  0
   42.8906    6.1745   11.1061 O   0  0  0  0  0  0  0  0  0  0  0  0
   46.9407    9.0944   12.9955 C   0  0  0  0  0  0  0  0  0  0  0  0
   46.6225    8.7905   14.1389 O   0  0  0  0  0  0  0  0  0  0  0  0
   44.9807    5.0193   12.0092 C   0  0  0  0  0  0  0  0  0  0  0  0
   46.4492    8.5080   11.8526 N   0  0  0  0  0  0  0  0  0  0  0  0
   45.7207    6.2335   12.5632 C   0  0  0  0  0  0  0  0  0  0  0  0
   45.3580    7.5411   11.8632 C   0  0  0  0  0  0  0  0  0  0  0  0
   47.9399   10.1887   12.7247 C   0  0  0  0  0  0  0  0  0  0  0  0
   43.4238    4.2999   12.2537 S   0  0  0  0  0  0  0  0  0  0  0  0
   42.5368    4.9434   13.2199 O   0  0  0  0  0  0  0  0  0  0  0  0
   43.6977    2.8886   12.5137 O   0  0  0  0  0  0  0  0  0  0  0  0
   43.1577    4.6264   10.8542 O   0  0  0  0  0  0  0  0  0  0  0  0
   47.3551    9.4389   12.5803 C   0  0  0  0  0  0  0  0  0  0  0  0
   48.4036    9.0422   13.0787 O   0  0  0  0  0  0  0  0  0  0  0  0
   44.9971    5.0707   12.5607 C   0  0  0  0  0  0  0  0  0  0  0  0
   46.2711    8.6365   12.3155 N   0  0  0  0  0  0  0  0  0  0  0  0
   44.9467    6.5781   12.3562 C   0  0  0  0  0  0  0  0  0  0  0  0
   46.3208    7.2031   12.5315 C   0  0  0  0  0  0  0  0  0  0  0  0
   47.1579   10.8782   12.1859 C   0  0  0  0  0  0  0  0  0  0  0  0
   45.6883    7.2857   12.2958 Ca  0  0  0  0  0 15  0  0  0  0  0  0
   45.2651    4.1319   12.5859 H   0  0  0  0  0  0  0  0  0  0  0  0
   45.2583    4.8412   10.9645 H   0  0  0  0  0  0  0  0  0  0  0  0
   46.5903    8.9930   10.9781 H   0  0  0  0  0  0  0  0  0  0  0  0
   45.5267    6.3320   13.6379 H   0  0  0  0  0  0  0  0  0  0  0  0
   46.7965    6.0421   12.4614 H   0  0  0  0  0  0  0  0  0  0  0  0
   44.4930    8.0139   12.3401 H   0  0  0  0  0  0  0  0  0  0  0  0
   45.1286    7.3642   10.8075 H   0  0  0  0  0  0  0  0  0  0  0  0
   48.3451   10.1230   11.7111 H   0  0  0  0  0  0  0  0  0  0  0  0
   47.4527   11.1586   12.8545 H   0  0  0  0  0  0  0  0  0  0  0  0
   48.7714   10.0966   13.4291 H   0  0  0  0  0  0  0  0  0  0  0  0
   45.7191    4.6077   11.8792 H   0  0  0  0  0  0  0  0  0  0  0  0
   45.2858    4.8270   13.5887 H   0  0  0  0  0  0  0  0  0  0  0  0
   45.5453    8.9871   11.7032 H   0  0  0  0  0  0  0  0  0  0  0  0
   44.2412    7.0322   13.0630 H   0  0  0  0  0  0  0  0  0  0  0  0
   44.5661    6.8116   11.3541 H   0  0  0  0  0  0  0  0  0  0  0  0
   46.7143    7.0168   13.5372 H   0  0  0  0  0  0  0  0  0  0  0  0
   47.0339    6.7872   11.8107 H   0  0  0  0  0  0  0  0  0  0  0  0
   47.5321   11.5230   12.9861 H   0  0  0  0  0  0  0  0  0  0  0  0
   46.1013   11.1113   12.0271 H   0  0  0  0  0  0  0  0  0  0  0  0
   47.7106   11.0758   11.2638 H   0  0  0  0  0  0  0  0  0  0  0  0
  2  1  1  0
  3  1  2  0
  4  1  2  0
  5  8  1  0
  6  5  2  0
  7  1  1  0
  8 10  1  0
  9  7  1  0
 10  9  1  0
 11  5  1  0
 13 12  1  0
 14 12  2  0
 15 12  2  0
 16 19  1  0
 17 16  2  0
 18 12  1  0
 19 21  1  0
 20 18  1  0
 21 20  1  0
 22 16  1  0
  7 24  1  0
  7 25  1  0
  8 26  1  0
  9 27  1  0
  9 28  1  0
 10 29  1  0
 10 30  1  0
 11 31  1  0
 11 32  1  0
 11 33  1  0
 18 34  1  0
 18 35  1  0
 19 36  1  0
 20 37  1  0
 20 38  1  0
 21 39  1  0
 21 40  1  0
 22 41  1  0
 22 42  1  0
 22 43  1  0
M  CHG  3   2  -1  13  -1  23   2
M  END
> <Uni-Dock RESULT> 
ENERGY=   -5.214  LOWER_BOUND=    5.527  UPPER_BOUND=    7.051
INTER + INTRA:          -5.214
INTER:                  -5.214
INTRA:                   0.000
UNBOUND:                 0.000

$$$$

     RDKit          3D

 43 40  0  0  0  0  0  0  0  0999 V2000
   43.2044    5.1097   12.0687 S   0  0  0  0  0  0  0  0  0  0  0  0
   42.7957    3.7684   11.6566 O   0  0  0  0  0  0  0  0  0  0  0  0
   42.9248    5.4367   13.4631 O   0  0  0  0  0  0  0  0  0  0  0  0
   42.8813    6.1619   11.1068 O   0  0  0  0  0  0  0  0  0  0  0  0
   46.9258    9.0971   12.9844 C   0  0  0  0  0  0  0  0  0  0  0  0
   46.6124    8.7916   14.1286 O   0  0  0  0  0  0  0  0  0  0  0  0
   44.9788    5.0146   12.0030 C   0  0  0  0  0  0  0  0  0  0  0  0
   46.4330    8.5091   11.8429 N   0  0  0  0  0  0  0  0  0  0  0  0
   45.7157    6.2315   12.5550 C   0  0  0  0  0  0  0  0  0  0  0  0
   45.3457    7.5379   11.8565 C   0  0  0  0  0  0  0  0  0  0  0  0
   47.9198   10.1954   12.7108 C   0  0  0  0  0  0  0  0  0  0  0  0
   43.4255    4.2890   12.2521 S   0  0  0  0  0  0  0  0  0  0  0  0
   42.5390    4.9287   13.2213 O   0  0  0  0  0  0  0  0  0  0  0  0
   43.7057    2.8787   12.5108 O   0  0  0  0  0  0  0  0  0  0  0  0
   43.1537    4.6149   10.8536 O   0  0  0  0  0  0  0  0  0  0  0  0
   47.3376    9.4433   12.5680 C   0  0  0  0  0  0  0  0  0  0  0  0
   48.3891    9.0506   13.0630 O   0  0  0  0  0  0  0  0  0  0  0  0
   44.9966    5.0659   12.5544 C   0  0  0  0  0  0  0  0  0  0  0  0
   46.2559    8.6368   12.3063 N   0  0  0  0  0  0  0  0  0  0  0  0
   44.9397    6.5732   12.3505 C   0  0  0  0  0  0  0  0  0  0  0  0
   46.3119    7.2035   12.5217 C   0  0  0  0  0  0  0  0  0  0  0  0
   47.1335   10.8820   12.1747 C   0  0  0  0  0  0  0  0  0  0  0  0
   45.6783    7.2837   12.2880 Ca  0  0  0  0  0 15  0  0  0  0  0  0
   45.2685    4.1281   12.5785 H   0  0  0  0  0  0  0  0  0  0  0  0
   45.2538    4.8380   10.9573 H   0  0  0  0  0  0  0  0  0  0  0  0
   46.5694    8.9949   10.9680 H   0  0  0  0  0  0  0  0  0  0  0  0
   45.5247    6.3289   13.6303 H   0  0  0  0  0  0  0  0  0  0  0  0
   46.7919    6.0444   12.4498 H   0  0  0  0  0  0  0  0  0  0  0  0
   44.4803    8.0071   12.3363 H   0  0  0  0  0  0  0  0  0  0  0  0
   45.1137    7.3604   10.8015 H   0  0  0  0  0  0  0  0  0  0  0  0
   48.3221   10.1316   11.6959 H   0  0  0  0  0  0  0  0  0  0  0  0
   47.4292   11.1633   12.8424 H   0  0  0  0  0  0  0  0  0  0  0  0
   48.7540   10.1064   13.4125 H   0  0  0  0  0  0  0  0  0  0  0  0
   45.7183    4.6060   11.8705 H   0  0  0  0  0  0  0  0  0  0  0  0
   45.2896    4.8230   13.5814 H   0  0  0  0  0  0  0  0  0  0  0  0
   45.5268    8.9847   11.6964 H   0  0  0  0  0  0  0  0  0  0  0  0
   44.2346    7.0243   13.0597 H   0  0  0  0  0  0  0  0  0  0  0  0
   44.5551    6.8054   11.3497 H   0  0  0  0  0  0  0  0  0  0  0  0
   46.7093    7.0185   13.5261 H   0  0  0  0  0  0  0  0  0  0  0  0
   47.0244    6.7906   11.7985 H   0  0  0  0  0  0  0  0  0  0  0  0
   47.5076   11.5280   12.9739 H   0  0  0  0  0  0  0  0  0  0  0  0
   46.0754   11.1110   12.0193 H   0  0  0  0  0  0  0  0  0  0  0  0
   47.6824   11.0820   11.2509 H   0  0  0  0  0  0  0  0  0  0  0  0
  2  1  1  0
  3  1  2  0
  4  1  2  0
  5  8  1  0
  6  5  2  0
  7  1  1  0
  8 10  1  0
  9  7  1  0
 10  9  1  0
 11  5  1  0
 13 12  1  0
 14 12  2  0
 15 12  2  0
 16 19  1  0
 17 16  2  0
 18 12  1  0
 19 21  1  0
 20 18  1  0
 21 20  1  0
 22 16  1  0
  7 24  1  0
  7 25  1  0
  8 26  1  0
  9 27  1  0
  9 28  1  0
 10 29  1  0
 10 30  1  0
 11 31  1  0
 11 32  1  0
 11 33  1  0
 18 34  1  0
 18 35  1  0
 19 36  1  0
 20 37  1  0
 20 38  1  0
 21 39  1  0
 21 40  1  0
 22 41  1  0
 22 42  1  0
 22 43  1  0
M  CHG  3   2  -1  13  -1  23   2
M  END
> <Uni-Dock RESULT> 
ENERGY=   -5.210  LOWER_BOUND=    5.523  UPPER_BOUND=    7.044
INTER + INTRA:          -5.210
INTER:                  -5.210
INTRA:                   0.000
UNBOUND:                 0.000

$$$$

     RDKit          3D

 43 40  0  0  0  0  0  0  0  0999 V2000
   43.5652    4.1451   12.1312 S   0  0  0  0  0  0  0  0  0  0  0  0
   43.3566    4.9440   13.3371 O   0  0  0  0  0  0  0  0  0  0  0  0
   42.3888    3.9962   11.2808 O   0  0  0  0  0  0  0  0  0  0  0  0
   44.3377    2.9222   12.3429 O   0  0  0  0  0  0  0  0  0  0  0  0
   45.9234    3.0619    7.2473 C   0  0  0  0  0  0  0  0  0  0  0  0
   44.7868    3.3648    6.9050 O   0  0  0  0  0  0  0  0  0  0  0  0
   44.6571    5.1673   11.1696 C   0  0  0  0  0  0  0  0  0  0  0  0
   46.3874    3.0569    8.5420 N   0  0  0  0  0  0  0  0  0  0  0  0
   44.9275    4.6745    9.7509 C   0  0  0  0  0  0  0  0  0  0  0  0
   45.5218    3.2691    9.6959 C   0  0  0  0  0  0  0  0  0  0  0  0
   46.9610    2.6451    6.2379 C   0  0  0  0  0  0  0  0  0  0  0  0
   43.3825    4.9723   12.3267 S   0  0  0  0  0  0  0  0  0  0  0  0
   42.2379    4.1576   11.9261 O   0  0  0  0  0  0  0  0  0  0  0  0
   43.0527    6.3294   12.7558 O   0  0  0  0  0  0  0  0  0  0  0  0
   44.3701    4.2878   13.1586 O   0  0  0  0  0  0  0  0  0  0  0  0
   46.5646    2.9197    7.0701 C   0  0  0  0  0  0  0  0  0  0  0  0
   46.7279    3.9046    6.3571 O   0  0  0  0  0  0  0  0  0  0  0  0
   44.2521    5.2417   10.7987 C   0  0  0  0  0  0  0  0  0  0  0  0
   45.9501    2.9465    8.2991 N   0  0  0  0  0  0  0  0  0  0  0  0
   44.6936    3.9363   10.1524 C   0  0  0  0  0  0  0  0  0  0  0  0
   45.5148    4.1931    8.8997 C   0  0  0  0  0  0  0  0  0  0  0  0
   47.0501    1.5544    6.6619 C   0  0  0  0  0  0  0  0  0  0  0  0
   45.3335    3.7403    9.3736 Ca  0  0  0  0  0 15  0  0  0  0  0  0
   44.1983    6.1615   11.1227 H   0  0  0  0  0  0  0  0  0  0  0  0
   45.5928    5.2579   11.7321 H   0  0  0  0  0  0  0  0  0  0  0  0
   47.2479    2.5630    8.7305 H   0  0  0  0  0  0  0  0  0  0  0  0
   44.0024    4.6998    9.1630 H   0  0  0  0  0  0  0  0  0  0  0  0
   45.6130    5.3879    9.2761 H   0  0  0  0  0  0  0  0  0  0  0  0
   44.7323    2.5106    9.6692 H   0  0  0  0  0  0  0  0  0  0  0  0
   46.1614    3.0850   10.5650 H   0  0  0  0  0  0  0  0  0  0  0  0
   47.9729    2.7178    6.6462 H   0  0  0  0  0  0  0  0  0  0  0  0
   46.7699    1.6128    5.9335 H   0  0  0  0  0  0  0  0  0  0  0  0
   46.8984    3.3038    5.3671 H   0  0  0  0  0  0  0  0  0  0  0  0
   45.1156    5.8754   11.0289 H   0  0  0  0  0  0  0  0  0  0  0  0
   43.5820    5.7976   10.1344 H   0  0  0  0  0  0  0  0  0  0  0  0
   46.0590    2.1501    8.9142 H   0  0  0  0  0  0  0  0  0  0  0  0
   43.8188    3.3236    9.9018 H   0  0  0  0  0  0  0  0  0  0  0  0
   45.2865    3.3447   10.8609 H   0  0  0  0  0  0  0  0  0  0  0  0
   44.9367    4.7535    8.1562 H   0  0  0  0  0  0  0  0  0  0  0  0
   46.4130    4.7756    9.1340 H   0  0  0  0  0  0  0  0  0  0  0  0
   46.7921    1.3816    5.6133 H   0  0  0  0  0  0  0  0  0  0  0  0
   46.5859    0.7660    7.2610 H   0  0  0  0  0  0  0  0  0  0  0  0
   48.1349    1.5077    6.7877 H   0  0  0  0  0  0  0  0  0  0  0  0
  2  1  1  0
  3  1  2  0
  4  1  2  0
  5  8  1  0
  6  5  2  0
  7  1  1  0
  8 10  1  0
  9  7  1  0
 10  9  1  0
 11  5  1  0
 13 12  1  0
 14 12  2  0
 15 12  2  0
 16 19  1  0
 17 16  2  0
 18 12  1  0
 19 21  1  0
 20 18  1  0
 21 20  1  0
 22 16  1  0
  7 24  1  0
  7 25  1  0
  8 26  1  0
  9 27  1  0
  9 28  1  0
 10 29  1  0
 10 30  1  0
 11 31  1  0
 11 32  1  0
 11 33  1  0
 18 34  1  0
 18 35  1  0
 19 36  1  0
 20 37  1  0
 20 38  1  0
 21 39  1  0
 21 40  1  0
 22 41  1  0
 22 42  1  0
 22 43  1  0
M  CHG  3   2  -1  13  -1  23   2
M  END
> <Uni-Dock RESULT> 
ENERGY=   -5.068  LOWER_BOUND=    2.878  UPPER_BOUND=    5.924
INTER + INTRA:          -5.068
INTER:                  -5.068
INTRA:                   0.000
UNBOUND:                 0.000

$$$$

     RDKit          3D

 43 40  0  0  0  0  0  0  0  0999 V2000
   43.9800    3.8714   11.1107 S   0  0  0  0  0  0  0  0  0  0  0  0
   43.7125    2.4346   11.1060 O   0  0  0  0  0  0  0  0  0  0  0  0
   42.8347    4.7092   11.4511 O   0  0  0  0  0  0  0  0  0  0  0  0
   44.7791    4.3407    9.9802 O   0  0  0  0  0  0  0  0  0  0  0  0
   46.5158    8.4371   12.9302 C   0  0  0  0  0  0  0  0  0  0  0  0
   45.3823    8.6006   13.3652 O   0  0  0  0  0  0  0  0  0  0  0  0
   45.0721    4.0607   12.5011 C   0  0  0  0  0  0  0  0  0  0  0  0
   46.9398    7.3440   12.2113 N   0  0  0  0  0  0  0  0  0  0  0  0
   45.3994    5.5026   12.8788 C   0  0  0  0  0  0  0  0  0  0  0  0
   46.0338    6.3021   11.7431 C   0  0  0  0  0  0  0  0  0  0  0  0
   47.5950    9.4650   13.1490 C   0  0  0  0  0  0  0  0  0  0  0  0
   43.7686    3.2583   11.6898 S   0  0  0  0  0  0  0  0  0  0  0  0
   42.6597    4.0892   11.2268 O   0  0  0  0  0  0  0  0  0  0  0  0
   43.3884    2.1635   12.5794 O   0  0  0  0  0  0  0  0  0  0  0  0
   44.7488    2.9049   10.6649 O   0  0  0  0  0  0  0  0  0  0  0  0
   47.1658    8.6370   12.9139 C   0  0  0  0  0  0  0  0  0  0  0  0
   47.3237    8.6782   14.1298 O   0  0  0  0  0  0  0  0  0  0  0  0
   44.6769    4.3446   12.7661 C   0  0  0  0  0  0  0  0  0  0  0  0
   46.5134    7.6250   12.2514 N   0  0  0  0  0  0  0  0  0  0  0  0
   45.1738    5.5868   12.0404 C   0  0  0  0  0  0  0  0  0  0  0  0
   46.0256    6.4532   12.9534 C   0  0  0  0  0  0  0  0  0  0  0  0
   47.7011    9.7125   12.0067 C   0  0  0  0  0  0  0  0  0  0  0  0
   45.8424    6.3170   12.3128 Ca  0  0  0  0  0 15  0  0  0  0  0  0
   44.5878    3.5681   13.3517 H   0  0  0  0  0  0  0  0  0  0  0  0
   45.9873    3.5045   12.2703 H   0  0  0  0  0  0  0  0  0  0  0  0
   47.8075    7.4255   11.7009 H   0  0  0  0  0  0  0  0  0  0  0  0
   44.4924    6.0154   13.2202 H   0  0  0  0  0  0  0  0  0  0  0  0
   46.0792    5.4746   13.7398 H   0  0  0  0  0  0  0  0  0  0  0  0
   45.2667    6.7764   11.1219 H   0  0  0  0  0  0  0  0  0  0  0  0
   46.6513    5.6550   11.1120 H   0  0  0  0  0  0  0  0  0  0  0  0
   48.5915    9.0439   12.9893 H   0  0  0  0  0  0  0  0  0  0  0  0
   47.4419   10.2975   12.4573 H   0  0  0  0  0  0  0  0  0  0  0  0
   47.5410    9.8272   14.1795 H   0  0  0  0  0  0  0  0  0  0  0  0
   45.5150    3.7670   13.1711 H   0  0  0  0  0  0  0  0  0  0  0  0
   44.0123    4.6168   13.5930 H   0  0  0  0  0  0  0  0  0  0  0  0
   46.6254    7.5498   11.2482 H   0  0  0  0  0  0  0  0  0  0  0  0
   44.3243    6.1702   11.6642 H   0  0  0  0  0  0  0  0  0  0  0  0
   45.7608    5.3008   11.1589 H   0  0  0  0  0  0  0  0  0  0  0  0
   45.4554    6.7849   13.8285 H   0  0  0  0  0  0  0  0  0  0  0  0
   46.8998    5.8991   13.3138 H   0  0  0  0  0  0  0  0  0  0  0  0
   47.4803   10.6910   12.4425 H   0  0  0  0  0  0  0  0  0  0  0  0
   47.2407    9.6696   11.0157 H   0  0  0  0  0  0  0  0  0  0  0  0
   48.7824    9.5895   11.9047 H   0  0  0  0  0  0  0  0  0  0  0  0
  2  1  1  0
  3  1  2  0
  4  1  2  0
  5  8  1  0
  6  5  2  0
  7  1  1  0
  8 10  1  0
  9  7  1  0
 10  9  1  0
 11  5  1  0
 13 12  1  0
 14 12  2  0
 15 12  2  0
 16 19  1  0
 17 16  2  0
 18 12  1  0
 19 21  1  0
 20 18  1  0
 21 20  1  0
 22 16  1  0
  7 24  1  0
  7 25  1  0
  8 26  1  0
  9 27  1  0
  9 28  1  0
 10 29  1  0
 10 30  1  0
 11 31  1  0
 11 32  1  0
 11 33  1  0
 18 34  1  0
 18 35  1  0
 19 36  1  0
 20 37  1  0
 20 38  1  0
 21 39  1  0
 21 40  1  0
 22 41  1  0
 22 42  1  0
 22 43  1  0
M  CHG  3   2  -1  13  -1  23   2
M  END
> <Uni-Dock RESULT> 
ENERGY=   -4.992  LOWER_BOUND=    4.735  UPPER_BOUND=    6.232
INTER + INTRA:          -4.992
INTER:                  -4.992
INTRA:                   0.000
UNBOUND:                 0.000

$$$$

     RDKit          3D

 43 40  0  0  0  0  0  0  0  0999 V2000
   43.9080    3.8217   12.1762 S   0  0  0  0  0  0  0  0  0  0  0  0
   42.9254    3.1382   11.3376 O   0  0  0  0  0  0  0  0  0  0  0  0
   45.0469    3.0037   12.5803 O   0  0  0  0  0  0  0  0  0  0  0  0
   43.3290    4.6471   13.2345 O   0  0  0  0  0  0  0  0  0  0  0  0
   47.6949    7.7191   13.2036 C   0  0  0  0  0  0  0  0  0  0  0  0
   48.3955    6.7176   13.1200 O   0  0  0  0  0  0  0  0  0  0  0  0
   44.6150    5.0107   11.0590 C   0  0  0  0  0  0  0  0  0  0  0  0
   46.3300    7.7489   13.0370 N   0  0  0  0  0  0  0  0  0  0  0  0
   45.8176    5.7775   11.6017 C   0  0  0  0  0  0  0  0  0  0  0  0
   45.5223    6.5443   12.8887 C   0  0  0  0  0  0  0  0  0  0  0  0
   48.2897    9.0678   13.5140 C   0  0  0  0  0  0  0  0  0  0  0  0
   43.8775    3.4761   11.3789 S   0  0  0  0  0  0  0  0  0  0  0  0
   44.5006    2.6372   12.3998 O   0  0  0  0  0  0  0  0  0  0  0  0
   43.7336    2.8469   10.0682 O   0  0  0  0  0  0  0  0  0  0  0  0
   42.7120    4.2357   11.8270 O   0  0  0  0  0  0  0  0  0  0  0  0
   47.6537    8.3966   13.2495 C   0  0  0  0  0  0  0  0  0  0  0  0
   48.3986    8.6402   12.3057 O   0  0  0  0  0  0  0  0  0  0  0  0
   45.0962    4.7366   11.0802 C   0  0  0  0  0  0  0  0  0  0  0  0
   46.6774    7.4294   13.2361 N   0  0  0  0  0  0  0  0  0  0  0  0
   45.4184    5.5320   12.3374 C   0  0  0  0  0  0  0  0  0  0  0  0
   46.3896    6.6622   12.0392 C   0  0  0  0  0  0  0  0  0  0  0  0
   47.7301    9.1666   14.5408 C   0  0  0  0  0  0  0  0  0  0  0  0
   45.9405    6.4045   12.4801 Ca  0  0  0  0  0 15  0  0  0  0  0  0
   44.9165    4.4593   10.1612 H   0  0  0  0  0  0  0  0  0  0  0  0
   43.8136    5.7008   10.7731 H   0  0  0  0  0  0  0  0  0  0  0  0
   45.8346    8.5654   13.3656 H   0  0  0  0  0  0  0  0  0  0  0  0
   46.6538    5.0896   11.7737 H   0  0  0  0  0  0  0  0  0  0  0  0
   46.1480    6.4738   10.8205 H   0  0  0  0  0  0  0  0  0  0  0  0
   45.6922    5.9139   13.7680 H   0  0  0  0  0  0  0  0  0  0  0  0
   44.4861    6.8972   12.8999 H   0  0  0  0  0  0  0  0  0  0  0  0
   47.6094    9.8804   13.2443 H   0  0  0  0  0  0  0  0  0  0  0  0
   48.5104    9.1243   14.5831 H   0  0  0  0  0  0  0  0  0  0  0  0
   49.2122    9.1931   12.9400 H   0  0  0  0  0  0  0  0  0  0  0  0
   44.6965    5.3894   10.2965 H   0  0  0  0  0  0  0  0  0  0  0  0
   45.9925    4.2402   10.6935 H   0  0  0  0  0  0  0  0  0  0  0  0
   45.9664    7.4467   13.9564 H   0  0  0  0  0  0  0  0  0  0  0  0
   45.8433    4.8720   13.1038 H   0  0  0  0  0  0  0  0  0  0  0  0
   44.4990    5.9468   12.7688 H   0  0  0  0  0  0  0  0  0  0  0  0
   47.3338    6.2766   11.6384 H   0  0  0  0  0  0  0  0  0  0  0  0
   45.9694    7.3533   11.2996 H   0  0  0  0  0  0  0  0  0  0  0  0
   48.7790    9.2772   14.8300 H   0  0  0  0  0  0  0  0  0  0  0  0
   47.2067    8.6493   15.3499 H   0  0  0  0  0  0  0  0  0  0  0  0
   47.2810   10.1527   14.3969 H   0  0  0  0  0  0  0  0  0  0  0  0
  2  1  1  0
  3  1  2  0
  4  1  2  0
  5  8  1  0
  6  5  2  0
  7  1  1  0
  8 10  1  0
  9  7  1  0
 10  9  1  0
 11  5  1  0
 13 12  1  0
 14 12  2  0
 15 12  2  0
 16 19  1  0
 17 16  2  0
 18 12  1  0
 19 21  1  0
 20 18  1  0
 21 20  1  0
 22 16  1  0
  7 24  1  0
  7 25  1  0
  8 26  1  0
  9 27  1  0
  9 28  1  0
 10 29  1  0
 10 30  1  0
 11 31  1  0
 11 32  1  0
 11 33  1  0
 18 34  1  0
 18 35  1  0
 19 36  1  0
 20 37  1  0
 20 38  1  0
 21 39  1  0
 21 40  1  0
 22 41  1  0
 22 42  1  0
 22 43  1  0
M  CHG  3   2  -1  13  -1  23   2
M  END
> <Uni-Dock RESULT> 
ENERGY=   -4.466  LOWER_BOUND=    4.676  UPPER_BOUND=    6.281
INTER + INTRA:          -4.466
INTER:                  -4.466
INTRA:                   0.000
UNBOUND:                 0.000

$$$$
