
     RDKit          3D

 43 40  0  0  0  0  0  0  0  0999 V2000
   43.9908    4.2612   11.6117 S   0  0  0  0  0  0  0  0  0  0  0  0
   43.6758    2.8346   11.5921 O   0  0  0  0  0  0  0  0  0  0  0  0
   45.3604    4.5835   12.0061 O   0  0  0  0  0  0  0  0  0  0  0  0
   42.9626    5.1042   12.2169 O   0  0  0  0  0  0  0  0  0  0  0  0
   46.3887    2.3325    6.7945 C   0  0  0  0  0  0  0  0  0  0  0  0
   45.3956    2.5325    6.1025 O   0  0  0  0  0  0  0  0  0  0  0  0
   43.9270    4.7241    9.8939 C   0  0  0  0  0  0  0  0  0  0  0  0
   46.4039    2.3737    8.1662 N   0  0  0  0  0  0  0  0  0  0  0  0
   45.1258    4.2607    9.0747 C   0  0  0  0  0  0  0  0  0  0  0  0
   45.2434    2.7441    8.9615 C   0  0  0  0  0  0  0  0  0  0  0  0
   47.7190    1.9821    6.1826 C   0  0  0  0  0  0  0  0  0  0  0  0
   43.4333    3.5779   11.9661 S   0  0  0  0  0  0  0  0  0  0  0  0
   42.4284    4.5693   12.3426 O   0  0  0  0  0  0  0  0  0  0  0  0
   44.6423    3.5841   12.7866 O   0  0  0  0  0  0  0  0  0  0  0  0
   42.9020    2.2526   11.6544 O   0  0  0  0  0  0  0  0  0  0  0  0
   47.1728    3.2258    6.6874 C   0  0  0  0  0  0  0  0  0  0  0  0
   46.9809    4.2610    6.0578 O   0  0  0  0  0  0  0  0  0  0  0  0
   44.0018    4.1707   10.3881 C   0  0  0  0  0  0  0  0  0  0  0  0
   46.5358    2.9056    7.8625 N   0  0  0  0  0  0  0  0  0  0  0  0
   45.0924    3.2850    9.8024 C   0  0  0  0  0  0  0  0  0  0  0  0
   45.4939    3.7518    8.4129 C   0  0  0  0  0  0  0  0  0  0  0  0
   48.1637    2.1908    6.2246 C   0  0  0  0  0  0  0  0  0  0  0  0
   45.4619    3.3375    8.7572 Ca  0  0  0  0  0 15  0  0  0  0  0  0
   43.8873    5.8191    9.8702 H   0  0  0  0  0  0  0  0  0  0  0  0
   42.9872    4.3440    9.4804 H   0  0  0  0  0  0  0  0  0  0  0  0
   47.2778    2.2882    8.6667 H   0  0  0  0  0  0  0  0  0  0  0  0
   46.0530    4.6683    9.4962 H   0  0  0  0  0  0  0  0  0  0  0  0
   45.0396    4.6906    8.0686 H   0  0  0  0  0  0  0  0  0  0  0  0
   44.3450    2.3211    8.4989 H   0  0  0  0  0  0  0  0  0  0  0  0
   45.3958    2.2728    9.9347 H   0  0  0  0  0  0  0  0  0  0  0  0
   47.9005    2.6356    5.3229 H   0  0  0  0  0  0  0  0  0  0  0  0
   47.6979    0.9377    5.8554 H   0  0  0  0  0  0  0  0  0  0  0  0
   48.5406    2.1176    6.8940 H   0  0  0  0  0  0  0  0  0  0  0  0
   43.1295    4.2072    9.7263 H   0  0  0  0  0  0  0  0  0  0  0  0
   44.3687    5.1921   10.5354 H   0  0  0  0  0  0  0  0  0  0  0  0
   46.5781    1.9503    8.1952 H   0  0  0  0  0  0  0  0  0  0  0  0
   45.9706    3.2833   10.4598 H   0  0  0  0  0  0  0  0  0  0  0  0
   44.7487    2.2443    9.7508 H   0  0  0  0  0  0  0  0  0  0  0  0
   45.8613    4.7841    8.4338 H   0  0  0  0  0  0  0  0  0  0  0  0
   44.6410    3.7136    7.7257 H   0  0  0  0  0  0  0  0  0  0  0  0
   49.1719    2.6101    6.2864 H   0  0  0  0  0  0  0  0  0  0  0  0
   47.9386    1.9193    5.1890 H   0  0  0  0  0  0  0  0  0  0  0  0
   48.1231    1.2840    6.8350 H   0  0  0  0  0  0  0  0  0  0  0  0
  2  1  1  0
  3  1  2  0
  4  1  2  0
  5  8  1  0
  6  5  2  0
  7  1  1  0
  8 10  1  0
  9  7  1  0
 10  9  1  0
 11  5  1  0
 13 12  1  0
 14 12  2  0
 15 12  2  0
 16 19  1  0
 17 16  2  0
 18 12  1  0
 19 21  1  0
 20 18  1  0
 21 20  1  0
 22 16  1  0
  7 24  1  0
  7 25  1  0
  8 26  1  0
  9 27  1  0
  9 28  1  0
 10 29  1  0
 10 30  1  0
 11 31  1  0
 11 32  1  0
 11 33  1  0
 18 34  1  0
 18 35  1  0
 19 36  1  0
 20 37  1  0
 20 38  1  0
 21 39  1  0
 21 40  1  0
 22 41  1  0
 22 42  1  0
 22 43  1  0
M  CHG  3   2  -1  13  -1  23   2
M  END
> <Uni-Dock RESULT> 
ENERGY=   -6.587  LOWER_BOUND=    0.000  UPPER_BOUND=    0.000
INTER + INTRA:          -6.587
INTER:                  -6.587
INTRA:                   0.000
UNBOUND:                 0.000

$$$$

     RDKit          3D

 43 40  0  0  0  0  0  0  0  0999 V2000
   47.5059    8.8319   12.9117 S   0  0  0  0  0  0  0  0  0  0  0  0
   47.7971    8.0329   14.0997 O   0  0  0  0  0  0  0  0  0  0  0  0
   48.0123    8.2776   11.6580 O   0  0  0  0  0  0  0  0  0  0  0  0
   47.7143   10.2683   13.0770 O   0  0  0  0  0  0  0  0  0  0  0  0
   43.7557    4.5234   12.6930 C   0  0  0  0  0  0  0  0  0  0  0  0
   42.8914    5.1116   13.3350 O   0  0  0  0  0  0  0  0  0  0  0  0
   45.7382    8.7011   12.7464 C   0  0  0  0  0  0  0  0  0  0  0  0
   45.0585    4.9388   12.5769 N   0  0  0  0  0  0  0  0  0  0  0  0
   45.2560    7.3572   12.2129 C   0  0  0  0  0  0  0  0  0  0  0  0
   45.5470    6.1857   13.1455 C   0  0  0  0  0  0  0  0  0  0  0  0
   43.4635    3.2327   11.9747 C   0  0  0  0  0  0  0  0  0  0  0  0
   47.9305    8.8198   13.7618 S   0  0  0  0  0  0  0  0  0  0  0  0
   47.8867   10.2788   13.8236 O   0  0  0  0  0  0  0  0  0  0  0  0
   48.8989    8.2722   12.8146 O   0  0  0  0  0  0  0  0  0  0  0  0
   47.8839    8.1484   15.0592 O   0  0  0  0  0  0  0  0  0  0  0  0
   43.5495    4.6061   11.5204 C   0  0  0  0  0  0  0  0  0  0  0  0
   42.6581    5.2742   11.0065 O   0  0  0  0  0  0  0  0  0  0  0  0
   46.3610    8.4076   13.0329 C   0  0  0  0  0  0  0  0  0  0  0  0
   44.6549    5.1375   12.1407 N   0  0  0  0  0  0  0  0  0  0  0  0
   46.1915    6.9062   12.8487 C   0  0  0  0  0  0  0  0  0  0  0  0
   44.8081    6.5692   12.3172 C   0  0  0  0  0  0  0  0  0  0  0  0
   43.5196    3.1008   11.5030 C   0  0  0  0  0  0  0  0  0  0  0  0
   45.2362    6.3996   12.5984 Ca  0  0  0  0  0 15  0  0  0  0  0  0
   45.4343    9.4868   12.0455 H   0  0  0  0  0  0  0  0  0  0  0  0
   45.2940    8.9288   13.7209 H   0  0  0  0  0  0  0  0  0  0  0  0
   45.6927    4.4533   11.9576 H   0  0  0  0  0  0  0  0  0  0  0  0
   45.6990    7.1593   11.2290 H   0  0  0  0  0  0  0  0  0  0  0  0
   44.1733    7.4236   12.0462 H   0  0  0  0  0  0  0  0  0  0  0  0
   45.0730    6.3421   14.1206 H   0  0  0  0  0  0  0  0  0  0  0  0
   46.6189    6.0376   13.2926 H   0  0  0  0  0  0  0  0  0  0  0  0
   42.5056    3.3233   11.4518 H   0  0  0  0  0  0  0  0  0  0  0  0
   43.4100    2.4205   12.7067 H   0  0  0  0  0  0  0  0  0  0  0  0
   44.2356    2.9970   11.2346 H   0  0  0  0  0  0  0  0  0  0  0  0
   45.5852    8.8111   13.6928 H   0  0  0  0  0  0  0  0  0  0  0  0
   46.3015    8.9259   12.0699 H   0  0  0  0  0  0  0  0  0  0  0  0
   45.2193    4.5371   12.7290 H   0  0  0  0  0  0  0  0  0  0  0  0
   46.9552    6.5219   12.1613 H   0  0  0  0  0  0  0  0  0  0  0  0
   46.3508    6.3868   13.8020 H   0  0  0  0  0  0  0  0  0  0  0  0
   44.6251    7.0584   11.3537 H   0  0  0  0  0  0  0  0  0  0  0  0
   44.0298    6.9005   13.0142 H   0  0  0  0  0  0  0  0  0  0  0  0
   43.6284    2.7541   10.4714 H   0  0  0  0  0  0  0  0  0  0  0  0
   42.5635    2.7581   11.9097 H   0  0  0  0  0  0  0  0  0  0  0  0
   44.3245    2.6688   12.1047 H   0  0  0  0  0  0  0  0  0  0  0  0
  2  1  1  0
  3  1  2  0
  4  1  2  0
  5  8  1  0
  6  5  2  0
  7  1  1  0
  8 10  1  0
  9  7  1  0
 10  9  1  0
 11  5  1  0
 13 12  1  0
 14 12  2  0
 15 12  2  0
 16 19  1  0
 17 16  2  0
 18 12  1  0
 19 21  1  0
 20 18  1  0
 21 20  1  0
 22 16  1  0
  7 24  1  0
  7 25  1  0
  8 26  1  0
  9 27  1  0
  9 28  1  0
 10 29  1  0
 10 30  1  0
 11 31  1  0
 11 32  1  0
 11 33  1  0
 18 34  1  0
 18 35  1  0
 19 36  1  0
 20 37  1  0
 20 38  1  0
 21 39  1  0
 21 40  1  0
 22 41  1  0
 22 42  1  0
 22 43  1  0
M  CHG  3   2  -1  13  -1  23   2
M  END
> <Uni-Dock RESULT> 
ENERGY=   -5.019  LOWER_BOUND=    4.574  UPPER_BOUND=    6.302
INTER + INTRA:          -5.019
INTER:                  -5.019
INTRA:                   0.000
UNBOUND:                 0.000

$$$$

     RDKit          3D

 43 40  0  0  0  0  0  0  0  0999 V2000
   43.5900    4.4616   12.3002 S   0  0  0  0  0  0  0  0  0  0  0  0
   44.6927    3.6272   12.7719 O   0  0  0  0  0  0  0  0  0  0  0  0
   42.9181    5.2385   13.3396 O   0  0  0  0  0  0  0  0  0  0  0  0
   42.6964    3.8090   11.3465 O   0  0  0  0  0  0  0  0  0  0  0  0
   47.9119    8.1172   13.0959 C   0  0  0  0  0  0  0  0  0  0  0  0
   48.3500    8.0024   11.9557 O   0  0  0  0  0  0  0  0  0  0  0  0
   44.3999    5.6977   11.3076 C   0  0  0  0  0  0  0  0  0  0  0  0
   46.9673    7.2931   13.6545 N   0  0  0  0  0  0  0  0  0  0  0  0
   45.1350    6.7643   12.1109 C   0  0  0  0  0  0  0  0  0  0  0  0
   46.3118    6.2240   12.9172 C   0  0  0  0  0  0  0  0  0  0  0  0
   48.4094    9.1901   14.0278 C   0  0  0  0  0  0  0  0  0  0  0  0
   43.9274    3.5758   12.3684 S   0  0  0  0  0  0  0  0  0  0  0  0
   43.0737    3.1473   11.2629 O   0  0  0  0  0  0  0  0  0  0  0  0
   43.2249    3.8421   13.6216 O   0  0  0  0  0  0  0  0  0  0  0  0
   45.1771    2.8302   12.5042 O   0  0  0  0  0  0  0  0  0  0  0  0
   47.2270    9.0894   13.1962 C   0  0  0  0  0  0  0  0  0  0  0  0
   46.9080    9.8261   12.2685 O   0  0  0  0  0  0  0  0  0  0  0  0
   44.4691    5.1882   11.8477 C   0  0  0  0  0  0  0  0  0  0  0  0
   46.7611    7.8068   13.3609 N   0  0  0  0  0  0  0  0  0  0  0  0
   45.3734    5.8493   12.8783 C   0  0  0  0  0  0  0  0  0  0  0  0
   45.9034    7.1809   12.3724 C   0  0  0  0  0  0  0  0  0  0  0  0
   48.1718    9.5428   14.2773 C   0  0  0  0  0  0  0  0  0  0  0  0
   45.9834    6.7591   12.6993 Ca  0  0  0  0  0 15  0  0  0  0  0  0
   43.6148    6.1822   10.7161 H   0  0  0  0  0  0  0  0  0  0  0  0
   45.0730    5.1816   10.6153 H   0  0  0  0  0  0  0  0  0  0  0  0
   46.5873    7.5024   14.5673 H   0  0  0  0  0  0  0  0  0  0  0  0
   44.4379    7.2798   12.7831 H   0  0  0  0  0  0  0  0  0  0  0  0
   45.4986    7.5288   11.4125 H   0  0  0  0  0  0  0  0  0  0  0  0
   47.0439    5.7455   12.2576 H   0  0  0  0  0  0  0  0  0  0  0  0
   45.9921    5.5034   13.6730 H   0  0  0  0  0  0  0  0  0  0  0  0
   48.4774   10.1360   13.4804 H   0  0  0  0  0  0  0  0  0  0  0  0
   49.3984    8.9077   14.4025 H   0  0  0  0  0  0  0  0  0  0  0  0
   47.7330    9.3349   14.8770 H   0  0  0  0  0  0  0  0  0  0  0  0
   44.9922    5.0580   10.8940 H   0  0  0  0  0  0  0  0  0  0  0  0
   43.5732    5.7933   11.6723 H   0  0  0  0  0  0  0  0  0  0  0  0
   47.2377    7.1951   14.0118 H   0  0  0  0  0  0  0  0  0  0  0  0
   44.8267    6.0018   13.8171 H   0  0  0  0  0  0  0  0  0  0  0  0
   46.2169    5.1909   13.1206 H   0  0  0  0  0  0  0  0  0  0  0  0
   45.0835    7.8698   12.1396 H   0  0  0  0  0  0  0  0  0  0  0  0
   46.4960    7.0450   11.4605 H   0  0  0  0  0  0  0  0  0  0  0  0
   47.6952   10.3390   14.8561 H   0  0  0  0  0  0  0  0  0  0  0  0
   49.0888    9.9197   13.8147 H   0  0  0  0  0  0  0  0  0  0  0  0
   48.4383    8.7274   14.9559 H   0  0  0  0  0  0  0  0  0  0  0  0
  2  1  1  0
  3  1  2  0
  4  1  2  0
  5  8  1  0
  6  5  2  0
  7  1  1  0
  8 10  1  0
  9  7  1  0
 10  9  1  0
 11  5  1  0
 13 12  1  0
 14 12  2  0
 15 12  2  0
 16 19  1  0
 17 16  2  0
 18 12  1  0
 19 21  1  0
 20 18  1  0
 21 20  1  0
 22 16  1  0
  7 24  1  0
  7 25  1  0
  8 26  1  0
  9 27  1  0
  9 28  1  0
 10 29  1  0
 10 30  1  0
 11 31  1  0
 11 32  1  0
 11 33  1  0
 18 34  1  0
 18 35  1  0
 19 36  1  0
 20 37  1  0
 20 38  1  0
 21 39  1  0
 21 40  1  0
 22 41  1  0
 22 42  1  0
 22 43  1  0
M  CHG  3   2  -1  13  -1  23   2
M  END
> <Uni-Dock RESULT> 
ENERGY=   -4.891  LOWER_BOUND=    4.422  UPPER_BOUND=    5.846
INTER + INTRA:          -4.891
INTER:                  -4.891
INTRA:                   0.000
UNBOUND:                 0.000

$$$$

     RDKit          3D

 43 40  0  0  0  0  0  0  0  0999 V2000
   46.3502    2.6845    7.1202 S   0  0  0  0  0  0  0  0  0  0  0  0
   47.2821    3.7824    7.3667 O   0  0  0  0  0  0  0  0  0  0  0  0
   46.4169    1.5917    8.0881 O   0  0  0  0  0  0  0  0  0  0  0  0
   46.2592    2.2639    5.7241 O   0  0  0  0  0  0  0  0  0  0  0  0
   43.9823    5.6366   11.4042 C   0  0  0  0  0  0  0  0  0  0  0  0
   43.3425    6.3820   10.6692 O   0  0  0  0  0  0  0  0  0  0  0  0
   44.7561    3.4174    7.4214 C   0  0  0  0  0  0  0  0  0  0  0  0
   44.9841    4.7985   10.9831 N   0  0  0  0  0  0  0  0  0  0  0  0
   44.4335    3.6330    8.8954 C   0  0  0  0  0  0  0  0  0  0  0  0
   45.3496    4.6397    9.5839 C   0  0  0  0  0  0  0  0  0  0  0  0
   43.7391    5.5942   12.8895 C   0  0  0  0  0  0  0  0  0  0  0  0
   47.0743    3.1900    6.7691 S   0  0  0  0  0  0  0  0  0  0  0  0
   46.7133    2.7950    5.4096 O   0  0  0  0  0  0  0  0  0  0  0  0
   47.6716    2.1315    7.5800 O   0  0  0  0  0  0  0  0  0  0  0  0
   47.7227    4.4953    6.8777 O   0  0  0  0  0  0  0  0  0  0  0  0
   43.3023    4.7406   11.8030 C   0  0  0  0  0  0  0  0  0  0  0  0
   42.1478    4.5207   11.4509 O   0  0  0  0  0  0  0  0  0  0  0  0
   45.4918    3.4557    7.5370 C   0  0  0  0  0  0  0  0  0  0  0  0
   44.4031    4.5644   10.9990 N   0  0  0  0  0  0  0  0  0  0  0  0
   45.6249    3.8633    8.9975 C   0  0  0  0  0  0  0  0  0  0  0  0
   44.2690    4.1804    9.6065 C   0  0  0  0  0  0  0  0  0  0  0  0
   43.6274    5.2214   13.1923 C   0  0  0  0  0  0  0  0  0  0  0  0
   44.8015    4.2660    9.6234 Ca  0  0  0  0  0 15  0  0  0  0  0  0
   44.0150    2.7309    6.9964 H   0  0  0  0  0  0  0  0  0  0  0  0
   44.7081    4.3553    6.8586 H   0  0  0  0  0  0  0  0  0  0  0  0
   45.4058    4.1466   11.6302 H   0  0  0  0  0  0  0  0  0  0  0  0
   44.4695    2.6783    9.4347 H   0  0  0  0  0  0  0  0  0  0  0  0
   43.3955    3.9811    8.9713 H   0  0  0  0  0  0  0  0  0  0  0  0
   45.2927    5.6149    9.0882 H   0  0  0  0  0  0  0  0  0  0  0  0
   46.3896    4.3066    9.5914 H   0  0  0  0  0  0  0  0  0  0  0  0
   42.6599    5.5826   13.0750 H   0  0  0  0  0  0  0  0  0  0  0  0
   44.1841    6.4819   13.3500 H   0  0  0  0  0  0  0  0  0  0  0  0
   44.1736    4.6984   13.3459 H   0  0  0  0  0  0  0  0  0  0  0  0
   44.9813    4.2335    6.9584 H   0  0  0  0  0  0  0  0  0  0  0  0
   44.9228    2.5244    7.4442 H   0  0  0  0  0  0  0  0  0  0  0  0
   45.2836    4.9769   11.2812 H   0  0  0  0  0  0  0  0  0  0  0  0
   46.1089    3.0624    9.5700 H   0  0  0  0  0  0  0  0  0  0  0  0
   46.2781    4.7402    9.0884 H   0  0  0  0  0  0  0  0  0  0  0  0
   43.5980    3.3159    9.5488 H   0  0  0  0  0  0  0  0  0  0  0  0
   43.7887    5.0130    9.0798 H   0  0  0  0  0  0  0  0  0  0  0  0
   43.3848    4.4314   13.9087 H   0  0  0  0  0  0  0  0  0  0  0  0
   43.0325    6.1135   13.4095 H   0  0  0  0  0  0  0  0  0  0  0  0
   44.6853    5.4786   13.2989 H   0  0  0  0  0  0  0  0  0  0  0  0
  2  1  1  0
  3  1  2  0
  4  1  2  0
  5  8  1  0
  6  5  2  0
  7  1  1  0
  8 10  1  0
  9  7  1  0
 10  9  1  0
 11  5  1  0
 13 12  1  0
 14 12  2  0
 15 12  2  0
 16 19  1  0
 17 16  2  0
 18 12  1  0
 19 21  1  0
 20 18  1  0
 21 20  1  0
 22 16  1  0
  7 24  1  0
  7 25  1  0
  8 26  1  0
  9 27  1  0
  9 28  1  0
 10 29  1  0
 10 30  1  0
 11 31  1  0
 11 32  1  0
 11 33  1  0
 18 34  1  0
 18 35  1  0
 19 36  1  0
 20 37  1  0
 20 38  1  0
 21 39  1  0
 21 40  1  0
 22 41  1  0
 22 42  1  0
 22 43  1  0
M  CHG  3   2  -1  13  -1  23   2
M  END
> <Uni-Dock RESULT> 
ENERGY=   -4.876  LOWER_BOUND=    2.625  UPPER_BOUND=    5.655
INTER + INTRA:          -4.876
INTER:                  -4.876
INTRA:                   0.000
UNBOUND:                 0.000

$$$$

     RDKit          3D

 43 40  0  0  0  0  0  0  0  0999 V2000
   43.7459    5.2816   11.6499 S   0  0  0  0  0  0  0  0  0  0  0  0
   43.5027    6.5777   11.0208 O   0  0  0  0  0  0  0  0  0  0  0  0
   44.5814    4.3680   10.8735 O   0  0  0  0  0  0  0  0  0  0  0  0
   42.5680    4.6692   12.2595 O   0  0  0  0  0  0  0  0  0  0  0  0
   48.5963    8.1967   12.4566 C   0  0  0  0  0  0  0  0  0  0  0  0
   48.2437    8.6816   13.5269 O   0  0  0  0  0  0  0  0  0  0  0  0
   44.7590    5.6865   13.0566 C   0  0  0  0  0  0  0  0  0  0  0  0
   47.7615    7.5462   11.5829 N   0  0  0  0  0  0  0  0  0  0  0  0
   46.2054    6.0218   12.7120 C   0  0  0  0  0  0  0  0  0  0  0  0
   46.3596    7.2851   11.8711 C   0  0  0  0  0  0  0  0  0  0  0  0
   50.0187    8.3010   11.9738 C   0  0  0  0  0  0  0  0  0  0  0  0
   43.0849    5.8802   11.3213 S   0  0  0  0  0  0  0  0  0  0  0  0
   42.0674    5.2391   12.1507 O   0  0  0  0  0  0  0  0  0  0  0  0
   43.5292    5.0933   10.1731 O   0  0  0  0  0  0  0  0  0  0  0  0
   42.8524    7.2973   11.0494 O   0  0  0  0  0  0  0  0  0  0  0  0
   49.2840    7.2363   12.6269 C   0  0  0  0  0  0  0  0  0  0  0  0
   49.5275    6.7275   13.7163 O   0  0  0  0  0  0  0  0  0  0  0  0
   44.5098    5.8979   12.3863 C   0  0  0  0  0  0  0  0  0  0  0  0
   48.0556    7.1965   12.0116 N   0  0  0  0  0  0  0  0  0  0  0  0
   45.7244    6.5154   11.7080 C   0  0  0  0  0  0  0  0  0  0  0  0
   46.9008    6.6106   12.6656 C   0  0  0  0  0  0  0  0  0  0  0  0
   50.3436    7.9567   11.8360 C   0  0  0  0  0  0  0  0  0  0  0  0
   46.6608    6.8106   12.2256 Ca  0  0  0  0  0 15  0  0  0  0  0  0
   44.7483    4.8059   13.7088 H   0  0  0  0  0  0  0  0  0  0  0  0
   44.2731    6.5084   13.5924 H   0  0  0  0  0  0  0  0  0  0  0  0
   48.1393    7.0929   10.7623 H   0  0  0  0  0  0  0  0  0  0  0  0
   46.6765    5.1780   12.1928 H   0  0  0  0  0  0  0  0  0  0  0  0
   46.7612    6.1446   13.6503 H   0  0  0  0  0  0  0  0  0  0  0  0
   45.9364    8.1501   12.3933 H   0  0  0  0  0  0  0  0  0  0  0  0
   45.8759    7.1885   10.8967 H   0  0  0  0  0  0  0  0  0  0  0  0
   50.6959    8.0816   12.8059 H   0  0  0  0  0  0  0  0  0  0  0  0
   50.1986    9.3172   11.6086 H   0  0  0  0  0  0  0  0  0  0  0  0
   50.2263    7.5891   11.1677 H   0  0  0  0  0  0  0  0  0  0  0  0
   44.2325    6.4629   13.2830 H   0  0  0  0  0  0  0  0  0  0  0  0
   44.7129    4.8618   12.6779 H   0  0  0  0  0  0  0  0  0  0  0  0
   47.8783    7.8231   11.2365 H   0  0  0  0  0  0  0  0  0  0  0  0
   46.0091    5.9215   10.8307 H   0  0  0  0  0  0  0  0  0  0  0  0
   45.4804    7.5167   11.3317 H   0  0  0  0  0  0  0  0  0  0  0  0
   47.1824    5.6217   13.0450 H   0  0  0  0  0  0  0  0  0  0  0  0
   46.6541    7.2421   13.5268 H   0  0  0  0  0  0  0  0  0  0  0  0
   51.1007    7.2356   11.5151 H   0  0  0  0  0  0  0  0  0  0  0  0
   50.8047    8.7201   12.4698 H   0  0  0  0  0  0  0  0  0  0  0  0
   49.9298    8.4481   10.9507 H   0  0  0  0  0  0  0  0  0  0  0  0
  2  1  1  0
  3  1  2  0
  4  1  2  0
  5  8  1  0
  6  5  2  0
  7  1  1  0
  8 10  1  0
  9  7  1  0
 10  9  1  0
 11  5  1  0
 13 12  1  0
 14 12  2  0
 15 12  2  0
 16 19  1  0
 17 16  2  0
 18 12  1  0
 19 21  1  0
 20 18  1  0
 21 20  1  0
 22 16  1  0
  7 24  1  0
  7 25  1  0
  8 26  1  0
  9 27  1  0
  9 28  1  0
 10 29  1  0
 10 30  1  0
 11 31  1  0
 11 32  1  0
 11 33  1  0
 18 34  1  0
 18 35  1  0
 19 36  1  0
 20 37  1  0
 20 38  1  0
 21 39  1  0
 21 40  1  0
 22 41  1  0
 22 42  1  0
 22 43  1  0
M  CHG  3   2  -1  13  -1  23   2
M  END
> <Uni-Dock RESULT> 
ENERGY=   -4.861  LOWER_BOUND=    4.428  UPPER_BOUND=    5.599
INTER + INTRA:          -4.861
INTER:                  -4.861
INTRA:                   0.000
UNBOUND:                 0.000

$$$$

     RDKit          3D

 43 40  0  0  0  0  0  0  0  0999 V2000
   43.3764    5.2502   11.4964 S   0  0  0  0  0  0  0  0  0  0  0  0
   43.1344    5.3844   12.9310 O   0  0  0  0  0  0  0  0  0  0  0  0
   43.0127    6.4195   10.6990 O   0  0  0  0  0  0  0  0  0  0  0  0
   42.9700    3.9677   10.9270 O   0  0  0  0  0  0  0  0  0  0  0  0
   47.6741    8.5188   13.3728 C   0  0  0  0  0  0  0  0  0  0  0  0
   48.4184    7.5742   13.6154 O   0  0  0  0  0  0  0  0  0  0  0  0
   45.1518    5.1953   11.3782 C   0  0  0  0  0  0  0  0  0  0  0  0
   46.3351    8.4045   13.0946 N   0  0  0  0  0  0  0  0  0  0  0  0
   45.8354    6.5431   11.5762 C   0  0  0  0  0  0  0  0  0  0  0  0
   45.6564    7.1232   12.9756 C   0  0  0  0  0  0  0  0  0  0  0  0
   48.1720    9.9397   13.3886 C   0  0  0  0  0  0  0  0  0  0  0  0
   42.9145    4.8976   12.2484 S   0  0  0  0  0  0  0  0  0  0  0  0
   42.7601    3.6118   11.5724 O   0  0  0  0  0  0  0  0  0  0  0  0
   42.0772    5.9739   11.7237 O   0  0  0  0  0  0  0  0  0  0  0  0
   42.9843    4.8206   13.7063 O   0  0  0  0  0  0  0  0  0  0  0  0
   47.9267    9.0020   12.3112 C   0  0  0  0  0  0  0  0  0  0  0  0
   48.7459    8.5600   11.5121 O   0  0  0  0  0  0  0  0  0  0  0  0
   44.5600    5.3918   11.7871 C   0  0  0  0  0  0  0  0  0  0  0  0
   46.7302    8.3945   12.6084 N   0  0  0  0  0  0  0  0  0  0  0  0
   44.9374    6.7448   12.3735 C   0  0  0  0  0  0  0  0  0  0  0  0
   46.3786    7.1026   12.0497 C   0  0  0  0  0  0  0  0  0  0  0  0
   48.1580   10.2951   13.0472 C   0  0  0  0  0  0  0  0  0  0  0  0
   45.9632    7.1684   12.3878 Ca  0  0  0  0  0 15  0  0  0  0  0  0
   45.3833    4.8283   10.3718 H   0  0  0  0  0  0  0  0  0  0  0  0
   45.5115    4.4531   12.0983 H   0  0  0  0  0  0  0  0  0  0  0  0
   45.8037    9.2174   12.8152 H   0  0  0  0  0  0  0  0  0  0  0  0
   45.4733    7.2643   10.8330 H   0  0  0  0  0  0  0  0  0  0  0  0
   46.9066    6.4165   11.3739 H   0  0  0  0  0  0  0  0  0  0  0  0
   46.0550    6.4375   13.7312 H   0  0  0  0  0  0  0  0  0  0  0  0
   44.6077    7.3279   13.2014 H   0  0  0  0  0  0  0  0  0  0  0  0
   49.1345    9.9872   12.8686 H   0  0  0  0  0  0  0  0  0  0  0  0
   48.2962   10.2634   14.4269 H   0  0  0  0  0  0  0  0  0  0  0  0
   47.4768   10.6183   12.8829 H   0  0  0  0  0  0  0  0  0  0  0  0
   45.2404    4.6088   12.1394 H   0  0  0  0  0  0  0  0  0  0  0  0
   44.5986    5.4186   10.6928 H   0  0  0  0  0  0  0  0  0  0  0  0
   46.2218    8.6954   13.4306 H   0  0  0  0  0  0  0  0  0  0  0  0
   44.2677    7.5233   11.9875 H   0  0  0  0  0  0  0  0  0  0  0  0
   44.8006    6.7378   13.4621 H   0  0  0  0  0  0  0  0  0  0  0  0
   46.5434    7.1373   10.9668 H   0  0  0  0  0  0  0  0  0  0  0  0
   47.0693    6.3628   12.4702 H   0  0  0  0  0  0  0  0  0  0  0  0
   48.1490   11.1202   12.3294 H   0  0  0  0  0  0  0  0  0  0  0  0
   49.1294   10.2514   13.5487 H   0  0  0  0  0  0  0  0  0  0  0  0
   47.3884   10.4791   13.8025 H   0  0  0  0  0  0  0  0  0  0  0  0
  2  1  1  0
  3  1  2  0
  4  1  2  0
  5  8  1  0
  6  5  2  0
  7  1  1  0
  8 10  1  0
  9  7  1  0
 10  9  1  0
 11  5  1  0
 13 12  1  0
 14 12  2  0
 15 12  2  0
 16 19  1  0
 17 16  2  0
 18 12  1  0
 19 21  1  0
 20 18  1  0
 21 20  1  0
 22 16  1  0
  7 24  1  0
  7 25  1  0
  8 26  1  0
  9 27  1  0
  9 28  1  0
 10 29  1  0
 10 30  1  0
 11 31  1  0
 11 32  1  0
 11 33  1  0
 18 34  1  0
 18 35  1  0
 19 36  1  0
 20 37  1  0
 20 38  1  0
 21 39  1  0
 21 40  1  0
 22 41  1  0
 22 42  1  0
 22 43  1  0
M  CHG  3   2  -1  13  -1  23   2
M  END
> <Uni-Dock RESULT> 
ENERGY=   -4.853  LOWER_BOUND=    4.483  UPPER_BOUND=    5.937
INTER + INTRA:          -4.853
INTER:                  -4.853
INTRA:                   0.000
UNBOUND:                 0.000

$$$$

     RDKit          3D

 43 40  0  0  0  0  0  0  0  0999 V2000
   44.0640    4.4721   11.2679 S   0  0  0  0  0  0  0  0  0  0  0  0
   43.0202    5.4671   11.5030 O   0  0  0  0  0  0  0  0  0  0  0  0
   44.8223    4.6560   10.0323 O   0  0  0  0  0  0  0  0  0  0  0  0
   43.6663    3.0941   11.5454 O   0  0  0  0  0  0  0  0  0  0  0  0
   46.8841    9.1060   13.0705 C   0  0  0  0  0  0  0  0  0  0  0  0
   46.8235    8.8032   14.2579 O   0  0  0  0  0  0  0  0  0  0  0  0
   45.2550    4.8097   12.5472 C   0  0  0  0  0  0  0  0  0  0  0  0
   46.1651    8.4964   12.0732 N   0  0  0  0  0  0  0  0  0  0  0  0
   46.1001    6.0546   12.3045 C   0  0  0  0  0  0  0  0  0  0  0  0
   45.2977    7.3520   12.3066 C   0  0  0  0  0  0  0  0  0  0  0  0
   47.7593   10.2318   12.5872 C   0  0  0  0  0  0  0  0  0  0  0  0
   43.1338    4.6139   11.4012 S   0  0  0  0  0  0  0  0  0  0  0  0
   42.9659    3.2264   11.8269 O   0  0  0  0  0  0  0  0  0  0  0  0
   43.3729    4.7948    9.9712 O   0  0  0  0  0  0  0  0  0  0  0  0
   42.1898    5.5575   11.9965 O   0  0  0  0  0  0  0  0  0  0  0  0
   47.9361    8.7935   12.6015 C   0  0  0  0  0  0  0  0  0  0  0  0
   48.8085    8.1595   13.1862 O   0  0  0  0  0  0  0  0  0  0  0  0
   44.6864    5.0693   12.1406 C   0  0  0  0  0  0  0  0  0  0  0  0
   46.7332    8.2641   12.1991 N   0  0  0  0  0  0  0  0  0  0  0  0
   45.0826    6.5003   11.8058 C   0  0  0  0  0  0  0  0  0  0  0  0
   46.3597    6.9009   12.5257 C   0  0  0  0  0  0  0  0  0  0  0  0
   48.1166   10.2460   12.2477 C   0  0  0  0  0  0  0  0  0  0  0  0
   45.8982    7.0672   12.3009 Ca  0  0  0  0  0 15  0  0  0  0  0  0
   45.9179    3.9380   12.5902 H   0  0  0  0  0  0  0  0  0  0  0  0
   44.7156    4.8698   13.4981 H   0  0  0  0  0  0  0  0  0  0  0  0
   46.3334    8.7375   11.1062 H   0  0  0  0  0  0  0  0  0  0  0  0
   46.6449    5.9639   11.3566 H   0  0  0  0  0  0  0  0  0  0  0  0
   46.8675    6.1054   13.0875 H   0  0  0  0  0  0  0  0  0  0  0  0
   44.7825    7.4852   13.2641 H   0  0  0  0  0  0  0  0  0  0  0  0
   44.5605    7.3771   11.5013 H   0  0  0  0  0  0  0  0  0  0  0  0
   48.7355   10.1622   13.0786 H   0  0  0  0  0  0  0  0  0  0  0  0
   47.2857   11.1861   12.8388 H   0  0  0  0  0  0  0  0  0  0  0  0
   47.9180   10.1856   11.5045 H   0  0  0  0  0  0  0  0  0  0  0  0
   44.5774    4.9361   13.2225 H   0  0  0  0  0  0  0  0  0  0  0  0
   45.4408    4.3627   11.7783 H   0  0  0  0  0  0  0  0  0  0  0  0
   45.9880    8.8953   11.9320 H   0  0  0  0  0  0  0  0  0  0  0  0
   45.2188    6.6103   10.7228 H   0  0  0  0  0  0  0  0  0  0  0  0
   44.2770    7.1915   12.0832 H   0  0  0  0  0  0  0  0  0  0  0  0
   47.1904    6.2398   12.2539 H   0  0  0  0  0  0  0  0  0  0  0  0
   46.2297    6.8462   13.6126 H   0  0  0  0  0  0  0  0  0  0  0  0
   48.9119   10.3349   11.5023 H   0  0  0  0  0  0  0  0  0  0  0  0
   48.3908   10.8015   13.1495 H   0  0  0  0  0  0  0  0  0  0  0  0
   47.2017   10.6839   11.8382 H   0  0  0  0  0  0  0  0  0  0  0  0
  2  1  1  0
  3  1  2  0
  4  1  2  0
  5  8  1  0
  6  5  2  0
  7  1  1  0
  8 10  1  0
  9  7  1  0
 10  9  1  0
 11  5  1  0
 13 12  1  0
 14 12  2  0
 15 12  2  0
 16 19  1  0
 17 16  2  0
 18 12  1  0
 19 21  1  0
 20 18  1  0
 21 20  1  0
 22 16  1  0
  7 24  1  0
  7 25  1  0
  8 26  1  0
  9 27  1  0
  9 28  1  0
 10 29  1  0
 10 30  1  0
 11 31  1  0
 11 32  1  0
 11 33  1  0
 18 34  1  0
 18 35  1  0
 19 36  1  0
 20 37  1  0
 20 38  1  0
 21 39  1  0
 21 40  1  0
 22 41  1  0
 22 42  1  0
 22 43  1  0
M  CHG  3   2  -1  13  -1  23   2
M  END
> <Uni-Dock RESULT> 
ENERGY=   -4.796  LOWER_BOUND=    4.344  UPPER_BOUND=    5.941
INTER + INTRA:          -4.796
INTER:                  -4.796
INTRA:                   0.000
UNBOUND:                 0.000

$$$$

     RDKit          3D

 43 40  0  0  0  0  0  0  0  0999 V2000
   46.9340    2.5726    6.1293 S   0  0  0  0  0  0  0  0  0  0  0  0
   47.4350    1.5923    7.0899 O   0  0  0  0  0  0  0  0  0  0  0  0
   45.5562    2.3574    5.6925 O   0  0  0  0  0  0  0  0  0  0  0  0
   47.8708    2.9138    5.0616 O   0  0  0  0  0  0  0  0  0  0  0  0
   44.5650    4.1016   11.1017 C   0  0  0  0  0  0  0  0  0  0  0  0
   45.4847    4.8465   11.4248 O   0  0  0  0  0  0  0  0  0  0  0  0
   46.8450    4.0760    7.0784 C   0  0  0  0  0  0  0  0  0  0  0  0
   44.6165    3.2041   10.0648 N   0  0  0  0  0  0  0  0  0  0  0  0
   45.6773    4.1320    8.0564 C   0  0  0  0  0  0  0  0  0  0  0  0
   45.7574    3.0917    9.1691 C   0  0  0  0  0  0  0  0  0  0  0  0
   43.2630    4.0821   11.8577 C   0  0  0  0  0  0  0  0  0  0  0  0
   47.5955    1.9121    6.3004 S   0  0  0  0  0  0  0  0  0  0  0  0
   48.4775    2.5121    5.3022 O   0  0  0  0  0  0  0  0  0  0  0  0
   46.4414    1.2013    5.7548 O   0  0  0  0  0  0  0  0  0  0  0  0
   48.2818    1.2313    7.3965 O   0  0  0  0  0  0  0  0  0  0  0  0
   43.6641    4.7174   10.6185 C   0  0  0  0  0  0  0  0  0  0  0  0
   43.6828    5.9194   10.3738 O   0  0  0  0  0  0  0  0  0  0  0  0
   46.8708    3.3309    7.0918 C   0  0  0  0  0  0  0  0  0  0  0  0
   44.3990    3.7775    9.9363 N   0  0  0  0  0  0  0  0  0  0  0  0
   45.8789    2.9372    8.1772 C   0  0  0  0  0  0  0  0  0  0  0  0
   45.3462    4.1598    8.9061 C   0  0  0  0  0  0  0  0  0  0  0  0
   42.7972    4.1458   11.7090 C   0  0  0  0  0  0  0  0  0  0  0  0
   45.4513    3.6311    8.9305 Ca  0  0  0  0  0 15  0  0  0  0  0  0
   46.7369    4.8922    6.3551 H   0  0  0  0  0  0  0  0  0  0  0  0
   47.8041    4.2048    7.5906 H   0  0  0  0  0  0  0  0  0  0  0  0
   43.7895    2.6875    9.7992 H   0  0  0  0  0  0  0  0  0  0  0  0
   44.7275    4.0195    7.5192 H   0  0  0  0  0  0  0  0  0  0  0  0
   45.6523    5.1343    8.5026 H   0  0  0  0  0  0  0  0  0  0  0  0
   46.6786    3.2168    9.7485 H   0  0  0  0  0  0  0  0  0  0  0  0
   45.7207    2.0725    8.7784 H   0  0  0  0  0  0  0  0  0  0  0  0
   42.9510    5.1123   12.0592 H   0  0  0  0  0  0  0  0  0  0  0  0
   43.4061    3.5475   12.8021 H   0  0  0  0  0  0  0  0  0  0  0  0
   42.4692    3.5907   11.2850 H   0  0  0  0  0  0  0  0  0  0  0  0
   47.6944    3.9205    7.5092 H   0  0  0  0  0  0  0  0  0  0  0  0
   46.3791    3.9240    6.3133 H   0  0  0  0  0  0  0  0  0  0  0  0
   44.5022    2.8539   10.3381 H   0  0  0  0  0  0  0  0  0  0  0  0
   45.0446    2.3750    7.7398 H   0  0  0  0  0  0  0  0  0  0  0  0
   46.3552    2.2625    8.8995 H   0  0  0  0  0  0  0  0  0  0  0  0
   44.8459    4.8460    8.2133 H   0  0  0  0  0  0  0  0  0  0  0  0
   46.1593    4.7097    9.3937 H   0  0  0  0  0  0  0  0  0  0  0  0
   41.7468    4.2736   11.4329 H   0  0  0  0  0  0  0  0  0  0  0  0
   43.0018    4.6775   12.6430 H   0  0  0  0  0  0  0  0  0  0  0  0
   42.9906    3.0812   11.8692 H   0  0  0  0  0  0  0  0  0  0  0  0
  2  1  1  0
  3  1  2  0
  4  1  2  0
  5  8  1  0
  6  5  2  0
  7  1  1  0
  8 10  1  0
  9  7  1  0
 10  9  1  0
 11  5  1  0
 13 12  1  0
 14 12  2  0
 15 12  2  0
 16 19  1  0
 17 16  2  0
 18 12  1  0
 19 21  1  0
 20 18  1  0
 21 20  1  0
 22 16  1  0
  7 24  1  0
  7 25  1  0
  8 26  1  0
  9 27  1  0
  9 28  1  0
 10 29  1  0
 10 30  1  0
 11 31  1  0
 11 32  1  0
 11 33  1  0
 18 34  1  0
 18 35  1  0
 19 36  1  0
 20 37  1  0
 20 38  1  0
 21 39  1  0
 21 40  1  0
 22 41  1  0
 22 42  1  0
 22 43  1  0
M  CHG  3   2  -1  13  -1  23   2
M  END
> <Uni-Dock RESULT> 
ENERGY=   -4.788  LOWER_BOUND=    2.618  UPPER_BOUND=    5.715
INTER + INTRA:          -4.788
INTER:                  -4.788
INTRA:                   0.000
UNBOUND:                 0.000

$$$$

     RDKit          3D

 43 40  0  0  0  0  0  0  0  0999 V2000
   48.3964    3.6360   17.5539 S   0  0  0  0  0  0  0  0  0  0  0  0
   48.2504    2.7349   16.4131 O   0  0  0  0  0  0  0  0  0  0  0  0
   48.2157    3.0082   18.8610 O   0  0  0  0  0  0  0  0  0  0  0  0
   47.7362    4.9298   17.3972 O   0  0  0  0  0  0  0  0  0  0  0  0
   53.3022    0.7057   17.4081 C   0  0  0  0  0  0  0  0  0  0  0  0
   53.8718    1.5028   16.6696 O   0  0  0  0  0  0  0  0  0  0  0  0
   50.1243    4.0633   17.5270 C   0  0  0  0  0  0  0  0  0  0  0  0
   51.9534    0.7044   17.6610 N   0  0  0  0  0  0  0  0  0  0  0  0
   51.0513    2.9579   18.0190 C   0  0  0  0  0  0  0  0  0  0  0  0
   51.0470    1.7141   17.1359 C   0  0  0  0  0  0  0  0  0  0  0  0
   54.0516   -0.3995   18.1038 C   0  0  0  0  0  0  0  0  0  0  0  0
   47.9136    3.4565   16.7552 S   0  0  0  0  0  0  0  0  0  0  0  0
   47.4952    4.8539   16.6737 O   0  0  0  0  0  0  0  0  0  0  0  0
   47.2635    2.6794   17.8079 O   0  0  0  0  0  0  0  0  0  0  0  0
   48.0362    2.7760   15.4677 O   0  0  0  0  0  0  0  0  0  0  0  0
   53.5889    0.8991   18.5503 C   0  0  0  0  0  0  0  0  0  0  0  0
   54.2752    1.8311   18.9570 O   0  0  0  0  0  0  0  0  0  0  0  0
   49.5982    3.5800   17.3132 C   0  0  0  0  0  0  0  0  0  0  0  0
   52.3167    1.0366   18.0486 N   0  0  0  0  0  0  0  0  0  0  0  0
   50.2437    2.2133   17.4935 C   0  0  0  0  0  0  0  0  0  0  0  0
   51.7092    2.3424   17.8748 C   0  0  0  0  0  0  0  0  0  0  0  0
   54.0869   -0.5216   18.5802 C   0  0  0  0  0  0  0  0  0  0  0  0
   51.3291    2.0370   17.6437 Ca  0  0  0  0  0 15  0  0  0  0  0  0
   50.2375    4.9343   18.1824 H   0  0  0  0  0  0  0  0  0  0  0  0
   50.3757    4.3738   16.5076 H   0  0  0  0  0  0  0  0  0  0  0  0
   51.5670    0.0748   18.3508 H   0  0  0  0  0  0  0  0  0  0  0  0
   50.7928    2.6765   19.0473 H   0  0  0  0  0  0  0  0  0  0  0  0
   52.0707    3.3618   18.0660 H   0  0  0  0  0  0  0  0  0  0  0  0
   51.3485    1.9660   16.1134 H   0  0  0  0  0  0  0  0  0  0  0  0
   50.0652    1.2368   17.1080 H   0  0  0  0  0  0  0  0  0  0  0  0
   54.9812    0.0045   18.5183 H   0  0  0  0  0  0  0  0  0  0  0  0
   54.2813   -1.1869   17.3789 H   0  0  0  0  0  0  0  0  0  0  0  0
   53.4693   -0.8289   18.9260 H   0  0  0  0  0  0  0  0  0  0  0  0
   50.1398    4.1736   16.5685 H   0  0  0  0  0  0  0  0  0  0  0  0
   49.5899    4.1331   18.2585 H   0  0  0  0  0  0  0  0  0  0  0  0
   51.9110    0.2665   17.5316 H   0  0  0  0  0  0  0  0  0  0  0  0
   49.7102    1.6430   18.2640 H   0  0  0  0  0  0  0  0  0  0  0  0
   50.1589    1.6290   16.5688 H   0  0  0  0  0  0  0  0  0  0  0  0
   51.8267    2.9058   18.8074 H   0  0  0  0  0  0  0  0  0  0  0  0
   52.2719    2.8664   17.0937 H   0  0  0  0  0  0  0  0  0  0  0  0
   54.1953   -0.8393   19.6210 H   0  0  0  0  0  0  0  0  0  0  0  0
   55.0563   -0.5706   18.0753 H   0  0  0  0  0  0  0  0  0  0  0  0
   53.4001   -1.2063   18.0742 H   0  0  0  0  0  0  0  0  0  0  0  0
  2  1  1  0
  3  1  2  0
  4  1  2  0
  5  8  1  0
  6  5  2  0
  7  1  1  0
  8 10  1  0
  9  7  1  0
 10  9  1  0
 11  5  1  0
 13 12  1  0
 14 12  2  0
 15 12  2  0
 16 19  1  0
 17 16  2  0
 18 12  1  0
 19 21  1  0
 20 18  1  0
 21 20  1  0
 22 16  1  0
  7 24  1  0
  7 25  1  0
  8 26  1  0
  9 27  1  0
  9 28  1  0
 10 29  1  0
 10 30  1  0
 11 31  1  0
 11 32  1  0
 11 33  1  0
 18 34  1  0
 18 35  1  0
 19 36  1  0
 20 37  1  0
 20 38  1  0
 21 39  1  0
 21 40  1  0
 22 41  1  0
 22 42  1  0
 22 43  1  0
M  CHG  3   2  -1  13  -1  23   2
M  END
> <Uni-Dock RESULT> 
ENERGY=   -4.319  LOWER_BOUND=    9.488  UPPER_BOUND=   10.432
INTER + INTRA:          -4.319
INTER:                  -4.319
INTRA:                   0.000
UNBOUND:                 0.000

$$$$
