
     RDKit          3D

 43 40  0  0  0  0  0  0  0  0999 V2000
   46.8122    1.4315    7.2711 S   0  0  0  0  0  0  0  0  0  0  0  0
   46.6113    0.4576    6.2021 O   0  0  0  0  0  0  0  0  0  0  0  0
   45.8847    1.3003    8.3955 O   0  0  0  0  0  0  0  0  0  0  0  0
   48.2043    1.6538    7.6499 O   0  0  0  0  0  0  0  0  0  0  0  0
   44.4025    3.8282   10.5045 C   0  0  0  0  0  0  0  0  0  0  0  0
   43.7519    4.8605   10.6506 O   0  0  0  0  0  0  0  0  0  0  0  0
   46.3386    2.9654    6.5021 C   0  0  0  0  0  0  0  0  0  0  0  0
   45.2400    3.5882    9.4454 N   0  0  0  0  0  0  0  0  0  0  0  0
   46.4853    4.2018    7.3885 C   0  0  0  0  0  0  0  0  0  0  0  0
   45.2899    4.4643    8.3034 C   0  0  0  0  0  0  0  0  0  0  0  0
   44.3312    2.6931   11.4911 C   0  0  0  0  0  0  0  0  0  0  0  0
   43.6432    4.1070   11.7212 S   0  0  0  0  0  0  0  0  0  0  0  0
   42.3184    4.7125   11.8340 O   0  0  0  0  0  0  0  0  0  0  0  0
   43.7150    2.7046   12.1268 O   0  0  0  0  0  0  0  0  0  0  0  0
   44.7449    4.9447   12.1890 O   0  0  0  0  0  0  0  0  0  0  0  0
   47.1047    2.5923    6.4573 C   0  0  0  0  0  0  0  0  0  0  0  0
   46.4810    3.0195    5.4919 O   0  0  0  0  0  0  0  0  0  0  0  0
   43.8964    4.0360    9.9621 C   0  0  0  0  0  0  0  0  0  0  0  0
   46.6889    2.7075    7.7623 N   0  0  0  0  0  0  0  0  0  0  0  0
   45.2541    3.4499    9.6019 C   0  0  0  0  0  0  0  0  0  0  0  0
   45.4024    3.2869    8.0982 C   0  0  0  0  0  0  0  0  0  0  0  0
   48.4063    1.8527    6.3048 C   0  0  0  0  0  0  0  0  0  0  0  0
   45.6468    3.1627    8.6838 Ca  0  0  0  0  0 15  0  0  0  0  0  0
   46.9947    3.0714    5.6300 H   0  0  0  0  0  0  0  0  0  0  0  0
   45.3127    2.8540    6.1361 H   0  0  0  0  0  0  0  0  0  0  0  0
   45.4741    2.5991    9.2658 H   0  0  0  0  0  0  0  0  0  0  0  0
   47.4110    4.1628    7.9731 H   0  0  0  0  0  0  0  0  0  0  0  0
   46.5689    5.0677    6.7195 H   0  0  0  0  0  0  0  0  0  0  0  0
   45.3392    5.4943    8.6753 H   0  0  0  0  0  0  0  0  0  0  0  0
   44.3448    4.3649    7.7576 H   0  0  0  0  0  0  0  0  0  0  0  0
   44.3044    3.1006   12.5055 H   0  0  0  0  0  0  0  0  0  0  0  0
   45.2030    2.0372   11.4114 H   0  0  0  0  0  0  0  0  0  0  0  0
   43.4238    2.1130   11.3026 H   0  0  0  0  0  0  0  0  0  0  0  0
   43.0844    3.4303    9.5450 H   0  0  0  0  0  0  0  0  0  0  0  0
   43.7998    5.0564    9.5765 H   0  0  0  0  0  0  0  0  0  0  0  0
   47.1399    2.1372    8.4672 H   0  0  0  0  0  0  0  0  0  0  0  0
   46.0554    4.0939    9.9838 H   0  0  0  0  0  0  0  0  0  0  0  0
   45.3889    2.4768   10.0894 H   0  0  0  0  0  0  0  0  0  0  0  0
   44.6277    2.6225    7.6986 H   0  0  0  0  0  0  0  0  0  0  0  0
   45.3135    4.2518    7.5860 H   0  0  0  0  0  0  0  0  0  0  0  0
   48.2017    0.7873    6.1778 H   0  0  0  0  0  0  0  0  0  0  0  0
   49.0460    1.9981    7.1801 H   0  0  0  0  0  0  0  0  0  0  0  0
   48.9374    2.2322    5.4275 H   0  0  0  0  0  0  0  0  0  0  0  0
  2  1  1  0
  3  1  2  0
  4  1  2  0
  5  8  1  0
  6  5  2  0
  7  1  1  0
  8 10  1  0
  9  7  1  0
 10  9  1  0
 11  5  1  0
 13 12  1  0
 14 12  2  0
 15 12  2  0
 16 19  1  0
 17 16  2  0
 18 12  1  0
 19 21  1  0
 20 18  1  0
 21 20  1  0
 22 16  1  0
  7 24  1  0
  7 25  1  0
  8 26  1  0
  9 27  1  0
  9 28  1  0
 10 29  1  0
 10 30  1  0
 11 31  1  0
 11 32  1  0
 11 33  1  0
 18 34  1  0
 18 35  1  0
 19 36  1  0
 20 37  1  0
 20 38  1  0
 21 39  1  0
 21 40  1  0
 22 41  1  0
 22 42  1  0
 22 43  1  0
M  CHG  3   2  -1  13  -1  23   2
M  END
> <Uni-Dock RESULT> 
ENERGY=   -5.914  LOWER_BOUND=    0.000  UPPER_BOUND=    0.000
INTER + INTRA:          -5.914
INTER:                  -5.914
INTRA:                   0.000
UNBOUND:                 0.000

$$$$

     RDKit          3D

 43 40  0  0  0  0  0  0  0  0999 V2000
   46.5797    3.6846    7.4423 S   0  0  0  0  0  0  0  0  0  0  0  0
   48.0005    3.5685    7.1271 O   0  0  0  0  0  0  0  0  0  0  0  0
   46.2596    4.7066    8.4398 O   0  0  0  0  0  0  0  0  0  0  0  0
   45.6870    3.6567    6.2877 O   0  0  0  0  0  0  0  0  0  0  0  0
   43.7230    4.7461   11.0086 C   0  0  0  0  0  0  0  0  0  0  0  0
   43.1726    4.2403   11.9840 O   0  0  0  0  0  0  0  0  0  0  0  0
   46.2333    2.1500    8.2752 C   0  0  0  0  0  0  0  0  0  0  0  0
   44.2792    4.0298    9.9798 N   0  0  0  0  0  0  0  0  0  0  0  0
   44.7772    1.9629    8.7000 C   0  0  0  0  0  0  0  0  0  0  0  0
   44.4283    2.5988   10.0449 C   0  0  0  0  0  0  0  0  0  0  0  0
   43.8557    6.2375   10.8508 C   0  0  0  0  0  0  0  0  0  0  0  0
   43.0097    5.5437   12.0034 S   0  0  0  0  0  0  0  0  0  0  0  0
   43.0053    5.3747   13.4545 O   0  0  0  0  0  0  0  0  0  0  0  0
   43.6504    6.7687   11.5288 O   0  0  0  0  0  0  0  0  0  0  0  0
   41.7529    5.2046   11.3403 O   0  0  0  0  0  0  0  0  0  0  0  0
   46.2378    2.2781    7.4317 C   0  0  0  0  0  0  0  0  0  0  0  0
   46.8096    1.3532    7.9983 O   0  0  0  0  0  0  0  0  0  0  0  0
   44.1212    4.2656   11.4604 C   0  0  0  0  0  0  0  0  0  0  0  0
   45.4529    3.2106    8.0670 N   0  0  0  0  0  0  0  0  0  0  0  0
   44.2633    4.2356    9.9453 C   0  0  0  0  0  0  0  0  0  0  0  0
   45.3058    3.2190    9.5099 C   0  0  0  0  0  0  0  0  0  0  0  0
   46.3656    2.5098    5.9503 C   0  0  0  0  0  0  0  0  0  0  0  0
   44.9169    3.7055    9.3359 Ca  0  0  0  0  0 15  0  0  0  0  0  0
   46.5013    1.3617    7.5618 H   0  0  0  0  0  0  0  0  0  0  0  0
   46.9133    2.0717    9.1298 H   0  0  0  0  0  0  0  0  0  0  0  0
   44.9713    4.5296    9.3998 H   0  0  0  0  0  0  0  0  0  0  0  0
   44.0894    2.3139    7.9228 H   0  0  0  0  0  0  0  0  0  0  0  0
   44.6107    0.8834    8.8068 H   0  0  0  0  0  0  0  0  0  0  0  0
   43.4817    2.1810   10.4071 H   0  0  0  0  0  0  0  0  0  0  0  0
   45.1896    2.3707   10.7996 H   0  0  0  0  0  0  0  0  0  0  0  0
   42.9284    6.7167   11.1771 H   0  0  0  0  0  0  0  0  0  0  0  0
   44.0333    6.5162    9.8080 H   0  0  0  0  0  0  0  0  0  0  0  0
   44.6886    6.5887   11.4659 H   0  0  0  0  0  0  0  0  0  0  0  0
   45.0872    4.4545   11.9415 H   0  0  0  0  0  0  0  0  0  0  0  0
   43.7302    3.3127   11.8322 H   0  0  0  0  0  0  0  0  0  0  0  0
   45.2086    4.0585    7.5701 H   0  0  0  0  0  0  0  0  0  0  0  0
   43.2988    3.9965    9.4815 H   0  0  0  0  0  0  0  0  0  0  0  0
   44.5424    5.2278    9.5705 H   0  0  0  0  0  0  0  0  0  0  0  0
   46.2860    3.4557    9.9393 H   0  0  0  0  0  0  0  0  0  0  0  0
   45.0320    2.2089    9.8354 H   0  0  0  0  0  0  0  0  0  0  0  0
   47.2304    3.1493    5.7597 H   0  0  0  0  0  0  0  0  0  0  0  0
   45.4663    2.9850    5.5476 H   0  0  0  0  0  0  0  0  0  0  0  0
   46.4997    1.5498    5.4442 H   0  0  0  0  0  0  0  0  0  0  0  0
  2  1  1  0
  3  1  2  0
  4  1  2  0
  5  8  1  0
  6  5  2  0
  7  1  1  0
  8 10  1  0
  9  7  1  0
 10  9  1  0
 11  5  1  0
 13 12  1  0
 14 12  2  0
 15 12  2  0
 16 19  1  0
 17 16  2  0
 18 12  1  0
 19 21  1  0
 20 18  1  0
 21 20  1  0
 22 16  1  0
  7 24  1  0
  7 25  1  0
  8 26  1  0
  9 27  1  0
  9 28  1  0
 10 29  1  0
 10 30  1  0
 11 31  1  0
 11 32  1  0
 11 33  1  0
 18 34  1  0
 18 35  1  0
 19 36  1  0
 20 37  1  0
 20 38  1  0
 21 39  1  0
 21 40  1  0
 22 41  1  0
 22 42  1  0
 22 43  1  0
M  CHG  3   2  -1  13  -1  23   2
M  END
> <Uni-Dock RESULT> 
ENERGY=   -5.245  LOWER_BOUND=    1.567  UPPER_BOUND=    2.454
INTER + INTRA:          -5.245
INTER:                  -5.245
INTRA:                   0.000
UNBOUND:                 0.000

$$$$

     RDKit          3D

 43 40  0  0  0  0  0  0  0  0999 V2000
   44.2051    4.2370   12.8790 S   0  0  0  0  0  0  0  0  0  0  0  0
   43.2307    3.5606   13.7302 O   0  0  0  0  0  0  0  0  0  0  0  0
   45.2317    4.9852   13.6056 O   0  0  0  0  0  0  0  0  0  0  0  0
   44.7043    3.4427   11.7606 O   0  0  0  0  0  0  0  0  0  0  0  0
   46.8890    8.0830   12.7735 C   0  0  0  0  0  0  0  0  0  0  0  0
   46.8540    9.2728   12.4679 O   0  0  0  0  0  0  0  0  0  0  0  0
   43.2308    5.5014   12.0911 C   0  0  0  0  0  0  0  0  0  0  0  0
   45.9569    7.1578   12.3784 N   0  0  0  0  0  0  0  0  0  0  0  0
   43.9909    6.3672   11.0869 C   0  0  0  0  0  0  0  0  0  0  0  0
   44.7399    7.5435   11.7118 C   0  0  0  0  0  0  0  0  0  0  0  0
   47.9777    7.5138   13.6440 C   0  0  0  0  0  0  0  0  0  0  0  0
   47.9810    9.0018   13.0860 S   0  0  0  0  0  0  0  0  0  0  0  0
   47.8867   10.3827   13.5536 O   0  0  0  0  0  0  0  0  0  0  0  0
   48.5392    8.0610   14.0554 O   0  0  0  0  0  0  0  0  0  0  0  0
   48.4717    8.8470   11.7187 O   0  0  0  0  0  0  0  0  0  0  0  0
   43.3080    4.6904   11.8374 C   0  0  0  0  0  0  0  0  0  0  0  0
   42.2415    5.2833   11.9586 O   0  0  0  0  0  0  0  0  0  0  0  0
   46.2766    8.5063   12.9718 C   0  0  0  0  0  0  0  0  0  0  0  0
   44.5414    5.2645   12.0329 N   0  0  0  0  0  0  0  0  0  0  0  0
   46.1278    7.0776   12.4687 C   0  0  0  0  0  0  0  0  0  0  0  0
   44.6745    6.6337   12.4923 C   0  0  0  0  0  0  0  0  0  0  0  0
   43.3749    3.2294   11.4833 C   0  0  0  0  0  0  0  0  0  0  0  0
   45.2928    6.4619   12.4123 Ca  0  0  0  0  0 15  0  0  0  0  0  0
   42.4273    4.9695   11.5678 H   0  0  0  0  0  0  0  0  0  0  0  0
   42.7715    6.1092   12.8775 H   0  0  0  0  0  0  0  0  0  0  0  0
   45.9097    6.2921   12.9384 H   0  0  0  0  0  0  0  0  0  0  0  0
   44.6717    5.7626   10.4777 H   0  0  0  0  0  0  0  0  0  0  0  0
   43.2461    6.7930   10.4024 H   0  0  0  0  0  0  0  0  0  0  0  0
   45.0030    8.2620   10.9268 H   0  0  0  0  0  0  0  0  0  0  0  0
   44.1101    8.0741   12.4349 H   0  0  0  0  0  0  0  0  0  0  0  0
   48.9342    7.9622   13.3613 H   0  0  0  0  0  0  0  0  0  0  0  0
   48.0618    6.4298   13.5236 H   0  0  0  0  0  0  0  0  0  0  0  0
   47.7564    7.7455   14.6893 H   0  0  0  0  0  0  0  0  0  0  0  0
   45.8423    8.6175   13.9714 H   0  0  0  0  0  0  0  0  0  0  0  0
   45.7763    9.2091   12.2973 H   0  0  0  0  0  0  0  0  0  0  0  0
   45.3472    4.6596   12.1353 H   0  0  0  0  0  0  0  0  0  0  0  0
   46.5222    6.9948   11.4487 H   0  0  0  0  0  0  0  0  0  0  0  0
   46.7279    6.3946   13.0821 H   0  0  0  0  0  0  0  0  0  0  0  0
   44.2678    6.6809   13.5089 H   0  0  0  0  0  0  0  0  0  0  0  0
   44.0558    7.2744   11.8534 H   0  0  0  0  0  0  0  0  0  0  0  0
   43.3411    2.6355   12.3995 H   0  0  0  0  0  0  0  0  0  0  0  0
   44.2930    2.9994   10.9348 H   0  0  0  0  0  0  0  0  0  0  0  0
   42.5238    2.9720   10.8468 H   0  0  0  0  0  0  0  0  0  0  0  0
  2  1  1  0
  3  1  2  0
  4  1  2  0
  5  8  1  0
  6  5  2  0
  7  1  1  0
  8 10  1  0
  9  7  1  0
 10  9  1  0
 11  5  1  0
 13 12  1  0
 14 12  2  0
 15 12  2  0
 16 19  1  0
 17 16  2  0
 18 12  1  0
 19 21  1  0
 20 18  1  0
 21 20  1  0
 22 16  1  0
  7 24  1  0
  7 25  1  0
  8 26  1  0
  9 27  1  0
  9 28  1  0
 10 29  1  0
 10 30  1  0
 11 31  1  0
 11 32  1  0
 11 33  1  0
 18 34  1  0
 18 35  1  0
 19 36  1  0
 20 37  1  0
 20 38  1  0
 21 39  1  0
 21 40  1  0
 22 41  1  0
 22 42  1  0
 22 43  1  0
M  CHG  3   2  -1  13  -1  23   2
M  END
> <Uni-Dock RESULT> 
ENERGY=   -4.656  LOWER_BOUND=    4.426  UPPER_BOUND=    6.325
INTER + INTRA:          -4.656
INTER:                  -4.656
INTRA:                   0.000
UNBOUND:                 0.000

$$$$

     RDKit          3D

 43 40  0  0  0  0  0  0  0  0999 V2000
   44.2563    5.7950   11.1130 S   0  0  0  0  0  0  0  0  0  0  0  0
   43.2205    6.8009   11.3295 O   0  0  0  0  0  0  0  0  0  0  0  0
   44.8731    5.8331    9.7864 O   0  0  0  0  0  0  0  0  0  0  0  0
   45.1944    5.6271   12.2186 O   0  0  0  0  0  0  0  0  0  0  0  0
   46.0973    3.1494    7.7046 C   0  0  0  0  0  0  0  0  0  0  0  0
   45.9325    2.0807    7.1206 O   0  0  0  0  0  0  0  0  0  0  0  0
   43.3341    4.2724   11.1128 C   0  0  0  0  0  0  0  0  0  0  0  0
   45.5064    3.4745    8.8988 N   0  0  0  0  0  0  0  0  0  0  0  0
   44.1775    3.0093   10.9422 C   0  0  0  0  0  0  0  0  0  0  0  0
   44.4838    2.6499    9.4889 C   0  0  0  0  0  0  0  0  0  0  0  0
   46.9746    4.2378    7.1455 C   0  0  0  0  0  0  0  0  0  0  0  0
   46.8635    2.7830    6.5158 S   0  0  0  0  0  0  0  0  0  0  0  0
   46.3848    2.1079    5.3118 O   0  0  0  0  0  0  0  0  0  0  0  0
   47.2825    4.1692    6.3182 O   0  0  0  0  0  0  0  0  0  0  0  0
   47.7471    1.9827    7.3602 O   0  0  0  0  0  0  0  0  0  0  0  0
   43.6297    4.6849   11.7987 C   0  0  0  0  0  0  0  0  0  0  0  0
   42.4831    4.2672   11.6781 O   0  0  0  0  0  0  0  0  0  0  0  0
   45.3866    2.9391    7.4945 C   0  0  0  0  0  0  0  0  0  0  0  0
   44.6261    4.4952   10.8712 N   0  0  0  0  0  0  0  0  0  0  0  0
   45.6559    3.6067    8.8356 C   0  0  0  0  0  0  0  0  0  0  0  0
   44.3656    3.8389    9.6043 C   0  0  0  0  0  0  0  0  0  0  0  0
   44.0647    5.4942   12.9905 C   0  0  0  0  0  0  0  0  0  0  0  0
   45.0013    3.9508    9.5654 Ca  0  0  0  0  0 15  0  0  0  0  0  0
   42.8283    4.2354   12.0849 H   0  0  0  0  0  0  0  0  0  0  0  0
   42.5636    4.3475   10.3385 H   0  0  0  0  0  0  0  0  0  0  0  0
   45.4608    4.4806    9.1245 H   0  0  0  0  0  0  0  0  0  0  0  0
   45.1045    3.0704   11.5229 H   0  0  0  0  0  0  0  0  0  0  0  0
   43.5963    2.1771   11.3591 H   0  0  0  0  0  0  0  0  0  0  0  0
   44.8243    1.6091    9.4385 H   0  0  0  0  0  0  0  0  0  0  0  0
   43.5856    2.7244    8.8654 H   0  0  0  0  0  0  0  0  0  0  0  0
   47.8719    3.7879    6.7115 H   0  0  0  0  0  0  0  0  0  0  0  0
   47.2888    4.9391    7.9239 H   0  0  0  0  0  0  0  0  0  0  0  0
   46.4227    4.7791    6.3724 H   0  0  0  0  0  0  0  0  0  0  0  0
   44.6699    3.5202    6.9038 H   0  0  0  0  0  0  0  0  0  0  0  0
   44.9809    1.9319    7.6372 H   0  0  0  0  0  0  0  0  0  0  0  0
   45.4655    5.0577   10.9392 H   0  0  0  0  0  0  0  0  0  0  0  0
   46.3356    2.9883    9.4341 H   0  0  0  0  0  0  0  0  0  0  0  0
   46.1692    4.5644    8.6866 H   0  0  0  0  0  0  0  0  0  0  0  0
   43.6818    4.4797    9.0361 H   0  0  0  0  0  0  0  0  0  0  0  0
   43.8500    2.8927    9.8048 H   0  0  0  0  0  0  0  0  0  0  0  0
   43.8787    6.5524   12.7937 H   0  0  0  0  0  0  0  0  0  0  0  0
   45.1278    5.3449   13.2003 H   0  0  0  0  0  0  0  0  0  0  0  0
   43.4960    5.1783   13.8694 H   0  0  0  0  0  0  0  0  0  0  0  0
  2  1  1  0
  3  1  2  0
  4  1  2  0
  5  8  1  0
  6  5  2  0
  7  1  1  0
  8 10  1  0
  9  7  1  0
 10  9  1  0
 11  5  1  0
 13 12  1  0
 14 12  2  0
 15 12  2  0
 16 19  1  0
 17 16  2  0
 18 12  1  0
 19 21  1  0
 20 18  1  0
 21 20  1  0
 22 16  1  0
  7 24  1  0
  7 25  1  0
  8 26  1  0
  9 27  1  0
  9 28  1  0
 10 29  1  0
 10 30  1  0
 11 31  1  0
 11 32  1  0
 11 33  1  0
 18 34  1  0
 18 35  1  0
 19 36  1  0
 20 37  1  0
 20 38  1  0
 21 39  1  0
 21 40  1  0
 22 41  1  0
 22 42  1  0
 22 43  1  0
M  CHG  3   2  -1  13  -1  23   2
M  END
> <Uni-Dock RESULT> 
ENERGY=   -4.641  LOWER_BOUND=    1.382  UPPER_BOUND=    5.573
INTER + INTRA:          -4.641
INTER:                  -4.641
INTRA:                   0.000
UNBOUND:                 0.000

$$$$

     RDKit          3D

 43 40  0  0  0  0  0  0  0  0999 V2000
   48.2761    7.9788   13.6467 S   0  0  0  0  0  0  0  0  0  0  0  0
   49.6551    8.1811   13.2121 O   0  0  0  0  0  0  0  0  0  0  0  0
   47.7427    6.6433   13.3754 O   0  0  0  0  0  0  0  0  0  0  0  0
   47.9632    8.5044   14.9721 O   0  0  0  0  0  0  0  0  0  0  0  0
   44.4060    5.6030   12.4702 C   0  0  0  0  0  0  0  0  0  0  0  0
   43.4188    5.6718   11.7416 O   0  0  0  0  0  0  0  0  0  0  0  0
   47.3571    9.0377   12.5499 C   0  0  0  0  0  0  0  0  0  0  0  0
   45.2145    6.6679   12.7756 N   0  0  0  0  0  0  0  0  0  0  0  0
   45.8491    9.0668   12.7972 C   0  0  0  0  0  0  0  0  0  0  0  0
   45.0783    7.9390   12.1124 C   0  0  0  0  0  0  0  0  0  0  0  0
   44.8426    4.3085   13.1032 C   0  0  0  0  0  0  0  0  0  0  0  0
   43.4857    4.4820   12.2945 S   0  0  0  0  0  0  0  0  0  0  0  0
   42.8410    4.0341   11.0623 O   0  0  0  0  0  0  0  0  0  0  0  0
   44.4634    3.5492   12.8513 O   0  0  0  0  0  0  0  0  0  0  0  0
   42.5885    5.0956   13.2707 O   0  0  0  0  0  0  0  0  0  0  0  0
   47.7385    9.2709   13.2767 C   0  0  0  0  0  0  0  0  0  0  0  0
   47.8527    9.8636   12.2094 O   0  0  0  0  0  0  0  0  0  0  0  0
   44.4890    5.8431   11.7430 C   0  0  0  0  0  0  0  0  0  0  0  0
   46.9287    8.1780   13.4744 N   0  0  0  0  0  0  0  0  0  0  0  0
   45.2497    6.4953   12.8887 C   0  0  0  0  0  0  0  0  0  0  0  0
   46.1905    7.5756   12.3810 C   0  0  0  0  0  0  0  0  0  0  0  0
   48.5163    9.6713   14.5010 C   0  0  0  0  0  0  0  0  0  0  0  0
   45.9995    7.2145   12.8824 Ca  0  0  0  0  0 15  0  0  0  0  0  0
   47.7637   10.0442   12.7045 H   0  0  0  0  0  0  0  0  0  0  0  0
   47.5891    8.7383   11.5226 H   0  0  0  0  0  0  0  0  0  0  0  0
   46.1601    6.4371   13.1189 H   0  0  0  0  0  0  0  0  0  0  0  0
   45.6236    9.0861   13.8691 H   0  0  0  0  0  0  0  0  0  0  0  0
   45.4735   10.0085   12.3770 H   0  0  0  0  0  0  0  0  0  0  0  0
   44.0118    8.1915   12.0913 H   0  0  0  0  0  0  0  0  0  0  0  0
   45.3996    7.8153   11.0719 H   0  0  0  0  0  0  0  0  0  0  0  0
   43.9598    3.7595   13.4426 H   0  0  0  0  0  0  0  0  0  0  0  0
   45.4877    4.4831   13.9691 H   0  0  0  0  0  0  0  0  0  0  0  0
   45.3843    3.7141   12.3626 H   0  0  0  0  0  0  0  0  0  0  0  0
   45.1785    5.4487   10.9884 H   0  0  0  0  0  0  0  0  0  0  0  0
   43.8230    6.5652   11.2589 H   0  0  0  0  0  0  0  0  0  0  0  0
   47.0639    7.6186   14.3077 H   0  0  0  0  0  0  0  0  0  0  0  0
   44.5458    6.9282   13.6096 H   0  0  0  0  0  0  0  0  0  0  0  0
   45.8240    5.7414   13.4408 H   0  0  0  0  0  0  0  0  0  0  0  0
   46.9224    7.1588   11.6798 H   0  0  0  0  0  0  0  0  0  0  0  0
   45.6387    8.3661   11.8595 H   0  0  0  0  0  0  0  0  0  0  0  0
   49.4751    9.1479   14.5050 H   0  0  0  0  0  0  0  0  0  0  0  0
   47.9654    9.4276   15.4141 H   0  0  0  0  0  0  0  0  0  0  0  0
   48.6872   10.7513   14.4839 H   0  0  0  0  0  0  0  0  0  0  0  0
  2  1  1  0
  3  1  2  0
  4  1  2  0
  5  8  1  0
  6  5  2  0
  7  1  1  0
  8 10  1  0
  9  7  1  0
 10  9  1  0
 11  5  1  0
 13 12  1  0
 14 12  2  0
 15 12  2  0
 16 19  1  0
 17 16  2  0
 18 12  1  0
 19 21  1  0
 20 18  1  0
 21 20  1  0
 22 16  1  0
  7 24  1  0
  7 25  1  0
  8 26  1  0
  9 27  1  0
  9 28  1  0
 10 29  1  0
 10 30  1  0
 11 31  1  0
 11 32  1  0
 11 33  1  0
 18 34  1  0
 18 35  1  0
 19 36  1  0
 20 37  1  0
 20 38  1  0
 21 39  1  0
 21 40  1  0
 22 41  1  0
 22 42  1  0
 22 43  1  0
M  CHG  3   2  -1  13  -1  23   2
M  END
> <Uni-Dock RESULT> 
ENERGY=   -4.428  LOWER_BOUND=    4.892  UPPER_BOUND=    6.707
INTER + INTRA:          -4.428
INTER:                  -4.428
INTRA:                   0.000
UNBOUND:                 0.000

$$$$

     RDKit          3D

 43 40  0  0  0  0  0  0  0  0999 V2000
   43.8635    5.6703   11.9653 S   0  0  0  0  0  0  0  0  0  0  0  0
   43.2110    4.9379   10.8839 O   0  0  0  0  0  0  0  0  0  0  0  0
   44.4015    6.9750   11.5782 O   0  0  0  0  0  0  0  0  0  0  0  0
   43.1494    5.6569   13.2384 O   0  0  0  0  0  0  0  0  0  0  0  0
   47.3629    8.7054   12.7053 C   0  0  0  0  0  0  0  0  0  0  0  0
   48.5759    8.7472   12.8984 O   0  0  0  0  0  0  0  0  0  0  0  0
   45.3126    4.6885   12.2890 C   0  0  0  0  0  0  0  0  0  0  0  0
   46.6018    7.5709   12.8254 N   0  0  0  0  0  0  0  0  0  0  0  0
   46.1940    5.1986   13.4286 C   0  0  0  0  0  0  0  0  0  0  0  0
   47.1978    6.2734   13.0138 C   0  0  0  0  0  0  0  0  0  0  0  0
   46.5774    9.9225   12.2948 C   0  0  0  0  0  0  0  0  0  0  0  0
   48.1088    9.9615   12.7173 S   0  0  0  0  0  0  0  0  0  0  0  0
   49.4293   10.2273   12.1514 O   0  0  0  0  0  0  0  0  0  0  0  0
   47.0062   10.6608   12.0605 O   0  0  0  0  0  0  0  0  0  0  0  0
   48.0552    9.9527   14.1772 O   0  0  0  0  0  0  0  0  0  0  0  0
   44.5323    4.5596   12.6091 C   0  0  0  0  0  0  0  0  0  0  0  0
   45.2260    3.6893   12.0945 O   0  0  0  0  0  0  0  0  0  0  0  0
   47.8284    8.2596   12.2833 C   0  0  0  0  0  0  0  0  0  0  0  0
   44.9350    5.8595   12.8023 N   0  0  0  0  0  0  0  0  0  0  0  0
   46.4927    7.7482   12.8039 C   0  0  0  0  0  0  0  0  0  0  0  0
   46.2188    6.3332   12.3217 C   0  0  0  0  0  0  0  0  0  0  0  0
   43.1230    4.2936   13.0647 C   0  0  0  0  0  0  0  0  0  0  0  0
   45.9874    6.8598   12.6173 Ca  0  0  0  0  0 15  0  0  0  0  0  0
   44.9395    3.6899   12.5456 H   0  0  0  0  0  0  0  0  0  0  0  0
   45.8757    4.6039   11.3538 H   0  0  0  0  0  0  0  0  0  0  0  0
   45.6892    7.5825   12.3434 H   0  0  0  0  0  0  0  0  0  0  0  0
   45.5885    5.5481   14.2720 H   0  0  0  0  0  0  0  0  0  0  0  0
   46.7775    4.3423   13.7904 H   0  0  0  0  0  0  0  0  0  0  0  0
   47.9660    6.3689   13.7900 H   0  0  0  0  0  0  0  0  0  0  0  0
   47.7116    5.9977   12.0858 H   0  0  0  0  0  0  0  0  0  0  0  0
   46.9422   10.7897   12.8522 H   0  0  0  0  0  0  0  0  0  0  0  0
   45.5117    9.8036   12.5110 H   0  0  0  0  0  0  0  0  0  0  0  0
   46.7126   10.0896   11.2229 H   0  0  0  0  0  0  0  0  0  0  0  0
   47.8744    8.1951   11.1906 H   0  0  0  0  0  0  0  0  0  0  0  0
   48.6561    7.6755   12.6992 H   0  0  0  0  0  0  0  0  0  0  0  0
   44.2340    6.5572   13.0198 H   0  0  0  0  0  0  0  0  0  0  0  0
   46.4817    7.7729   13.9002 H   0  0  0  0  0  0  0  0  0  0  0  0
   45.6801    8.4086   12.4776 H   0  0  0  0  0  0  0  0  0  0  0  0
   46.1965    6.2907   11.2268 H   0  0  0  0  0  0  0  0  0  0  0  0
   46.9947    5.6410   12.6685 H   0  0  0  0  0  0  0  0  0  0  0  0
   42.4367    4.4731   12.2341 H   0  0  0  0  0  0  0  0  0  0  0  0
   42.8530    4.9393   13.9054 H   0  0  0  0  0  0  0  0  0  0  0  0
   43.0390    3.2538   13.3927 H   0  0  0  0  0  0  0  0  0  0  0  0
  2  1  1  0
  3  1  2  0
  4  1  2  0
  5  8  1  0
  6  5  2  0
  7  1  1  0
  8 10  1  0
  9  7  1  0
 10  9  1  0
 11  5  1  0
 13 12  1  0
 14 12  2  0
 15 12  2  0
 16 19  1  0
 17 16  2  0
 18 12  1  0
 19 21  1  0
 20 18  1  0
 21 20  1  0
 22 16  1  0
  7 24  1  0
  7 25  1  0
  8 26  1  0
  9 27  1  0
  9 28  1  0
 10 29  1  0
 10 30  1  0
 11 31  1  0
 11 32  1  0
 11 33  1  0
 18 34  1  0
 18 35  1  0
 19 36  1  0
 20 37  1  0
 20 38  1  0
 21 39  1  0
 21 40  1  0
 22 41  1  0
 22 42  1  0
 22 43  1  0
M  CHG  3   2  -1  13  -1  23   2
M  END
> <Uni-Dock RESULT> 
ENERGY=   -3.921  LOWER_BOUND=    4.687  UPPER_BOUND=    6.853
INTER + INTRA:          -3.921
INTER:                  -3.921
INTRA:                   0.000
UNBOUND:                 0.000

$$$$

     RDKit          3D

 43 40  0  0  0  0  0  0  0  0999 V2000
   42.5046   10.1053   10.2912 S   0  0  0  0  0  0  0  0  0  0  0  0
   41.1368   10.5685   10.5059 O   0  0  0  0  0  0  0  0  0  0  0  0
   42.7794    8.7625   10.8042 O   0  0  0  0  0  0  0  0  0  0  0  0
   43.0462   10.3747    8.9628 O   0  0  0  0  0  0  0  0  0  0  0  0
   45.7785    7.3967   12.2789 C   0  0  0  0  0  0  0  0  0  0  0  0
   46.6752    7.4301   13.1185 O   0  0  0  0  0  0  0  0  0  0  0  0
   43.4542   11.1721   11.3537 C   0  0  0  0  0  0  0  0  0  0  0  0
   45.1938    8.5096   11.7307 N   0  0  0  0  0  0  0  0  0  0  0  0
   44.9648   10.9445   11.3101 C   0  0  0  0  0  0  0  0  0  0  0  0
   45.4596    9.8325   12.2341 C   0  0  0  0  0  0  0  0  0  0  0  0
   45.2112    6.0991   11.7677 C   0  0  0  0  0  0  0  0  0  0  0  0
   46.4783    6.1932   12.7221 S   0  0  0  0  0  0  0  0  0  0  0  0
   46.8984    5.8467   14.0778 O   0  0  0  0  0  0  0  0  0  0  0  0
   45.4308    5.3392   12.1656 O   0  0  0  0  0  0  0  0  0  0  0  0
   47.5676    6.5164   11.8038 O   0  0  0  0  0  0  0  0  0  0  0  0
   43.2002   11.3463   10.5580 C   0  0  0  0  0  0  0  0  0  0  0  0
   43.0644   12.1029   11.5134 O   0  0  0  0  0  0  0  0  0  0  0  0
   45.6543    7.7528   12.9506 C   0  0  0  0  0  0  0  0  0  0  0  0
   43.8382   10.1303   10.6158 N   0  0  0  0  0  0  0  0  0  0  0  0
   45.1440    8.3289   11.6375 C   0  0  0  0  0  0  0  0  0  0  0  0
   44.3406    9.5982   11.8681 C   0  0  0  0  0  0  0  0  0  0  0  0
   42.6409   11.6670    9.1983 C   0  0  0  0  0  0  0  0  0  0  0  0
   44.5255    9.1421   11.4486 Ca  0  0  0  0  0 15  0  0  0  0  0  0
   43.2369   12.1922   11.0155 H   0  0  0  0  0  0  0  0  0  0  0  0
   43.0622   11.0673   12.3706 H   0  0  0  0  0  0  0  0  0  0  0  0
   44.2681    8.3696   11.2963 H   0  0  0  0  0  0  0  0  0  0  0  0
   45.3099   10.7697   10.2851 H   0  0  0  0  0  0  0  0  0  0  0  0
   45.4390   11.8739   11.6502 H   0  0  0  0  0  0  0  0  0  0  0  0
   46.5437    9.9278   12.3654 H   0  0  0  0  0  0  0  0  0  0  0  0
   45.0072    9.9144   13.2290 H   0  0  0  0  0  0  0  0  0  0  0  0
   46.0253    5.3831   11.6250 H   0  0  0  0  0  0  0  0  0  0  0  0
   44.7049    6.2335   10.8074 H   0  0  0  0  0  0  0  0  0  0  0  0
   44.4999    5.7076   12.4999 H   0  0  0  0  0  0  0  0  0  0  0  0
   44.8292    7.5805   13.6504 H   0  0  0  0  0  0  0  0  0  0  0  0
   46.3701    8.4349   13.4212 H   0  0  0  0  0  0  0  0  0  0  0  0
   43.7086    9.4777    9.8523 H   0  0  0  0  0  0  0  0  0  0  0  0
   45.9857    8.5418   10.9675 H   0  0  0  0  0  0  0  0  0  0  0  0
   44.5206    7.5921   11.1164 H   0  0  0  0  0  0  0  0  0  0  0  0
   43.4762    9.4021   12.5127 H   0  0  0  0  0  0  0  0  0  0  0  0
   44.9513   10.3695   12.3512 H   0  0  0  0  0  0  0  0  0  0  0  0
   41.6164   11.2937    9.1337 H   0  0  0  0  0  0  0  0  0  0  0  0
   43.2442   11.2115    8.4076 H   0  0  0  0  0  0  0  0  0  0  0  0
   42.6473   12.7505    9.0508 H   0  0  0  0  0  0  0  0  0  0  0  0
  2  1  1  0
  3  1  2  0
  4  1  2  0
  5  8  1  0
  6  5  2  0
  7  1  1  0
  8 10  1  0
  9  7  1  0
 10  9  1  0
 11  5  1  0
 13 12  1  0
 14 12  2  0
 15 12  2  0
 16 19  1  0
 17 16  2  0
 18 12  1  0
 19 21  1  0
 20 18  1  0
 21 20  1  0
 22 16  1  0
  7 24  1  0
  7 25  1  0
  8 26  1  0
  9 27  1  0
  9 28  1  0
 10 29  1  0
 10 30  1  0
 11 31  1  0
 11 32  1  0
 11 33  1  0
 18 34  1  0
 18 35  1  0
 19 36  1  0
 20 37  1  0
 20 38  1  0
 21 39  1  0
 21 40  1  0
 22 41  1  0
 22 42  1  0
 22 43  1  0
M  CHG  3   2  -1  13  -1  23   2
M  END
> <Uni-Dock RESULT> 
ENERGY=   -3.877  LOWER_BOUND=    5.548  UPPER_BOUND=    7.746
INTER + INTRA:          -3.877
INTER:                  -3.877
INTRA:                   0.000
UNBOUND:                 0.000

$$$$

     RDKit          3D

 43 40  0  0  0  0  0  0  0  0999 V2000
   44.1153    5.2168   11.1315 S   0  0  0  0  0  0  0  0  0  0  0  0
   43.8834    4.5907    9.8331 O   0  0  0  0  0  0  0  0  0  0  0  0
   44.8225    6.4966   11.0718 O   0  0  0  0  0  0  0  0  0  0  0  0
   42.9746    5.1906   12.0419 O   0  0  0  0  0  0  0  0  0  0  0  0
   47.2218    7.9450   13.3479 C   0  0  0  0  0  0  0  0  0  0  0  0
   48.2731    7.8876   13.9817 O   0  0  0  0  0  0  0  0  0  0  0  0
   45.2861    4.1160   11.8972 C   0  0  0  0  0  0  0  0  0  0  0  0
   46.4172    6.8647   13.0901 N   0  0  0  0  0  0  0  0  0  0  0  0
   45.6970    4.5009   13.3180 C   0  0  0  0  0  0  0  0  0  0  0  0
   46.8343    5.5190   13.3891 C   0  0  0  0  0  0  0  0  0  0  0  0
   46.7091    9.2359   12.7669 C   0  0  0  0  0  0  0  0  0  0  0  0
   47.9686    9.1407   13.7313 S   0  0  0  0  0  0  0  0  0  0  0  0
   49.4162    9.3375   13.7199 O   0  0  0  0  0  0  0  0  0  0  0  0
   47.2300    9.9518   12.7653 O   0  0  0  0  0  0  0  0  0  0  0  0
   47.3686    9.0610   15.0609 O   0  0  0  0  0  0  0  0  0  0  0  0
   44.4374    4.0285   11.8928 C   0  0  0  0  0  0  0  0  0  0  0  0
   45.2305    3.1371   11.6100 O   0  0  0  0  0  0  0  0  0  0  0  0
   47.7896    7.4885   13.0976 C   0  0  0  0  0  0  0  0  0  0  0  0
   44.8005    5.2837   12.3192 N   0  0  0  0  0  0  0  0  0  0  0  0
   46.3330    7.0504   13.0429 C   0  0  0  0  0  0  0  0  0  0  0  0
   46.1923    5.6859   12.3886 C   0  0  0  0  0  0  0  0  0  0  0  0
   42.9491    3.8436   11.7690 C   0  0  0  0  0  0  0  0  0  0  0  0
   45.8925    6.2122   12.6153 Ca  0  0  0  0  0 15  0  0  0  0  0  0
   44.7955    3.1357   11.9205 H   0  0  0  0  0  0  0  0  0  0  0  0
   46.1552    4.0384   11.2357 H   0  0  0  0  0  0  0  0  0  0  0  0
   45.7551    6.9679   12.3051 H   0  0  0  0  0  0  0  0  0  0  0  0
   44.8362    4.8503   13.8986 H   0  0  0  0  0  0  0  0  0  0  0  0
   46.0587    3.5867   13.8058 H   0  0  0  0  0  0  0  0  0  0  0  0
   47.2571    5.5180   14.4005 H   0  0  0  0  0  0  0  0  0  0  0  0
   47.6456    5.2543   12.7016 H   0  0  0  0  0  0  0  0  0  0  0  0
   46.8789   10.0443   13.4835 H   0  0  0  0  0  0  0  0  0  0  0  0
   45.6360    9.1846   12.5607 H   0  0  0  0  0  0  0  0  0  0  0  0
   47.2461    9.4473   11.8383 H   0  0  0  0  0  0  0  0  0  0  0  0
   48.2406    7.4769   12.0993 H   0  0  0  0  0  0  0  0  0  0  0  0
   48.3702    6.8246   13.7469 H   0  0  0  0  0  0  0  0  0  0  0  0
   44.1042    6.0189   12.3115 H   0  0  0  0  0  0  0  0  0  0  0  0
   45.9111    7.0196   14.0547 H   0  0  0  0  0  0  0  0  0  0  0  0
   45.7364    7.7845   12.4879 H   0  0  0  0  0  0  0  0  0  0  0  0
   46.5819    5.7014   11.3644 H   0  0  0  0  0  0  0  0  0  0  0  0
   46.7456    4.9218   12.9466 H   0  0  0  0  0  0  0  0  0  0  0  0
   42.6358    4.1153   10.7584 H   0  0  0  0  0  0  0  0  0  0  0  0
   42.4142    4.4634   12.4944 H   0  0  0  0  0  0  0  0  0  0  0  0
   42.6972    2.7973   11.9630 H   0  0  0  0  0  0  0  0  0  0  0  0
  2  1  1  0
  3  1  2  0
  4  1  2  0
  5  8  1  0
  6  5  2  0
  7  1  1  0
  8 10  1  0
  9  7  1  0
 10  9  1  0
 11  5  1  0
 13 12  1  0
 14 12  2  0
 15 12  2  0
 16 19  1  0
 17 16  2  0
 18 12  1  0
 19 21  1  0
 20 18  1  0
 21 20  1  0
 22 16  1  0
  7 24  1  0
  7 25  1  0
  8 26  1  0
  9 27  1  0
  9 28  1  0
 10 29  1  0
 10 30  1  0
 11 31  1  0
 11 32  1  0
 11 33  1  0
 18 34  1  0
 18 35  1  0
 19 36  1  0
 20 37  1  0
 20 38  1  0
 21 39  1  0
 21 40  1  0
 22 41  1  0
 22 42  1  0
 22 43  1  0
M  CHG  3   2  -1  13  -1  23   2
M  END
> <Uni-Dock RESULT> 
ENERGY=   -3.834  LOWER_BOUND=    4.270  UPPER_BOUND=    6.325
INTER + INTRA:          -3.834
INTER:                  -3.834
INTRA:                   0.000
UNBOUND:                 0.000

$$$$

     RDKit          3D

 43 40  0  0  0  0  0  0  0  0999 V2000
   47.4979    8.7357   13.9136 S   0  0  0  0  0  0  0  0  0  0  0  0
   47.6782    9.4384   15.1805 O   0  0  0  0  0  0  0  0  0  0  0  0
   46.1026    8.4817   13.5523 O   0  0  0  0  0  0  0  0  0  0  0  0
   48.3357    9.2136   12.8179 O   0  0  0  0  0  0  0  0  0  0  0  0
   44.6108    5.6806   11.8309 C   0  0  0  0  0  0  0  0  0  0  0  0
   44.4071    4.4742   11.7154 O   0  0  0  0  0  0  0  0  0  0  0  0
   48.1510    7.1171   14.2633 C   0  0  0  0  0  0  0  0  0  0  0  0
   45.7759    6.2234   12.3093 N   0  0  0  0  0  0  0  0  0  0  0  0
   48.1327    6.1469   13.0825 C   0  0  0  0  0  0  0  0  0  0  0  0
   46.8079    5.4084   12.8966 C   0  0  0  0  0  0  0  0  0  0  0  0
   43.5708    6.7049   11.4622 C   0  0  0  0  0  0  0  0  0  0  0  0
   43.4184    5.1494   11.1748 S   0  0  0  0  0  0  0  0  0  0  0  0
   42.6087    4.0016   11.5762 O   0  0  0  0  0  0  0  0  0  0  0  0
   42.7455    6.4428   11.2775 O   0  0  0  0  0  0  0  0  0  0  0  0
   44.2031    4.9539    9.9581 O   0  0  0  0  0  0  0  0  0  0  0  0
   48.5988    7.8023   14.0226 C   0  0  0  0  0  0  0  0  0  0  0  0
   48.8894    7.0777   14.9682 O   0  0  0  0  0  0  0  0  0  0  0  0
   44.6520    5.2290   12.4536 C   0  0  0  0  0  0  0  0  0  0  0  0
   47.5421    7.5813   13.1719 N   0  0  0  0  0  0  0  0  0  0  0  0
   45.6432    6.3609   12.2239 C   0  0  0  0  0  0  0  0  0  0  0  0
   46.6143    6.4872   13.3861 C   0  0  0  0  0  0  0  0  0  0  0  0
   49.3709    9.0551   13.7084 C   0  0  0  0  0  0  0  0  0  0  0  0
   46.3883    6.7450   12.8378 Ca  0  0  0  0  0 15  0  0  0  0  0  0
   49.1894    7.2805   14.5751 H   0  0  0  0  0  0  0  0  0  0  0  0
   47.6044    6.7136   15.1220 H   0  0  0  0  0  0  0  0  0  0  0  0
   45.7173    7.1946   12.6536 H   0  0  0  0  0  0  0  0  0  0  0  0
   48.4228    6.6486   12.1528 H   0  0  0  0  0  0  0  0  0  0  0  0
   48.8958    5.3840   13.2826 H   0  0  0  0  0  0  0  0  0  0  0  0
   46.9650    4.5449   12.2398 H   0  0  0  0  0  0  0  0  0  0  0  0
   46.4333    5.0218   13.8512 H   0  0  0  0  0  0  0  0  0  0  0  0
   43.0690    6.3917   10.5425 H   0  0  0  0  0  0  0  0  0  0  0  0
   44.0196    7.6869   11.2867 H   0  0  0  0  0  0  0  0  0  0  0  0
   42.8412    6.7804   12.2730 H   0  0  0  0  0  0  0  0  0  0  0  0
   44.1218    5.3586   13.4036 H   0  0  0  0  0  0  0  0  0  0  0  0
   45.1654    4.2619   12.4734 H   0  0  0  0  0  0  0  0  0  0  0  0
   47.2392    8.3360   12.5684 H   0  0  0  0  0  0  0  0  0  0  0  0
   46.2003    6.1905   11.2947 H   0  0  0  0  0  0  0  0  0  0  0  0
   45.1108    7.3102   12.0884 H   0  0  0  0  0  0  0  0  0  0  0  0
   46.0802    6.6871   14.3219 H   0  0  0  0  0  0  0  0  0  0  0  0
   47.1919    5.5653   13.5197 H   0  0  0  0  0  0  0  0  0  0  0  0
   48.9410    9.8913   14.2645 H   0  0  0  0  0  0  0  0  0  0  0  0
   49.3413    9.2771   12.6377 H   0  0  0  0  0  0  0  0  0  0  0  0
   50.4160    8.9187   13.9996 H   0  0  0  0  0  0  0  0  0  0  0  0
  2  1  1  0
  3  1  2  0
  4  1  2  0
  5  8  1  0
  6  5  2  0
  7  1  1  0
  8 10  1  0
  9  7  1  0
 10  9  1  0
 11  5  1  0
 13 12  1  0
 14 12  2  0
 15 12  2  0
 16 19  1  0
 17 16  2  0
 18 12  1  0
 19 21  1  0
 20 18  1  0
 21 20  1  0
 22 16  1  0
  7 24  1  0
  7 25  1  0
  8 26  1  0
  9 27  1  0
  9 28  1  0
 10 29  1  0
 10 30  1  0
 11 31  1  0
 11 32  1  0
 11 33  1  0
 18 34  1  0
 18 35  1  0
 19 36  1  0
 20 37  1  0
 20 38  1  0
 21 39  1  0
 21 40  1  0
 22 41  1  0
 22 42  1  0
 22 43  1  0
M  CHG  3   2  -1  13  -1  23   2
M  END
> <Uni-Dock RESULT> 
ENERGY=   -3.770  LOWER_BOUND=    4.581  UPPER_BOUND=    6.860
INTER + INTRA:          -3.770
INTER:                  -3.770
INTRA:                   0.000
UNBOUND:                 0.000

$$$$
