
     RDKit          3D

 43 40  0  0  0  0  0  0  0  0999 V2000
   43.4329    3.8547   12.3175 S   0  0  0  0  0  0  0  0  0  0  0  0
   42.9786    4.3372   11.0154 O   0  0  0  0  0  0  0  0  0  0  0  0
   42.8643    4.5510   13.4699 O   0  0  0  0  0  0  0  0  0  0  0  0
   43.4964    2.4011   12.4478 O   0  0  0  0  0  0  0  0  0  0  0  0
   48.1999    8.2402   12.1756 C   0  0  0  0  0  0  0  0  0  0  0  0
   49.2512    7.6079   12.1567 O   0  0  0  0  0  0  0  0  0  0  0  0
   45.1462    4.3305   12.3594 C   0  0  0  0  0  0  0  0  0  0  0  0
   46.9533    7.6650   12.2320 N   0  0  0  0  0  0  0  0  0  0  0  0
   45.3271    5.8349   12.2142 C   0  0  0  0  0  0  0  0  0  0  0  0
   46.7871    6.2304   12.3669 C   0  0  0  0  0  0  0  0  0  0  0  0
   48.1808    9.7452   12.1425 C   0  0  0  0  0  0  0  0  0  0  0  0
   44.4246    3.6723   11.9218 S   0  0  0  0  0  0  0  0  0  0  0  0
   43.9500    2.5929   11.0582 O   0  0  0  0  0  0  0  0  0  0  0  0
   45.6617    3.3714   12.6400 O   0  0  0  0  0  0  0  0  0  0  0  0
   43.3891    4.3246   12.7164 O   0  0  0  0  0  0  0  0  0  0  0  0
   46.7652    8.5919   12.8732 C   0  0  0  0  0  0  0  0  0  0  0  0
   45.5918    8.8307   13.1309 O   0  0  0  0  0  0  0  0  0  0  0  0
   44.9130    4.9208   10.7536 C   0  0  0  0  0  0  0  0  0  0  0  0
   47.2517    7.3821   12.4357 N   0  0  0  0  0  0  0  0  0  0  0  0
   45.2978    6.2659   11.3629 C   0  0  0  0  0  0  0  0  0  0  0  0
   46.4379    6.1742   12.3744 C   0  0  0  0  0  0  0  0  0  0  0  0
   47.8310    9.6458   13.0228 C   0  0  0  0  0  0  0  0  0  0  0  0
   46.0905    6.4940   12.1854 Ca  0  0  0  0  0 15  0  0  0  0  0  0
   45.6541    3.7981   11.5480 H   0  0  0  0  0  0  0  0  0  0  0  0
   45.5533    3.9774   13.3131 H   0  0  0  0  0  0  0  0  0  0  0  0
   46.1558    8.2465   12.4540 H   0  0  0  0  0  0  0  0  0  0  0  0
   44.7271    6.3635   12.9653 H   0  0  0  0  0  0  0  0  0  0  0  0
   44.9545    6.1671   11.2372 H   0  0  0  0  0  0  0  0  0  0  0  0
   47.4122    5.7365   11.6141 H   0  0  0  0  0  0  0  0  0  0  0  0
   47.1665    5.9469   13.3553 H   0  0  0  0  0  0  0  0  0  0  0  0
   47.1635   10.1376   12.0481 H   0  0  0  0  0  0  0  0  0  0  0  0
   48.6222   10.1280   13.0680 H   0  0  0  0  0  0  0  0  0  0  0  0
   48.7646   10.0905   11.2828 H   0  0  0  0  0  0  0  0  0  0  0  0
   45.7440    4.5092   10.1702 H   0  0  0  0  0  0  0  0  0  0  0  0
   44.0661    5.0642   10.0731 H   0  0  0  0  0  0  0  0  0  0  0  0
   48.2488    7.2305   12.4897 H   0  0  0  0  0  0  0  0  0  0  0  0
   44.4242    6.7228   11.8425 H   0  0  0  0  0  0  0  0  0  0  0  0
   45.5818    6.9346   10.5404 H   0  0  0  0  0  0  0  0  0  0  0  0
   47.1369    5.3781   12.0982 H   0  0  0  0  0  0  0  0  0  0  0  0
   46.0535    5.9756   13.3804 H   0  0  0  0  0  0  0  0  0  0  0  0
   47.4446   10.6010   12.6557 H   0  0  0  0  0  0  0  0  0  0  0  0
   48.0982    9.7383   14.0787 H   0  0  0  0  0  0  0  0  0  0  0  0
   48.7256    9.3982   12.4450 H   0  0  0  0  0  0  0  0  0  0  0  0
  2  1  1  0
  3  1  2  0
  4  1  2  0
  5  8  1  0
  6  5  2  0
  7  1  1  0
  8 10  1  0
  9  7  1  0
 10  9  1  0
 11  5  1  0
 13 12  1  0
 14 12  2  0
 15 12  2  0
 16 19  1  0
 17 16  2  0
 18 12  1  0
 19 21  1  0
 20 18  1  0
 21 20  1  0
 22 16  1  0
  7 24  1  0
  7 25  1  0
  8 26  1  0
  9 27  1  0
  9 28  1  0
 10 29  1  0
 10 30  1  0
 11 31  1  0
 11 32  1  0
 11 33  1  0
 18 34  1  0
 18 35  1  0
 19 36  1  0
 20 37  1  0
 20 38  1  0
 21 39  1  0
 21 40  1  0
 22 41  1  0
 22 42  1  0
 22 43  1  0
M  CHG  3   2  -1  13  -1  23   2
M  END
> <Uni-Dock RESULT> 
ENERGY=   -5.223  LOWER_BOUND=    0.000  UPPER_BOUND=    0.000
INTER + INTRA:          -5.223
INTER:                  -5.223
INTRA:                   0.000
UNBOUND:                 0.000

$$$$

     RDKit          3D

 43 40  0  0  0  0  0  0  0  0999 V2000
   43.2534    4.4662   11.8694 S   0  0  0  0  0  0  0  0  0  0  0  0
   43.7628    4.2802   10.5127 O   0  0  0  0  0  0  0  0  0  0  0  0
   42.0046    5.2193   11.9652 O   0  0  0  0  0  0  0  0  0  0  0  0
   43.3235    3.2816   12.7214 O   0  0  0  0  0  0  0  0  0  0  0  0
   46.5088   10.0565   12.2257 C   0  0  0  0  0  0  0  0  0  0  0  0
   47.3410    9.9161   13.1162 O   0  0  0  0  0  0  0  0  0  0  0  0
   44.4451    5.5581   12.6119 C   0  0  0  0  0  0  0  0  0  0  0  0
   45.6006    9.0932   11.8581 N   0  0  0  0  0  0  0  0  0  0  0  0
   44.5605    6.8768   11.8606 C   0  0  0  0  0  0  0  0  0  0  0  0
   45.4977    7.8369   12.5757 C   0  0  0  0  0  0  0  0  0  0  0  0
   46.4017   11.3344   11.4369 C   0  0  0  0  0  0  0  0  0  0  0  0
   44.2621    4.5671   12.2514 S   0  0  0  0  0  0  0  0  0  0  0  0
   44.5801    3.1710   11.9583 O   0  0  0  0  0  0  0  0  0  0  0  0
   44.7072    5.0246   13.5664 O   0  0  0  0  0  0  0  0  0  0  0  0
   42.9158    4.9837   11.8727 O   0  0  0  0  0  0  0  0  0  0  0  0
   44.9584   10.0269   11.7117 C   0  0  0  0  0  0  0  0  0  0  0  0
   43.9056    9.8587   11.1089 O   0  0  0  0  0  0  0  0  0  0  0  0
   45.3135    5.4522   11.1231 C   0  0  0  0  0  0  0  0  0  0  0  0
   45.7035    9.0324   12.3011 N   0  0  0  0  0  0  0  0  0  0  0  0
   45.0809    6.9592   11.0645 C   0  0  0  0  0  0  0  0  0  0  0  0
   45.2408    7.6546   12.4144 C   0  0  0  0  0  0  0  0  0  0  0  0
   45.5581   11.3991   11.8744 C   0  0  0  0  0  0  0  0  0  0  0  0
   45.0892    7.7329   11.9353 Ca  0  0  0  0  0 15  0  0  0  0  0  0
   45.4065    5.0333   12.6254 H   0  0  0  0  0  0  0  0  0  0  0  0
   44.1265    5.7235   13.6467 H   0  0  0  0  0  0  0  0  0  0  0  0
   44.8212    9.3551   11.2687 H   0  0  0  0  0  0  0  0  0  0  0  0
   43.5725    7.3427   11.7577 H   0  0  0  0  0  0  0  0  0  0  0  0
   44.9217    6.6993   10.8399 H   0  0  0  0  0  0  0  0  0  0  0  0
   46.5025    7.4102   12.6739 H   0  0  0  0  0  0  0  0  0  0  0  0
   45.1300    8.0628   13.5831 H   0  0  0  0  0  0  0  0  0  0  0  0
   45.6893   11.2446   10.6110 H   0  0  0  0  0  0  0  0  0  0  0  0
   46.0709   12.1378   12.1025 H   0  0  0  0  0  0  0  0  0  0  0  0
   47.3840   11.5794   11.0198 H   0  0  0  0  0  0  0  0  0  0  0  0
   46.3486    5.2320   11.4067 H   0  0  0  0  0  0  0  0  0  0  0  0
   45.1412    5.0236   10.1295 H   0  0  0  0  0  0  0  0  0  0  0  0
   46.4099    9.3084   12.9682 H   0  0  0  0  0  0  0  0  0  0  0  0
   44.0813    7.1681   10.6658 H   0  0  0  0  0  0  0  0  0  0  0  0
   45.7935    7.3779   10.3426 H   0  0  0  0  0  0  0  0  0  0  0  0
   46.0011    7.1518   13.0210 H   0  0  0  0  0  0  0  0  0  0  0  0
   44.2946    7.6614   12.9657 H   0  0  0  0  0  0  0  0  0  0  0  0
   45.4495   11.9513   10.9365 H   0  0  0  0  0  0  0  0  0  0  0  0
   45.0337   11.9270   12.6752 H   0  0  0  0  0  0  0  0  0  0  0  0
   46.6235   11.3467   12.1147 H   0  0  0  0  0  0  0  0  0  0  0  0
  2  1  1  0
  3  1  2  0
  4  1  2  0
  5  8  1  0
  6  5  2  0
  7  1  1  0
  8 10  1  0
  9  7  1  0
 10  9  1  0
 11  5  1  0
 13 12  1  0
 14 12  2  0
 15 12  2  0
 16 19  1  0
 17 16  2  0
 18 12  1  0
 19 21  1  0
 20 18  1  0
 21 20  1  0
 22 16  1  0
  7 24  1  0
  7 25  1  0
  8 26  1  0
  9 27  1  0
  9 28  1  0
 10 29  1  0
 10 30  1  0
 11 31  1  0
 11 32  1  0
 11 33  1  0
 18 34  1  0
 18 35  1  0
 19 36  1  0
 20 37  1  0
 20 38  1  0
 21 39  1  0
 21 40  1  0
 22 41  1  0
 22 42  1  0
 22 43  1  0
M  CHG  3   2  -1  13  -1  23   2
M  END
> <Uni-Dock RESULT> 
ENERGY=   -4.952  LOWER_BOUND=    1.713  UPPER_BOUND=    1.926
INTER + INTRA:          -4.952
INTER:                  -4.952
INTRA:                   0.000
UNBOUND:                 0.000

$$$$

     RDKit          3D

 43 40  0  0  0  0  0  0  0  0999 V2000
   44.8472    6.0050   12.3344 S   0  0  0  0  0  0  0  0  0  0  0  0
   45.7620    7.1434   12.3783 O   0  0  0  0  0  0  0  0  0  0  0  0
   43.7838    6.0247   13.3369 O   0  0  0  0  0  0  0  0  0  0  0  0
   44.4211    5.6087   10.9944 O   0  0  0  0  0  0  0  0  0  0  0  0
   48.6331    2.9169   16.5895 C   0  0  0  0  0  0  0  0  0  0  0  0
   49.0663    1.9253   16.0112 O   0  0  0  0  0  0  0  0  0  0  0  0
   45.8638    4.6383   12.8463 C   0  0  0  0  0  0  0  0  0  0  0  0
   47.7677    3.8233   16.0262 N   0  0  0  0  0  0  0  0  0  0  0  0
   46.4474    4.8471   14.2365 C   0  0  0  0  0  0  0  0  0  0  0  0
   47.2174    3.6207   14.6995 C   0  0  0  0  0  0  0  0  0  0  0  0
   49.0180    3.2361   18.0096 C   0  0  0  0  0  0  0  0  0  0  0  0
   45.6602    5.3416   12.0657 S   0  0  0  0  0  0  0  0  0  0  0  0
   45.8296    5.9757   10.7597 O   0  0  0  0  0  0  0  0  0  0  0  0
   45.6847    3.8804   12.0352 O   0  0  0  0  0  0  0  0  0  0  0  0
   44.6185    5.9271   12.9032 O   0  0  0  0  0  0  0  0  0  0  0  0
   47.3781    3.8294   17.1004 C   0  0  0  0  0  0  0  0  0  0  0  0
   46.5906    4.7264   17.3750 O   0  0  0  0  0  0  0  0  0  0  0  0
   47.1690    5.7673   12.9050 C   0  0  0  0  0  0  0  0  0  0  0  0
   47.6976    3.4153   15.8284 N   0  0  0  0  0  0  0  0  0  0  0  0
   47.2197    5.3891   14.3825 C   0  0  0  0  0  0  0  0  0  0  0  0
   47.0073    3.8989   14.6388 C   0  0  0  0  0  0  0  0  0  0  0  0
   48.0971    3.0602   18.1776 C   0  0  0  0  0  0  0  0  0  0  0  0
   47.0479    4.3475   14.8750 Ca  0  0  0  0  0 15  0  0  0  0  0  0
   46.6607    4.5264   12.1033 H   0  0  0  0  0  0  0  0  0  0  0  0
   45.2343    3.7423   12.8164 H   0  0  0  0  0  0  0  0  0  0  0  0
   47.2975    4.4888   16.6258 H   0  0  0  0  0  0  0  0  0  0  0  0
   45.6476    5.0664   14.9549 H   0  0  0  0  0  0  0  0  0  0  0  0
   47.1092    5.7222   14.2404 H   0  0  0  0  0  0  0  0  0  0  0  0
   48.0408    3.3879   14.0144 H   0  0  0  0  0  0  0  0  0  0  0  0
   46.5622    2.7434   14.7458 H   0  0  0  0  0  0  0  0  0  0  0  0
   48.6355    4.2116   18.3257 H   0  0  0  0  0  0  0  0  0  0  0  0
   48.6102    2.4657   18.6715 H   0  0  0  0  0  0  0  0  0  0  0  0
   50.1101    3.2522   18.0881 H   0  0  0  0  0  0  0  0  0  0  0  0
   47.9888    5.2909   12.3561 H   0  0  0  0  0  0  0  0  0  0  0  0
   47.2883    6.8522   12.8080 H   0  0  0  0  0  0  0  0  0  0  0  0
   48.1605    2.5232   15.7280 H   0  0  0  0  0  0  0  0  0  0  0  0
   46.4710    5.9628   14.9412 H   0  0  0  0  0  0  0  0  0  0  0  0
   48.1978    5.6989   14.7718 H   0  0  0  0  0  0  0  0  0  0  0  0
   47.4147    3.3029   13.8157 H   0  0  0  0  0  0  0  0  0  0  0  0
   45.9425    3.6687   14.7504 H   0  0  0  0  0  0  0  0  0  0  0  0
   48.4150    3.7535   18.9617 H   0  0  0  0  0  0  0  0  0  0  0  0
   47.4187    2.3139   18.5990 H   0  0  0  0  0  0  0  0  0  0  0  0
   48.9873    2.5588   17.7880 H   0  0  0  0  0  0  0  0  0  0  0  0
  2  1  1  0
  3  1  2  0
  4  1  2  0
  5  8  1  0
  6  5  2  0
  7  1  1  0
  8 10  1  0
  9  7  1  0
 10  9  1  0
 11  5  1  0
 13 12  1  0
 14 12  2  0
 15 12  2  0
 16 19  1  0
 17 16  2  0
 18 12  1  0
 19 21  1  0
 20 18  1  0
 21 20  1  0
 22 16  1  0
  7 24  1  0
  7 25  1  0
  8 26  1  0
  9 27  1  0
  9 28  1  0
 10 29  1  0
 10 30  1  0
 11 31  1  0
 11 32  1  0
 11 33  1  0
 18 34  1  0
 18 35  1  0
 19 36  1  0
 20 37  1  0
 20 38  1  0
 21 39  1  0
 21 40  1  0
 22 41  1  0
 22 42  1  0
 22 43  1  0
M  CHG  3   2  -1  13  -1  23   2
M  END
> <Uni-Dock RESULT> 
ENERGY=   -4.853  LOWER_BOUND=    3.800  UPPER_BOUND=    4.701
INTER + INTRA:          -4.853
INTER:                  -4.853
INTRA:                   0.000
UNBOUND:                 0.000

$$$$

     RDKit          3D

 43 40  0  0  0  0  0  0  0  0999 V2000
   47.2229    2.1303    6.7192 S   0  0  0  0  0  0  0  0  0  0  0  0
   45.9980    1.6751    6.0655 O   0  0  0  0  0  0  0  0  0  0  0  0
   47.6909    1.2860    7.8165 O   0  0  0  0  0  0  0  0  0  0  0  0
   48.2693    2.5946    5.8117 O   0  0  0  0  0  0  0  0  0  0  0  0
   43.6171    5.4384   10.9655 C   0  0  0  0  0  0  0  0  0  0  0  0
   43.8851    6.6238   10.7974 O   0  0  0  0  0  0  0  0  0  0  0  0
   46.7210    3.6254    7.5416 C   0  0  0  0  0  0  0  0  0  0  0  0
   44.1976    4.4082   10.2656 N   0  0  0  0  0  0  0  0  0  0  0  0
   45.5987    3.3811    8.5405 C   0  0  0  0  0  0  0  0  0  0  0  0
   45.2643    4.6475    9.3123 C   0  0  0  0  0  0  0  0  0  0  0  0
   42.6031    4.9930   11.9854 C   0  0  0  0  0  0  0  0  0  0  0  0
   46.9228    3.1640    6.5972 S   0  0  0  0  0  0  0  0  0  0  0  0
   47.0549    3.0965    5.1432 O   0  0  0  0  0  0  0  0  0  0  0  0
   47.4949    4.3663    7.2004 O   0  0  0  0  0  0  0  0  0  0  0  0
   47.2145    1.9187    7.2997 O   0  0  0  0  0  0  0  0  0  0  0  0
   44.0861    3.9067   11.2862 C   0  0  0  0  0  0  0  0  0  0  0  0
   44.2699    2.6959   11.3064 O   0  0  0  0  0  0  0  0  0  0  0  0
   45.1716    3.3774    6.8207 C   0  0  0  0  0  0  0  0  0  0  0  0
   44.4967    4.7556   10.2851 N   0  0  0  0  0  0  0  0  0  0  0  0
   44.6875    3.3059    8.2660 C   0  0  0  0  0  0  0  0  0  0  0  0
   45.3516    4.3297    9.1837 C   0  0  0  0  0  0  0  0  0  0  0  0
   43.3659    4.6091   12.4074 C   0  0  0  0  0  0  0  0  0  0  0  0
   45.0453    3.9237    9.1865 Ca  0  0  0  0  0 15  0  0  0  0  0  0
   46.4054    4.3345    6.7686 H   0  0  0  0  0  0  0  0  0  0  0  0
   47.6083    4.0296    8.0406 H   0  0  0  0  0  0  0  0  0  0  0  0
   44.0810    3.4613   10.6021 H   0  0  0  0  0  0  0  0  0  0  0  0
   45.8839    2.5905    9.2458 H   0  0  0  0  0  0  0  0  0  0  0  0
   44.7034    3.0178    8.0208 H   0  0  0  0  0  0  0  0  0  0  0  0
   44.9517    5.4523    8.6369 H   0  0  0  0  0  0  0  0  0  0  0  0
   46.1350    5.0024    9.8754 H   0  0  0  0  0  0  0  0  0  0  0  0
   42.4049    3.9187   11.9203 H   0  0  0  0  0  0  0  0  0  0  0  0
   42.9803    5.2223   12.9870 H   0  0  0  0  0  0  0  0  0  0  0  0
   41.6637    5.5281   11.8116 H   0  0  0  0  0  0  0  0  0  0  0  0
   44.9041    4.3399    6.3710 H   0  0  0  0  0  0  0  0  0  0  0  0
   44.6812    2.5891    6.2385 H   0  0  0  0  0  0  0  0  0  0  0  0
   44.5091    5.7455   10.4853 H   0  0  0  0  0  0  0  0  0  0  0  0
   44.8537    2.2990    8.6667 H   0  0  0  0  0  0  0  0  0  0  0  0
   43.6009    3.4591    8.2608 H   0  0  0  0  0  0  0  0  0  0  0  0
   45.5820    5.2488    8.6352 H   0  0  0  0  0  0  0  0  0  0  0  0
   46.2774    3.9300    9.6110 H   0  0  0  0  0  0  0  0  0  0  0  0
   42.5138    4.0003   12.7231 H   0  0  0  0  0  0  0  0  0  0  0  0
   44.0533    4.7435   13.2466 H   0  0  0  0  0  0  0  0  0  0  0  0
   42.9863    5.5850   12.0927 H   0  0  0  0  0  0  0  0  0  0  0  0
  2  1  1  0
  3  1  2  0
  4  1  2  0
  5  8  1  0
  6  5  2  0
  7  1  1  0
  8 10  1  0
  9  7  1  0
 10  9  1  0
 11  5  1  0
 13 12  1  0
 14 12  2  0
 15 12  2  0
 16 19  1  0
 17 16  2  0
 18 12  1  0
 19 21  1  0
 20 18  1  0
 21 20  1  0
 22 16  1  0
  7 24  1  0
  7 25  1  0
  8 26  1  0
  9 27  1  0
  9 28  1  0
 10 29  1  0
 10 30  1  0
 11 31  1  0
 11 32  1  0
 11 33  1  0
 18 34  1  0
 18 35  1  0
 19 36  1  0
 20 37  1  0
 20 38  1  0
 21 39  1  0
 21 40  1  0
 22 41  1  0
 22 42  1  0
 22 43  1  0
M  CHG  3   2  -1  13  -1  23   2
M  END
> <Uni-Dock RESULT> 
ENERGY=   -4.842  LOWER_BOUND=    4.210  UPPER_BOUND=    5.863
INTER + INTRA:          -4.842
INTER:                  -4.842
INTRA:                   0.000
UNBOUND:                 0.000

$$$$

     RDKit          3D

 43 40  0  0  0  0  0  0  0  0999 V2000
   48.1910    8.4061   14.0200 S   0  0  0  0  0  0  0  0  0  0  0  0
   49.0705    8.0763   12.9009 O   0  0  0  0  0  0  0  0  0  0  0  0
   48.2916    7.5125   15.1721 O   0  0  0  0  0  0  0  0  0  0  0  0
   48.1199    9.8276   14.3493 O   0  0  0  0  0  0  0  0  0  0  0  0
   43.6885    4.4754   11.5195 C   0  0  0  0  0  0  0  0  0  0  0  0
   42.7294    5.1853   11.2340 O   0  0  0  0  0  0  0  0  0  0  0  0
   46.5658    8.0664   13.3822 C   0  0  0  0  0  0  0  0  0  0  0  0
   44.8453    4.9364   12.1002 N   0  0  0  0  0  0  0  0  0  0  0  0
   46.4130    6.6163   12.9453 C   0  0  0  0  0  0  0  0  0  0  0  0
   44.9864    6.3202   12.5113 C   0  0  0  0  0  0  0  0  0  0  0  0
   43.6821    2.9931   11.2561 C   0  0  0  0  0  0  0  0  0  0  0  0
   47.4119    8.7202   13.3360 S   0  0  0  0  0  0  0  0  0  0  0  0
   48.1905    9.8689   12.8773 O   0  0  0  0  0  0  0  0  0  0  0  0
   46.0072    9.0146   13.6129 O   0  0  0  0  0  0  0  0  0  0  0  0
   48.0775    7.8830   14.3287 O   0  0  0  0  0  0  0  0  0  0  0  0
   44.7686    3.9169   12.6104 C   0  0  0  0  0  0  0  0  0  0  0  0
   45.7653    3.5521   13.2217 O   0  0  0  0  0  0  0  0  0  0  0  0
   47.3453    7.6902   11.8880 C   0  0  0  0  0  0  0  0  0  0  0  0
   44.5005    5.2107   12.2286 N   0  0  0  0  0  0  0  0  0  0  0  0
   46.7355    6.3078   12.1013 C   0  0  0  0  0  0  0  0  0  0  0  0
   45.3109    6.3470   12.6496 C   0  0  0  0  0  0  0  0  0  0  0  0
   43.6951    2.9402   12.2071 C   0  0  0  0  0  0  0  0  0  0  0  0
   45.6952    6.0303   12.5461 Ca  0  0  0  0  0 15  0  0  0  0  0  0
   46.3958    8.7458   12.5399 H   0  0  0  0  0  0  0  0  0  0  0  0
   45.8524    8.3136   14.1757 H   0  0  0  0  0  0  0  0  0  0  0  0
   45.4959    4.2682   12.4922 H   0  0  0  0  0  0  0  0  0  0  0  0
   46.6908    5.9418   13.7648 H   0  0  0  0  0  0  0  0  0  0  0  0
   47.1032    6.3958   12.1214 H   0  0  0  0  0  0  0  0  0  0  0  0
   44.6850    6.9627   11.6759 H   0  0  0  0  0  0  0  0  0  0  0  0
   44.2846    6.4916   13.3355 H   0  0  0  0  0  0  0  0  0  0  0  0
   44.6558    2.5385   11.4633 H   0  0  0  0  0  0  0  0  0  0  0  0
   42.9290    2.5206   11.8945 H   0  0  0  0  0  0  0  0  0  0  0  0
   43.4374    2.8190   10.2031 H   0  0  0  0  0  0  0  0  0  0  0  0
   46.7890    8.2440   11.1237 H   0  0  0  0  0  0  0  0  0  0  0  0
   48.3763    7.5769   11.5341 H   0  0  0  0  0  0  0  0  0  0  0  0
   43.5543    5.4318   11.9529 H   0  0  0  0  0  0  0  0  0  0  0  0
   47.3676    5.7205   12.7776 H   0  0  0  0  0  0  0  0  0  0  0  0
   46.7494    5.7856   11.1363 H   0  0  0  0  0  0  0  0  0  0  0  0
   44.7768    7.2268   12.2763 H   0  0  0  0  0  0  0  0  0  0  0  0
   45.3135    6.3716   13.7445 H   0  0  0  0  0  0  0  0  0  0  0  0
   44.1644    2.0182   11.8517 H   0  0  0  0  0  0  0  0  0  0  0  0
   43.0647    2.7221   13.0731 H   0  0  0  0  0  0  0  0  0  0  0  0
   43.0735    3.3364   11.3995 H   0  0  0  0  0  0  0  0  0  0  0  0
  2  1  1  0
  3  1  2  0
  4  1  2  0
  5  8  1  0
  6  5  2  0
  7  1  1  0
  8 10  1  0
  9  7  1  0
 10  9  1  0
 11  5  1  0
 13 12  1  0
 14 12  2  0
 15 12  2  0
 16 19  1  0
 17 16  2  0
 18 12  1  0
 19 21  1  0
 20 18  1  0
 21 20  1  0
 22 16  1  0
  7 24  1  0
  7 25  1  0
  8 26  1  0
  9 27  1  0
  9 28  1  0
 10 29  1  0
 10 30  1  0
 11 31  1  0
 11 32  1  0
 11 33  1  0
 18 34  1  0
 18 35  1  0
 19 36  1  0
 20 37  1  0
 20 38  1  0
 21 39  1  0
 21 40  1  0
 22 41  1  0
 22 42  1  0
 22 43  1  0
M  CHG  3   2  -1  13  -1  23   2
M  END
> <Uni-Dock RESULT> 
ENERGY=   -4.450  LOWER_BOUND=    2.564  UPPER_BOUND=    5.659
INTER + INTRA:          -4.450
INTER:                  -4.450
INTRA:                   0.000
UNBOUND:                 0.000

$$$$

     RDKit          3D

 43 40  0  0  0  0  0  0  0  0999 V2000
   49.7078    7.7512   13.2247 S   0  0  0  0  0  0  0  0  0  0  0  0
   49.1855    9.1124   13.1287 O   0  0  0  0  0  0  0  0  0  0  0  0
   50.0518    7.1274   11.9486 O   0  0  0  0  0  0  0  0  0  0  0  0
   50.6796    7.5385   14.2945 O   0  0  0  0  0  0  0  0  0  0  0  0
   43.6730    5.4882   12.5636 C   0  0  0  0  0  0  0  0  0  0  0  0
   43.4067    4.9028   13.6084 O   0  0  0  0  0  0  0  0  0  0  0  0
   48.3033    6.8077   13.7733 C   0  0  0  0  0  0  0  0  0  0  0  0
   44.8797    6.0910   12.3017 N   0  0  0  0  0  0  0  0  0  0  0  0
   47.1345    6.9026   12.8028 C   0  0  0  0  0  0  0  0  0  0  0  0
   45.9888    6.0001   13.2319 C   0  0  0  0  0  0  0  0  0  0  0  0
   42.6755    5.5978   11.4413 C   0  0  0  0  0  0  0  0  0  0  0  0
   49.0383    7.5354   14.0485 S   0  0  0  0  0  0  0  0  0  0  0  0
   49.7310    8.4658   14.9377 O   0  0  0  0  0  0  0  0  0  0  0  0
   48.7131    6.2469   14.6575 O   0  0  0  0  0  0  0  0  0  0  0  0
   49.5765    7.4630   12.6941 O   0  0  0  0  0  0  0  0  0  0  0  0
   44.6310    5.6998   11.2573 C   0  0  0  0  0  0  0  0  0  0  0  0
   45.3276    6.1327   10.3477 O   0  0  0  0  0  0  0  0  0  0  0  0
   47.4514    8.3084   13.8341 C   0  0  0  0  0  0  0  0  0  0  0  0
   44.9522    5.7446   12.5938 N   0  0  0  0  0  0  0  0  0  0  0  0
   46.5438    7.6526   12.7974 C   0  0  0  0  0  0  0  0  0  0  0  0
   46.2542    6.1809   13.0834 C   0  0  0  0  0  0  0  0  0  0  0  0
   43.3021    5.0453   10.9837 C   0  0  0  0  0  0  0  0  0  0  0  0
   46.1944    6.5432   12.7316 Ca  0  0  0  0  0 15  0  0  0  0  0  0
   48.0197    7.1866   14.7611 H   0  0  0  0  0  0  0  0  0  0  0  0
   48.6377    5.7705   13.8834 H   0  0  0  0  0  0  0  0  0  0  0  0
   45.0933    6.3659   11.3518 H   0  0  0  0  0  0  0  0  0  0  0  0
   47.4572    6.6242   11.7918 H   0  0  0  0  0  0  0  0  0  0  0  0
   46.7829    7.9397   12.7360 H   0  0  0  0  0  0  0  0  0  0  0  0
   45.6263    6.2679   14.2311 H   0  0  0  0  0  0  0  0  0  0  0  0
   46.3082    4.9520   13.2615 H   0  0  0  0  0  0  0  0  0  0  0  0
   43.0358    6.2483   10.6383 H   0  0  0  0  0  0  0  0  0  0  0  0
   42.4894    4.6004   11.0308 H   0  0  0  0  0  0  0  0  0  0  0  0
   41.7429    6.0175   11.8327 H   0  0  0  0  0  0  0  0  0  0  0  0
   46.9660    8.3263   14.8161 H   0  0  0  0  0  0  0  0  0  0  0  0
   47.6436    9.3458   13.5377 H   0  0  0  0  0  0  0  0  0  0  0  0
   44.4301    5.1503   13.2218 H   0  0  0  0  0  0  0  0  0  0  0  0
   46.9871    7.7469   11.7992 H   0  0  0  0  0  0  0  0  0  0  0  0
   45.6045    8.2193   12.7715 H   0  0  0  0  0  0  0  0  0  0  0  0
   46.2257    5.9947   14.1619 H   0  0  0  0  0  0  0  0  0  0  0  0
   47.0167    5.5371   12.6323 H   0  0  0  0  0  0  0  0  0  0  0  0
   42.7786    5.6083   10.2056 H   0  0  0  0  0  0  0  0  0  0  0  0
   43.4703    4.0195   10.6456 H   0  0  0  0  0  0  0  0  0  0  0  0
   42.6692    5.0317   11.8752 H   0  0  0  0  0  0  0  0  0  0  0  0
  2  1  1  0
  3  1  2  0
  4  1  2  0
  5  8  1  0
  6  5  2  0
  7  1  1  0
  8 10  1  0
  9  7  1  0
 10  9  1  0
 11  5  1  0
 13 12  1  0
 14 12  2  0
 15 12  2  0
 16 19  1  0
 17 16  2  0
 18 12  1  0
 19 21  1  0
 20 18  1  0
 21 20  1  0
 22 16  1  0
  7 24  1  0
  7 25  1  0
  8 26  1  0
  9 27  1  0
  9 28  1  0
 10 29  1  0
 10 30  1  0
 11 31  1  0
 11 32  1  0
 11 33  1  0
 18 34  1  0
 18 35  1  0
 19 36  1  0
 20 37  1  0
 20 38  1  0
 21 39  1  0
 21 40  1  0
 22 41  1  0
 22 42  1  0
 22 43  1  0
M  CHG  3   2  -1  13  -1  23   2
M  END
> <Uni-Dock RESULT> 
ENERGY=   -4.240  LOWER_BOUND=    2.747  UPPER_BOUND=    5.617
INTER + INTRA:          -4.240
INTER:                  -4.240
INTRA:                   0.000
UNBOUND:                 0.000

$$$$

     RDKit          3D

 43 40  0  0  0  0  0  0  0  0999 V2000
   44.5824    2.9228   11.2020 S   0  0  0  0  0  0  0  0  0  0  0  0
   45.1538    2.4681   12.4675 O   0  0  0  0  0  0  0  0  0  0  0  0
   45.5294    3.0190   10.0930 O   0  0  0  0  0  0  0  0  0  0  0  0
   43.2931    2.3277   10.8592 O   0  0  0  0  0  0  0  0  0  0  0  0
   46.0604    9.0169   12.8312 C   0  0  0  0  0  0  0  0  0  0  0  0
   44.9948    9.6170   12.9289 O   0  0  0  0  0  0  0  0  0  0  0  0
   44.1608    4.6202   11.5255 C   0  0  0  0  0  0  0  0  0  0  0  0
   46.1725    7.6944   12.4755 N   0  0  0  0  0  0  0  0  0  0  0  0
   45.3739    5.4447   11.9321 C   0  0  0  0  0  0  0  0  0  0  0  0
   45.0124    6.9127   12.0923 C   0  0  0  0  0  0  0  0  0  0  0  0
   47.3781    9.6957   13.0949 C   0  0  0  0  0  0  0  0  0  0  0  0
   43.9170    3.5976   11.7266 S   0  0  0  0  0  0  0  0  0  0  0  0
   43.1625    2.4945   12.3182 O   0  0  0  0  0  0  0  0  0  0  0  0
   43.0890    4.6762   11.1901 O   0  0  0  0  0  0  0  0  0  0  0  0
   45.0346    3.1939   10.8797 O   0  0  0  0  0  0  0  0  0  0  0  0
   47.1063    8.1095   11.9643 C   0  0  0  0  0  0  0  0  0  0  0  0
   47.9022    7.2747   11.5521 O   0  0  0  0  0  0  0  0  0  0  0  0
   44.7014    4.3370   13.1408 C   0  0  0  0  0  0  0  0  0  0  0  0
   45.7915    7.8632   12.2837 N   0  0  0  0  0  0  0  0  0  0  0  0
   45.7172    5.4304   12.8228 C   0  0  0  0  0  0  0  0  0  0  0  0
   45.1347    6.5893   12.0172 C   0  0  0  0  0  0  0  0  0  0  0  0
   47.5106    9.5468   12.1635 C   0  0  0  0  0  0  0  0  0  0  0  0
   45.5727    6.3991   12.1922 Ca  0  0  0  0  0 15  0  0  0  0  0  0
   43.4047    4.6247   12.3181 H   0  0  0  0  0  0  0  0  0  0  0  0
   43.7062    5.0169   10.6113 H   0  0  0  0  0  0  0  0  0  0  0  0
   47.0809    7.3331   12.2152 H   0  0  0  0  0  0  0  0  0  0  0  0
   46.1685    5.3461   11.1820 H   0  0  0  0  0  0  0  0  0  0  0  0
   45.7922    5.0625   12.8716 H   0  0  0  0  0  0  0  0  0  0  0  0
   44.2357    7.0486   12.8538 H   0  0  0  0  0  0  0  0  0  0  0  0
   44.6339    7.3260   11.1505 H   0  0  0  0  0  0  0  0  0  0  0  0
   48.2121    8.9873   13.0757 H   0  0  0  0  0  0  0  0  0  0  0  0
   47.5457   10.4591   12.3287 H   0  0  0  0  0  0  0  0  0  0  0  0
   47.3463   10.1641   14.0842 H   0  0  0  0  0  0  0  0  0  0  0  0
   43.9048    4.7254   13.7850 H   0  0  0  0  0  0  0  0  0  0  0  0
   45.2034    3.5272   13.6821 H   0  0  0  0  0  0  0  0  0  0  0  0
   45.1746    8.6576   12.3762 H   0  0  0  0  0  0  0  0  0  0  0  0
   46.5683    5.0035   12.2795 H   0  0  0  0  0  0  0  0  0  0  0  0
   46.1156    5.8016   13.7756 H   0  0  0  0  0  0  0  0  0  0  0  0
   44.0847    6.7540   12.2801 H   0  0  0  0  0  0  0  0  0  0  0  0
   45.2046    6.3928   10.9421 H   0  0  0  0  0  0  0  0  0  0  0  0
   48.5111    9.5800   12.6043 H   0  0  0  0  0  0  0  0  0  0  0  0
   47.5178   10.0549   11.1956 H   0  0  0  0  0  0  0  0  0  0  0  0
   46.8260   10.0675   12.8386 H   0  0  0  0  0  0  0  0  0  0  0  0
  2  1  1  0
  3  1  2  0
  4  1  2  0
  5  8  1  0
  6  5  2  0
  7  1  1  0
  8 10  1  0
  9  7  1  0
 10  9  1  0
 11  5  1  0
 13 12  1  0
 14 12  2  0
 15 12  2  0
 16 19  1  0
 17 16  2  0
 18 12  1  0
 19 21  1  0
 20 18  1  0
 21 20  1  0
 22 16  1  0
  7 24  1  0
  7 25  1  0
  8 26  1  0
  9 27  1  0
  9 28  1  0
 10 29  1  0
 10 30  1  0
 11 31  1  0
 11 32  1  0
 11 33  1  0
 18 34  1  0
 18 35  1  0
 19 36  1  0
 20 37  1  0
 20 38  1  0
 21 39  1  0
 21 40  1  0
 22 41  1  0
 22 42  1  0
 22 43  1  0
M  CHG  3   2  -1  13  -1  23   2
M  END
> <Uni-Dock RESULT> 
ENERGY=   -4.235  LOWER_BOUND=    1.042  UPPER_BOUND=    2.282
INTER + INTRA:          -4.235
INTER:                  -4.235
INTRA:                   0.000
UNBOUND:                 0.000

$$$$

     RDKit          3D

 43 40  0  0  0  0  0  0  0  0999 V2000
   43.4739    4.4845   12.4337 S   0  0  0  0  0  0  0  0  0  0  0  0
   42.8055    5.5720   13.1445 O   0  0  0  0  0  0  0  0  0  0  0  0
   44.1501    3.5093   13.2868 O   0  0  0  0  0  0  0  0  0  0  0  0
   42.7102    3.9095   11.3291 O   0  0  0  0  0  0  0  0  0  0  0  0
   48.9133    8.0034   12.3549 C   0  0  0  0  0  0  0  0  0  0  0  0
   49.1616    8.2302   11.1750 O   0  0  0  0  0  0  0  0  0  0  0  0
   44.8186    5.2995   11.6024 C   0  0  0  0  0  0  0  0  0  0  0  0
   47.8433    7.2594   12.7902 N   0  0  0  0  0  0  0  0  0  0  0  0
   45.7530    6.0027   12.5768 C   0  0  0  0  0  0  0  0  0  0  0  0
   46.9542    6.5943   11.8568 C   0  0  0  0  0  0  0  0  0  0  0  0
   49.7856    8.5309   13.4628 C   0  0  0  0  0  0  0  0  0  0  0  0
   43.7581    5.1594   11.6355 S   0  0  0  0  0  0  0  0  0  0  0  0
   42.3717    5.3394   11.2091 O   0  0  0  0  0  0  0  0  0  0  0  0
   44.7035    4.9454   10.5414 O   0  0  0  0  0  0  0  0  0  0  0  0
   43.9378    4.2857   12.7903 O   0  0  0  0  0  0  0  0  0  0  0  0
   48.6203    6.9501   13.5688 C   0  0  0  0  0  0  0  0  0  0  0  0
   48.1876    6.3385   14.5377 O   0  0  0  0  0  0  0  0  0  0  0  0
   44.1896    6.7709   12.2512 C   0  0  0  0  0  0  0  0  0  0  0  0
   47.9614    7.1110   12.3724 N   0  0  0  0  0  0  0  0  0  0  0  0
   45.5473    6.8606   12.9418 C   0  0  0  0  0  0  0  0  0  0  0  0
   46.7129    6.4283   12.0553 C   0  0  0  0  0  0  0  0  0  0  0  0
   49.9754    7.6073   13.5978 C   0  0  0  0  0  0  0  0  0  0  0  0
   46.5950    6.5569   12.5330 Ca  0  0  0  0  0 15  0  0  0  0  0  0
   44.3823    6.0153   10.8974 H   0  0  0  0  0  0  0  0  0  0  0  0
   45.3533    4.5330   11.0311 H   0  0  0  0  0  0  0  0  0  0  0  0
   47.8247    6.9450   13.7516 H   0  0  0  0  0  0  0  0  0  0  0  0
   46.0996    5.2998   13.3446 H   0  0  0  0  0  0  0  0  0  0  0  0
   45.2144    6.7959   13.1102 H   0  0  0  0  0  0  0  0  0  0  0  0
   46.6427    7.3205   11.0971 H   0  0  0  0  0  0  0  0  0  0  0  0
   47.5321    5.8107   11.3537 H   0  0  0  0  0  0  0  0  0  0  0  0
   49.3549    8.3334   14.4494 H   0  0  0  0  0  0  0  0  0  0  0  0
   50.7672    8.0501   13.4036 H   0  0  0  0  0  0  0  0  0  0  0  0
   49.8957    9.6140   13.3452 H   0  0  0  0  0  0  0  0  0  0  0  0
   44.1408    7.4635   11.4038 H   0  0  0  0  0  0  0  0  0  0  0  0
   43.4059    7.0570   12.9617 H   0  0  0  0  0  0  0  0  0  0  0  0
   48.5029    7.4157   11.5760 H   0  0  0  0  0  0  0  0  0  0  0  0
   45.5430    6.2543   13.8553 H   0  0  0  0  0  0  0  0  0  0  0  0
   45.6889    7.9001   13.2635 H   0  0  0  0  0  0  0  0  0  0  0  0
   46.5150    6.6768   11.0075 H   0  0  0  0  0  0  0  0  0  0  0  0
   46.8882    5.3504   12.1372 H   0  0  0  0  0  0  0  0  0  0  0  0
   50.1210    8.0858   14.5706 H   0  0  0  0  0  0  0  0  0  0  0  0
   50.7459    6.8476   13.4423 H   0  0  0  0  0  0  0  0  0  0  0  0
   50.0664    8.3761   12.8256 H   0  0  0  0  0  0  0  0  0  0  0  0
  2  1  1  0
  3  1  2  0
  4  1  2  0
  5  8  1  0
  6  5  2  0
  7  1  1  0
  8 10  1  0
  9  7  1  0
 10  9  1  0
 11  5  1  0
 13 12  1  0
 14 12  2  0
 15 12  2  0
 16 19  1  0
 17 16  2  0
 18 12  1  0
 19 21  1  0
 20 18  1  0
 21 20  1  0
 22 16  1  0
  7 24  1  0
  7 25  1  0
  8 26  1  0
  9 27  1  0
  9 28  1  0
 10 29  1  0
 10 30  1  0
 11 31  1  0
 11 32  1  0
 11 33  1  0
 18 34  1  0
 18 35  1  0
 19 36  1  0
 20 37  1  0
 20 38  1  0
 21 39  1  0
 21 40  1  0
 22 41  1  0
 22 42  1  0
 22 43  1  0
M  CHG  3   2  -1  13  -1  23   2
M  END
> <Uni-Dock RESULT> 
ENERGY=   -4.193  LOWER_BOUND=    1.450  UPPER_BOUND=    1.941
INTER + INTRA:          -4.193
INTER:                  -4.193
INTRA:                   0.000
UNBOUND:                 0.000

$$$$

     RDKit          3D

 43 40  0  0  0  0  0  0  0  0999 V2000
   44.2093    3.8507   11.2918 S   0  0  0  0  0  0  0  0  0  0  0  0
   45.1610    2.8721   11.8126 O   0  0  0  0  0  0  0  0  0  0  0  0
   44.5117    4.3596    9.9555 O   0  0  0  0  0  0  0  0  0  0  0  0
   42.8037    3.5258   11.5220 O   0  0  0  0  0  0  0  0  0  0  0  0
   47.8565    8.5882   13.7877 C   0  0  0  0  0  0  0  0  0  0  0  0
   47.1674    9.1445   14.6367 O   0  0  0  0  0  0  0  0  0  0  0  0
   44.4631    5.2690   12.3345 C   0  0  0  0  0  0  0  0  0  0  0  0
   47.4282    7.5384   13.0115 N   0  0  0  0  0  0  0  0  0  0  0  0
   45.8962    5.7781   12.2711 C   0  0  0  0  0  0  0  0  0  0  0  0
   46.0622    7.0554   13.0787 C   0  0  0  0  0  0  0  0  0  0  0  0
   49.2714    9.0208   13.5089 C   0  0  0  0  0  0  0  0  0  0  0  0
   44.0771    4.2723   12.2808 S   0  0  0  0  0  0  0  0  0  0  0  0
   43.4230    3.0632   12.7774 O   0  0  0  0  0  0  0  0  0  0  0  0
   43.4193    5.5181   12.6703 O   0  0  0  0  0  0  0  0  0  0  0  0
   44.5115    4.2091   10.8892 O   0  0  0  0  0  0  0  0  0  0  0  0
   48.0857    8.0821   12.2514 C   0  0  0  0  0  0  0  0  0  0  0  0
   48.3373    7.4614   11.2259 O   0  0  0  0  0  0  0  0  0  0  0  0
   45.5991    4.2984   13.1999 C   0  0  0  0  0  0  0  0  0  0  0  0
   47.0631    7.7924   13.1242 N   0  0  0  0  0  0  0  0  0  0  0  0
   46.5988    5.3686   12.7713 C   0  0  0  0  0  0  0  0  0  0  0  0
   46.0428    6.7887   12.8470 C   0  0  0  0  0  0  0  0  0  0  0  0
   48.9060    9.2753   12.6668 C   0  0  0  0  0  0  0  0  0  0  0  0
   46.4422    6.5196   12.6834 Ca  0  0  0  0  0 15  0  0  0  0  0  0
   44.1999    4.9757   13.3565 H   0  0  0  0  0  0  0  0  0  0  0  0
   43.7587    6.0398   12.0035 H   0  0  0  0  0  0  0  0  0  0  0  0
   47.9731    7.2752   12.2007 H   0  0  0  0  0  0  0  0  0  0  0  0
   46.1863    5.9663   11.2299 H   0  0  0  0  0  0  0  0  0  0  0  0
   46.5857    5.0115   12.6461 H   0  0  0  0  0  0  0  0  0  0  0  0
   45.8025    6.8951   14.1315 H   0  0  0  0  0  0  0  0  0  0  0  0
   45.4133    7.8490   12.6909 H   0  0  0  0  0  0  0  0  0  0  0  0
   49.7734    8.3453   12.8092 H   0  0  0  0  0  0  0  0  0  0  0  0
   49.2586   10.0276   13.0797 H   0  0  0  0  0  0  0  0  0  0  0  0
   49.8346    9.0252   14.4479 H   0  0  0  0  0  0  0  0  0  0  0  0
   45.3356    4.4171   14.2567 H   0  0  0  0  0  0  0  0  0  0  0  0
   46.0573    3.3103   13.0790 H   0  0  0  0  0  0  0  0  0  0  0  0
   46.8014    8.5031   13.7925 H   0  0  0  0  0  0  0  0  0  0  0  0
   46.9451    5.1695   11.7503 H   0  0  0  0  0  0  0  0  0  0  0  0
   47.4806    5.2783   13.4182 H   0  0  0  0  0  0  0  0  0  0  0  0
   45.3272    6.8806   13.6705 H   0  0  0  0  0  0  0  0  0  0  0  0
   45.5445    7.0644   11.9116 H   0  0  0  0  0  0  0  0  0  0  0  0
   49.9634    9.0657   12.4808 H   0  0  0  0  0  0  0  0  0  0  0  0
   48.5950   10.1454   12.0828 H   0  0  0  0  0  0  0  0  0  0  0  0
   48.7868    9.4945   13.7314 H   0  0  0  0  0  0  0  0  0  0  0  0
  2  1  1  0
  3  1  2  0
  4  1  2  0
  5  8  1  0
  6  5  2  0
  7  1  1  0
  8 10  1  0
  9  7  1  0
 10  9  1  0
 11  5  1  0
 13 12  1  0
 14 12  2  0
 15 12  2  0
 16 19  1  0
 17 16  2  0
 18 12  1  0
 19 21  1  0
 20 18  1  0
 21 20  1  0
 22 16  1  0
  7 24  1  0
  7 25  1  0
  8 26  1  0
  9 27  1  0
  9 28  1  0
 10 29  1  0
 10 30  1  0
 11 31  1  0
 11 32  1  0
 11 33  1  0
 18 34  1  0
 18 35  1  0
 19 36  1  0
 20 37  1  0
 20 38  1  0
 21 39  1  0
 21 40  1  0
 22 41  1  0
 22 42  1  0
 22 43  1  0
M  CHG  3   2  -1  13  -1  23   2
M  END
> <Uni-Dock RESULT> 
ENERGY=   -4.125  LOWER_BOUND=    1.139  UPPER_BOUND=    2.072
INTER + INTRA:          -4.125
INTER:                  -4.125
INTRA:                   0.000
UNBOUND:                 0.000

$$$$
