
     RDKit          3D

 43 40  0  0  0  0  0  0  0  0999 V2000
   44.4462    3.7498   11.7028 S   0  0  0  0  0  0  0  0  0  0  0  0
   45.4435    2.8019   12.1889 O   0  0  0  0  0  0  0  0  0  0  0  0
   44.9808    5.0229   11.2233 O   0  0  0  0  0  0  0  0  0  0  0  0
   43.2536    3.8722   12.5389 O   0  0  0  0  0  0  0  0  0  0  0  0
   47.1099    2.5235    7.0138 C   0  0  0  0  0  0  0  0  0  0  0  0
   47.4724    1.6090    7.7439 O   0  0  0  0  0  0  0  0  0  0  0  0
   43.8130    2.9813   10.2297 C   0  0  0  0  0  0  0  0  0  0  0  0
   46.2380    3.5256    7.3705 N   0  0  0  0  0  0  0  0  0  0  0  0
   44.8689    2.5565    9.2131 C   0  0  0  0  0  0  0  0  0  0  0  0
   45.7514    3.7063    8.7328 C   0  0  0  0  0  0  0  0  0  0  0  0
   47.6111    2.6417    5.5983 C   0  0  0  0  0  0  0  0  0  0  0  0
   43.6720    3.7207   11.8150 S   0  0  0  0  0  0  0  0  0  0  0  0
   44.9495    3.7857   12.5207 O   0  0  0  0  0  0  0  0  0  0  0  0
   43.1310    2.3750   11.6345 O   0  0  0  0  0  0  0  0  0  0  0  0
   42.6929    4.7270   12.2191 O   0  0  0  0  0  0  0  0  0  0  0  0
   46.8946    3.0437    6.2357 C   0  0  0  0  0  0  0  0  0  0  0  0
   46.6578    4.0495    5.5745 O   0  0  0  0  0  0  0  0  0  0  0  0
   44.0893    4.2184   10.1592 C   0  0  0  0  0  0  0  0  0  0  0  0
   46.3680    2.7935    7.4804 N   0  0  0  0  0  0  0  0  0  0  0  0
   45.1247    3.2984    9.5278 C   0  0  0  0  0  0  0  0  0  0  0  0
   45.3961    3.6855    8.0835 C   0  0  0  0  0  0  0  0  0  0  0  0
   47.7960    1.9516    5.7251 C   0  0  0  0  0  0  0  0  0  0  0  0
   45.5247    3.2339    8.5997 Ca  0  0  0  0  0 15  0  0  0  0  0  0
   43.1034    3.6839    9.7790 H   0  0  0  0  0  0  0  0  0  0  0  0
   43.2496    2.0983   10.5520 H   0  0  0  0  0  0  0  0  0  0  0  0
   46.2027    4.3477    6.7849 H   0  0  0  0  0  0  0  0  0  0  0  0
   45.5010    1.7675    9.6373 H   0  0  0  0  0  0  0  0  0  0  0  0
   44.3464    2.1061    8.3597 H   0  0  0  0  0  0  0  0  0  0  0  0
   46.6201    3.8330    9.3874 H   0  0  0  0  0  0  0  0  0  0  0  0
   45.1862    4.6435    8.7078 H   0  0  0  0  0  0  0  0  0  0  0  0
   47.6131    1.6510    5.1351 H   0  0  0  0  0  0  0  0  0  0  0  0
   48.6270    3.0449    5.6105 H   0  0  0  0  0  0  0  0  0  0  0  0
   46.9725    3.2955    4.9975 H   0  0  0  0  0  0  0  0  0  0  0  0
   43.1596    4.2161    9.5800 H   0  0  0  0  0  0  0  0  0  0  0  0
   44.4627    5.2467   10.2109 H   0  0  0  0  0  0  0  0  0  0  0  0
   46.4274    1.8541    7.8530 H   0  0  0  0  0  0  0  0  0  0  0  0
   46.0594    3.3312   10.1011 H   0  0  0  0  0  0  0  0  0  0  0  0
   44.7801    2.2576    9.5668 H   0  0  0  0  0  0  0  0  0  0  0  0
   44.4803    3.6262    7.4845 H   0  0  0  0  0  0  0  0  0  0  0  0
   45.7760    4.7111    8.0138 H   0  0  0  0  0  0  0  0  0  0  0  0
   48.6882    2.4021    5.2815 H   0  0  0  0  0  0  0  0  0  0  0  0
   48.1161    1.2841    6.5302 H   0  0  0  0  0  0  0  0  0  0  0  0
   47.2614    1.3701    4.9697 H   0  0  0  0  0  0  0  0  0  0  0  0
  2  1  1  0
  3  1  2  0
  4  1  2  0
  5  8  1  0
  6  5  2  0
  7  1  1  0
  8 10  1  0
  9  7  1  0
 10  9  1  0
 11  5  1  0
 13 12  1  0
 14 12  2  0
 15 12  2  0
 16 19  1  0
 17 16  2  0
 18 12  1  0
 19 21  1  0
 20 18  1  0
 21 20  1  0
 22 16  1  0
  7 24  1  0
  7 25  1  0
  8 26  1  0
  9 27  1  0
  9 28  1  0
 10 29  1  0
 10 30  1  0
 11 31  1  0
 11 32  1  0
 11 33  1  0
 18 34  1  0
 18 35  1  0
 19 36  1  0
 20 37  1  0
 20 38  1  0
 21 39  1  0
 21 40  1  0
 22 41  1  0
 22 42  1  0
 22 43  1  0
M  CHG  3   2  -1  13  -1  23   2
M  END
> <Uni-Dock RESULT> 
ENERGY=   -7.661  LOWER_BOUND=    0.000  UPPER_BOUND=    0.000
INTER + INTRA:          -7.661
INTER:                  -7.661
INTRA:                   0.000
UNBOUND:                 0.000

$$$$

     RDKit          3D

 43 40  0  0  0  0  0  0  0  0999 V2000
   43.0204    5.0200   11.8044 S   0  0  0  0  0  0  0  0  0  0  0  0
   42.8535    6.0820   10.8175 O   0  0  0  0  0  0  0  0  0  0  0  0
   42.4086    3.7407   11.4499 O   0  0  0  0  0  0  0  0  0  0  0  0
   42.8056    5.4285   13.1912 O   0  0  0  0  0  0  0  0  0  0  0  0
   46.0730    3.0673    7.6266 C   0  0  0  0  0  0  0  0  0  0  0  0
   45.9538    4.2445    7.3091 O   0  0  0  0  0  0  0  0  0  0  0  0
   44.7641    4.6743   11.7648 C   0  0  0  0  0  0  0  0  0  0  0  0
   45.5595    2.4974    8.7681 N   0  0  0  0  0  0  0  0  0  0  0  0
   45.3377    4.3838   10.3809 C   0  0  0  0  0  0  0  0  0  0  0  0
   44.6669    3.2067    9.6767 C   0  0  0  0  0  0  0  0  0  0  0  0
   46.8217    2.0928    6.7555 C   0  0  0  0  0  0  0  0  0  0  0  0
   43.2519    5.0978   12.5482 S   0  0  0  0  0  0  0  0  0  0  0  0
   42.2250    5.5182   11.5979 O   0  0  0  0  0  0  0  0  0  0  0  0
   44.3794    6.0170   12.6897 O   0  0  0  0  0  0  0  0  0  0  0  0
   42.7429    4.5524   13.8043 O   0  0  0  0  0  0  0  0  0  0  0  0
   46.4028    2.1686    7.7042 C   0  0  0  0  0  0  0  0  0  0  0  0
   46.3713    0.9666    7.9471 O   0  0  0  0  0  0  0  0  0  0  0  0
   43.9801    3.6758   11.7665 C   0  0  0  0  0  0  0  0  0  0  0  0
   45.8633    3.1372    8.5165 N   0  0  0  0  0  0  0  0  0  0  0  0
   44.5789    4.0119   10.4081 C   0  0  0  0  0  0  0  0  0  0  0  0
   45.2771    2.8061    9.8014 C   0  0  0  0  0  0  0  0  0  0  0  0
   47.0679    2.7120    6.4679 C   0  0  0  0  0  0  0  0  0  0  0  0
   45.1264    3.4846    9.7390 Ca  0  0  0  0  0 15  0  0  0  0  0  0
   44.9410    3.8307   12.4411 H   0  0  0  0  0  0  0  0  0  0  0  0
   45.2690    5.5512   12.1857 H   0  0  0  0  0  0  0  0  0  0  0  0
   45.5058    1.4896    8.8064 H   0  0  0  0  0  0  0  0  0  0  0  0
   45.2602    5.2762    9.7486 H   0  0  0  0  0  0  0  0  0  0  0  0
   46.4102    4.1844   10.5007 H   0  0  0  0  0  0  0  0  0  0  0  0
   43.7954    3.5388    9.1027 H   0  0  0  0  0  0  0  0  0  0  0  0
   44.3471    2.4525   10.4029 H   0  0  0  0  0  0  0  0  0  0  0  0
   47.7351    2.5693    6.3882 H   0  0  0  0  0  0  0  0  0  0  0  0
   46.1893    1.8082    5.9107 H   0  0  0  0  0  0  0  0  0  0  0  0
   47.1074    1.1939    7.3091 H   0  0  0  0  0  0  0  0  0  0  0  0
   44.7478    3.2935   12.4481 H   0  0  0  0  0  0  0  0  0  0  0  0
   43.1953    2.9181   11.6690 H   0  0  0  0  0  0  0  0  0  0  0  0
   46.1288    4.1022    8.3641 H   0  0  0  0  0  0  0  0  0  0  0  0
   43.7956    4.3669    9.7270 H   0  0  0  0  0  0  0  0  0  0  0  0
   45.2956    4.8370   10.5041 H   0  0  0  0  0  0  0  0  0  0  0  0
   46.0871    2.4559   10.4511 H   0  0  0  0  0  0  0  0  0  0  0  0
   44.5779    1.9742    9.6598 H   0  0  0  0  0  0  0  0  0  0  0  0
   46.7794    2.1006    5.6083 H   0  0  0  0  0  0  0  0  0  0  0  0
   46.7658    3.7440    6.2683 H   0  0  0  0  0  0  0  0  0  0  0  0
   48.1523    2.6757    6.5994 H   0  0  0  0  0  0  0  0  0  0  0  0
  2  1  1  0
  3  1  2  0
  4  1  2  0
  5  8  1  0
  6  5  2  0
  7  1  1  0
  8 10  1  0
  9  7  1  0
 10  9  1  0
 11  5  1  0
 13 12  1  0
 14 12  2  0
 15 12  2  0
 16 19  1  0
 17 16  2  0
 18 12  1  0
 19 21  1  0
 20 18  1  0
 21 20  1  0
 22 16  1  0
  7 24  1  0
  7 25  1  0
  8 26  1  0
  9 27  1  0
  9 28  1  0
 10 29  1  0
 10 30  1  0
 11 31  1  0
 11 32  1  0
 11 33  1  0
 18 34  1  0
 18 35  1  0
 19 36  1  0
 20 37  1  0
 20 38  1  0
 21 39  1  0
 21 40  1  0
 22 41  1  0
 22 42  1  0
 22 43  1  0
M  CHG  3   2  -1  13  -1  23   2
M  END
> <Uni-Dock RESULT> 
ENERGY=   -7.257  LOWER_BOUND=    1.458  UPPER_BOUND=    2.361
INTER + INTRA:          -7.257
INTER:                  -7.257
INTRA:                   0.000
UNBOUND:                 0.000

$$$$

     RDKit          3D

 43 40  0  0  0  0  0  0  0  0999 V2000
   43.3134    4.5097   11.6527 S   0  0  0  0  0  0  0  0  0  0  0  0
   42.4410    5.4858   12.2973 O   0  0  0  0  0  0  0  0  0  0  0  0
   43.8390    4.9111   10.3492 O   0  0  0  0  0  0  0  0  0  0  0  0
   42.8427    3.1273   11.7144 O   0  0  0  0  0  0  0  0  0  0  0  0
   46.8995    8.5791   12.7321 C   0  0  0  0  0  0  0  0  0  0  0  0
   45.9629    8.8828   13.4611 O   0  0  0  0  0  0  0  0  0  0  0  0
   44.7554    4.4777   12.6925 C   0  0  0  0  0  0  0  0  0  0  0  0
   46.9454    7.4707   11.9193 N   0  0  0  0  0  0  0  0  0  0  0  0
   45.3844    5.8394   12.9734 C   0  0  0  0  0  0  0  0  0  0  0  0
   45.8014    6.5912   11.7115 C   0  0  0  0  0  0  0  0  0  0  0  0
   48.1388    9.4317   12.6525 C   0  0  0  0  0  0  0  0  0  0  0  0
   43.4006    3.7552   11.8427 S   0  0  0  0  0  0  0  0  0  0  0  0
   42.4107    4.7431   11.4201 O   0  0  0  0  0  0  0  0  0  0  0  0
   43.4939    3.5494   13.2867 O   0  0  0  0  0  0  0  0  0  0  0  0
   43.4295    2.5316   11.0449 O   0  0  0  0  0  0  0  0  0  0  0  0
   47.7803    8.5013   12.3572 C   0  0  0  0  0  0  0  0  0  0  0  0
   48.6337    8.2793   11.5044 O   0  0  0  0  0  0  0  0  0  0  0  0
   44.9516    4.5265   11.4393 C   0  0  0  0  0  0  0  0  0  0  0  0
   46.6890    7.6983   12.5882 N   0  0  0  0  0  0  0  0  0  0  0  0
   45.1389    5.8516   12.1644 C   0  0  0  0  0  0  0  0  0  0  0  0
   46.5080    6.4461   11.8788 C   0  0  0  0  0  0  0  0  0  0  0  0
   47.8589    9.6983   13.2667 C   0  0  0  0  0  0  0  0  0  0  0  0
   45.9101    6.5042   12.2338 Ca  0  0  0  0  0 15  0  0  0  0  0  0
   45.4807    3.8077   12.2176 H   0  0  0  0  0  0  0  0  0  0  0  0
   44.4503    4.0210   13.6409 H   0  0  0  0  0  0  0  0  0  0  0  0
   47.6454    7.4508   11.1915 H   0  0  0  0  0  0  0  0  0  0  0  0
   44.6904    6.4602   13.5522 H   0  0  0  0  0  0  0  0  0  0  0  0
   46.2590    5.6755   13.6157 H   0  0  0  0  0  0  0  0  0  0  0  0
   44.9752    7.1978   11.3260 H   0  0  0  0  0  0  0  0  0  0  0  0
   46.1218    5.8919   10.9325 H   0  0  0  0  0  0  0  0  0  0  0  0
   48.4194    9.7506   13.6603 H   0  0  0  0  0  0  0  0  0  0  0  0
   47.9315   10.3080   12.0330 H   0  0  0  0  0  0  0  0  0  0  0  0
   48.9808    8.8804   12.2246 H   0  0  0  0  0  0  0  0  0  0  0  0
   45.7419    3.8179   11.7100 H   0  0  0  0  0  0  0  0  0  0  0  0
   44.9728    4.6707   10.3537 H   0  0  0  0  0  0  0  0  0  0  0  0
   46.1668    7.8234   13.4463 H   0  0  0  0  0  0  0  0  0  0  0  0
   44.3579    6.5609   11.8636 H   0  0  0  0  0  0  0  0  0  0  0  0
   45.0219    5.7109   13.2461 H   0  0  0  0  0  0  0  0  0  0  0  0
   47.3043    5.7668   12.2037 H   0  0  0  0  0  0  0  0  0  0  0  0
   46.6427    6.6316   10.8071 H   0  0  0  0  0  0  0  0  0  0  0  0
   48.1254   10.5794   12.6764 H   0  0  0  0  0  0  0  0  0  0  0  0
   46.9016    9.8945   13.7580 H   0  0  0  0  0  0  0  0  0  0  0  0
   48.6220    9.5195   14.0285 H   0  0  0  0  0  0  0  0  0  0  0  0
  2  1  1  0
  3  1  2  0
  4  1  2  0
  5  8  1  0
  6  5  2  0
  7  1  1  0
  8 10  1  0
  9  7  1  0
 10  9  1  0
 11  5  1  0
 13 12  1  0
 14 12  2  0
 15 12  2  0
 16 19  1  0
 17 16  2  0
 18 12  1  0
 19 21  1  0
 20 18  1  0
 21 20  1  0
 22 16  1  0
  7 24  1  0
  7 25  1  0
  8 26  1  0
  9 27  1  0
  9 28  1  0
 10 29  1  0
 10 30  1  0
 11 31  1  0
 11 32  1  0
 11 33  1  0
 18 34  1  0
 18 35  1  0
 19 36  1  0
 20 37  1  0
 20 38  1  0
 21 39  1  0
 21 40  1  0
 22 41  1  0
 22 42  1  0
 22 43  1  0
M  CHG  3   2  -1  13  -1  23   2
M  END
> <Uni-Dock RESULT> 
ENERGY=   -5.208  LOWER_BOUND=    4.091  UPPER_BOUND=    5.666
INTER + INTRA:          -5.208
INTER:                  -5.208
INTRA:                   0.000
UNBOUND:                 0.000

$$$$

     RDKit          3D

 43 40  0  0  0  0  0  0  0  0999 V2000
   44.4355    3.4073   12.1546 S   0  0  0  0  0  0  0  0  0  0  0  0
   45.8291    3.2023   12.5360 O   0  0  0  0  0  0  0  0  0  0  0  0
   43.6076    4.0718   13.1594 O   0  0  0  0  0  0  0  0  0  0  0  0
   43.7984    2.2611   11.5091 O   0  0  0  0  0  0  0  0  0  0  0  0
   46.2646    8.6241   12.3132 C   0  0  0  0  0  0  0  0  0  0  0  0
   47.3181    7.9996   12.2798 O   0  0  0  0  0  0  0  0  0  0  0  0
   44.5271    4.5967   10.8361 C   0  0  0  0  0  0  0  0  0  0  0  0
   45.0089    8.0639   12.2845 N   0  0  0  0  0  0  0  0  0  0  0  0
   45.3157    5.8632   11.1570 C   0  0  0  0  0  0  0  0  0  0  0  0
   44.7792    6.6265   12.3656 C   0  0  0  0  0  0  0  0  0  0  0  0
   46.2476   10.1280   12.3967 C   0  0  0  0  0  0  0  0  0  0  0  0
   44.0533    3.0701   11.5604 S   0  0  0  0  0  0  0  0  0  0  0  0
   44.7907    2.7770   12.7870 O   0  0  0  0  0  0  0  0  0  0  0  0
   44.8483    3.0309   10.3346 O   0  0  0  0  0  0  0  0  0  0  0  0
   42.7422    2.4331   11.4626 O   0  0  0  0  0  0  0  0  0  0  0  0
   45.6113    9.3229   12.2287 C   0  0  0  0  0  0  0  0  0  0  0  0
   44.5601    9.9224   12.4301 O   0  0  0  0  0  0  0  0  0  0  0  0
   43.6440    4.7929   11.7267 C   0  0  0  0  0  0  0  0  0  0  0  0
   45.7006    7.9696   12.0060 N   0  0  0  0  0  0  0  0  0  0  0  0
   44.8835    5.6668   11.8566 C   0  0  0  0  0  0  0  0  0  0  0  0
   44.5149    7.1405   11.9025 C   0  0  0  0  0  0  0  0  0  0  0  0
   46.9368   10.0353   12.1892 C   0  0  0  0  0  0  0  0  0  0  0  0
   45.0287    6.6685   11.8879 Ca  0  0  0  0  0 15  0  0  0  0  0  0
   43.4981    4.8438   10.5526 H   0  0  0  0  0  0  0  0  0  0  0  0
   44.9950    4.0887    9.9852 H   0  0  0  0  0  0  0  0  0  0  0  0
   44.2297    8.6438   12.5613 H   0  0  0  0  0  0  0  0  0  0  0  0
   46.3705    5.6152   11.3241 H   0  0  0  0  0  0  0  0  0  0  0  0
   45.2883    6.5060   10.2680 H   0  0  0  0  0  0  0  0  0  0  0  0
   45.2360    6.2636   13.2923 H   0  0  0  0  0  0  0  0  0  0  0  0
   43.6923    6.5190   12.4400 H   0  0  0  0  0  0  0  0  0  0  0  0
   47.0061   10.5328   11.7207 H   0  0  0  0  0  0  0  0  0  0  0  0
   46.4686   10.4323   13.4230 H   0  0  0  0  0  0  0  0  0  0  0  0
   45.2773   10.5374   12.1018 H   0  0  0  0  0  0  0  0  0  0  0  0
   43.0612    5.0707   10.8417 H   0  0  0  0  0  0  0  0  0  0  0  0
   43.0030    4.8933   12.6090 H   0  0  0  0  0  0  0  0  0  0  0  0
   46.5611    7.5957   11.6258 H   0  0  0  0  0  0  0  0  0  0  0  0
   45.4430    5.3974   12.7610 H   0  0  0  0  0  0  0  0  0  0  0  0
   45.5627    5.4879   11.0139 H   0  0  0  0  0  0  0  0  0  0  0  0
   43.9841    7.4389   10.9914 H   0  0  0  0  0  0  0  0  0  0  0  0
   43.8633    7.3585   12.7563 H   0  0  0  0  0  0  0  0  0  0  0  0
   46.9894   10.7399   13.0239 H   0  0  0  0  0  0  0  0  0  0  0  0
   47.7728    9.3361   12.2807 H   0  0  0  0  0  0  0  0  0  0  0  0
   47.0246   10.5760   11.2434 H   0  0  0  0  0  0  0  0  0  0  0  0
  2  1  1  0
  3  1  2  0
  4  1  2  0
  5  8  1  0
  6  5  2  0
  7  1  1  0
  8 10  1  0
  9  7  1  0
 10  9  1  0
 11  5  1  0
 13 12  1  0
 14 12  2  0
 15 12  2  0
 16 19  1  0
 17 16  2  0
 18 12  1  0
 19 21  1  0
 20 18  1  0
 21 20  1  0
 22 16  1  0
  7 24  1  0
  7 25  1  0
  8 26  1  0
  9 27  1  0
  9 28  1  0
 10 29  1  0
 10 30  1  0
 11 31  1  0
 11 32  1  0
 11 33  1  0
 18 34  1  0
 18 35  1  0
 19 36  1  0
 20 37  1  0
 20 38  1  0
 21 39  1  0
 21 40  1  0
 22 41  1  0
 22 42  1  0
 22 43  1  0
M  CHG  3   2  -1  13  -1  23   2
M  END
> <Uni-Dock RESULT> 
ENERGY=   -5.010  LOWER_BOUND=    3.893  UPPER_BOUND=    5.616
INTER + INTRA:          -5.010
INTER:                  -5.010
INTRA:                   0.000
UNBOUND:                 0.000

$$$$

     RDKit          3D

 43 40  0  0  0  0  0  0  0  0999 V2000
   43.7128    3.9968   12.4799 S   0  0  0  0  0  0  0  0  0  0  0  0
   44.3300    4.2778   13.7721 O   0  0  0  0  0  0  0  0  0  0  0  0
   42.4215    4.6434   12.2543 O   0  0  0  0  0  0  0  0  0  0  0  0
   43.7688    2.5974   12.0618 O   0  0  0  0  0  0  0  0  0  0  0  0
   44.8656    9.3798   11.9503 C   0  0  0  0  0  0  0  0  0  0  0  0
   45.5686    9.0750   12.9062 O   0  0  0  0  0  0  0  0  0  0  0  0
   44.7898    4.7963   11.3127 C   0  0  0  0  0  0  0  0  0  0  0  0
   44.0595    8.5131   11.2500 N   0  0  0  0  0  0  0  0  0  0  0  0
   45.0804    6.2669   11.5982 C   0  0  0  0  0  0  0  0  0  0  0  0
   43.8263    7.1352   11.6653 C   0  0  0  0  0  0  0  0  0  0  0  0
   44.8141   10.7942   11.4350 C   0  0  0  0  0  0  0  0  0  0  0  0
   43.9086    3.4311   11.9754 S   0  0  0  0  0  0  0  0  0  0  0  0
   43.4558    3.6653   13.3445 O   0  0  0  0  0  0  0  0  0  0  0  0
   45.3555    3.3015   11.8144 O   0  0  0  0  0  0  0  0  0  0  0  0
   43.1176    2.4606   11.2224 O   0  0  0  0  0  0  0  0  0  0  0  0
   44.5140    9.8320   11.1795 C   0  0  0  0  0  0  0  0  0  0  0  0
   43.6847   10.1563   10.3357 O   0  0  0  0  0  0  0  0  0  0  0  0
   43.5418    4.9640   11.1515 C   0  0  0  0  0  0  0  0  0  0  0  0
   44.7204    8.5421   11.6068 N   0  0  0  0  0  0  0  0  0  0  0  0
   44.2654    6.1434   11.7859 C   0  0  0  0  0  0  0  0  0  0  0  0
   44.0125    7.4255   11.0100 C   0  0  0  0  0  0  0  0  0  0  0  0
   45.4196   10.8419   11.8322 C   0  0  0  0  0  0  0  0  0  0  0  0
   44.3516    7.1216   11.5388 Ca  0  0  0  0  0 15  0  0  0  0  0  0
   44.3370    4.6773   10.3221 H   0  0  0  0  0  0  0  0  0  0  0  0
   45.7321    4.2367   11.3184 H   0  0  0  0  0  0  0  0  0  0  0  0
   43.3502    8.9114   10.6514 H   0  0  0  0  0  0  0  0  0  0  0  0
   45.6382    6.3629   12.5372 H   0  0  0  0  0  0  0  0  0  0  0  0
   45.7460    6.6340   10.8066 H   0  0  0  0  0  0  0  0  0  0  0  0
   43.4166    7.1537   12.6807 H   0  0  0  0  0  0  0  0  0  0  0  0
   43.0591    6.7607   10.9800 H   0  0  0  0  0  0  0  0  0  0  0  0
   45.8273   11.2055   11.4158 H   0  0  0  0  0  0  0  0  0  0  0  0
   44.1853   11.3943   12.0977 H   0  0  0  0  0  0  0  0  0  0  0  0
   44.4107   10.8391   10.4194 H   0  0  0  0  0  0  0  0  0  0  0  0
   43.8363    4.8429   10.1033 H   0  0  0  0  0  0  0  0  0  0  0  0
   42.4566    5.1059   11.1921 H   0  0  0  0  0  0  0  0  0  0  0  0
   45.5641    8.3311   12.1248 H   0  0  0  0  0  0  0  0  0  0  0  0
   43.9411    6.2708   12.8261 H   0  0  0  0  0  0  0  0  0  0  0  0
   45.3443    5.9488   11.8251 H   0  0  0  0  0  0  0  0  0  0  0  0
   44.3612    7.3311    9.9753 H   0  0  0  0  0  0  0  0  0  0  0  0
   42.9438    7.6667   10.9826 H   0  0  0  0  0  0  0  0  0  0  0  0
   44.8322   11.7206   12.1129 H   0  0  0  0  0  0  0  0  0  0  0  0
   45.8850   10.4404   12.7368 H   0  0  0  0  0  0  0  0  0  0  0  0
   46.2017   11.1309   11.1255 H   0  0  0  0  0  0  0  0  0  0  0  0
  2  1  1  0
  3  1  2  0
  4  1  2  0
  5  8  1  0
  6  5  2  0
  7  1  1  0
  8 10  1  0
  9  7  1  0
 10  9  1  0
 11  5  1  0
 13 12  1  0
 14 12  2  0
 15 12  2  0
 16 19  1  0
 17 16  2  0
 18 12  1  0
 19 21  1  0
 20 18  1  0
 21 20  1  0
 22 16  1  0
  7 24  1  0
  7 25  1  0
  8 26  1  0
  9 27  1  0
  9 28  1  0
 10 29  1  0
 10 30  1  0
 11 31  1  0
 11 32  1  0
 11 33  1  0
 18 34  1  0
 18 35  1  0
 19 36  1  0
 20 37  1  0
 20 38  1  0
 21 39  1  0
 21 40  1  0
 22 41  1  0
 22 42  1  0
 22 43  1  0
M  CHG  3   2  -1  13  -1  23   2
M  END
> <Uni-Dock RESULT> 
ENERGY=   -4.821  LOWER_BOUND=    4.128  UPPER_BOUND=    5.830
INTER + INTRA:          -4.821
INTER:                  -4.821
INTRA:                   0.000
UNBOUND:                 0.000

$$$$

     RDKit          3D

 43 40  0  0  0  0  0  0  0  0999 V2000
   44.1333    3.7465   11.2256 S   0  0  0  0  0  0  0  0  0  0  0  0
   44.1990    4.7826   10.2001 O   0  0  0  0  0  0  0  0  0  0  0  0
   45.3651    2.9835   11.4179 O   0  0  0  0  0  0  0  0  0  0  0  0
   42.9175    2.9354   11.2049 O   0  0  0  0  0  0  0  0  0  0  0  0
   47.6857    7.2976   13.5397 C   0  0  0  0  0  0  0  0  0  0  0  0
   47.1814    7.9943   12.6673 O   0  0  0  0  0  0  0  0  0  0  0  0
   43.9671    4.6603   12.7419 C   0  0  0  0  0  0  0  0  0  0  0  0
   47.3528    5.9891   13.8014 N   0  0  0  0  0  0  0  0  0  0  0  0
   45.0181    5.7436   12.9662 C   0  0  0  0  0  0  0  0  0  0  0  0
   46.4507    5.2157   12.9568 C   0  0  0  0  0  0  0  0  0  0  0  0
   48.7669    7.8323   14.4420 C   0  0  0  0  0  0  0  0  0  0  0  0
   43.4895    3.4532   11.5609 S   0  0  0  0  0  0  0  0  0  0  0  0
   44.1509    3.6360   10.2712 O   0  0  0  0  0  0  0  0  0  0  0  0
   42.5210    4.4894   11.9136 O   0  0  0  0  0  0  0  0  0  0  0  0
   43.0567    2.0866   11.8433 O   0  0  0  0  0  0  0  0  0  0  0  0
   48.1325    7.0146   14.3414 C   0  0  0  0  0  0  0  0  0  0  0  0
   48.7430    6.2619   15.0935 O   0  0  0  0  0  0  0  0  0  0  0  0
   44.8008    3.7030   12.7363 C   0  0  0  0  0  0  0  0  0  0  0  0
   47.0473    6.6409   13.5852 N   0  0  0  0  0  0  0  0  0  0  0  0
   45.4215    5.0877   12.6172 C   0  0  0  0  0  0  0  0  0  0  0  0
   46.4735    5.3129   13.6905 C   0  0  0  0  0  0  0  0  0  0  0  0
   48.5148    8.4621   14.1842 C   0  0  0  0  0  0  0  0  0  0  0  0
   46.1153    5.5884   13.1588 Ca  0  0  0  0  0 15  0  0  0  0  0  0
   43.9820    3.9322   13.5604 H   0  0  0  0  0  0  0  0  0  0  0  0
   42.9735    5.1224   12.7242 H   0  0  0  0  0  0  0  0  0  0  0  0
   47.9907    5.4462   14.3656 H   0  0  0  0  0  0  0  0  0  0  0  0
   44.9159    6.5275   12.2065 H   0  0  0  0  0  0  0  0  0  0  0  0
   44.8031    6.2208   13.9308 H   0  0  0  0  0  0  0  0  0  0  0  0
   46.8600    5.2117   11.9410 H   0  0  0  0  0  0  0  0  0  0  0  0
   46.4910    4.1985   13.3594 H   0  0  0  0  0  0  0  0  0  0  0  0
   48.5045    8.8476   14.7527 H   0  0  0  0  0  0  0  0  0  0  0  0
   49.7140    7.8471   13.8965 H   0  0  0  0  0  0  0  0  0  0  0  0
   48.8803    7.2211   15.3418 H   0  0  0  0  0  0  0  0  0  0  0  0
   44.3713    3.5517   13.7326 H   0  0  0  0  0  0  0  0  0  0  0  0
   45.5506    2.9242   12.5605 H   0  0  0  0  0  0  0  0  0  0  0  0
   46.4687    7.3635   13.1755 H   0  0  0  0  0  0  0  0  0  0  0  0
   45.8721    5.2161   11.6252 H   0  0  0  0  0  0  0  0  0  0  0  0
   44.6456    5.8587   12.7010 H   0  0  0  0  0  0  0  0  0  0  0  0
   46.0361    5.2228   14.6913 H   0  0  0  0  0  0  0  0  0  0  0  0
   47.2826    4.5779   13.6114 H   0  0  0  0  0  0  0  0  0  0  0  0
   49.6016    8.5368   14.0884 H   0  0  0  0  0  0  0  0  0  0  0  0
   48.0631    8.9033   13.2912 H   0  0  0  0  0  0  0  0  0  0  0  0
   48.1827    9.0177   15.0649 H   0  0  0  0  0  0  0  0  0  0  0  0
  2  1  1  0
  3  1  2  0
  4  1  2  0
  5  8  1  0
  6  5  2  0
  7  1  1  0
  8 10  1  0
  9  7  1  0
 10  9  1  0
 11  5  1  0
 13 12  1  0
 14 12  2  0
 15 12  2  0
 16 19  1  0
 17 16  2  0
 18 12  1  0
 19 21  1  0
 20 18  1  0
 21 20  1  0
 22 16  1  0
  7 24  1  0
  7 25  1  0
  8 26  1  0
  9 27  1  0
  9 28  1  0
 10 29  1  0
 10 30  1  0
 11 31  1  0
 11 32  1  0
 11 33  1  0
 18 34  1  0
 18 35  1  0
 19 36  1  0
 20 37  1  0
 20 38  1  0
 21 39  1  0
 21 40  1  0
 22 41  1  0
 22 42  1  0
 22 43  1  0
M  CHG  3   2  -1  13  -1  23   2
M  END
> <Uni-Dock RESULT> 
ENERGY=   -4.814  LOWER_BOUND=    4.503  UPPER_BOUND=    5.923
INTER + INTRA:          -4.814
INTER:                  -4.814
INTRA:                   0.000
UNBOUND:                 0.000

$$$$
