
     RDKit          3D

 43 40  0  0  0  0  0  0  0  0999 V2000
   43.8038    4.5968   12.2291 S   0  0  0  0  0  0  0  0  0  0  0  0
   45.0813    4.4248   12.9169 O   0  0  0  0  0  0  0  0  0  0  0  0
   43.0797    5.8187   12.5712 O   0  0  0  0  0  0  0  0  0  0  0  0
   42.9767    3.3946   12.1477 O   0  0  0  0  0  0  0  0  0  0  0  0
   46.6632    2.8596    6.6812 C   0  0  0  0  0  0  0  0  0  0  0  0
   46.6369    3.8471    5.9538 O   0  0  0  0  0  0  0  0  0  0  0  0
   44.2801    4.8800   10.5390 C   0  0  0  0  0  0  0  0  0  0  0  0
   46.1247    2.8142    7.9450 N   0  0  0  0  0  0  0  0  0  0  0  0
   45.0726    3.7147    9.9637 C   0  0  0  0  0  0  0  0  0  0  0  0
   45.3872    3.9364    8.4935 C   0  0  0  0  0  0  0  0  0  0  0  0
   47.2902    1.5643    6.2397 C   0  0  0  0  0  0  0  0  0  0  0  0
   43.4329    3.9635   11.6746 S   0  0  0  0  0  0  0  0  0  0  0  0
   44.7073    4.0130   12.3877 O   0  0  0  0  0  0  0  0  0  0  0  0
   42.3738    4.7879   12.2515 O   0  0  0  0  0  0  0  0  0  0  0  0
   43.0097    2.6272   11.2629 O   0  0  0  0  0  0  0  0  0  0  0  0
   46.6437    2.8038    7.0953 C   0  0  0  0  0  0  0  0  0  0  0  0
   45.8527    3.3039    6.3019 O   0  0  0  0  0  0  0  0  0  0  0  0
   43.7814    4.7821   10.1326 C   0  0  0  0  0  0  0  0  0  0  0  0
   46.3660    2.5424    8.4136 N   0  0  0  0  0  0  0  0  0  0  0  0
   45.0854    4.3491    9.4731 C   0  0  0  0  0  0  0  0  0  0  0  0
   45.0986    2.8866    9.0394 C   0  0  0  0  0  0  0  0  0  0  0  0
   48.0448    2.4352    6.6857 C   0  0  0  0  0  0  0  0  0  0  0  0
   45.4242    3.4268    9.0796 Ca  0  0  0  0  0 15  0  0  0  0  0  0
   44.8710    5.8017   10.5156 H   0  0  0  0  0  0  0  0  0  0  0  0
   43.3587    5.0447    9.9698 H   0  0  0  0  0  0  0  0  0  0  0  0
   45.9856    1.9116    8.3816 H   0  0  0  0  0  0  0  0  0  0  0  0
   44.5090    2.7805   10.0781 H   0  0  0  0  0  0  0  0  0  0  0  0
   46.0053    3.5781   10.5248 H   0  0  0  0  0  0  0  0  0  0  0  0
   44.4665    4.0413    7.9084 H   0  0  0  0  0  0  0  0  0  0  0  0
   45.9811    4.8461    8.3491 H   0  0  0  0  0  0  0  0  0  0  0  0
   46.6229    1.0667    5.5313 H   0  0  0  0  0  0  0  0  0  0  0  0
   48.2486    1.7766    5.7576 H   0  0  0  0  0  0  0  0  0  0  0  0
   47.4754    0.8972    7.0862 H   0  0  0  0  0  0  0  0  0  0  0  0
   42.9246    4.6241    9.4696 H   0  0  0  0  0  0  0  0  0  0  0  0
   43.8402    5.8532   10.3577 H   0  0  0  0  0  0  0  0  0  0  0  0
   47.1081    2.2587    9.0387 H   0  0  0  0  0  0  0  0  0  0  0  0
   45.2533    4.9866    8.5958 H   0  0  0  0  0  0  0  0  0  0  0  0
   45.9308    4.5376   10.1463 H   0  0  0  0  0  0  0  0  0  0  0  0
   45.0020    2.2090    9.8902 H   0  0  0  0  0  0  0  0  0  0  0  0
   44.2871    2.6860    8.3318 H   0  0  0  0  0  0  0  0  0  0  0  0
   48.6405    3.3466    6.5889 H   0  0  0  0  0  0  0  0  0  0  0  0
   48.0110    1.9123    5.7258 H   0  0  0  0  0  0  0  0  0  0  0  0
   48.5193    1.7746    7.4167 H   0  0  0  0  0  0  0  0  0  0  0  0
  2  1  1  0
  3  1  2  0
  4  1  2  0
  5  8  1  0
  6  5  2  0
  7  1  1  0
  8 10  1  0
  9  7  1  0
 10  9  1  0
 11  5  1  0
 13 12  1  0
 14 12  2  0
 15 12  2  0
 16 19  1  0
 17 16  2  0
 18 12  1  0
 19 21  1  0
 20 18  1  0
 21 20  1  0
 22 16  1  0
  7 24  1  0
  7 25  1  0
  8 26  1  0
  9 27  1  0
  9 28  1  0
 10 29  1  0
 10 30  1  0
 11 31  1  0
 11 32  1  0
 11 33  1  0
 18 34  1  0
 18 35  1  0
 19 36  1  0
 20 37  1  0
 20 38  1  0
 21 39  1  0
 21 40  1  0
 22 41  1  0
 22 42  1  0
 22 43  1  0
M  CHG  3   2  -1  13  -1  23   2
M  END
> <Uni-Dock RESULT> 
ENERGY=   -7.138  LOWER_BOUND=    0.000  UPPER_BOUND=    0.000
INTER + INTRA:          -7.138
INTER:                  -7.138
INTRA:                   0.000
UNBOUND:                 0.000

$$$$

     RDKit          3D

 43 40  0  0  0  0  0  0  0  0999 V2000
   43.6830    5.0997   12.1622 S   0  0  0  0  0  0  0  0  0  0  0  0
   44.9452    4.9521   12.8830 O   0  0  0  0  0  0  0  0  0  0  0  0
   42.9836    6.3608   12.3966 O   0  0  0  0  0  0  0  0  0  0  0  0
   42.8282    3.9142   12.1597 O   0  0  0  0  0  0  0  0  0  0  0  0
   46.5835    2.8720    6.8146 C   0  0  0  0  0  0  0  0  0  0  0  0
   46.5924    3.8005    6.0128 O   0  0  0  0  0  0  0  0  0  0  0  0
   44.1917    5.2399   10.4637 C   0  0  0  0  0  0  0  0  0  0  0  0
   46.0250    2.9372    8.0687 N   0  0  0  0  0  0  0  0  0  0  0  0
   44.9644    4.0156    9.9937 C   0  0  0  0  0  0  0  0  0  0  0  0
   45.3067    4.1153    8.5163 C   0  0  0  0  0  0  0  0  0  0  0  0
   47.1856    1.5323    6.4851 C   0  0  0  0  0  0  0  0  0  0  0  0
   43.3053    4.4340   11.6520 S   0  0  0  0  0  0  0  0  0  0  0  0
   44.5695    4.5093   12.3809 O   0  0  0  0  0  0  0  0  0  0  0  0
   42.2578    5.3248   12.1453 O   0  0  0  0  0  0  0  0  0  0  0  0
   42.8560    3.0799   11.3375 O   0  0  0  0  0  0  0  0  0  0  0  0
   46.5564    2.8490    7.2313 C   0  0  0  0  0  0  0  0  0  0  0  0
   45.7900    3.3041    6.3883 O   0  0  0  0  0  0  0  0  0  0  0  0
   43.6970    5.1223   10.0576 C   0  0  0  0  0  0  0  0  0  0  0  0
   46.2523    2.6970    8.5610 N   0  0  0  0  0  0  0  0  0  0  0  0
   45.0001    4.6095    9.4558 C   0  0  0  0  0  0  0  0  0  0  0  0
   44.9843    3.1179    9.1367 C   0  0  0  0  0  0  0  0  0  0  0  0
   47.9542    2.4175    6.8755 C   0  0  0  0  0  0  0  0  0  0  0  0
   45.3222    3.6519    9.1406 Ca  0  0  0  0  0 15  0  0  0  0  0  0
   44.8052    6.1432   10.3793 H   0  0  0  0  0  0  0  0  0  0  0  0
   43.2834    5.3812    9.8678 H   0  0  0  0  0  0  0  0  0  0  0  0
   45.8573    2.0746    8.5712 H   0  0  0  0  0  0  0  0  0  0  0  0
   44.3765    3.1063   10.1702 H   0  0  0  0  0  0  0  0  0  0  0  0
   45.8848    3.9014   10.5795 H   0  0  0  0  0  0  0  0  0  0  0  0
   44.3977    4.1956    7.9092 H   0  0  0  0  0  0  0  0  0  0  0  0
   45.9246    4.9971    8.3124 H   0  0  0  0  0  0  0  0  0  0  0  0
   46.5172    0.9967    5.8060 H   0  0  0  0  0  0  0  0  0  0  0  0
   48.1560    1.6844    6.0045 H   0  0  0  0  0  0  0  0  0  0  0  0
   47.3416    0.9287    7.3837 H   0  0  0  0  0  0  0  0  0  0  0  0
   42.8468    4.9332    9.3942 H   0  0  0  0  0  0  0  0  0  0  0  0
   43.7784    6.2060   10.2004 H   0  0  0  0  0  0  0  0  0  0  0  0
   46.9777    2.4457    9.2187 H   0  0  0  0  0  0  0  0  0  0  0  0
   45.1968    5.1730    8.5350 H   0  0  0  0  0  0  0  0  0  0  0  0
   45.8394    4.8301   10.1269 H   0  0  0  0  0  0  0  0  0  0  0  0
   44.8583    2.5107   10.0354 H   0  0  0  0  0  0  0  0  0  0  0  0
   44.1791    2.8818    8.4328 H   0  0  0  0  0  0  0  0  0  0  0  0
   48.5733    3.3047    6.7188 H   0  0  0  0  0  0  0  0  0  0  0  0
   47.9224    1.8227    5.9583 H   0  0  0  0  0  0  0  0  0  0  0  0
   48.4013    1.8048    7.6633 H   0  0  0  0  0  0  0  0  0  0  0  0
  2  1  1  0
  3  1  2  0
  4  1  2  0
  5  8  1  0
  6  5  2  0
  7  1  1  0
  8 10  1  0
  9  7  1  0
 10  9  1  0
 11  5  1  0
 13 12  1  0
 14 12  2  0
 15 12  2  0
 16 19  1  0
 17 16  2  0
 18 12  1  0
 19 21  1  0
 20 18  1  0
 21 20  1  0
 22 16  1  0
  7 24  1  0
  7 25  1  0
  8 26  1  0
  9 27  1  0
  9 28  1  0
 10 29  1  0
 10 30  1  0
 11 31  1  0
 11 32  1  0
 11 33  1  0
 18 34  1  0
 18 35  1  0
 19 36  1  0
 20 37  1  0
 20 38  1  0
 21 39  1  0
 21 40  1  0
 22 41  1  0
 22 42  1  0
 22 43  1  0
M  CHG  3   2  -1  13  -1  23   2
M  END
> <Uni-Dock RESULT> 
ENERGY=   -6.713  LOWER_BOUND=    0.371  UPPER_BOUND=    0.371
INTER + INTRA:          -6.713
INTER:                  -6.713
INTRA:                   0.000
UNBOUND:                 0.000

$$$$

     RDKit          3D

 43 40  0  0  0  0  0  0  0  0999 V2000
   43.2218    5.6320   11.8002 S   0  0  0  0  0  0  0  0  0  0  0  0
   42.5396    6.3950   10.7576 O   0  0  0  0  0  0  0  0  0  0  0  0
   42.3484    5.0912   12.8390 O   0  0  0  0  0  0  0  0  0  0  0  0
   44.4647    6.2250   12.2896 O   0  0  0  0  0  0  0  0  0  0  0  0
   46.6257    2.5805    7.2096 C   0  0  0  0  0  0  0  0  0  0  0  0
   46.2821    1.4034    7.2481 O   0  0  0  0  0  0  0  0  0  0  0  0
   43.7738    4.1715   10.9484 C   0  0  0  0  0  0  0  0  0  0  0  0
   46.1482    3.5546    8.0534 N   0  0  0  0  0  0  0  0  0  0  0  0
   44.7090    4.5004    9.7933 C   0  0  0  0  0  0  0  0  0  0  0  0
   45.2419    3.2358    9.1402 C   0  0  0  0  0  0  0  0  0  0  0  0
   47.6428    3.0789    6.2181 C   0  0  0  0  0  0  0  0  0  0  0  0
   44.1361    5.5472   11.8557 S   0  0  0  0  0  0  0  0  0  0  0  0
   43.2720    6.1950   10.8713 O   0  0  0  0  0  0  0  0  0  0  0  0
   43.5506    5.4030   13.1864 O   0  0  0  0  0  0  0  0  0  0  0  0
   45.5255    5.9985   11.8464 O   0  0  0  0  0  0  0  0  0  0  0  0
   46.4471    2.9389    7.3303 C   0  0  0  0  0  0  0  0  0  0  0  0
   46.7717    1.9372    7.9599 O   0  0  0  0  0  0  0  0  0  0  0  0
   44.2418    3.8655   11.2812 C   0  0  0  0  0  0  0  0  0  0  0  0
   46.0154    4.1114    7.8981 N   0  0  0  0  0  0  0  0  0  0  0  0
   44.4910    3.7286    9.7838 C   0  0  0  0  0  0  0  0  0  0  0  0
   45.8401    4.2792    9.3325 C   0  0  0  0  0  0  0  0  0  0  0  0
   46.4765    2.9684    5.8253 C   0  0  0  0  0  0  0  0  0  0  0  0
   45.2953    4.0114    9.1568 Ca  0  0  0  0  0 15  0  0  0  0  0  0
   42.8828    3.6453   10.5898 H   0  0  0  0  0  0  0  0  0  0  0  0
   44.2751    3.5389   11.6889 H   0  0  0  0  0  0  0  0  0  0  0  0
   46.6435    4.4357    8.1077 H   0  0  0  0  0  0  0  0  0  0  0  0
   45.5501    5.1084   10.1488 H   0  0  0  0  0  0  0  0  0  0  0  0
   44.1868    5.1106    9.0460 H   0  0  0  0  0  0  0  0  0  0  0  0
   45.7974    2.6272    9.8628 H   0  0  0  0  0  0  0  0  0  0  0  0
   44.4255    2.6220    8.7428 H   0  0  0  0  0  0  0  0  0  0  0  0
   48.6392    2.7633    6.5380 H   0  0  0  0  0  0  0  0  0  0  0  0
   47.4200    2.6571    5.2340 H   0  0  0  0  0  0  0  0  0  0  0  0
   47.6226    4.1691    6.1337 H   0  0  0  0  0  0  0  0  0  0  0  0
   45.0189    3.3615   11.8650 H   0  0  0  0  0  0  0  0  0  0  0  0
   43.2813    3.3957   11.5221 H   0  0  0  0  0  0  0  0  0  0  0  0
   45.6351    4.8442    7.3149 H   0  0  0  0  0  0  0  0  0  0  0  0
   44.4305    2.6645    9.5229 H   0  0  0  0  0  0  0  0  0  0  0  0
   43.6890    4.2211    9.2202 H   0  0  0  0  0  0  0  0  0  0  0  0
   45.9214    5.3534    9.5107 H   0  0  0  0  0  0  0  0  0  0  0  0
   46.6587    3.7701    9.8523 H   0  0  0  0  0  0  0  0  0  0  0  0
   45.6321    2.3912    5.4397 H   0  0  0  0  0  0  0  0  0  0  0  0
   47.4148    2.5278    5.4771 H   0  0  0  0  0  0  0  0  0  0  0  0
   46.4163    3.9900    5.4395 H   0  0  0  0  0  0  0  0  0  0  0  0
  2  1  1  0
  3  1  2  0
  4  1  2  0
  5  8  1  0
  6  5  2  0
  7  1  1  0
  8 10  1  0
  9  7  1  0
 10  9  1  0
 11  5  1  0
 13 12  1  0
 14 12  2  0
 15 12  2  0
 16 19  1  0
 17 16  2  0
 18 12  1  0
 19 21  1  0
 20 18  1  0
 21 20  1  0
 22 16  1  0
  7 24  1  0
  7 25  1  0
  8 26  1  0
  9 27  1  0
  9 28  1  0
 10 29  1  0
 10 30  1  0
 11 31  1  0
 11 32  1  0
 11 33  1  0
 18 34  1  0
 18 35  1  0
 19 36  1  0
 20 37  1  0
 20 38  1  0
 21 39  1  0
 21 40  1  0
 22 41  1  0
 22 42  1  0
 22 43  1  0
M  CHG  3   2  -1  13  -1  23   2
M  END
> <Uni-Dock RESULT> 
ENERGY=   -5.868  LOWER_BOUND=    1.430  UPPER_BOUND=    2.007
INTER + INTRA:          -5.868
INTER:                  -5.868
INTRA:                   0.000
UNBOUND:                 0.000

$$$$

     RDKit          3D

 43 40  0  0  0  0  0  0  0  0999 V2000
   43.3680    5.0413   11.0529 S   0  0  0  0  0  0  0  0  0  0  0  0
   43.9534    4.6233    9.7813 O   0  0  0  0  0  0  0  0  0  0  0  0
   42.5534    4.0276   11.7188 O   0  0  0  0  0  0  0  0  0  0  0  0
   42.8009    6.3883   11.0614 O   0  0  0  0  0  0  0  0  0  0  0  0
   49.0875    7.5680   12.7486 C   0  0  0  0  0  0  0  0  0  0  0  0
   49.4881    6.9094   13.7029 O   0  0  0  0  0  0  0  0  0  0  0  0
   44.7772    5.1847   12.1286 C   0  0  0  0  0  0  0  0  0  0  0  0
   47.8857    7.3610   12.1147 N   0  0  0  0  0  0  0  0  0  0  0  0
   45.7879    6.2014   11.6169 C   0  0  0  0  0  0  0  0  0  0  0  0
   46.9361    6.3763   12.5972 C   0  0  0  0  0  0  0  0  0  0  0  0
   49.8891    8.7067   12.1770 C   0  0  0  0  0  0  0  0  0  0  0  0
   43.4359    5.8942   11.3907 S   0  0  0  0  0  0  0  0  0  0  0  0
   43.9971    5.2681   10.1955 O   0  0  0  0  0  0  0  0  0  0  0  0
   42.2240    5.2606   11.9045 O   0  0  0  0  0  0  0  0  0  0  0  0
   43.3940    7.3542   11.3585 O   0  0  0  0  0  0  0  0  0  0  0  0
   48.8183    7.4935   12.4373 C   0  0  0  0  0  0  0  0  0  0  0  0
   48.6716    7.5113   13.6552 O   0  0  0  0  0  0  0  0  0  0  0  0
   44.6384    5.5410   12.6550 C   0  0  0  0  0  0  0  0  0  0  0  0
   47.7940    7.3922   11.5296 N   0  0  0  0  0  0  0  0  0  0  0  0
   46.0830    5.7774   12.2305 C   0  0  0  0  0  0  0  0  0  0  0  0
   46.4015    7.2367   11.9208 C   0  0  0  0  0  0  0  0  0  0  0  0
   50.1833    7.5654   11.8062 C   0  0  0  0  0  0  0  0  0  0  0  0
   46.6177    6.6432   11.9398 Ca  0  0  0  0  0 15  0  0  0  0  0  0
   45.2309    4.1910   12.2077 H   0  0  0  0  0  0  0  0  0  0  0  0
   44.3990    5.4723   13.1155 H   0  0  0  0  0  0  0  0  0  0  0  0
   47.5321    8.0806   11.4969 H   0  0  0  0  0  0  0  0  0  0  0  0
   45.2999    7.1700   11.4519 H   0  0  0  0  0  0  0  0  0  0  0  0
   46.1793    5.8876   10.6414 H   0  0  0  0  0  0  0  0  0  0  0  0
   46.5698    6.7231   13.5701 H   0  0  0  0  0  0  0  0  0  0  0  0
   47.4670    5.4309   12.7568 H   0  0  0  0  0  0  0  0  0  0  0  0
   49.8149    9.5680   12.8460 H   0  0  0  0  0  0  0  0  0  0  0  0
   50.9344    8.3985   12.0863 H   0  0  0  0  0  0  0  0  0  0  0  0
   49.5311    8.9929   11.1840 H   0  0  0  0  0  0  0  0  0  0  0  0
   44.3777    6.1329   13.5384 H   0  0  0  0  0  0  0  0  0  0  0  0
   44.5160    4.4822   12.9107 H   0  0  0  0  0  0  0  0  0  0  0  0
   48.0000    7.2448   10.5509 H   0  0  0  0  0  0  0  0  0  0  0  0
   46.7384    5.4291   13.0387 H   0  0  0  0  0  0  0  0  0  0  0  0
   46.3274    5.1578   11.3589 H   0  0  0  0  0  0  0  0  0  0  0  0
   45.8195    7.6097   11.0756 H   0  0  0  0  0  0  0  0  0  0  0  0
   46.2052    7.8687   12.7936 H   0  0  0  0  0  0  0  0  0  0  0  0
   50.6863    6.6030   11.9313 H   0  0  0  0  0  0  0  0  0  0  0  0
   50.7634    8.3519   12.2971 H   0  0  0  0  0  0  0  0  0  0  0  0
   50.1241    7.8012   10.7400 H   0  0  0  0  0  0  0  0  0  0  0  0
  2  1  1  0
  3  1  2  0
  4  1  2  0
  5  8  1  0
  6  5  2  0
  7  1  1  0
  8 10  1  0
  9  7  1  0
 10  9  1  0
 11  5  1  0
 13 12  1  0
 14 12  2  0
 15 12  2  0
 16 19  1  0
 17 16  2  0
 18 12  1  0
 19 21  1  0
 20 18  1  0
 21 20  1  0
 22 16  1  0
  7 24  1  0
  7 25  1  0
  8 26  1  0
  9 27  1  0
  9 28  1  0
 10 29  1  0
 10 30  1  0
 11 31  1  0
 11 32  1  0
 11 33  1  0
 18 34  1  0
 18 35  1  0
 19 36  1  0
 20 37  1  0
 20 38  1  0
 21 39  1  0
 21 40  1  0
 22 41  1  0
 22 42  1  0
 22 43  1  0
M  CHG  3   2  -1  13  -1  23   2
M  END
> <Uni-Dock RESULT> 
ENERGY=   -4.960  LOWER_BOUND=    4.020  UPPER_BOUND=    5.395
INTER + INTRA:          -4.960
INTER:                  -4.960
INTRA:                   0.000
UNBOUND:                 0.000

$$$$

     RDKit          3D

 43 40  0  0  0  0  0  0  0  0999 V2000
   47.2668    3.6057   17.4041 S   0  0  0  0  0  0  0  0  0  0  0  0
   46.7962    2.4833   18.2124 O   0  0  0  0  0  0  0  0  0  0  0  0
   46.7526    4.9127   17.8065 O   0  0  0  0  0  0  0  0  0  0  0  0
   47.2811    3.3684   15.9621 O   0  0  0  0  0  0  0  0  0  0  0  0
   53.2754    1.2063   17.7379 C   0  0  0  0  0  0  0  0  0  0  0  0
   53.9372    2.0169   18.3782 O   0  0  0  0  0  0  0  0  0  0  0  0
   48.9933    3.7163   17.8170 C   0  0  0  0  0  0  0  0  0  0  0  0
   51.9473    1.3675   17.4228 N   0  0  0  0  0  0  0  0  0  0  0  0
   49.7451    2.4348   17.4862 C   0  0  0  0  0  0  0  0  0  0  0  0
   51.2327    2.5843   17.7588 C   0  0  0  0  0  0  0  0  0  0  0  0
   53.8763   -0.0683   17.2087 C   0  0  0  0  0  0  0  0  0  0  0  0
   47.7891    3.5107   16.6530 S   0  0  0  0  0  0  0  0  0  0  0  0
   47.2815    2.5402   17.6202 O   0  0  0  0  0  0  0  0  0  0  0  0
   47.0120    4.7439   16.5546 O   0  0  0  0  0  0  0  0  0  0  0  0
   48.1992    2.9443   15.3703 O   0  0  0  0  0  0  0  0  0  0  0  0
   52.8669    1.1200   17.7137 C   0  0  0  0  0  0  0  0  0  0  0  0
   53.5001    2.1422   17.4702 O   0  0  0  0  0  0  0  0  0  0  0  0
   49.3216    4.0606   17.3731 C   0  0  0  0  0  0  0  0  0  0  0  0
   51.5369    0.9395   17.4273 N   0  0  0  0  0  0  0  0  0  0  0  0
   50.1979    2.9381   17.9164 C   0  0  0  0  0  0  0  0  0  0  0  0
   50.7042    1.9795   16.8431 C   0  0  0  0  0  0  0  0  0  0  0  0
   53.5083   -0.0633   18.3882 C   0  0  0  0  0  0  0  0  0  0  0  0
   50.6870    2.1182   17.4595 Ca  0  0  0  0  0 15  0  0  0  0  0  0
   49.0601    3.9416   18.8867 H   0  0  0  0  0  0  0  0  0  0  0  0
   49.4026    4.5649   17.2582 H   0  0  0  0  0  0  0  0  0  0  0  0
   51.5423    0.7755   16.7086 H   0  0  0  0  0  0  0  0  0  0  0  0
   49.5934    2.1682   16.4330 H   0  0  0  0  0  0  0  0  0  0  0  0
   49.3440    1.5990   18.0726 H   0  0  0  0  0  0  0  0  0  0  0  0
   51.6610    3.3933   17.1561 H   0  0  0  0  0  0  0  0  0  0  0  0
   51.4200    2.8170   18.8132 H   0  0  0  0  0  0  0  0  0  0  0  0
   54.4972    0.1626   16.3392 H   0  0  0  0  0  0  0  0  0  0  0  0
   54.4900   -0.5260   17.9896 H   0  0  0  0  0  0  0  0  0  0  0  0
   53.1051   -0.7867   16.9171 H   0  0  0  0  0  0  0  0  0  0  0  0
   49.8505    4.6538   16.6201 H   0  0  0  0  0  0  0  0  0  0  0  0
   49.0526    4.7280   18.1999 H   0  0  0  0  0  0  0  0  0  0  0  0
   51.0506    0.1267   17.7808 H   0  0  0  0  0  0  0  0  0  0  0  0
   51.0560    3.3913   18.4286 H   0  0  0  0  0  0  0  0  0  0  0  0
   49.6555    2.3725   18.6841 H   0  0  0  0  0  0  0  0  0  0  0  0
   49.8854    1.4521   16.3495 H   0  0  0  0  0  0  0  0  0  0  0  0
   51.2864    2.5180   16.0877 H   0  0  0  0  0  0  0  0  0  0  0  0
   53.6489    0.1622   19.4485 H   0  0  0  0  0  0  0  0  0  0  0  0
   54.4773   -0.2597   17.9208 H   0  0  0  0  0  0  0  0  0  0  0  0
   52.8957   -0.9642   18.2931 H   0  0  0  0  0  0  0  0  0  0  0  0
  2  1  1  0
  3  1  2  0
  4  1  2  0
  5  8  1  0
  6  5  2  0
  7  1  1  0
  8 10  1  0
  9  7  1  0
 10  9  1  0
 11  5  1  0
 13 12  1  0
 14 12  2  0
 15 12  2  0
 16 19  1  0
 17 16  2  0
 18 12  1  0
 19 21  1  0
 20 18  1  0
 21 20  1  0
 22 16  1  0
  7 24  1  0
  7 25  1  0
  8 26  1  0
  9 27  1  0
  9 28  1  0
 10 29  1  0
 10 30  1  0
 11 31  1  0
 11 32  1  0
 11 33  1  0
 18 34  1  0
 18 35  1  0
 19 36  1  0
 20 37  1  0
 20 38  1  0
 21 39  1  0
 21 40  1  0
 22 41  1  0
 22 42  1  0
 22 43  1  0
M  CHG  3   2  -1  13  -1  23   2
M  END
> <Uni-Dock RESULT> 
ENERGY=   -4.937  LOWER_BOUND=    8.889  UPPER_BOUND=    9.917
INTER + INTRA:          -4.937
INTER:                  -4.937
INTRA:                   0.000
UNBOUND:                 0.000

$$$$

     RDKit          3D

 43 40  0  0  0  0  0  0  0  0999 V2000
   43.6667    4.4264   10.9739 S   0  0  0  0  0  0  0  0  0  0  0  0
   42.6004    4.0523   11.8999 O   0  0  0  0  0  0  0  0  0  0  0  0
   43.3054    5.4553   10.0016 O   0  0  0  0  0  0  0  0  0  0  0  0
   44.4351    3.3089   10.4291 O   0  0  0  0  0  0  0  0  0  0  0  0
   47.7890    4.6710   15.9658 C   0  0  0  0  0  0  0  0  0  0  0  0
   48.1321    5.8438   16.0748 O   0  0  0  0  0  0  0  0  0  0  0  0
   44.8427    5.2618   12.0144 C   0  0  0  0  0  0  0  0  0  0  0  0
   46.9350    4.2008   14.9970 N   0  0  0  0  0  0  0  0  0  0  0  0
   45.3598    4.3647   13.1301 C   0  0  0  0  0  0  0  0  0  0  0  0
   46.4311    5.0669   13.9481 C   0  0  0  0  0  0  0  0  0  0  0  0
   48.2977    3.6047   16.8986 C   0  0  0  0  0  0  0  0  0  0  0  0
   44.4857    4.0087   10.9423 S   0  0  0  0  0  0  0  0  0  0  0  0
   43.3327    3.8351   11.8230 O   0  0  0  0  0  0  0  0  0  0  0  0
   44.1783    4.5803    9.6335 O   0  0  0  0  0  0  0  0  0  0  0  0
   45.4126    2.8799   10.9123 O   0  0  0  0  0  0  0  0  0  0  0  0
   47.4569    4.4805   15.7975 C   0  0  0  0  0  0  0  0  0  0  0  0
   48.3164    5.2054   15.3068 O   0  0  0  0  0  0  0  0  0  0  0  0
   45.4269    5.2981   11.7303 C   0  0  0  0  0  0  0  0  0  0  0  0
   46.5131    3.7918   15.0773 N   0  0  0  0  0  0  0  0  0  0  0  0
   45.5882    5.1263   13.2361 C   0  0  0  0  0  0  0  0  0  0  0  0
   46.3923    3.8915   13.6310 C   0  0  0  0  0  0  0  0  0  0  0  0
   47.3437    4.2876   17.2863 C   0  0  0  0  0  0  0  0  0  0  0  0
   46.0628    4.3919   13.8324 Ca  0  0  0  0  0 15  0  0  0  0  0  0
   44.3452    6.1466   12.4257 H   0  0  0  0  0  0  0  0  0  0  0  0
   45.6626    5.5943   11.3686 H   0  0  0  0  0  0  0  0  0  0  0  0
   46.8851    3.2027   14.8363 H   0  0  0  0  0  0  0  0  0  0  0  0
   45.7714    3.4383   12.7108 H   0  0  0  0  0  0  0  0  0  0  0  0
   44.5339    4.0617   13.7852 H   0  0  0  0  0  0  0  0  0  0  0  0
   47.2824    5.3482   13.3177 H   0  0  0  0  0  0  0  0  0  0  0  0
   46.0402    5.9806   14.4102 H   0  0  0  0  0  0  0  0  0  0  0  0
   49.3306    3.3622   16.6358 H   0  0  0  0  0  0  0  0  0  0  0  0
   48.2559    3.9779   17.9257 H   0  0  0  0  0  0  0  0  0  0  0  0
   47.6911    2.6965   16.8414 H   0  0  0  0  0  0  0  0  0  0  0  0
   46.3974    5.3583   11.2270 H   0  0  0  0  0  0  0  0  0  0  0  0
   44.8895    6.2340   11.5389 H   0  0  0  0  0  0  0  0  0  0  0  0
   45.7541    3.3263   15.5560 H   0  0  0  0  0  0  0  0  0  0  0  0
   46.0849    6.0214   13.6313 H   0  0  0  0  0  0  0  0  0  0  0  0
   44.6046    5.0913   13.7205 H   0  0  0  0  0  0  0  0  0  0  0  0
   45.9010    2.9684   13.3169 H   0  0  0  0  0  0  0  0  0  0  0  0
   47.3953    3.9270   13.1925 H   0  0  0  0  0  0  0  0  0  0  0  0
   46.9106    5.1871   17.7316 H   0  0  0  0  0  0  0  0  0  0  0  0
   48.3404    4.1133   17.7013 H   0  0  0  0  0  0  0  0  0  0  0  0
   46.7158    3.4278   17.5363 H   0  0  0  0  0  0  0  0  0  0  0  0
  2  1  1  0
  3  1  2  0
  4  1  2  0
  5  8  1  0
  6  5  2  0
  7  1  1  0
  8 10  1  0
  9  7  1  0
 10  9  1  0
 11  5  1  0
 13 12  1  0
 14 12  2  0
 15 12  2  0
 16 19  1  0
 17 16  2  0
 18 12  1  0
 19 21  1  0
 20 18  1  0
 21 20  1  0
 22 16  1  0
  7 24  1  0
  7 25  1  0
  8 26  1  0
  9 27  1  0
  9 28  1  0
 10 29  1  0
 10 30  1  0
 11 31  1  0
 11 32  1  0
 11 33  1  0
 18 34  1  0
 18 35  1  0
 19 36  1  0
 20 37  1  0
 20 38  1  0
 21 39  1  0
 21 40  1  0
 22 41  1  0
 22 42  1  0
 22 43  1  0
M  CHG  3   2  -1  13  -1  23   2
M  END
> <Uni-Dock RESULT> 
ENERGY=   -4.714  LOWER_BOUND=    4.306  UPPER_BOUND=    6.105
INTER + INTRA:          -4.714
INTER:                  -4.714
INTRA:                   0.000
UNBOUND:                 0.000

$$$$

     RDKit          3D

 43 40  0  0  0  0  0  0  0  0999 V2000
   43.6046    4.1185   11.0037 S   0  0  0  0  0  0  0  0  0  0  0  0
   44.0085    4.4001    9.6282 O   0  0  0  0  0  0  0  0  0  0  0  0
   43.6741    2.7113   11.3902 O   0  0  0  0  0  0  0  0  0  0  0  0
   42.4045    4.8208   11.4536 O   0  0  0  0  0  0  0  0  0  0  0  0
   47.1536    9.1652   12.9804 C   0  0  0  0  0  0  0  0  0  0  0  0
   48.0617    8.7037   13.6641 O   0  0  0  0  0  0  0  0  0  0  0  0
   44.8988    4.8588   11.9735 C   0  0  0  0  0  0  0  0  0  0  0  0
   46.1631    8.4114   12.3976 N   0  0  0  0  0  0  0  0  0  0  0  0
   45.0198    6.3550   11.7212 C   0  0  0  0  0  0  0  0  0  0  0  0
   46.0661    6.9824   12.6276 C   0  0  0  0  0  0  0  0  0  0  0  0
   47.0261   10.6426   12.7219 C   0  0  0  0  0  0  0  0  0  0  0  0
   43.2625    4.7525   11.5756 S   0  0  0  0  0  0  0  0  0  0  0  0
   43.7807    4.8431   10.2123 O   0  0  0  0  0  0  0  0  0  0  0  0
   42.7682    3.4321   11.9583 O   0  0  0  0  0  0  0  0  0  0  0  0
   42.4089    5.8653   11.9845 O   0  0  0  0  0  0  0  0  0  0  0  0
   46.9081    9.0084   12.6803 C   0  0  0  0  0  0  0  0  0  0  0  0
   47.0643    8.6904   13.8548 O   0  0  0  0  0  0  0  0  0  0  0  0
   44.7121    4.9463   12.5907 C   0  0  0  0  0  0  0  0  0  0  0  0
   45.9365    8.4978   11.8564 N   0  0  0  0  0  0  0  0  0  0  0  0
   45.6339    6.0804   12.1581 C   0  0  0  0  0  0  0  0  0  0  0  0
   45.0035    7.4643   12.2780 C   0  0  0  0  0  0  0  0  0  0  0  0
   47.8099   10.0087   12.0074 C   0  0  0  0  0  0  0  0  0  0  0  0
   45.5108    7.1301   12.1036 Ca  0  0  0  0  0 15  0  0  0  0  0  0
   45.8322    4.3448   11.7205 H   0  0  0  0  0  0  0  0  0  0  0  0
   44.6665    4.6574   13.0249 H   0  0  0  0  0  0  0  0  0  0  0  0
   45.3368    8.8808   12.0492 H   0  0  0  0  0  0  0  0  0  0  0  0
   44.0531    6.8462   11.8874 H   0  0  0  0  0  0  0  0  0  0  0  0
   45.2798    6.5418   10.6720 H   0  0  0  0  0  0  0  0  0  0  0  0
   45.8071    6.8368   13.6825 H   0  0  0  0  0  0  0  0  0  0  0  0
   47.0529    6.5360   12.4603 H   0  0  0  0  0  0  0  0  0  0  0  0
   46.6430   11.1317   13.6212 H   0  0  0  0  0  0  0  0  0  0  0  0
   48.0103   11.0485   12.4715 H   0  0  0  0  0  0  0  0  0  0  0  0
   46.3504   10.8488   11.8870 H   0  0  0  0  0  0  0  0  0  0  0  0
   44.3801    5.0719   13.6264 H   0  0  0  0  0  0  0  0  0  0  0  0
   45.2633    4.0011   12.5258 H   0  0  0  0  0  0  0  0  0  0  0  0
   45.9554    8.7030   10.8668 H   0  0  0  0  0  0  0  0  0  0  0  0
   46.5384    6.0414   12.7781 H   0  0  0  0  0  0  0  0  0  0  0  0
   45.9711    5.9213   11.1264 H   0  0  0  0  0  0  0  0  0  0  0  0
   44.1352    7.5739   11.6250 H   0  0  0  0  0  0  0  0  0  0  0  0
   44.6980    7.6616   13.3111 H   0  0  0  0  0  0  0  0  0  0  0  0
   48.7759    9.5393   11.8040 H   0  0  0  0  0  0  0  0  0  0  0  0
   47.9488   10.8676   12.6699 H   0  0  0  0  0  0  0  0  0  0  0  0
   47.3835   10.3695   11.0672 H   0  0  0  0  0  0  0  0  0  0  0  0
  2  1  1  0
  3  1  2  0
  4  1  2  0
  5  8  1  0
  6  5  2  0
  7  1  1  0
  8 10  1  0
  9  7  1  0
 10  9  1  0
 11  5  1  0
 13 12  1  0
 14 12  2  0
 15 12  2  0
 16 19  1  0
 17 16  2  0
 18 12  1  0
 19 21  1  0
 20 18  1  0
 21 20  1  0
 22 16  1  0
  7 24  1  0
  7 25  1  0
  8 26  1  0
  9 27  1  0
  9 28  1  0
 10 29  1  0
 10 30  1  0
 11 31  1  0
 11 32  1  0
 11 33  1  0
 18 34  1  0
 18 35  1  0
 19 36  1  0
 20 37  1  0
 20 38  1  0
 21 39  1  0
 21 40  1  0
 22 41  1  0
 22 42  1  0
 22 43  1  0
M  CHG  3   2  -1  13  -1  23   2
M  END
> <Uni-Dock RESULT> 
ENERGY=   -4.710  LOWER_BOUND=    4.034  UPPER_BOUND=    5.862
INTER + INTRA:          -4.710
INTER:                  -4.710
INTRA:                   0.000
UNBOUND:                 0.000

$$$$

     RDKit          3D

 43 40  0  0  0  0  0  0  0  0999 V2000
   43.5838    4.1430   12.2779 S   0  0  0  0  0  0  0  0  0  0  0  0
   42.8909    4.4907   13.5163 O   0  0  0  0  0  0  0  0  0  0  0  0
   42.8240    4.3942   11.0556 O   0  0  0  0  0  0  0  0  0  0  0  0
   44.3007    2.8697   12.3051 O   0  0  0  0  0  0  0  0  0  0  0  0
   48.9080    7.0524   14.5497 C   0  0  0  0  0  0  0  0  0  0  0  0
   49.1109    8.0199   13.8233 O   0  0  0  0  0  0  0  0  0  0  0  0
   44.8908    5.3457   12.1848 C   0  0  0  0  0  0  0  0  0  0  0  0
   47.8790    6.1574   14.3781 N   0  0  0  0  0  0  0  0  0  0  0  0
   45.8226    5.2740   13.3862 C   0  0  0  0  0  0  0  0  0  0  0  0
   46.9832    6.2442   13.2404 C   0  0  0  0  0  0  0  0  0  0  0  0
   49.8009    6.7364   15.7196 C   0  0  0  0  0  0  0  0  0  0  0  0
   44.4057    3.7309   12.2509 S   0  0  0  0  0  0  0  0  0  0  0  0
   43.5912    4.2163   13.3628 O   0  0  0  0  0  0  0  0  0  0  0  0
   43.6594    3.4119   11.0362 O   0  0  0  0  0  0  0  0  0  0  0  0
   45.4238    2.7491   12.6166 O   0  0  0  0  0  0  0  0  0  0  0  0
   48.5694    6.8247   14.6418 C   0  0  0  0  0  0  0  0  0  0  0  0
   49.1465    7.0347   13.5797 O   0  0  0  0  0  0  0  0  0  0  0  0
   45.3574    5.1573   11.7722 C   0  0  0  0  0  0  0  0  0  0  0  0
   47.5562    5.9149   14.8124 N   0  0  0  0  0  0  0  0  0  0  0  0
   45.9698    5.9233   12.9389 C   0  0  0  0  0  0  0  0  0  0  0  0
   47.0087    5.1250   13.7203 C   0  0  0  0  0  0  0  0  0  0  0  0
   48.9195    7.5847   15.8934 C   0  0  0  0  0  0  0  0  0  0  0  0
   46.6892    5.6681   13.6721 Ca  0  0  0  0  0 15  0  0  0  0  0  0
   44.4224    6.3332   12.1141 H   0  0  0  0  0  0  0  0  0  0  0  0
   45.4369    5.1540   11.2548 H   0  0  0  0  0  0  0  0  0  0  0  0
   47.9161    5.2742   14.8711 H   0  0  0  0  0  0  0  0  0  0  0  0
   46.2126    4.2552   13.5024 H   0  0  0  0  0  0  0  0  0  0  0  0
   45.2695    5.4950   14.3074 H   0  0  0  0  0  0  0  0  0  0  0  0
   47.5703    6.0190   12.3428 H   0  0  0  0  0  0  0  0  0  0  0  0
   46.6269    7.2772   13.1571 H   0  0  0  0  0  0  0  0  0  0  0  0
   50.7355    6.3061   15.3507 H   0  0  0  0  0  0  0  0  0  0  0  0
   50.0104    7.6582   16.2693 H   0  0  0  0  0  0  0  0  0  0  0  0
   49.3286    6.0296   16.4077 H   0  0  0  0  0  0  0  0  0  0  0  0
   46.1233    4.8253   11.0639 H   0  0  0  0  0  0  0  0  0  0  0  0
   44.6696    5.8225   11.2375 H   0  0  0  0  0  0  0  0  0  0  0  0
   47.0367    5.8952   15.6794 H   0  0  0  0  0  0  0  0  0  0  0  0
   46.4379    6.8333   12.5427 H   0  0  0  0  0  0  0  0  0  0  0  0
   45.1826    6.2647   13.6223 H   0  0  0  0  0  0  0  0  0  0  0  0
   46.5730    4.2416   14.1915 H   0  0  0  0  0  0  0  0  0  0  0  0
   47.8275    4.8103   13.0645 H   0  0  0  0  0  0  0  0  0  0  0  0
   48.5201    8.5995   15.8192 H   0  0  0  0  0  0  0  0  0  0  0  0
   50.0076    7.6226   15.9963 H   0  0  0  0  0  0  0  0  0  0  0  0
   48.5097    7.1043   16.7863 H   0  0  0  0  0  0  0  0  0  0  0  0
  2  1  1  0
  3  1  2  0
  4  1  2  0
  5  8  1  0
  6  5  2  0
  7  1  1  0
  8 10  1  0
  9  7  1  0
 10  9  1  0
 11  5  1  0
 13 12  1  0
 14 12  2  0
 15 12  2  0
 16 19  1  0
 17 16  2  0
 18 12  1  0
 19 21  1  0
 20 18  1  0
 21 20  1  0
 22 16  1  0
  7 24  1  0
  7 25  1  0
  8 26  1  0
  9 27  1  0
  9 28  1  0
 10 29  1  0
 10 30  1  0
 11 31  1  0
 11 32  1  0
 11 33  1  0
 18 34  1  0
 18 35  1  0
 19 36  1  0
 20 37  1  0
 20 38  1  0
 21 39  1  0
 21 40  1  0
 22 41  1  0
 22 42  1  0
 22 43  1  0
M  CHG  3   2  -1  13  -1  23   2
M  END
> <Uni-Dock RESULT> 
ENERGY=   -4.688  LOWER_BOUND=    4.464  UPPER_BOUND=    5.987
INTER + INTRA:          -4.688
INTER:                  -4.688
INTRA:                   0.000
UNBOUND:                 0.000

$$$$

     RDKit          3D

 43 40  0  0  0  0  0  0  0  0999 V2000
   49.0195    7.8962   13.0290 S   0  0  0  0  0  0  0  0  0  0  0  0
   49.5309    7.3389   11.7790 O   0  0  0  0  0  0  0  0  0  0  0  0
   49.1515    9.3456   13.1566 O   0  0  0  0  0  0  0  0  0  0  0  0
   49.3626    7.1396   14.2314 O   0  0  0  0  0  0  0  0  0  0  0  0
   43.7147    4.2336   12.3833 C   0  0  0  0  0  0  0  0  0  0  0  0
   42.7773    5.0074   12.2178 O   0  0  0  0  0  0  0  0  0  0  0  0
   47.2606    7.6703   12.8924 C   0  0  0  0  0  0  0  0  0  0  0  0
   45.0158    4.6260   12.5892 N   0  0  0  0  0  0  0  0  0  0  0  0
   46.8812    6.2044   12.7370 C   0  0  0  0  0  0  0  0  0  0  0  0
   45.3720    6.0263   12.7170 C   0  0  0  0  0  0  0  0  0  0  0  0
   43.5202    2.7409   12.3931 C   0  0  0  0  0  0  0  0  0  0  0  0
   48.7008    7.3846   13.7238 S   0  0  0  0  0  0  0  0  0  0  0  0
   49.1820    7.0316   12.3899 O   0  0  0  0  0  0  0  0  0  0  0  0
   49.2059    8.6531   14.2432 O   0  0  0  0  0  0  0  0  0  0  0  0
   48.7010    6.2873   14.6883 O   0  0  0  0  0  0  0  0  0  0  0  0
   44.1278    4.2616   12.3243 C   0  0  0  0  0  0  0  0  0  0  0  0
   43.3618    4.8977   13.0409 O   0  0  0  0  0  0  0  0  0  0  0  0
   46.9699    7.7164   13.4727 C   0  0  0  0  0  0  0  0  0  0  0  0
   45.4960    4.3633   12.3610 N   0  0  0  0  0  0  0  0  0  0  0  0
   46.2523    6.6855   12.6093 C   0  0  0  0  0  0  0  0  0  0  0  0
   46.1980    5.2937   13.2315 C   0  0  0  0  0  0  0  0  0  0  0  0
   43.6191    3.2915   11.2914 C   0  0  0  0  0  0  0  0  0  0  0  0
   46.0541    5.6531   12.7320 Ca  0  0  0  0  0 15  0  0  0  0  0  0
   46.9218    8.2535   12.0295 H   0  0  0  0  0  0  0  0  0  0  0  0
   46.8117    8.0964   13.7962 H   0  0  0  0  0  0  0  0  0  0  0  0
   45.6782    3.9463   12.9411 H   0  0  0  0  0  0  0  0  0  0  0  0
   47.3062    5.6144   13.5584 H   0  0  0  0  0  0  0  0  0  0  0  0
   47.3137    5.7976   11.8146 H   0  0  0  0  0  0  0  0  0  0  0  0
   44.9227    6.3957   13.6458 H   0  0  0  0  0  0  0  0  0  0  0  0
   44.9200    6.5769   11.8842 H   0  0  0  0  0  0  0  0  0  0  0  0
   43.0646    2.4455   13.3418 H   0  0  0  0  0  0  0  0  0  0  0  0
   42.8637    2.4600   11.5649 H   0  0  0  0  0  0  0  0  0  0  0  0
   44.4686    2.2102   12.2709 H   0  0  0  0  0  0  0  0  0  0  0  0
   46.5016    7.8105   14.4579 H   0  0  0  0  0  0  0  0  0  0  0  0
   46.9110    8.6921   12.9770 H   0  0  0  0  0  0  0  0  0  0  0  0
   46.0545    3.9128   11.6489 H   0  0  0  0  0  0  0  0  0  0  0  0
   45.2294    7.0408   12.4313 H   0  0  0  0  0  0  0  0  0  0  0  0
   46.7245    6.6251   11.6210 H   0  0  0  0  0  0  0  0  0  0  0  0
   47.1948    4.8690   13.3661 H   0  0  0  0  0  0  0  0  0  0  0  0
   45.6908    5.3237   14.2018 H   0  0  0  0  0  0  0  0  0  0  0  0
   43.2119    3.8509   10.4452 H   0  0  0  0  0  0  0  0  0  0  0  0
   42.8349    2.6731   11.7370 H   0  0  0  0  0  0  0  0  0  0  0  0
   44.4123    2.6293   10.9330 H   0  0  0  0  0  0  0  0  0  0  0  0
  2  1  1  0
  3  1  2  0
  4  1  2  0
  5  8  1  0
  6  5  2  0
  7  1  1  0
  8 10  1  0
  9  7  1  0
 10  9  1  0
 11  5  1  0
 13 12  1  0
 14 12  2  0
 15 12  2  0
 16 19  1  0
 17 16  2  0
 18 12  1  0
 19 21  1  0
 20 18  1  0
 21 20  1  0
 22 16  1  0
  7 24  1  0
  7 25  1  0
  8 26  1  0
  9 27  1  0
  9 28  1  0
 10 29  1  0
 10 30  1  0
 11 31  1  0
 11 32  1  0
 11 33  1  0
 18 34  1  0
 18 35  1  0
 19 36  1  0
 20 37  1  0
 20 38  1  0
 21 39  1  0
 21 40  1  0
 22 41  1  0
 22 42  1  0
 22 43  1  0
M  CHG  3   2  -1  13  -1  23   2
M  END
> <Uni-Dock RESULT> 
ENERGY=   -4.433  LOWER_BOUND=    4.346  UPPER_BOUND=    6.092
INTER + INTRA:          -4.433
INTER:                  -4.433
INTRA:                   0.000
UNBOUND:                 0.000

$$$$
