
     RDKit          3D

 43 40  0  0  0  0  0  0  0  0999 V2000
   44.1371    5.2615   11.0828 S   0  0  0  0  0  0  0  0  0  0  0  0
   44.0072    3.8117   10.9694 O   0  0  0  0  0  0  0  0  0  0  0  0
   42.9611    6.0226   10.6696 O   0  0  0  0  0  0  0  0  0  0  0  0
   45.4097    5.8094   10.6060 O   0  0  0  0  0  0  0  0  0  0  0  0
   47.6945    6.5451   13.4754 C   0  0  0  0  0  0  0  0  0  0  0  0
   47.8872    6.3439   14.6718 O   0  0  0  0  0  0  0  0  0  0  0  0
   44.1981    5.5418   12.8374 C   0  0  0  0  0  0  0  0  0  0  0  0
   47.1370    5.6337   12.6198 N   0  0  0  0  0  0  0  0  0  0  0  0
   45.1151    4.6017   13.6199 C   0  0  0  0  0  0  0  0  0  0  0  0
   46.5229    4.4028   13.0591 C   0  0  0  0  0  0  0  0  0  0  0  0
   48.1064    7.8280   12.8056 C   0  0  0  0  0  0  0  0  0  0  0  0
   49.0231    7.7915   13.3936 S   0  0  0  0  0  0  0  0  0  0  0  0
   49.1835    9.1941   13.7709 O   0  0  0  0  0  0  0  0  0  0  0  0
   49.4238    6.8284   14.4172 O   0  0  0  0  0  0  0  0  0  0  0  0
   49.4511    7.4674   12.0342 O   0  0  0  0  0  0  0  0  0  0  0  0
   43.6440    4.3187   12.3941 C   0  0  0  0  0  0  0  0  0  0  0  0
   42.7034    5.0207   12.7520 O   0  0  0  0  0  0  0  0  0  0  0  0
   47.2563    7.6008   13.3214 C   0  0  0  0  0  0  0  0  0  0  0  0
   44.9588    4.7145   12.4270 N   0  0  0  0  0  0  0  0  0  0  0  0
   46.8489    6.1872   12.9293 C   0  0  0  0  0  0  0  0  0  0  0  0
   45.3389    6.0597   12.8149 C   0  0  0  0  0  0  0  0  0  0  0  0
   43.4389    2.9128   11.8957 C   0  0  0  0  0  0  0  0  0  0  0  0
   45.9345    5.7427   12.7993 Ca  0  0  0  0  0 15  0  0  0  0  0  0
   44.4874    6.5880   12.9866 H   0  0  0  0  0  0  0  0  0  0  0  0
   43.1751    5.4288   13.2144 H   0  0  0  0  0  0  0  0  0  0  0  0
   46.8107    5.9455   11.6946 H   0  0  0  0  0  0  0  0  0  0  0  0
   45.1896    4.9912   14.6437 H   0  0  0  0  0  0  0  0  0  0  0  0
   44.6408    3.6159   13.7057 H   0  0  0  0  0  0  0  0  0  0  0  0
   46.5069    3.7251   12.1990 H   0  0  0  0  0  0  0  0  0  0  0  0
   47.1586    3.9435   13.8246 H   0  0  0  0  0  0  0  0  0  0  0  0
   48.0080    8.6537   13.5164 H   0  0  0  0  0  0  0  0  0  0  0  0
   49.1468    7.7465   12.4803 H   0  0  0  0  0  0  0  0  0  0  0  0
   47.4709    8.0467   11.9425 H   0  0  0  0  0  0  0  0  0  0  0  0
   46.8833    8.3295   12.5936 H   0  0  0  0  0  0  0  0  0  0  0  0
   46.8586    7.8621   14.3077 H   0  0  0  0  0  0  0  0  0  0  0  0
   45.6612    4.1429   11.9766 H   0  0  0  0  0  0  0  0  0  0  0  0
   47.3091    5.9146   11.9717 H   0  0  0  0  0  0  0  0  0  0  0  0
   47.2271    5.4662   13.6639 H   0  0  0  0  0  0  0  0  0  0  0  0
   44.9453    6.7453   12.0553 H   0  0  0  0  0  0  0  0  0  0  0  0
   44.8483    6.2965   13.7656 H   0  0  0  0  0  0  0  0  0  0  0  0
   43.1571    2.2740   12.7362 H   0  0  0  0  0  0  0  0  0  0  0  0
   42.6425    2.9115   11.1461 H   0  0  0  0  0  0  0  0  0  0  0  0
   44.3439    2.5087   11.4337 H   0  0  0  0  0  0  0  0  0  0  0  0
  2  1  1  0
  3  1  2  0
  4  1  2  0
  5  8  1  0
  6  5  2  0
  7  1  1  0
  8 10  1  0
  9  7  1  0
 10  9  1  0
 11  5  1  0
 13 12  1  0
 14 12  2  0
 15 12  2  0
 16 19  1  0
 17 16  2  0
 18 12  1  0
 19 21  1  0
 20 18  1  0
 21 20  1  0
 22 16  1  0
  7 24  1  0
  7 25  1  0
  8 26  1  0
  9 27  1  0
  9 28  1  0
 10 29  1  0
 10 30  1  0
 11 31  1  0
 11 32  1  0
 11 33  1  0
 18 34  1  0
 18 35  1  0
 19 36  1  0
 20 37  1  0
 20 38  1  0
 21 39  1  0
 21 40  1  0
 22 41  1  0
 22 42  1  0
 22 43  1  0
M  CHG  3   2  -1  13  -1  23   2
M  END
> <Uni-Dock RESULT> 
ENERGY=   -4.052  LOWER_BOUND=    0.000  UPPER_BOUND=    0.000
INTER + INTRA:          -4.052
INTER:                  -4.052
INTRA:                   0.000
UNBOUND:                 0.000

$$$$

     RDKit          3D

 43 40  0  0  0  0  0  0  0  0999 V2000
   47.2554    8.9068   13.0511 S   0  0  0  0  0  0  0  0  0  0  0  0
   48.2033    8.9575   14.1604 O   0  0  0  0  0  0  0  0  0  0  0  0
   47.3699    9.9992   12.0884 O   0  0  0  0  0  0  0  0  0  0  0  0
   45.8786    8.5740   13.4264 O   0  0  0  0  0  0  0  0  0  0  0  0
   45.1387    4.9794   12.7005 C   0  0  0  0  0  0  0  0  0  0  0  0
   45.6455    3.8923   12.4353 O   0  0  0  0  0  0  0  0  0  0  0  0
   47.7817    7.4910   12.1132 C   0  0  0  0  0  0  0  0  0  0  0  0
   45.7134    5.9215   13.5103 N   0  0  0  0  0  0  0  0  0  0  0  0
   48.1049    6.2434   12.9353 C   0  0  0  0  0  0  0  0  0  0  0  0
   47.0737    5.8368   13.9876 C   0  0  0  0  0  0  0  0  0  0  0  0
   43.7803    5.3730   12.1869 C   0  0  0  0  0  0  0  0  0  0  0  0
   43.4536    4.3541   12.3929 S   0  0  0  0  0  0  0  0  0  0  0  0
   42.6270    4.0705   11.2217 O   0  0  0  0  0  0  0  0  0  0  0  0
   44.2304    3.2195   12.8882 O   0  0  0  0  0  0  0  0  0  0  0  0
   42.8028    5.1592   13.4247 O   0  0  0  0  0  0  0  0  0  0  0  0
   48.7245    8.0765   12.9895 C   0  0  0  0  0  0  0  0  0  0  0  0
   49.0487    8.4076   11.8534 O   0  0  0  0  0  0  0  0  0  0  0  0
   44.6962    5.4489   11.7445 C   0  0  0  0  0  0  0  0  0  0  0  0
   47.6314    7.2989   13.2845 N   0  0  0  0  0  0  0  0  0  0  0  0
   45.6846    5.8906   12.8150 C   0  0  0  0  0  0  0  0  0  0  0  0
   46.7021    6.8713   12.2560 C   0  0  0  0  0  0  0  0  0  0  0  0
   49.5310    8.4832   14.1942 C   0  0  0  0  0  0  0  0  0  0  0  0
   46.5058    6.5033   12.7865 Ca  0  0  0  0  0 15  0  0  0  0  0  0
   46.9985    7.2842   11.3754 H   0  0  0  0  0  0  0  0  0  0  0  0
   48.6799    7.7901   11.5609 H   0  0  0  0  0  0  0  0  0  0  0  0
   45.3391    6.8804   13.5116 H   0  0  0  0  0  0  0  0  0  0  0  0
   48.2446    5.4124   12.2315 H   0  0  0  0  0  0  0  0  0  0  0  0
   49.0703    6.3777   13.4393 H   0  0  0  0  0  0  0  0  0  0  0  0
   47.1461    6.4788   14.8717 H   0  0  0  0  0  0  0  0  0  0  0  0
   47.2713    4.8092   14.3132 H   0  0  0  0  0  0  0  0  0  0  0  0
   43.6263    4.9305   11.1984 H   0  0  0  0  0  0  0  0  0  0  0  0
   43.0148    5.0065   12.8758 H   0  0  0  0  0  0  0  0  0  0  0  0
   43.6926    6.4590   12.0891 H   0  0  0  0  0  0  0  0  0  0  0  0
   44.1738    6.3117   11.3172 H   0  0  0  0  0  0  0  0  0  0  0  0
   45.2089    4.9189   10.9349 H   0  0  0  0  0  0  0  0  0  0  0  0
   47.3416    7.1942   14.2478 H   0  0  0  0  0  0  0  0  0  0  0  0
   45.1504    6.3596   13.6503 H   0  0  0  0  0  0  0  0  0  0  0  0
   46.2016    5.0199   13.2360 H   0  0  0  0  0  0  0  0  0  0  0  0
   46.2068    7.7682   11.8659 H   0  0  0  0  0  0  0  0  0  0  0  0
   47.2756    6.4230   11.4370 H   0  0  0  0  0  0  0  0  0  0  0  0
   50.4720    7.9277   14.1974 H   0  0  0  0  0  0  0  0  0  0  0  0
   49.7346    9.5566   14.1427 H   0  0  0  0  0  0  0  0  0  0  0  0
   48.9988    8.2805   15.1276 H   0  0  0  0  0  0  0  0  0  0  0  0
  2  1  1  0
  3  1  2  0
  4  1  2  0
  5  8  1  0
  6  5  2  0
  7  1  1  0
  8 10  1  0
  9  7  1  0
 10  9  1  0
 11  5  1  0
 13 12  1  0
 14 12  2  0
 15 12  2  0
 16 19  1  0
 17 16  2  0
 18 12  1  0
 19 21  1  0
 20 18  1  0
 21 20  1  0
 22 16  1  0
  7 24  1  0
  7 25  1  0
  8 26  1  0
  9 27  1  0
  9 28  1  0
 10 29  1  0
 10 30  1  0
 11 31  1  0
 11 32  1  0
 11 33  1  0
 18 34  1  0
 18 35  1  0
 19 36  1  0
 20 37  1  0
 20 38  1  0
 21 39  1  0
 21 40  1  0
 22 41  1  0
 22 42  1  0
 22 43  1  0
M  CHG  3   2  -1  13  -1  23   2
M  END
> <Uni-Dock RESULT> 
ENERGY=   -3.996  LOWER_BOUND=    1.604  UPPER_BOUND=    5.248
INTER + INTRA:          -3.996
INTER:                  -3.996
INTRA:                   0.000
UNBOUND:                 0.000

$$$$

     RDKit          3D

 43 40  0  0  0  0  0  0  0  0999 V2000
   48.6006    3.2497   18.1216 S   0  0  0  0  0  0  0  0  0  0  0  0
   47.5683    3.2592   17.0891 O   0  0  0  0  0  0  0  0  0  0  0  0
   49.8169    2.5197   17.7743 O   0  0  0  0  0  0  0  0  0  0  0  0
   48.1150    3.0023   19.4818 O   0  0  0  0  0  0  0  0  0  0  0  0
   47.8608    6.2034   21.4012 C   0  0  0  0  0  0  0  0  0  0  0  0
   47.8474    7.4275   21.2989 O   0  0  0  0  0  0  0  0  0  0  0  0
   49.1515    4.9390   18.1804 C   0  0  0  0  0  0  0  0  0  0  0  0
   47.3396    5.3457   20.4705 N   0  0  0  0  0  0  0  0  0  0  0  0
   48.0421    5.9908   18.1805 C   0  0  0  0  0  0  0  0  0  0  0  0
   46.8931    5.7666   19.1632 C   0  0  0  0  0  0  0  0  0  0  0  0
   48.4227    5.5100   22.6127 C   0  0  0  0  0  0  0  0  0  0  0  0
   47.9500    6.2808   23.2209 S   0  0  0  0  0  0  0  0  0  0  0  0
   48.9846    6.5390   24.2201 O   0  0  0  0  0  0  0  0  0  0  0  0
   47.1975    7.4589   22.7946 O   0  0  0  0  0  0  0  0  0  0  0  0
   47.1463    5.0842   23.4629 O   0  0  0  0  0  0  0  0  0  0  0  0
   48.4831    4.5144   17.0089 C   0  0  0  0  0  0  0  0  0  0  0  0
   49.6745    4.5900   16.7252 O   0  0  0  0  0  0  0  0  0  0  0  0
   48.8938    5.8528   21.7755 C   0  0  0  0  0  0  0  0  0  0  0  0
   47.9670    4.7868   18.2522 N   0  0  0  0  0  0  0  0  0  0  0  0
   48.0018    5.5286   20.5851 C   0  0  0  0  0  0  0  0  0  0  0  0
   48.8237    5.1081   19.3779 C   0  0  0  0  0  0  0  0  0  0  0  0
   47.4477    4.1293   15.9858 C   0  0  0  0  0  0  0  0  0  0  0  0
   48.2106    5.2523   19.6203 Ca  0  0  0  0  0 15  0  0  0  0  0  0
   49.7889    5.0393   19.0660 H   0  0  0  0  0  0  0  0  0  0  0  0
   49.7864    5.0984   17.3012 H   0  0  0  0  0  0  0  0  0  0  0  0
   47.5778    4.3454   20.5182 H   0  0  0  0  0  0  0  0  0  0  0  0
   48.5089    6.9618   18.3915 H   0  0  0  0  0  0  0  0  0  0  0  0
   47.6162    6.0731   17.1726 H   0  0  0  0  0  0  0  0  0  0  0  0
   46.2087    4.9964   18.7924 H   0  0  0  0  0  0  0  0  0  0  0  0
   46.3167    6.6928   19.2673 H   0  0  0  0  0  0  0  0  0  0  0  0
   49.2575    6.0956   23.0086 H   0  0  0  0  0  0  0  0  0  0  0  0
   47.6419    5.4243   23.3730 H   0  0  0  0  0  0  0  0  0  0  0  0
   48.7973    4.5135   22.3613 H   0  0  0  0  0  0  0  0  0  0  0  0
   49.5168    4.9919   22.0411 H   0  0  0  0  0  0  0  0  0  0  0  0
   49.5510    6.6996   21.5515 H   0  0  0  0  0  0  0  0  0  0  0  0
   47.0022    4.5572   18.4508 H   0  0  0  0  0  0  0  0  0  0  0  0
   47.3034    4.7242   20.8458 H   0  0  0  0  0  0  0  0  0  0  0  0
   47.3827    6.3965   20.3277 H   0  0  0  0  0  0  0  0  0  0  0  0
   49.4204    4.2163   19.6029 H   0  0  0  0  0  0  0  0  0  0  0  0
   49.5128    5.9030   19.0716 H   0  0  0  0  0  0  0  0  0  0  0  0
   47.3252    4.9508   15.2758 H   0  0  0  0  0  0  0  0  0  0  0  0
   47.7821    3.2310   15.4589 H   0  0  0  0  0  0  0  0  0  0  0  0
   46.4798    3.9148   16.4471 H   0  0  0  0  0  0  0  0  0  0  0  0
  2  1  1  0
  3  1  2  0
  4  1  2  0
  5  8  1  0
  6  5  2  0
  7  1  1  0
  8 10  1  0
  9  7  1  0
 10  9  1  0
 11  5  1  0
 13 12  1  0
 14 12  2  0
 15 12  2  0
 16 19  1  0
 17 16  2  0
 18 12  1  0
 19 21  1  0
 20 18  1  0
 21 20  1  0
 22 16  1  0
  7 24  1  0
  7 25  1  0
  8 26  1  0
  9 27  1  0
  9 28  1  0
 10 29  1  0
 10 30  1  0
 11 31  1  0
 11 32  1  0
 11 33  1  0
 18 34  1  0
 18 35  1  0
 19 36  1  0
 20 37  1  0
 20 38  1  0
 21 39  1  0
 21 40  1  0
 22 41  1  0
 22 42  1  0
 22 43  1  0
M  CHG  3   2  -1  13  -1  23   2
M  END
> <Uni-Dock RESULT> 
ENERGY=   -3.260  LOWER_BOUND=    6.856  UPPER_BOUND=    8.311
INTER + INTRA:          -3.260
INTER:                  -3.260
INTRA:                   0.000
UNBOUND:                 0.000

$$$$

     RDKit          3D

 43 40  0  0  0  0  0  0  0  0999 V2000
   48.4857    7.3189   14.7716 S   0  0  0  0  0  0  0  0  0  0  0  0
   49.8106    7.3481   14.1588 O   0  0  0  0  0  0  0  0  0  0  0  0
   48.4058    7.9150   16.1025 O   0  0  0  0  0  0  0  0  0  0  0  0
   47.7663    6.0499   14.6336 O   0  0  0  0  0  0  0  0  0  0  0  0
   45.2223    6.2584   11.8987 C   0  0  0  0  0  0  0  0  0  0  0  0
   44.8571    6.9142   10.9263 O   0  0  0  0  0  0  0  0  0  0  0  0
   47.5363    8.4426   13.7730 C   0  0  0  0  0  0  0  0  0  0  0  0
   46.5279    6.1078   12.2815 N   0  0  0  0  0  0  0  0  0  0  0  0
   47.7130    8.2869   12.2626 C   0  0  0  0  0  0  0  0  0  0  0  0
   47.6165    6.8652   11.7099 C   0  0  0  0  0  0  0  0  0  0  0  0
   44.2500    5.4975   12.7588 C   0  0  0  0  0  0  0  0  0  0  0  0
   43.7332    5.2072   11.8443 S   0  0  0  0  0  0  0  0  0  0  0  0
   42.3343    5.3316   12.2479 O   0  0  0  0  0  0  0  0  0  0  0  0
   44.0133    5.5971   10.4639 O   0  0  0  0  0  0  0  0  0  0  0  0
   44.3957    3.9832   12.2907 O   0  0  0  0  0  0  0  0  0  0  0  0
   48.9442    8.5664   13.7299 C   0  0  0  0  0  0  0  0  0  0  0  0
   48.5305    9.5019   14.4075 O   0  0  0  0  0  0  0  0  0  0  0  0
   44.5346    6.4762   12.7987 C   0  0  0  0  0  0  0  0  0  0  0  0
   48.1397    7.6068   13.1658 N   0  0  0  0  0  0  0  0  0  0  0  0
   46.0341    6.5258   12.5397 C   0  0  0  0  0  0  0  0  0  0  0  0
   46.7096    7.5750   13.4071 C   0  0  0  0  0  0  0  0  0  0  0  0
   50.4090    8.3945   13.4267 C   0  0  0  0  0  0  0  0  0  0  0  0
   46.7800    7.1227   12.9112 Ca  0  0  0  0  0 15  0  0  0  0  0  0
   46.4861    8.3208   14.0610 H   0  0  0  0  0  0  0  0  0  0  0  0
   47.8380    9.4567   14.0592 H   0  0  0  0  0  0  0  0  0  0  0  0
   46.7384    5.7319   13.2163 H   0  0  0  0  0  0  0  0  0  0  0  0
   46.9531    8.9123   11.7760 H   0  0  0  0  0  0  0  0  0  0  0  0
   48.6833    8.7030   11.9632 H   0  0  0  0  0  0  0  0  0  0  0  0
   48.5374    6.3071   11.9087 H   0  0  0  0  0  0  0  0  0  0  0  0
   47.4873    6.9051   10.6223 H   0  0  0  0  0  0  0  0  0  0  0  0
   43.3010    6.0404   12.7972 H   0  0  0  0  0  0  0  0  0  0  0  0
   44.0877    4.5059   12.3281 H   0  0  0  0  0  0  0  0  0  0  0  0
   44.6224    5.3938   13.7820 H   0  0  0  0  0  0  0  0  0  0  0  0
   44.3286    6.2643   13.8534 H   0  0  0  0  0  0  0  0  0  0  0  0
   44.0619    7.4290   12.5383 H   0  0  0  0  0  0  0  0  0  0  0  0
   48.5610    6.7863   12.7508 H   0  0  0  0  0  0  0  0  0  0  0  0
   46.4837    5.5457   12.7403 H   0  0  0  0  0  0  0  0  0  0  0  0
   46.2292    6.7383   11.4816 H   0  0  0  0  0  0  0  0  0  0  0  0
   46.5598    7.3576   14.4712 H   0  0  0  0  0  0  0  0  0  0  0  0
   46.3037    8.5734   13.2094 H   0  0  0  0  0  0  0  0  0  0  0  0
   50.7205    9.1688   12.7214 H   0  0  0  0  0  0  0  0  0  0  0  0
   50.9799    8.4876   14.3550 H   0  0  0  0  0  0  0  0  0  0  0  0
   50.6222    7.4144   12.9910 H   0  0  0  0  0  0  0  0  0  0  0  0
  2  1  1  0
  3  1  2  0
  4  1  2  0
  5  8  1  0
  6  5  2  0
  7  1  1  0
  8 10  1  0
  9  7  1  0
 10  9  1  0
 11  5  1  0
 13 12  1  0
 14 12  2  0
 15 12  2  0
 16 19  1  0
 17 16  2  0
 18 12  1  0
 19 21  1  0
 20 18  1  0
 21 20  1  0
 22 16  1  0
  7 24  1  0
  7 25  1  0
  8 26  1  0
  9 27  1  0
  9 28  1  0
 10 29  1  0
 10 30  1  0
 11 31  1  0
 11 32  1  0
 11 33  1  0
 18 34  1  0
 18 35  1  0
 19 36  1  0
 20 37  1  0
 20 38  1  0
 21 39  1  0
 21 40  1  0
 22 41  1  0
 22 42  1  0
 22 43  1  0
M  CHG  3   2  -1  13  -1  23   2
M  END
> <Uni-Dock RESULT> 
ENERGY=   -3.130  LOWER_BOUND=    1.391  UPPER_BOUND=    5.476
INTER + INTRA:          -3.130
INTER:                  -3.130
INTRA:                   0.000
UNBOUND:                 0.000

$$$$

     RDKit          3D

 43 40  0  0  0  0  0  0  0  0999 V2000
   47.6988    5.2889   17.9867 S   0  0  0  0  0  0  0  0  0  0  0  0
   47.6381    5.1212   16.5377 O   0  0  0  0  0  0  0  0  0  0  0  0
   46.4036    5.3258   18.6605 O   0  0  0  0  0  0  0  0  0  0  0  0
   48.6525    6.2981   18.4549 O   0  0  0  0  0  0  0  0  0  0  0  0
   51.7988    4.6837   19.6754 C   0  0  0  0  0  0  0  0  0  0  0  0
   52.4457    3.6394   19.6787 O   0  0  0  0  0  0  0  0  0  0  0  0
   48.4026    3.7593   18.5575 C   0  0  0  0  0  0  0  0  0  0  0  0
   51.0236    5.1076   18.6300 N   0  0  0  0  0  0  0  0  0  0  0  0
   49.6120    3.2590   17.7677 C   0  0  0  0  0  0  0  0  0  0  0  0
   50.7110    4.2832   17.4863 C   0  0  0  0  0  0  0  0  0  0  0  0
   51.8335    5.6475   20.8303 C   0  0  0  0  0  0  0  0  0  0  0  0
   52.9051    5.4616   20.8986 S   0  0  0  0  0  0  0  0  0  0  0  0
   53.0977    5.3940   22.3456 O   0  0  0  0  0  0  0  0  0  0  0  0
   53.7317    4.5389   20.1232 O   0  0  0  0  0  0  0  0  0  0  0  0
   52.8056    6.8142   20.3539 O   0  0  0  0  0  0  0  0  0  0  0  0
   47.8092    3.7620   17.2740 C   0  0  0  0  0  0  0  0  0  0  0  0
   47.0284    3.1796   18.0202 O   0  0  0  0  0  0  0  0  0  0  0  0
   51.2617    4.8150   20.6876 C   0  0  0  0  0  0  0  0  0  0  0  0
   49.0063    4.3008   17.6779 N   0  0  0  0  0  0  0  0  0  0  0  0
   50.8365    4.7990   19.2257 C   0  0  0  0  0  0  0  0  0  0  0  0
   49.4095    4.2996   19.0714 C   0  0  0  0  0  0  0  0  0  0  0  0
   47.5296    3.9221   15.8032 C   0  0  0  0  0  0  0  0  0  0  0  0
   49.9752    4.4959   18.7600 Ca  0  0  0  0  0 15  0  0  0  0  0  0
   48.6523    3.8947   19.6158 H   0  0  0  0  0  0  0  0  0  0  0  0
   47.6105    3.0036   18.5030 H   0  0  0  0  0  0  0  0  0  0  0  0
   50.3488    5.8704   18.7803 H   0  0  0  0  0  0  0  0  0  0  0  0
   50.0426    2.4159   18.3237 H   0  0  0  0  0  0  0  0  0  0  0  0
   49.2768    2.8475   16.8073 H   0  0  0  0  0  0  0  0  0  0  0  0
   50.4170    4.9562   16.6740 H   0  0  0  0  0  0  0  0  0  0  0  0
   51.6207    3.7628   17.1658 H   0  0  0  0  0  0  0  0  0  0  0  0
   51.9548    5.0886   21.7629 H   0  0  0  0  0  0  0  0  0  0  0  0
   52.6750    6.3333   20.7019 H   0  0  0  0  0  0  0  0  0  0  0  0
   50.9039    6.2200   20.8973 H   0  0  0  0  0  0  0  0  0  0  0  0
   50.5897    5.4437   21.2816 H   0  0  0  0  0  0  0  0  0  0  0  0
   51.2516    3.8039   21.1080 H   0  0  0  0  0  0  0  0  0  0  0  0
   49.5230    4.8951   17.0433 H   0  0  0  0  0  0  0  0  0  0  0  0
   50.9160    5.8064   18.7993 H   0  0  0  0  0  0  0  0  0  0  0  0
   51.5155    4.1673   18.6403 H   0  0  0  0  0  0  0  0  0  0  0  0
   48.7094    4.9427   19.6175 H   0  0  0  0  0  0  0  0  0  0  0  0
   49.3020    3.2813   19.4612 H   0  0  0  0  0  0  0  0  0  0  0  0
   47.6344    2.9513   15.3127 H   0  0  0  0  0  0  0  0  0  0  0  0
   46.5102    4.2957   15.6714 H   0  0  0  0  0  0  0  0  0  0  0  0
   48.2170    4.6307   15.3330 H   0  0  0  0  0  0  0  0  0  0  0  0
  2  1  1  0
  3  1  2  0
  4  1  2  0
  5  8  1  0
  6  5  2  0
  7  1  1  0
  8 10  1  0
  9  7  1  0
 10  9  1  0
 11  5  1  0
 13 12  1  0
 14 12  2  0
 15 12  2  0
 16 19  1  0
 17 16  2  0
 18 12  1  0
 19 21  1  0
 20 18  1  0
 21 20  1  0
 22 16  1  0
  7 24  1  0
  7 25  1  0
  8 26  1  0
  9 27  1  0
  9 28  1  0
 10 29  1  0
 10 30  1  0
 11 31  1  0
 11 32  1  0
 11 33  1  0
 18 34  1  0
 18 35  1  0
 19 36  1  0
 20 37  1  0
 20 38  1  0
 21 39  1  0
 21 40  1  0
 22 41  1  0
 22 42  1  0
 22 43  1  0
M  CHG  3   2  -1  13  -1  23   2
M  END
> <Uni-Dock RESULT> 
ENERGY=   -2.985  LOWER_BOUND=    6.396  UPPER_BOUND=    7.703
INTER + INTRA:          -2.985
INTER:                  -2.985
INTRA:                   0.000
UNBOUND:                 0.000

$$$$

     RDKit          3D

 43 40  0  0  0  0  0  0  0  0999 V2000
   47.8679    4.5451   16.3194 S   0  0  0  0  0  0  0  0  0  0  0  0
   48.9684    3.5861   16.2917 O   0  0  0  0  0  0  0  0  0  0  0  0
   46.7000    4.1702   15.5266 O   0  0  0  0  0  0  0  0  0  0  0  0
   48.2650    5.9490   16.1838 O   0  0  0  0  0  0  0  0  0  0  0  0
   48.2935    7.6465   19.5174 C   0  0  0  0  0  0  0  0  0  0  0  0
   48.2786    7.4578   20.7312 O   0  0  0  0  0  0  0  0  0  0  0  0
   47.2658    4.4455   17.9893 C   0  0  0  0  0  0  0  0  0  0  0  0
   48.9024    6.8167   18.6150 N   0  0  0  0  0  0  0  0  0  0  0  0
   48.3418    4.4445   19.0752 C   0  0  0  0  0  0  0  0  0  0  0  0
   49.4260    5.5155   18.9587 C   0  0  0  0  0  0  0  0  0  0  0  0
   47.6693    8.8642   18.8916 C   0  0  0  0  0  0  0  0  0  0  0  0
   48.0763    9.4459   19.7183 S   0  0  0  0  0  0  0  0  0  0  0  0
   46.9680   10.3524   20.0104 O   0  0  0  0  0  0  0  0  0  0  0  0
   48.8223    8.9875   20.8884 O   0  0  0  0  0  0  0  0  0  0  0  0
   48.8955    9.8264   18.5691 O   0  0  0  0  0  0  0  0  0  0  0  0
   48.0256    3.3548   17.5069 C   0  0  0  0  0  0  0  0  0  0  0  0
   46.8551    2.9872   17.5224 O   0  0  0  0  0  0  0  0  0  0  0  0
   47.2475    7.9749   19.1592 C   0  0  0  0  0  0  0  0  0  0  0  0
   48.4464    4.6072   17.8823 N   0  0  0  0  0  0  0  0  0  0  0  0
   48.2288    6.8733   18.7831 C   0  0  0  0  0  0  0  0  0  0  0  0
   47.5049    5.6470   18.2522 C   0  0  0  0  0  0  0  0  0  0  0  0
   49.1401    2.4337   17.0865 C   0  0  0  0  0  0  0  0  0  0  0  0
   48.0953    5.9190   18.4334 Ca  0  0  0  0  0 15  0  0  0  0  0  0
   46.5660    5.2768   18.1295 H   0  0  0  0  0  0  0  0  0  0  0  0
   46.6890    3.5165   18.0657 H   0  0  0  0  0  0  0  0  0  0  0  0
   48.6903    6.9201   17.6130 H   0  0  0  0  0  0  0  0  0  0  0  0
   47.8337    4.5535   20.0423 H   0  0  0  0  0  0  0  0  0  0  0  0
   48.8339    3.4641   19.1014 H   0  0  0  0  0  0  0  0  0  0  0  0
   50.1563    5.2477   18.1880 H   0  0  0  0  0  0  0  0  0  0  0  0
   49.9669    5.5913   19.9088 H   0  0  0  0  0  0  0  0  0  0  0  0
   46.7925    9.1602   19.4749 H   0  0  0  0  0  0  0  0  0  0  0  0
   48.3976    9.6794   18.8853 H   0  0  0  0  0  0  0  0  0  0  0  0
   47.3418    8.6604   17.8680 H   0  0  0  0  0  0  0  0  0  0  0  0
   46.6327    8.2592   18.2984 H   0  0  0  0  0  0  0  0  0  0  0  0
   46.5833    7.6472   19.9658 H   0  0  0  0  0  0  0  0  0  0  0  0
   49.4013    4.8860   17.6997 H   0  0  0  0  0  0  0  0  0  0  0  0
   48.9304    7.2373   18.0227 H   0  0  0  0  0  0  0  0  0  0  0  0
   48.8390    6.5964   19.6513 H   0  0  0  0  0  0  0  0  0  0  0  0
   46.9200    5.8949   17.3587 H   0  0  0  0  0  0  0  0  0  0  0  0
   46.8161    5.2390   19.0003 H   0  0  0  0  0  0  0  0  0  0  0  0
   49.2877    1.6765   17.8603 H   0  0  0  0  0  0  0  0  0  0  0  0
   48.8690    1.9514   16.1430 H   0  0  0  0  0  0  0  0  0  0  0  0
   50.0795    2.9731   16.9373 H   0  0  0  0  0  0  0  0  0  0  0  0
  2  1  1  0
  3  1  2  0
  4  1  2  0
  5  8  1  0
  6  5  2  0
  7  1  1  0
  8 10  1  0
  9  7  1  0
 10  9  1  0
 11  5  1  0
 13 12  1  0
 14 12  2  0
 15 12  2  0
 16 19  1  0
 17 16  2  0
 18 12  1  0
 19 21  1  0
 20 18  1  0
 21 20  1  0
 22 16  1  0
  7 24  1  0
  7 25  1  0
  8 26  1  0
  9 27  1  0
  9 28  1  0
 10 29  1  0
 10 30  1  0
 11 31  1  0
 11 32  1  0
 11 33  1  0
 18 34  1  0
 18 35  1  0
 19 36  1  0
 20 37  1  0
 20 38  1  0
 21 39  1  0
 21 40  1  0
 22 41  1  0
 22 42  1  0
 22 43  1  0
M  CHG  3   2  -1  13  -1  23   2
M  END
> <Uni-Dock RESULT> 
ENERGY=   -2.796  LOWER_BOUND=    5.393  UPPER_BOUND=    6.494
INTER + INTRA:          -2.796
INTER:                  -2.796
INTRA:                   0.000
UNBOUND:                 0.000

$$$$

     RDKit          3D

 43 40  0  0  0  0  0  0  0  0999 V2000
   48.9733    5.1874   21.2073 S   0  0  0  0  0  0  0  0  0  0  0  0
   49.4898    5.4126   22.5542 O   0  0  0  0  0  0  0  0  0  0  0  0
   48.5435    3.8195   20.9297 O   0  0  0  0  0  0  0  0  0  0  0  0
   49.7538    5.8055   20.1322 O   0  0  0  0  0  0  0  0  0  0  0  0
   48.1348    8.9715   18.9701 C   0  0  0  0  0  0  0  0  0  0  0  0
   47.2906    9.8191   19.2495 O   0  0  0  0  0  0  0  0  0  0  0  0
   47.4464    6.0981   21.1853 C   0  0  0  0  0  0  0  0  0  0  0  0
   48.9016    8.3128   19.8930 N   0  0  0  0  0  0  0  0  0  0  0  0
   47.5128    7.5037   21.7825 C   0  0  0  0  0  0  0  0  0  0  0  0
   48.6706    8.3861   21.3166 C   0  0  0  0  0  0  0  0  0  0  0  0
   48.4509    8.5990   17.5469 C   0  0  0  0  0  0  0  0  0  0  0  0
   48.3801    9.6577   17.2985 S   0  0  0  0  0  0  0  0  0  0  0  0
   47.6730    9.6107   16.0206 O   0  0  0  0  0  0  0  0  0  0  0  0
   48.0243   10.7845   18.1585 O   0  0  0  0  0  0  0  0  0  0  0  0
   49.8094    9.3619   17.2218 O   0  0  0  0  0  0  0  0  0  0  0  0
   47.9744    5.7460   22.4490 C   0  0  0  0  0  0  0  0  0  0  0  0
   47.0265    4.9945   22.2431 O   0  0  0  0  0  0  0  0  0  0  0  0
   47.7192    8.2542   18.1683 C   0  0  0  0  0  0  0  0  0  0  0  0
   48.3996    6.7110   21.5690 N   0  0  0  0  0  0  0  0  0  0  0  0
   48.3328    8.0983   19.5529 C   0  0  0  0  0  0  0  0  0  0  0  0
   47.8000    6.8612   20.2566 C   0  0  0  0  0  0  0  0  0  0  0  0
   48.7637    5.6934   23.7301 C   0  0  0  0  0  0  0  0  0  0  0  0
   48.1823    7.4155   20.3024 Ca  0  0  0  0  0 15  0  0  0  0  0  0
   47.1043    6.1283   20.1449 H   0  0  0  0  0  0  0  0  0  0  0  0
   46.7158    5.5098   21.7524 H   0  0  0  0  0  0  0  0  0  0  0  0
   49.4240    7.4733   19.6067 H   0  0  0  0  0  0  0  0  0  0  0  0
   46.5644    8.0055   21.5498 H   0  0  0  0  0  0  0  0  0  0  0  0
   47.5571    7.4344   22.8767 H   0  0  0  0  0  0  0  0  0  0  0  0
   49.6039    8.0962   21.8104 H   0  0  0  0  0  0  0  0  0  0  0  0
   48.4671    9.4280   21.5890 H   0  0  0  0  0  0  0  0  0  0  0  0
   47.5420    8.6777   16.9432 H   0  0  0  0  0  0  0  0  0  0  0  0
   49.2105    9.2812   17.1563 H   0  0  0  0  0  0  0  0  0  0  0  0
   48.8152    7.5700   17.4778 H   0  0  0  0  0  0  0  0  0  0  0  0
   47.9186    7.3706   17.5524 H   0  0  0  0  0  0  0  0  0  0  0  0
   46.6349    8.3919   18.2352 H   0  0  0  0  0  0  0  0  0  0  0  0
   49.2756    7.1871   21.7389 H   0  0  0  0  0  0  0  0  0  0  0  0
   49.4246    8.0291   19.4754 H   0  0  0  0  0  0  0  0  0  0  0  0
   48.1275    8.9877   20.1608 H   0  0  0  0  0  0  0  0  0  0  0  0
   48.0310    5.9557   19.6833 H   0  0  0  0  0  0  0  0  0  0  0  0
   46.7122    6.9120   20.3776 H   0  0  0  0  0  0  0  0  0  0  0  0
   48.1500    6.0882   24.5435 H   0  0  0  0  0  0  0  0  0  0  0  0
   49.0349    4.6550   23.9409 H   0  0  0  0  0  0  0  0  0  0  0  0
   49.6838    6.2808   23.6657 H   0  0  0  0  0  0  0  0  0  0  0  0
  2  1  1  0
  3  1  2  0
  4  1  2  0
  5  8  1  0
  6  5  2  0
  7  1  1  0
  8 10  1  0
  9  7  1  0
 10  9  1  0
 11  5  1  0
 13 12  1  0
 14 12  2  0
 15 12  2  0
 16 19  1  0
 17 16  2  0
 18 12  1  0
 19 21  1  0
 20 18  1  0
 21 20  1  0
 22 16  1  0
  7 24  1  0
  7 25  1  0
  8 26  1  0
  9 27  1  0
  9 28  1  0
 10 29  1  0
 10 30  1  0
 11 31  1  0
 11 32  1  0
 11 33  1  0
 18 34  1  0
 18 35  1  0
 19 36  1  0
 20 37  1  0
 20 38  1  0
 21 39  1  0
 21 40  1  0
 22 41  1  0
 22 42  1  0
 22 43  1  0
M  CHG  3   2  -1  13  -1  23   2
M  END
> <Uni-Dock RESULT> 
ENERGY=   -2.775  LOWER_BOUND=    7.000  UPPER_BOUND=    8.710
INTER + INTRA:          -2.775
INTER:                  -2.775
INTRA:                   0.000
UNBOUND:                 0.000

$$$$

     RDKit          3D

 43 40  0  0  0  0  0  0  0  0999 V2000
   50.9456    6.9165   20.6067 S   0  0  0  0  0  0  0  0  0  0  0  0
   50.2053    7.7239   21.5719 O   0  0  0  0  0  0  0  0  0  0  0  0
   52.3985    7.0481   20.6745 O   0  0  0  0  0  0  0  0  0  0  0  0
   50.4012    6.9221   19.2463 O   0  0  0  0  0  0  0  0  0  0  0  0
   48.4339    3.8079   18.5929 C   0  0  0  0  0  0  0  0  0  0  0  0
   47.8950    2.8405   19.1246 O   0  0  0  0  0  0  0  0  0  0  0  0
   50.6695    5.2480   21.1553 C   0  0  0  0  0  0  0  0  0  0  0  0
   48.5119    5.0533   19.1554 N   0  0  0  0  0  0  0  0  0  0  0  0
   49.2256    4.9106   21.5268 C   0  0  0  0  0  0  0  0  0  0  0  0
   48.1501    5.3310   20.5256 C   0  0  0  0  0  0  0  0  0  0  0  0
   49.0344    3.7295   17.2154 C   0  0  0  0  0  0  0  0  0  0  0  0
   48.1742    3.1290   16.9205 S   0  0  0  0  0  0  0  0  0  0  0  0
   48.8032    2.1109   16.0818 O   0  0  0  0  0  0  0  0  0  0  0  0
   47.0594    2.6525   17.7365 O   0  0  0  0  0  0  0  0  0  0  0  0
   47.9585    4.4179   16.2657 O   0  0  0  0  0  0  0  0  0  0  0  0
   50.4657    6.2832   22.0967 C   0  0  0  0  0  0  0  0  0  0  0  0
   51.5279    5.7447   22.3921 O   0  0  0  0  0  0  0  0  0  0  0  0
   49.4364    3.4876   18.1211 C   0  0  0  0  0  0  0  0  0  0  0  0
   49.6828    5.9131   21.0306 N   0  0  0  0  0  0  0  0  0  0  0  0
   48.9943    4.5524   19.1154 C   0  0  0  0  0  0  0  0  0  0  0  0
   50.1060    4.8878   20.0958 C   0  0  0  0  0  0  0  0  0  0  0  0
   49.8965    7.4136   22.9125 C   0  0  0  0  0  0  0  0  0  0  0  0
   49.4619    4.9841   19.9189 Ca  0  0  0  0  0 15  0  0  0  0  0  0
   51.0381    4.5841   20.3654 H   0  0  0  0  0  0  0  0  0  0  0  0
   51.3041    5.0924   22.0353 H   0  0  0  0  0  0  0  0  0  0  0  0
   49.1583    5.7472   18.7550 H   0  0  0  0  0  0  0  0  0  0  0  0
   49.1695    3.8244   21.6771 H   0  0  0  0  0  0  0  0  0  0  0  0
   48.9825    5.3625   22.4968 H   0  0  0  0  0  0  0  0  0  0  0  0
   47.9521    6.4057   20.5957 H   0  0  0  0  0  0  0  0  0  0  0  0
   47.2137    4.8108   20.7568 H   0  0  0  0  0  0  0  0  0  0  0  0
   49.4427    2.7271   17.0565 H   0  0  0  0  0  0  0  0  0  0  0  0
   48.2585    3.9312   16.4723 H   0  0  0  0  0  0  0  0  0  0  0  0
   49.8491    4.4496   17.0963 H   0  0  0  0  0  0  0  0  0  0  0  0
   50.3231    3.8156   17.5679 H   0  0  0  0  0  0  0  0  0  0  0  0
   49.6757    2.5501   18.6340 H   0  0  0  0  0  0  0  0  0  0  0  0
   48.9027    6.4974   20.7605 H   0  0  0  0  0  0  0  0  0  0  0  0
   48.6937    5.4631   18.5831 H   0  0  0  0  0  0  0  0  0  0  0  0
   48.1065    4.2142   19.6633 H   0  0  0  0  0  0  0  0  0  0  0  0
   50.9900    5.2665   19.5694 H   0  0  0  0  0  0  0  0  0  0  0  0
   50.4102    4.0037   20.6671 H   0  0  0  0  0  0  0  0  0  0  0  0
   49.5420    7.0201   23.8683 H   0  0  0  0  0  0  0  0  0  0  0  0
   50.6781    8.1588   23.0856 H   0  0  0  0  0  0  0  0  0  0  0  0
   49.0631    7.9042   22.4023 H   0  0  0  0  0  0  0  0  0  0  0  0
  2  1  1  0
  3  1  2  0
  4  1  2  0
  5  8  1  0
  6  5  2  0
  7  1  1  0
  8 10  1  0
  9  7  1  0
 10  9  1  0
 11  5  1  0
 13 12  1  0
 14 12  2  0
 15 12  2  0
 16 19  1  0
 17 16  2  0
 18 12  1  0
 19 21  1  0
 20 18  1  0
 21 20  1  0
 22 16  1  0
  7 24  1  0
  7 25  1  0
  8 26  1  0
  9 27  1  0
  9 28  1  0
 10 29  1  0
 10 30  1  0
 11 31  1  0
 11 32  1  0
 11 33  1  0
 18 34  1  0
 18 35  1  0
 19 36  1  0
 20 37  1  0
 20 38  1  0
 21 39  1  0
 21 40  1  0
 22 41  1  0
 22 42  1  0
 22 43  1  0
M  CHG  3   2  -1  13  -1  23   2
M  END
> <Uni-Dock RESULT> 
ENERGY=   -2.752  LOWER_BOUND=    6.927  UPPER_BOUND=    9.272
INTER + INTRA:          -2.752
INTER:                  -2.752
INTRA:                   0.000
UNBOUND:                 0.000

$$$$

     RDKit          3D

 43 40  0  0  0  0  0  0  0  0999 V2000
   48.1559   11.1974   21.1570 S   0  0  0  0  0  0  0  0  0  0  0  0
   48.7302   11.5951   19.8750 O   0  0  0  0  0  0  0  0  0  0  0  0
   47.5311   12.2768   21.9169 O   0  0  0  0  0  0  0  0  0  0  0  0
   48.9906   10.2987   21.9586 O   0  0  0  0  0  0  0  0  0  0  0  0
   47.8080    6.7630   21.6495 C   0  0  0  0  0  0  0  0  0  0  0  0
   47.0986    6.0040   20.9940 O   0  0  0  0  0  0  0  0  0  0  0  0
   46.7727   10.1783   20.6996 C   0  0  0  0  0  0  0  0  0  0  0  0
   48.4954    7.8234   21.1234 N   0  0  0  0  0  0  0  0  0  0  0  0
   47.0507    9.1491   19.6040 C   0  0  0  0  0  0  0  0  0  0  0  0
   48.3102    8.2999   19.7729 C   0  0  0  0  0  0  0  0  0  0  0  0
   48.0352    6.5686   23.1241 C   0  0  0  0  0  0  0  0  0  0  0  0
   48.1088    5.4990   22.9289 S   0  0  0  0  0  0  0  0  0  0  0  0
   47.3726    4.9444   24.0629 O   0  0  0  0  0  0  0  0  0  0  0  0
   47.9356    4.7778   21.6696 O   0  0  0  0  0  0  0  0  0  0  0  0
   49.4799    5.9085   23.2269 O   0  0  0  0  0  0  0  0  0  0  0  0
   47.2750   11.0681   19.7221 C   0  0  0  0  0  0  0  0  0  0  0  0
   46.2260   11.5543   20.1332 O   0  0  0  0  0  0  0  0  0  0  0  0
   47.2768    7.0431   22.6341 C   0  0  0  0  0  0  0  0  0  0  0  0
   47.8115    9.8899   20.1808 N   0  0  0  0  0  0  0  0  0  0  0  0
   47.8943    7.8135   21.4752 C   0  0  0  0  0  0  0  0  0  0  0  0
   47.2088    9.1553   21.2769 C   0  0  0  0  0  0  0  0  0  0  0  0
   48.0786   11.7244   18.6309 C   0  0  0  0  0  0  0  0  0  0  0  0
   47.6664    8.7161   21.0463 Ca  0  0  0  0  0 15  0  0  0  0  0  0
   46.4142    9.6926   21.6140 H   0  0  0  0  0  0  0  0  0  0  0  0
   45.9798   10.8522   20.3553 H   0  0  0  0  0  0  0  0  0  0  0  0
   48.8873    8.5337   21.7571 H   0  0  0  0  0  0  0  0  0  0  0  0
   46.1774    8.4862   19.5457 H   0  0  0  0  0  0  0  0  0  0  0  0
   47.1102    9.6561   18.6327 H   0  0  0  0  0  0  0  0  0  0  0  0
   49.2046    8.8733   19.5074 H   0  0  0  0  0  0  0  0  0  0  0  0
   48.2622    7.4386   19.0970 H   0  0  0  0  0  0  0  0  0  0  0  0
   47.1327    6.1459   23.5754 H   0  0  0  0  0  0  0  0  0  0  0  0
   48.8742    5.8836   23.2720 H   0  0  0  0  0  0  0  0  0  0  0  0
   48.2489    7.5192   23.6213 H   0  0  0  0  0  0  0  0  0  0  0  0
   47.3352    7.6225   23.5618 H   0  0  0  0  0  0  0  0  0  0  0  0
   46.2246    6.8147   22.4343 H   0  0  0  0  0  0  0  0  0  0  0  0
   48.7496    9.6308   19.9056 H   0  0  0  0  0  0  0  0  0  0  0  0
   48.9634    7.9764   21.6583 H   0  0  0  0  0  0  0  0  0  0  0  0
   47.8308    7.2249   20.5520 H   0  0  0  0  0  0  0  0  0  0  0  0
   47.2963    9.7755   22.1767 H   0  0  0  0  0  0  0  0  0  0  0  0
   46.1421    9.0270   21.0615 H   0  0  0  0  0  0  0  0  0  0  0  0
   47.5458   11.6183   17.6828 H   0  0  0  0  0  0  0  0  0  0  0  0
   48.2053   12.7845   18.8682 H   0  0  0  0  0  0  0  0  0  0  0  0
   49.0706   11.2756   18.5300 H   0  0  0  0  0  0  0  0  0  0  0  0
  2  1  1  0
  3  1  2  0
  4  1  2  0
  5  8  1  0
  6  5  2  0
  7  1  1  0
  8 10  1  0
  9  7  1  0
 10  9  1  0
 11  5  1  0
 13 12  1  0
 14 12  2  0
 15 12  2  0
 16 19  1  0
 17 16  2  0
 18 12  1  0
 19 21  1  0
 20 18  1  0
 21 20  1  0
 22 16  1  0
  7 24  1  0
  7 25  1  0
  8 26  1  0
  9 27  1  0
  9 28  1  0
 10 29  1  0
 10 30  1  0
 11 31  1  0
 11 32  1  0
 11 33  1  0
 18 34  1  0
 18 35  1  0
 19 36  1  0
 20 37  1  0
 20 38  1  0
 21 39  1  0
 21 40  1  0
 22 41  1  0
 22 42  1  0
 22 43  1  0
M  CHG  3   2  -1  13  -1  23   2
M  END
> <Uni-Dock RESULT> 
ENERGY=   -2.713  LOWER_BOUND=    8.749  UPPER_BOUND=   10.157
INTER + INTRA:          -2.713
INTER:                  -2.713
INTRA:                   0.000
UNBOUND:                 0.000

$$$$
