
     RDKit          3D

 43 40  0  0  0  0  0  0  0  0999 V2000
   47.5888    2.2801    6.3856 S   0  0  0  0  0  0  0  0  0  0  0  0
   47.5678    1.0634    7.1939 O   0  0  0  0  0  0  0  0  0  0  0  0
   47.7021    2.0542    4.9467 O   0  0  0  0  0  0  0  0  0  0  0  0
   48.4342    3.3514    6.9078 O   0  0  0  0  0  0  0  0  0  0  0  0
   44.1701    3.5531   10.7805 C   0  0  0  0  0  0  0  0  0  0  0  0
   43.1474    3.1945   10.2056 O   0  0  0  0  0  0  0  0  0  0  0  0
   45.9381    2.9234    6.5604 C   0  0  0  0  0  0  0  0  0  0  0  0
   45.4439    3.2990   10.3375 N   0  0  0  0  0  0  0  0  0  0  0  0
   45.6596    3.5785    7.9082 C   0  0  0  0  0  0  0  0  0  0  0  0
   45.7250    2.6118    9.0865 C   0  0  0  0  0  0  0  0  0  0  0  0
   44.1193    4.3471   12.0586 C   0  0  0  0  0  0  0  0  0  0  0  0
   43.6917    3.3820   12.1175 S   0  0  0  0  0  0  0  0  0  0  0  0
   42.9182    4.4808   12.6908 O   0  0  0  0  0  0  0  0  0  0  0  0
   44.9248    3.0599   12.8330 O   0  0  0  0  0  0  0  0  0  0  0  0
   42.9019    2.2285   11.6933 O   0  0  0  0  0  0  0  0  0  0  0  0
   46.9819    3.0614    6.5459 C   0  0  0  0  0  0  0  0  0  0  0  0
   46.7124    4.0844    5.9250 O   0  0  0  0  0  0  0  0  0  0  0  0
   44.2764    4.0682   10.5844 C   0  0  0  0  0  0  0  0  0  0  0  0
   46.5001    2.7664    7.7987 N   0  0  0  0  0  0  0  0  0  0  0  0
   45.1171    3.0745    9.7951 C   0  0  0  0  0  0  0  0  0  0  0  0
   45.6833    3.7112    8.5367 C   0  0  0  0  0  0  0  0  0  0  0  0
   47.9042    2.0119    5.9856 C   0  0  0  0  0  0  0  0  0  0  0  0
   45.6107    3.2300    8.8825 Ca  0  0  0  0  0 15  0  0  0  0  0  0
   45.2381    2.1059    6.3593 H   0  0  0  0  0  0  0  0  0  0  0  0
   45.8142    3.6748    5.7721 H   0  0  0  0  0  0  0  0  0  0  0  0
   46.2325    3.7428   10.7880 H   0  0  0  0  0  0  0  0  0  0  0  0
   46.3576    4.4076    8.0772 H   0  0  0  0  0  0  0  0  0  0  0  0
   44.6608    4.0313    7.8684 H   0  0  0  0  0  0  0  0  0  0  0  0
   46.7229    2.1853    9.2079 H   0  0  0  0  0  0  0  0  0  0  0  0
   45.0039    1.7975    8.9587 H   0  0  0  0  0  0  0  0  0  0  0  0
   45.0869    4.3557   12.5682 H   0  0  0  0  0  0  0  0  0  0  0  0
   43.8276    5.3754   11.8295 H   0  0  0  0  0  0  0  0  0  0  0  0
   43.3845    3.8959   12.7311 H   0  0  0  0  0  0  0  0  0  0  0  0
   44.8594    4.9612   10.8348 H   0  0  0  0  0  0  0  0  0  0  0  0
   43.3979    4.3784   10.0086 H   0  0  0  0  0  0  0  0  0  0  0  0
   46.9442    2.0267    8.3283 H   0  0  0  0  0  0  0  0  0  0  0  0
   45.9407    2.6993   10.4150 H   0  0  0  0  0  0  0  0  0  0  0  0
   44.5142    2.1982    9.5270 H   0  0  0  0  0  0  0  0  0  0  0  0
   46.3177    4.5698    8.7845 H   0  0  0  0  0  0  0  0  0  0  0  0
   44.8822    4.0658    7.8783 H   0  0  0  0  0  0  0  0  0  0  0  0
   48.9356    2.3668    6.0562 H   0  0  0  0  0  0  0  0  0  0  0  0
   47.6466    1.8312    4.9382 H   0  0  0  0  0  0  0  0  0  0  0  0
   47.8135    1.0656    6.5264 H   0  0  0  0  0  0  0  0  0  0  0  0
  2  1  1  0
  3  1  2  0
  4  1  2  0
  5  8  1  0
  6  5  2  0
  7  1  1  0
  8 10  1  0
  9  7  1  0
 10  9  1  0
 11  5  1  0
 13 12  1  0
 14 12  2  0
 15 12  2  0
 16 19  1  0
 17 16  2  0
 18 12  1  0
 19 21  1  0
 20 18  1  0
 21 20  1  0
 22 16  1  0
  7 24  1  0
  7 25  1  0
  8 26  1  0
  9 27  1  0
  9 28  1  0
 10 29  1  0
 10 30  1  0
 11 31  1  0
 11 32  1  0
 11 33  1  0
 18 34  1  0
 18 35  1  0
 19 36  1  0
 20 37  1  0
 20 38  1  0
 21 39  1  0
 21 40  1  0
 22 41  1  0
 22 42  1  0
 22 43  1  0
M  CHG  3   2  -1  13  -1  23   2
M  END
> <Uni-Dock RESULT> 
ENERGY=   -5.020  LOWER_BOUND=    0.000  UPPER_BOUND=    0.000
INTER + INTRA:          -5.020
INTER:                  -5.020
INTRA:                   0.000
UNBOUND:                 0.000

$$$$

     RDKit          3D

 43 40  0  0  0  0  0  0  0  0999 V2000
   47.0613    2.7449    5.8775 S   0  0  0  0  0  0  0  0  0  0  0  0
   47.1427    4.2002    5.9762 O   0  0  0  0  0  0  0  0  0  0  0  0
   48.2124    2.1118    5.2384 O   0  0  0  0  0  0  0  0  0  0  0  0
   45.7618    2.2285    5.4532 O   0  0  0  0  0  0  0  0  0  0  0  0
   44.3792    3.9898   10.7643 C   0  0  0  0  0  0  0  0  0  0  0  0
   45.3897    3.8820   11.4514 O   0  0  0  0  0  0  0  0  0  0  0  0
   47.1966    2.2058    7.5687 C   0  0  0  0  0  0  0  0  0  0  0  0
   44.3694    4.0313    9.3926 N   0  0  0  0  0  0  0  0  0  0  0  0
   45.9376    2.4249    8.3997 C   0  0  0  0  0  0  0  0  0  0  0  0
   45.5732    3.8942    8.5874 C   0  0  0  0  0  0  0  0  0  0  0  0
   43.0094    4.0714   11.3835 C   0  0  0  0  0  0  0  0  0  0  0  0
   43.6611    4.8633   11.6402 S   0  0  0  0  0  0  0  0  0  0  0  0
   42.9179    4.2416   12.7337 O   0  0  0  0  0  0  0  0  0  0  0  0
   42.8439    5.6219   10.6953 O   0  0  0  0  0  0  0  0  0  0  0  0
   44.9123    5.5068   12.0334 O   0  0  0  0  0  0  0  0  0  0  0  0
   46.7379    2.1571    6.6221 C   0  0  0  0  0  0  0  0  0  0  0  0
   46.7340    0.9473    6.8248 O   0  0  0  0  0  0  0  0  0  0  0  0
   44.1995    3.4643   10.6830 C   0  0  0  0  0  0  0  0  0  0  0  0
   46.1523    3.0831    7.4517 N   0  0  0  0  0  0  0  0  0  0  0  0
   45.0196    3.8809    9.4701 C   0  0  0  0  0  0  0  0  0  0  0  0
   45.3885    2.6787    8.6168 C   0  0  0  0  0  0  0  0  0  0  0  0
   47.3881    2.7562    5.4038 C   0  0  0  0  0  0  0  0  0  0  0  0
   45.4255    3.2647    8.7242 Ca  0  0  0  0  0 15  0  0  0  0  0  0
   48.0622    2.7093    8.0114 H   0  0  0  0  0  0  0  0  0  0  0  0
   47.4125    1.1318    7.5343 H   0  0  0  0  0  0  0  0  0  0  0  0
   43.4921    3.9821    8.8927 H   0  0  0  0  0  0  0  0  0  0  0  0
   45.0902    1.8933    7.9495 H   0  0  0  0  0  0  0  0  0  0  0  0
   46.0924    1.9632    9.3831 H   0  0  0  0  0  0  0  0  0  0  0  0
   45.3436    4.3811    7.6373 H   0  0  0  0  0  0  0  0  0  0  0  0
   46.3906    4.4357    9.0755 H   0  0  0  0  0  0  0  0  0  0  0  0
   42.2619    4.4236   10.6671 H   0  0  0  0  0  0  0  0  0  0  0  0
   42.7199    3.0804   11.7430 H   0  0  0  0  0  0  0  0  0  0  0  0
   43.0364    4.7744   12.2206 H   0  0  0  0  0  0  0  0  0  0  0  0
   43.2996    2.9194   10.3778 H   0  0  0  0  0  0  0  0  0  0  0  0
   44.7861    2.8200   11.3466 H   0  0  0  0  0  0  0  0  0  0  0  0
   46.0014    4.0214    7.1028 H   0  0  0  0  0  0  0  0  0  0  0  0
   44.4569    4.5998    8.8617 H   0  0  0  0  0  0  0  0  0  0  0  0
   45.9310    4.4006    9.7903 H   0  0  0  0  0  0  0  0  0  0  0  0
   44.4900    2.1639    8.2576 H   0  0  0  0  0  0  0  0  0  0  0  0
   45.9826    1.9561    9.1876 H   0  0  0  0  0  0  0  0  0  0  0  0
   46.7508    2.5784    4.5337 H   0  0  0  0  0  0  0  0  0  0  0  0
   48.3630    2.2851    5.2501 H   0  0  0  0  0  0  0  0  0  0  0  0
   47.5447    3.8325    5.5188 H   0  0  0  0  0  0  0  0  0  0  0  0
  2  1  1  0
  3  1  2  0
  4  1  2  0
  5  8  1  0
  6  5  2  0
  7  1  1  0
  8 10  1  0
  9  7  1  0
 10  9  1  0
 11  5  1  0
 13 12  1  0
 14 12  2  0
 15 12  2  0
 16 19  1  0
 17 16  2  0
 18 12  1  0
 19 21  1  0
 20 18  1  0
 21 20  1  0
 22 16  1  0
  7 24  1  0
  7 25  1  0
  8 26  1  0
  9 27  1  0
  9 28  1  0
 10 29  1  0
 10 30  1  0
 11 31  1  0
 11 32  1  0
 11 33  1  0
 18 34  1  0
 18 35  1  0
 19 36  1  0
 20 37  1  0
 20 38  1  0
 21 39  1  0
 21 40  1  0
 22 41  1  0
 22 42  1  0
 22 43  1  0
M  CHG  3   2  -1  13  -1  23   2
M  END
> <Uni-Dock RESULT> 
ENERGY=   -4.914  LOWER_BOUND=    1.191  UPPER_BOUND=    1.975
INTER + INTRA:          -4.914
INTER:                  -4.914
INTRA:                   0.000
UNBOUND:                 0.000

$$$$

     RDKit          3D

 43 40  0  0  0  0  0  0  0  0999 V2000
   43.9355    3.6141   11.5581 S   0  0  0  0  0  0  0  0  0  0  0  0
   45.3204    3.2832   11.8850 O   0  0  0  0  0  0  0  0  0  0  0  0
   42.9561    2.6098   11.9662 O   0  0  0  0  0  0  0  0  0  0  0  0
   43.7331    4.1608   10.2182 O   0  0  0  0  0  0  0  0  0  0  0  0
   46.3756    8.6564   12.6733 C   0  0  0  0  0  0  0  0  0  0  0  0
   46.0844    8.6357   13.8649 O   0  0  0  0  0  0  0  0  0  0  0  0
   43.5718    4.9865   12.6321 C   0  0  0  0  0  0  0  0  0  0  0  0
   46.2650    7.5838   11.8244 N   0  0  0  0  0  0  0  0  0  0  0  0
   44.2039    6.3049   12.2012 C   0  0  0  0  0  0  0  0  0  0  0  0
   45.7288    6.2969   12.2400 C   0  0  0  0  0  0  0  0  0  0  0  0
   46.8812    9.9081   12.0067 C   0  0  0  0  0  0  0  0  0  0  0  0
   47.4985    9.5359   12.7801 S   0  0  0  0  0  0  0  0  0  0  0  0
   47.2189   10.9698   12.7934 O   0  0  0  0  0  0  0  0  0  0  0  0
   48.3343    9.0833   11.6698 O   0  0  0  0  0  0  0  0  0  0  0  0
   47.8320    8.9613   14.0812 O   0  0  0  0  0  0  0  0  0  0  0  0
   43.5396    4.5259   11.6857 C   0  0  0  0  0  0  0  0  0  0  0  0
   42.4033    4.9859   11.6392 O   0  0  0  0  0  0  0  0  0  0  0  0
   45.9097    8.8270   12.4108 C   0  0  0  0  0  0  0  0  0  0  0  0
   44.6731    5.2799   11.8738 N   0  0  0  0  0  0  0  0  0  0  0  0
   45.9593    7.3067   12.3546 C   0  0  0  0  0  0  0  0  0  0  0  0
   44.6151    6.7276   11.9456 C   0  0  0  0  0  0  0  0  0  0  0  0
   43.8080    3.0540   11.5202 C   0  0  0  0  0  0  0  0  0  0  0  0
   45.1792    6.6446   12.1223 Ca  0  0  0  0  0 15  0  0  0  0  0  0
   43.8774    4.7073   13.6457 H   0  0  0  0  0  0  0  0  0  0  0  0
   42.4818    5.1014   12.6283 H   0  0  0  0  0  0  0  0  0  0  0  0
   46.3916    7.7126   10.8298 H   0  0  0  0  0  0  0  0  0  0  0  0
   43.8658    6.5747   11.1931 H   0  0  0  0  0  0  0  0  0  0  0  0
   43.8305    7.0958   12.8639 H   0  0  0  0  0  0  0  0  0  0  0  0
   46.1497    5.5689   11.5434 H   0  0  0  0  0  0  0  0  0  0  0  0
   46.0885    6.0716   13.2496 H   0  0  0  0  0  0  0  0  0  0  0  0
   47.3346    9.6939   11.0348 H   0  0  0  0  0  0  0  0  0  0  0  0
   46.0470   10.6005   11.8664 H   0  0  0  0  0  0  0  0  0  0  0  0
   47.6415   10.3700   12.6426 H   0  0  0  0  0  0  0  0  0  0  0  0
   45.5887    9.2433   11.4497 H   0  0  0  0  0  0  0  0  0  0  0  0
   45.2125    9.1653   13.1847 H   0  0  0  0  0  0  0  0  0  0  0  0
   45.5732    4.8626   11.6724 H   0  0  0  0  0  0  0  0  0  0  0  0
   46.7279    6.9791   11.6436 H   0  0  0  0  0  0  0  0  0  0  0  0
   46.2548    6.9017   13.3303 H   0  0  0  0  0  0  0  0  0  0  0  0
   44.3166    7.0935   10.9565 H   0  0  0  0  0  0  0  0  0  0  0  0
   43.8305    7.0087   12.6573 H   0  0  0  0  0  0  0  0  0  0  0  0
   43.7073    2.7880   10.4648 H   0  0  0  0  0  0  0  0  0  0  0  0
   43.0841    2.4891   12.1142 H   0  0  0  0  0  0  0  0  0  0  0  0
   44.8118    2.7865   11.8624 H   0  0  0  0  0  0  0  0  0  0  0  0
  2  1  1  0
  3  1  2  0
  4  1  2  0
  5  8  1  0
  6  5  2  0
  7  1  1  0
  8 10  1  0
  9  7  1  0
 10  9  1  0
 11  5  1  0
 13 12  1  0
 14 12  2  0
 15 12  2  0
 16 19  1  0
 17 16  2  0
 18 12  1  0
 19 21  1  0
 20 18  1  0
 21 20  1  0
 22 16  1  0
  7 24  1  0
  7 25  1  0
  8 26  1  0
  9 27  1  0
  9 28  1  0
 10 29  1  0
 10 30  1  0
 11 31  1  0
 11 32  1  0
 11 33  1  0
 18 34  1  0
 18 35  1  0
 19 36  1  0
 20 37  1  0
 20 38  1  0
 21 39  1  0
 21 40  1  0
 22 41  1  0
 22 42  1  0
 22 43  1  0
M  CHG  3   2  -1  13  -1  23   2
M  END
> <Uni-Dock RESULT> 
ENERGY=   -4.825  LOWER_BOUND=    4.213  UPPER_BOUND=    6.349
INTER + INTRA:          -4.825
INTER:                  -4.825
INTRA:                   0.000
UNBOUND:                 0.000

$$$$

     RDKit          3D

 43 40  0  0  0  0  0  0  0  0999 V2000
   43.1735    5.4370   12.0854 S   0  0  0  0  0  0  0  0  0  0  0  0
   43.4146    6.7155   11.4209 O   0  0  0  0  0  0  0  0  0  0  0  0
   42.3276    4.5106   11.3367 O   0  0  0  0  0  0  0  0  0  0  0  0
   42.8682    5.5324   13.5112 O   0  0  0  0  0  0  0  0  0  0  0  0
   48.4698    6.8813   13.6622 C   0  0  0  0  0  0  0  0  0  0  0  0
   49.0055    6.2904   12.7301 O   0  0  0  0  0  0  0  0  0  0  0  0
   44.7663    4.6428   12.0484 C   0  0  0  0  0  0  0  0  0  0  0  0
   47.1231    7.1266   13.7595 N   0  0  0  0  0  0  0  0  0  0  0  0
   45.7713    5.2056   13.0466 C   0  0  0  0  0  0  0  0  0  0  0  0
   46.1593    6.6559   12.7767 C   0  0  0  0  0  0  0  0  0  0  0  0
   49.2659    7.3932   14.8331 C   0  0  0  0  0  0  0  0  0  0  0  0
   49.5188    7.8239   13.9012 S   0  0  0  0  0  0  0  0  0  0  0  0
   50.6269    7.3830   14.7451 O   0  0  0  0  0  0  0  0  0  0  0  0
   48.7731    8.9707   14.4160 O   0  0  0  0  0  0  0  0  0  0  0  0
   49.8132    7.8674   12.4709 O   0  0  0  0  0  0  0  0  0  0  0  0
   43.8871    4.9164   12.5591 C   0  0  0  0  0  0  0  0  0  0  0  0
   43.9591    3.7866   13.0315 O   0  0  0  0  0  0  0  0  0  0  0  0
   48.3572    6.4846   14.0429 C   0  0  0  0  0  0  0  0  0  0  0  0
   44.8788    5.8625   12.6596 N   0  0  0  0  0  0  0  0  0  0  0  0
   47.0997    6.7268   13.2201 C   0  0  0  0  0  0  0  0  0  0  0  0
   46.0832    5.6167   13.4299 C   0  0  0  0  0  0  0  0  0  0  0  0
   42.6654    5.3913   11.8187 C   0  0  0  0  0  0  0  0  0  0  0  0
   46.2465    6.1198   13.1532 Ca  0  0  0  0  0 15  0  0  0  0  0  0
   45.1444    4.7006   11.0225 H   0  0  0  0  0  0  0  0  0  0  0  0
   44.5906    3.5868   12.2838 H   0  0  0  0  0  0  0  0  0  0  0  0
   46.7383    7.4953   14.6185 H   0  0  0  0  0  0  0  0  0  0  0  0
   45.3806    5.1163   14.0678 H   0  0  0  0  0  0  0  0  0  0  0  0
   46.6720    4.5795   13.0150 H   0  0  0  0  0  0  0  0  0  0  0  0
   45.3039    7.3290   12.8642 H   0  0  0  0  0  0  0  0  0  0  0  0
   46.5925    6.7602   11.7762 H   0  0  0  0  0  0  0  0  0  0  0  0
   48.6934    8.1092   15.4294 H   0  0  0  0  0  0  0  0  0  0  0  0
   49.5526    6.5498   15.4667 H   0  0  0  0  0  0  0  0  0  0  0  0
   50.1623    7.8984   14.4628 H   0  0  0  0  0  0  0  0  0  0  0  0
   48.1147    6.3819   15.1062 H   0  0  0  0  0  0  0  0  0  0  0  0
   48.8674    5.5727   13.7145 H   0  0  0  0  0  0  0  0  0  0  0  0
   44.6538    6.8266   12.4484 H   0  0  0  0  0  0  0  0  0  0  0  0
   46.6487    7.6890   13.4926 H   0  0  0  0  0  0  0  0  0  0  0  0
   47.3527    6.7999   12.1553 H   0  0  0  0  0  0  0  0  0  0  0  0
   45.7905    5.5489   14.4839 H   0  0  0  0  0  0  0  0  0  0  0  0
   46.4927    4.6444   13.1330 H   0  0  0  0  0  0  0  0  0  0  0  0
   41.8710    5.6051   12.5384 H   0  0  0  0  0  0  0  0  0  0  0  0
   42.3381    4.6084   11.1288 H   0  0  0  0  0  0  0  0  0  0  0  0
   42.8728    6.2933   11.2360 H   0  0  0  0  0  0  0  0  0  0  0  0
  2  1  1  0
  3  1  2  0
  4  1  2  0
  5  8  1  0
  6  5  2  0
  7  1  1  0
  8 10  1  0
  9  7  1  0
 10  9  1  0
 11  5  1  0
 13 12  1  0
 14 12  2  0
 15 12  2  0
 16 19  1  0
 17 16  2  0
 18 12  1  0
 19 21  1  0
 20 18  1  0
 21 20  1  0
 22 16  1  0
  7 24  1  0
  7 25  1  0
  8 26  1  0
  9 27  1  0
  9 28  1  0
 10 29  1  0
 10 30  1  0
 11 31  1  0
 11 32  1  0
 11 33  1  0
 18 34  1  0
 18 35  1  0
 19 36  1  0
 20 37  1  0
 20 38  1  0
 21 39  1  0
 21 40  1  0
 22 41  1  0
 22 42  1  0
 22 43  1  0
M  CHG  3   2  -1  13  -1  23   2
M  END
> <Uni-Dock RESULT> 
ENERGY=   -4.742  LOWER_BOUND=    4.941  UPPER_BOUND=    7.022
INTER + INTRA:          -4.742
INTER:                  -4.742
INTRA:                   0.000
UNBOUND:                 0.000

$$$$

     RDKit          3D

 43 40  0  0  0  0  0  0  0  0999 V2000
   46.8051    9.3421   12.5184 S   0  0  0  0  0  0  0  0  0  0  0  0
   47.8295    8.5115   11.8899 O   0  0  0  0  0  0  0  0  0  0  0  0
   46.8837   10.7626   12.1863 O   0  0  0  0  0  0  0  0  0  0  0  0
   46.5591    9.0536   13.9295 O   0  0  0  0  0  0  0  0  0  0  0  0
   44.2062    4.3417   11.5880 C   0  0  0  0  0  0  0  0  0  0  0  0
   43.7831    4.6645   10.4827 O   0  0  0  0  0  0  0  0  0  0  0  0
   45.3023    8.8266   11.7153 C   0  0  0  0  0  0  0  0  0  0  0  0
   45.1422    5.0474   12.3017 N   0  0  0  0  0  0  0  0  0  0  0  0
   44.7776    7.4717   12.1761 C   0  0  0  0  0  0  0  0  0  0  0  0
   45.7046    6.3075   11.8411 C   0  0  0  0  0  0  0  0  0  0  0  0
   43.7070    3.1095   12.2945 C   0  0  0  0  0  0  0  0  0  0  0  0
   44.1972    2.9273   11.3756 S   0  0  0  0  0  0  0  0  0  0  0  0
   42.9314    2.2317   11.5959 O   0  0  0  0  0  0  0  0  0  0  0  0
   45.2949    2.4926   12.2371 O   0  0  0  0  0  0  0  0  0  0  0  0
   44.5527    3.1300    9.9732 O   0  0  0  0  0  0  0  0  0  0  0  0
   45.8411    9.0760   12.5849 C   0  0  0  0  0  0  0  0  0  0  0  0
   44.8084    9.6536   12.9083 O   0  0  0  0  0  0  0  0  0  0  0  0
   43.8499    4.5724   11.9553 C   0  0  0  0  0  0  0  0  0  0  0  0
   45.9163    7.7390   12.2757 N   0  0  0  0  0  0  0  0  0  0  0  0
   45.0507    5.4967   11.8107 C   0  0  0  0  0  0  0  0  0  0  0  0
   44.7623    6.8685   12.3976 C   0  0  0  0  0  0  0  0  0  0  0  0
   47.1624    9.7934   12.5102 C   0  0  0  0  0  0  0  0  0  0  0  0
   45.1306    6.5004   12.1057 Ca  0  0  0  0  0 15  0  0  0  0  0  0
   45.4787    8.8421   10.6348 H   0  0  0  0  0  0  0  0  0  0  0  0
   44.5512    9.5911   11.9451 H   0  0  0  0  0  0  0  0  0  0  0  0
   45.3395    4.7966   13.2609 H   0  0  0  0  0  0  0  0  0  0  0  0
   44.5872    7.4874   13.2563 H   0  0  0  0  0  0  0  0  0  0  0  0
   43.8021    7.3037   11.7025 H   0  0  0  0  0  0  0  0  0  0  0  0
   46.6686    6.3966   12.3462 H   0  0  0  0  0  0  0  0  0  0  0  0
   45.8740    6.2470   10.7607 H   0  0  0  0  0  0  0  0  0  0  0  0
   44.3598    2.8272   13.1253 H   0  0  0  0  0  0  0  0  0  0  0  0
   42.7019    3.3004   12.6795 H   0  0  0  0  0  0  0  0  0  0  0  0
   43.6791    2.2773   11.5857 H   0  0  0  0  0  0  0  0  0  0  0  0
   43.5480    4.4854   13.0047 H   0  0  0  0  0  0  0  0  0  0  0  0
   42.9975    4.9491   11.3799 H   0  0  0  0  0  0  0  0  0  0  0  0
   46.8270    7.2979   12.2447 H   0  0  0  0  0  0  0  0  0  0  0  0
   45.9246    5.0630   12.3123 H   0  0  0  0  0  0  0  0  0  0  0  0
   45.3253    5.5973   10.7534 H   0  0  0  0  0  0  0  0  0  0  0  0
   44.5186    6.7941   13.4636 H   0  0  0  0  0  0  0  0  0  0  0  0
   43.9138    7.3441   11.8927 H   0  0  0  0  0  0  0  0  0  0  0  0
   47.5352    9.9639   13.5235 H   0  0  0  0  0  0  0  0  0  0  0  0
   47.0212   10.7516   12.0024 H   0  0  0  0  0  0  0  0  0  0  0  0
   47.9028    9.2165   11.9487 H   0  0  0  0  0  0  0  0  0  0  0  0
  2  1  1  0
  3  1  2  0
  4  1  2  0
  5  8  1  0
  6  5  2  0
  7  1  1  0
  8 10  1  0
  9  7  1  0
 10  9  1  0
 11  5  1  0
 13 12  1  0
 14 12  2  0
 15 12  2  0
 16 19  1  0
 17 16  2  0
 18 12  1  0
 19 21  1  0
 20 18  1  0
 21 20  1  0
 22 16  1  0
  7 24  1  0
  7 25  1  0
  8 26  1  0
  9 27  1  0
  9 28  1  0
 10 29  1  0
 10 30  1  0
 11 31  1  0
 11 32  1  0
 11 33  1  0
 18 34  1  0
 18 35  1  0
 19 36  1  0
 20 37  1  0
 20 38  1  0
 21 39  1  0
 21 40  1  0
 22 41  1  0
 22 42  1  0
 22 43  1  0
M  CHG  3   2  -1  13  -1  23   2
M  END
> <Uni-Dock RESULT> 
ENERGY=   -4.300  LOWER_BOUND=    4.057  UPPER_BOUND=    6.220
INTER + INTRA:          -4.300
INTER:                  -4.300
INTRA:                   0.000
UNBOUND:                 0.000

$$$$

     RDKit          3D

 43 40  0  0  0  0  0  0  0  0999 V2000
   42.9062   10.3461   10.5347 S   0  0  0  0  0  0  0  0  0  0  0  0
   41.6241    9.6904   10.7805 O   0  0  0  0  0  0  0  0  0  0  0  0
   42.9369   11.7687   10.8660 O   0  0  0  0  0  0  0  0  0  0  0  0
   43.5433    9.9965    9.2670 O   0  0  0  0  0  0  0  0  0  0  0  0
   44.3040    5.0327   12.0958 C   0  0  0  0  0  0  0  0  0  0  0  0
   44.3959    5.3102   13.2873 O   0  0  0  0  0  0  0  0  0  0  0  0
   43.9814    9.6276   11.7582 C   0  0  0  0  0  0  0  0  0  0  0  0
   43.7592    5.8562   11.1428 N   0  0  0  0  0  0  0  0  0  0  0  0
   44.4191    8.2008   11.4485 C   0  0  0  0  0  0  0  0  0  0  0  0
   43.2722    7.1950   11.4375 C   0  0  0  0  0  0  0  0  0  0  0  0
   44.8141    3.7261   11.5488 C   0  0  0  0  0  0  0  0  0  0  0  0
   44.0356    3.6372   12.2586 S   0  0  0  0  0  0  0  0  0  0  0  0
   45.1881    2.7561   12.4317 O   0  0  0  0  0  0  0  0  0  0  0  0
   43.2178    3.3547   11.0807 O   0  0  0  0  0  0  0  0  0  0  0  0
   43.2861    3.9182   13.4807 O   0  0  0  0  0  0  0  0  0  0  0  0
   43.7907    9.9377   10.7701 C   0  0  0  0  0  0  0  0  0  0  0  0
   44.9461   10.3480   10.8086 O   0  0  0  0  0  0  0  0  0  0  0  0
   44.7887    5.2003   11.8677 C   0  0  0  0  0  0  0  0  0  0  0  0
   43.4241    8.6332   11.0002 N   0  0  0  0  0  0  0  0  0  0  0  0
   43.7550    6.2963   11.6503 C   0  0  0  0  0  0  0  0  0  0  0  0
   44.4148    7.5979   11.2258 C   0  0  0  0  0  0  0  0  0  0  0  0
   42.6358   10.8458   10.4421 C   0  0  0  0  0  0  0  0  0  0  0  0
   43.9225    7.2947   11.3746 Ca  0  0  0  0  0 15  0  0  0  0  0  0
   43.4744    9.6906   12.7266 H   0  0  0  0  0  0  0  0  0  0  0  0
   44.8709   10.2666   11.8013 H   0  0  0  0  0  0  0  0  0  0  0  0
   43.8428    5.6190   10.1636 H   0  0  0  0  0  0  0  0  0  0  0  0
   44.9437    8.1667   10.4857 H   0  0  0  0  0  0  0  0  0  0  0  0
   45.1568    7.8982   12.2024 H   0  0  0  0  0  0  0  0  0  0  0  0
   42.5436    7.4172   10.6551 H   0  0  0  0  0  0  0  0  0  0  0  0
   42.7606    7.1817   12.4058 H   0  0  0  0  0  0  0  0  0  0  0  0
   44.4258    3.5283   10.5458 H   0  0  0  0  0  0  0  0  0  0  0  0
   45.9061    3.7571   11.5089 H   0  0  0  0  0  0  0  0  0  0  0  0
   44.4916    2.9131   12.2052 H   0  0  0  0  0  0  0  0  0  0  0  0
   45.3927    5.0486   10.9665 H   0  0  0  0  0  0  0  0  0  0  0  0
   45.4593    5.4565   12.6948 H   0  0  0  0  0  0  0  0  0  0  0  0
   42.4963    8.3339   10.7273 H   0  0  0  0  0  0  0  0  0  0  0  0
   43.0322    5.9883   10.8846 H   0  0  0  0  0  0  0  0  0  0  0  0
   43.1760    6.4575   12.5680 H   0  0  0  0  0  0  0  0  0  0  0  0
   44.9714    7.4670   10.2908 H   0  0  0  0  0  0  0  0  0  0  0  0
   45.1187    7.9511   11.9878 H   0  0  0  0  0  0  0  0  0  0  0  0
   42.6346   11.0502    9.3684 H   0  0  0  0  0  0  0  0  0  0  0  0
   42.7480   11.7819   10.9963 H   0  0  0  0  0  0  0  0  0  0  0  0
   41.6784   10.3972   10.7221 H   0  0  0  0  0  0  0  0  0  0  0  0
  2  1  1  0
  3  1  2  0
  4  1  2  0
  5  8  1  0
  6  5  2  0
  7  1  1  0
  8 10  1  0
  9  7  1  0
 10  9  1  0
 11  5  1  0
 13 12  1  0
 14 12  2  0
 15 12  2  0
 16 19  1  0
 17 16  2  0
 18 12  1  0
 19 21  1  0
 20 18  1  0
 21 20  1  0
 22 16  1  0
  7 24  1  0
  7 25  1  0
  8 26  1  0
  9 27  1  0
  9 28  1  0
 10 29  1  0
 10 30  1  0
 11 31  1  0
 11 32  1  0
 11 33  1  0
 18 34  1  0
 18 35  1  0
 19 36  1  0
 20 37  1  0
 20 38  1  0
 21 39  1  0
 21 40  1  0
 22 41  1  0
 22 42  1  0
 22 43  1  0
M  CHG  3   2  -1  13  -1  23   2
M  END
> <Uni-Dock RESULT> 
ENERGY=   -4.050  LOWER_BOUND=    4.424  UPPER_BOUND=    6.716
INTER + INTRA:          -4.050
INTER:                  -4.050
INTRA:                   0.000
UNBOUND:                 0.000

$$$$

     RDKit          3D

 43 40  0  0  0  0  0  0  0  0999 V2000
   48.9888    8.3306   12.7637 S   0  0  0  0  0  0  0  0  0  0  0  0
   48.0730    9.1059   11.9303 O   0  0  0  0  0  0  0  0  0  0  0  0
   49.7981    9.1264   13.6835 O   0  0  0  0  0  0  0  0  0  0  0  0
   49.7154    7.2747   12.0620 O   0  0  0  0  0  0  0  0  0  0  0  0
   44.4518    4.9265   12.0921 C   0  0  0  0  0  0  0  0  0  0  0  0
   43.8846    5.3325   13.1013 O   0  0  0  0  0  0  0  0  0  0  0  0
   47.9023    7.4391   13.8563 C   0  0  0  0  0  0  0  0  0  0  0  0
   45.5521    5.5182   11.5242 N   0  0  0  0  0  0  0  0  0  0  0  0
   47.1789    6.2672   13.2031 C   0  0  0  0  0  0  0  0  0  0  0  0
   46.2112    6.6809   12.0987 C   0  0  0  0  0  0  0  0  0  0  0  0
   43.9874    3.6897   11.3700 C   0  0  0  0  0  0  0  0  0  0  0  0
   43.2833    4.4778   11.3999 S   0  0  0  0  0  0  0  0  0  0  0  0
   42.7906    3.1420   11.7273 O   0  0  0  0  0  0  0  0  0  0  0  0
   43.6779    4.6622   10.0048 O   0  0  0  0  0  0  0  0  0  0  0  0
   42.5128    5.5769   11.9766 O   0  0  0  0  0  0  0  0  0  0  0  0
   48.7352    7.4713   13.2129 C   0  0  0  0  0  0  0  0  0  0  0  0
   49.2592    6.7543   14.0592 O   0  0  0  0  0  0  0  0  0  0  0  0
   44.8296    4.5540   12.2752 C   0  0  0  0  0  0  0  0  0  0  0  0
   47.5660    7.1679   12.5574 N   0  0  0  0  0  0  0  0  0  0  0  0
   45.5320    5.8907   12.0830 C   0  0  0  0  0  0  0  0  0  0  0  0
   46.8922    5.8994   12.7607 C   0  0  0  0  0  0  0  0  0  0  0  0
   49.3490    8.7789   12.7893 C   0  0  0  0  0  0  0  0  0  0  0  0
   46.4677    6.1863   12.4543 Ca  0  0  0  0  0 15  0  0  0  0  0  0
   47.1962    8.1580   14.2847 H   0  0  0  0  0  0  0  0  0  0  0  0
   48.5287    7.0560   14.6701 H   0  0  0  0  0  0  0  0  0  0  0  0
   46.0468    5.0508   10.7767 H   0  0  0  0  0  0  0  0  0  0  0  0
   47.9058    5.5504   12.8017 H   0  0  0  0  0  0  0  0  0  0  0  0
   46.6266    5.7284   13.9833 H   0  0  0  0  0  0  0  0  0  0  0  0
   46.7267    7.1630   11.2656 H   0  0  0  0  0  0  0  0  0  0  0  0
   45.4495    7.3644   12.4886 H   0  0  0  0  0  0  0  0  0  0  0  0
   44.4221    3.6186   10.3690 H   0  0  0  0  0  0  0  0  0  0  0  0
   44.2769    2.8083   11.9480 H   0  0  0  0  0  0  0  0  0  0  0  0
   42.8993    3.7229   11.2670 H   0  0  0  0  0  0  0  0  0  0  0  0
   45.4489    3.7302   11.9040 H   0  0  0  0  0  0  0  0  0  0  0  0
   44.6153    4.3760   13.3344 H   0  0  0  0  0  0  0  0  0  0  0  0
   47.3267    7.6902   11.7239 H   0  0  0  0  0  0  0  0  0  0  0  0
   45.6571    6.1021   11.0138 H   0  0  0  0  0  0  0  0  0  0  0  0
   44.9141    6.7037   12.4837 H   0  0  0  0  0  0  0  0  0  0  0  0
   47.5384    5.1152   12.3502 H   0  0  0  0  0  0  0  0  0  0  0  0
   46.7979    5.7253   13.8386 H   0  0  0  0  0  0  0  0  0  0  0  0
   50.2045    8.5789   12.1390 H   0  0  0  0  0  0  0  0  0  0  0  0
   49.6799    9.3235   13.6780 H   0  0  0  0  0  0  0  0  0  0  0  0
   48.6310    9.4062   12.2534 H   0  0  0  0  0  0  0  0  0  0  0  0
  2  1  1  0
  3  1  2  0
  4  1  2  0
  5  8  1  0
  6  5  2  0
  7  1  1  0
  8 10  1  0
  9  7  1  0
 10  9  1  0
 11  5  1  0
 13 12  1  0
 14 12  2  0
 15 12  2  0
 16 19  1  0
 17 16  2  0
 18 12  1  0
 19 21  1  0
 20 18  1  0
 21 20  1  0
 22 16  1  0
  7 24  1  0
  7 25  1  0
  8 26  1  0
  9 27  1  0
  9 28  1  0
 10 29  1  0
 10 30  1  0
 11 31  1  0
 11 32  1  0
 11 33  1  0
 18 34  1  0
 18 35  1  0
 19 36  1  0
 20 37  1  0
 20 38  1  0
 21 39  1  0
 21 40  1  0
 22 41  1  0
 22 42  1  0
 22 43  1  0
M  CHG  3   2  -1  13  -1  23   2
M  END
> <Uni-Dock RESULT> 
ENERGY=   -4.028  LOWER_BOUND=    4.405  UPPER_BOUND=    6.191
INTER + INTRA:          -4.028
INTER:                  -4.028
INTRA:                   0.000
UNBOUND:                 0.000

$$$$

     RDKit          3D

 43 40  0  0  0  0  0  0  0  0999 V2000
   48.7443    8.5685   14.2237 S   0  0  0  0  0  0  0  0  0  0  0  0
   49.0703    7.1534   14.3831 O   0  0  0  0  0  0  0  0  0  0  0  0
   49.8939    9.4345   13.9729 O   0  0  0  0  0  0  0  0  0  0  0  0
   47.7807    9.0908   15.1900 O   0  0  0  0  0  0  0  0  0  0  0  0
   44.2482    5.8182   12.0227 C   0  0  0  0  0  0  0  0  0  0  0  0
   44.7030    5.7995   10.8835 O   0  0  0  0  0  0  0  0  0  0  0  0
   47.8610    8.6197   12.6789 C   0  0  0  0  0  0  0  0  0  0  0  0
   44.9629    6.1625   13.1425 N   0  0  0  0  0  0  0  0  0  0  0  0
   46.4342    8.0887   12.7541 C   0  0  0  0  0  0  0  0  0  0  0  0
   46.3482    6.6039   13.0933 C   0  0  0  0  0  0  0  0  0  0  0  0
   42.8105    5.4705   12.3037 C   0  0  0  0  0  0  0  0  0  0  0  0
   43.3845    4.6860   11.8878 S   0  0  0  0  0  0  0  0  0  0  0  0
   42.0684    4.9224   11.2992 O   0  0  0  0  0  0  0  0  0  0  0  0
   43.3622    4.1676   13.2541 O   0  0  0  0  0  0  0  0  0  0  0  0
   44.3514    4.0473   10.9982 O   0  0  0  0  0  0  0  0  0  0  0  0
   47.9641    8.8997   13.6887 C   0  0  0  0  0  0  0  0  0  0  0  0
   47.5977   10.0007   13.2909 O   0  0  0  0  0  0  0  0  0  0  0  0
   44.0299    6.3315   12.0858 C   0  0  0  0  0  0  0  0  0  0  0  0
   47.2453    7.7395   13.5275 N   0  0  0  0  0  0  0  0  0  0  0  0
   45.4281    6.3303   12.6878 C   0  0  0  0  0  0  0  0  0  0  0  0
   45.9212    7.7464   12.9351 C   0  0  0  0  0  0  0  0  0  0  0  0
   49.2636    8.7134   14.4255 C   0  0  0  0  0  0  0  0  0  0  0  0
   46.0207    7.1578   12.9424 Ca  0  0  0  0  0 15  0  0  0  0  0  0
   48.4535    8.0742   11.9372 H   0  0  0  0  0  0  0  0  0  0  0  0
   47.8287    9.6726   12.3762 H   0  0  0  0  0  0  0  0  0  0  0  0
   44.4872    6.2883   14.0256 H   0  0  0  0  0  0  0  0  0  0  0  0
   45.8545    8.6644   13.4862 H   0  0  0  0  0  0  0  0  0  0  0  0
   45.9519    8.2656   11.7845 H   0  0  0  0  0  0  0  0  0  0  0  0
   46.7566    6.3882   14.0828 H   0  0  0  0  0  0  0  0  0  0  0  0
   46.8853    6.0059   12.3493 H   0  0  0  0  0  0  0  0  0  0  0  0
   42.6404    5.2819   13.3674 H   0  0  0  0  0  0  0  0  0  0  0  0
   42.1730    6.2980   11.9817 H   0  0  0  0  0  0  0  0  0  0  0  0
   42.5469    4.5645   11.7509 H   0  0  0  0  0  0  0  0  0  0  0  0
   43.3286    6.8757   12.7277 H   0  0  0  0  0  0  0  0  0  0  0  0
   44.0323    6.8032   11.0974 H   0  0  0  0  0  0  0  0  0  0  0  0
   47.5021    6.9286   14.0764 H   0  0  0  0  0  0  0  0  0  0  0  0
   45.4327    5.7733   13.6329 H   0  0  0  0  0  0  0  0  0  0  0  0
   46.1257    5.8068   12.0226 H   0  0  0  0  0  0  0  0  0  0  0  0
   45.2556    8.2770   13.6256 H   0  0  0  0  0  0  0  0  0  0  0  0
   45.9614    8.3196   12.0020 H   0  0  0  0  0  0  0  0  0  0  0  0
   49.1517    9.0830   15.4481 H   0  0  0  0  0  0  0  0  0  0  0  0
   50.0493    9.2758   13.9133 H   0  0  0  0  0  0  0  0  0  0  0  0
   49.5624    7.6618   14.4558 H   0  0  0  0  0  0  0  0  0  0  0  0
  2  1  1  0
  3  1  2  0
  4  1  2  0
  5  8  1  0
  6  5  2  0
  7  1  1  0
  8 10  1  0
  9  7  1  0
 10  9  1  0
 11  5  1  0
 13 12  1  0
 14 12  2  0
 15 12  2  0
 16 19  1  0
 17 16  2  0
 18 12  1  0
 19 21  1  0
 20 18  1  0
 21 20  1  0
 22 16  1  0
  7 24  1  0
  7 25  1  0
  8 26  1  0
  9 27  1  0
  9 28  1  0
 10 29  1  0
 10 30  1  0
 11 31  1  0
 11 32  1  0
 11 33  1  0
 18 34  1  0
 18 35  1  0
 19 36  1  0
 20 37  1  0
 20 38  1  0
 21 39  1  0
 21 40  1  0
 22 41  1  0
 22 42  1  0
 22 43  1  0
M  CHG  3   2  -1  13  -1  23   2
M  END
> <Uni-Dock RESULT> 
ENERGY=   -3.938  LOWER_BOUND=    4.897  UPPER_BOUND=    6.862
INTER + INTRA:          -3.938
INTER:                  -3.938
INTRA:                   0.000
UNBOUND:                 0.000

$$$$

     RDKit          3D

 43 40  0  0  0  0  0  0  0  0999 V2000
   46.9894   12.4381   20.5658 S   0  0  0  0  0  0  0  0  0  0  0  0
   47.3770   12.3368   21.9707 O   0  0  0  0  0  0  0  0  0  0  0  0
   47.3821   13.6848   19.9133 O   0  0  0  0  0  0  0  0  0  0  0  0
   45.6305   11.9905   20.2685 O   0  0  0  0  0  0  0  0  0  0  0  0
   48.0825    6.8858   21.3411 C   0  0  0  0  0  0  0  0  0  0  0  0
   49.2621    6.9804   21.0175 O   0  0  0  0  0  0  0  0  0  0  0  0
   48.0168   11.2260   19.7630 C   0  0  0  0  0  0  0  0  0  0  0  0
   47.2548    7.9512   21.5924 N   0  0  0  0  0  0  0  0  0  0  0  0
   47.5807    9.7835   19.9917 C   0  0  0  0  0  0  0  0  0  0  0  0
   47.6786    9.3352   21.4465 C   0  0  0  0  0  0  0  0  0  0  0  0
   47.4075    5.5472   21.4794 C   0  0  0  0  0  0  0  0  0  0  0  0
   48.2125    5.7100   22.1451 S   0  0  0  0  0  0  0  0  0  0  0  0
   48.1822    4.4251   21.4505 O   0  0  0  0  0  0  0  0  0  0  0  0
   47.1460    5.9037   23.1255 O   0  0  0  0  0  0  0  0  0  0  0  0
   49.5384    6.1454   22.5774 O   0  0  0  0  0  0  0  0  0  0  0  0
   47.0807   11.6848   19.9109 C   0  0  0  0  0  0  0  0  0  0  0  0
   46.9797   11.5858   18.6924 O   0  0  0  0  0  0  0  0  0  0  0  0
   47.7983    6.8649   20.8575 C   0  0  0  0  0  0  0  0  0  0  0  0
   47.2951   10.6248   20.7589 N   0  0  0  0  0  0  0  0  0  0  0  0
   47.7789    8.3015   21.3603 C   0  0  0  0  0  0  0  0  0  0  0  0
   47.3315    9.2599   20.2690 C   0  0  0  0  0  0  0  0  0  0  0  0
   46.9593   13.0110   20.6128 C   0  0  0  0  0  0  0  0  0  0  0  0
   47.5318    9.1687   20.8240 Ca  0  0  0  0  0 15  0  0  0  0  0  0
   49.0476   11.3906   20.0932 H   0  0  0  0  0  0  0  0  0  0  0  0
   47.9682   11.4419   18.6895 H   0  0  0  0  0  0  0  0  0  0  0  0
   46.2631    7.8007   21.7183 H   0  0  0  0  0  0  0  0  0  0  0  0
   46.5543    9.6373   19.6330 H   0  0  0  0  0  0  0  0  0  0  0  0
   48.2102    9.1334   19.3709 H   0  0  0  0  0  0  0  0  0  0  0  0
   47.0156    9.9113   22.0953 H   0  0  0  0  0  0  0  0  0  0  0  0
   48.7062    9.4324   21.8124 H   0  0  0  0  0  0  0  0  0  0  0  0
   46.4590    5.6262   22.0180 H   0  0  0  0  0  0  0  0  0  0  0  0
   47.2193    5.1371   20.4837 H   0  0  0  0  0  0  0  0  0  0  0  0
   48.0616    4.8728   22.0389 H   0  0  0  0  0  0  0  0  0  0  0  0
   46.8162    6.5734   20.4694 H   0  0  0  0  0  0  0  0  0  0  0  0
   48.5368    6.7424   20.0580 H   0  0  0  0  0  0  0  0  0  0  0  0
   47.1383   10.7562   21.7503 H   0  0  0  0  0  0  0  0  0  0  0  0
   47.1059    8.3918   22.2219 H   0  0  0  0  0  0  0  0  0  0  0  0
   48.7743    8.5897   21.7201 H   0  0  0  0  0  0  0  0  0  0  0  0
   46.3236    9.0101   19.9186 H   0  0  0  0  0  0  0  0  0  0  0  0
   48.0057    9.2187   19.4060 H   0  0  0  0  0  0  0  0  0  0  0  0
   45.9072   13.3058   20.6422 H   0  0  0  0  0  0  0  0  0  0  0  0
   47.5377   13.7602   20.0649 H   0  0  0  0  0  0  0  0  0  0  0  0
   47.3462   12.9629   21.6347 H   0  0  0  0  0  0  0  0  0  0  0  0
  2  1  1  0
  3  1  2  0
  4  1  2  0
  5  8  1  0
  6  5  2  0
  7  1  1  0
  8 10  1  0
  9  7  1  0
 10  9  1  0
 11  5  1  0
 13 12  1  0
 14 12  2  0
 15 12  2  0
 16 19  1  0
 17 16  2  0
 18 12  1  0
 19 21  1  0
 20 18  1  0
 21 20  1  0
 22 16  1  0
  7 24  1  0
  7 25  1  0
  8 26  1  0
  9 27  1  0
  9 28  1  0
 10 29  1  0
 10 30  1  0
 11 31  1  0
 11 32  1  0
 11 33  1  0
 18 34  1  0
 18 35  1  0
 19 36  1  0
 20 37  1  0
 20 38  1  0
 21 39  1  0
 21 40  1  0
 22 41  1  0
 22 42  1  0
 22 43  1  0
M  CHG  3   2  -1  13  -1  23   2
M  END
> <Uni-Dock RESULT> 
ENERGY=   -3.489  LOWER_BOUND=   13.222  UPPER_BOUND=   14.265
INTER + INTRA:          -3.489
INTER:                  -3.489
INTRA:                   0.000
UNBOUND:                 0.000

$$$$
