
     RDKit          3D

 43 40  0  0  0  0  0  0  0  0999 V2000
   43.7769    3.0763   12.1029 S   0  0  0  0  0  0  0  0  0  0  0  0
   43.1281    2.4660   10.9405 O   0  0  0  0  0  0  0  0  0  0  0  0
   43.0351    4.1643   12.7379 O   0  0  0  0  0  0  0  0  0  0  0  0
   44.3981    2.1308   13.0244 O   0  0  0  0  0  0  0  0  0  0  0  0
   46.4006    3.7010    7.2812 C   0  0  0  0  0  0  0  0  0  0  0  0
   47.2762    4.4908    6.9281 O   0  0  0  0  0  0  0  0  0  0  0  0
   45.1755    3.9082   11.3806 C   0  0  0  0  0  0  0  0  0  0  0  0
   45.5853    3.8983    8.3685 N   0  0  0  0  0  0  0  0  0  0  0  0
   44.7534    5.0043   10.4034 C   0  0  0  0  0  0  0  0  0  0  0  0
   45.6934    5.0790    9.2079 C   0  0  0  0  0  0  0  0  0  0  0  0
   46.1292    2.4236    6.5268 C   0  0  0  0  0  0  0  0  0  0  0  0
   43.4034    6.0252   11.7923 S   0  0  0  0  0  0  0  0  0  0  0  0
   44.6567    6.7691   11.9083 O   0  0  0  0  0  0  0  0  0  0  0  0
   42.7305    5.7547   13.0627 O   0  0  0  0  0  0  0  0  0  0  0  0
   42.5243    6.4536   10.7061 O   0  0  0  0  0  0  0  0  0  0  0  0
   46.4708    2.0057    7.7527 C   0  0  0  0  0  0  0  0  0  0  0  0
   46.0572    0.8799    8.0179 O   0  0  0  0  0  0  0  0  0  0  0  0
   43.9339    4.4083   11.2758 C   0  0  0  0  0  0  0  0  0  0  0  0
   46.0751    3.1450    8.4106 N   0  0  0  0  0  0  0  0  0  0  0  0
   44.6875    4.4420    9.9546 C   0  0  0  0  0  0  0  0  0  0  0  0
   45.2693    3.0781    9.6159 C   0  0  0  0  0  0  0  0  0  0  0  0
   47.4333    2.2512    6.6207 C   0  0  0  0  0  0  0  0  0  0  0  0
   45.2575    3.7583    9.4634 Ca  0  0  0  0  0 15  0  0  0  0  0  0
   45.7796    3.1228   10.8969 H   0  0  0  0  0  0  0  0  0  0  0  0
   45.7746    4.3331   12.1968 H   0  0  0  0  0  0  0  0  0  0  0  0
   44.8316    3.2370    8.5744 H   0  0  0  0  0  0  0  0  0  0  0  0
   44.7477    5.9676   10.9307 H   0  0  0  0  0  0  0  0  0  0  0  0
   43.7300    4.8510   10.0320 H   0  0  0  0  0  0  0  0  0  0  0  0
   45.4468    5.9472    8.5875 H   0  0  0  0  0  0  0  0  0  0  0  0
   46.7397    5.1897    9.5304 H   0  0  0  0  0  0  0  0  0  0  0  0
   47.0653    1.8575    6.4294 H   0  0  0  0  0  0  0  0  0  0  0  0
   45.3901    1.7916    7.0381 H   0  0  0  0  0  0  0  0  0  0  0  0
   45.7462    2.6800    5.5320 H   0  0  0  0  0  0  0  0  0  0  0  0
   44.5694    4.0149   12.0775 H   0  0  0  0  0  0  0  0  0  0  0  0
   43.0437    3.7773   11.1982 H   0  0  0  0  0  0  0  0  0  0  0  0
   46.6268    3.9879    8.2838 H   0  0  0  0  0  0  0  0  0  0  0  0
   45.4969    5.1808    9.9999 H   0  0  0  0  0  0  0  0  0  0  0  0
   44.0216    4.7705    9.1494 H   0  0  0  0  0  0  0  0  0  0  0  0
   45.9261    2.7268   10.4199 H   0  0  0  0  0  0  0  0  0  0  0  0
   44.4770    2.3302    9.4803 H   0  0  0  0  0  0  0  0  0  0  0  0
   46.9063    2.0994    5.6657 H   0  0  0  0  0  0  0  0  0  0  0  0
   47.8256    3.2736    6.6418 H   0  0  0  0  0  0  0  0  0  0  0  0
   48.2717    1.5499    6.6969 H   0  0  0  0  0  0  0  0  0  0  0  0
  2  1  1  0
  3  1  2  0
  4  1  2  0
  5  8  1  0
  6  5  2  0
  7  1  1  0
  8 10  1  0
  9  7  1  0
 10  9  1  0
 11  5  1  0
 13 12  1  0
 14 12  2  0
 15 12  2  0
 16 19  1  0
 17 16  2  0
 18 12  1  0
 19 21  1  0
 20 18  1  0
 21 20  1  0
 22 16  1  0
  7 24  1  0
  7 25  1  0
  8 26  1  0
  9 27  1  0
  9 28  1  0
 10 29  1  0
 10 30  1  0
 11 31  1  0
 11 32  1  0
 11 33  1  0
 18 34  1  0
 18 35  1  0
 19 36  1  0
 20 37  1  0
 20 38  1  0
 21 39  1  0
 21 40  1  0
 22 41  1  0
 22 42  1  0
 22 43  1  0
M  CHG  3   2  -1  13  -1  23   2
M  END
> <Uni-Dock RESULT> 
ENERGY=   -4.892  LOWER_BOUND=    0.000  UPPER_BOUND=    0.000
INTER + INTRA:          -4.892
INTER:                  -4.892
INTRA:                   0.000
UNBOUND:                 0.000

$$$$

     RDKit          3D

 43 40  0  0  0  0  0  0  0  0999 V2000
   44.5834    4.5164   11.8946 S   0  0  0  0  0  0  0  0  0  0  0  0
   43.4908    5.2308   12.5582 O   0  0  0  0  0  0  0  0  0  0  0  0
   45.3950    3.6635   12.7613 O   0  0  0  0  0  0  0  0  0  0  0  0
   44.2385    3.9346   10.6016 O   0  0  0  0  0  0  0  0  0  0  0  0
   44.9909   10.0258   11.9398 C   0  0  0  0  0  0  0  0  0  0  0  0
   45.9528   10.7718   11.7563 O   0  0  0  0  0  0  0  0  0  0  0  0
   45.7028    5.8296   11.4564 C   0  0  0  0  0  0  0  0  0  0  0  0
   45.1045    8.6972   12.2683 N   0  0  0  0  0  0  0  0  0  0  0  0
   46.2470    6.5578   12.6845 C   0  0  0  0  0  0  0  0  0  0  0  0
   46.3958    8.0512   12.4279 C   0  0  0  0  0  0  0  0  0  0  0  0
   43.5695   10.5180   11.8313 C   0  0  0  0  0  0  0  0  0  0  0  0
   46.9410    4.7553   13.7156 S   0  0  0  0  0  0  0  0  0  0  0  0
   48.1346    5.2522   13.0330 O   0  0  0  0  0  0  0  0  0  0  0  0
   46.7481    3.3073   13.6386 O   0  0  0  0  0  0  0  0  0  0  0  0
   46.6853    5.3440   15.0288 O   0  0  0  0  0  0  0  0  0  0  0  0
   43.6502    9.5622   10.8965 C   0  0  0  0  0  0  0  0  0  0  0  0
   42.5599    9.0886   10.5866 O   0  0  0  0  0  0  0  0  0  0  0  0
   45.6087    5.3833   12.7192 C   0  0  0  0  0  0  0  0  0  0  0  0
   44.6538    8.8479   11.5046 N   0  0  0  0  0  0  0  0  0  0  0  0
   45.6138    6.9026   12.6385 C   0  0  0  0  0  0  0  0  0  0  0  0
   44.5692    7.4068   11.6547 C   0  0  0  0  0  0  0  0  0  0  0  0
   43.9740   11.0169   10.6795 C   0  0  0  0  0  0  0  0  0  0  0  0
   45.1230    7.5675   12.0465 Ca  0  0  0  0  0 15  0  0  0  0  0  0
   45.1385    6.4988   10.7860 H   0  0  0  0  0  0  0  0  0  0  0  0
   46.5253    5.3927   10.8749 H   0  0  0  0  0  0  0  0  0  0  0  0
   44.2683    8.1434   12.4723 H   0  0  0  0  0  0  0  0  0  0  0  0
   47.2226    6.1284   12.9489 H   0  0  0  0  0  0  0  0  0  0  0  0
   45.6015    6.4185   13.5635 H   0  0  0  0  0  0  0  0  0  0  0  0
   46.9013    8.5309   13.2728 H   0  0  0  0  0  0  0  0  0  0  0  0
   47.0011    8.2423   11.5289 H   0  0  0  0  0  0  0  0  0  0  0  0
   43.4303   11.0032   10.8559 H   0  0  0  0  0  0  0  0  0  0  0  0
   42.8416    9.7000   11.9219 H   0  0  0  0  0  0  0  0  0  0  0  0
   43.3883   11.2421   12.6344 H   0  0  0  0  0  0  0  0  0  0  0  0
   45.7242    4.9394   11.7237 H   0  0  0  0  0  0  0  0  0  0  0  0
   44.6721    5.0215   13.1533 H   0  0  0  0  0  0  0  0  0  0  0  0
   45.5870    9.2480   11.5174 H   0  0  0  0  0  0  0  0  0  0  0  0
   46.6040    7.2614   12.3321 H   0  0  0  0  0  0  0  0  0  0  0  0
   45.4280    7.3330   13.6284 H   0  0  0  0  0  0  0  0  0  0  0  0
   44.7309    6.9723   10.6616 H   0  0  0  0  0  0  0  0  0  0  0  0
   43.5553    7.1357   11.9774 H   0  0  0  0  0  0  0  0  0  0  0  0
   43.3858   11.6221   11.3868 H   0  0  0  0  0  0  0  0  0  0  0  0
   45.0368   11.2211   10.8484 H   0  0  0  0  0  0  0  0  0  0  0  0
   43.7199   11.2971    9.6512 H   0  0  0  0  0  0  0  0  0  0  0  0
  2  1  1  0
  3  1  2  0
  4  1  2  0
  5  8  1  0
  6  5  2  0
  7  1  1  0
  8 10  1  0
  9  7  1  0
 10  9  1  0
 11  5  1  0
 13 12  1  0
 14 12  2  0
 15 12  2  0
 16 19  1  0
 17 16  2  0
 18 12  1  0
 19 21  1  0
 20 18  1  0
 21 20  1  0
 22 16  1  0
  7 24  1  0
  7 25  1  0
  8 26  1  0
  9 27  1  0
  9 28  1  0
 10 29  1  0
 10 30  1  0
 11 31  1  0
 11 32  1  0
 11 33  1  0
 18 34  1  0
 18 35  1  0
 19 36  1  0
 20 37  1  0
 20 38  1  0
 21 39  1  0
 21 40  1  0
 22 41  1  0
 22 42  1  0
 22 43  1  0
M  CHG  3   2  -1  13  -1  23   2
M  END
> <Uni-Dock RESULT> 
ENERGY=   -4.338  LOWER_BOUND=    3.927  UPPER_BOUND=    5.886
INTER + INTRA:          -4.338
INTER:                  -4.338
INTRA:                   0.000
UNBOUND:                 0.000

$$$$

     RDKit          3D

 43 40  0  0  0  0  0  0  0  0999 V2000
   46.1704    5.1817   12.9861 S   0  0  0  0  0  0  0  0  0  0  0  0
   46.9117    6.0107   12.0333 O   0  0  0  0  0  0  0  0  0  0  0  0
   45.9437    3.7980   12.5724 O   0  0  0  0  0  0  0  0  0  0  0  0
   46.5611    5.3541   14.3814 O   0  0  0  0  0  0  0  0  0  0  0  0
   43.3770    9.4197   10.8049 C   0  0  0  0  0  0  0  0  0  0  0  0
   42.1695    9.6487   10.7360 O   0  0  0  0  0  0  0  0  0  0  0  0
   44.5381    5.8909   12.9374 C   0  0  0  0  0  0  0  0  0  0  0  0
   43.9080    8.1737   11.0316 N   0  0  0  0  0  0  0  0  0  0  0  0
   43.8972    5.7694   11.5558 C   0  0  0  0  0  0  0  0  0  0  0  0
   43.0701    7.0011   11.2135 C   0  0  0  0  0  0  0  0  0  0  0  0
   44.4052   10.5089   10.6290 C   0  0  0  0  0  0  0  0  0  0  0  0
   44.2170    3.6125   11.3572 S   0  0  0  0  0  0  0  0  0  0  0  0
   42.8476    3.7209   11.8577 O   0  0  0  0  0  0  0  0  0  0  0  0
   45.0186    2.5623   11.9853 O   0  0  0  0  0  0  0  0  0  0  0  0
   44.3585    3.7135    9.9060 O   0  0  0  0  0  0  0  0  0  0  0  0
   44.6319   10.0507   11.8670 C   0  0  0  0  0  0  0  0  0  0  0  0
   45.7669   10.2848   12.2743 O   0  0  0  0  0  0  0  0  0  0  0  0
   44.9876    5.1023   11.9481 C   0  0  0  0  0  0  0  0  0  0  0  0
   44.1391    8.7873   11.6474 N   0  0  0  0  0  0  0  0  0  0  0  0
   44.3000    6.3549   11.4259 C   0  0  0  0  0  0  0  0  0  0  0  0
   44.8719    7.6082   12.0706 C   0  0  0  0  0  0  0  0  0  0  0  0
   43.6720   11.1561   11.5136 C   0  0  0  0  0  0  0  0  0  0  0  0
   44.3620    7.3374   11.6799 Ca  0  0  0  0  0 15  0  0  0  0  0  0
   44.6529    6.9398   13.2574 H   0  0  0  0  0  0  0  0  0  0  0  0
   43.9245    5.3789   13.6903 H   0  0  0  0  0  0  0  0  0  0  0  0
   44.9219    8.0344   11.0135 H   0  0  0  0  0  0  0  0  0  0  0  0
   43.2573    4.8770   11.5381 H   0  0  0  0  0  0  0  0  0  0  0  0
   44.6485    5.6246   10.7663 H   0  0  0  0  0  0  0  0  0  0  0  0
   42.5224    6.8401   10.2788 H   0  0  0  0  0  0  0  0  0  0  0  0
   42.3288    7.2137   11.9986 H   0  0  0  0  0  0  0  0  0  0  0  0
   44.1838   11.3285   11.3257 H   0  0  0  0  0  0  0  0  0  0  0  0
   45.4247   10.1494   10.8249 H   0  0  0  0  0  0  0  0  0  0  0  0
   44.3526   10.8756    9.5971 H   0  0  0  0  0  0  0  0  0  0  0  0
   44.9488    5.0635   13.0429 H   0  0  0  0  0  0  0  0  0  0  0  0
   46.0362    5.0778   11.6376 H   0  0  0  0  0  0  0  0  0  0  0  0
   43.1362    8.6772   11.5324 H   0  0  0  0  0  0  0  0  0  0  0  0
   43.2223    6.3047   11.6236 H   0  0  0  0  0  0  0  0  0  0  0  0
   44.4063    6.4171   10.3376 H   0  0  0  0  0  0  0  0  0  0  0  0
   44.7883    7.5549   13.1620 H   0  0  0  0  0  0  0  0  0  0  0  0
   45.9340    7.7340   11.8222 H   0  0  0  0  0  0  0  0  0  0  0  0
   44.0201   11.6495   10.5928 H   0  0  0  0  0  0  0  0  0  0  0  0
   42.6617   10.7703   11.3400 H   0  0  0  0  0  0  0  0  0  0  0  0
   43.6361   11.8830   12.3327 H   0  0  0  0  0  0  0  0  0  0  0  0
  2  1  1  0
  3  1  2  0
  4  1  2  0
  5  8  1  0
  6  5  2  0
  7  1  1  0
  8 10  1  0
  9  7  1  0
 10  9  1  0
 11  5  1  0
 13 12  1  0
 14 12  2  0
 15 12  2  0
 16 19  1  0
 17 16  2  0
 18 12  1  0
 19 21  1  0
 20 18  1  0
 21 20  1  0
 22 16  1  0
  7 24  1  0
  7 25  1  0
  8 26  1  0
  9 27  1  0
  9 28  1  0
 10 29  1  0
 10 30  1  0
 11 31  1  0
 11 32  1  0
 11 33  1  0
 18 34  1  0
 18 35  1  0
 19 36  1  0
 20 37  1  0
 20 38  1  0
 21 39  1  0
 21 40  1  0
 22 41  1  0
 22 42  1  0
 22 43  1  0
M  CHG  3   2  -1  13  -1  23   2
M  END
> <Uni-Dock RESULT> 
ENERGY=   -4.146  LOWER_BOUND=    3.688  UPPER_BOUND=    5.820
INTER + INTRA:          -4.146
INTER:                  -4.146
INTRA:                   0.000
UNBOUND:                 0.000

$$$$

     RDKit          3D

 43 40  0  0  0  0  0  0  0  0999 V2000
   49.5431    5.4212   18.5596 S   0  0  0  0  0  0  0  0  0  0  0  0
   50.1009    4.7790   19.7516 O   0  0  0  0  0  0  0  0  0  0  0  0
   48.0885    5.3523   18.4306 O   0  0  0  0  0  0  0  0  0  0  0  0
   50.1331    6.7137   18.2273 O   0  0  0  0  0  0  0  0  0  0  0  0
   52.8071    1.0603   17.6369 C   0  0  0  0  0  0  0  0  0  0  0  0
   52.9389    0.3375   16.6492 O   0  0  0  0  0  0  0  0  0  0  0  0
   50.1161    4.3696   17.2422 C   0  0  0  0  0  0  0  0  0  0  0  0
   51.7115    1.8572   17.8613 N   0  0  0  0  0  0  0  0  0  0  0  0
   49.5648    2.9492   17.3563 C   0  0  0  0  0  0  0  0  0  0  0  0
   50.5969    1.9136   16.9314 C   0  0  0  0  0  0  0  0  0  0  0  0
   53.8543    1.1270   18.7202 C   0  0  0  0  0  0  0  0  0  0  0  0
   47.4639    3.5442   17.5176 S   0  0  0  0  0  0  0  0  0  0  0  0
   47.6362    3.2414   16.0977 O   0  0  0  0  0  0  0  0  0  0  0  0
   46.6864    4.7513   17.7977 O   0  0  0  0  0  0  0  0  0  0  0  0
   47.1486    2.3956   18.3646 O   0  0  0  0  0  0  0  0  0  0  0  0
   53.7871    2.3836   18.2613 C   0  0  0  0  0  0  0  0  0  0  0  0
   54.1915    3.2196   19.0652 O   0  0  0  0  0  0  0  0  0  0  0  0
   49.1013    4.0007   18.0401 C   0  0  0  0  0  0  0  0  0  0  0  0
   52.4888    2.3078   17.8185 N   0  0  0  0  0  0  0  0  0  0  0  0
   50.1091    2.8812   17.8264 C   0  0  0  0  0  0  0  0  0  0  0  0
   51.5251    3.3482   18.1273 C   0  0  0  0  0  0  0  0  0  0  0  0
   54.6879    1.3077   17.7145 C   0  0  0  0  0  0  0  0  0  0  0  0
   51.1249    2.8480   17.8520 Ca  0  0  0  0  0 15  0  0  0  0  0  0
   51.2174    4.3985   17.2875 H   0  0  0  0  0  0  0  0  0  0  0  0
   49.8105    4.8233   16.2902 H   0  0  0  0  0  0  0  0  0  0  0  0
   51.6294    2.3871   18.7332 H   0  0  0  0  0  0  0  0  0  0  0  0
   48.6713    2.8629   16.7236 H   0  0  0  0  0  0  0  0  0  0  0  0
   49.2398    2.7163   18.3805 H   0  0  0  0  0  0  0  0  0  0  0  0
   50.1423    0.9176   16.9021 H   0  0  0  0  0  0  0  0  0  0  0  0
   50.9859    2.1290   15.9248 H   0  0  0  0  0  0  0  0  0  0  0  0
   54.8268    1.3611   18.2666 H   0  0  0  0  0  0  0  0  0  0  0  0
   53.6240    1.8966   19.4698 H   0  0  0  0  0  0  0  0  0  0  0  0
   53.9034    0.1520   19.2191 H   0  0  0  0  0  0  0  0  0  0  0  0
   49.3787    4.8907   17.4636 H   0  0  0  0  0  0  0  0  0  0  0  0
   49.0463    4.2760   19.0973 H   0  0  0  0  0  0  0  0  0  0  0  0
   52.2946    1.7434   16.9971 H   0  0  0  0  0  0  0  0  0  0  0  0
   50.0584    2.5194   16.7922 H   0  0  0  0  0  0  0  0  0  0  0  0
   49.8597    2.0237   18.4605 H   0  0  0  0  0  0  0  0  0  0  0  0
   51.7852    4.2172   17.5122 H   0  0  0  0  0  0  0  0  0  0  0  0
   51.6324    3.6395   19.1804 H   0  0  0  0  0  0  0  0  0  0  0  0
   54.9124    0.5887   18.5177 H   0  0  0  0  0  0  0  0  0  0  0  0
   54.2129    0.7678   16.8883 H   0  0  0  0  0  0  0  0  0  0  0  0
   55.6175    1.7605   17.3519 H   0  0  0  0  0  0  0  0  0  0  0  0
  2  1  1  0
  3  1  2  0
  4  1  2  0
  5  8  1  0
  6  5  2  0
  7  1  1  0
  8 10  1  0
  9  7  1  0
 10  9  1  0
 11  5  1  0
 13 12  1  0
 14 12  2  0
 15 12  2  0
 16 19  1  0
 17 16  2  0
 18 12  1  0
 19 21  1  0
 20 18  1  0
 21 20  1  0
 22 16  1  0
  7 24  1  0
  7 25  1  0
  8 26  1  0
  9 27  1  0
  9 28  1  0
 10 29  1  0
 10 30  1  0
 11 31  1  0
 11 32  1  0
 11 33  1  0
 18 34  1  0
 18 35  1  0
 19 36  1  0
 20 37  1  0
 20 38  1  0
 21 39  1  0
 21 40  1  0
 22 41  1  0
 22 42  1  0
 22 43  1  0
M  CHG  3   2  -1  13  -1  23   2
M  END
> <Uni-Dock RESULT> 
ENERGY=   -3.764  LOWER_BOUND=    9.091  UPPER_BOUND=   10.426
INTER + INTRA:          -3.764
INTER:                  -3.764
INTRA:                   0.000
UNBOUND:                 0.000

$$$$

     RDKit          3D

 43 40  0  0  0  0  0  0  0  0999 V2000
   42.7215   11.2394    9.9706 S   0  0  0  0  0  0  0  0  0  0  0  0
   43.1920   10.2055    9.0462 O   0  0  0  0  0  0  0  0  0  0  0  0
   43.3245   12.5598    9.7970 O   0  0  0  0  0  0  0  0  0  0  0  0
   41.2811   11.2429   10.2038 O   0  0  0  0  0  0  0  0  0  0  0  0
   45.4466    7.0188   12.2690 C   0  0  0  0  0  0  0  0  0  0  0  0
   45.9909    6.9035   13.3670 O   0  0  0  0  0  0  0  0  0  0  0  0
   43.3784   10.6972   11.5340 C   0  0  0  0  0  0  0  0  0  0  0  0
   45.1411    8.2255   11.6891 N   0  0  0  0  0  0  0  0  0  0  0  0
   44.9061   10.6706   11.5400 C   0  0  0  0  0  0  0  0  0  0  0  0
   45.4409    9.4898   12.3387 C   0  0  0  0  0  0  0  0  0  0  0  0
   45.0700    5.8185   11.4371 C   0  0  0  0  0  0  0  0  0  0  0  0
   45.1617   12.7295   10.8405 S   0  0  0  0  0  0  0  0  0  0  0  0
   45.2710   12.8354   12.2945 O   0  0  0  0  0  0  0  0  0  0  0  0
   44.3616   13.7778   10.2073 O   0  0  0  0  0  0  0  0  0  0  0  0
   46.4037   12.3955   10.1461 O   0  0  0  0  0  0  0  0  0  0  0  0
   43.9015    6.4346   11.6585 C   0  0  0  0  0  0  0  0  0  0  0  0
   43.0367    6.1533   10.8328 O   0  0  0  0  0  0  0  0  0  0  0  0
   44.1610   11.2776   10.6102 C   0  0  0  0  0  0  0  0  0  0  0  0
   44.4286    7.6927   11.8216 N   0  0  0  0  0  0  0  0  0  0  0  0
   44.7981   10.0349   11.2141 C   0  0  0  0  0  0  0  0  0  0  0  0
   43.8549    8.8435   11.1485 C   0  0  0  0  0  0  0  0  0  0  0  0
   44.5141    5.3896   12.5533 C   0  0  0  0  0  0  0  0  0  0  0  0
   44.4473    9.1012   11.4107 Ca  0  0  0  0  0 15  0  0  0  0  0  0
   42.9393    9.7029   11.7197 H   0  0  0  0  0  0  0  0  0  0  0  0
   43.0044   11.3763   12.3115 H   0  0  0  0  0  0  0  0  0  0  0  0
   44.7475    8.2588   10.7448 H   0  0  0  0  0  0  0  0  0  0  0  0
   45.2761   11.6092   11.9738 H   0  0  0  0  0  0  0  0  0  0  0  0
   45.3195   10.6182   10.5226 H   0  0  0  0  0  0  0  0  0  0  0  0
   46.5297    9.5606   12.4338 H   0  0  0  0  0  0  0  0  0  0  0  0
   45.0207    9.4739   13.3557 H   0  0  0  0  0  0  0  0  0  0  0  0
   44.4533    5.1405   12.0423 H   0  0  0  0  0  0  0  0  0  0  0  0
   44.5021    6.1003   10.5397 H   0  0  0  0  0  0  0  0  0  0  0  0
   45.9885    5.3063   11.1269 H   0  0  0  0  0  0  0  0  0  0  0  0
   43.1921   11.4859   11.0784 H   0  0  0  0  0  0  0  0  0  0  0  0
   44.0059   11.1500    9.5350 H   0  0  0  0  0  0  0  0  0  0  0  0
   44.9621    7.8835   12.6642 H   0  0  0  0  0  0  0  0  0  0  0  0
   45.0747   10.2218   12.2589 H   0  0  0  0  0  0  0  0  0  0  0  0
   45.7308    9.7978   10.6910 H   0  0  0  0  0  0  0  0  0  0  0  0
   42.9091    9.0701   11.6536 H   0  0  0  0  0  0  0  0  0  0  0  0
   43.6234    8.5762   10.1090 H   0  0  0  0  0  0  0  0  0  0  0  0
   45.1525    4.7298   11.9453 H   0  0  0  0  0  0  0  0  0  0  0  0
   45.1306    5.8432   13.3368 H   0  0  0  0  0  0  0  0  0  0  0  0
   43.7185    4.8029   13.0258 H   0  0  0  0  0  0  0  0  0  0  0  0
  2  1  1  0
  3  1  2  0
  4  1  2  0
  5  8  1  0
  6  5  2  0
  7  1  1  0
  8 10  1  0
  9  7  1  0
 10  9  1  0
 11  5  1  0
 13 12  1  0
 14 12  2  0
 15 12  2  0
 16 19  1  0
 17 16  2  0
 18 12  1  0
 19 21  1  0
 20 18  1  0
 21 20  1  0
 22 16  1  0
  7 24  1  0
  7 25  1  0
  8 26  1  0
  9 27  1  0
  9 28  1  0
 10 29  1  0
 10 30  1  0
 11 31  1  0
 11 32  1  0
 11 33  1  0
 18 34  1  0
 18 35  1  0
 19 36  1  0
 20 37  1  0
 20 38  1  0
 21 39  1  0
 21 40  1  0
 22 41  1  0
 22 42  1  0
 22 43  1  0
M  CHG  3   2  -1  13  -1  23   2
M  END
> <Uni-Dock RESULT> 
ENERGY=   -3.669  LOWER_BOUND=    5.000  UPPER_BOUND=    6.973
INTER + INTRA:          -3.669
INTER:                  -3.669
INTRA:                   0.000
UNBOUND:                 0.000

$$$$

     RDKit          3D

 43 40  0  0  0  0  0  0  0  0999 V2000
   44.9893    5.7296   10.4305 S   0  0  0  0  0  0  0  0  0  0  0  0
   45.0505    7.1154   10.8997 O   0  0  0  0  0  0  0  0  0  0  0  0
   43.6858    5.0798   10.5570 O   0  0  0  0  0  0  0  0  0  0  0  0
   45.6871    5.4769    9.1742 O   0  0  0  0  0  0  0  0  0  0  0  0
   48.2714    6.6534   14.7774 C   0  0  0  0  0  0  0  0  0  0  0  0
   48.7460    5.8871   15.6157 O   0  0  0  0  0  0  0  0  0  0  0  0
   45.9890    4.8660   11.6239 C   0  0  0  0  0  0  0  0  0  0  0  0
   47.1876    6.3506   13.9903 N   0  0  0  0  0  0  0  0  0  0  0  0
   45.4056    4.9489   13.0336 C   0  0  0  0  0  0  0  0  0  0  0  0
   46.5000    5.0745   14.0846 C   0  0  0  0  0  0  0  0  0  0  0  0
   48.8419    8.0298   14.5436 C   0  0  0  0  0  0  0  0  0  0  0  0
   43.4081    4.2408   12.4836 S   0  0  0  0  0  0  0  0  0  0  0  0
   44.0896    3.0380   12.9592 O   0  0  0  0  0  0  0  0  0  0  0  0
   42.6074    4.0546   11.2736 O   0  0  0  0  0  0  0  0  0  0  0  0
   42.7768    5.0504   13.5240 O   0  0  0  0  0  0  0  0  0  0  0  0
   48.9761    7.4213   13.3580 C   0  0  0  0  0  0  0  0  0  0  0  0
   49.0700    8.2033   12.4153 O   0  0  0  0  0  0  0  0  0  0  0  0
   44.7429    5.2705   11.9176 C   0  0  0  0  0  0  0  0  0  0  0  0
   47.9343    6.5419   13.5267 N   0  0  0  0  0  0  0  0  0  0  0  0
   45.7346    5.5920   13.0256 C   0  0  0  0  0  0  0  0  0  0  0  0
   46.9465    6.3343   12.4837 C   0  0  0  0  0  0  0  0  0  0  0  0
   49.9933    7.3912   14.4682 C   0  0  0  0  0  0  0  0  0  0  0  0
   46.6672    5.9970   13.0261 Ca  0  0  0  0  0 15  0  0  0  0  0  0
   46.9950    5.3128   11.5578 H   0  0  0  0  0  0  0  0  0  0  0  0
   46.0687    3.8188   11.3037 H   0  0  0  0  0  0  0  0  0  0  0  0
   46.7983    7.0538   13.3566 H   0  0  0  0  0  0  0  0  0  0  0  0
   44.8098    4.0465   13.2253 H   0  0  0  0  0  0  0  0  0  0  0  0
   44.7184    5.8000   13.1437 H   0  0  0  0  0  0  0  0  0  0  0  0
   46.0685    5.0069   15.0890 H   0  0  0  0  0  0  0  0  0  0  0  0
   47.2398    4.2655   13.9877 H   0  0  0  0  0  0  0  0  0  0  0  0
   49.9180    7.9436   14.3412 H   0  0  0  0  0  0  0  0  0  0  0  0
   48.3654    8.5347   13.6920 H   0  0  0  0  0  0  0  0  0  0  0  0
   48.6818    8.6322   15.4456 H   0  0  0  0  0  0  0  0  0  0  0  0
   45.2331    4.7289   11.1004 H   0  0  0  0  0  0  0  0  0  0  0  0
   44.3046    6.1869   11.5119 H   0  0  0  0  0  0  0  0  0  0  0  0
   48.0477    5.7870   14.1962 H   0  0  0  0  0  0  0  0  0  0  0  0
   46.0646    4.6687   13.5172 H   0  0  0  0  0  0  0  0  0  0  0  0
   45.2497    6.1928   13.8025 H   0  0  0  0  0  0  0  0  0  0  0  0
   47.4346    5.7535   11.6927 H   0  0  0  0  0  0  0  0  0  0  0  0
   46.6607    7.3052   12.0580 H   0  0  0  0  0  0  0  0  0  0  0  0
   49.8881    8.3056   15.0726 H   0  0  0  0  0  0  0  0  0  0  0  0
   49.8483    6.5245   15.1221 H   0  0  0  0  0  0  0  0  0  0  0  0
   51.0001    7.3446   14.0386 H   0  0  0  0  0  0  0  0  0  0  0  0
  2  1  1  0
  3  1  2  0
  4  1  2  0
  5  8  1  0
  6  5  2  0
  7  1  1  0
  8 10  1  0
  9  7  1  0
 10  9  1  0
 11  5  1  0
 13 12  1  0
 14 12  2  0
 15 12  2  0
 16 19  1  0
 17 16  2  0
 18 12  1  0
 19 21  1  0
 20 18  1  0
 21 20  1  0
 22 16  1  0
  7 24  1  0
  7 25  1  0
  8 26  1  0
  9 27  1  0
  9 28  1  0
 10 29  1  0
 10 30  1  0
 11 31  1  0
 11 32  1  0
 11 33  1  0
 18 34  1  0
 18 35  1  0
 19 36  1  0
 20 37  1  0
 20 38  1  0
 21 39  1  0
 21 40  1  0
 22 41  1  0
 22 42  1  0
 22 43  1  0
M  CHG  3   2  -1  13  -1  23   2
M  END
> <Uni-Dock RESULT> 
ENERGY=   -3.668  LOWER_BOUND=    3.921  UPPER_BOUND=    5.785
INTER + INTRA:          -3.668
INTER:                  -3.668
INTRA:                   0.000
UNBOUND:                 0.000

$$$$

     RDKit          3D

 43 40  0  0  0  0  0  0  0  0999 V2000
   48.4531   11.3930   22.2573 S   0  0  0  0  0  0  0  0  0  0  0  0
   47.6904   10.5563   23.1861 O   0  0  0  0  0  0  0  0  0  0  0  0
   47.7317   12.5385   21.7054 O   0  0  0  0  0  0  0  0  0  0  0  0
   49.8272   11.6656   22.6656 O   0  0  0  0  0  0  0  0  0  0  0  0
   47.4973    6.2116   20.5955 C   0  0  0  0  0  0  0  0  0  0  0  0
   47.5471    5.6929   19.4803 O   0  0  0  0  0  0  0  0  0  0  0  0
   48.6592   10.3269   20.8464 C   0  0  0  0  0  0  0  0  0  0  0  0
   47.3912    7.5645   20.8063 N   0  0  0  0  0  0  0  0  0  0  0  0
   47.3232    9.9504   20.2076 C   0  0  0  0  0  0  0  0  0  0  0  0
   47.3290    8.5124   19.7073 C   0  0  0  0  0  0  0  0  0  0  0  0
   47.5357    5.3888   21.8588 C   0  0  0  0  0  0  0  0  0  0  0  0
   46.5971   12.0052   19.9963 S   0  0  0  0  0  0  0  0  0  0  0  0
   47.1781   11.7008   18.6897 O   0  0  0  0  0  0  0  0  0  0  0  0
   46.9133   13.3365   20.5134 O   0  0  0  0  0  0  0  0  0  0  0  0
   45.2072   11.5882   20.1712 O   0  0  0  0  0  0  0  0  0  0  0  0
   48.6144    6.1766   21.9564 C   0  0  0  0  0  0  0  0  0  0  0  0
   49.0076    6.3259   23.1105 O   0  0  0  0  0  0  0  0  0  0  0  0
   47.4880   10.9325   21.1000 C   0  0  0  0  0  0  0  0  0  0  0  0
   48.1236    7.1934   21.1738 N   0  0  0  0  0  0  0  0  0  0  0  0
   47.3173    9.4638   20.7416 C   0  0  0  0  0  0  0  0  0  0  0  0
   48.2137    8.5795   21.5947 C   0  0  0  0  0  0  0  0  0  0  0  0
   48.5859    4.8231   21.2966 C   0  0  0  0  0  0  0  0  0  0  0  0
   47.7960    8.6172   21.0379 Ca  0  0  0  0  0 15  0  0  0  0  0  0
   49.2151    9.4466   21.2094 H   0  0  0  0  0  0  0  0  0  0  0  0
   49.2976   10.8470   20.1201 H   0  0  0  0  0  0  0  0  0  0  0  0
   47.2886    7.9317   21.7562 H   0  0  0  0  0  0  0  0  0  0  0  0
   47.1247   10.6330   19.3706 H   0  0  0  0  0  0  0  0  0  0  0  0
   46.4848   10.0714   20.9085 H   0  0  0  0  0  0  0  0  0  0  0  0
   46.4122    8.3046   19.1453 H   0  0  0  0  0  0  0  0  0  0  0  0
   48.1789    8.3290   19.0327 H   0  0  0  0  0  0  0  0  0  0  0  0
   48.4190    4.7365   21.8366 H   0  0  0  0  0  0  0  0  0  0  0  0
   47.5874    6.0168   22.7588 H   0  0  0  0  0  0  0  0  0  0  0  0
   46.6259    4.7787   21.9061 H   0  0  0  0  0  0  0  0  0  0  0  0
   48.5420   11.2280   21.0431 H   0  0  0  0  0  0  0  0  0  0  0  0
   47.1277   11.1283   22.1141 H   0  0  0  0  0  0  0  0  0  0  0  0
   48.0368    7.0307   20.1752 H   0  0  0  0  0  0  0  0  0  0  0  0
   47.5518    9.3036   19.6822 H   0  0  0  0  0  0  0  0  0  0  0  0
   46.2717    9.1639   20.8697 H   0  0  0  0  0  0  0  0  0  0  0  0
   49.2633    8.8772   21.4908 H   0  0  0  0  0  0  0  0  0  0  0  0
   47.9489    8.6525   22.6578 H   0  0  0  0  0  0  0  0  0  0  0  0
   47.7938    4.2163   21.7624 H   0  0  0  0  0  0  0  0  0  0  0  0
   48.3765    4.9034   20.2246 H   0  0  0  0  0  0  0  0  0  0  0  0
   49.5562    4.3320   21.4308 H   0  0  0  0  0  0  0  0  0  0  0  0
  2  1  1  0
  3  1  2  0
  4  1  2  0
  5  8  1  0
  6  5  2  0
  7  1  1  0
  8 10  1  0
  9  7  1  0
 10  9  1  0
 11  5  1  0
 13 12  1  0
 14 12  2  0
 15 12  2  0
 16 19  1  0
 17 16  2  0
 18 12  1  0
 19 21  1  0
 20 18  1  0
 21 20  1  0
 22 16  1  0
  7 24  1  0
  7 25  1  0
  8 26  1  0
  9 27  1  0
  9 28  1  0
 10 29  1  0
 10 30  1  0
 11 31  1  0
 11 32  1  0
 11 33  1  0
 18 34  1  0
 18 35  1  0
 19 36  1  0
 20 37  1  0
 20 38  1  0
 21 39  1  0
 21 40  1  0
 22 41  1  0
 22 42  1  0
 22 43  1  0
M  CHG  3   2  -1  13  -1  23   2
M  END
> <Uni-Dock RESULT> 
ENERGY=   -3.607  LOWER_BOUND=   11.463  UPPER_BOUND=   13.120
INTER + INTRA:          -3.607
INTER:                  -3.607
INTRA:                   0.000
UNBOUND:                 0.000

$$$$

     RDKit          3D

 43 40  0  0  0  0  0  0  0  0999 V2000
   47.1408    7.9091   12.7177 S   0  0  0  0  0  0  0  0  0  0  0  0
   46.8292    8.2889   14.0973 O   0  0  0  0  0  0  0  0  0  0  0  0
   46.0062    7.9023   11.7958 O   0  0  0  0  0  0  0  0  0  0  0  0
   48.3678    8.4913   12.1843 O   0  0  0  0  0  0  0  0  0  0  0  0
   47.8878    3.9735   16.5223 C   0  0  0  0  0  0  0  0  0  0  0  0
   47.9921    2.7513   16.4187 O   0  0  0  0  0  0  0  0  0  0  0  0
   47.5498    6.1829   12.8681 C   0  0  0  0  0  0  0  0  0  0  0  0
   47.3373    4.7793   15.5561 N   0  0  0  0  0  0  0  0  0  0  0  0
   46.3691    5.3514   13.3673 C   0  0  0  0  0  0  0  0  0  0  0  0
   46.8240    4.2434   14.3073 C   0  0  0  0  0  0  0  0  0  0  0  0
   48.3533    4.7108   17.7528 C   0  0  0  0  0  0  0  0  0  0  0  0
   44.9485    6.0666   11.8625 S   0  0  0  0  0  0  0  0  0  0  0  0
   45.4501    4.8116   11.3051 O   0  0  0  0  0  0  0  0  0  0  0  0
   44.8322    7.1624   10.9003 O   0  0  0  0  0  0  0  0  0  0  0  0
   43.8225    5.9315   12.7845 O   0  0  0  0  0  0  0  0  0  0  0  0
   49.0901    5.2369   16.7658 C   0  0  0  0  0  0  0  0  0  0  0  0
   49.5317    6.3529   17.0273 O   0  0  0  0  0  0  0  0  0  0  0  0
   46.2765    6.6064   12.9149 C   0  0  0  0  0  0  0  0  0  0  0  0
   48.1894    4.9827   15.7601 N   0  0  0  0  0  0  0  0  0  0  0  0
   46.5940    5.5972   14.0084 C   0  0  0  0  0  0  0  0  0  0  0  0
   47.8330    6.0032   14.7916 C   0  0  0  0  0  0  0  0  0  0  0  0
   49.4657    4.0249   17.5769 C   0  0  0  0  0  0  0  0  0  0  0  0
   47.3694    5.4998   14.6586 Ca  0  0  0  0  0 15  0  0  0  0  0  0
   48.4164    6.1341   13.5483 H   0  0  0  0  0  0  0  0  0  0  0  0
   47.8796    5.8266   11.8834 H   0  0  0  0  0  0  0  0  0  0  0  0
   47.2186    5.7815   15.7269 H   0  0  0  0  0  0  0  0  0  0  0  0
   45.8515    4.9145   12.5029 H   0  0  0  0  0  0  0  0  0  0  0  0
   45.6252    5.9685   13.8914 H   0  0  0  0  0  0  0  0  0  0  0  0
   45.9822    3.5871   14.5525 H   0  0  0  0  0  0  0  0  0  0  0  0
   47.6033    3.6214   13.8418 H   0  0  0  0  0  0  0  0  0  0  0  0
   49.4011    4.4502   17.9536 H   0  0  0  0  0  0  0  0  0  0  0  0
   48.2809    5.8005   17.6329 H   0  0  0  0  0  0  0  0  0  0  0  0
   47.7272    4.4068   18.6000 H   0  0  0  0  0  0  0  0  0  0  0  0
   47.1462    6.7661   12.2671 H   0  0  0  0  0  0  0  0  0  0  0  0
   45.9857    7.5680   13.3476 H   0  0  0  0  0  0  0  0  0  0  0  0
   48.0547    4.0192   15.4694 H   0  0  0  0  0  0  0  0  0  0  0  0
   46.7503    4.6033   13.5716 H   0  0  0  0  0  0  0  0  0  0  0  0
   45.7416    5.4989   14.6892 H   0  0  0  0  0  0  0  0  0  0  0  0
   48.6926    6.1221   14.1221 H   0  0  0  0  0  0  0  0  0  0  0  0
   47.6796    6.9578   15.3119 H   0  0  0  0  0  0  0  0  0  0  0  0
   48.9945    4.1002   18.5693 H   0  0  0  0  0  0  0  0  0  0  0  0
   49.1235    3.1004   17.0994 H   0  0  0  0  0  0  0  0  0  0  0  0
   50.5552    3.9831   17.6862 H   0  0  0  0  0  0  0  0  0  0  0  0
  2  1  1  0
  3  1  2  0
  4  1  2  0
  5  8  1  0
  6  5  2  0
  7  1  1  0
  8 10  1  0
  9  7  1  0
 10  9  1  0
 11  5  1  0
 13 12  1  0
 14 12  2  0
 15 12  2  0
 16 19  1  0
 17 16  2  0
 18 12  1  0
 19 21  1  0
 20 18  1  0
 21 20  1  0
 22 16  1  0
  7 24  1  0
  7 25  1  0
  8 26  1  0
  9 27  1  0
  9 28  1  0
 10 29  1  0
 10 30  1  0
 11 31  1  0
 11 32  1  0
 11 33  1  0
 18 34  1  0
 18 35  1  0
 19 36  1  0
 20 37  1  0
 20 38  1  0
 21 39  1  0
 21 40  1  0
 22 41  1  0
 22 42  1  0
 22 43  1  0
M  CHG  3   2  -1  13  -1  23   2
M  END
> <Uni-Dock RESULT> 
ENERGY=   -3.570  LOWER_BOUND=    4.899  UPPER_BOUND=    7.056
INTER + INTRA:          -3.570
INTER:                  -3.570
INTRA:                   0.000
UNBOUND:                 0.000

$$$$

     RDKit          3D

 43 40  0  0  0  0  0  0  0  0999 V2000
   48.3920    6.7668   13.2715 S   0  0  0  0  0  0  0  0  0  0  0  0
   48.9127    7.3773   12.0465 O   0  0  0  0  0  0  0  0  0  0  0  0
   47.8025    5.4387   13.1108 O   0  0  0  0  0  0  0  0  0  0  0  0
   49.2432    6.9278   14.4457 O   0  0  0  0  0  0  0  0  0  0  0  0
   45.8285   11.3664   11.6001 C   0  0  0  0  0  0  0  0  0  0  0  0
   44.7255   11.8325   11.8857 O   0  0  0  0  0  0  0  0  0  0  0  0
   46.9859    7.7898   13.6536 C   0  0  0  0  0  0  0  0  0  0  0  0
   46.1766   10.0518   11.7911 N   0  0  0  0  0  0  0  0  0  0  0  0
   45.9160    7.7303   12.5645 C   0  0  0  0  0  0  0  0  0  0  0  0
   45.2526    9.0852   12.3586 C   0  0  0  0  0  0  0  0  0  0  0  0
   46.9164   12.2131   10.9885 C   0  0  0  0  0  0  0  0  0  0  0  0
   45.7683    5.5461   12.5248 S   0  0  0  0  0  0  0  0  0  0  0  0
   44.6809    5.9566   13.4117 O   0  0  0  0  0  0  0  0  0  0  0  0
   46.5338    4.3886   12.9875 O   0  0  0  0  0  0  0  0  0  0  0  0
   45.4407    5.5413   11.1004 O   0  0  0  0  0  0  0  0  0  0  0  0
   47.4528   11.7828   12.1378 C   0  0  0  0  0  0  0  0  0  0  0  0
   48.6811   11.8016   12.1410 O   0  0  0  0  0  0  0  0  0  0  0  0
   46.9395    6.8763   12.6708 C   0  0  0  0  0  0  0  0  0  0  0  0
   46.7012   10.6365   12.2294 N   0  0  0  0  0  0  0  0  0  0  0  0
   46.3501    8.2141   12.2493 C   0  0  0  0  0  0  0  0  0  0  0  0
   47.3130    9.3563   12.5350 C   0  0  0  0  0  0  0  0  0  0  0  0
   46.6404   13.0407   11.9774 C   0  0  0  0  0  0  0  0  0  0  0  0
   46.6638    9.1752   12.3567 Ca  0  0  0  0  0 15  0  0  0  0  0  0
   47.3820    8.8086   13.7993 H   0  0  0  0  0  0  0  0  0  0  0  0
   46.5737    7.4530   14.6139 H   0  0  0  0  0  0  0  0  0  0  0  0
   47.0871    9.7084   11.4736 H   0  0  0  0  0  0  0  0  0  0  0  0
   45.1595    6.9871   12.8499 H   0  0  0  0  0  0  0  0  0  0  0  0
   46.3284    7.3951   11.6021 H   0  0  0  0  0  0  0  0  0  0  0  0
   44.4090    8.9912   11.6665 H   0  0  0  0  0  0  0  0  0  0  0  0
   44.8599    9.4844   13.3060 H   0  0  0  0  0  0  0  0  0  0  0  0
   47.0839   13.0954   11.6207 H   0  0  0  0  0  0  0  0  0  0  0  0
   47.8637   11.6641   10.8963 H   0  0  0  0  0  0  0  0  0  0  0  0
   46.5932   12.5291    9.9896 H   0  0  0  0  0  0  0  0  0  0  0  0
   47.2562    6.9028   13.7198 H   0  0  0  0  0  0  0  0  0  0  0  0
   47.8063    6.6230   12.0535 H   0  0  0  0  0  0  0  0  0  0  0  0
   45.7135   10.7270   12.4465 H   0  0  0  0  0  0  0  0  0  0  0  0
   45.4060    8.3945   12.7777 H   0  0  0  0  0  0  0  0  0  0  0  0
   46.1023    8.1972   11.1825 H   0  0  0  0  0  0  0  0  0  0  0  0
   47.5845    9.3775   13.5966 H   0  0  0  0  0  0  0  0  0  0  0  0
   48.2391    9.2503   11.9549 H   0  0  0  0  0  0  0  0  0  0  0  0
   46.7478   13.4047   10.9437 H   0  0  0  0  0  0  0  0  0  0  0  0
   45.5780   12.8601   12.1731 H   0  0  0  0  0  0  0  0  0  0  0  0
   47.0040   13.8008   12.6777 H   0  0  0  0  0  0  0  0  0  0  0  0
  2  1  1  0
  3  1  2  0
  4  1  2  0
  5  8  1  0
  6  5  2  0
  7  1  1  0
  8 10  1  0
  9  7  1  0
 10  9  1  0
 11  5  1  0
 13 12  1  0
 14 12  2  0
 15 12  2  0
 16 19  1  0
 17 16  2  0
 18 12  1  0
 19 21  1  0
 20 18  1  0
 21 20  1  0
 22 16  1  0
  7 24  1  0
  7 25  1  0
  8 26  1  0
  9 27  1  0
  9 28  1  0
 10 29  1  0
 10 30  1  0
 11 31  1  0
 11 32  1  0
 11 33  1  0
 18 34  1  0
 18 35  1  0
 19 36  1  0
 20 37  1  0
 20 38  1  0
 21 39  1  0
 21 40  1  0
 22 41  1  0
 22 42  1  0
 22 43  1  0
M  CHG  3   2  -1  13  -1  23   2
M  END
> <Uni-Dock RESULT> 
ENERGY=   -3.484  LOWER_BOUND=    5.395  UPPER_BOUND=    7.230
INTER + INTRA:          -3.484
INTER:                  -3.484
INTRA:                   0.000
UNBOUND:                 0.000

$$$$
