
     RDKit          3D

 22 13  0  0  0  0  0  0  0  0999 V2000
    0.0000    0.0000    0.0000 Ca  0  0  0  0  0 15  0  0  0  0  0  0
   -0.0000   -0.0000   -0.0000 P   0  0  0  0  0  0  0  0  0  0  0  0
   -1.0530   -0.9926   -0.5196 O   0  0  0  0  0  0  0  0  0  0  0  0
    1.3831   -0.3854   -0.5501 O   0  0  0  0  0  0  0  0  0  0  0  0
    0.0297   -0.0420    1.5367 O   0  0  0  0  0  0  0  0  0  0  0  0
   -0.3598    1.4200   -0.4670 O   0  0  0  0  0  0  0  0  0  0  0  0
    0.4889    0.0000    0.0000 O   0  0  0  0  0  0  0  0  0  0  0  0
    0.0000    0.0000    0.0000 Ca  0  0  0  0  0 15  0  0  0  0  0  0
    0.0000    0.0000    0.0000 Ca  0  0  0  0  0 15  0  0  0  0  0  0
    0.0000    0.0000   -0.0000 P   0  0  0  0  0  0  0  0  0  0  0  0
   -0.3428    1.3652   -0.6186 O   0  0  0  0  0  0  0  0  0  0  0  0
    0.0396    0.1268    1.5318 O   0  0  0  0  0  0  0  0  0  0  0  0
    1.3737   -0.4640   -0.5115 O   0  0  0  0  0  0  0  0  0  0  0  0
   -1.0704   -1.0280   -0.4017 O   0  0  0  0  0  0  0  0  0  0  0  0
   -0.0000    0.0000    0.0000 P   0  0  0  0  0  0  0  0  0  0  0  0
   -0.8458   -1.0334   -0.7620 O   0  0  0  0  0  0  0  0  0  0  0  0
   -0.0560    1.3498   -0.7342 O   0  0  0  0  0  0  0  0  0  0  0  0
   -0.5557    0.1676    1.4238 O   0  0  0  0  0  0  0  0  0  0  0  0
    1.4576   -0.4839    0.0724 O   0  0  0  0  0  0  0  0  0  0  0  0
    0.0000    0.0000    0.0000 Ca  0  0  0  0  0 15  0  0  0  0  0  0
    0.0000    0.0000    0.0000 Ca  0  0  0  0  0 15  0  0  0  0  0  0
   -0.4889    0.0000    0.0000 H   0  0  0  0  0  0  0  0  0  0  0  0
  3  2  1  0
  4  2  1  0
  5  2  2  0
  6  2  1  0
 10 11  1  0
 10 12  2  0
 10 13  1  0
 10 14  1  0
 15 16  1  0
 15 17  2  0
 15 18  1  0
 15 19  1  0
  7 22  1  0
M  CHG  8   1   2   3  -1   4  -1   6  -1   7  -1   8   2   9   2  11  -1
M  CHG  7  13  -1  14  -1  16  -1  18  -1  19  -1  20   2  21   2
M  END
$$$$
