
     RDKit          3D

 22 13  0  0  0  0  0  0  0  0999 V2000
    0.0000    0.0000    0.0000 Ca  0  0  0  0  0 15  0  0  0  0  0  0
    0.0000   -0.0000   -0.0000 P   0  0  0  0  0  0  0  0  0  0  0  0
   -1.2088   -0.7249   -0.6143 O   0  0  0  0  0  0  0  0  0  0  0  0
    1.2562   -0.3010   -0.8339 O   0  0  0  0  0  0  0  0  0  0  0  0
    0.2126   -0.4894    1.4420 O   0  0  0  0  0  0  0  0  0  0  0  0
   -0.2600    1.5153    0.0062 O   0  0  0  0  0  0  0  0  0  0  0  0
    0.4889    0.0000    0.0000 O   0  0  0  0  0  0  0  0  0  0  0  0
    0.0000    0.0000    0.0000 Ca  0  0  0  0  0 15  0  0  0  0  0  0
    0.0000    0.0000    0.0000 Ca  0  0  0  0  0 15  0  0  0  0  0  0
   -0.0000    0.0000    0.0000 P   0  0  0  0  0  0  0  0  0  0  0  0
   -0.6305    1.2719   -0.5905 O   0  0  0  0  0  0  0  0  0  0  0  0
   -0.0092    0.0885    1.5349 O   0  0  0  0  0  0  0  0  0  0  0  0
   -0.8093   -1.2284   -0.4474 O   0  0  0  0  0  0  0  0  0  0  0  0
    1.4489   -0.1320   -0.4971 O   0  0  0  0  0  0  0  0  0  0  0  0
   -0.0000   -0.0000   -0.0000 P   0  0  0  0  0  0  0  0  0  0  0  0
   -0.4886    1.3017   -0.6564 O   0  0  0  0  0  0  0  0  0  0  0  0
    1.4578    0.1724    0.4572 O   0  0  0  0  0  0  0  0  0  0  0  0
   -0.8835   -0.3239    1.2159 O   0  0  0  0  0  0  0  0  0  0  0  0
   -0.0857   -1.1502   -1.0167 O   0  0  0  0  0  0  0  0  0  0  0  0
    0.0000    0.0000    0.0000 Ca  0  0  0  0  0 15  0  0  0  0  0  0
    0.0000    0.0000    0.0000 Ca  0  0  0  0  0 15  0  0  0  0  0  0
   -0.4889    0.0000    0.0000 H   0  0  0  0  0  0  0  0  0  0  0  0
  3  2  1  0
  4  2  1  0
  5  2  2  0
  6  2  1  0
 10 11  1  0
 10 12  2  0
 10 13  1  0
 10 14  1  0
 15 16  1  0
 15 17  2  0
 15 18  1  0
 15 19  1  0
  7 22  1  0
M  CHG  8   1   2   3  -1   4  -1   6  -1   7  -1   8   2   9   2  11  -1
M  CHG  7  13  -1  14  -1  16  -1  18  -1  19  -1  20   2  21   2
M  END
$$$$
