
     RDKit          3D

 22 13  0  0  0  0  0  0  0  0999 V2000
    0.0000    0.0000    0.0000 Ca  0  0  0  0  0 15  0  0  0  0  0  0
   -0.0000   -0.0000   -0.0000 P   0  0  0  0  0  0  0  0  0  0  0  0
   -0.6870   -1.1205   -0.7978 O   0  0  0  0  0  0  0  0  0  0  0  0
    1.5046   -0.2971    0.1095 O   0  0  0  0  0  0  0  0  0  0  0  0
   -0.6114    0.0751    1.4087 O   0  0  0  0  0  0  0  0  0  0  0  0
   -0.2062    1.3425   -0.7204 O   0  0  0  0  0  0  0  0  0  0  0  0
    0.4889    0.0000    0.0000 O   0  0  0  0  0  0  0  0  0  0  0  0
    0.0000    0.0000    0.0000 Ca  0  0  0  0  0 15  0  0  0  0  0  0
    0.0000    0.0000    0.0000 Ca  0  0  0  0  0 15  0  0  0  0  0  0
   -0.0000   -0.0000   -0.0000 P   0  0  0  0  0  0  0  0  0  0  0  0
   -1.0830   -0.6046   -0.9086 O   0  0  0  0  0  0  0  0  0  0  0  0
    0.2087    1.4788   -0.3655 O   0  0  0  0  0  0  0  0  0  0  0  0
   -0.4441   -0.1073    1.4681 O   0  0  0  0  0  0  0  0  0  0  0  0
    1.3184   -0.7669   -0.1940 O   0  0  0  0  0  0  0  0  0  0  0  0
    0.0000   -0.0000    0.0000 P   0  0  0  0  0  0  0  0  0  0  0  0
   -1.1321   -0.7131   -0.7575 O   0  0  0  0  0  0  0  0  0  0  0  0
    0.1612    1.4285   -0.5454 O   0  0  0  0  0  0  0  0  0  0  0  0
   -0.3431    0.0588    1.4976 O   0  0  0  0  0  0  0  0  0  0  0  0
    1.3140   -0.7743   -0.1947 O   0  0  0  0  0  0  0  0  0  0  0  0
    0.0000    0.0000    0.0000 Ca  0  0  0  0  0 15  0  0  0  0  0  0
    0.0000    0.0000    0.0000 Ca  0  0  0  0  0 15  0  0  0  0  0  0
   -0.4889    0.0000    0.0000 H   0  0  0  0  0  0  0  0  0  0  0  0
  3  2  1  0
  4  2  1  0
  5  2  2  0
  6  2  1  0
 10 11  1  0
 10 12  2  0
 10 13  1  0
 10 14  1  0
 15 16  1  0
 15 17  2  0
 15 18  1  0
 15 19  1  0
  7 22  1  0
M  CHG  8   1   2   3  -1   4  -1   6  -1   7  -1   8   2   9   2  11  -1
M  CHG  7  13  -1  14  -1  16  -1  18  -1  19  -1  20   2  21   2
M  END
$$$$
