
     RDKit          3D

 22 13  0  0  0  0  0  0  0  0999 V2000
    0.0000    0.0000    0.0000 Ca  0  0  0  0  0 15  0  0  0  0  0  0
   -0.0000   -0.0000   -0.0000 P   0  0  0  0  0  0  0  0  0  0  0  0
   -0.9084   -1.1197   -0.5340 O   0  0  0  0  0  0  0  0  0  0  0  0
    1.4418   -0.2380   -0.4780 O   0  0  0  0  0  0  0  0  0  0  0  0
   -0.0368    0.0007    1.5371 O   0  0  0  0  0  0  0  0  0  0  0  0
   -0.4966    1.3571   -0.5251 O   0  0  0  0  0  0  0  0  0  0  0  0
    0.4889    0.0000    0.0000 O   0  0  0  0  0  0  0  0  0  0  0  0
    0.0000    0.0000    0.0000 Ca  0  0  0  0  0 15  0  0  0  0  0  0
    0.0000    0.0000    0.0000 Ca  0  0  0  0  0 15  0  0  0  0  0  0
   -0.0000   -0.0000    0.0000 P   0  0  0  0  0  0  0  0  0  0  0  0
   -0.9908   -1.1614   -0.1827 O   0  0  0  0  0  0  0  0  0  0  0  0
    0.2001    0.2718    1.5000 O   0  0  0  0  0  0  0  0  0  0  0  0
   -0.5579    1.2613   -0.6795 O   0  0  0  0  0  0  0  0  0  0  0  0
    1.3487   -0.3717   -0.6378 O   0  0  0  0  0  0  0  0  0  0  0  0
   -0.0000    0.0000   -0.0000 P   0  0  0  0  0  0  0  0  0  0  0  0
   -0.4204    1.3372   -0.6318 O   0  0  0  0  0  0  0  0  0  0  0  0
    0.1935    0.1867    1.5138 O   0  0  0  0  0  0  0  0  0  0  0  0
   -1.0932   -1.0516   -0.2511 O   0  0  0  0  0  0  0  0  0  0  0  0
    1.3201   -0.4724   -0.6310 O   0  0  0  0  0  0  0  0  0  0  0  0
    0.0000    0.0000    0.0000 Ca  0  0  0  0  0 15  0  0  0  0  0  0
    0.0000    0.0000    0.0000 Ca  0  0  0  0  0 15  0  0  0  0  0  0
   -0.4889    0.0000    0.0000 H   0  0  0  0  0  0  0  0  0  0  0  0
  3  2  1  0
  4  2  1  0
  5  2  2  0
  6  2  1  0
 10 11  1  0
 10 12  2  0
 10 13  1  0
 10 14  1  0
 15 16  1  0
 15 17  2  0
 15 18  1  0
 15 19  1  0
  7 22  1  0
M  CHG  8   1   2   3  -1   4  -1   6  -1   7  -1   8   2   9   2  11  -1
M  CHG  7  13  -1  14  -1  16  -1  18  -1  19  -1  20   2  21   2
M  END
$$$$
