
     RDKit          3D

 22 13  0  0  0  0  0  0  0  0999 V2000
    0.0000    0.0000    0.0000 Ca  0  0  0  0  0 15  0  0  0  0  0  0
    0.0000   -0.0000   -0.0000 P   0  0  0  0  0  0  0  0  0  0  0  0
   -1.1195   -0.7935   -0.6936 O   0  0  0  0  0  0  0  0  0  0  0  0
    1.3661   -0.4938   -0.5038 O   0  0  0  0  0  0  0  0  0  0  0  0
   -0.0911   -0.2078    1.5207 O   0  0  0  0  0  0  0  0  0  0  0  0
   -0.1556    1.4951   -0.3232 O   0  0  0  0  0  0  0  0  0  0  0  0
    0.4889    0.0000    0.0000 O   0  0  0  0  0  0  0  0  0  0  0  0
    0.0000    0.0000    0.0000 Ca  0  0  0  0  0 15  0  0  0  0  0  0
    0.0000    0.0000    0.0000 Ca  0  0  0  0  0 15  0  0  0  0  0  0
    0.0000   -0.0000    0.0000 P   0  0  0  0  0  0  0  0  0  0  0  0
   -0.4667    1.4032   -0.4211 O   0  0  0  0  0  0  0  0  0  0  0  0
   -0.1003   -0.1364    1.5282 O   0  0  0  0  0  0  0  0  0  0  0  0
   -0.8920   -1.0589   -0.6686 O   0  0  0  0  0  0  0  0  0  0  0  0
    1.4589   -0.2079   -0.4385 O   0  0  0  0  0  0  0  0  0  0  0  0
   -0.0000   -0.0000   -0.0000 P   0  0  0  0  0  0  0  0  0  0  0  0
   -0.1170    1.4299   -0.5529 O   0  0  0  0  0  0  0  0  0  0  0  0
   -0.0944    0.0345    1.5342 O   0  0  0  0  0  0  0  0  0  0  0  0
    1.3521   -0.6017   -0.4169 O   0  0  0  0  0  0  0  0  0  0  0  0
   -1.1407   -0.8627   -0.5644 O   0  0  0  0  0  0  0  0  0  0  0  0
    0.0000    0.0000    0.0000 Ca  0  0  0  0  0 15  0  0  0  0  0  0
    0.0000    0.0000    0.0000 Ca  0  0  0  0  0 15  0  0  0  0  0  0
   -0.4889    0.0000    0.0000 H   0  0  0  0  0  0  0  0  0  0  0  0
  3  2  1  0
  4  2  1  0
  5  2  2  0
  6  2  1  0
 10 11  1  0
 10 12  2  0
 10 13  1  0
 10 14  1  0
 15 16  1  0
 15 17  2  0
 15 18  1  0
 15 19  1  0
  7 22  1  0
M  CHG  8   1   2   3  -1   4  -1   6  -1   7  -1   8   2   9   2  11  -1
M  CHG  7  13  -1  14  -1  16  -1  18  -1  19  -1  20   2  21   2
M  END
$$$$
