
     RDKit          3D

 21 12  0  0  0  0  0  0  0  0999 V2000
    0.0000    0.0000    0.0000 Ca  0  0  0  0  0 15  0  0  0  0  0  0
   -0.0018   -0.0008    0.0429 P   0  0  0  0  0  0  0  0  0  0  0  0
   -1.2487   -0.8220   -0.7455 O   0  0  0  0  0  0  0  0  0  0  0  0
    1.4541   -0.7360   -0.3394 O   0  0  0  0  0  0  0  0  0  0  0  0
   -0.2593   -0.0396    1.5339 O   0  0  0  0  0  0  0  0  0  0  0  0
    0.0557    1.5984   -0.4919 O   0  0  0  0  0  0  0  0  0  0  0  0
    0.0000    0.0000    0.0000 O   0  0  0  0  0  0  0  0  0  0  0  0
    0.0000    0.0000    0.0000 Ca  0  0  0  0  0 15  0  0  0  0  0  0
    0.0000    0.0000    0.0000 Ca  0  0  0  0  0 15  0  0  0  0  0  0
   -0.0048   -0.0043    0.0380 P   0  0  0  0  0  0  0  0  0  0  0  0
   -0.3375    1.5976   -0.3458 O   0  0  0  0  0  0  0  0  0  0  0  0
    0.0977   -0.1729    1.5258 O   0  0  0  0  0  0  0  0  0  0  0  0
   -1.2192   -0.9963   -0.5581 O   0  0  0  0  0  0  0  0  0  0  0  0
    1.4638   -0.4241   -0.6598 O   0  0  0  0  0  0  0  0  0  0  0  0
    0.0363    0.0239    0.0118 P   0  0  0  0  0  0  0  0  0  0  0  0
   -0.6877    1.4296   -0.5815 O   0  0  0  0  0  0  0  0  0  0  0  0
    1.4531    0.2828    0.4347 O   0  0  0  0  0  0  0  0  0  0  0  0
   -0.8369   -0.5646    1.3226 O   0  0  0  0  0  0  0  0  0  0  0  0
    0.0351   -1.1716   -1.1876 O   0  0  0  0  0  0  0  0  0  0  0  0
    0.0000    0.0000    0.0000 Ca  0  0  0  0  0 15  0  0  0  0  0  0
    0.0000    0.0000    0.0000 Ca  0  0  0  0  0 15  0  0  0  0  0  0
  3  2  1  0
  4  2  1  0
  5  2  2  0
  6  2  1  0
 10 11  1  0
 10 12  2  0
 10 13  1  0
 10 14  1  0
 15 16  1  0
 15 17  2  0
 15 18  1  0
 15 19  1  0
M  CHG  8   1   2   3  -1   4  -1   6  -1   7  -1   8   2   9   2  11  -1
M  CHG  7  13  -1  14  -1  16  -1  18  -1  19  -1  20   2  21   2
M  END
