
     RDKit          2D

 21 12  0  0  0  0  0  0  0  0999 V2000
    0.2652   -3.1527    0.0000 Ca  0  0  0  0  0 15  0  0  0  0  0  0
   -2.6237   -0.1452    0.0000 P   0  0  0  0  0  0  0  0  0  0  0  0
   -3.3257   -0.5567    0.0000 O   0  0  0  0  0  0  0  0  0  0  0  0
   -1.9121   -0.5567    0.0000 O   0  0  0  0  0  0  0  0  0  0  0  0
   -2.2171    0.5760    0.0000 O   0  0  0  0  0  0  0  0  0  0  0  0
   -3.0303    0.5760    0.0000 O   0  0  0  0  0  0  0  0  0  0  0  0
    2.8223   -0.4696    0.0000 O   0  0  0  0  0  0  0  0  0  0  0  0
    1.0069   -0.5422    0.0000 Ca  0  0  0  0  0 15  0  0  0  0  0  0
   -2.7254   -1.7427    0.0000 Ca  0  0  0  0  0 15  0  0  0  0  0  0
    0.2357    1.3259    0.0000 P   0  0  0  0  0  0  0  0  0  0  0  0
   -0.1768    2.0404    0.0000 O   0  0  0  0  0  0  0  0  0  0  0  0
    0.8191    1.9093    0.0000 O   0  0  0  0  0  0  0  0  0  0  0  0
   -0.3476    0.7425    0.0000 O   0  0  0  0  0  0  0  0  0  0  0  0
    0.8191    0.7425    0.0000 O   0  0  0  0  0  0  0  0  0  0  0  0
    2.7696    1.2375    0.0000 P   0  0  0  0  0  0  0  0  0  0  0  0
    2.1863    1.8209    0.0000 O   0  0  0  0  0  0  0  0  0  0  0  0
    3.3530    1.8209    0.0000 O   0  0  0  0  0  0  0  0  0  0  0  0
    2.1863    0.6541    0.0000 O   0  0  0  0  0  0  0  0  0  0  0  0
    3.3530    0.6541    0.0000 O   0  0  0  0  0  0  0  0  0  0  0  0
   -0.3241   -1.9446    0.0000 Ca  0  0  0  0  0 15  0  0  0  0  0  0
    1.7679   -2.1509    0.0000 Ca  0  0  0  0  0 15  0  0  0  0  0  0
  3  2  1  0
  4  2  1  0
  5  2  2  0
  6  2  1  0
 10 11  1  0
 10 12  2  0
 10 13  1  0
 10 14  1  0
 15 16  1  0
 15 17  2  0
 15 18  1  0
 15 19  1  0
M  CHG  8   1   2   3  -1   4  -1   6  -1   7  -1   8   2   9   2  11  -1
M  CHG  7  13  -1  14  -1  16  -1  18  -1  19  -1  20   2  21   2
M  END
> <chembl_id>
CHEMBL2218916

> <chembl_pref_name>
DURAPATITE
