
     RDKit          3D

 22 13  0  0  0  0  0  0  0  0999 V2000
    0.0000    0.0000    0.0000 Ca  0  0  0  0  0 15  0  0  0  0  0  0
    0.0000    0.0000    0.0000 P   0  0  0  0  0  0  0  0  0  0  0  0
   -1.2370   -0.7285   -0.5504 O   0  0  0  0  0  0  0  0  0  0  0  0
    1.2719   -0.7342   -0.4551 O   0  0  0  0  0  0  0  0  0  0  0  0
   -0.0583    0.0199    1.5363 O   0  0  0  0  0  0  0  0  0  0  0  0
    0.0234    1.4428   -0.5308 O   0  0  0  0  0  0  0  0  0  0  0  0
    0.4889    0.0000    0.0000 O   0  0  0  0  0  0  0  0  0  0  0  0
    0.0000    0.0000    0.0000 Ca  0  0  0  0  0 15  0  0  0  0  0  0
    0.0000    0.0000    0.0000 Ca  0  0  0  0  0 15  0  0  0  0  0  0
    0.0000    0.0000    0.0000 P   0  0  0  0  0  0  0  0  0  0  0  0
   -0.9901   -0.9212   -0.7314 O   0  0  0  0  0  0  0  0  0  0  0  0
    0.0892    1.3457   -0.7383 O   0  0  0  0  0  0  0  0  0  0  0  0
   -0.4871    0.2363    1.4391 O   0  0  0  0  0  0  0  0  0  0  0  0
    1.3880   -0.6608    0.0307 O   0  0  0  0  0  0  0  0  0  0  0  0
    0.0000   -0.0000    0.0000 P   0  0  0  0  0  0  0  0  0  0  0  0
    1.3278   -0.1706   -0.7562 O   0  0  0  0  0  0  0  0  0  0  0  0
   -0.2713    1.4961    0.2280 O   0  0  0  0  0  0  0  0  0  0  0  0
    0.0871   -0.7178    1.3569 O   0  0  0  0  0  0  0  0  0  0  0  0
   -1.1436   -0.6077   -0.8288 O   0  0  0  0  0  0  0  0  0  0  0  0
    0.0000    0.0000    0.0000 Ca  0  0  0  0  0 15  0  0  0  0  0  0
    0.0000    0.0000    0.0000 Ca  0  0  0  0  0 15  0  0  0  0  0  0
   -0.4889    0.0000    0.0000 H   0  0  0  0  0  0  0  0  0  0  0  0
  3  2  1  0
  4  2  1  0
  5  2  2  0
  6  2  1  0
 10 11  1  0
 10 12  2  0
 10 13  1  0
 10 14  1  0
 15 16  1  0
 15 17  2  0
 15 18  1  0
 15 19  1  0
  7 22  1  0
M  CHG  8   1   2   3  -1   4  -1   6  -1   7  -1   8   2   9   2  11  -1
M  CHG  7  13  -1  14  -1  16  -1  18  -1  19  -1  20   2  21   2
M  END
$$$$
