
     RDKit          3D

 22 13  0  0  0  0  0  0  0  0999 V2000
    0.0000    0.0000    0.0000 Ca  0  0  0  0  0 15  0  0  0  0  0  0
   -0.0000   -0.0000    0.0000 P   0  0  0  0  0  0  0  0  0  0  0  0
    0.0040    1.4370   -0.5467 O   0  0  0  0  0  0  0  0  0  0  0  0
   -1.2354   -0.7464   -0.5296 O   0  0  0  0  0  0  0  0  0  0  0  0
   -0.0428    0.0363    1.5365 O   0  0  0  0  0  0  0  0  0  0  0  0
    1.2743   -0.7269   -0.4602 O   0  0  0  0  0  0  0  0  0  0  0  0
    0.4889    0.0000    0.0000 O   0  0  0  0  0  0  0  0  0  0  0  0
    0.0000    0.0000    0.0000 Ca  0  0  0  0  0 15  0  0  0  0  0  0
    0.0000    0.0000    0.0000 Ca  0  0  0  0  0 15  0  0  0  0  0  0
   -0.0000   -0.0000    0.0000 P   0  0  0  0  0  0  0  0  0  0  0  0
   -0.6663   -1.2046   -0.6848 O   0  0  0  0  0  0  0  0  0  0  0  0
    1.4671    0.0981   -0.4494 O   0  0  0  0  0  0  0  0  0  0  0  0
   -0.7432    1.2878   -0.3915 O   0  0  0  0  0  0  0  0  0  0  0  0
   -0.0576   -0.1813    1.5257 O   0  0  0  0  0  0  0  0  0  0  0  0
   -0.0000   -0.0000    0.0000 P   0  0  0  0  0  0  0  0  0  0  0  0
   -0.8439   -1.2492   -0.3021 O   0  0  0  0  0  0  0  0  0  0  0  0
    0.1719    0.1469    1.5208 O   0  0  0  0  0  0  0  0  0  0  0  0
   -0.7091    1.2448   -0.5582 O   0  0  0  0  0  0  0  0  0  0  0  0
    1.3811   -0.1424   -0.6605 O   0  0  0  0  0  0  0  0  0  0  0  0
    0.0000    0.0000    0.0000 Ca  0  0  0  0  0 15  0  0  0  0  0  0
    0.0000    0.0000    0.0000 Ca  0  0  0  0  0 15  0  0  0  0  0  0
   -0.4889    0.0000    0.0000 H   0  0  0  0  0  0  0  0  0  0  0  0
  3  2  1  0
  4  2  1  0
  5  2  2  0
  6  2  1  0
 10 11  1  0
 10 12  2  0
 10 13  1  0
 10 14  1  0
 15 16  1  0
 15 17  2  0
 15 18  1  0
 15 19  1  0
  7 22  1  0
M  CHG  8   1   2   3  -1   4  -1   6  -1   7  -1   8   2   9   2  11  -1
M  CHG  7  13  -1  14  -1  16  -1  18  -1  19  -1  20   2  21   2
M  END
$$$$
