
     RDKit          3D

 28 28  0  0  0  0  0  0  0  0999 V2000
   44.6031    4.7423   10.8917 C   0  0  0  0  0  0  0  0  0  0  0  0
   43.3645    4.9893   10.6923 N   0  0  0  0  0  0  0  0  0  0  0  0
   45.3325    4.0647    9.9521 N   0  0  0  0  0  0  0  0  0  0  0  0
   45.4598    5.0277   11.9178 N   0  0  0  0  0  0  0  0  0  0  0  0
   44.7408    3.7122    8.6726 C   0  0  0  0  0  0  0  0  0  0  0  0
   45.7719    2.9968    7.8316 C   0  0  0  0  0  0  0  0  0  0  0  0
   42.5617    5.7469   11.6238 C   0  0  0  0  0  0  0  0  0  0  0  0
   45.0785    5.4204   13.2521 C   0  0  0  0  0  0  0  0  0  0  0  0
   46.4424    3.6659    6.7975 C   0  0  0  0  0  0  0  0  0  0  0  0
   46.0979    1.6586    8.0981 C   0  0  0  0  0  0  0  0  0  0  0  0
   47.4077    3.0041    6.0363 C   0  0  0  0  0  0  0  0  0  0  0  0
   47.0633    0.9991    7.3362 C   0  0  0  0  0  0  0  0  0  0  0  0
   47.7165    1.6716    6.3049 C   0  0  0  0  0  0  0  0  0  0  0  0
   46.2611    4.4513    9.8363 H   0  0  0  0  0  0  0  0  0  0  0  0
   46.2125    4.3480   11.9400 H   0  0  0  0  0  0  0  0  0  0  0  0
   44.3922    4.6118    8.1509 H   0  0  0  0  0  0  0  0  0  0  0  0
   43.8725    3.0567    8.8125 H   0  0  0  0  0  0  0  0  0  0  0  0
   42.9784    6.7415   11.8061 H   0  0  0  0  0  0  0  0  0  0  0  0
   42.4155    5.2112   12.5657 H   0  0  0  0  0  0  0  0  0  0  0  0
   41.5677    5.8993   11.1901 H   0  0  0  0  0  0  0  0  0  0  0  0
   44.6318    6.4173   13.2652 H   0  0  0  0  0  0  0  0  0  0  0  0
   44.3924    4.6941   13.6974 H   0  0  0  0  0  0  0  0  0  0  0  0
   45.9710    5.4631   13.8850 H   0  0  0  0  0  0  0  0  0  0  0  0
   46.2149    4.7068    6.5777 H   0  0  0  0  0  0  0  0  0  0  0  0
   45.5986    1.1290    8.9073 H   0  0  0  0  0  0  0  0  0  0  0  0
   47.9194    3.5286    5.2335 H   0  0  0  0  0  0  0  0  0  0  0  0
   47.3064   -0.0386    7.5489 H   0  0  0  0  0  0  0  0  0  0  0  0
   48.4678    1.1574    5.7114 H   0  0  0  0  0  0  0  0  0  0  0  0
  2  1  2  0
  3  1  1  0
  4  1  1  0
  5  3  1  0
  6  5  1  0
  7  2  1  0
  8  4  1  0
  9  6  2  0
 10  6  1  0
 11  9  1  0
 12 10  2  0
 13 12  1  0
 11 13  2  0
  3 14  1  0
  4 15  1  0
  5 16  1  0
  5 17  1  0
  7 18  1  0
  7 19  1  0
  7 20  1  0
  8 21  1  0
  8 22  1  0
  8 23  1  0
  9 24  1  0
 10 25  1  0
 11 26  1  0
 12 27  1  0
 13 28  1  0
M  END
> <Uni-Dock RESULT> 
ENERGY=   -6.290  LOWER_BOUND=    0.000  UPPER_BOUND=    0.000
INTER + INTRA:          -6.290
INTER:                  -6.290
INTRA:                   0.000
UNBOUND:                 0.000

$$$$

     RDKit          3D

 28 28  0  0  0  0  0  0  0  0999 V2000
   45.3638    4.3506    9.2188 C   0  0  0  0  0  0  0  0  0  0  0  0
   44.7110    3.3708    9.7174 N   0  0  0  0  0  0  0  0  0  0  0  0
   45.3199    5.5834    9.8123 N   0  0  0  0  0  0  0  0  0  0  0  0
   46.1819    4.4717    8.1305 N   0  0  0  0  0  0  0  0  0  0  0  0
   44.6214    5.7706   11.0727 C   0  0  0  0  0  0  0  0  0  0  0  0
   44.7548    7.2129   11.5022 C   0  0  0  0  0  0  0  0  0  0  0  0
   44.7647    2.0375    9.1645 C   0  0  0  0  0  0  0  0  0  0  0  0
   46.2601    3.5479    7.0257 C   0  0  0  0  0  0  0  0  0  0  0  0
   45.6674    7.5816   12.5010 C   0  0  0  0  0  0  0  0  0  0  0  0
   43.9889    8.2103   10.8803 C   0  0  0  0  0  0  0  0  0  0  0  0
   45.7990    8.9188   12.8799 C   0  0  0  0  0  0  0  0  0  0  0  0
   44.1222    9.5464   11.2604 C   0  0  0  0  0  0  0  0  0  0  0  0
   45.0258    9.8997   12.2609 C   0  0  0  0  0  0  0  0  0  0  0  0
   46.2250    6.0371    9.8200 H   0  0  0  0  0  0  0  0  0  0  0  0
   46.1826    5.4315    7.8025 H   0  0  0  0  0  0  0  0  0  0  0  0
   45.0387    5.1113   11.8435 H   0  0  0  0  0  0  0  0  0  0  0  0
   43.5579    5.5225   10.9692 H   0  0  0  0  0  0  0  0  0  0  0  0
   45.7875    1.6515    9.1298 H   0  0  0  0  0  0  0  0  0  0  0  0
   44.2993    1.9867    8.1765 H   0  0  0  0  0  0  0  0  0  0  0  0
   44.1982    1.3628    9.8151 H   0  0  0  0  0  0  0  0  0  0  0  0
   46.7008    2.5953    7.3290 H   0  0  0  0  0  0  0  0  0  0  0  0
   45.2759    3.3823    6.5781 H   0  0  0  0  0  0  0  0  0  0  0  0
   46.9097    3.9667    6.2501 H   0  0  0  0  0  0  0  0  0  0  0  0
   46.2803    6.8281   12.9912 H   0  0  0  0  0  0  0  0  0  0  0  0
   43.2873    7.9438   10.0921 H   0  0  0  0  0  0  0  0  0  0  0  0
   46.5053    9.1955   13.6583 H   0  0  0  0  0  0  0  0  0  0  0  0
   43.5220   10.3111   10.7744 H   0  0  0  0  0  0  0  0  0  0  0  0
   45.1289   10.9403   12.5571 H   0  0  0  0  0  0  0  0  0  0  0  0
  2  1  2  0
  3  1  1  0
  4  1  1  0
  5  3  1  0
  6  5  1  0
  7  2  1  0
  8  4  1  0
  9  6  2  0
 10  6  1  0
 11  9  1  0
 12 10  2  0
 13 12  1  0
 11 13  2  0
  3 14  1  0
  4 15  1  0
  5 16  1  0
  5 17  1  0
  7 18  1  0
  7 19  1  0
  7 20  1  0
  8 21  1  0
  8 22  1  0
  8 23  1  0
  9 24  1  0
 10 25  1  0
 11 26  1  0
 12 27  1  0
 13 28  1  0
M  END
> <Uni-Dock RESULT> 
ENERGY=   -3.714  LOWER_BOUND=    2.547  UPPER_BOUND=    6.400
INTER + INTRA:          -3.714
INTER:                  -3.714
INTRA:                   0.000
UNBOUND:                 0.000

$$$$

     RDKit          3D

 28 28  0  0  0  0  0  0  0  0999 V2000
   46.1002    2.5159    8.1499 C   0  0  0  0  0  0  0  0  0  0  0  0
   46.1315    1.2461    8.2964 N   0  0  0  0  0  0  0  0  0  0  0  0
   45.5103    3.3066    9.0990 N   0  0  0  0  0  0  0  0  0  0  0  0
   46.5675    3.3567    7.1788 N   0  0  0  0  0  0  0  0  0  0  0  0
   45.0090    2.7272   10.3337 C   0  0  0  0  0  0  0  0  0  0  0  0
   44.4359    3.8256   11.1982 C   0  0  0  0  0  0  0  0  0  0  0  0
   46.7877    0.3695    7.3546 C   0  0  0  0  0  0  0  0  0  0  0  0
   46.9512    2.9731    5.8425 C   0  0  0  0  0  0  0  0  0  0  0  0
   45.1592    4.3308   12.2881 C   0  0  0  0  0  0  0  0  0  0  0  0
   43.1824    4.3804   10.8992 C   0  0  0  0  0  0  0  0  0  0  0  0
   44.6317    5.3589   13.0715 C   0  0  0  0  0  0  0  0  0  0  0  0
   42.6571    5.4081   11.6834 C   0  0  0  0  0  0  0  0  0  0  0  0
   43.3811    5.8958   12.7699 C   0  0  0  0  0  0  0  0  0  0  0  0
   46.0385    4.1523    9.2750 H   0  0  0  0  0  0  0  0  0  0  0  0
   46.0222    4.2119    7.1690 H   0  0  0  0  0  0  0  0  0  0  0  0
   45.8152    2.2121   10.8702 H   0  0  0  0  0  0  0  0  0  0  0  0
   44.2268    1.9865   10.1269 H   0  0  0  0  0  0  0  0  0  0  0  0
   47.8443    0.6227    7.2299 H   0  0  0  0  0  0  0  0  0  0  0  0
   46.2776    0.3548    6.3876 H   0  0  0  0  0  0  0  0  0  0  0  0
   46.7555   -0.6537    7.7437 H   0  0  0  0  0  0  0  0  0  0  0  0
   47.8608    2.3681    5.8438 H   0  0  0  0  0  0  0  0  0  0  0  0
   46.1427    2.4369    5.3373 H   0  0  0  0  0  0  0  0  0  0  0  0
   47.1678    3.8725    5.2567 H   0  0  0  0  0  0  0  0  0  0  0  0
   46.1380    3.9245   12.5344 H   0  0  0  0  0  0  0  0  0  0  0  0
   42.6145    4.0111   10.0473 H   0  0  0  0  0  0  0  0  0  0  0  0
   45.1968    5.7415   13.9175 H   0  0  0  0  0  0  0  0  0  0  0  0
   41.6838    5.8290   11.4451 H   0  0  0  0  0  0  0  0  0  0  0  0
   42.9714    6.6958   13.3808 H   0  0  0  0  0  0  0  0  0  0  0  0
  2  1  2  0
  3  1  1  0
  4  1  1  0
  5  3  1  0
  6  5  1  0
  7  2  1  0
  8  4  1  0
  9  6  2  0
 10  6  1  0
 11  9  1  0
 12 10  2  0
 13 12  1  0
 11 13  2  0
  3 14  1  0
  4 15  1  0
  5 16  1  0
  5 17  1  0
  7 18  1  0
  7 19  1  0
  7 20  1  0
  8 21  1  0
  8 22  1  0
  8 23  1  0
  9 24  1  0
 10 25  1  0
 11 26  1  0
 12 27  1  0
 13 28  1  0
M  END
> <Uni-Dock RESULT> 
ENERGY=   -3.677  LOWER_BOUND=    1.640  UPPER_BOUND=    6.025
INTER + INTRA:          -3.677
INTER:                  -3.677
INTRA:                   0.000
UNBOUND:                 0.000

$$$$

     RDKit          3D

 28 28  0  0  0  0  0  0  0  0999 V2000
   43.7933    9.3079   11.0210 C   0  0  0  0  0  0  0  0  0  0  0  0
   44.8153    9.9211   11.4837 N   0  0  0  0  0  0  0  0  0  0  0  0
   43.7337    7.9407   11.0553 N   0  0  0  0  0  0  0  0  0  0  0  0
   42.6269    9.7339   10.4496 N   0  0  0  0  0  0  0  0  0  0  0  0
   44.7777    7.1733   11.7131 C   0  0  0  0  0  0  0  0  0  0  0  0
   44.4447    5.7028   11.6182 C   0  0  0  0  0  0  0  0  0  0  0  0
   44.9074   11.3620   11.5226 C   0  0  0  0  0  0  0  0  0  0  0  0
   42.3847   11.0457    9.9015 C   0  0  0  0  0  0  0  0  0  0  0  0
   43.9091    5.0171   12.7179 C   0  0  0  0  0  0  0  0  0  0  0  0
   44.6354    5.0103   10.4131 C   0  0  0  0  0  0  0  0  0  0  0  0
   43.5860    3.6626   12.6176 C   0  0  0  0  0  0  0  0  0  0  0  0
   44.3116    3.6564   10.3150 C   0  0  0  0  0  0  0  0  0  0  0  0
   43.7886    2.9830   11.4174 C   0  0  0  0  0  0  0  0  0  0  0  0
   42.8127    7.6037   11.3068 H   0  0  0  0  0  0  0  0  0  0  0  0
   42.2544    9.0117    9.8424 H   0  0  0  0  0  0  0  0  0  0  0  0
   44.8652    7.4693   12.7656 H   0  0  0  0  0  0  0  0  0  0  0  0
   45.7506    7.3535   11.2395 H   0  0  0  0  0  0  0  0  0  0  0  0
   44.0839   11.8080   12.0875 H   0  0  0  0  0  0  0  0  0  0  0  0
   44.9662   11.7940   10.5199 H   0  0  0  0  0  0  0  0  0  0  0  0
   45.8301   11.6426   12.0415 H   0  0  0  0  0  0  0  0  0  0  0  0
   42.3529   11.8081   10.6832 H   0  0  0  0  0  0  0  0  0  0  0  0
   43.1371   11.3061    9.1515 H   0  0  0  0  0  0  0  0  0  0  0  0
   41.4078   11.0558    9.4070 H   0  0  0  0  0  0  0  0  0  0  0  0
   43.7421    5.5342   13.6604 H   0  0  0  0  0  0  0  0  0  0  0  0
   45.0352    5.5310    9.5451 H   0  0  0  0  0  0  0  0  0  0  0  0
   43.1757    3.1372   13.4761 H   0  0  0  0  0  0  0  0  0  0  0  0
   44.4659    3.1283    9.3777 H   0  0  0  0  0  0  0  0  0  0  0  0
   43.5371    1.9285   11.3407 H   0  0  0  0  0  0  0  0  0  0  0  0
  2  1  2  0
  3  1  1  0
  4  1  1  0
  5  3  1  0
  6  5  1  0
  7  2  1  0
  8  4  1  0
  9  6  2  0
 10  6  1  0
 11  9  1  0
 12 10  2  0
 13 12  1  0
 11 13  2  0
  3 14  1  0
  4 15  1  0
  5 16  1  0
  5 17  1  0
  7 18  1  0
  7 19  1  0
  7 20  1  0
  8 21  1  0
  8 22  1  0
  8 23  1  0
  9 24  1  0
 10 25  1  0
 11 26  1  0
 12 27  1  0
 13 28  1  0
M  END
> <Uni-Dock RESULT> 
ENERGY=   -3.654  LOWER_BOUND=    3.613  UPPER_BOUND=    5.675
INTER + INTRA:          -3.654
INTER:                  -3.654
INTRA:                   0.000
UNBOUND:                 0.000

$$$$

     RDKit          3D

 28 28  0  0  0  0  0  0  0  0999 V2000
   47.3773    3.9739   16.0857 C   0  0  0  0  0  0  0  0  0  0  0  0
   48.1972    3.0498   15.7562 N   0  0  0  0  0  0  0  0  0  0  0  0
   46.5207    4.5010   15.1571 N   0  0  0  0  0  0  0  0  0  0  0  0
   47.1215    4.6208   17.2624 N   0  0  0  0  0  0  0  0  0  0  0  0
   46.4551    3.9462   13.8157 C   0  0  0  0  0  0  0  0  0  0  0  0
   45.4172    4.7013   13.0188 C   0  0  0  0  0  0  0  0  0  0  0  0
   49.0843    2.4205   16.7066 C   0  0  0  0  0  0  0  0  0  0  0  0
   47.9859    4.6480   18.4166 C   0  0  0  0  0  0  0  0  0  0  0  0
   44.1470    4.1514   12.7936 C   0  0  0  0  0  0  0  0  0  0  0  0
   45.7006    5.9821   12.5215 C   0  0  0  0  0  0  0  0  0  0  0  0
   43.1863    4.8626   12.0723 C   0  0  0  0  0  0  0  0  0  0  0  0
   44.7388    6.6914   11.8010 C   0  0  0  0  0  0  0  0  0  0  0  0
   43.4829    6.1308   11.5754 C   0  0  0  0  0  0  0  0  0  0  0  0
   45.5959    4.6614   15.5367 H   0  0  0  0  0  0  0  0  0  0  0  0
   46.7354    5.5400   17.0757 H   0  0  0  0  0  0  0  0  0  0  0  0
   46.1947    2.8814   13.8539 H   0  0  0  0  0  0  0  0  0  0  0  0
   47.4261    4.0289   13.3121 H   0  0  0  0  0  0  0  0  0  0  0  0
   48.5365    1.9696   17.5389 H   0  0  0  0  0  0  0  0  0  0  0  0
   49.8448    3.1140   17.0757 H   0  0  0  0  0  0  0  0  0  0  0  0
   49.6173    1.6056   16.2055 H   0  0  0  0  0  0  0  0  0  0  0  0
   48.0464    3.6683   18.8962 H   0  0  0  0  0  0  0  0  0  0  0  0
   48.9870    5.0009   18.1528 H   0  0  0  0  0  0  0  0  0  0  0  0
   47.5759    5.3410   19.1586 H   0  0  0  0  0  0  0  0  0  0  0  0
   43.8992    3.1641   13.1777 H   0  0  0  0  0  0  0  0  0  0  0  0
   46.6760    6.4306   12.7007 H   0  0  0  0  0  0  0  0  0  0  0  0
   42.2058    4.4271   11.8982 H   0  0  0  0  0  0  0  0  0  0  0  0
   44.9694    7.6818   11.4175 H   0  0  0  0  0  0  0  0  0  0  0  0
   42.7343    6.6832   11.0137 H   0  0  0  0  0  0  0  0  0  0  0  0
  2  1  2  0
  3  1  1  0
  4  1  1  0
  5  3  1  0
  6  5  1  0
  7  2  1  0
  8  4  1  0
  9  6  2  0
 10  6  1  0
 11  9  1  0
 12 10  2  0
 13 12  1  0
 11 13  2  0
  3 14  1  0
  4 15  1  0
  5 16  1  0
  5 17  1  0
  7 18  1  0
  7 19  1  0
  7 20  1  0
  8 21  1  0
  8 22  1  0
  8 23  1  0
  9 24  1  0
 10 25  1  0
 11 26  1  0
 12 27  1  0
 13 28  1  0
M  END
> <Uni-Dock RESULT> 
ENERGY=   -3.594  LOWER_BOUND=    5.189  UPPER_BOUND=    6.701
INTER + INTRA:          -3.594
INTER:                  -3.594
INTRA:                   0.000
UNBOUND:                 0.000

$$$$

     RDKit          3D

 28 28  0  0  0  0  0  0  0  0999 V2000
   44.6872    4.9993   10.5330 C   0  0  0  0  0  0  0  0  0  0  0  0
   44.1124    4.3113   11.4446 N   0  0  0  0  0  0  0  0  0  0  0  0
   45.0271    6.3051   10.7637 N   0  0  0  0  0  0  0  0  0  0  0  0
   45.0897    4.7118    9.2588 N   0  0  0  0  0  0  0  0  0  0  0  0
   44.8390    6.8948   12.0784 C   0  0  0  0  0  0  0  0  0  0  0  0
   45.3170    8.3277   12.0503 C   0  0  0  0  0  0  0  0  0  0  0  0
   43.7812    2.9157   11.2749 C   0  0  0  0  0  0  0  0  0  0  0  0
   44.6502    3.5892    8.4671 C   0  0  0  0  0  0  0  0  0  0  0  0
   46.5602    8.6791   12.5958 C   0  0  0  0  0  0  0  0  0  0  0  0
   44.5354    9.3229   11.4447 C   0  0  0  0  0  0  0  0  0  0  0  0
   47.0042   10.0019   12.5497 C   0  0  0  0  0  0  0  0  0  0  0  0
   44.9812   10.6445   11.3995 C   0  0  0  0  0  0  0  0  0  0  0  0
   46.2144   10.9836   11.9533 C   0  0  0  0  0  0  0  0  0  0  0  0
   45.9348    6.5380   10.3802 H   0  0  0  0  0  0  0  0  0  0  0  0
   45.1152    5.5603    8.7036 H   0  0  0  0  0  0  0  0  0  0  0  0
   45.3968    6.3298   12.8351 H   0  0  0  0  0  0  0  0  0  0  0  0
   43.7809    6.8738   12.3668 H   0  0  0  0  0  0  0  0  0  0  0  0
   44.6631    2.3132   11.0398 H   0  0  0  0  0  0  0  0  0  0  0  0
   43.0023    2.7702   10.5215 H   0  0  0  0  0  0  0  0  0  0  0  0
   43.3824    2.5305   12.2193 H   0  0  0  0  0  0  0  0  0  0  0  0
   45.0269    2.6444    8.8659 H   0  0  0  0  0  0  0  0  0  0  0  0
   43.5592    3.5593    8.3946 H   0  0  0  0  0  0  0  0  0  0  0  0
   45.0464    3.6866    7.4510 H   0  0  0  0  0  0  0  0  0  0  0  0
   47.1895    7.9238   13.0618 H   0  0  0  0  0  0  0  0  0  0  0  0
   43.5751    9.0648   11.0022 H   0  0  0  0  0  0  0  0  0  0  0  0
   47.9669   10.2667   12.9791 H   0  0  0  0  0  0  0  0  0  0  0  0
   44.3667   11.4085   10.9306 H   0  0  0  0  0  0  0  0  0  0  0  0
   46.5609   12.0130   11.9184 H   0  0  0  0  0  0  0  0  0  0  0  0
  2  1  2  0
  3  1  1  0
  4  1  1  0
  5  3  1  0
  6  5  1  0
  7  2  1  0
  8  4  1  0
  9  6  2  0
 10  6  1  0
 11  9  1  0
 12 10  2  0
 13 12  1  0
 11 13  2  0
  3 14  1  0
  4 15  1  0
  5 16  1  0
  5 17  1  0
  7 18  1  0
  7 19  1  0
  7 20  1  0
  8 21  1  0
  8 22  1  0
  8 23  1  0
  9 24  1  0
 10 25  1  0
 11 26  1  0
 12 27  1  0
 13 28  1  0
M  END
> <Uni-Dock RESULT> 
ENERGY=   -3.562  LOWER_BOUND=    3.313  UPPER_BOUND=    6.660
INTER + INTRA:          -3.562
INTER:                  -3.562
INTRA:                   0.000
UNBOUND:                 0.000

$$$$

     RDKit          3D

 28 28  0  0  0  0  0  0  0  0999 V2000
   45.0050    5.1582   12.6680 C   0  0  0  0  0  0  0  0  0  0  0  0
   45.6136    4.8450   11.5881 N   0  0  0  0  0  0  0  0  0  0  0  0
   45.6453    5.0638   13.8743 N   0  0  0  0  0  0  0  0  0  0  0  0
   43.7447    5.6171   12.9315 N   0  0  0  0  0  0  0  0  0  0  0  0
   47.0537    4.7115   13.9359 C   0  0  0  0  0  0  0  0  0  0  0  0
   47.4986    4.7041   15.3797 C   0  0  0  0  0  0  0  0  0  0  0  0
   45.0051    4.9773   10.2848 C   0  0  0  0  0  0  0  0  0  0  0  0
   42.6173    5.5519   12.0342 C   0  0  0  0  0  0  0  0  0  0  0  0
   48.2336    5.7749   15.9084 C   0  0  0  0  0  0  0  0  0  0  0  0
   47.1507    3.6375   16.2221 C   0  0  0  0  0  0  0  0  0  0  0  0
   48.6253    5.7704   17.2484 C   0  0  0  0  0  0  0  0  0  0  0  0
   47.5432    3.6351   17.5612 C   0  0  0  0  0  0  0  0  0  0  0  0
   48.2815    4.7005   18.0733 C   0  0  0  0  0  0  0  0  0  0  0  0
   45.4322    5.8442   14.4830 H   0  0  0  0  0  0  0  0  0  0  0  0
   43.4734    5.3625   13.8751 H   0  0  0  0  0  0  0  0  0  0  0  0
   47.6537    5.4297   13.3639 H   0  0  0  0  0  0  0  0  0  0  0  0
   47.2264    3.7194   13.5008 H   0  0  0  0  0  0  0  0  0  0  0  0
   44.6808    6.0032   10.0886 H   0  0  0  0  0  0  0  0  0  0  0  0
   44.1759    4.2777   10.1491 H   0  0  0  0  0  0  0  0  0  0  0  0
   45.7512    4.7341    9.5209 H   0  0  0  0  0  0  0  0  0  0  0  0
   42.7474    6.2164   11.1769 H   0  0  0  0  0  0  0  0  0  0  0  0
   42.4415    4.5275   11.6937 H   0  0  0  0  0  0  0  0  0  0  0  0
   41.7168    5.8843   12.5611 H   0  0  0  0  0  0  0  0  0  0  0  0
   48.5069    6.6186   15.2783 H   0  0  0  0  0  0  0  0  0  0  0  0
   46.5669    2.8058   15.8322 H   0  0  0  0  0  0  0  0  0  0  0  0
   49.1990    6.6021   17.6491 H   0  0  0  0  0  0  0  0  0  0  0  0
   47.2711    2.8026   18.2047 H   0  0  0  0  0  0  0  0  0  0  0  0
   48.5874    4.6980   19.1161 H   0  0  0  0  0  0  0  0  0  0  0  0
  2  1  2  0
  3  1  1  0
  4  1  1  0
  5  3  1  0
  6  5  1  0
  7  2  1  0
  8  4  1  0
  9  6  2  0
 10  6  1  0
 11  9  1  0
 12 10  2  0
 13 12  1  0
 11 13  2  0
  3 14  1  0
  4 15  1  0
  5 16  1  0
  5 17  1  0
  7 18  1  0
  7 19  1  0
  7 20  1  0
  8 21  1  0
  8 22  1  0
  8 23  1  0
  9 24  1  0
 10 25  1  0
 11 26  1  0
 12 27  1  0
 13 28  1  0
M  END
> <Uni-Dock RESULT> 
ENERGY=   -3.400  LOWER_BOUND=    3.389  UPPER_BOUND=    7.334
INTER + INTRA:          -3.400
INTER:                  -3.400
INTRA:                   0.000
UNBOUND:                 0.000

$$$$
