
     RDKit          3D

 28 28  0  0  0  0  0  0  0  0999 V2000
   44.5919    5.1342   10.7926 C   0  0  0  0  0  0  0  0  0  0  0  0
   43.3149    5.1431   10.7288 N   0  0  0  0  0  0  0  0  0  0  0  0
   45.3251    4.4451    9.8645 N   0  0  0  0  0  0  0  0  0  0  0  0
   45.4887    5.6986   11.6559 N   0  0  0  0  0  0  0  0  0  0  0  0
   44.6640    3.6282    8.8609 C   0  0  0  0  0  0  0  0  0  0  0  0
   45.7100    2.9704    7.9915 C   0  0  0  0  0  0  0  0  0  0  0  0
   42.4907    5.8074   11.7114 C   0  0  0  0  0  0  0  0  0  0  0  0
   45.2127    6.7735   12.5770 C   0  0  0  0  0  0  0  0  0  0  0  0
   46.3809    3.7120    7.0077 C   0  0  0  0  0  0  0  0  0  0  0  0
   46.0507    1.6227    8.1762 C   0  0  0  0  0  0  0  0  0  0  0  0
   47.3612    3.1138    6.2149 C   0  0  0  0  0  0  0  0  0  0  0  0
   47.0316    1.0261    7.3818 C   0  0  0  0  0  0  0  0  0  0  0  0
   47.6849    1.7711    6.4012 C   0  0  0  0  0  0  0  0  0  0  0  0
   46.1087    3.9576   10.2808 H   0  0  0  0  0  0  0  0  0  0  0  0
   46.3779    5.8395   11.1887 H   0  0  0  0  0  0  0  0  0  0  0  0
   44.0061    4.2404    8.2319 H   0  0  0  0  0  0  0  0  0  0  0  0
   44.0412    2.8626    9.3397 H   0  0  0  0  0  0  0  0  0  0  0  0
   42.6779    5.4317   12.7215 H   0  0  0  0  0  0  0  0  0  0  0  0
   42.6090    6.8937   11.6756 H   0  0  0  0  0  0  0  0  0  0  0  0
   41.4390    5.5972   11.4899 H   0  0  0  0  0  0  0  0  0  0  0  0
   46.1477    7.0948   13.0477 H   0  0  0  0  0  0  0  0  0  0  0  0
   44.5463    6.4525   13.3809 H   0  0  0  0  0  0  0  0  0  0  0  0
   44.7893    7.6390   12.0594 H   0  0  0  0  0  0  0  0  0  0  0  0
   46.1402    4.7633    6.8619 H   0  0  0  0  0  0  0  0  0  0  0  0
   45.5521    1.0289    8.9394 H   0  0  0  0  0  0  0  0  0  0  0  0
   47.8731    3.6964    5.4535 H   0  0  0  0  0  0  0  0  0  0  0  0
   47.2865   -0.0203    7.5280 H   0  0  0  0  0  0  0  0  0  0  0  0
   48.4481    1.3054    5.7831 H   0  0  0  0  0  0  0  0  0  0  0  0
  2  1  2  0
  3  1  1  0
  4  1  1  0
  5  3  1  0
  6  5  1  0
  7  2  1  0
  8  4  1  0
  9  6  2  0
 10  6  1  0
 11  9  1  0
 12 10  2  0
 13 12  1  0
 11 13  2  0
  3 14  1  0
  4 15  1  0
  5 16  1  0
  5 17  1  0
  7 18  1  0
  7 19  1  0
  7 20  1  0
  8 21  1  0
  8 22  1  0
  8 23  1  0
  9 24  1  0
 10 25  1  0
 11 26  1  0
 12 27  1  0
 13 28  1  0
M  END
> <Uni-Dock RESULT> 
ENERGY=   -6.568  LOWER_BOUND=    0.000  UPPER_BOUND=    0.000
INTER + INTRA:          -6.568
INTER:                  -6.568
INTRA:                   0.000
UNBOUND:                 0.000

$$$$

     RDKit          3D

 28 28  0  0  0  0  0  0  0  0999 V2000
   46.2380    2.7247    7.8717 C   0  0  0  0  0  0  0  0  0  0  0  0
   46.4116    3.4045    6.8028 N   0  0  0  0  0  0  0  0  0  0  0  0
   45.6612    3.3012    8.9711 N   0  0  0  0  0  0  0  0  0  0  0  0
   46.5258    1.4334    8.2154 N   0  0  0  0  0  0  0  0  0  0  0  0
   45.3375    4.7178    8.9766 C   0  0  0  0  0  0  0  0  0  0  0  0
   44.7380    5.0826   10.3146 C   0  0  0  0  0  0  0  0  0  0  0  0
   47.0636    2.8635    5.6330 C   0  0  0  0  0  0  0  0  0  0  0  0
   46.8213    0.3610    7.2974 C   0  0  0  0  0  0  0  0  0  0  0  0
   43.4125    4.7348   10.6147 C   0  0  0  0  0  0  0  0  0  0  0  0
   45.5040    5.7412   11.2872 C   0  0  0  0  0  0  0  0  0  0  0  0
   42.8602    5.0528   11.8561 C   0  0  0  0  0  0  0  0  0  0  0  0
   44.9494    6.0586   12.5285 C   0  0  0  0  0  0  0  0  0  0  0  0
   43.6282    5.7158   12.8116 C   0  0  0  0  0  0  0  0  0  0  0  0
   46.1145    3.0219    9.8322 H   0  0  0  0  0  0  0  0  0  0  0  0
   45.8978    1.1218    8.9484 H   0  0  0  0  0  0  0  0  0  0  0  0
   44.6188    4.9563    8.1829 H   0  0  0  0  0  0  0  0  0  0  0  0
   46.2380    5.3172    8.7950 H   0  0  0  0  0  0  0  0  0  0  0  0
   48.0730    2.5070    5.8572 H   0  0  0  0  0  0  0  0  0  0  0  0
   46.4705    2.0735    5.1644 H   0  0  0  0  0  0  0  0  0  0  0  0
   47.1717    3.6600    4.8893 H   0  0  0  0  0  0  0  0  0  0  0  0
   46.8903   -0.5805    7.8523 H   0  0  0  0  0  0  0  0  0  0  0  0
   47.7839    0.5094    6.8028 H   0  0  0  0  0  0  0  0  0  0  0  0
   46.0283    0.2479    6.5528 H   0  0  0  0  0  0  0  0  0  0  0  0
   42.8088    4.2092    9.8773 H   0  0  0  0  0  0  0  0  0  0  0  0
   46.5375    6.0126   11.0825 H   0  0  0  0  0  0  0  0  0  0  0  0
   41.8314    4.7814   12.0777 H   0  0  0  0  0  0  0  0  0  0  0  0
   45.5484    6.5734   13.2752 H   0  0  0  0  0  0  0  0  0  0  0  0
   43.1974    5.9638   13.7781 H   0  0  0  0  0  0  0  0  0  0  0  0
  2  1  2  0
  3  1  1  0
  4  1  1  0
  5  3  1  0
  6  5  1  0
  7  2  1  0
  8  4  1  0
  9  6  2  0
 10  6  1  0
 11  9  1  0
 12 10  2  0
 13 12  1  0
 11 13  2  0
  3 14  1  0
  4 15  1  0
  5 16  1  0
  5 17  1  0
  7 18  1  0
  7 19  1  0
  7 20  1  0
  8 21  1  0
  8 22  1  0
  8 23  1  0
  9 24  1  0
 10 25  1  0
 11 26  1  0
 12 27  1  0
 13 28  1  0
M  END
> <Uni-Dock RESULT> 
ENERGY=   -4.163  LOWER_BOUND=    1.691  UPPER_BOUND=    5.973
INTER + INTRA:          -4.163
INTER:                  -4.163
INTRA:                   0.000
UNBOUND:                 0.000

$$$$

     RDKit          3D

 28 28  0  0  0  0  0  0  0  0999 V2000
   46.3384    7.1193   11.7602 C   0  0  0  0  0  0  0  0  0  0  0  0
   45.3592    7.9357   11.8572 N   0  0  0  0  0  0  0  0  0  0  0  0
   46.2472    6.0252   10.9427 N   0  0  0  0  0  0  0  0  0  0  0  0
   47.5748    7.0692   12.3408 N   0  0  0  0  0  0  0  0  0  0  0  0
   45.0026    5.7171   10.2589 C   0  0  0  0  0  0  0  0  0  0  0  0
   45.1822    4.4532    9.4509 C   0  0  0  0  0  0  0  0  0  0  0  0
   45.3802    9.0751   12.7447 C   0  0  0  0  0  0  0  0  0  0  0  0
   48.2431    8.1639   13.0004 C   0  0  0  0  0  0  0  0  0  0  0  0
   45.8902    4.4818    8.2401 C   0  0  0  0  0  0  0  0  0  0  0  0
   44.6764    3.2296    9.9130 C   0  0  0  0  0  0  0  0  0  0  0  0
   46.0750    3.3136    7.4996 C   0  0  0  0  0  0  0  0  0  0  0  0
   44.8623    2.0620    9.1704 C   0  0  0  0  0  0  0  0  0  0  0  0
   45.5597    2.1048    7.9642 C   0  0  0  0  0  0  0  0  0  0  0  0
   46.6529    5.1982   11.3630 H   0  0  0  0  0  0  0  0  0  0  0  0
   48.2168    6.5571   11.7454 H   0  0  0  0  0  0  0  0  0  0  0  0
   44.7139    6.5355    9.5879 H   0  0  0  0  0  0  0  0  0  0  0  0
   44.1899    5.5847   10.9836 H   0  0  0  0  0  0  0  0  0  0  0  0
   45.5497    8.7792   13.7839 H   0  0  0  0  0  0  0  0  0  0  0  0
   46.1143    9.8224   12.4315 H   0  0  0  0  0  0  0  0  0  0  0  0
   44.4005    9.5635   12.7149 H   0  0  0  0  0  0  0  0  0  0  0  0
   49.2636    7.8616   13.2576 H   0  0  0  0  0  0  0  0  0  0  0  0
   47.7463    8.4330   13.9355 H   0  0  0  0  0  0  0  0  0  0  0  0
   48.3125    9.0371   12.3456 H   0  0  0  0  0  0  0  0  0  0  0  0
   46.3032    5.4201    7.8748 H   0  0  0  0  0  0  0  0  0  0  0  0
   44.1327    3.1794   10.8539 H   0  0  0  0  0  0  0  0  0  0  0  0
   46.6225    3.3470    6.5614 H   0  0  0  0  0  0  0  0  0  0  0  0
   44.4629    1.1185    9.5332 H   0  0  0  0  0  0  0  0  0  0  0  0
   45.7034    1.1953    7.3868 H   0  0  0  0  0  0  0  0  0  0  0  0
  2  1  2  0
  3  1  1  0
  4  1  1  0
  5  3  1  0
  6  5  1  0
  7  2  1  0
  8  4  1  0
  9  6  2  0
 10  6  1  0
 11  9  1  0
 12 10  2  0
 13 12  1  0
 11 13  2  0
  3 14  1  0
  4 15  1  0
  5 16  1  0
  5 17  1  0
  7 18  1  0
  7 19  1  0
  7 20  1  0
  8 21  1  0
  8 22  1  0
  8 23  1  0
  9 24  1  0
 10 25  1  0
 11 26  1  0
 12 27  1  0
 13 28  1  0
M  END
> <Uni-Dock RESULT> 
ENERGY=   -3.913  LOWER_BOUND=    1.805  UPPER_BOUND=    2.829
INTER + INTRA:          -3.913
INTER:                  -3.913
INTRA:                   0.000
UNBOUND:                 0.000

$$$$

     RDKit          3D

 28 28  0  0  0  0  0  0  0  0999 V2000
   47.1716    7.2243   12.1131 C   0  0  0  0  0  0  0  0  0  0  0  0
   46.3845    8.1889   12.4044 N   0  0  0  0  0  0  0  0  0  0  0  0
   46.7257    6.1722   11.3596 N   0  0  0  0  0  0  0  0  0  0  0  0
   48.4801    6.9634   12.4098 N   0  0  0  0  0  0  0  0  0  0  0  0
   45.3281    6.0827   10.9719 C   0  0  0  0  0  0  0  0  0  0  0  0
   45.1169    4.8184   10.1720 C   0  0  0  0  0  0  0  0  0  0  0  0
   46.7856    9.2961   13.2406 C   0  0  0  0  0  0  0  0  0  0  0  0
   49.4465    7.9238   12.8829 C   0  0  0  0  0  0  0  0  0  0  0  0
   45.5366    4.7483    8.8352 C   0  0  0  0  0  0  0  0  0  0  0  0
   44.5321    3.6878   10.7603 C   0  0  0  0  0  0  0  0  0  0  0  0
   45.3609    3.5767    8.0980 C   0  0  0  0  0  0  0  0  0  0  0  0
   44.3571    2.5166   10.0208 C   0  0  0  0  0  0  0  0  0  0  0  0
   44.7700    2.4621    8.6905 C   0  0  0  0  0  0  0  0  0  0  0  0
   47.0731    5.2838   11.6988 H   0  0  0  0  0  0  0  0  0  0  0  0
   48.8832    6.3618   11.6996 H   0  0  0  0  0  0  0  0  0  0  0  0
   45.0367    6.9472   10.3627 H   0  0  0  0  0  0  0  0  0  0  0  0
   44.6840    6.0748   11.8597 H   0  0  0  0  0  0  0  0  0  0  0  0
   47.1286    8.9611   14.2237 H   0  0  0  0  0  0  0  0  0  0  0  0
   47.5449    9.9174   12.7579 H   0  0  0  0  0  0  0  0  0  0  0  0
   45.9166    9.9391   13.4154 H   0  0  0  0  0  0  0  0  0  0  0  0
   50.4352    7.4544   12.9168 H   0  0  0  0  0  0  0  0  0  0  0  0
   49.2181    8.2570   13.8979 H   0  0  0  0  0  0  0  0  0  0  0  0
   49.5121    8.7834   12.2098 H   0  0  0  0  0  0  0  0  0  0  0  0
   46.0069    5.6114    8.3679 H   0  0  0  0  0  0  0  0  0  0  0  0
   44.2076    3.7136   11.7984 H   0  0  0  0  0  0  0  0  0  0  0  0
   45.6869    3.5336    7.0621 H   0  0  0  0  0  0  0  0  0  0  0  0
   43.8986    1.6461   10.4828 H   0  0  0  0  0  0  0  0  0  0  0  0
   44.6328    1.5500    8.1157 H   0  0  0  0  0  0  0  0  0  0  0  0
  2  1  2  0
  3  1  1  0
  4  1  1  0
  5  3  1  0
  6  5  1  0
  7  2  1  0
  8  4  1  0
  9  6  2  0
 10  6  1  0
 11  9  1  0
 12 10  2  0
 13 12  1  0
 11 13  2  0
  3 14  1  0
  4 15  1  0
  5 16  1  0
  5 17  1  0
  7 18  1  0
  7 19  1  0
  7 20  1  0
  8 21  1  0
  8 22  1  0
  8 23  1  0
  9 24  1  0
 10 25  1  0
 11 26  1  0
 12 27  1  0
 13 28  1  0
M  END
> <Uni-Dock RESULT> 
ENERGY=   -3.812  LOWER_BOUND=    2.308  UPPER_BOUND=    3.731
INTER + INTRA:          -3.812
INTER:                  -3.812
INTRA:                   0.000
UNBOUND:                 0.000

$$$$

     RDKit          3D

 28 28  0  0  0  0  0  0  0  0999 V2000
   47.4891    4.5238   16.0719 C   0  0  0  0  0  0  0  0  0  0  0  0
   48.4569    5.3291   15.8492 N   0  0  0  0  0  0  0  0  0  0  0  0
   46.5292    4.3167   15.1182 N   0  0  0  0  0  0  0  0  0  0  0  0
   47.1460    3.7484   17.1441 N   0  0  0  0  0  0  0  0  0  0  0  0
   46.5357    5.0866   13.8859 C   0  0  0  0  0  0  0  0  0  0  0  0
   45.3587    4.6689   13.0357 C   0  0  0  0  0  0  0  0  0  0  0  0
   49.4662    5.6264   16.8387 C   0  0  0  0  0  0  0  0  0  0  0  0
   48.0171    3.3794   18.2326 C   0  0  0  0  0  0  0  0  0  0  0  0
   45.3907    3.4573   12.3292 C   0  0  0  0  0  0  0  0  0  0  0  0
   44.2063    5.4649   12.9668 C   0  0  0  0  0  0  0  0  0  0  0  0
   44.2986    3.0580   11.5577 C   0  0  0  0  0  0  0  0  0  0  0  0
   43.1150    5.0635   12.1941 C   0  0  0  0  0  0  0  0  0  0  0  0
   43.1622    3.8618   11.4893 C   0  0  0  0  0  0  0  0  0  0  0  0
   45.5996    4.2628   15.5159 H   0  0  0  0  0  0  0  0  0  0  0  0
   46.5936    2.9556   16.8357 H   0  0  0  0  0  0  0  0  0  0  0  0
   47.4632    4.9168   13.3254 H   0  0  0  0  0  0  0  0  0  0  0  0
   46.4761    6.1599   14.1045 H   0  0  0  0  0  0  0  0  0  0  0  0
   49.0297    6.0246   17.7591 H   0  0  0  0  0  0  0  0  0  0  0  0
   50.0946    4.7579   17.0537 H   0  0  0  0  0  0  0  0  0  0  0  0
   50.1280    6.4048   16.4446 H   0  0  0  0  0  0  0  0  0  0  0  0
   47.5040    2.6580   18.8770 H   0  0  0  0  0  0  0  0  0  0  0  0
   48.2674    4.2406   18.8565 H   0  0  0  0  0  0  0  0  0  0  0  0
   48.9300    2.9025   17.8645 H   0  0  0  0  0  0  0  0  0  0  0  0
   46.2709    2.8196   12.3845 H   0  0  0  0  0  0  0  0  0  0  0  0
   44.1529    6.4039   13.5137 H   0  0  0  0  0  0  0  0  0  0  0  0
   44.3346    2.1189   11.0118 H   0  0  0  0  0  0  0  0  0  0  0  0
   42.2273    5.6886   12.1421 H   0  0  0  0  0  0  0  0  0  0  0  0
   42.3121    3.5507   10.8877 H   0  0  0  0  0  0  0  0  0  0  0  0
  2  1  2  0
  3  1  1  0
  4  1  1  0
  5  3  1  0
  6  5  1  0
  7  2  1  0
  8  4  1  0
  9  6  2  0
 10  6  1  0
 11  9  1  0
 12 10  2  0
 13 12  1  0
 11 13  2  0
  3 14  1  0
  4 15  1  0
  5 16  1  0
  5 17  1  0
  7 18  1  0
  7 19  1  0
  7 20  1  0
  8 21  1  0
  8 22  1  0
  8 23  1  0
  9 24  1  0
 10 25  1  0
 11 26  1  0
 12 27  1  0
 13 28  1  0
M  END
> <Uni-Dock RESULT> 
ENERGY=   -3.753  LOWER_BOUND=    4.417  UPPER_BOUND=    6.532
INTER + INTRA:          -3.753
INTER:                  -3.753
INTRA:                   0.000
UNBOUND:                 0.000

$$$$

     RDKit          3D

 28 28  0  0  0  0  0  0  0  0999 V2000
   44.7639    4.3689   12.8243 C   0  0  0  0  0  0  0  0  0  0  0  0
   45.1641    3.5314   11.9451 N   0  0  0  0  0  0  0  0  0  0  0  0
   45.5335    4.6366   13.9242 N   0  0  0  0  0  0  0  0  0  0  0  0
   43.6359    5.1316   12.9439 N   0  0  0  0  0  0  0  0  0  0  0  0
   46.7610    3.8965   14.1633 C   0  0  0  0  0  0  0  0  0  0  0  0
   47.3877    4.3808   15.4500 C   0  0  0  0  0  0  0  0  0  0  0  0
   44.3692    3.1707   10.7943 C   0  0  0  0  0  0  0  0  0  0  0  0
   42.7085    5.4397   11.8832 C   0  0  0  0  0  0  0  0  0  0  0  0
   48.0689    5.6066   15.4878 C   0  0  0  0  0  0  0  0  0  0  0  0
   47.2693    3.6331   16.6303 C   0  0  0  0  0  0  0  0  0  0  0  0
   48.6331    6.0672   16.6780 C   0  0  0  0  0  0  0  0  0  0  0  0
   47.8347    4.0957   17.8201 C   0  0  0  0  0  0  0  0  0  0  0  0
   48.5172    5.3109   17.8430 C   0  0  0  0  0  0  0  0  0  0  0  0
   44.9802    4.7179   14.7682 H   0  0  0  0  0  0  0  0  0  0  0  0
   43.8308    5.9529   13.5063 H   0  0  0  0  0  0  0  0  0  0  0  0
   47.4707    4.0426   13.3398 H   0  0  0  0  0  0  0  0  0  0  0  0
   46.5532    2.8215   14.2307 H   0  0  0  0  0  0  0  0  0  0  0  0
   43.3938    2.7684   11.0826 H   0  0  0  0  0  0  0  0  0  0  0  0
   44.2517    4.0082   10.1013 H   0  0  0  0  0  0  0  0  0  0  0  0
   44.8846    2.3763   10.2445 H   0  0  0  0  0  0  0  0  0  0  0  0
   41.9733    6.1655   12.2460 H   0  0  0  0  0  0  0  0  0  0  0  0
   42.1517    4.5547   11.5667 H   0  0  0  0  0  0  0  0  0  0  0  0
   43.2211    5.8886   11.0276 H   0  0  0  0  0  0  0  0  0  0  0  0
   48.1563    6.2072   14.5845 H   0  0  0  0  0  0  0  0  0  0  0  0
   46.7371    2.6842   16.6293 H   0  0  0  0  0  0  0  0  0  0  0  0
   49.1614    7.0168   16.6961 H   0  0  0  0  0  0  0  0  0  0  0  0
   47.7427    3.5077   18.7296 H   0  0  0  0  0  0  0  0  0  0  0  0
   48.9573    5.6698   18.7697 H   0  0  0  0  0  0  0  0  0  0  0  0
  2  1  2  0
  3  1  1  0
  4  1  1  0
  5  3  1  0
  6  5  1  0
  7  2  1  0
  8  4  1  0
  9  6  2  0
 10  6  1  0
 11  9  1  0
 12 10  2  0
 13 12  1  0
 11 13  2  0
  3 14  1  0
  4 15  1  0
  5 16  1  0
  5 17  1  0
  7 18  1  0
  7 19  1  0
  7 20  1  0
  8 21  1  0
  8 22  1  0
  8 23  1  0
  9 24  1  0
 10 25  1  0
 11 26  1  0
 12 27  1  0
 13 28  1  0
M  END
> <Uni-Dock RESULT> 
ENERGY=   -3.698  LOWER_BOUND=    4.084  UPPER_BOUND=    7.261
INTER + INTRA:          -3.698
INTER:                  -3.698
INTRA:                   0.000
UNBOUND:                 0.000

$$$$

     RDKit          3D

 28 28  0  0  0  0  0  0  0  0999 V2000
   43.5855    9.1378   11.1139 C   0  0  0  0  0  0  0  0  0  0  0  0
   44.6390    9.7669   11.4732 N   0  0  0  0  0  0  0  0  0  0  0  0
   43.5744    7.7693   11.0841 N   0  0  0  0  0  0  0  0  0  0  0  0
   42.3467    9.5459   10.7050 N   0  0  0  0  0  0  0  0  0  0  0  0
   44.7870    7.0159   11.3549 C   0  0  0  0  0  0  0  0  0  0  0  0
   44.4899    5.5397   11.2313 C   0  0  0  0  0  0  0  0  0  0  0  0
   44.7241   11.2087   11.4709 C   0  0  0  0  0  0  0  0  0  0  0  0
   41.7845   10.8601   10.8969 C   0  0  0  0  0  0  0  0  0  0  0  0
   43.7951    4.8699   12.2495 C   0  0  0  0  0  0  0  0  0  0  0  0
   44.8712    4.8256   10.0863 C   0  0  0  0  0  0  0  0  0  0  0  0
   43.5017    3.5108   12.1315 C   0  0  0  0  0  0  0  0  0  0  0  0
   44.5768    3.4658    9.9703 C   0  0  0  0  0  0  0  0  0  0  0  0
   43.8940    2.8092   10.9929 C   0  0  0  0  0  0  0  0  0  0  0  0
   43.0876    7.4078   10.2733 H   0  0  0  0  0  0  0  0  0  0  0  0
   41.6614    8.8249   10.9031 H   0  0  0  0  0  0  0  0  0  0  0  0
   45.1581    7.2251   12.3658 H   0  0  0  0  0  0  0  0  0  0  0  0
   45.5787    7.2977   10.6499 H   0  0  0  0  0  0  0  0  0  0  0  0
   44.5204   11.6275   10.4812 H   0  0  0  0  0  0  0  0  0  0  0  0
   44.0681   11.6570   12.2221 H   0  0  0  0  0  0  0  0  0  0  0  0
   45.7468   11.5022   11.7298 H   0  0  0  0  0  0  0  0  0  0  0  0
   40.7379   10.8556   10.5752 H   0  0  0  0  0  0  0  0  0  0  0  0
   42.2996   11.6097   10.2918 H   0  0  0  0  0  0  0  0  0  0  0  0
   41.8044   11.1486   11.9517 H   0  0  0  0  0  0  0  0  0  0  0  0
   43.4777    5.4126   13.1379 H   0  0  0  0  0  0  0  0  0  0  0  0
   45.4019    5.3246    9.2782 H   0  0  0  0  0  0  0  0  0  0  0  0
   42.9656    3.0005   12.9273 H   0  0  0  0  0  0  0  0  0  0  0  0
   44.8801    2.9184    9.0817 H   0  0  0  0  0  0  0  0  0  0  0  0
   43.6657    1.7505   10.9017 H   0  0  0  0  0  0  0  0  0  0  0  0
  2  1  2  0
  3  1  1  0
  4  1  1  0
  5  3  1  0
  6  5  1  0
  7  2  1  0
  8  4  1  0
  9  6  2  0
 10  6  1  0
 11  9  1  0
 12 10  2  0
 13 12  1  0
 11 13  2  0
  3 14  1  0
  4 15  1  0
  5 16  1  0
  5 17  1  0
  7 18  1  0
  7 19  1  0
  7 20  1  0
  8 21  1  0
  8 22  1  0
  8 23  1  0
  9 24  1  0
 10 25  1  0
 11 26  1  0
 12 27  1  0
 13 28  1  0
M  END
> <Uni-Dock RESULT> 
ENERGY=   -3.591  LOWER_BOUND=    3.156  UPPER_BOUND=    5.113
INTER + INTRA:          -3.591
INTER:                  -3.591
INTRA:                   0.000
UNBOUND:                 0.000

$$$$

     RDKit          3D

 28 28  0  0  0  0  0  0  0  0999 V2000
   47.3685    4.0239   15.9421 C   0  0  0  0  0  0  0  0  0  0  0  0
   48.0766    2.9953   15.6679 N   0  0  0  0  0  0  0  0  0  0  0  0
   46.4894    4.5235   15.0194 N   0  0  0  0  0  0  0  0  0  0  0  0
   47.2752    4.8280   17.0436 N   0  0  0  0  0  0  0  0  0  0  0  0
   46.4260    3.9610   13.6811 C   0  0  0  0  0  0  0  0  0  0  0  0
   45.3937    4.7153   12.8761 C   0  0  0  0  0  0  0  0  0  0  0  0
   49.0579    2.4590   16.5820 C   0  0  0  0  0  0  0  0  0  0  0  0
   47.7469    4.5047   18.3676 C   0  0  0  0  0  0  0  0  0  0  0  0
   44.0259    4.4834   13.0847 C   0  0  0  0  0  0  0  0  0  0  0  0
   45.7832    5.6803   11.9362 C   0  0  0  0  0  0  0  0  0  0  0  0
   43.0683    5.1912   12.3572 C   0  0  0  0  0  0  0  0  0  0  0  0
   44.8235    6.3871   11.2092 C   0  0  0  0  0  0  0  0  0  0  0  0
   43.4674    6.1413   11.4189 C   0  0  0  0  0  0  0  0  0  0  0  0
   46.4936    5.5357   14.9954 H   0  0  0  0  0  0  0  0  0  0  0  0
   46.3586    5.2610   17.0799 H   0  0  0  0  0  0  0  0  0  0  0  0
   46.1498    2.9000   13.7172 H   0  0  0  0  0  0  0  0  0  0  0  0
   47.4047    4.0288   13.1903 H   0  0  0  0  0  0  0  0  0  0  0  0
   49.8115    3.2036   16.8539 H   0  0  0  0  0  0  0  0  0  0  0  0
   48.5932    2.0357   17.4766 H   0  0  0  0  0  0  0  0  0  0  0  0
   49.5915    1.6410   16.0867 H   0  0  0  0  0  0  0  0  0  0  0  0
   47.4268    5.2853   19.0655 H   0  0  0  0  0  0  0  0  0  0  0  0
   48.8381    4.4706   18.4080 H   0  0  0  0  0  0  0  0  0  0  0  0
   47.3269    3.5572   18.7167 H   0  0  0  0  0  0  0  0  0  0  0  0
   43.7059    3.7495   13.8218 H   0  0  0  0  0  0  0  0  0  0  0  0
   46.8375    5.8857   11.7635 H   0  0  0  0  0  0  0  0  0  0  0  0
   42.0112    5.0020   12.5242 H   0  0  0  0  0  0  0  0  0  0  0  0
   45.1338    7.1300   10.4791 H   0  0  0  0  0  0  0  0  0  0  0  0
   42.7212    6.6918   10.8521 H   0  0  0  0  0  0  0  0  0  0  0  0
  2  1  2  0
  3  1  1  0
  4  1  1  0
  5  3  1  0
  6  5  1  0
  7  2  1  0
  8  4  1  0
  9  6  2  0
 10  6  1  0
 11  9  1  0
 12 10  2  0
 13 12  1  0
 11 13  2  0
  3 14  1  0
  4 15  1  0
  5 16  1  0
  5 17  1  0
  7 18  1  0
  7 19  1  0
  7 20  1  0
  8 21  1  0
  8 22  1  0
  8 23  1  0
  9 24  1  0
 10 25  1  0
 11 26  1  0
 12 27  1  0
 13 28  1  0
M  END
> <Uni-Dock RESULT> 
ENERGY=   -3.571  LOWER_BOUND=    4.840  UPPER_BOUND=    6.617
INTER + INTRA:          -3.571
INTER:                  -3.571
INTRA:                   0.000
UNBOUND:                 0.000

$$$$
