
     RDKit          3D

 28 28  0  0  0  0  0  0  0  0999 V2000
   44.6071    4.7728   10.8794 C   0  0  0  0  0  0  0  0  0  0  0  0
   43.3705    5.0257   10.6756 N   0  0  0  0  0  0  0  0  0  0  0  0
   45.3349    4.0857    9.9458 N   0  0  0  0  0  0  0  0  0  0  0  0
   45.4628    5.0591   11.9062 N   0  0  0  0  0  0  0  0  0  0  0  0
   44.7444    3.7291    8.6668 C   0  0  0  0  0  0  0  0  0  0  0  0
   45.7737    3.0031    7.8324 C   0  0  0  0  0  0  0  0  0  0  0  0
   42.5696    5.7932   11.6006 C   0  0  0  0  0  0  0  0  0  0  0  0
   45.0804    5.4618   13.2372 C   0  0  0  0  0  0  0  0  0  0  0  0
   46.4506    3.6623    6.7963 C   0  0  0  0  0  0  0  0  0  0  0  0
   46.0913    1.6646    8.1074 C   0  0  0  0  0  0  0  0  0  0  0  0
   47.4139    2.9907    6.0414 C   0  0  0  0  0  0  0  0  0  0  0  0
   47.0548    0.9952    7.3518 C   0  0  0  0  0  0  0  0  0  0  0  0
   47.7143    1.6580    6.3184 C   0  0  0  0  0  0  0  0  0  0  0  0
   46.2660    4.4662    9.8301 H   0  0  0  0  0  0  0  0  0  0  0  0
   46.2116    4.3754   11.9342 H   0  0  0  0  0  0  0  0  0  0  0  0
   44.4023    4.6277    8.1389 H   0  0  0  0  0  0  0  0  0  0  0  0
   43.8720    3.0794    8.8082 H   0  0  0  0  0  0  0  0  0  0  0  0
   42.4180    5.2637   12.5451 H   0  0  0  0  0  0  0  0  0  0  0  0
   41.5776    5.9487   11.1635 H   0  0  0  0  0  0  0  0  0  0  0  0
   42.9915    6.7865   11.7782 H   0  0  0  0  0  0  0  0  0  0  0  0
   44.6393    6.4612   13.2435 H   0  0  0  0  0  0  0  0  0  0  0  0
   44.3891    4.7419   13.6849 H   0  0  0  0  0  0  0  0  0  0  0  0
   45.9715    5.5030   13.8721 H   0  0  0  0  0  0  0  0  0  0  0  0
   46.2295    4.7033    6.5700 H   0  0  0  0  0  0  0  0  0  0  0  0
   45.5870    1.1424    8.9184 H   0  0  0  0  0  0  0  0  0  0  0  0
   47.9306    3.5076    5.2368 H   0  0  0  0  0  0  0  0  0  0  0  0
   47.2914   -0.0426    7.5712 H   0  0  0  0  0  0  0  0  0  0  0  0
   48.4643    1.1362    5.7298 H   0  0  0  0  0  0  0  0  0  0  0  0
  2  1  2  0
  3  1  1  0
  4  1  1  0
  5  3  1  0
  6  5  1  0
  7  2  1  0
  8  4  1  0
  9  6  2  0
 10  6  1  0
 11  9  1  0
 12 10  2  0
 13 12  1  0
 11 13  2  0
  3 14  1  0
  4 15  1  0
  5 16  1  0
  5 17  1  0
  7 18  1  0
  7 19  1  0
  7 20  1  0
  8 21  1  0
  8 22  1  0
  8 23  1  0
  9 24  1  0
 10 25  1  0
 11 26  1  0
 12 27  1  0
 13 28  1  0
M  END
> <Uni-Dock RESULT> 
ENERGY=   -6.295  LOWER_BOUND=    0.000  UPPER_BOUND=    0.000
INTER + INTRA:          -6.295
INTER:                  -6.295
INTRA:                   0.000
UNBOUND:                 0.000

$$$$

     RDKit          3D

 28 28  0  0  0  0  0  0  0  0999 V2000
   46.0844    2.6847    8.0044 C   0  0  0  0  0  0  0  0  0  0  0  0
   46.4332    3.4387    7.0326 N   0  0  0  0  0  0  0  0  0  0  0  0
   45.5300    3.2247    9.1334 N   0  0  0  0  0  0  0  0  0  0  0  0
   46.1311    1.3330    8.2023 N   0  0  0  0  0  0  0  0  0  0  0  0
   45.2310    4.6452    9.2012 C   0  0  0  0  0  0  0  0  0  0  0  0
   44.6095    4.9560   10.5428 C   0  0  0  0  0  0  0  0  0  0  0  0
   46.9719    2.9184    5.7976 C   0  0  0  0  0  0  0  0  0  0  0  0
   46.9286    0.3962    7.4496 C   0  0  0  0  0  0  0  0  0  0  0  0
   43.2254    5.1449   10.6648 C   0  0  0  0  0  0  0  0  0  0  0  0
   45.4086    5.0257   11.6938 C   0  0  0  0  0  0  0  0  0  0  0  0
   42.6555    5.4133   11.9107 C   0  0  0  0  0  0  0  0  0  0  0  0
   44.8368    5.2938   12.9382 C   0  0  0  0  0  0  0  0  0  0  0  0
   43.4611    5.4890   13.0457 C   0  0  0  0  0  0  0  0  0  0  0  0
   44.7620    2.6678    9.4871 H   0  0  0  0  0  0  0  0  0  0  0  0
   46.1714    1.1293    9.1952 H   0  0  0  0  0  0  0  0  0  0  0  0
   44.5431    4.9307    8.3959 H   0  0  0  0  0  0  0  0  0  0  0  0
   46.1436    5.2416    9.0801 H   0  0  0  0  0  0  0  0  0  0  0  0
   47.9560    2.4641    5.9415 H   0  0  0  0  0  0  0  0  0  0  0  0
   47.1069    3.7472    5.0947 H   0  0  0  0  0  0  0  0  0  0  0  0
   46.2870    2.2123    5.3196 H   0  0  0  0  0  0  0  0  0  0  0  0
   46.5688    0.2962    6.4230 H   0  0  0  0  0  0  0  0  0  0  0  0
   47.9841    0.6833    7.4528 H   0  0  0  0  0  0  0  0  0  0  0  0
   46.8540   -0.5940    7.9110 H   0  0  0  0  0  0  0  0  0  0  0  0
   42.5830    5.0857    9.7888 H   0  0  0  0  0  0  0  0  0  0  0  0
   46.4826    4.8658   11.6196 H   0  0  0  0  0  0  0  0  0  0  0  0
   41.5823    5.5632   11.9959 H   0  0  0  0  0  0  0  0  0  0  0  0
   45.4651    5.3486   13.8233 H   0  0  0  0  0  0  0  0  0  0  0  0
   43.0163    5.6984   14.0150 H   0  0  0  0  0  0  0  0  0  0  0  0
  2  1  2  0
  3  1  1  0
  4  1  1  0
  5  3  1  0
  6  5  1  0
  7  2  1  0
  8  4  1  0
  9  6  2  0
 10  6  1  0
 11  9  1  0
 12 10  2  0
 13 12  1  0
 11 13  2  0
  3 14  1  0
  4 15  1  0
  5 16  1  0
  5 17  1  0
  7 18  1  0
  7 19  1  0
  7 20  1  0
  8 21  1  0
  8 22  1  0
  8 23  1  0
  9 24  1  0
 10 25  1  0
 11 26  1  0
 12 27  1  0
 13 28  1  0
M  END
> <Uni-Dock RESULT> 
ENERGY=   -4.265  LOWER_BOUND=    1.553  UPPER_BOUND=    5.916
INTER + INTRA:          -4.265
INTER:                  -4.265
INTRA:                   0.000
UNBOUND:                 0.000

$$$$

     RDKit          3D

 28 28  0  0  0  0  0  0  0  0999 V2000
   43.7937    9.3073   11.0215 C   0  0  0  0  0  0  0  0  0  0  0  0
   44.8157    9.9205   11.4844 N   0  0  0  0  0  0  0  0  0  0  0  0
   43.7340    7.9402   11.0556 N   0  0  0  0  0  0  0  0  0  0  0  0
   42.6275    9.7334   10.4499 N   0  0  0  0  0  0  0  0  0  0  0  0
   44.7780    7.1727   11.7135 C   0  0  0  0  0  0  0  0  0  0  0  0
   44.4447    5.7021   11.6184 C   0  0  0  0  0  0  0  0  0  0  0  0
   44.9080   11.3613   11.5234 C   0  0  0  0  0  0  0  0  0  0  0  0
   42.3854   11.0454    9.9020 C   0  0  0  0  0  0  0  0  0  0  0  0
   43.9090    5.0163   12.7180 C   0  0  0  0  0  0  0  0  0  0  0  0
   44.6356    5.0096   10.4134 C   0  0  0  0  0  0  0  0  0  0  0  0
   43.5859    3.6619   12.6175 C   0  0  0  0  0  0  0  0  0  0  0  0
   44.3117    3.6558   10.3151 C   0  0  0  0  0  0  0  0  0  0  0  0
   43.7886    2.9825   11.4174 C   0  0  0  0  0  0  0  0  0  0  0  0
   42.8130    7.6032   11.3070 H   0  0  0  0  0  0  0  0  0  0  0  0
   42.2550    9.0114    9.8427 H   0  0  0  0  0  0  0  0  0  0  0  0
   44.8654    7.4685   12.7661 H   0  0  0  0  0  0  0  0  0  0  0  0
   45.7510    7.3529   11.2401 H   0  0  0  0  0  0  0  0  0  0  0  0
   44.9669   11.7934   10.5208 H   0  0  0  0  0  0  0  0  0  0  0  0
   45.8306   11.6418   12.0424 H   0  0  0  0  0  0  0  0  0  0  0  0
   44.0844   11.8073   12.0882 H   0  0  0  0  0  0  0  0  0  0  0  0
   42.3536   11.8077   10.6837 H   0  0  0  0  0  0  0  0  0  0  0  0
   43.1380   11.3057    9.1520 H   0  0  0  0  0  0  0  0  0  0  0  0
   41.4086   11.0555    9.4074 H   0  0  0  0  0  0  0  0  0  0  0  0
   43.7420    5.5335   13.6605 H   0  0  0  0  0  0  0  0  0  0  0  0
   45.0355    5.5304    9.5454 H   0  0  0  0  0  0  0  0  0  0  0  0
   43.1755    3.1365   13.4760 H   0  0  0  0  0  0  0  0  0  0  0  0
   44.4662    3.1278    9.3777 H   0  0  0  0  0  0  0  0  0  0  0  0
   43.5370    1.9279   11.3405 H   0  0  0  0  0  0  0  0  0  0  0  0
  2  1  2  0
  3  1  1  0
  4  1  1  0
  5  3  1  0
  6  5  1  0
  7  2  1  0
  8  4  1  0
  9  6  2  0
 10  6  1  0
 11  9  1  0
 12 10  2  0
 13 12  1  0
 11 13  2  0
  3 14  1  0
  4 15  1  0
  5 16  1  0
  5 17  1  0
  7 18  1  0
  7 19  1  0
  7 20  1  0
  8 21  1  0
  8 22  1  0
  8 23  1  0
  9 24  1  0
 10 25  1  0
 11 26  1  0
 12 27  1  0
 13 28  1  0
M  END
> <Uni-Dock RESULT> 
ENERGY=   -3.654  LOWER_BOUND=    3.605  UPPER_BOUND=    5.657
INTER + INTRA:          -3.654
INTER:                  -3.654
INTRA:                   0.000
UNBOUND:                 0.000

$$$$

     RDKit          3D

 28 28  0  0  0  0  0  0  0  0999 V2000
   47.3777    3.9741   16.0864 C   0  0  0  0  0  0  0  0  0  0  0  0
   48.1975    3.0499   15.7569 N   0  0  0  0  0  0  0  0  0  0  0  0
   46.5212    4.5013   15.1579 N   0  0  0  0  0  0  0  0  0  0  0  0
   47.1221    4.6212   17.2630 N   0  0  0  0  0  0  0  0  0  0  0  0
   46.4554    3.9465   13.8164 C   0  0  0  0  0  0  0  0  0  0  0  0
   45.4175    4.7016   13.0195 C   0  0  0  0  0  0  0  0  0  0  0  0
   49.0845    2.4205   16.7072 C   0  0  0  0  0  0  0  0  0  0  0  0
   47.9865    4.6481   18.4172 C   0  0  0  0  0  0  0  0  0  0  0  0
   44.1472    4.1518   12.7944 C   0  0  0  0  0  0  0  0  0  0  0  0
   45.7011    5.9824   12.5221 C   0  0  0  0  0  0  0  0  0  0  0  0
   43.1866    4.8631   12.0732 C   0  0  0  0  0  0  0  0  0  0  0  0
   44.7393    6.6917   11.8016 C   0  0  0  0  0  0  0  0  0  0  0  0
   43.4834    6.1312   11.5762 C   0  0  0  0  0  0  0  0  0  0  0  0
   45.5964    4.6618   15.5375 H   0  0  0  0  0  0  0  0  0  0  0  0
   46.7361    5.5404   17.0763 H   0  0  0  0  0  0  0  0  0  0  0  0
   46.1949    2.8816   13.8546 H   0  0  0  0  0  0  0  0  0  0  0  0
   47.4264    4.0288   13.3128 H   0  0  0  0  0  0  0  0  0  0  0  0
   49.8451    3.1139   17.0762 H   0  0  0  0  0  0  0  0  0  0  0  0
   49.6174    1.6055   16.2061 H   0  0  0  0  0  0  0  0  0  0  0  0
   48.5366    1.9697   17.5396 H   0  0  0  0  0  0  0  0  0  0  0  0
   48.0469    3.6686   18.8969 H   0  0  0  0  0  0  0  0  0  0  0  0
   48.9877    5.0010   18.1533 H   0  0  0  0  0  0  0  0  0  0  0  0
   47.5767    5.3413   19.1591 H   0  0  0  0  0  0  0  0  0  0  0  0
   43.8995    3.1646   13.1786 H   0  0  0  0  0  0  0  0  0  0  0  0
   46.6765    6.4307   12.7013 H   0  0  0  0  0  0  0  0  0  0  0  0
   42.2060    4.4278   11.8990 H   0  0  0  0  0  0  0  0  0  0  0  0
   44.9701    7.6821   11.4180 H   0  0  0  0  0  0  0  0  0  0  0  0
   42.7348    6.6838   11.0145 H   0  0  0  0  0  0  0  0  0  0  0  0
  2  1  2  0
  3  1  1  0
  4  1  1  0
  5  3  1  0
  6  5  1  0
  7  2  1  0
  8  4  1  0
  9  6  2  0
 10  6  1  0
 11  9  1  0
 12 10  2  0
 13 12  1  0
 11 13  2  0
  3 14  1  0
  4 15  1  0
  5 16  1  0
  5 17  1  0
  7 18  1  0
  7 19  1  0
  7 20  1  0
  8 21  1  0
  8 22  1  0
  8 23  1  0
  9 24  1  0
 10 25  1  0
 11 26  1  0
 12 27  1  0
 13 28  1  0
M  END
> <Uni-Dock RESULT> 
ENERGY=   -3.596  LOWER_BOUND=    5.189  UPPER_BOUND=    6.707
INTER + INTRA:          -3.596
INTER:                  -3.596
INTRA:                   0.000
UNBOUND:                 0.000

$$$$

     RDKit          3D

 28 28  0  0  0  0  0  0  0  0999 V2000
   44.6365    4.9926   10.5622 C   0  0  0  0  0  0  0  0  0  0  0  0
   44.0510    4.3146   11.4744 N   0  0  0  0  0  0  0  0  0  0  0  0
   44.9751    6.3004   10.7830 N   0  0  0  0  0  0  0  0  0  0  0  0
   45.0526    4.6917    9.2954 N   0  0  0  0  0  0  0  0  0  0  0  0
   44.7730    6.9039   12.0894 C   0  0  0  0  0  0  0  0  0  0  0  0
   45.2528    8.3360   12.0518 C   0  0  0  0  0  0  0  0  0  0  0  0
   43.7204    2.9176   11.3155 C   0  0  0  0  0  0  0  0  0  0  0  0
   44.6209    3.5613    8.5106 C   0  0  0  0  0  0  0  0  0  0  0  0
   46.4902    8.6920   12.6073 C   0  0  0  0  0  0  0  0  0  0  0  0
   44.4787    9.3256   11.4275 C   0  0  0  0  0  0  0  0  0  0  0  0
   46.9358   10.0139   12.5525 C   0  0  0  0  0  0  0  0  0  0  0  0
   44.9262   10.6463   11.3736 C   0  0  0  0  0  0  0  0  0  0  0  0
   46.1535   10.9899   11.9374 C   0  0  0  0  0  0  0  0  0  0  0  0
   45.8870    6.5286   10.4072 H   0  0  0  0  0  0  0  0  0  0  0  0
   45.0851    5.5345    8.7318 H   0  0  0  0  0  0  0  0  0  0  0  0
   45.3219    6.3463   12.8581 H   0  0  0  0  0  0  0  0  0  0  0  0
   43.7118    6.8867   12.3665 H   0  0  0  0  0  0  0  0  0  0  0  0
   42.9497    2.7650   10.5550 H   0  0  0  0  0  0  0  0  0  0  0  0
   43.3108    2.5425   12.2593 H   0  0  0  0  0  0  0  0  0  0  0  0
   44.6043    2.3119   11.0963 H   0  0  0  0  0  0  0  0  0  0  0  0
   44.9923    2.6204    8.9231 H   0  0  0  0  0  0  0  0  0  0  0  0
   43.5306    3.5317    8.4264 H   0  0  0  0  0  0  0  0  0  0  0  0
   45.0283    3.6479    7.4980 H   0  0  0  0  0  0  0  0  0  0  0  0
   47.1135    7.9410   13.0880 H   0  0  0  0  0  0  0  0  0  0  0  0
   43.5231    9.0637   10.9771 H   0  0  0  0  0  0  0  0  0  0  0  0
   47.8940   10.2823   12.9898 H   0  0  0  0  0  0  0  0  0  0  0  0
   44.3176   11.4059   10.8901 H   0  0  0  0  0  0  0  0  0  0  0  0
   46.5014   12.0187   11.8957 H   0  0  0  0  0  0  0  0  0  0  0  0
  2  1  2  0
  3  1  1  0
  4  1  1  0
  5  3  1  0
  6  5  1  0
  7  2  1  0
  8  4  1  0
  9  6  2  0
 10  6  1  0
 11  9  1  0
 12 10  2  0
 13 12  1  0
 11 13  2  0
  3 14  1  0
  4 15  1  0
  5 16  1  0
  5 17  1  0
  7 18  1  0
  7 19  1  0
  7 20  1  0
  8 21  1  0
  8 22  1  0
  8 23  1  0
  9 24  1  0
 10 25  1  0
 11 26  1  0
 12 27  1  0
 13 28  1  0
M  END
> <Uni-Dock RESULT> 
ENERGY=   -3.572  LOWER_BOUND=    3.276  UPPER_BOUND=    6.662
INTER + INTRA:          -3.572
INTER:                  -3.572
INTRA:                   0.000
UNBOUND:                 0.000

$$$$

     RDKit          3D

 28 28  0  0  0  0  0  0  0  0999 V2000
   48.5369    6.8314   12.9679 C   0  0  0  0  0  0  0  0  0  0  0  0
   48.8868    6.8776   14.1968 N   0  0  0  0  0  0  0  0  0  0  0  0
   47.3938    6.1751   12.5991 N   0  0  0  0  0  0  0  0  0  0  0  0
   49.0824    7.3370   11.8211 N   0  0  0  0  0  0  0  0  0  0  0  0
   46.5072    5.6158   13.6055 C   0  0  0  0  0  0  0  0  0  0  0  0
   45.3230    4.9753   12.9201 C   0  0  0  0  0  0  0  0  0  0  0  0
   50.0523    7.6014   14.6482 C   0  0  0  0  0  0  0  0  0  0  0  0
   50.4386    7.8021   11.6644 C   0  0  0  0  0  0  0  0  0  0  0  0
   44.0821    5.6271   12.8752 C   0  0  0  0  0  0  0  0  0  0  0  0
   45.4595    3.7307   12.2872 C   0  0  0  0  0  0  0  0  0  0  0  0
   42.9970    5.0378   12.2239 C   0  0  0  0  0  0  0  0  0  0  0  0
   44.3736    3.1436   11.6365 C   0  0  0  0  0  0  0  0  0  0  0  0
   43.1428    3.7966   11.6066 C   0  0  0  0  0  0  0  0  0  0  0  0
   46.8764    6.6770   11.8881 H   0  0  0  0  0  0  0  0  0  0  0  0
   48.7956    6.7778   11.0250 H   0  0  0  0  0  0  0  0  0  0  0  0
   46.1627    6.3999   14.2909 H   0  0  0  0  0  0  0  0  0  0  0  0
   47.0277    4.8601   14.2065 H   0  0  0  0  0  0  0  0  0  0  0  0
   50.9792    7.1467   14.2883 H   0  0  0  0  0  0  0  0  0  0  0  0
   50.0878    7.5660   15.7422 H   0  0  0  0  0  0  0  0  0  0  0  0
   50.0081    8.6586   14.3715 H   0  0  0  0  0  0  0  0  0  0  0  0
   50.6159    8.7211   12.2279 H   0  0  0  0  0  0  0  0  0  0  0  0
   51.1573    7.0330   11.9620 H   0  0  0  0  0  0  0  0  0  0  0  0
   50.6211    8.0348   10.6102 H   0  0  0  0  0  0  0  0  0  0  0  0
   43.9535    6.5977   13.3496 H   0  0  0  0  0  0  0  0  0  0  0  0
   46.4197    3.2183   12.2985 H   0  0  0  0  0  0  0  0  0  0  0  0
   42.0373    5.5475   12.1979 H   0  0  0  0  0  0  0  0  0  0  0  0
   44.4892    2.1777   11.1518 H   0  0  0  0  0  0  0  0  0  0  0  0
   42.2972    3.3387   11.1001 H   0  0  0  0  0  0  0  0  0  0  0  0
  2  1  2  0
  3  1  1  0
  4  1  1  0
  5  3  1  0
  6  5  1  0
  7  2  1  0
  8  4  1  0
  9  6  2  0
 10  6  1  0
 11  9  1  0
 12 10  2  0
 13 12  1  0
 11 13  2  0
  3 14  1  0
  4 15  1  0
  5 16  1  0
  5 17  1  0
  7 18  1  0
  7 19  1  0
  7 20  1  0
  8 21  1  0
  8 22  1  0
  8 23  1  0
  9 24  1  0
 10 25  1  0
 11 26  1  0
 12 27  1  0
 13 28  1  0
M  END
> <Uni-Dock RESULT> 
ENERGY=   -3.441  LOWER_BOUND=    4.214  UPPER_BOUND=    6.105
INTER + INTRA:          -3.441
INTER:                  -3.441
INTRA:                   0.000
UNBOUND:                 0.000

$$$$

     RDKit          3D

 28 28  0  0  0  0  0  0  0  0999 V2000
   44.9988    5.1521   12.6626 C   0  0  0  0  0  0  0  0  0  0  0  0
   45.6059    4.8350   11.5830 N   0  0  0  0  0  0  0  0  0  0  0  0
   45.6399    5.0601   13.8685 N   0  0  0  0  0  0  0  0  0  0  0  0
   43.7393    5.6134   12.9258 N   0  0  0  0  0  0  0  0  0  0  0  0
   47.0479    4.7058   13.9299 C   0  0  0  0  0  0  0  0  0  0  0  0
   47.4940    4.7019   15.3734 C   0  0  0  0  0  0  0  0  0  0  0  0
   44.9966    4.9644   10.2799 C   0  0  0  0  0  0  0  0  0  0  0  0
   42.6111    5.5475   12.0297 C   0  0  0  0  0  0  0  0  0  0  0  0
   48.2311    5.7732   15.8984 C   0  0  0  0  0  0  0  0  0  0  0  0
   47.1454    3.6382   16.2190 C   0  0  0  0  0  0  0  0  0  0  0  0
   48.6240    5.7718   17.2380 C   0  0  0  0  0  0  0  0  0  0  0  0
   47.5390    3.6390   17.5579 C   0  0  0  0  0  0  0  0  0  0  0  0
   48.2793    4.7048   18.0661 C   0  0  0  0  0  0  0  0  0  0  0  0
   45.4285    5.8425   14.4752 H   0  0  0  0  0  0  0  0  0  0  0  0
   43.4685    5.3620   13.8705 H   0  0  0  0  0  0  0  0  0  0  0  0
   47.6485    5.4215   13.3554 H   0  0  0  0  0  0  0  0  0  0  0  0
   47.2188    3.7123   13.4974 H   0  0  0  0  0  0  0  0  0  0  0  0
   44.1662    4.2656   10.1469 H   0  0  0  0  0  0  0  0  0  0  0  0
   45.7416    4.7178    9.5160 H   0  0  0  0  0  0  0  0  0  0  0  0
   44.6735    5.9902   10.0811 H   0  0  0  0  0  0  0  0  0  0  0  0
   42.7413    6.2094   11.1705 H   0  0  0  0  0  0  0  0  0  0  0  0
   42.4335    4.5223   11.6923 H   0  0  0  0  0  0  0  0  0  0  0  0
   41.7116    5.8826   12.5564 H   0  0  0  0  0  0  0  0  0  0  0  0
   48.5051    6.6146   15.2655 H   0  0  0  0  0  0  0  0  0  0  0  0
   46.5600    2.8063   15.8320 H   0  0  0  0  0  0  0  0  0  0  0  0
   49.1993    6.6038   17.6359 H   0  0  0  0  0  0  0  0  0  0  0  0
   47.2662    2.8087   18.2039 H   0  0  0  0  0  0  0  0  0  0  0  0
   48.5861    4.7047   19.1087 H   0  0  0  0  0  0  0  0  0  0  0  0
  2  1  2  0
  3  1  1  0
  4  1  1  0
  5  3  1  0
  6  5  1  0
  7  2  1  0
  8  4  1  0
  9  6  2  0
 10  6  1  0
 11  9  1  0
 12 10  2  0
 13 12  1  0
 11 13  2  0
  3 14  1  0
  4 15  1  0
  5 16  1  0
  5 17  1  0
  7 18  1  0
  7 19  1  0
  7 20  1  0
  8 21  1  0
  8 22  1  0
  8 23  1  0
  9 24  1  0
 10 25  1  0
 11 26  1  0
 12 27  1  0
 13 28  1  0
M  END
> <Uni-Dock RESULT> 
ENERGY=   -3.402  LOWER_BOUND=    3.396  UPPER_BOUND=    7.325
INTER + INTRA:          -3.402
INTER:                  -3.402
INTRA:                   0.000
UNBOUND:                 0.000

$$$$
