
     RDKit          3D

 28 28  0  0  0  0  0  0  0  0999 V2000
   44.4060    3.6983   11.1688 C   0  0  0  0  0  0  0  0  0  0  0  0
   43.5806    4.4838   10.5782 N   0  0  0  0  0  0  0  0  0  0  0  0
   44.7515    2.4801   10.6556 N   0  0  0  0  0  0  0  0  0  0  0  0
   45.0511    3.8822   12.3600 N   0  0  0  0  0  0  0  0  0  0  0  0
   44.3559    2.0724    9.3177 C   0  0  0  0  0  0  0  0  0  0  0  0
   45.4836    2.3283    8.3452 C   0  0  0  0  0  0  0  0  0  0  0  0
   43.1815    5.7152   11.2375 C   0  0  0  0  0  0  0  0  0  0  0  0
   46.0858    4.8910   12.4795 C   0  0  0  0  0  0  0  0  0  0  0  0
   46.3707    1.3027    7.9868 C   0  0  0  0  0  0  0  0  0  0  0  0
   45.6805    3.6118    7.8153 C   0  0  0  0  0  0  0  0  0  0  0  0
   47.4231    1.5546    7.1046 C   0  0  0  0  0  0  0  0  0  0  0  0
   46.7332    3.8616    6.9344 C   0  0  0  0  0  0  0  0  0  0  0  0
   47.6030    2.8327    6.5782 C   0  0  0  0  0  0  0  0  0  0  0  0
   45.7011    2.2029   10.8611 H   0  0  0  0  0  0  0  0  0  0  0  0
   45.3437    3.0015   12.7646 H   0  0  0  0  0  0  0  0  0  0  0  0
   43.4352    2.5597    8.9754 H   0  0  0  0  0  0  0  0  0  0  0  0
   44.1306    0.9994    9.3380 H   0  0  0  0  0  0  0  0  0  0  0  0
   43.8451    6.5365   10.9509 H   0  0  0  0  0  0  0  0  0  0  0  0
   42.1710    5.9800   10.9101 H   0  0  0  0  0  0  0  0  0  0  0  0
   43.1477    5.6333   12.3289 H   0  0  0  0  0  0  0  0  0  0  0  0
   46.9143    4.6727   11.7982 H   0  0  0  0  0  0  0  0  0  0  0  0
   46.4756    4.8935   13.5018 H   0  0  0  0  0  0  0  0  0  0  0  0
   45.7071    5.8930   12.2644 H   0  0  0  0  0  0  0  0  0  0  0  0
   46.2452    0.3003    8.3900 H   0  0  0  0  0  0  0  0  0  0  0  0
   45.0096    4.4230    8.0963 H   0  0  0  0  0  0  0  0  0  0  0  0
   48.1029    0.7533    6.8266 H   0  0  0  0  0  0  0  0  0  0  0  0
   46.8731    4.8599    6.5282 H   0  0  0  0  0  0  0  0  0  0  0  0
   48.4217    3.0279    5.8906 H   0  0  0  0  0  0  0  0  0  0  0  0
  2  1  2  0
  3  1  1  0
  4  1  1  0
  5  3  1  0
  6  5  1  0
  7  2  1  0
  8  4  1  0
  9  6  2  0
 10  6  1  0
 11  9  1  0
 12 10  2  0
 13 12  1  0
 11 13  2  0
  3 14  1  0
  4 15  1  0
  5 16  1  0
  5 17  1  0
  7 18  1  0
  7 19  1  0
  7 20  1  0
  8 21  1  0
  8 22  1  0
  8 23  1  0
  9 24  1  0
 10 25  1  0
 11 26  1  0
 12 27  1  0
 13 28  1  0
M  END
> <Uni-Dock RESULT> 
ENERGY=   -5.938  LOWER_BOUND=    0.000  UPPER_BOUND=    0.000
INTER + INTRA:          -5.938
INTER:                  -5.938
INTRA:                   0.000
UNBOUND:                 0.000

$$$$

     RDKit          3D

 28 28  0  0  0  0  0  0  0  0999 V2000
   43.8281    4.8252   10.8678 C   0  0  0  0  0  0  0  0  0  0  0  0
   43.7223    3.9928   11.8389 N   0  0  0  0  0  0  0  0  0  0  0  0
   43.9626    6.1700   11.0684 N   0  0  0  0  0  0  0  0  0  0  0  0
   43.8061    4.5723    9.5245 N   0  0  0  0  0  0  0  0  0  0  0  0
   44.1846    6.7287   12.3917 C   0  0  0  0  0  0  0  0  0  0  0  0
   45.6592    6.9783   12.6063 C   0  0  0  0  0  0  0  0  0  0  0  0
   43.4758    2.5916   11.5451 C   0  0  0  0  0  0  0  0  0  0  0  0
   44.9048    3.8621    8.8992 C   0  0  0  0  0  0  0  0  0  0  0  0
   46.2125    8.2489   12.3902 C   0  0  0  0  0  0  0  0  0  0  0  0
   46.5041    5.9267   12.9901 C   0  0  0  0  0  0  0  0  0  0  0  0
   47.5802    8.4642   12.5696 C   0  0  0  0  0  0  0  0  0  0  0  0
   47.8707    6.1437   13.1682 C   0  0  0  0  0  0  0  0  0  0  0  0
   48.4080    7.4125   12.9594 C   0  0  0  0  0  0  0  0  0  0  0  0
   44.5281    6.6340   10.3714 H   0  0  0  0  0  0  0  0  0  0  0  0
   43.5479    5.3957    8.9950 H   0  0  0  0  0  0  0  0  0  0  0  0
   43.7799    6.1020   13.1953 H   0  0  0  0  0  0  0  0  0  0  0  0
   43.6421    7.6793   12.4587 H   0  0  0  0  0  0  0  0  0  0  0  0
   44.4201    2.0464   11.4553 H   0  0  0  0  0  0  0  0  0  0  0  0
   42.9188    2.1487   12.3770 H   0  0  0  0  0  0  0  0  0  0  0  0
   42.8736    2.4352   10.6441 H   0  0  0  0  0  0  0  0  0  0  0  0
   45.8382    4.4220    9.0146 H   0  0  0  0  0  0  0  0  0  0  0  0
   44.7037    3.7494    7.8297 H   0  0  0  0  0  0  0  0  0  0  0  0
   45.0386    2.8630    9.3205 H   0  0  0  0  0  0  0  0  0  0  0  0
   45.5806    9.0796   12.0842 H   0  0  0  0  0  0  0  0  0  0  0  0
   46.0924    4.9300   13.1464 H   0  0  0  0  0  0  0  0  0  0  0  0
   48.0008    9.4531   12.4063 H   0  0  0  0  0  0  0  0  0  0  0  0
   48.5143    5.3211   13.4688 H   0  0  0  0  0  0  0  0  0  0  0  0
   49.4724    7.5810   13.1001 H   0  0  0  0  0  0  0  0  0  0  0  0
  2  1  2  0
  3  1  1  0
  4  1  1  0
  5  3  1  0
  6  5  1  0
  7  2  1  0
  8  4  1  0
  9  6  2  0
 10  6  1  0
 11  9  1  0
 12 10  2  0
 13 12  1  0
 11 13  2  0
  3 14  1  0
  4 15  1  0
  5 16  1  0
  5 17  1  0
  7 18  1  0
  7 19  1  0
  7 20  1  0
  8 21  1  0
  8 22  1  0
  8 23  1  0
  9 24  1  0
 10 25  1  0
 11 26  1  0
 12 27  1  0
 13 28  1  0
M  END
> <Uni-Dock RESULT> 
ENERGY=   -3.539  LOWER_BOUND=    2.260  UPPER_BOUND=    5.616
INTER + INTRA:          -3.539
INTER:                  -3.539
INTRA:                   0.000
UNBOUND:                 0.000

$$$$

     RDKit          3D

 28 28  0  0  0  0  0  0  0  0999 V2000
   44.1261    6.3421   11.7671 C   0  0  0  0  0  0  0  0  0  0  0  0
   43.9729    5.8491   12.9420 N   0  0  0  0  0  0  0  0  0  0  0  0
   44.7035    7.5622   11.5553 N   0  0  0  0  0  0  0  0  0  0  0  0
   43.7521    5.8085   10.5653 N   0  0  0  0  0  0  0  0  0  0  0  0
   45.3527    8.2989   12.6269 C   0  0  0  0  0  0  0  0  0  0  0  0
   46.8440    8.0594   12.5886 C   0  0  0  0  0  0  0  0  0  0  0  0
   43.2551    4.5953   13.0944 C   0  0  0  0  0  0  0  0  0  0  0  0
   44.4279    4.6344   10.0481 C   0  0  0  0  0  0  0  0  0  0  0  0
   47.7023    8.9690   11.9535 C   0  0  0  0  0  0  0  0  0  0  0  0
   47.3869    6.8986   13.1583 C   0  0  0  0  0  0  0  0  0  0  0  0
   49.0766    8.7277   11.9039 C   0  0  0  0  0  0  0  0  0  0  0  0
   48.7605    6.6589   13.1070 C   0  0  0  0  0  0  0  0  0  0  0  0
   49.6048    7.5741   12.4814 C   0  0  0  0  0  0  0  0  0  0  0  0
   45.2277    7.6238   10.6937 H   0  0  0  0  0  0  0  0  0  0  0  0
   43.6549    6.5232    9.8549 H   0  0  0  0  0  0  0  0  0  0  0  0
   44.9502    8.0582   13.6181 H   0  0  0  0  0  0  0  0  0  0  0  0
   45.1527    9.3670   12.4799 H   0  0  0  0  0  0  0  0  0  0  0  0
   43.9478    3.7494   13.0567 H   0  0  0  0  0  0  0  0  0  0  0  0
   42.7729    4.5813   14.0772 H   0  0  0  0  0  0  0  0  0  0  0  0
   42.4622    4.4549   12.3525 H   0  0  0  0  0  0  0  0  0  0  0  0
   45.4905    4.8430    9.8887 H   0  0  0  0  0  0  0  0  0  0  0  0
   43.9866    4.3542    9.0870 H   0  0  0  0  0  0  0  0  0  0  0  0
   44.3335    3.7786   10.7207 H   0  0  0  0  0  0  0  0  0  0  0  0
   47.3059    9.8730   11.4967 H   0  0  0  0  0  0  0  0  0  0  0  0
   46.7318    6.1742   13.6413 H   0  0  0  0  0  0  0  0  0  0  0  0
   49.7363    9.4402   11.4155 H   0  0  0  0  0  0  0  0  0  0  0  0
   49.1691    5.7569   13.5551 H   0  0  0  0  0  0  0  0  0  0  0  0
   50.6748    7.3874   12.4435 H   0  0  0  0  0  0  0  0  0  0  0  0
  2  1  2  0
  3  1  1  0
  4  1  1  0
  5  3  1  0
  6  5  1  0
  7  2  1  0
  8  4  1  0
  9  6  2  0
 10  6  1  0
 11  9  1  0
 12 10  2  0
 13 12  1  0
 11 13  2  0
  3 14  1  0
  4 15  1  0
  5 16  1  0
  5 17  1  0
  7 18  1  0
  7 19  1  0
  7 20  1  0
  8 21  1  0
  8 22  1  0
  8 23  1  0
  9 24  1  0
 10 25  1  0
 11 26  1  0
 12 27  1  0
 13 28  1  0
M  END
> <Uni-Dock RESULT> 
ENERGY=   -3.290  LOWER_BOUND=    3.286  UPPER_BOUND=    6.040
INTER + INTRA:          -3.290
INTER:                  -3.290
INTRA:                   0.000
UNBOUND:                 0.000

$$$$

     RDKit          3D

 28 28  0  0  0  0  0  0  0  0999 V2000
   47.5927    6.1959   19.7240 C   0  0  0  0  0  0  0  0  0  0  0  0
   48.4067    7.1514   19.4563 N   0  0  0  0  0  0  0  0  0  0  0  0
   47.1646    5.3119   18.7743 N   0  0  0  0  0  0  0  0  0  0  0  0
   47.0018    5.8915   20.9186 N   0  0  0  0  0  0  0  0  0  0  0  0
   47.7460    5.2771   17.4426 C   0  0  0  0  0  0  0  0  0  0  0  0
   48.7989    4.1963   17.3666 C   0  0  0  0  0  0  0  0  0  0  0  0
   48.7326    8.1140   20.4944 C   0  0  0  0  0  0  0  0  0  0  0  0
   47.7997    5.3809   22.0164 C   0  0  0  0  0  0  0  0  0  0  0  0
   48.4911    2.9272   16.8548 C   0  0  0  0  0  0  0  0  0  0  0  0
   50.0948    4.4390   17.8450 C   0  0  0  0  0  0  0  0  0  0  0  0
   49.4652    1.9280   16.8094 C   0  0  0  0  0  0  0  0  0  0  0  0
   51.0666    3.4389   17.7994 C   0  0  0  0  0  0  0  0  0  0  0  0
   50.7519    2.1844   17.2803 C   0  0  0  0  0  0  0  0  0  0  0  0
   46.9942    4.3809   19.1278 H   0  0  0  0  0  0  0  0  0  0  0  0
   46.1586    5.3465   20.7884 H   0  0  0  0  0  0  0  0  0  0  0  0
   48.1629    6.2423   17.1311 H   0  0  0  0  0  0  0  0  0  0  0  0
   46.9471    5.0567   16.7245 H   0  0  0  0  0  0  0  0  0  0  0  0
   49.6189    7.7938   21.0501 H   0  0  0  0  0  0  0  0  0  0  0  0
   48.9688    9.0742   20.0245 H   0  0  0  0  0  0  0  0  0  0  0  0
   47.9083    8.2987   21.1910 H   0  0  0  0  0  0  0  0  0  0  0  0
   48.2679    4.4308   21.7403 H   0  0  0  0  0  0  0  0  0  0  0  0
   47.1560    5.2056   22.8836 H   0  0  0  0  0  0  0  0  0  0  0  0
   48.5799    6.0843   22.3168 H   0  0  0  0  0  0  0  0  0  0  0  0
   47.4915    2.7103   16.4850 H   0  0  0  0  0  0  0  0  0  0  0  0
   50.3454    5.4146   18.2603 H   0  0  0  0  0  0  0  0  0  0  0  0
   49.2210    0.9488   16.4056 H   0  0  0  0  0  0  0  0  0  0  0  0
   52.0680    3.6406   18.1704 H   0  0  0  0  0  0  0  0  0  0  0  0
   51.5100    1.4066   17.2436 H   0  0  0  0  0  0  0  0  0  0  0  0
  2  1  2  0
  3  1  1  0
  4  1  1  0
  5  3  1  0
  6  5  1  0
  7  2  1  0
  8  4  1  0
  9  6  2  0
 10  6  1  0
 11  9  1  0
 12 10  2  0
 13 12  1  0
 11 13  2  0
  3 14  1  0
  4 15  1  0
  5 16  1  0
  5 17  1  0
  7 18  1  0
  7 19  1  0
  7 20  1  0
  8 21  1  0
  8 22  1  0
  8 23  1  0
  9 24  1  0
 10 25  1  0
 11 26  1  0
 12 27  1  0
 13 28  1  0
M  END
> <Uni-Dock RESULT> 
ENERGY=   -3.189  LOWER_BOUND=    8.700  UPPER_BOUND=   10.102
INTER + INTRA:          -3.189
INTER:                  -3.189
INTRA:                   0.000
UNBOUND:                 0.000

$$$$

     RDKit          3D

 28 28  0  0  0  0  0  0  0  0999 V2000
   44.7909    4.1472   12.7616 C   0  0  0  0  0  0  0  0  0  0  0  0
   45.3141    3.6743   11.6893 N   0  0  0  0  0  0  0  0  0  0  0  0
   45.5389    4.4789   13.8559 N   0  0  0  0  0  0  0  0  0  0  0  0
   43.4716    4.3812   13.0328 N   0  0  0  0  0  0  0  0  0  0  0  0
   46.9916    4.4971   13.8138 C   0  0  0  0  0  0  0  0  0  0  0  0
   47.4839    5.9059   13.5776 C   0  0  0  0  0  0  0  0  0  0  0  0
   44.4440    3.2460   10.6077 C   0  0  0  0  0  0  0  0  0  0  0  0
   42.7635    5.4419   12.3428 C   0  0  0  0  0  0  0  0  0  0  0  0
   47.8811    6.7181   14.6498 C   0  0  0  0  0  0  0  0  0  0  0  0
   47.5140    6.4341   12.2787 C   0  0  0  0  0  0  0  0  0  0  0  0
   48.3134    8.0262   14.4235 C   0  0  0  0  0  0  0  0  0  0  0  0
   47.9456    7.7418   12.0547 C   0  0  0  0  0  0  0  0  0  0  0  0
   48.3466    8.5367   13.1268 C   0  0  0  0  0  0  0  0  0  0  0  0
   45.1742    5.2621   14.3797 H   0  0  0  0  0  0  0  0  0  0  0  0
   43.2950    4.4049   14.0294 H   0  0  0  0  0  0  0  0  0  0  0  0
   47.4077    3.8138   13.0639 H   0  0  0  0  0  0  0  0  0  0  0  0
   47.3678    4.1383   14.7793 H   0  0  0  0  0  0  0  0  0  0  0  0
   44.2663    4.0691    9.9092 H   0  0  0  0  0  0  0  0  0  0  0  0
   44.9403    2.4445   10.0511 H   0  0  0  0  0  0  0  0  0  0  0  0
   43.4862    2.8434   10.9530 H   0  0  0  0  0  0  0  0  0  0  0  0
   43.2207    6.4124   12.5602 H   0  0  0  0  0  0  0  0  0  0  0  0
   41.7248    5.4690   12.6854 H   0  0  0  0  0  0  0  0  0  0  0  0
   42.7541    5.2911   11.2608 H   0  0  0  0  0  0  0  0  0  0  0  0
   47.8596    6.3355   15.6678 H   0  0  0  0  0  0  0  0  0  0  0  0
   47.1935    5.8213   11.4367 H   0  0  0  0  0  0  0  0  0  0  0  0
   48.6256    8.6477   15.2588 H   0  0  0  0  0  0  0  0  0  0  0  0
   47.9672    8.1384   11.0430 H   0  0  0  0  0  0  0  0  0  0  0  0
   48.6843    9.5547   12.9511 H   0  0  0  0  0  0  0  0  0  0  0  0
  2  1  2  0
  3  1  1  0
  4  1  1  0
  5  3  1  0
  6  5  1  0
  7  2  1  0
  8  4  1  0
  9  6  2  0
 10  6  1  0
 11  9  1  0
 12 10  2  0
 13 12  1  0
 11 13  2  0
  3 14  1  0
  4 15  1  0
  5 16  1  0
  5 17  1  0
  7 18  1  0
  7 19  1  0
  7 20  1  0
  8 21  1  0
  8 22  1  0
  8 23  1  0
  9 24  1  0
 10 25  1  0
 11 26  1  0
 12 27  1  0
 13 28  1  0
M  END
> <Uni-Dock RESULT> 
ENERGY=   -3.056  LOWER_BOUND=    2.987  UPPER_BOUND=    5.849
INTER + INTRA:          -3.056
INTER:                  -3.056
INTRA:                   0.000
UNBOUND:                 0.000

$$$$

     RDKit          3D

 28 28  0  0  0  0  0  0  0  0999 V2000
   48.4448    5.2710   19.2394 C   0  0  0  0  0  0  0  0  0  0  0  0
   49.0092    6.3421   18.8136 N   0  0  0  0  0  0  0  0  0  0  0  0
   48.3923    4.1263   18.4952 N   0  0  0  0  0  0  0  0  0  0  0  0
   47.8006    5.0634   20.4271 N   0  0  0  0  0  0  0  0  0  0  0  0
   49.1340    3.9854   17.2532 C   0  0  0  0  0  0  0  0  0  0  0  0
   50.4330    3.2568   17.5071 C   0  0  0  0  0  0  0  0  0  0  0  0
   48.9318    7.5495   19.6178 C   0  0  0  0  0  0  0  0  0  0  0  0
   48.5510    5.0375   21.6676 C   0  0  0  0  0  0  0  0  0  0  0  0
   50.5378    1.8757   17.2862 C   0  0  0  0  0  0  0  0  0  0  0  0
   51.5451    3.9506   18.0057 C   0  0  0  0  0  0  0  0  0  0  0  0
   51.7360    1.2073   17.5451 C   0  0  0  0  0  0  0  0  0  0  0  0
   52.7414    3.2807   18.2644 C   0  0  0  0  0  0  0  0  0  0  0  0
   52.8369    1.9099   18.0326 C   0  0  0  0  0  0  0  0  0  0  0  0
   48.4254    3.2786   19.0439 H   0  0  0  0  0  0  0  0  0  0  0  0
   47.1538    4.2867   20.3689 H   0  0  0  0  0  0  0  0  0  0  0  0
   49.3220    4.9438   16.7547 H   0  0  0  0  0  0  0  0  0  0  0  0
   48.5230    3.4044   16.5521 H   0  0  0  0  0  0  0  0  0  0  0  0
   49.7890    7.6157   20.2943 H   0  0  0  0  0  0  0  0  0  0  0  0
   48.9695    8.4193   18.9540 H   0  0  0  0  0  0  0  0  0  0  0  0
   48.0030    7.6313   20.1917 H   0  0  0  0  0  0  0  0  0  0  0  0
   49.2833    4.2240   21.6555 H   0  0  0  0  0  0  0  0  0  0  0  0
   47.8662    4.8686   22.5039 H   0  0  0  0  0  0  0  0  0  0  0  0
   49.0736    5.9796   21.8494 H   0  0  0  0  0  0  0  0  0  0  0  0
   49.6878    1.3126   16.9077 H   0  0  0  0  0  0  0  0  0  0  0  0
   51.4751    5.0208   18.1978 H   0  0  0  0  0  0  0  0  0  0  0  0
   51.8117    0.1380   17.3656 H   0  0  0  0  0  0  0  0  0  0  0  0
   53.5971    3.8304   18.6478 H   0  0  0  0  0  0  0  0  0  0  0  0
   53.7697    1.3893   18.2328 H   0  0  0  0  0  0  0  0  0  0  0  0
  2  1  2  0
  3  1  1  0
  4  1  1  0
  5  3  1  0
  6  5  1  0
  7  2  1  0
  8  4  1  0
  9  6  2  0
 10  6  1  0
 11  9  1  0
 12 10  2  0
 13 12  1  0
 11 13  2  0
  3 14  1  0
  4 15  1  0
  5 16  1  0
  5 17  1  0
  7 18  1  0
  7 19  1  0
  7 20  1  0
  8 21  1  0
  8 22  1  0
  8 23  1  0
  9 24  1  0
 10 25  1  0
 11 26  1  0
 12 27  1  0
 13 28  1  0
M  END
> <Uni-Dock RESULT> 
ENERGY=   -3.042  LOWER_BOUND=    9.231  UPPER_BOUND=   10.475
INTER + INTRA:          -3.042
INTER:                  -3.042
INTRA:                   0.000
UNBOUND:                 0.000

$$$$

     RDKit          3D

 28 28  0  0  0  0  0  0  0  0999 V2000
   47.6048   13.3467   19.0566 C   0  0  0  0  0  0  0  0  0  0  0  0
   47.0913   13.1575   17.8958 N   0  0  0  0  0  0  0  0  0  0  0  0
   47.1292   12.7259   20.1770 N   0  0  0  0  0  0  0  0  0  0  0  0
   48.6427   14.1657   19.4044 N   0  0  0  0  0  0  0  0  0  0  0  0
   46.1351   11.6681   20.1030 C   0  0  0  0  0  0  0  0  0  0  0  0
   46.8120   10.3184   20.1574 C   0  0  0  0  0  0  0  0  0  0  0  0
   47.5828   13.9337   16.7704 C   0  0  0  0  0  0  0  0  0  0  0  0
   49.9915   13.8551   18.9723 C   0  0  0  0  0  0  0  0  0  0  0  0
   46.9194    9.6161   21.3667 C   0  0  0  0  0  0  0  0  0  0  0  0
   47.3777    9.7658   18.9992 C   0  0  0  0  0  0  0  0  0  0  0  0
   47.5664    8.3797   21.4111 C   0  0  0  0  0  0  0  0  0  0  0  0
   48.0245    8.5304   19.0457 C   0  0  0  0  0  0  0  0  0  0  0  0
   48.1172    7.8372   20.2511 C   0  0  0  0  0  0  0  0  0  0  0  0
   47.8405   12.5176   20.8636 H   0  0  0  0  0  0  0  0  0  0  0  0
   48.6144   14.4052   20.3877 H   0  0  0  0  0  0  0  0  0  0  0  0
   45.4955   11.7418   19.2154 H   0  0  0  0  0  0  0  0  0  0  0  0
   45.4600   11.7704   20.9610 H   0  0  0  0  0  0  0  0  0  0  0  0
   48.3975   13.4054   16.2664 H   0  0  0  0  0  0  0  0  0  0  0  0
   46.7723   14.0562   16.0447 H   0  0  0  0  0  0  0  0  0  0  0  0
   47.9127   14.9404   17.0470 H   0  0  0  0  0  0  0  0  0  0  0  0
   50.3113   12.8902   19.3782 H   0  0  0  0  0  0  0  0  0  0  0  0
   50.6775   14.6245   19.3390 H   0  0  0  0  0  0  0  0  0  0  0  0
   50.0755   13.8249   17.8834 H   0  0  0  0  0  0  0  0  0  0  0  0
   46.4964   10.0262   22.2810 H   0  0  0  0  0  0  0  0  0  0  0  0
   47.3168   10.3063   18.0551 H   0  0  0  0  0  0  0  0  0  0  0  0
   47.6403    7.8383   22.3507 H   0  0  0  0  0  0  0  0  0  0  0  0
   48.4561    8.1115   18.1405 H   0  0  0  0  0  0  0  0  0  0  0  0
   48.6197    6.8742   20.2860 H   0  0  0  0  0  0  0  0  0  0  0  0
  2  1  2  0
  3  1  1  0
  4  1  1  0
  5  3  1  0
  6  5  1  0
  7  2  1  0
  8  4  1  0
  9  6  2  0
 10  6  1  0
 11  9  1  0
 12 10  2  0
 13 12  1  0
 11 13  2  0
  3 14  1  0
  4 15  1  0
  5 16  1  0
  5 17  1  0
  7 18  1  0
  7 19  1  0
  7 20  1  0
  8 21  1  0
  8 22  1  0
  8 23  1  0
  9 24  1  0
 10 25  1  0
 11 26  1  0
 12 27  1  0
 13 28  1  0
M  END
> <Uni-Dock RESULT> 
ENERGY=   -2.973  LOWER_BOUND=   12.016  UPPER_BOUND=   13.576
INTER + INTRA:          -2.973
INTER:                  -2.973
INTRA:                   0.000
UNBOUND:                 0.000

$$$$

     RDKit          3D

 28 28  0  0  0  0  0  0  0  0999 V2000
   47.3139    7.9036   13.0467 C   0  0  0  0  0  0  0  0  0  0  0  0
   47.9095    7.7400   11.9218 N   0  0  0  0  0  0  0  0  0  0  0  0
   45.9522    7.9268   13.1569 N   0  0  0  0  0  0  0  0  0  0  0  0
   47.8669    8.1003   14.2813 N   0  0  0  0  0  0  0  0  0  0  0  0
   45.0873    7.5801   12.0414 C   0  0  0  0  0  0  0  0  0  0  0  0
   44.6484    6.1389   12.1567 C   0  0  0  0  0  0  0  0  0  0  0  0
   49.3583    7.8331   11.8689 C   0  0  0  0  0  0  0  0  0  0  0  0
   48.5867    7.0254   14.9363 C   0  0  0  0  0  0  0  0  0  0  0  0
   43.4114    5.8075   12.7287 C   0  0  0  0  0  0  0  0  0  0  0  0
   45.4944    5.1072   11.7248 C   0  0  0  0  0  0  0  0  0  0  0  0
   43.0243    4.4717   12.8511 C   0  0  0  0  0  0  0  0  0  0  0  0
   45.1061    3.7728   11.8487 C   0  0  0  0  0  0  0  0  0  0  0  0
   43.8707    3.4557   12.4103 C   0  0  0  0  0  0  0  0  0  0  0  0
   45.6046    7.5471   14.0263 H   0  0  0  0  0  0  0  0  0  0  0  0
   47.2161    8.5496   14.9134 H   0  0  0  0  0  0  0  0  0  0  0  0
   45.5519    7.7634   11.0652 H   0  0  0  0  0  0  0  0  0  0  0  0
   44.2060    8.2317   12.0744 H   0  0  0  0  0  0  0  0  0  0  0  0
   49.8117    6.8483   12.0152 H   0  0  0  0  0  0  0  0  0  0  0  0
   49.6538    8.1864   10.8758 H   0  0  0  0  0  0  0  0  0  0  0  0
   49.7756    8.5413   12.5922 H   0  0  0  0  0  0  0  0  0  0  0  0
   47.9241    6.1720   15.1122 H   0  0  0  0  0  0  0  0  0  0  0  0
   48.9596    7.3737   15.9041 H   0  0  0  0  0  0  0  0  0  0  0  0
   49.4449    6.6903   14.3491 H   0  0  0  0  0  0  0  0  0  0  0  0
   42.7400    6.5883   13.0791 H   0  0  0  0  0  0  0  0  0  0  0  0
   46.4655    5.3473   11.2929 H   0  0  0  0  0  0  0  0  0  0  0  0
   42.0614    4.2228   13.2898 H   0  0  0  0  0  0  0  0  0  0  0  0
   45.7696    2.9825   11.5073 H   0  0  0  0  0  0  0  0  0  0  0  0
   43.5684    2.4160   12.5048 H   0  0  0  0  0  0  0  0  0  0  0  0
  2  1  2  0
  3  1  1  0
  4  1  1  0
  5  3  1  0
  6  5  1  0
  7  2  1  0
  8  4  1  0
  9  6  2  0
 10  6  1  0
 11  9  1  0
 12 10  2  0
 13 12  1  0
 11 13  2  0
  3 14  1  0
  4 15  1  0
  5 16  1  0
  5 17  1  0
  7 18  1  0
  7 19  1  0
  7 20  1  0
  8 21  1  0
  8 22  1  0
  8 23  1  0
  9 24  1  0
 10 25  1  0
 11 26  1  0
 12 27  1  0
 13 28  1  0
M  END
> <Uni-Dock RESULT> 
ENERGY=   -2.955  LOWER_BOUND=    4.304  UPPER_BOUND=    5.952
INTER + INTRA:          -2.955
INTER:                  -2.955
INTRA:                   0.000
UNBOUND:                 0.000

$$$$
