
     RDKit          3D

 28 28  0  0  0  0  0  0  0  0999 V2000
   44.5999    5.1345   10.7860 C   0  0  0  0  0  0  0  0  0  0  0  0
   43.3229    5.1428   10.7234 N   0  0  0  0  0  0  0  0  0  0  0  0
   45.3328    4.4463    9.8569 N   0  0  0  0  0  0  0  0  0  0  0  0
   45.4972    5.6991   11.6488 N   0  0  0  0  0  0  0  0  0  0  0  0
   44.6712    3.6294    8.8537 C   0  0  0  0  0  0  0  0  0  0  0  0
   45.7168    2.9725    7.9831 C   0  0  0  0  0  0  0  0  0  0  0  0
   42.4992    5.8062   11.7070 C   0  0  0  0  0  0  0  0  0  0  0  0
   45.2214    6.7735   12.5706 C   0  0  0  0  0  0  0  0  0  0  0  0
   46.0585    1.6249    8.1669 C   0  0  0  0  0  0  0  0  0  0  0  0
   46.3864    3.7149    6.9990 C   0  0  0  0  0  0  0  0  0  0  0  0
   47.0390    1.0293    7.3713 C   0  0  0  0  0  0  0  0  0  0  0  0
   47.3664    3.1176    6.2051 C   0  0  0  0  0  0  0  0  0  0  0  0
   47.6911    1.7750    6.3906 C   0  0  0  0  0  0  0  0  0  0  0  0
   46.1170    3.9589   10.2724 H   0  0  0  0  0  0  0  0  0  0  0  0
   46.3860    5.8407   11.1808 H   0  0  0  0  0  0  0  0  0  0  0  0
   44.0124    4.2414    8.2255 H   0  0  0  0  0  0  0  0  0  0  0  0
   44.0492    2.8633    9.3327 H   0  0  0  0  0  0  0  0  0  0  0  0
   42.6874    5.4302   12.7167 H   0  0  0  0  0  0  0  0  0  0  0  0
   41.4474    5.5954   11.4863 H   0  0  0  0  0  0  0  0  0  0  0  0
   42.6168    6.8926   11.6715 H   0  0  0  0  0  0  0  0  0  0  0  0
   46.1566    7.0950   13.0406 H   0  0  0  0  0  0  0  0  0  0  0  0
   44.5559    6.4518   13.3750 H   0  0  0  0  0  0  0  0  0  0  0  0
   44.7970    7.6390   12.0537 H   0  0  0  0  0  0  0  0  0  0  0  0
   45.5608    1.0306    8.9303 H   0  0  0  0  0  0  0  0  0  0  0  0
   46.1451    4.7661    6.8537 H   0  0  0  0  0  0  0  0  0  0  0  0
   47.2945   -0.0171    7.5170 H   0  0  0  0  0  0  0  0  0  0  0  0
   47.8773    3.7008    5.4435 H   0  0  0  0  0  0  0  0  0  0  0  0
   48.4539    1.3100    5.7717 H   0  0  0  0  0  0  0  0  0  0  0  0
  2  1  2  0
  3  1  1  0
  4  1  1  0
  5  3  1  0
  6  5  1  0
  7  2  1  0
  8  4  1  0
  9  6  2  0
 10  6  1  0
 11  9  1  0
 12 10  2  0
 13 12  1  0
 11 13  2  0
  3 14  1  0
  4 15  1  0
  5 16  1  0
  5 17  1  0
  7 18  1  0
  7 19  1  0
  7 20  1  0
  8 21  1  0
  8 22  1  0
  8 23  1  0
  9 24  1  0
 10 25  1  0
 11 26  1  0
 12 27  1  0
 13 28  1  0
M  END
> <Uni-Dock RESULT> 
ENERGY=   -6.579  LOWER_BOUND=    0.000  UPPER_BOUND=    0.000
INTER + INTRA:          -6.579
INTER:                  -6.579
INTRA:                   0.000
UNBOUND:                 0.000

$$$$

     RDKit          3D

 28 28  0  0  0  0  0  0  0  0999 V2000
   46.2370    2.7284    7.8713 C   0  0  0  0  0  0  0  0  0  0  0  0
   46.4094    3.4093    6.8029 N   0  0  0  0  0  0  0  0  0  0  0  0
   45.6606    3.3035    8.9717 N   0  0  0  0  0  0  0  0  0  0  0  0
   46.5258    1.4369    8.2135 N   0  0  0  0  0  0  0  0  0  0  0  0
   45.3363    4.7200    8.9789 C   0  0  0  0  0  0  0  0  0  0  0  0
   44.7377    5.0831   10.3177 C   0  0  0  0  0  0  0  0  0  0  0  0
   47.0608    2.8699    5.6321 C   0  0  0  0  0  0  0  0  0  0  0  0
   46.8212    0.3655    7.2943 C   0  0  0  0  0  0  0  0  0  0  0  0
   45.5041    5.7412   11.2905 C   0  0  0  0  0  0  0  0  0  0  0  0
   43.4126    4.7343   10.6185 C   0  0  0  0  0  0  0  0  0  0  0  0
   44.9501    6.0570   12.5324 C   0  0  0  0  0  0  0  0  0  0  0  0
   42.8610    5.0507   11.8607 C   0  0  0  0  0  0  0  0  0  0  0  0
   43.6295    5.7132   12.8163 C   0  0  0  0  0  0  0  0  0  0  0  0
   46.1150    3.0237    9.8322 H   0  0  0  0  0  0  0  0  0  0  0  0
   45.8985    1.1243    8.9468 H   0  0  0  0  0  0  0  0  0  0  0  0
   44.6169    4.9588    8.1861 H   0  0  0  0  0  0  0  0  0  0  0  0
   46.2363    5.3200    8.7972 H   0  0  0  0  0  0  0  0  0  0  0  0
   48.0706    2.5138    5.8552 H   0  0  0  0  0  0  0  0  0  0  0  0
   47.1679    3.6673    4.8892 H   0  0  0  0  0  0  0  0  0  0  0  0
   46.4678    2.0801    5.1631 H   0  0  0  0  0  0  0  0  0  0  0  0
   46.8912   -0.5764    7.8481 H   0  0  0  0  0  0  0  0  0  0  0  0
   47.7834    0.5150    6.7989 H   0  0  0  0  0  0  0  0  0  0  0  0
   46.0276    0.2528    6.5501 H   0  0  0  0  0  0  0  0  0  0  0  0
   46.5372    6.0133   11.0851 H   0  0  0  0  0  0  0  0  0  0  0  0
   42.8086    4.2090    9.8811 H   0  0  0  0  0  0  0  0  0  0  0  0
   45.5495    6.5714   13.2791 H   0  0  0  0  0  0  0  0  0  0  0  0
   41.8325    4.7785   12.0827 H   0  0  0  0  0  0  0  0  0  0  0  0
   43.1994    5.9600   13.7833 H   0  0  0  0  0  0  0  0  0  0  0  0
  2  1  2  0
  3  1  1  0
  4  1  1  0
  5  3  1  0
  6  5  1  0
  7  2  1  0
  8  4  1  0
  9  6  2  0
 10  6  1  0
 11  9  1  0
 12 10  2  0
 13 12  1  0
 11 13  2  0
  3 14  1  0
  4 15  1  0
  5 16  1  0
  5 17  1  0
  7 18  1  0
  7 19  1  0
  7 20  1  0
  8 21  1  0
  8 22  1  0
  8 23  1  0
  9 24  1  0
 10 25  1  0
 11 26  1  0
 12 27  1  0
 13 28  1  0
M  END
> <Uni-Dock RESULT> 
ENERGY=   -4.157  LOWER_BOUND=    1.687  UPPER_BOUND=    5.974
INTER + INTRA:          -4.157
INTER:                  -4.157
INTRA:                   0.000
UNBOUND:                 0.000

$$$$

     RDKit          3D

 28 28  0  0  0  0  0  0  0  0999 V2000
   43.5868    9.1415   11.1022 C   0  0  0  0  0  0  0  0  0  0  0  0
   44.6431    9.7716   11.4512 N   0  0  0  0  0  0  0  0  0  0  0  0
   43.5743    7.7728   11.0799 N   0  0  0  0  0  0  0  0  0  0  0  0
   42.3457    9.5485   10.6993 N   0  0  0  0  0  0  0  0  0  0  0  0
   44.7881    7.0198   11.3467 C   0  0  0  0  0  0  0  0  0  0  0  0
   44.4889    5.5433   11.2329 C   0  0  0  0  0  0  0  0  0  0  0  0
   44.7294   11.2133   11.4406 C   0  0  0  0  0  0  0  0  0  0  0  0
   41.7858   10.8642   10.8879 C   0  0  0  0  0  0  0  0  0  0  0  0
   44.8620    4.8227   10.0893 C   0  0  0  0  0  0  0  0  0  0  0  0
   43.8004    4.8796   12.2593 C   0  0  0  0  0  0  0  0  0  0  0  0
   44.5657    3.4625    9.9827 C   0  0  0  0  0  0  0  0  0  0  0  0
   43.5049    3.5201   12.1506 C   0  0  0  0  0  0  0  0  0  0  0  0
   43.8890    2.8120   11.0132 C   0  0  0  0  0  0  0  0  0  0  0  0
   43.0819    7.4075   10.2741 H   0  0  0  0  0  0  0  0  0  0  0  0
   41.6611    8.8290   10.9058 H   0  0  0  0  0  0  0  0  0  0  0  0
   45.1660    7.2341   12.3539 H   0  0  0  0  0  0  0  0  0  0  0  0
   45.5753    7.2972   10.6350 H   0  0  0  0  0  0  0  0  0  0  0  0
   44.5196   11.6269   10.4500 H   0  0  0  0  0  0  0  0  0  0  0  0
   45.7542   11.5072   11.6911 H   0  0  0  0  0  0  0  0  0  0  0  0
   44.0789   11.6662   12.1936 H   0  0  0  0  0  0  0  0  0  0  0  0
   40.7372   10.8589   10.5730 H   0  0  0  0  0  0  0  0  0  0  0  0
   42.2976   11.6101   10.2754 H   0  0  0  0  0  0  0  0  0  0  0  0
   41.8129   11.1584   11.9410 H   0  0  0  0  0  0  0  0  0  0  0  0
   45.3878    5.3169    9.2752 H   0  0  0  0  0  0  0  0  0  0  0  0
   43.4891    5.4272   13.1468 H   0  0  0  0  0  0  0  0  0  0  0  0
   44.8627    2.9102    9.0950 H   0  0  0  0  0  0  0  0  0  0  0  0
   42.9736    3.0146   12.9527 H   0  0  0  0  0  0  0  0  0  0  0  0
   43.6593    1.7531   10.9292 H   0  0  0  0  0  0  0  0  0  0  0  0
  2  1  2  0
  3  1  1  0
  4  1  1  0
  5  3  1  0
  6  5  1  0
  7  2  1  0
  8  4  1  0
  9  6  2  0
 10  6  1  0
 11  9  1  0
 12 10  2  0
 13 12  1  0
 11 13  2  0
  3 14  1  0
  4 15  1  0
  5 16  1  0
  5 17  1  0
  7 18  1  0
  7 19  1  0
  7 20  1  0
  8 21  1  0
  8 22  1  0
  8 23  1  0
  9 24  1  0
 10 25  1  0
 11 26  1  0
 12 27  1  0
 13 28  1  0
M  END
> <Uni-Dock RESULT> 
ENERGY=   -3.591  LOWER_BOUND=    3.171  UPPER_BOUND=    5.125
INTER + INTRA:          -3.591
INTER:                  -3.591
INTRA:                   0.000
UNBOUND:                 0.000

$$$$
