
     RDKit          3D

 28 28  0  0  0  0  0  0  0  0999 V2000
   44.6050    4.8071   10.8769 C   0  0  0  0  0  0  0  0  0  0  0  0
   43.3686    5.0611   10.6736 N   0  0  0  0  0  0  0  0  0  0  0  0
   45.3301    4.1133    9.9459 N   0  0  0  0  0  0  0  0  0  0  0  0
   45.4630    5.0977   11.9006 N   0  0  0  0  0  0  0  0  0  0  0  0
   44.7368    3.7506    8.6700 C   0  0  0  0  0  0  0  0  0  0  0  0
   45.7633    3.0177    7.8381 C   0  0  0  0  0  0  0  0  0  0  0  0
   42.5706    5.8354   11.5956 C   0  0  0  0  0  0  0  0  0  0  0  0
   45.0834    5.5086   13.2299 C   0  0  0  0  0  0  0  0  0  0  0  0
   46.0788    1.6803    8.1203 C   0  0  0  0  0  0  0  0  0  0  0  0
   46.4398    3.6699    6.7971 C   0  0  0  0  0  0  0  0  0  0  0  0
   47.0399    1.0049    7.3670 C   0  0  0  0  0  0  0  0  0  0  0  0
   47.4006    2.9922    6.0446 C   0  0  0  0  0  0  0  0  0  0  0  0
   47.6990    1.6605    6.3287 C   0  0  0  0  0  0  0  0  0  0  0  0
   46.2617    4.4914    9.8266 H   0  0  0  0  0  0  0  0  0  0  0  0
   46.2105    4.4127   11.9313 H   0  0  0  0  0  0  0  0  0  0  0  0
   43.8634    3.1032    8.8165 H   0  0  0  0  0  0  0  0  0  0  0  0
   44.3955    4.6468    8.1376 H   0  0  0  0  0  0  0  0  0  0  0  0
   41.5782    5.9903   11.1592 H   0  0  0  0  0  0  0  0  0  0  0  0
   42.9947    6.8290   11.7667 H   0  0  0  0  0  0  0  0  0  0  0  0
   42.4196    5.3117   12.5433 H   0  0  0  0  0  0  0  0  0  0  0  0
   44.3916    4.7927   13.6828 H   0  0  0  0  0  0  0  0  0  0  0  0
   45.9757    5.5517   13.8631 H   0  0  0  0  0  0  0  0  0  0  0  0
   44.6443    6.5089   13.2312 H   0  0  0  0  0  0  0  0  0  0  0  0
   45.5749    1.1638    8.9350 H   0  0  0  0  0  0  0  0  0  0  0  0
   46.2203    4.7099    6.5653 H   0  0  0  0  0  0  0  0  0  0  0  0
   47.2749   -0.0322    7.5918 H   0  0  0  0  0  0  0  0  0  0  0  0
   47.9170    3.5035    5.2362 H   0  0  0  0  0  0  0  0  0  0  0  0
   48.4469    1.1339    5.7418 H   0  0  0  0  0  0  0  0  0  0  0  0
  2  1  2  0
  3  1  1  0
  4  1  1  0
  5  3  1  0
  6  5  1  0
  7  2  1  0
  8  4  1  0
  9  6  2  0
 10  6  1  0
 11  9  1  0
 12 10  2  0
 13 12  1  0
 11 13  2  0
  3 14  1  0
  4 15  1  0
  5 16  1  0
  5 17  1  0
  7 18  1  0
  7 19  1  0
  7 20  1  0
  8 21  1  0
  8 22  1  0
  8 23  1  0
  9 24  1  0
 10 25  1  0
 11 26  1  0
 12 27  1  0
 13 28  1  0
M  END
> <Uni-Dock RESULT> 
ENERGY=   -6.297  LOWER_BOUND=    0.000  UPPER_BOUND=    0.000
INTER + INTRA:          -6.297
INTER:                  -6.297
INTRA:                   0.000
UNBOUND:                 0.000

$$$$

     RDKit          3D

 28 28  0  0  0  0  0  0  0  0999 V2000
   46.0843    2.6845    8.0044 C   0  0  0  0  0  0  0  0  0  0  0  0
   46.4332    3.4385    7.0326 N   0  0  0  0  0  0  0  0  0  0  0  0
   45.5299    3.2245    9.1334 N   0  0  0  0  0  0  0  0  0  0  0  0
   46.1311    1.3328    8.2022 N   0  0  0  0  0  0  0  0  0  0  0  0
   45.2308    4.6449    9.2013 C   0  0  0  0  0  0  0  0  0  0  0  0
   44.6095    4.9556   10.5429 C   0  0  0  0  0  0  0  0  0  0  0  0
   46.9720    2.9183    5.7975 C   0  0  0  0  0  0  0  0  0  0  0  0
   46.9287    0.3961    7.4494 C   0  0  0  0  0  0  0  0  0  0  0  0
   45.4085    5.0252   11.6939 C   0  0  0  0  0  0  0  0  0  0  0  0
   43.2253    5.1444   10.6649 C   0  0  0  0  0  0  0  0  0  0  0  0
   44.8368    5.2932   12.9383 C   0  0  0  0  0  0  0  0  0  0  0  0
   42.6555    5.4126   11.9108 C   0  0  0  0  0  0  0  0  0  0  0  0
   43.4610    5.4883   13.0459 C   0  0  0  0  0  0  0  0  0  0  0  0
   44.7619    2.6674    9.4870 H   0  0  0  0  0  0  0  0  0  0  0  0
   46.1713    1.1289    9.1950 H   0  0  0  0  0  0  0  0  0  0  0  0
   46.1435    5.2413    9.0803 H   0  0  0  0  0  0  0  0  0  0  0  0
   44.5430    4.9304    8.3960 H   0  0  0  0  0  0  0  0  0  0  0  0
   47.1068    3.7472    5.0947 H   0  0  0  0  0  0  0  0  0  0  0  0
   46.2869    2.2123    5.3194 H   0  0  0  0  0  0  0  0  0  0  0  0
   47.9560    2.4641    5.9413 H   0  0  0  0  0  0  0  0  0  0  0  0
   47.9841    0.6831    7.4526 H   0  0  0  0  0  0  0  0  0  0  0  0
   46.8541   -0.5942    7.9107 H   0  0  0  0  0  0  0  0  0  0  0  0
   46.5689    0.2961    6.4228 H   0  0  0  0  0  0  0  0  0  0  0  0
   46.4825    4.8654   11.6197 H   0  0  0  0  0  0  0  0  0  0  0  0
   42.5829    5.0853    9.7889 H   0  0  0  0  0  0  0  0  0  0  0  0
   45.4651    5.3479   13.8235 H   0  0  0  0  0  0  0  0  0  0  0  0
   41.5822    5.5625   11.9961 H   0  0  0  0  0  0  0  0  0  0  0  0
   43.0162    5.6977   14.0152 H   0  0  0  0  0  0  0  0  0  0  0  0
  2  1  2  0
  3  1  1  0
  4  1  1  0
  5  3  1  0
  6  5  1  0
  7  2  1  0
  8  4  1  0
  9  6  2  0
 10  6  1  0
 11  9  1  0
 12 10  2  0
 13 12  1  0
 11 13  2  0
  3 14  1  0
  4 15  1  0
  5 16  1  0
  5 17  1  0
  7 18  1  0
  7 19  1  0
  7 20  1  0
  8 21  1  0
  8 22  1  0
  8 23  1  0
  9 24  1  0
 10 25  1  0
 11 26  1  0
 12 27  1  0
 13 28  1  0
M  END
> <Uni-Dock RESULT> 
ENERGY=   -4.265  LOWER_BOUND=    1.561  UPPER_BOUND=    5.915
INTER + INTRA:          -4.265
INTER:                  -4.265
INTRA:                   0.000
UNBOUND:                 0.000

$$$$

     RDKit          3D

 28 28  0  0  0  0  0  0  0  0999 V2000
   45.3722    4.3527    9.2130 C   0  0  0  0  0  0  0  0  0  0  0  0
   44.7200    3.3719    9.7104 N   0  0  0  0  0  0  0  0  0  0  0  0
   45.3257    5.5854    9.8064 N   0  0  0  0  0  0  0  0  0  0  0  0
   46.1918    4.4748    8.1259 N   0  0  0  0  0  0  0  0  0  0  0  0
   44.6250    5.7716   11.0657 C   0  0  0  0  0  0  0  0  0  0  0  0
   44.7557    7.2142   11.4954 C   0  0  0  0  0  0  0  0  0  0  0  0
   44.7763    2.0387    9.1578 C   0  0  0  0  0  0  0  0  0  0  0  0
   46.2730    3.5511    7.0213 C   0  0  0  0  0  0  0  0  0  0  0  0
   43.9894    8.2105   10.8723 C   0  0  0  0  0  0  0  0  0  0  0  0
   45.6664    7.5841   12.4956 C   0  0  0  0  0  0  0  0  0  0  0  0
   44.1203    9.5467   11.2526 C   0  0  0  0  0  0  0  0  0  0  0  0
   45.7954    8.9214   12.8747 C   0  0  0  0  0  0  0  0  0  0  0  0
   45.0219    9.9013   12.2545 C   0  0  0  0  0  0  0  0  0  0  0  0
   46.2302    6.0403    9.8154 H   0  0  0  0  0  0  0  0  0  0  0  0
   46.1918    5.4347    7.7980 H   0  0  0  0  0  0  0  0  0  0  0  0
   43.5619    5.5221   10.9605 H   0  0  0  0  0  0  0  0  0  0  0  0
   45.0420    5.1129   11.8372 H   0  0  0  0  0  0  0  0  0  0  0  0
   44.2098    1.3632    9.8074 H   0  0  0  0  0  0  0  0  0  0  0  0
   45.7998    1.6541    9.1247 H   0  0  0  0  0  0  0  0  0  0  0  0
   44.3126    1.9872    8.1690 H   0  0  0  0  0  0  0  0  0  0  0  0
   45.2898    3.3842    6.5721 H   0  0  0  0  0  0  0  0  0  0  0  0
   46.9233    3.9708    6.2466 H   0  0  0  0  0  0  0  0  0  0  0  0
   46.7145    2.5992    7.3252 H   0  0  0  0  0  0  0  0  0  0  0  0
   43.2894    7.9430   10.0830 H   0  0  0  0  0  0  0  0  0  0  0  0
   46.2794    6.8314   12.9868 H   0  0  0  0  0  0  0  0  0  0  0  0
   43.5197   10.3106   10.7656 H   0  0  0  0  0  0  0  0  0  0  0  0
   46.5002    9.1992   13.6542 H   0  0  0  0  0  0  0  0  0  0  0  0
   45.1230   10.9420   12.5508 H   0  0  0  0  0  0  0  0  0  0  0  0
  2  1  2  0
  3  1  1  0
  4  1  1  0
  5  3  1  0
  6  5  1  0
  7  2  1  0
  8  4  1  0
  9  6  2  0
 10  6  1  0
 11  9  1  0
 12 10  2  0
 13 12  1  0
 11 13  2  0
  3 14  1  0
  4 15  1  0
  5 16  1  0
  5 17  1  0
  7 18  1  0
  7 19  1  0
  7 20  1  0
  8 21  1  0
  8 22  1  0
  8 23  1  0
  9 24  1  0
 10 25  1  0
 11 26  1  0
 12 27  1  0
 13 28  1  0
M  END
> <Uni-Dock RESULT> 
ENERGY=   -3.714  LOWER_BOUND=    2.490  UPPER_BOUND=    6.394
INTER + INTRA:          -3.714
INTER:                  -3.714
INTRA:                   0.000
UNBOUND:                 0.000

$$$$

     RDKit          3D

 28 28  0  0  0  0  0  0  0  0999 V2000
   43.7941    9.3050   11.0222 C   0  0  0  0  0  0  0  0  0  0  0  0
   44.8158    9.9182   11.4857 N   0  0  0  0  0  0  0  0  0  0  0  0
   43.7345    7.9378   11.0560 N   0  0  0  0  0  0  0  0  0  0  0  0
   42.6281    9.7312   10.4501 N   0  0  0  0  0  0  0  0  0  0  0  0
   44.7782    7.1703   11.7143 C   0  0  0  0  0  0  0  0  0  0  0  0
   44.4452    5.6998   11.6187 C   0  0  0  0  0  0  0  0  0  0  0  0
   44.9079   11.3591   11.5250 C   0  0  0  0  0  0  0  0  0  0  0  0
   42.3862   11.0432    9.9022 C   0  0  0  0  0  0  0  0  0  0  0  0
   44.6367    5.0076   10.4137 C   0  0  0  0  0  0  0  0  0  0  0  0
   43.9088    5.0137   12.7179 C   0  0  0  0  0  0  0  0  0  0  0  0
   44.3129    3.6538   10.3149 C   0  0  0  0  0  0  0  0  0  0  0  0
   43.5859    3.6593   12.6169 C   0  0  0  0  0  0  0  0  0  0  0  0
   43.7893    2.9801   11.4168 C   0  0  0  0  0  0  0  0  0  0  0  0
   42.8133    7.6008   11.3069 H   0  0  0  0  0  0  0  0  0  0  0  0
   42.2560    9.0092    9.8425 H   0  0  0  0  0  0  0  0  0  0  0  0
   45.7514    7.3507   11.2414 H   0  0  0  0  0  0  0  0  0  0  0  0
   44.8649    7.4659   12.7670 H   0  0  0  0  0  0  0  0  0  0  0  0
   45.8302   11.6395   12.0446 H   0  0  0  0  0  0  0  0  0  0  0  0
   44.0840   11.8048   12.0897 H   0  0  0  0  0  0  0  0  0  0  0  0
   44.9672   11.7914   10.5226 H   0  0  0  0  0  0  0  0  0  0  0  0
   43.1390   11.3038    9.1528 H   0  0  0  0  0  0  0  0  0  0  0  0
   41.4096   11.0534    9.4071 H   0  0  0  0  0  0  0  0  0  0  0  0
   42.3539   11.8054   10.6842 H   0  0  0  0  0  0  0  0  0  0  0  0
   45.0371    5.5286    9.5460 H   0  0  0  0  0  0  0  0  0  0  0  0
   43.7413    5.5307   13.6604 H   0  0  0  0  0  0  0  0  0  0  0  0
   44.4680    3.1260    9.3775 H   0  0  0  0  0  0  0  0  0  0  0  0
   43.1751    3.1336   13.4751 H   0  0  0  0  0  0  0  0  0  0  0  0
   43.5379    1.9256   11.3396 H   0  0  0  0  0  0  0  0  0  0  0  0
  2  1  2  0
  3  1  1  0
  4  1  1  0
  5  3  1  0
  6  5  1  0
  7  2  1  0
  8  4  1  0
  9  6  2  0
 10  6  1  0
 11  9  1  0
 12 10  2  0
 13 12  1  0
 11 13  2  0
  3 14  1  0
  4 15  1  0
  5 16  1  0
  5 17  1  0
  7 18  1  0
  7 19  1  0
  7 20  1  0
  8 21  1  0
  8 22  1  0
  8 23  1  0
  9 24  1  0
 10 25  1  0
 11 26  1  0
 12 27  1  0
 13 28  1  0
M  END
> <Uni-Dock RESULT> 
ENERGY=   -3.652  LOWER_BOUND=    3.588  UPPER_BOUND=    5.632
INTER + INTRA:          -3.652
INTER:                  -3.652
INTRA:                   0.000
UNBOUND:                 0.000

$$$$

     RDKit          3D

 28 28  0  0  0  0  0  0  0  0999 V2000
   47.3777    3.9741   16.0864 C   0  0  0  0  0  0  0  0  0  0  0  0
   48.1975    3.0499   15.7570 N   0  0  0  0  0  0  0  0  0  0  0  0
   46.5212    4.5013   15.1578 N   0  0  0  0  0  0  0  0  0  0  0  0
   47.1221    4.6212   17.2630 N   0  0  0  0  0  0  0  0  0  0  0  0
   46.4554    3.9464   13.8164 C   0  0  0  0  0  0  0  0  0  0  0  0
   45.4176    4.7016   13.0194 C   0  0  0  0  0  0  0  0  0  0  0  0
   49.0846    2.4205   16.7073 C   0  0  0  0  0  0  0  0  0  0  0  0
   47.9865    4.6482   18.4172 C   0  0  0  0  0  0  0  0  0  0  0  0
   45.7012    5.9823   12.5221 C   0  0  0  0  0  0  0  0  0  0  0  0
   44.1473    4.1518   12.7945 C   0  0  0  0  0  0  0  0  0  0  0  0
   44.7394    6.6917   11.8016 C   0  0  0  0  0  0  0  0  0  0  0  0
   43.1868    4.8631   12.0732 C   0  0  0  0  0  0  0  0  0  0  0  0
   43.4835    6.1312   11.5762 C   0  0  0  0  0  0  0  0  0  0  0  0
   45.5964    4.6618   15.5375 H   0  0  0  0  0  0  0  0  0  0  0  0
   46.7360    5.5404   17.0763 H   0  0  0  0  0  0  0  0  0  0  0  0
   47.4265    4.0289   13.3128 H   0  0  0  0  0  0  0  0  0  0  0  0
   46.1949    2.8816   13.8546 H   0  0  0  0  0  0  0  0  0  0  0  0
   49.6174    1.6054   16.2063 H   0  0  0  0  0  0  0  0  0  0  0  0
   48.5366    1.9697   17.5397 H   0  0  0  0  0  0  0  0  0  0  0  0
   49.8451    3.1139   17.0764 H   0  0  0  0  0  0  0  0  0  0  0  0
   48.9876    5.0010   18.1534 H   0  0  0  0  0  0  0  0  0  0  0  0
   47.5766    5.3414   19.1592 H   0  0  0  0  0  0  0  0  0  0  0  0
   48.0469    3.6686   18.8970 H   0  0  0  0  0  0  0  0  0  0  0  0
   46.6766    6.4307   12.7013 H   0  0  0  0  0  0  0  0  0  0  0  0
   43.8995    3.1646   13.1786 H   0  0  0  0  0  0  0  0  0  0  0  0
   44.9703    7.6821   11.4180 H   0  0  0  0  0  0  0  0  0  0  0  0
   42.2061    4.4278   11.8990 H   0  0  0  0  0  0  0  0  0  0  0  0
   42.7350    6.6838   11.0144 H   0  0  0  0  0  0  0  0  0  0  0  0
  2  1  2  0
  3  1  1  0
  4  1  1  0
  5  3  1  0
  6  5  1  0
  7  2  1  0
  8  4  1  0
  9  6  2  0
 10  6  1  0
 11  9  1  0
 12 10  2  0
 13 12  1  0
 11 13  2  0
  3 14  1  0
  4 15  1  0
  5 16  1  0
  5 17  1  0
  7 18  1  0
  7 19  1  0
  7 20  1  0
  8 21  1  0
  8 22  1  0
  8 23  1  0
  9 24  1  0
 10 25  1  0
 11 26  1  0
 12 27  1  0
 13 28  1  0
M  END
> <Uni-Dock RESULT> 
ENERGY=   -3.596  LOWER_BOUND=    5.182  UPPER_BOUND=    6.705
INTER + INTRA:          -3.596
INTER:                  -3.596
INTRA:                   0.000
UNBOUND:                 0.000

$$$$

     RDKit          3D

 28 28  0  0  0  0  0  0  0  0999 V2000
   44.7668    5.1292   10.6642 C   0  0  0  0  0  0  0  0  0  0  0  0
   44.2119    4.4538   11.5973 N   0  0  0  0  0  0  0  0  0  0  0  0
   45.1348    6.4302   10.8779 N   0  0  0  0  0  0  0  0  0  0  0  0
   45.1219    4.8306    9.3784 N   0  0  0  0  0  0  0  0  0  0  0  0
   44.9999    7.0278   12.1956 C   0  0  0  0  0  0  0  0  0  0  0  0
   45.4993    8.4528   12.1455 C   0  0  0  0  0  0  0  0  0  0  0  0
   43.8532    3.0630   11.4447 C   0  0  0  0  0  0  0  0  0  0  0  0
   44.6386    3.7122    8.6067 C   0  0  0  0  0  0  0  0  0  0  0  0
   44.7137    9.4580   11.5622 C   0  0  0  0  0  0  0  0  0  0  0  0
   46.7654    8.7863   12.6478 C   0  0  0  0  0  0  0  0  0  0  0  0
   45.1786   10.7722   11.4965 C   0  0  0  0  0  0  0  0  0  0  0  0
   47.2283   10.1016   12.5814 C   0  0  0  0  0  0  0  0  0  0  0  0
   46.4347   11.0936   12.0075 C   0  0  0  0  0  0  0  0  0  0  0  0
   46.0327    6.6473   10.4634 H   0  0  0  0  0  0  0  0  0  0  0  0
   45.1423    5.6766    8.8192 H   0  0  0  0  0  0  0  0  0  0  0  0
   43.9517    7.0247   12.5192 H   0  0  0  0  0  0  0  0  0  0  0  0
   45.5736    6.4568   12.9358 H   0  0  0  0  0  0  0  0  0  0  0  0
   43.4801    2.6877   12.4034 H   0  0  0  0  0  0  0  0  0  0  0  0
   44.7173    2.4456   11.1829 H   0  0  0  0  0  0  0  0  0  0  0  0
   43.0475    2.9271   10.7182 H   0  0  0  0  0  0  0  0  0  0  0  0
   43.5455    3.6994    8.5706 H   0  0  0  0  0  0  0  0  0  0  0  0
   45.0022    3.7995    7.5776 H   0  0  0  0  0  0  0  0  0  0  0  0
   45.0135    2.7630    8.9966 H   0  0  0  0  0  0  0  0  0  0  0  0
   43.7352    9.2136   11.1530 H   0  0  0  0  0  0  0  0  0  0  0  0
   47.3979    8.0229   13.0958 H   0  0  0  0  0  0  0  0  0  0  0  0
   44.5608   11.5441   11.0451 H   0  0  0  0  0  0  0  0  0  0  0  0
   48.2090   10.3528   12.9774 H   0  0  0  0  0  0  0  0  0  0  0  0
   46.7961   12.1173   11.9568 H   0  0  0  0  0  0  0  0  0  0  0  0
  2  1  2  0
  3  1  1  0
  4  1  1  0
  5  3  1  0
  6  5  1  0
  7  2  1  0
  8  4  1  0
  9  6  2  0
 10  6  1  0
 11  9  1  0
 12 10  2  0
 13 12  1  0
 11 13  2  0
  3 14  1  0
  4 15  1  0
  5 16  1  0
  5 17  1  0
  7 18  1  0
  7 19  1  0
  7 20  1  0
  8 21  1  0
  8 22  1  0
  8 23  1  0
  9 24  1  0
 10 25  1  0
 11 26  1  0
 12 27  1  0
 13 28  1  0
M  END
> <Uni-Dock RESULT> 
ENERGY=   -3.536  LOWER_BOUND=    3.354  UPPER_BOUND=    6.721
INTER + INTRA:          -3.536
INTER:                  -3.536
INTRA:                   0.000
UNBOUND:                 0.000

$$$$

     RDKit          3D

 28 28  0  0  0  0  0  0  0  0999 V2000
   48.5368    6.8314   12.9680 C   0  0  0  0  0  0  0  0  0  0  0  0
   48.8866    6.8775   14.1969 N   0  0  0  0  0  0  0  0  0  0  0  0
   47.3936    6.1750   12.5991 N   0  0  0  0  0  0  0  0  0  0  0  0
   49.0824    7.3370   11.8212 N   0  0  0  0  0  0  0  0  0  0  0  0
   46.5069    5.6158   13.6055 C   0  0  0  0  0  0  0  0  0  0  0  0
   45.3228    4.9752   12.9199 C   0  0  0  0  0  0  0  0  0  0  0  0
   50.0522    7.6012   14.6484 C   0  0  0  0  0  0  0  0  0  0  0  0
   50.4386    7.8020   11.6647 C   0  0  0  0  0  0  0  0  0  0  0  0
   45.4594    3.7307   12.2871 C   0  0  0  0  0  0  0  0  0  0  0  0
   44.0820    5.6271   12.8750 C   0  0  0  0  0  0  0  0  0  0  0  0
   44.3736    3.1437   11.6362 C   0  0  0  0  0  0  0  0  0  0  0  0
   42.9970    5.0379   12.2236 C   0  0  0  0  0  0  0  0  0  0  0  0
   43.1427    3.7967   11.6062 C   0  0  0  0  0  0  0  0  0  0  0  0
   46.8763    6.6770   11.8881 H   0  0  0  0  0  0  0  0  0  0  0  0
   48.7956    6.7778   11.0251 H   0  0  0  0  0  0  0  0  0  0  0  0
   47.0274    4.8599   14.2064 H   0  0  0  0  0  0  0  0  0  0  0  0
   46.1625    6.3999   14.2908 H   0  0  0  0  0  0  0  0  0  0  0  0
   50.0875    7.5659   15.7424 H   0  0  0  0  0  0  0  0  0  0  0  0
   50.0078    8.6585   14.3718 H   0  0  0  0  0  0  0  0  0  0  0  0
   50.9790    7.1466   14.2886 H   0  0  0  0  0  0  0  0  0  0  0  0
   51.1572    7.0330   11.9622 H   0  0  0  0  0  0  0  0  0  0  0  0
   50.6211    8.0348   10.6104 H   0  0  0  0  0  0  0  0  0  0  0  0
   50.6158    8.7210   12.2282 H   0  0  0  0  0  0  0  0  0  0  0  0
   46.4196    3.2183   12.2985 H   0  0  0  0  0  0  0  0  0  0  0  0
   43.9533    6.5977   13.3494 H   0  0  0  0  0  0  0  0  0  0  0  0
   44.4892    2.1777   11.1515 H   0  0  0  0  0  0  0  0  0  0  0  0
   42.0373    5.5476   12.1975 H   0  0  0  0  0  0  0  0  0  0  0  0
   42.2971    3.3388   11.0997 H   0  0  0  0  0  0  0  0  0  0  0  0
  2  1  2  0
  3  1  1  0
  4  1  1  0
  5  3  1  0
  6  5  1  0
  7  2  1  0
  8  4  1  0
  9  6  2  0
 10  6  1  0
 11  9  1  0
 12 10  2  0
 13 12  1  0
 11 13  2  0
  3 14  1  0
  4 15  1  0
  5 16  1  0
  5 17  1  0
  7 18  1  0
  7 19  1  0
  7 20  1  0
  8 21  1  0
  8 22  1  0
  8 23  1  0
  9 24  1  0
 10 25  1  0
 11 26  1  0
 12 27  1  0
 13 28  1  0
M  END
> <Uni-Dock RESULT> 
ENERGY=   -3.441  LOWER_BOUND=    4.206  UPPER_BOUND=    6.092
INTER + INTRA:          -3.441
INTER:                  -3.441
INTRA:                   0.000
UNBOUND:                 0.000

$$$$

     RDKit          3D

 28 28  0  0  0  0  0  0  0  0999 V2000
   44.0466    9.1552   11.1803 C   0  0  0  0  0  0  0  0  0  0  0  0
   42.9781    9.6726   10.7057 N   0  0  0  0  0  0  0  0  0  0  0  0
   44.1132    7.8099   11.4248 N   0  0  0  0  0  0  0  0  0  0  0  0
   45.2614    9.6749   11.5304 N   0  0  0  0  0  0  0  0  0  0  0  0
   43.0141    6.9368   11.0492 C   0  0  0  0  0  0  0  0  0  0  0  0
   43.3668    5.5136   11.4135 C   0  0  0  0  0  0  0  0  0  0  0  0
   42.8710   11.0753   10.3778 C   0  0  0  0  0  0  0  0  0  0  0  0
   45.5473   11.0686   11.7669 C   0  0  0  0  0  0  0  0  0  0  0  0
   43.3045    5.0886   12.7489 C   0  0  0  0  0  0  0  0  0  0  0  0
   43.7938    4.6076   10.4319 C   0  0  0  0  0  0  0  0  0  0  0  0
   43.6475    3.7804   13.0930 C   0  0  0  0  0  0  0  0  0  0  0  0
   44.1361    3.2993   10.7783 C   0  0  0  0  0  0  0  0  0  0  0  0
   44.0615    2.8861   12.1075 C   0  0  0  0  0  0  0  0  0  0  0  0
   45.0067    7.4159   11.1573 H   0  0  0  0  0  0  0  0  0  0  0  0
   45.6991    9.0895   12.2336 H   0  0  0  0  0  0  0  0  0  0  0  0
   42.0927    7.2242   11.5706 H   0  0  0  0  0  0  0  0  0  0  0  0
   42.8182    7.0091    9.9724 H   0  0  0  0  0  0  0  0  0  0  0  0
   41.8983   11.2543    9.9076 H   0  0  0  0  0  0  0  0  0  0  0  0
   43.6295   11.3834    9.6526 H   0  0  0  0  0  0  0  0  0  0  0  0
   42.9106   11.7065   11.2696 H   0  0  0  0  0  0  0  0  0  0  0  0
   44.8727   11.4889   12.5183 H   0  0  0  0  0  0  0  0  0  0  0  0
   46.5692   11.1680   12.1475 H   0  0  0  0  0  0  0  0  0  0  0  0
   45.4937   11.6518   10.8447 H   0  0  0  0  0  0  0  0  0  0  0  0
   42.9906    5.7833   13.5257 H   0  0  0  0  0  0  0  0  0  0  0  0
   43.8603    4.9159    9.3907 H   0  0  0  0  0  0  0  0  0  0  0  0
   43.5929    3.4603   14.1302 H   0  0  0  0  0  0  0  0  0  0  0  0
   44.4616    2.6019   10.0107 H   0  0  0  0  0  0  0  0  0  0  0  0
   44.3278    1.8672   12.3758 H   0  0  0  0  0  0  0  0  0  0  0  0
  2  1  2  0
  3  1  1  0
  4  1  1  0
  5  3  1  0
  6  5  1  0
  7  2  1  0
  8  4  1  0
  9  6  2  0
 10  6  1  0
 11  9  1  0
 12 10  2  0
 13 12  1  0
 11 13  2  0
  3 14  1  0
  4 15  1  0
  5 16  1  0
  5 17  1  0
  7 18  1  0
  7 19  1  0
  7 20  1  0
  8 21  1  0
  8 22  1  0
  8 23  1  0
  9 24  1  0
 10 25  1  0
 11 26  1  0
 12 27  1  0
 13 28  1  0
M  END
> <Uni-Dock RESULT> 
ENERGY=   -3.381  LOWER_BOUND=    3.772  UPPER_BOUND=    5.408
INTER + INTRA:          -3.381
INTER:                  -3.381
INTRA:                   0.000
UNBOUND:                 0.000

$$$$
