
     RDKit          3D

 28 28  0  0  0  0  0  0  0  0999 V2000
   44.6159    4.8196   10.8726 C   0  0  0  0  0  0  0  0  0  0  0  0
   43.3771    5.0662   10.6746 N   0  0  0  0  0  0  0  0  0  0  0  0
   45.3394    4.1243    9.9415 N   0  0  0  0  0  0  0  0  0  0  0  0
   45.4779    5.1200   11.8901 N   0  0  0  0  0  0  0  0  0  0  0  0
   44.7416    3.7531    8.6703 C   0  0  0  0  0  0  0  0  0  0  0  0
   45.7668    3.0202    7.8370 C   0  0  0  0  0  0  0  0  0  0  0  0
   42.5796    5.8404   11.5969 C   0  0  0  0  0  0  0  0  0  0  0  0
   45.1041    5.5394   13.2183 C   0  0  0  0  0  0  0  0  0  0  0  0
   46.0874    1.6847    8.1226 C   0  0  0  0  0  0  0  0  0  0  0  0
   46.4373    3.6705    6.7909 C   0  0  0  0  0  0  0  0  0  0  0  0
   47.0472    1.0092    7.3677 C   0  0  0  0  0  0  0  0  0  0  0  0
   47.3969    2.9927    6.0368 C   0  0  0  0  0  0  0  0  0  0  0  0
   47.7002    1.6630    6.3243 C   0  0  0  0  0  0  0  0  0  0  0  0
   46.2689    4.5058    9.8160 H   0  0  0  0  0  0  0  0  0  0  0  0
   46.2284    4.4383   11.9215 H   0  0  0  0  0  0  0  0  0  0  0  0
   43.8713    3.1034    8.8241 H   0  0  0  0  0  0  0  0  0  0  0  0
   44.3944    4.6454    8.1351 H   0  0  0  0  0  0  0  0  0  0  0  0
   42.9979    6.8379   11.7596 H   0  0  0  0  0  0  0  0  0  0  0  0
   41.5835    5.9860   11.1657 H   0  0  0  0  0  0  0  0  0  0  0  0
   42.4380    5.3214   12.5487 H   0  0  0  0  0  0  0  0  0  0  0  0
   44.6598    6.5374   13.2143 H   0  0  0  0  0  0  0  0  0  0  0  0
   44.4186    4.8234   13.6809 H   0  0  0  0  0  0  0  0  0  0  0  0
   45.9998    5.5921   13.8459 H   0  0  0  0  0  0  0  0  0  0  0  0
   45.5884    1.1697    8.9413 H   0  0  0  0  0  0  0  0  0  0  0  0
   46.2144    4.7093    6.5564 H   0  0  0  0  0  0  0  0  0  0  0  0
   47.2862   -0.0263    7.5952 H   0  0  0  0  0  0  0  0  0  0  0  0
   47.9085    3.5027    5.2245 H   0  0  0  0  0  0  0  0  0  0  0  0
   48.4469    1.1360    5.7361 H   0  0  0  0  0  0  0  0  0  0  0  0
  2  1  2  0
  3  1  1  0
  4  1  1  0
  5  3  1  0
  6  5  1  0
  7  2  1  0
  8  4  1  0
  9  6  2  0
 10  6  1  0
 11  9  1  0
 12 10  2  0
 13 12  1  0
 11 13  2  0
  3 14  1  0
  4 15  1  0
  5 16  1  0
  5 17  1  0
  7 18  1  0
  7 19  1  0
  7 20  1  0
  8 21  1  0
  8 22  1  0
  8 23  1  0
  9 24  1  0
 10 25  1  0
 11 26  1  0
 12 27  1  0
 13 28  1  0
M  END
> <Uni-Dock RESULT> 
ENERGY=   -6.300  LOWER_BOUND=    0.000  UPPER_BOUND=    0.000
INTER + INTRA:          -6.300
INTER:                  -6.300
INTRA:                   0.000
UNBOUND:                 0.000

$$$$

     RDKit          3D

 28 28  0  0  0  0  0  0  0  0999 V2000
   46.0852    2.6844    8.0044 C   0  0  0  0  0  0  0  0  0  0  0  0
   46.4332    3.4380    7.0320 N   0  0  0  0  0  0  0  0  0  0  0  0
   45.5310    3.2249    9.1334 N   0  0  0  0  0  0  0  0  0  0  0  0
   46.1328    1.3328    8.2032 N   0  0  0  0  0  0  0  0  0  0  0  0
   45.2298    4.6449    9.1996 C   0  0  0  0  0  0  0  0  0  0  0  0
   44.6096    4.9567   10.5415 C   0  0  0  0  0  0  0  0  0  0  0  0
   46.9728    2.9176    5.7974 C   0  0  0  0  0  0  0  0  0  0  0  0
   46.9277    0.3952    7.4490 C   0  0  0  0  0  0  0  0  0  0  0  0
   45.4101    5.0313   11.6911 C   0  0  0  0  0  0  0  0  0  0  0  0
   43.2250    5.1415   10.6653 C   0  0  0  0  0  0  0  0  0  0  0  0
   44.8395    5.3007   12.9358 C   0  0  0  0  0  0  0  0  0  0  0  0
   42.6563    5.4111   11.9114 C   0  0  0  0  0  0  0  0  0  0  0  0
   43.4633    5.4919   13.0451 C   0  0  0  0  0  0  0  0  0  0  0  0
   44.7642    2.6671    9.4883 H   0  0  0  0  0  0  0  0  0  0  0  0
   46.1749    1.1296    9.1961 H   0  0  0  0  0  0  0  0  0  0  0  0
   46.1413    5.2426    9.0764 H   0  0  0  0  0  0  0  0  0  0  0  0
   44.5404    4.9283    8.3949 H   0  0  0  0  0  0  0  0  0  0  0  0
   46.2877    2.2121    5.3186 H   0  0  0  0  0  0  0  0  0  0  0  0
   47.1088    3.7466    5.0948 H   0  0  0  0  0  0  0  0  0  0  0  0
   47.9564    2.4627    5.9419 H   0  0  0  0  0  0  0  0  0  0  0  0
   46.5661    0.2961    6.4230 H   0  0  0  0  0  0  0  0  0  0  0  0
   47.9837    0.6808    7.4507 H   0  0  0  0  0  0  0  0  0  0  0  0
   46.8525   -0.5950    7.9102 H   0  0  0  0  0  0  0  0  0  0  0  0
   46.4845    4.8745   11.6157 H   0  0  0  0  0  0  0  0  0  0  0  0
   42.5812    5.0780    9.7905 H   0  0  0  0  0  0  0  0  0  0  0  0
   45.4689    5.3593   13.8199 H   0  0  0  0  0  0  0  0  0  0  0  0
   41.5828    5.5579   11.9979 H   0  0  0  0  0  0  0  0  0  0  0  0
   43.0196    5.7026   14.0146 H   0  0  0  0  0  0  0  0  0  0  0  0
  2  1  2  0
  3  1  1  0
  4  1  1  0
  5  3  1  0
  6  5  1  0
  7  2  1  0
  8  4  1  0
  9  6  2  0
 10  6  1  0
 11  9  1  0
 12 10  2  0
 13 12  1  0
 11 13  2  0
  3 14  1  0
  4 15  1  0
  5 16  1  0
  5 17  1  0
  7 18  1  0
  7 19  1  0
  7 20  1  0
  8 21  1  0
  8 22  1  0
  8 23  1  0
  9 24  1  0
 10 25  1  0
 11 26  1  0
 12 27  1  0
 13 28  1  0
M  END
> <Uni-Dock RESULT> 
ENERGY=   -4.256  LOWER_BOUND=    1.563  UPPER_BOUND=    5.917
INTER + INTRA:          -4.256
INTER:                  -4.256
INTRA:                   0.000
UNBOUND:                 0.000

$$$$

     RDKit          3D

 28 28  0  0  0  0  0  0  0  0999 V2000
   44.6431    4.9748   10.5473 C   0  0  0  0  0  0  0  0  0  0  0  0
   44.0567    4.2946   11.4573 N   0  0  0  0  0  0  0  0  0  0  0  0
   44.9768    6.2836   10.7700 N   0  0  0  0  0  0  0  0  0  0  0  0
   45.0644    4.6757    9.2818 N   0  0  0  0  0  0  0  0  0  0  0  0
   44.7699    6.8852   12.0763 C   0  0  0  0  0  0  0  0  0  0  0  0
   45.2444    8.3192   12.0411 C   0  0  0  0  0  0  0  0  0  0  0  0
   43.7297    2.8970   11.2966 C   0  0  0  0  0  0  0  0  0  0  0  0
   44.6416    3.5429    8.4960 C   0  0  0  0  0  0  0  0  0  0  0  0
   44.4672    9.3069   11.4179 C   0  0  0  0  0  0  0  0  0  0  0  0
   46.4804    8.6787   12.5976 C   0  0  0  0  0  0  0  0  0  0  0  0
   44.9098   10.6293   11.3664 C   0  0  0  0  0  0  0  0  0  0  0  0
   46.9211   10.0023   12.5451 C   0  0  0  0  0  0  0  0  0  0  0  0
   46.1357   10.9766   11.9313 C   0  0  0  0  0  0  0  0  0  0  0  0
   45.8889    6.5151   10.3962 H   0  0  0  0  0  0  0  0  0  0  0  0
   45.0948    5.5185    8.7182 H   0  0  0  0  0  0  0  0  0  0  0  0
   43.7082    6.8638   12.3513 H   0  0  0  0  0  0  0  0  0  0  0  0
   45.3194    6.3290   12.8457 H   0  0  0  0  0  0  0  0  0  0  0  0
   44.6161    2.2931   11.0819 H   0  0  0  0  0  0  0  0  0  0  0  0
   43.3163    2.5209   12.2384 H   0  0  0  0  0  0  0  0  0  0  0  0
   42.9633    2.7426   10.5324 H   0  0  0  0  0  0  0  0  0  0  0  0
   45.0153    2.6040    8.9111 H   0  0  0  0  0  0  0  0  0  0  0  0
   43.5519    3.5082    8.4064 H   0  0  0  0  0  0  0  0  0  0  0  0
   45.0536    3.6305    7.4852 H   0  0  0  0  0  0  0  0  0  0  0  0
   43.5128    9.0423   10.9667 H   0  0  0  0  0  0  0  0  0  0  0  0
   47.1067    7.9292   13.0769 H   0  0  0  0  0  0  0  0  0  0  0  0
   44.2987   11.3875   10.8839 H   0  0  0  0  0  0  0  0  0  0  0  0
   47.8783   10.2735   12.9832 H   0  0  0  0  0  0  0  0  0  0  0  0
   46.4794   12.0069   11.8917 H   0  0  0  0  0  0  0  0  0  0  0  0
  2  1  2  0
  3  1  1  0
  4  1  1  0
  5  3  1  0
  6  5  1  0
  7  2  1  0
  8  4  1  0
  9  6  2  0
 10  6  1  0
 11  9  1  0
 12 10  2  0
 13 12  1  0
 11 13  2  0
  3 14  1  0
  4 15  1  0
  5 16  1  0
  5 17  1  0
  7 18  1  0
  7 19  1  0
  7 20  1  0
  8 21  1  0
  8 22  1  0
  8 23  1  0
  9 24  1  0
 10 25  1  0
 11 26  1  0
 12 27  1  0
 13 28  1  0
M  END
> <Uni-Dock RESULT> 
ENERGY=   -3.575  LOWER_BOUND=    3.219  UPPER_BOUND=    6.647
INTER + INTRA:          -3.575
INTER:                  -3.575
INTRA:                   0.000
UNBOUND:                 0.000

$$$$

     RDKit          3D

 28 28  0  0  0  0  0  0  0  0999 V2000
   48.5385    6.8312   12.9679 C   0  0  0  0  0  0  0  0  0  0  0  0
   48.8880    6.8771   14.1969 N   0  0  0  0  0  0  0  0  0  0  0  0
   47.3949    6.1756   12.5989 N   0  0  0  0  0  0  0  0  0  0  0  0
   49.0846    7.3365   11.8212 N   0  0  0  0  0  0  0  0  0  0  0  0
   46.5071    5.6184   13.6052 C   0  0  0  0  0  0  0  0  0  0  0  0
   45.3229    4.9778   12.9198 C   0  0  0  0  0  0  0  0  0  0  0  0
   50.0545    7.5990   14.6488 C   0  0  0  0  0  0  0  0  0  0  0  0
   50.4399    7.8037   11.6652 C   0  0  0  0  0  0  0  0  0  0  0  0
   45.4584    3.7313   12.2905 C   0  0  0  0  0  0  0  0  0  0  0  0
   44.0832    5.6315   12.8713 C   0  0  0  0  0  0  0  0  0  0  0  0
   44.3724    3.1441   11.6400 C   0  0  0  0  0  0  0  0  0  0  0  0
   42.9981    5.0421   12.2202 C   0  0  0  0  0  0  0  0  0  0  0  0
   43.1426    3.7989   11.6065 C   0  0  0  0  0  0  0  0  0  0  0  0
   46.8787    6.6773   11.8869 H   0  0  0  0  0  0  0  0  0  0  0  0
   48.7987    6.7767   11.0251 H   0  0  0  0  0  0  0  0  0  0  0  0
   47.0265    4.8632   14.2078 H   0  0  0  0  0  0  0  0  0  0  0  0
   46.1625    6.4037   14.2893 H   0  0  0  0  0  0  0  0  0  0  0  0
   50.0109    8.6568   14.3740 H   0  0  0  0  0  0  0  0  0  0  0  0
   50.0906    7.5618   15.7427 H   0  0  0  0  0  0  0  0  0  0  0  0
   50.9809    7.1443   14.2875 H   0  0  0  0  0  0  0  0  0  0  0  0
   50.6157    8.7223   12.2296 H   0  0  0  0  0  0  0  0  0  0  0  0
   51.1598    7.0353   11.9619 H   0  0  0  0  0  0  0  0  0  0  0  0
   50.6222    8.0378   10.6112 H   0  0  0  0  0  0  0  0  0  0  0  0
   46.4176    3.2174   12.3046 H   0  0  0  0  0  0  0  0  0  0  0  0
   43.9553    6.6040   13.3423 H   0  0  0  0  0  0  0  0  0  0  0  0
   44.4870    2.1766   11.1582 H   0  0  0  0  0  0  0  0  0  0  0  0
   42.0392    5.5534   12.1914 H   0  0  0  0  0  0  0  0  0  0  0  0
   42.2969    3.3406   11.1005 H   0  0  0  0  0  0  0  0  0  0  0  0
  2  1  2  0
  3  1  1  0
  4  1  1  0
  5  3  1  0
  6  5  1  0
  7  2  1  0
  8  4  1  0
  9  6  2  0
 10  6  1  0
 11  9  1  0
 12 10  2  0
 13 12  1  0
 11 13  2  0
  3 14  1  0
  4 15  1  0
  5 16  1  0
  5 17  1  0
  7 18  1  0
  7 19  1  0
  7 20  1  0
  8 21  1  0
  8 22  1  0
  8 23  1  0
  9 24  1  0
 10 25  1  0
 11 26  1  0
 12 27  1  0
 13 28  1  0
M  END
> <Uni-Dock RESULT> 
ENERGY=   -3.445  LOWER_BOUND=    4.209  UPPER_BOUND=    6.087
INTER + INTRA:          -3.445
INTER:                  -3.445
INTRA:                   0.000
UNBOUND:                 0.000

$$$$

     RDKit          3D

 28 28  0  0  0  0  0  0  0  0999 V2000
   44.9985    5.1413   12.6679 C   0  0  0  0  0  0  0  0  0  0  0  0
   45.6026    4.8138   11.5898 N   0  0  0  0  0  0  0  0  0  0  0  0
   45.6416    5.0561   13.8733 N   0  0  0  0  0  0  0  0  0  0  0  0
   43.7412    5.6091   12.9300 N   0  0  0  0  0  0  0  0  0  0  0  0
   47.0487    4.6988   13.9346 C   0  0  0  0  0  0  0  0  0  0  0  0
   47.4977    4.7034   15.3772 C   0  0  0  0  0  0  0  0  0  0  0  0
   44.9912    4.9341   10.2867 C   0  0  0  0  0  0  0  0  0  0  0  0
   42.6117    5.5435   12.0357 C   0  0  0  0  0  0  0  0  0  0  0  0
   47.1499    3.6453   16.2302 C   0  0  0  0  0  0  0  0  0  0  0  0
   48.2365    5.7774   15.8943 C   0  0  0  0  0  0  0  0  0  0  0  0
   47.5463    3.6539   17.5681 C   0  0  0  0  0  0  0  0  0  0  0  0
   48.6322    5.7838   17.2330 C   0  0  0  0  0  0  0  0  0  0  0  0
   48.2885    4.7223   18.0684 C   0  0  0  0  0  0  0  0  0  0  0  0
   45.4332    5.8434   14.4750 H   0  0  0  0  0  0  0  0  0  0  0  0
   43.4705    5.3648   13.8765 H   0  0  0  0  0  0  0  0  0  0  0  0
   47.2165    3.7022   13.5083 H   0  0  0  0  0  0  0  0  0  0  0  0
   47.6501    5.4094   13.3543 H   0  0  0  0  0  0  0  0  0  0  0  0
   44.6728    5.9598   10.0791 H   0  0  0  0  0  0  0  0  0  0  0  0
   45.7335    4.6771    9.5237 H   0  0  0  0  0  0  0  0  0  0  0  0
   44.1571    4.2384   10.1616 H   0  0  0  0  0  0  0  0  0  0  0  0
   42.7448    6.1988   11.1718 H   0  0  0  0  0  0  0  0  0  0  0  0
   42.4276    4.5171   11.7056 H   0  0  0  0  0  0  0  0  0  0  0  0
   41.7147    5.8875   12.5611 H   0  0  0  0  0  0  0  0  0  0  0  0
   46.5630    2.8115   15.8495 H   0  0  0  0  0  0  0  0  0  0  0  0
   48.5095    6.6151   15.2559 H   0  0  0  0  0  0  0  0  0  0  0  0
   47.2742    2.8279   18.2199 H   0  0  0  0  0  0  0  0  0  0  0  0
   49.2089    6.6179   17.6246 H   0  0  0  0  0  0  0  0  0  0  0  0
   48.5977    4.7279   19.1103 H   0  0  0  0  0  0  0  0  0  0  0  0
  2  1  2  0
  3  1  1  0
  4  1  1  0
  5  3  1  0
  6  5  1  0
  7  2  1  0
  8  4  1  0
  9  6  2  0
 10  6  1  0
 11  9  1  0
 12 10  2  0
 13 12  1  0
 11 13  2  0
  3 14  1  0
  4 15  1  0
  5 16  1  0
  5 17  1  0
  7 18  1  0
  7 19  1  0
  7 20  1  0
  8 21  1  0
  8 22  1  0
  8 23  1  0
  9 24  1  0
 10 25  1  0
 11 26  1  0
 12 27  1  0
 13 28  1  0
M  END
> <Uni-Dock RESULT> 
ENERGY=   -3.400  LOWER_BOUND=    3.409  UPPER_BOUND=    7.325
INTER + INTRA:          -3.400
INTER:                  -3.400
INTRA:                   0.000
UNBOUND:                 0.000

$$$$

     RDKit          3D

 28 28  0  0  0  0  0  0  0  0999 V2000
   45.1110    5.4997   11.1263 C   0  0  0  0  0  0  0  0  0  0  0  0
   44.9021    4.8299   12.1951 N   0  0  0  0  0  0  0  0  0  0  0  0
   45.3391    6.8480   11.1894 N   0  0  0  0  0  0  0  0  0  0  0  0
   45.1740    5.1559    9.8048 N   0  0  0  0  0  0  0  0  0  0  0  0
   45.4559    7.5166   12.4742 C   0  0  0  0  0  0  0  0  0  0  0  0
   45.7271    8.9851   12.2446 C   0  0  0  0  0  0  0  0  0  0  0  0
   44.7091    3.3985   12.1923 C   0  0  0  0  0  0  0  0  0  0  0  0
   44.6752    3.9334    9.2250 C   0  0  0  0  0  0  0  0  0  0  0  0
   44.6905    9.8425   11.8466 C   0  0  0  0  0  0  0  0  0  0  0  0
   47.0208    9.5062   12.3908 C   0  0  0  0  0  0  0  0  0  0  0  0
   44.9398   11.1959   11.6152 C   0  0  0  0  0  0  0  0  0  0  0  0
   47.2677   10.8605   12.1591 C   0  0  0  0  0  0  0  0  0  0  0  0
   46.2277   11.7045   11.7730 C   0  0  0  0  0  0  0  0  0  0  0  0
   46.0672    7.1434   10.5509 H   0  0  0  0  0  0  0  0  0  0  0  0
   44.9381    5.9555    9.2268 H   0  0  0  0  0  0  0  0  0  0  0  0
   44.5321    7.4075   13.0555 H   0  0  0  0  0  0  0  0  0  0  0  0
   46.2686    7.0747   13.0636 H   0  0  0  0  0  0  0  0  0  0  0  0
   45.5578    2.8737   11.7444 H   0  0  0  0  0  0  0  0  0  0  0  0
   44.6379    3.0502   13.2281 H   0  0  0  0  0  0  0  0  0  0  0  0
   43.7756    3.1138   11.6994 H   0  0  0  0  0  0  0  0  0  0  0  0
   45.2620    3.0689    9.5438 H   0  0  0  0  0  0  0  0  0  0  0  0
   43.6193    3.7825    9.4676 H   0  0  0  0  0  0  0  0  0  0  0  0
   44.7587    3.9904    8.1347 H   0  0  0  0  0  0  0  0  0  0  0  0
   43.6837    9.4515   11.7126 H   0  0  0  0  0  0  0  0  0  0  0  0
   47.8438    8.8597   12.6880 H   0  0  0  0  0  0  0  0  0  0  0  0
   44.1291   11.8524   11.3102 H   0  0  0  0  0  0  0  0  0  0  0  0
   48.2725   11.2574   12.2795 H   0  0  0  0  0  0  0  0  0  0  0  0
   46.4210   12.7589   11.5936 H   0  0  0  0  0  0  0  0  0  0  0  0
  2  1  2  0
  3  1  1  0
  4  1  1  0
  5  3  1  0
  6  5  1  0
  7  2  1  0
  8  4  1  0
  9  6  2  0
 10  6  1  0
 11  9  1  0
 12 10  2  0
 13 12  1  0
 11 13  2  0
  3 14  1  0
  4 15  1  0
  5 16  1  0
  5 17  1  0
  7 18  1  0
  7 19  1  0
  7 20  1  0
  8 21  1  0
  8 22  1  0
  8 23  1  0
  9 24  1  0
 10 25  1  0
 11 26  1  0
 12 27  1  0
 13 28  1  0
M  END
> <Uni-Dock RESULT> 
ENERGY=   -3.355  LOWER_BOUND=    3.702  UPPER_BOUND=    7.011
INTER + INTRA:          -3.355
INTER:                  -3.355
INTRA:                   0.000
UNBOUND:                 0.000

$$$$
