
     RDKit          3D

 28 28  0  0  0  0  0  0  0  0999 V2000
   44.5921    5.1342   10.7924 C   0  0  0  0  0  0  0  0  0  0  0  0
   43.3152    5.1433   10.7286 N   0  0  0  0  0  0  0  0  0  0  0  0
   45.3253    4.4452    9.8642 N   0  0  0  0  0  0  0  0  0  0  0  0
   45.4890    5.6986   11.6558 N   0  0  0  0  0  0  0  0  0  0  0  0
   44.6642    3.6283    8.8607 C   0  0  0  0  0  0  0  0  0  0  0  0
   45.7102    2.9704    7.9914 C   0  0  0  0  0  0  0  0  0  0  0  0
   42.4910    5.8075   11.7113 C   0  0  0  0  0  0  0  0  0  0  0  0
   45.2131    6.7736   12.5768 C   0  0  0  0  0  0  0  0  0  0  0  0
   46.0509    1.6227    8.1760 C   0  0  0  0  0  0  0  0  0  0  0  0
   46.3812    3.7120    7.0076 C   0  0  0  0  0  0  0  0  0  0  0  0
   47.0317    1.0262    7.3816 C   0  0  0  0  0  0  0  0  0  0  0  0
   47.3615    3.1138    6.2148 C   0  0  0  0  0  0  0  0  0  0  0  0
   47.6851    1.7710    6.4011 C   0  0  0  0  0  0  0  0  0  0  0  0
   46.1090    3.9575   10.2806 H   0  0  0  0  0  0  0  0  0  0  0  0
   46.3782    5.8395   11.1885 H   0  0  0  0  0  0  0  0  0  0  0  0
   44.0414    2.8628    9.3395 H   0  0  0  0  0  0  0  0  0  0  0  0
   44.0063    4.2405    8.2318 H   0  0  0  0  0  0  0  0  0  0  0  0
   42.6781    5.4318   12.7212 H   0  0  0  0  0  0  0  0  0  0  0  0
   42.6093    6.8939   11.6754 H   0  0  0  0  0  0  0  0  0  0  0  0
   41.4393    5.5973   11.4897 H   0  0  0  0  0  0  0  0  0  0  0  0
   46.1480    7.0947   13.0475 H   0  0  0  0  0  0  0  0  0  0  0  0
   44.7895    7.6391   12.0592 H   0  0  0  0  0  0  0  0  0  0  0  0
   44.5466    6.4525   13.3807 H   0  0  0  0  0  0  0  0  0  0  0  0
   45.5522    1.0290    8.9392 H   0  0  0  0  0  0  0  0  0  0  0  0
   46.1405    4.7633    6.8616 H   0  0  0  0  0  0  0  0  0  0  0  0
   47.2866   -0.0203    7.5278 H   0  0  0  0  0  0  0  0  0  0  0  0
   47.8733    3.6964    5.4532 H   0  0  0  0  0  0  0  0  0  0  0  0
   48.4482    1.3054    5.7830 H   0  0  0  0  0  0  0  0  0  0  0  0
  2  1  2  0
  3  1  1  0
  4  1  1  0
  5  3  1  0
  6  5  1  0
  7  2  1  0
  8  4  1  0
  9  6  2  0
 10  6  1  0
 11  9  1  0
 12 10  2  0
 13 12  1  0
 11 13  2  0
  3 14  1  0
  4 15  1  0
  5 16  1  0
  5 17  1  0
  7 18  1  0
  7 19  1  0
  7 20  1  0
  8 21  1  0
  8 22  1  0
  8 23  1  0
  9 24  1  0
 10 25  1  0
 11 26  1  0
 12 27  1  0
 13 28  1  0
M  END
> <Uni-Dock RESULT> 
ENERGY=   -6.568  LOWER_BOUND=    0.000  UPPER_BOUND=    0.000
INTER + INTRA:          -6.568
INTER:                  -6.568
INTRA:                   0.000
UNBOUND:                 0.000

$$$$

     RDKit          3D

 28 28  0  0  0  0  0  0  0  0999 V2000
   47.2292    7.1776   12.1247 C   0  0  0  0  0  0  0  0  0  0  0  0
   46.4576    8.1505   12.4290 N   0  0  0  0  0  0  0  0  0  0  0  0
   46.7646    6.1395   11.3628 N   0  0  0  0  0  0  0  0  0  0  0  0
   48.5352    6.8948   12.4126 N   0  0  0  0  0  0  0  0  0  0  0  0
   45.3642    6.0741   10.9808 C   0  0  0  0  0  0  0  0  0  0  0  0
   45.1311    4.8210   10.1697 C   0  0  0  0  0  0  0  0  0  0  0  0
   46.8785    9.2435   13.2741 C   0  0  0  0  0  0  0  0  0  0  0  0
   49.5176    7.8363   12.8906 C   0  0  0  0  0  0  0  0  0  0  0  0
   44.5325    3.6931   10.7496 C   0  0  0  0  0  0  0  0  0  0  0  0
   45.5437    4.7579    8.8304 C   0  0  0  0  0  0  0  0  0  0  0  0
   44.3372    2.5320    9.9994 C   0  0  0  0  0  0  0  0  0  0  0  0
   45.3477    3.5962    8.0824 C   0  0  0  0  0  0  0  0  0  0  0  0
   44.7432    2.4846    8.6667 C   0  0  0  0  0  0  0  0  0  0  0  0
   47.1006    5.2427   11.6918 H   0  0  0  0  0  0  0  0  0  0  0  0
   48.9261    6.2944   11.6946 H   0  0  0  0  0  0  0  0  0  0  0  0
   44.7241    6.0668   11.8716 H   0  0  0  0  0  0  0  0  0  0  0  0
   45.0826    6.9486   10.3816 H   0  0  0  0  0  0  0  0  0  0  0  0
   47.2210    8.8939   14.2522 H   0  0  0  0  0  0  0  0  0  0  0  0
   47.6446    9.8584   12.7941 H   0  0  0  0  0  0  0  0  0  0  0  0
   46.0196    9.8973   13.4592 H   0  0  0  0  0  0  0  0  0  0  0  0
   50.4994    7.3523   12.9154 H   0  0  0  0  0  0  0  0  0  0  0  0
   49.5926    8.7016   12.2257 H   0  0  0  0  0  0  0  0  0  0  0  0
   49.2985    8.1628   13.9099 H   0  0  0  0  0  0  0  0  0  0  0  0
   44.2131    3.7135   11.7894 H   0  0  0  0  0  0  0  0  0  0  0  0
   46.0243    5.6186    8.3692 H   0  0  0  0  0  0  0  0  0  0  0  0
   43.8682    1.6637   10.4550 H   0  0  0  0  0  0  0  0  0  0  0  0
   45.6682    3.5587    7.0446 H   0  0  0  0  0  0  0  0  0  0  0  0
   44.5902    1.5803    8.0837 H   0  0  0  0  0  0  0  0  0  0  0  0
  2  1  2  0
  3  1  1  0
  4  1  1  0
  5  3  1  0
  6  5  1  0
  7  2  1  0
  8  4  1  0
  9  6  2  0
 10  6  1  0
 11  9  1  0
 12 10  2  0
 13 12  1  0
 11 13  2  0
  3 14  1  0
  4 15  1  0
  5 16  1  0
  5 17  1  0
  7 18  1  0
  7 19  1  0
  7 20  1  0
  8 21  1  0
  8 22  1  0
  8 23  1  0
  9 24  1  0
 10 25  1  0
 11 26  1  0
 12 27  1  0
 13 28  1  0
M  END
> <Uni-Dock RESULT> 
ENERGY=   -3.797  LOWER_BOUND=    2.321  UPPER_BOUND=    3.749
INTER + INTRA:          -3.797
INTER:                  -3.797
INTRA:                   0.000
UNBOUND:                 0.000

$$$$

     RDKit          3D

 28 28  0  0  0  0  0  0  0  0999 V2000
   47.4883    4.5230   16.0724 C   0  0  0  0  0  0  0  0  0  0  0  0
   48.4561    5.3281   15.8497 N   0  0  0  0  0  0  0  0  0  0  0  0
   46.5285    4.3156   15.1186 N   0  0  0  0  0  0  0  0  0  0  0  0
   47.1451    3.7477   17.1446 N   0  0  0  0  0  0  0  0  0  0  0  0
   46.5351    5.0855   13.8862 C   0  0  0  0  0  0  0  0  0  0  0  0
   45.3582    4.6675   13.0360 C   0  0  0  0  0  0  0  0  0  0  0  0
   49.4652    5.6257   16.8393 C   0  0  0  0  0  0  0  0  0  0  0  0
   48.0160    3.3788   18.2334 C   0  0  0  0  0  0  0  0  0  0  0  0
   44.2057    5.4635   12.9668 C   0  0  0  0  0  0  0  0  0  0  0  0
   45.3903    3.4559   12.3297 C   0  0  0  0  0  0  0  0  0  0  0  0
   43.1146    5.0620   12.1940 C   0  0  0  0  0  0  0  0  0  0  0  0
   44.2984    3.0564   11.5580 C   0  0  0  0  0  0  0  0  0  0  0  0
   43.1619    3.8602   11.4894 C   0  0  0  0  0  0  0  0  0  0  0  0
   45.5988    4.2618   15.5162 H   0  0  0  0  0  0  0  0  0  0  0  0
   46.5927    2.9548   16.8362 H   0  0  0  0  0  0  0  0  0  0  0  0
   46.4755    6.1587   14.1047 H   0  0  0  0  0  0  0  0  0  0  0  0
   47.4626    4.9156   13.3258 H   0  0  0  0  0  0  0  0  0  0  0  0
   49.0286    6.0240   17.7596 H   0  0  0  0  0  0  0  0  0  0  0  0
   50.0936    4.7572   17.0546 H   0  0  0  0  0  0  0  0  0  0  0  0
   50.1271    6.4041   16.4451 H   0  0  0  0  0  0  0  0  0  0  0  0
   47.5029    2.6574   18.8777 H   0  0  0  0  0  0  0  0  0  0  0  0
   48.9290    2.9020   17.8655 H   0  0  0  0  0  0  0  0  0  0  0  0
   48.2663    4.2401   18.8571 H   0  0  0  0  0  0  0  0  0  0  0  0
   44.1524    6.4026   13.5135 H   0  0  0  0  0  0  0  0  0  0  0  0
   46.2706    2.8183   12.3850 H   0  0  0  0  0  0  0  0  0  0  0  0
   42.2269    5.6871   12.1419 H   0  0  0  0  0  0  0  0  0  0  0  0
   44.3344    2.1172   11.0122 H   0  0  0  0  0  0  0  0  0  0  0  0
   42.3119    3.5490   10.8878 H   0  0  0  0  0  0  0  0  0  0  0  0
  2  1  2  0
  3  1  1  0
  4  1  1  0
  5  3  1  0
  6  5  1  0
  7  2  1  0
  8  4  1  0
  9  6  2  0
 10  6  1  0
 11  9  1  0
 12 10  2  0
 13 12  1  0
 11 13  2  0
  3 14  1  0
  4 15  1  0
  5 16  1  0
  5 17  1  0
  7 18  1  0
  7 19  1  0
  7 20  1  0
  8 21  1  0
  8 22  1  0
  8 23  1  0
  9 24  1  0
 10 25  1  0
 11 26  1  0
 12 27  1  0
 13 28  1  0
M  END
> <Uni-Dock RESULT> 
ENERGY=   -3.755  LOWER_BOUND=    4.418  UPPER_BOUND=    6.532
INTER + INTRA:          -3.755
INTER:                  -3.755
INTRA:                   0.000
UNBOUND:                 0.000

$$$$

     RDKit          3D

 28 28  0  0  0  0  0  0  0  0999 V2000
   45.5172    4.3357    9.1336 C   0  0  0  0  0  0  0  0  0  0  0  0
   44.8773    3.3718    9.6775 N   0  0  0  0  0  0  0  0  0  0  0  0
   45.6814    5.5197    9.8008 N   0  0  0  0  0  0  0  0  0  0  0  0
   46.1319    4.4837    7.9216 N   0  0  0  0  0  0  0  0  0  0  0  0
   45.0414    5.7361   11.0872 C   0  0  0  0  0  0  0  0  0  0  0  0
   45.3736    7.1262   11.5770 C   0  0  0  0  0  0  0  0  0  0  0  0
   44.6274    2.1216    8.9988 C   0  0  0  0  0  0  0  0  0  0  0  0
   46.5107    3.4147    7.0307 C   0  0  0  0  0  0  0  0  0  0  0  0
   44.4375    8.1653   11.4731 C   0  0  0  0  0  0  0  0  0  0  0  0
   46.6402    7.4040   12.1123 C   0  0  0  0  0  0  0  0  0  0  0  0
   44.7579    9.4517   11.9105 C   0  0  0  0  0  0  0  0  0  0  0  0
   46.9584    8.6908   12.5486 C   0  0  0  0  0  0  0  0  0  0  0  0
   46.0167    9.7134   12.4490 C   0  0  0  0  0  0  0  0  0  0  0  0
   45.5691    6.3210    9.1922 H   0  0  0  0  0  0  0  0  0  0  0  0
   46.8674    5.1789    7.9888 H   0  0  0  0  0  0  0  0  0  0  0  0
   43.9541    5.6215   10.9982 H   0  0  0  0  0  0  0  0  0  0  0  0
   45.3895    5.0019   11.8240 H   0  0  0  0  0  0  0  0  0  0  0  0
   44.0867    2.2688    8.0595 H   0  0  0  0  0  0  0  0  0  0  0  0
   45.5490    1.5583    8.8294 H   0  0  0  0  0  0  0  0  0  0  0  0
   43.9883    1.4977    9.6326 H   0  0  0  0  0  0  0  0  0  0  0  0
   47.0898    3.8269    6.1979 H   0  0  0  0  0  0  0  0  0  0  0  0
   47.1411    2.6800    7.5398 H   0  0  0  0  0  0  0  0  0  0  0  0
   45.6360    2.9242    6.5972 H   0  0  0  0  0  0  0  0  0  0  0  0
   43.4520    7.9775   11.0523 H   0  0  0  0  0  0  0  0  0  0  0  0
   47.3842    6.6130   12.1855 H   0  0  0  0  0  0  0  0  0  0  0  0
   44.0250   10.2505   11.8309 H   0  0  0  0  0  0  0  0  0  0  0  0
   47.9415    8.8949   12.9646 H   0  0  0  0  0  0  0  0  0  0  0  0
   46.2647   10.7153   12.7895 H   0  0  0  0  0  0  0  0  0  0  0  0
  2  1  2  0
  3  1  1  0
  4  1  1  0
  5  3  1  0
  6  5  1  0
  7  2  1  0
  8  4  1  0
  9  6  2  0
 10  6  1  0
 11  9  1  0
 12 10  2  0
 13 12  1  0
 11 13  2  0
  3 14  1  0
  4 15  1  0
  5 16  1  0
  5 17  1  0
  7 18  1  0
  7 19  1  0
  7 20  1  0
  8 21  1  0
  8 22  1  0
  8 23  1  0
  9 24  1  0
 10 25  1  0
 11 26  1  0
 12 27  1  0
 13 28  1  0
M  END
> <Uni-Dock RESULT> 
ENERGY=   -3.723  LOWER_BOUND=    1.816  UPPER_BOUND=    6.224
INTER + INTRA:          -3.723
INTER:                  -3.723
INTRA:                   0.000
UNBOUND:                 0.000

$$$$

     RDKit          3D

 28 28  0  0  0  0  0  0  0  0999 V2000
   44.7695    4.3753   12.8446 C   0  0  0  0  0  0  0  0  0  0  0  0
   45.1703    3.5460   11.9580 N   0  0  0  0  0  0  0  0  0  0  0  0
   45.5425    4.6399   13.9429 N   0  0  0  0  0  0  0  0  0  0  0  0
   43.6378    5.1309   12.9742 N   0  0  0  0  0  0  0  0  0  0  0  0
   46.7750    3.9049   14.1716 C   0  0  0  0  0  0  0  0  0  0  0  0
   47.4046    4.3840   15.4587 C   0  0  0  0  0  0  0  0  0  0  0  0
   44.3723    3.1887   10.8083 C   0  0  0  0  0  0  0  0  0  0  0  0
   42.7040    5.4411   11.9198 C   0  0  0  0  0  0  0  0  0  0  0  0
   47.2956    3.6277   16.6346 C   0  0  0  0  0  0  0  0  0  0  0  0
   48.0792    5.6133   15.5018 C   0  0  0  0  0  0  0  0  0  0  0  0
   47.8638    4.0854   17.8248 C   0  0  0  0  0  0  0  0  0  0  0  0
   48.6462    6.0690   16.6927 C   0  0  0  0  0  0  0  0  0  0  0  0
   48.5396    5.3043   17.8530 C   0  0  0  0  0  0  0  0  0  0  0  0
   44.9924    4.7123   14.7899 H   0  0  0  0  0  0  0  0  0  0  0  0
   43.8307    5.9494   13.5414 H   0  0  0  0  0  0  0  0  0  0  0  0
   46.5734    2.8285   14.2326 H   0  0  0  0  0  0  0  0  0  0  0  0
   47.4802    4.0605   13.3460 H   0  0  0  0  0  0  0  0  0  0  0  0
   43.4005    2.7790   11.0981 H   0  0  0  0  0  0  0  0  0  0  0  0
   44.2471    4.0301   10.1214 H   0  0  0  0  0  0  0  0  0  0  0  0
   44.8898    2.4007   10.2508 H   0  0  0  0  0  0  0  0  0  0  0  0
   41.9664    6.1602   12.2907 H   0  0  0  0  0  0  0  0  0  0  0  0
   43.2103    5.8985   11.0649 H   0  0  0  0  0  0  0  0  0  0  0  0
   42.1508    4.5551   11.5997 H   0  0  0  0  0  0  0  0  0  0  0  0
   46.7687    2.6759   16.6293 H   0  0  0  0  0  0  0  0  0  0  0  0
   48.1594    6.2205   14.6022 H   0  0  0  0  0  0  0  0  0  0  0  0
   47.7790    3.4908   18.7308 H   0  0  0  0  0  0  0  0  0  0  0  0
   49.1694    7.0214   16.7149 H   0  0  0  0  0  0  0  0  0  0  0  0
   48.9818    5.6593   18.7801 H   0  0  0  0  0  0  0  0  0  0  0  0
  2  1  2  0
  3  1  1  0
  4  1  1  0
  5  3  1  0
  6  5  1  0
  7  2  1  0
  8  4  1  0
  9  6  2  0
 10  6  1  0
 11  9  1  0
 12 10  2  0
 13 12  1  0
 11 13  2  0
  3 14  1  0
  4 15  1  0
  5 16  1  0
  5 17  1  0
  7 18  1  0
  7 19  1  0
  7 20  1  0
  8 21  1  0
  8 22  1  0
  8 23  1  0
  9 24  1  0
 10 25  1  0
 11 26  1  0
 12 27  1  0
 13 28  1  0
M  END
> <Uni-Dock RESULT> 
ENERGY=   -3.702  LOWER_BOUND=    4.096  UPPER_BOUND=    7.270
INTER + INTRA:          -3.702
INTER:                  -3.702
INTRA:                   0.000
UNBOUND:                 0.000

$$$$

     RDKit          3D

 28 28  0  0  0  0  0  0  0  0999 V2000
   46.1477    2.8042    7.7909 C   0  0  0  0  0  0  0  0  0  0  0  0
   46.3495    1.6305    8.2561 N   0  0  0  0  0  0  0  0  0  0  0  0
   45.6519    3.7918    8.5987 N   0  0  0  0  0  0  0  0  0  0  0  0
   46.3195    3.3622    6.5549 N   0  0  0  0  0  0  0  0  0  0  0  0
   45.2470    3.4953    9.9624 C   0  0  0  0  0  0  0  0  0  0  0  0
   44.7214    4.7564   10.6073 C   0  0  0  0  0  0  0  0  0  0  0  0
   46.8190    0.5379    7.4365 C   0  0  0  0  0  0  0  0  0  0  0  0
   47.1214    2.8181    5.4867 C   0  0  0  0  0  0  0  0  0  0  0  0
   43.3422    4.9670   10.7499 C   0  0  0  0  0  0  0  0  0  0  0  0
   45.6090    5.7520   11.0418 C   0  0  0  0  0  0  0  0  0  0  0  0
   42.8629    6.1430   11.3298 C   0  0  0  0  0  0  0  0  0  0  0  0
   45.1277    6.9269   11.6209 C   0  0  0  0  0  0  0  0  0  0  0  0
   43.7552    7.1211   11.7660 C   0  0  0  0  0  0  0  0  0  0  0  0
   44.9645    4.3649    8.1250 H   0  0  0  0  0  0  0  0  0  0  0  0
   46.4620    4.3626    6.6432 H   0  0  0  0  0  0  0  0  0  0  0  0
   44.4712    2.7199    9.9716 H   0  0  0  0  0  0  0  0  0  0  0  0
   46.0949    3.1182   10.5472 H   0  0  0  0  0  0  0  0  0  0  0  0
   46.1539    0.3490    6.5890 H   0  0  0  0  0  0  0  0  0  0  0  0
   47.8451    0.6969    7.0939 H   0  0  0  0  0  0  0  0  0  0  0  0
   46.8256   -0.3770    8.0384 H   0  0  0  0  0  0  0  0  0  0  0  0
   47.1666    3.5405    4.6652 H   0  0  0  0  0  0  0  0  0  0  0  0
   48.1467    2.6300    5.8180 H   0  0  0  0  0  0  0  0  0  0  0  0
   46.6830    1.9031    5.0814 H   0  0  0  0  0  0  0  0  0  0  0  0
   42.6332    4.2145   10.4115 H   0  0  0  0  0  0  0  0  0  0  0  0
   46.6819    5.6119   10.9242 H   0  0  0  0  0  0  0  0  0  0  0  0
   41.7926    6.2965   11.4411 H   0  0  0  0  0  0  0  0  0  0  0  0
   45.8239    7.6908   11.9570 H   0  0  0  0  0  0  0  0  0  0  0  0
   43.3808    8.0360   12.2176 H   0  0  0  0  0  0  0  0  0  0  0  0
  2  1  2  0
  3  1  1  0
  4  1  1  0
  5  3  1  0
  6  5  1  0
  7  2  1  0
  8  4  1  0
  9  6  2  0
 10  6  1  0
 11  9  1  0
 12 10  2  0
 13 12  1  0
 11 13  2  0
  3 14  1  0
  4 15  1  0
  5 16  1  0
  5 17  1  0
  7 18  1  0
  7 19  1  0
  7 20  1  0
  8 21  1  0
  8 22  1  0
  8 23  1  0
  9 24  1  0
 10 25  1  0
 11 26  1  0
 12 27  1  0
 13 28  1  0
M  END
> <Uni-Dock RESULT> 
ENERGY=   -3.614  LOWER_BOUND=    1.689  UPPER_BOUND=    5.901
INTER + INTRA:          -3.614
INTER:                  -3.614
INTRA:                   0.000
UNBOUND:                 0.000

$$$$

     RDKit          3D

 28 28  0  0  0  0  0  0  0  0999 V2000
   43.5941    9.1445   11.1119 C   0  0  0  0  0  0  0  0  0  0  0  0
   44.6472    9.7740   11.4714 N   0  0  0  0  0  0  0  0  0  0  0  0
   43.5817    7.7759   11.0871 N   0  0  0  0  0  0  0  0  0  0  0  0
   42.3565    9.5523   10.6988 N   0  0  0  0  0  0  0  0  0  0  0  0
   44.7930    7.0224   11.3633 C   0  0  0  0  0  0  0  0  0  0  0  0
   44.4948    5.5461   11.2443 C   0  0  0  0  0  0  0  0  0  0  0  0
   44.7336   11.2157   11.4641 C   0  0  0  0  0  0  0  0  0  0  0  0
   41.7950   10.8677   10.8847 C   0  0  0  0  0  0  0  0  0  0  0  0
   44.8781    4.8275   10.1026 C   0  0  0  0  0  0  0  0  0  0  0  0
   43.7972    4.8806   12.2633 C   0  0  0  0  0  0  0  0  0  0  0  0
   44.5827    3.4676    9.9910 C   0  0  0  0  0  0  0  0  0  0  0  0
   43.5027    3.5213   12.1495 C   0  0  0  0  0  0  0  0  0  0  0  0
   43.8969    2.8152   11.0143 C   0  0  0  0  0  0  0  0  0  0  0  0
   43.0964    7.4120   10.2763 H   0  0  0  0  0  0  0  0  0  0  0  0
   41.6702    8.8325   10.8979 H   0  0  0  0  0  0  0  0  0  0  0  0
   45.5865    7.3010   10.6590 H   0  0  0  0  0  0  0  0  0  0  0  0
   45.1620    7.2349   12.3742 H   0  0  0  0  0  0  0  0  0  0  0  0
   44.5326   11.6310   10.4724 H   0  0  0  0  0  0  0  0  0  0  0  0
   44.0764   11.6673   12.2122 H   0  0  0  0  0  0  0  0  0  0  0  0
   45.7561   11.5091   11.7242 H   0  0  0  0  0  0  0  0  0  0  0  0
   40.7492   10.8629   10.5606 H   0  0  0  0  0  0  0  0  0  0  0  0
   41.8128   11.1601   11.9385 H   0  0  0  0  0  0  0  0  0  0  0  0
   42.3123   11.6146   10.2781 H   0  0  0  0  0  0  0  0  0  0  0  0
   45.4111    5.3232    9.2941 H   0  0  0  0  0  0  0  0  0  0  0  0
   43.4782    5.4267   13.1490 H   0  0  0  0  0  0  0  0  0  0  0  0
   44.8875    2.9167    9.1049 H   0  0  0  0  0  0  0  0  0  0  0  0
   42.9644    3.0143   12.9460 H   0  0  0  0  0  0  0  0  0  0  0  0
   43.6679    1.7565   10.9264 H   0  0  0  0  0  0  0  0  0  0  0  0
  2  1  2  0
  3  1  1  0
  4  1  1  0
  5  3  1  0
  6  5  1  0
  7  2  1  0
  8  4  1  0
  9  6  2  0
 10  6  1  0
 11  9  1  0
 12 10  2  0
 13 12  1  0
 11 13  2  0
  3 14  1  0
  4 15  1  0
  5 16  1  0
  5 17  1  0
  7 18  1  0
  7 19  1  0
  7 20  1  0
  8 21  1  0
  8 22  1  0
  8 23  1  0
  9 24  1  0
 10 25  1  0
 11 26  1  0
 12 27  1  0
 13 28  1  0
M  END
> <Uni-Dock RESULT> 
ENERGY=   -3.595  LOWER_BOUND=    3.164  UPPER_BOUND=    5.122
INTER + INTRA:          -3.595
INTER:                  -3.595
INTRA:                   0.000
UNBOUND:                 0.000

$$$$
