
     RDKit          3D

 28 28  0  0  0  0  0  0  0  0999 V2000
   44.5922    5.1346   10.7922 C   0  0  0  0  0  0  0  0  0  0  0  0
   43.3153    5.1437   10.7284 N   0  0  0  0  0  0  0  0  0  0  0  0
   45.3255    4.4455    9.8642 N   0  0  0  0  0  0  0  0  0  0  0  0
   45.4891    5.6990   11.6556 N   0  0  0  0  0  0  0  0  0  0  0  0
   44.6642    3.6286    8.8606 C   0  0  0  0  0  0  0  0  0  0  0  0
   45.7102    2.9707    7.9913 C   0  0  0  0  0  0  0  0  0  0  0  0
   42.4911    5.8081   11.7110 C   0  0  0  0  0  0  0  0  0  0  0  0
   45.2132    6.7739   12.5767 C   0  0  0  0  0  0  0  0  0  0  0  0
   46.0508    1.6229    8.1760 C   0  0  0  0  0  0  0  0  0  0  0  0
   46.3813    3.7122    7.0075 C   0  0  0  0  0  0  0  0  0  0  0  0
   47.0317    1.0263    7.3816 C   0  0  0  0  0  0  0  0  0  0  0  0
   47.3616    3.1138    6.2147 C   0  0  0  0  0  0  0  0  0  0  0  0
   47.6851    1.7712    6.4011 C   0  0  0  0  0  0  0  0  0  0  0  0
   46.1090    3.9578   10.2806 H   0  0  0  0  0  0  0  0  0  0  0  0
   46.3784    5.8398   11.1884 H   0  0  0  0  0  0  0  0  0  0  0  0
   44.0065    4.2409    8.2316 H   0  0  0  0  0  0  0  0  0  0  0  0
   44.0413    2.8632    9.3394 H   0  0  0  0  0  0  0  0  0  0  0  0
   41.4394    5.5979   11.4894 H   0  0  0  0  0  0  0  0  0  0  0  0
   42.6096    6.8944   11.6752 H   0  0  0  0  0  0  0  0  0  0  0  0
   42.6782    5.4324   12.7210 H   0  0  0  0  0  0  0  0  0  0  0  0
   46.1483    7.0951   13.0473 H   0  0  0  0  0  0  0  0  0  0  0  0
   44.7898    7.6396   12.0590 H   0  0  0  0  0  0  0  0  0  0  0  0
   44.5467    6.4531   13.3806 H   0  0  0  0  0  0  0  0  0  0  0  0
   45.5521    1.0292    8.9392 H   0  0  0  0  0  0  0  0  0  0  0  0
   46.1407    4.7635    6.8615 H   0  0  0  0  0  0  0  0  0  0  0  0
   47.2864   -0.0202    7.5280 H   0  0  0  0  0  0  0  0  0  0  0  0
   47.8735    3.6963    5.4533 H   0  0  0  0  0  0  0  0  0  0  0  0
   48.4482    1.3054    5.7831 H   0  0  0  0  0  0  0  0  0  0  0  0
  2  1  2  0
  3  1  1  0
  4  1  1  0
  5  3  1  0
  6  5  1  0
  7  2  1  0
  8  4  1  0
  9  6  2  0
 10  6  1  0
 11  9  1  0
 12 10  2  0
 13 12  1  0
 11 13  2  0
  3 14  1  0
  4 15  1  0
  5 16  1  0
  5 17  1  0
  7 18  1  0
  7 19  1  0
  7 20  1  0
  8 21  1  0
  8 22  1  0
  8 23  1  0
  9 24  1  0
 10 25  1  0
 11 26  1  0
 12 27  1  0
 13 28  1  0
M  END
> <Uni-Dock RESULT> 
ENERGY=   -6.569  LOWER_BOUND=    0.000  UPPER_BOUND=    0.000
INTER + INTRA:          -6.569
INTER:                  -6.569
INTRA:                   0.000
UNBOUND:                 0.000

$$$$

     RDKit          3D

 28 28  0  0  0  0  0  0  0  0999 V2000
   47.4887    4.5233   16.0727 C   0  0  0  0  0  0  0  0  0  0  0  0
   48.4568    5.3282   15.8501 N   0  0  0  0  0  0  0  0  0  0  0  0
   46.5289    4.3164   15.1189 N   0  0  0  0  0  0  0  0  0  0  0  0
   47.1453    3.7480   17.1448 N   0  0  0  0  0  0  0  0  0  0  0  0
   46.5358    5.0864   13.8866 C   0  0  0  0  0  0  0  0  0  0  0  0
   45.3588    4.6690   13.0363 C   0  0  0  0  0  0  0  0  0  0  0  0
   49.4660    5.6253   16.8397 C   0  0  0  0  0  0  0  0  0  0  0  0
   48.0160    3.3788   18.2336 C   0  0  0  0  0  0  0  0  0  0  0  0
   44.2066    5.4653   12.9672 C   0  0  0  0  0  0  0  0  0  0  0  0
   45.3904    3.4573   12.3298 C   0  0  0  0  0  0  0  0  0  0  0  0
   43.1152    5.0642   12.1944 C   0  0  0  0  0  0  0  0  0  0  0  0
   44.2983    3.0584   11.5581 C   0  0  0  0  0  0  0  0  0  0  0  0
   43.1622    3.8625   11.4895 C   0  0  0  0  0  0  0  0  0  0  0  0
   45.5992    4.2629   15.5165 H   0  0  0  0  0  0  0  0  0  0  0  0
   46.5926    2.9553   16.8364 H   0  0  0  0  0  0  0  0  0  0  0  0
   47.4632    4.9163   13.3262 H   0  0  0  0  0  0  0  0  0  0  0  0
   46.4766    6.1597   14.1052 H   0  0  0  0  0  0  0  0  0  0  0  0
   50.1281    6.4036   16.4457 H   0  0  0  0  0  0  0  0  0  0  0  0
   50.0941    4.7567   17.0549 H   0  0  0  0  0  0  0  0  0  0  0  0
   49.0295    6.0236   17.7601 H   0  0  0  0  0  0  0  0  0  0  0  0
   47.5026    2.6574   18.8778 H   0  0  0  0  0  0  0  0  0  0  0  0
   48.9289    2.9016   17.8656 H   0  0  0  0  0  0  0  0  0  0  0  0
   48.2666    4.2399   18.8574 H   0  0  0  0  0  0  0  0  0  0  0  0
   44.1534    6.4043   13.5140 H   0  0  0  0  0  0  0  0  0  0  0  0
   46.2705    2.8195   12.3851 H   0  0  0  0  0  0  0  0  0  0  0  0
   42.2278    5.6896   12.1423 H   0  0  0  0  0  0  0  0  0  0  0  0
   44.3341    2.1192   11.0122 H   0  0  0  0  0  0  0  0  0  0  0  0
   42.3121    3.5517   10.8880 H   0  0  0  0  0  0  0  0  0  0  0  0
  2  1  2  0
  3  1  1  0
  4  1  1  0
  5  3  1  0
  6  5  1  0
  7  2  1  0
  8  4  1  0
  9  6  2  0
 10  6  1  0
 11  9  1  0
 12 10  2  0
 13 12  1  0
 11 13  2  0
  3 14  1  0
  4 15  1  0
  5 16  1  0
  5 17  1  0
  7 18  1  0
  7 19  1  0
  7 20  1  0
  8 21  1  0
  8 22  1  0
  8 23  1  0
  9 24  1  0
 10 25  1  0
 11 26  1  0
 12 27  1  0
 13 28  1  0
M  END
> <Uni-Dock RESULT> 
ENERGY=   -3.753  LOWER_BOUND=    4.418  UPPER_BOUND=    6.533
INTER + INTRA:          -3.753
INTER:                  -3.753
INTRA:                   0.000
UNBOUND:                 0.000

$$$$

     RDKit          3D

 28 28  0  0  0  0  0  0  0  0999 V2000
   45.5109    4.3323    9.1351 C   0  0  0  0  0  0  0  0  0  0  0  0
   44.8686    3.3693    9.6780 N   0  0  0  0  0  0  0  0  0  0  0  0
   45.6763    5.5157    9.8029 N   0  0  0  0  0  0  0  0  0  0  0  0
   46.1274    4.4795    7.9241 N   0  0  0  0  0  0  0  0  0  0  0  0
   45.0349    5.7328   11.0886 C   0  0  0  0  0  0  0  0  0  0  0  0
   45.3689    7.1222   11.5793 C   0  0  0  0  0  0  0  0  0  0  0  0
   44.6175    2.1197    8.9985 C   0  0  0  0  0  0  0  0  0  0  0  0
   46.5054    3.4102    7.0332 C   0  0  0  0  0  0  0  0  0  0  0  0
   44.4348    8.1628   11.4745 C   0  0  0  0  0  0  0  0  0  0  0  0
   46.6354    7.3978   12.1161 C   0  0  0  0  0  0  0  0  0  0  0  0
   44.7568    9.4487   11.9126 C   0  0  0  0  0  0  0  0  0  0  0  0
   46.9551    8.6839   12.5533 C   0  0  0  0  0  0  0  0  0  0  0  0
   46.0154    9.7081   12.4528 C   0  0  0  0  0  0  0  0  0  0  0  0
   45.5660    6.3174    9.1944 H   0  0  0  0  0  0  0  0  0  0  0  0
   46.8640    5.1735    7.9922 H   0  0  0  0  0  0  0  0  0  0  0  0
   45.3810    4.9978   11.8256 H   0  0  0  0  0  0  0  0  0  0  0  0
   43.9476    5.6201   10.9982 H   0  0  0  0  0  0  0  0  0  0  0  0
   43.9766    1.4967    9.6313 H   0  0  0  0  0  0  0  0  0  0  0  0
   45.5385    1.5549    8.8302 H   0  0  0  0  0  0  0  0  0  0  0  0
   44.0783    2.2680    8.0586 H   0  0  0  0  0  0  0  0  0  0  0  0
   47.0864    3.8217    6.2013 H   0  0  0  0  0  0  0  0  0  0  0  0
   47.1341    2.6743    7.5429 H   0  0  0  0  0  0  0  0  0  0  0  0
   45.6305    2.9212    6.5985 H   0  0  0  0  0  0  0  0  0  0  0  0
   43.4495    7.9770   11.0523 H   0  0  0  0  0  0  0  0  0  0  0  0
   47.3779    6.6055   12.1901 H   0  0  0  0  0  0  0  0  0  0  0  0
   44.0253   10.2487   11.8323 H   0  0  0  0  0  0  0  0  0  0  0  0
   47.9381    8.8863   12.9705 H   0  0  0  0  0  0  0  0  0  0  0  0
   46.2646   10.7094   12.7939 H   0  0  0  0  0  0  0  0  0  0  0  0
  2  1  2  0
  3  1  1  0
  4  1  1  0
  5  3  1  0
  6  5  1  0
  7  2  1  0
  8  4  1  0
  9  6  2  0
 10  6  1  0
 11  9  1  0
 12 10  2  0
 13 12  1  0
 11 13  2  0
  3 14  1  0
  4 15  1  0
  5 16  1  0
  5 17  1  0
  7 18  1  0
  7 19  1  0
  7 20  1  0
  8 21  1  0
  8 22  1  0
  8 23  1  0
  9 24  1  0
 10 25  1  0
 11 26  1  0
 12 27  1  0
 13 28  1  0
M  END
> <Uni-Dock RESULT> 
ENERGY=   -3.726  LOWER_BOUND=    1.812  UPPER_BOUND=    6.223
INTER + INTRA:          -3.726
INTER:                  -3.726
INTRA:                   0.000
UNBOUND:                 0.000

$$$$

     RDKit          3D

 28 28  0  0  0  0  0  0  0  0999 V2000
   46.1478    2.8041    7.7909 C   0  0  0  0  0  0  0  0  0  0  0  0
   46.3494    1.6304    8.2561 N   0  0  0  0  0  0  0  0  0  0  0  0
   45.6519    3.7918    8.5987 N   0  0  0  0  0  0  0  0  0  0  0  0
   46.3197    3.3621    6.5550 N   0  0  0  0  0  0  0  0  0  0  0  0
   45.2470    3.4951    9.9624 C   0  0  0  0  0  0  0  0  0  0  0  0
   44.7214    4.7563   10.6073 C   0  0  0  0  0  0  0  0  0  0  0  0
   46.8190    0.5378    7.4365 C   0  0  0  0  0  0  0  0  0  0  0  0
   47.1215    2.8180    5.4868 C   0  0  0  0  0  0  0  0  0  0  0  0
   43.3423    4.9670   10.7499 C   0  0  0  0  0  0  0  0  0  0  0  0
   45.6091    5.7519   11.0419 C   0  0  0  0  0  0  0  0  0  0  0  0
   42.8630    6.1431   11.3297 C   0  0  0  0  0  0  0  0  0  0  0  0
   45.1278    6.9268   11.6210 C   0  0  0  0  0  0  0  0  0  0  0  0
   43.7554    7.1210   11.7660 C   0  0  0  0  0  0  0  0  0  0  0  0
   44.9646    4.3648    8.1250 H   0  0  0  0  0  0  0  0  0  0  0  0
   46.4622    4.3625    6.6432 H   0  0  0  0  0  0  0  0  0  0  0  0
   46.0949    3.1181   10.5472 H   0  0  0  0  0  0  0  0  0  0  0  0
   44.4712    2.7198    9.9716 H   0  0  0  0  0  0  0  0  0  0  0  0
   46.8255   -0.3771    8.0383 H   0  0  0  0  0  0  0  0  0  0  0  0
   47.8451    0.6968    7.0940 H   0  0  0  0  0  0  0  0  0  0  0  0
   46.1539    0.3490    6.5890 H   0  0  0  0  0  0  0  0  0  0  0  0
   47.1668    3.5405    4.6653 H   0  0  0  0  0  0  0  0  0  0  0  0
   48.1468    2.6300    5.8181 H   0  0  0  0  0  0  0  0  0  0  0  0
   46.6831    1.9031    5.0814 H   0  0  0  0  0  0  0  0  0  0  0  0
   42.6332    4.2146   10.4115 H   0  0  0  0  0  0  0  0  0  0  0  0
   46.6820    5.6117   10.9243 H   0  0  0  0  0  0  0  0  0  0  0  0
   41.7928    6.2965   11.4409 H   0  0  0  0  0  0  0  0  0  0  0  0
   45.8241    7.6906   11.9571 H   0  0  0  0  0  0  0  0  0  0  0  0
   43.3810    8.0359   12.2176 H   0  0  0  0  0  0  0  0  0  0  0  0
  2  1  2  0
  3  1  1  0
  4  1  1  0
  5  3  1  0
  6  5  1  0
  7  2  1  0
  8  4  1  0
  9  6  2  0
 10  6  1  0
 11  9  1  0
 12 10  2  0
 13 12  1  0
 11 13  2  0
  3 14  1  0
  4 15  1  0
  5 16  1  0
  5 17  1  0
  7 18  1  0
  7 19  1  0
  7 20  1  0
  8 21  1  0
  8 22  1  0
  8 23  1  0
  9 24  1  0
 10 25  1  0
 11 26  1  0
 12 27  1  0
 13 28  1  0
M  END
> <Uni-Dock RESULT> 
ENERGY=   -3.615  LOWER_BOUND=    1.689  UPPER_BOUND=    5.901
INTER + INTRA:          -3.615
INTER:                  -3.615
INTRA:                   0.000
UNBOUND:                 0.000

$$$$

     RDKit          3D

 28 28  0  0  0  0  0  0  0  0999 V2000
   43.5711    9.1244   11.1223 C   0  0  0  0  0  0  0  0  0  0  0  0
   44.6211    9.7555   11.4882 N   0  0  0  0  0  0  0  0  0  0  0  0
   43.5649    7.7560   11.0858 N   0  0  0  0  0  0  0  0  0  0  0  0
   42.3321    9.5301   10.7116 N   0  0  0  0  0  0  0  0  0  0  0  0
   44.7795    7.0056   11.3567 C   0  0  0  0  0  0  0  0  0  0  0  0
   44.4880    5.5291   11.2248 C   0  0  0  0  0  0  0  0  0  0  0  0
   44.7009   11.1976   11.4933 C   0  0  0  0  0  0  0  0  0  0  0  0
   41.7645   10.8413   10.9082 C   0  0  0  0  0  0  0  0  0  0  0  0
   44.8755    4.8220   10.0774 C   0  0  0  0  0  0  0  0  0  0  0  0
   43.7924    4.8517   12.2374 C   0  0  0  0  0  0  0  0  0  0  0  0
   44.5863    3.4618    9.9539 C   0  0  0  0  0  0  0  0  0  0  0  0
   43.5043    3.4921   12.1117 C   0  0  0  0  0  0  0  0  0  0  0  0
   43.9026    2.7976   10.9711 C   0  0  0  0  0  0  0  0  0  0  0  0
   43.0820    7.3969   10.2715 H   0  0  0  0  0  0  0  0  0  0  0  0
   41.6487    8.8055   10.9039 H   0  0  0  0  0  0  0  0  0  0  0  0
   45.1465    7.2111   12.3697 H   0  0  0  0  0  0  0  0  0  0  0  0
   45.5723    7.2939   10.6556 H   0  0  0  0  0  0  0  0  0  0  0  0
   45.7219   11.4934   11.7568 H   0  0  0  0  0  0  0  0  0  0  0  0
   44.0410   11.6398   12.2446 H   0  0  0  0  0  0  0  0  0  0  0  0
   44.4989   11.6205   10.5050 H   0  0  0  0  0  0  0  0  0  0  0  0
   40.7189   10.8345   10.5831 H   0  0  0  0  0  0  0  0  0  0  0  0
   41.7800   11.1247   11.9646 H   0  0  0  0  0  0  0  0  0  0  0  0
   42.2788   11.5958   10.3085 H   0  0  0  0  0  0  0  0  0  0  0  0
   45.4070    5.3269    9.2736 H   0  0  0  0  0  0  0  0  0  0  0  0
   43.4702    5.3888   13.1275 H   0  0  0  0  0  0  0  0  0  0  0  0
   44.8944    2.9199    9.0635 H   0  0  0  0  0  0  0  0  0  0  0  0
   42.9675    2.9759   12.9034 H   0  0  0  0  0  0  0  0  0  0  0  0
   43.6785    1.7386   10.8738 H   0  0  0  0  0  0  0  0  0  0  0  0
  2  1  2  0
  3  1  1  0
  4  1  1  0
  5  3  1  0
  6  5  1  0
  7  2  1  0
  8  4  1  0
  9  6  2  0
 10  6  1  0
 11  9  1  0
 12 10  2  0
 13 12  1  0
 11 13  2  0
  3 14  1  0
  4 15  1  0
  5 16  1  0
  5 17  1  0
  7 18  1  0
  7 19  1  0
  7 20  1  0
  8 21  1  0
  8 22  1  0
  8 23  1  0
  9 24  1  0
 10 25  1  0
 11 26  1  0
 12 27  1  0
 13 28  1  0
M  END
> <Uni-Dock RESULT> 
ENERGY=   -3.590  LOWER_BOUND=    3.143  UPPER_BOUND=    5.101
INTER + INTRA:          -3.590
INTER:                  -3.590
INTRA:                   0.000
UNBOUND:                 0.000

$$$$
