
     RDKit          3D

 28 28  0  0  0  0  0  0  0  0999 V2000
   44.6049    4.7510   10.8832 C   0  0  0  0  0  0  0  0  0  0  0  0
   43.3663    4.9970   10.6836 N   0  0  0  0  0  0  0  0  0  0  0  0
   45.3342    4.0714    9.9449 N   0  0  0  0  0  0  0  0  0  0  0  0
   45.4618    5.0391   11.9083 N   0  0  0  0  0  0  0  0  0  0  0  0
   44.7422    3.7156    8.6666 C   0  0  0  0  0  0  0  0  0  0  0  0
   45.7734    2.9986    7.8268 C   0  0  0  0  0  0  0  0  0  0  0  0
   42.5633    5.7565   11.6135 C   0  0  0  0  0  0  0  0  0  0  0  0
   45.0808    5.4347   13.2418 C   0  0  0  0  0  0  0  0  0  0  0  0
   46.0999    1.6612    8.0964 C   0  0  0  0  0  0  0  0  0  0  0  0
   46.4433    3.6655    6.7909 C   0  0  0  0  0  0  0  0  0  0  0  0
   47.0653    1.0002    7.3358 C   0  0  0  0  0  0  0  0  0  0  0  0
   47.4086    3.0022    6.0311 C   0  0  0  0  0  0  0  0  0  0  0  0
   47.7179    1.6704    6.3027 C   0  0  0  0  0  0  0  0  0  0  0  0
   46.2627    4.4580    9.8280 H   0  0  0  0  0  0  0  0  0  0  0  0
   46.2147    4.3597   11.9319 H   0  0  0  0  0  0  0  0  0  0  0  0
   44.3932    4.6139    8.1428 H   0  0  0  0  0  0  0  0  0  0  0  0
   43.8742    3.0601    8.8081 H   0  0  0  0  0  0  0  0  0  0  0  0
   42.9798    6.7518   11.7932 H   0  0  0  0  0  0  0  0  0  0  0  0
   42.4177    5.2230   12.5567 H   0  0  0  0  0  0  0  0  0  0  0  0
   41.5693    5.9075   11.1797 H   0  0  0  0  0  0  0  0  0  0  0  0
   44.6337    6.4315   13.2527 H   0  0  0  0  0  0  0  0  0  0  0  0
   44.3951    4.7093   13.6889 H   0  0  0  0  0  0  0  0  0  0  0  0
   45.9734    5.4792   13.8743 H   0  0  0  0  0  0  0  0  0  0  0  0
   45.6011    1.1333    8.9070 H   0  0  0  0  0  0  0  0  0  0  0  0
   46.2154    4.7058    6.5688 H   0  0  0  0  0  0  0  0  0  0  0  0
   47.3089   -0.0369    7.5509 H   0  0  0  0  0  0  0  0  0  0  0  0
   47.9199    3.5250    5.2268 H   0  0  0  0  0  0  0  0  0  0  0  0
   48.4692    1.1551    5.7101 H   0  0  0  0  0  0  0  0  0  0  0  0
  2  1  2  0
  3  1  1  0
  4  1  1  0
  5  3  1  0
  6  5  1  0
  7  2  1  0
  8  4  1  0
  9  6  2  0
 10  6  1  0
 11  9  1  0
 12 10  2  0
 13 12  1  0
 11 13  2  0
  3 14  1  0
  4 15  1  0
  5 16  1  0
  5 17  1  0
  7 18  1  0
  7 19  1  0
  7 20  1  0
  8 21  1  0
  8 22  1  0
  8 23  1  0
  9 24  1  0
 10 25  1  0
 11 26  1  0
 12 27  1  0
 13 28  1  0
M  END
> <Uni-Dock RESULT> 
ENERGY=   -6.291  LOWER_BOUND=    0.000  UPPER_BOUND=    0.000
INTER + INTRA:          -6.291
INTER:                  -6.291
INTRA:                   0.000
UNBOUND:                 0.000

$$$$

     RDKit          3D

 28 28  0  0  0  0  0  0  0  0999 V2000
   46.0843    2.6848    8.0041 C   0  0  0  0  0  0  0  0  0  0  0  0
   46.4330    3.4388    7.0323 N   0  0  0  0  0  0  0  0  0  0  0  0
   45.5299    3.2249    9.1332 N   0  0  0  0  0  0  0  0  0  0  0  0
   46.1312    1.3331    8.2019 N   0  0  0  0  0  0  0  0  0  0  0  0
   45.2307    4.6452    9.2009 C   0  0  0  0  0  0  0  0  0  0  0  0
   44.6093    4.9560   10.5426 C   0  0  0  0  0  0  0  0  0  0  0  0
   46.9718    2.9186    5.7972 C   0  0  0  0  0  0  0  0  0  0  0  0
   46.9288    0.3965    7.4494 C   0  0  0  0  0  0  0  0  0  0  0  0
   45.4084    5.0258   11.6934 C   0  0  0  0  0  0  0  0  0  0  0  0
   43.2251    5.1447   10.6646 C   0  0  0  0  0  0  0  0  0  0  0  0
   44.8367    5.2938   12.9379 C   0  0  0  0  0  0  0  0  0  0  0  0
   42.6553    5.4130   11.9105 C   0  0  0  0  0  0  0  0  0  0  0  0
   43.4609    5.4888   13.0456 C   0  0  0  0  0  0  0  0  0  0  0  0
   44.7620    2.6677    9.4868 H   0  0  0  0  0  0  0  0  0  0  0  0
   46.1716    1.1295    9.1948 H   0  0  0  0  0  0  0  0  0  0  0  0
   44.5427    4.9306    8.3957 H   0  0  0  0  0  0  0  0  0  0  0  0
   46.1432    5.2417    9.0798 H   0  0  0  0  0  0  0  0  0  0  0  0
   46.2868    2.2124    5.3193 H   0  0  0  0  0  0  0  0  0  0  0  0
   47.9559    2.4645    5.9411 H   0  0  0  0  0  0  0  0  0  0  0  0
   47.1065    3.7474    5.0944 H   0  0  0  0  0  0  0  0  0  0  0  0
   46.5689    0.2965    6.4227 H   0  0  0  0  0  0  0  0  0  0  0  0
   47.9841    0.6837    7.4524 H   0  0  0  0  0  0  0  0  0  0  0  0
   46.8544   -0.5937    7.9107 H   0  0  0  0  0  0  0  0  0  0  0  0
   46.4824    4.8660   11.6192 H   0  0  0  0  0  0  0  0  0  0  0  0
   42.5827    5.0855    9.7886 H   0  0  0  0  0  0  0  0  0  0  0  0
   45.4650    5.3486   13.8230 H   0  0  0  0  0  0  0  0  0  0  0  0
   41.5821    5.5627   11.9957 H   0  0  0  0  0  0  0  0  0  0  0  0
   43.0162    5.6983   14.0148 H   0  0  0  0  0  0  0  0  0  0  0  0
  2  1  2  0
  3  1  1  0
  4  1  1  0
  5  3  1  0
  6  5  1  0
  7  2  1  0
  8  4  1  0
  9  6  2  0
 10  6  1  0
 11  9  1  0
 12 10  2  0
 13 12  1  0
 11 13  2  0
  3 14  1  0
  4 15  1  0
  5 16  1  0
  5 17  1  0
  7 18  1  0
  7 19  1  0
  7 20  1  0
  8 21  1  0
  8 22  1  0
  8 23  1  0
  9 24  1  0
 10 25  1  0
 11 26  1  0
 12 27  1  0
 13 28  1  0
M  END
> <Uni-Dock RESULT> 
ENERGY=   -4.266  LOWER_BOUND=    1.550  UPPER_BOUND=    5.917
INTER + INTRA:          -4.266
INTER:                  -4.266
INTRA:                   0.000
UNBOUND:                 0.000

$$$$

     RDKit          3D

 28 28  0  0  0  0  0  0  0  0999 V2000
   47.3775    3.9741   16.0860 C   0  0  0  0  0  0  0  0  0  0  0  0
   48.1971    3.0498   15.7566 N   0  0  0  0  0  0  0  0  0  0  0  0
   46.5210    4.5013   15.1573 N   0  0  0  0  0  0  0  0  0  0  0  0
   47.1219    4.6212   17.2625 N   0  0  0  0  0  0  0  0  0  0  0  0
   46.4553    3.9463   13.8160 C   0  0  0  0  0  0  0  0  0  0  0  0
   45.4174    4.7016   13.0189 C   0  0  0  0  0  0  0  0  0  0  0  0
   49.0842    2.4203   16.7069 C   0  0  0  0  0  0  0  0  0  0  0  0
   47.9863    4.6483   18.4167 C   0  0  0  0  0  0  0  0  0  0  0  0
   45.7012    5.9822   12.5215 C   0  0  0  0  0  0  0  0  0  0  0  0
   44.1471    4.1519   12.7939 C   0  0  0  0  0  0  0  0  0  0  0  0
   44.7395    6.6916   11.8009 C   0  0  0  0  0  0  0  0  0  0  0  0
   43.1866    4.8633   12.0726 C   0  0  0  0  0  0  0  0  0  0  0  0
   43.4835    6.1313   11.5755 C   0  0  0  0  0  0  0  0  0  0  0  0
   45.5963    4.6620   15.5370 H   0  0  0  0  0  0  0  0  0  0  0  0
   46.7360    5.5405   17.0756 H   0  0  0  0  0  0  0  0  0  0  0  0
   46.1946    2.8816   13.8543 H   0  0  0  0  0  0  0  0  0  0  0  0
   47.4262    4.0286   13.3123 H   0  0  0  0  0  0  0  0  0  0  0  0
   48.5361    1.9697   17.5393 H   0  0  0  0  0  0  0  0  0  0  0  0
   49.8447    3.1138   17.0759 H   0  0  0  0  0  0  0  0  0  0  0  0
   49.6168    1.6053   16.2059 H   0  0  0  0  0  0  0  0  0  0  0  0
   48.0466    3.6687   18.8965 H   0  0  0  0  0  0  0  0  0  0  0  0
   48.9874    5.0009   18.1528 H   0  0  0  0  0  0  0  0  0  0  0  0
   47.5766    5.3415   19.1586 H   0  0  0  0  0  0  0  0  0  0  0  0
   46.6766    6.4305   12.7007 H   0  0  0  0  0  0  0  0  0  0  0  0
   43.8992    3.1647   13.1781 H   0  0  0  0  0  0  0  0  0  0  0  0
   44.9703    7.6820   11.4173 H   0  0  0  0  0  0  0  0  0  0  0  0
   42.2059    4.4280   11.8985 H   0  0  0  0  0  0  0  0  0  0  0  0
   42.7350    6.6838   11.0137 H   0  0  0  0  0  0  0  0  0  0  0  0
  2  1  2  0
  3  1  1  0
  4  1  1  0
  5  3  1  0
  6  5  1  0
  7  2  1  0
  8  4  1  0
  9  6  2  0
 10  6  1  0
 11  9  1  0
 12 10  2  0
 13 12  1  0
 11 13  2  0
  3 14  1  0
  4 15  1  0
  5 16  1  0
  5 17  1  0
  7 18  1  0
  7 19  1  0
  7 20  1  0
  8 21  1  0
  8 22  1  0
  8 23  1  0
  9 24  1  0
 10 25  1  0
 11 26  1  0
 12 27  1  0
 13 28  1  0
M  END
> <Uni-Dock RESULT> 
ENERGY=   -3.596  LOWER_BOUND=    5.193  UPPER_BOUND=    6.706
INTER + INTRA:          -3.596
INTER:                  -3.596
INTRA:                   0.000
UNBOUND:                 0.000

$$$$

     RDKit          3D

 28 28  0  0  0  0  0  0  0  0999 V2000
   44.6464    4.9907   10.5482 C   0  0  0  0  0  0  0  0  0  0  0  0
   44.0625    4.3103   11.4595 N   0  0  0  0  0  0  0  0  0  0  0  0
   44.9787    6.3001   10.7695 N   0  0  0  0  0  0  0  0  0  0  0  0
   45.0661    4.6914    9.2822 N   0  0  0  0  0  0  0  0  0  0  0  0
   44.7718    6.9028   12.0753 C   0  0  0  0  0  0  0  0  0  0  0  0
   45.2452    8.3372   12.0383 C   0  0  0  0  0  0  0  0  0  0  0  0
   43.7382    2.9118   11.3004 C   0  0  0  0  0  0  0  0  0  0  0  0
   44.6405    3.5591    8.4969 C   0  0  0  0  0  0  0  0  0  0  0  0
   44.4678    9.3230   11.4125 C   0  0  0  0  0  0  0  0  0  0  0  0
   46.4801    8.6986   12.5959 C   0  0  0  0  0  0  0  0  0  0  0  0
   44.9095   10.6457   11.3591 C   0  0  0  0  0  0  0  0  0  0  0  0
   46.9199   10.0226   12.5415 C   0  0  0  0  0  0  0  0  0  0  0  0
   46.1344   10.9950   11.9249 C   0  0  0  0  0  0  0  0  0  0  0  0
   45.8904    6.5323   10.3950 H   0  0  0  0  0  0  0  0  0  0  0  0
   45.0955    5.5343    8.7186 H   0  0  0  0  0  0  0  0  0  0  0  0
   45.3220    6.3478   12.8450 H   0  0  0  0  0  0  0  0  0  0  0  0
   43.7103    6.8810   12.3507 H   0  0  0  0  0  0  0  0  0  0  0  0
   44.6253    2.3100   11.0828 H   0  0  0  0  0  0  0  0  0  0  0  0
   42.9696    2.7556   10.5387 H   0  0  0  0  0  0  0  0  0  0  0  0
   43.3289    2.5350   12.2435 H   0  0  0  0  0  0  0  0  0  0  0  0
   45.0155    2.6199    8.9103 H   0  0  0  0  0  0  0  0  0  0  0  0
   43.5507    3.5245    8.4110 H   0  0  0  0  0  0  0  0  0  0  0  0
   45.0493    3.6473    7.4850 H   0  0  0  0  0  0  0  0  0  0  0  0
   43.5142    9.0568   10.9606 H   0  0  0  0  0  0  0  0  0  0  0  0
   47.1061    7.9506   13.0777 H   0  0  0  0  0  0  0  0  0  0  0  0
   44.2984   11.4026   10.8745 H   0  0  0  0  0  0  0  0  0  0  0  0
   47.8763   10.2953   12.9803 H   0  0  0  0  0  0  0  0  0  0  0  0
   46.4777   12.0253   11.8837 H   0  0  0  0  0  0  0  0  0  0  0  0
  2  1  2  0
  3  1  1  0
  4  1  1  0
  5  3  1  0
  6  5  1  0
  7  2  1  0
  8  4  1  0
  9  6  2  0
 10  6  1  0
 11  9  1  0
 12 10  2  0
 13 12  1  0
 11 13  2  0
  3 14  1  0
  4 15  1  0
  5 16  1  0
  5 17  1  0
  7 18  1  0
  7 19  1  0
  7 20  1  0
  8 21  1  0
  8 22  1  0
  8 23  1  0
  9 24  1  0
 10 25  1  0
 11 26  1  0
 12 27  1  0
 13 28  1  0
M  END
> <Uni-Dock RESULT> 
ENERGY=   -3.573  LOWER_BOUND=    3.296  UPPER_BOUND=    6.662
INTER + INTRA:          -3.573
INTER:                  -3.573
INTRA:                   0.000
UNBOUND:                 0.000

$$$$
