
     RDKit          3D

 25 26  0  0  0  0  0  0  0  0999 V2000
    0.0000    0.0000    0.0000 K   0  0  0  0  0 15  0  0  0  0  0  0
   -0.3223    0.8978   -0.0451 N   0  0  0  0  0  0  0  0  0  0  0  0
    1.8980   -0.1100   -0.0798 C   0  0  0  0  0  0  0  0  0  0  0  0
    1.0628    1.1142   -0.1072 C   0  0  0  0  0  0  0  0  0  0  0  0
   -0.8426   -0.3935   -0.0693 C   0  0  0  0  0  0  0  0  0  0  0  0
   -0.1079   -1.4620   -0.1124 N   0  0  0  0  0  0  0  0  0  0  0  0
    3.4639   -0.0402   -0.0272 C   0  0  0  0  0  0  0  0  0  0  0  0
    1.2488   -1.2826   -0.1039 C   0  0  0  0  0  0  0  0  0  0  0  0
    4.1870    0.9601    0.5240 N   0  0  0  0  0  0  0  0  0  0  0  0
    5.4740    0.5518    0.4226 N   0  0  0  0  0  0  0  0  0  0  0  0
    5.5137   -0.6631   -0.1626 N   0  0  0  0  0  0  0  0  0  0  0  0
    4.2537   -1.0624   -0.4477 N   0  0  0  0  0  0  0  0  0  0  0  0
   -2.3423   -0.5306   -0.0455 C   0  0  0  0  0  0  0  0  0  0  0  0
   -1.1656    2.0043   -0.0095 C   0  0  0  0  0  0  0  0  0  0  0  0
    1.5405    2.2441   -0.2167 O   0  0  0  0  0  0  0  0  0  0  0  0
   -2.4967    1.8826    0.0145 C   0  0  0  0  0  0  0  0  0  0  0  0
   -3.0972    0.5781   -0.0034 C   0  0  0  0  0  0  0  0  0  0  0  0
   -2.9097   -1.9146   -0.0682 C   0  0  0  0  0  0  0  0  0  0  0  0
    1.8294   -2.2044   -0.0937 H   0  0  0  0  0  0  0  0  0  0  0  0
   -0.6924    2.9833   -0.0008 H   0  0  0  0  0  0  0  0  0  0  0  0
   -3.1375    2.7572    0.0431 H   0  0  0  0  0  0  0  0  0  0  0  0
   -4.1809    0.5223    0.0159 H   0  0  0  0  0  0  0  0  0  0  0  0
   -2.6036   -2.4421   -0.9775 H   0  0  0  0  0  0  0  0  0  0  0  0
   -2.5684   -2.4858    0.8014 H   0  0  0  0  0  0  0  0  0  0  0  0
   -4.0048   -1.9044   -0.0463 H   0  0  0  0  0  0  0  0  0  0  0  0
  3  4  1  0
  4  2  1  0
  5  2  1  0
  6  5  2  0
  7  3  1  0
  8  6  1  0
  9  7  1  0
 10  9  1  0
 11 12  1  0
 12  7  2  0
 13  5  1  0
 14  2  1  0
 15  4  2  0
 16 14  2  0
 17 16  1  0
 18 13  1  0
 17 13  2  0
  8  3  2  0
 10 11  2  0
  8 19  1  0
 14 20  1  0
 16 21  1  0
 17 22  1  0
 18 23  1  0
 18 24  1  0
 18 25  1  0
M  CHG  2   1   1   9  -1
M  END
$$$$
