
     RDKit          3D

 25 26  0  0  0  0  0  0  0  0999 V2000
    0.0000    0.0000    0.0000 K   0  0  0  0  0 15  0  0  0  0  0  0
   -0.2496   -0.7891    0.4743 N   0  0  0  0  0  0  0  0  0  0  0  0
    1.8701    0.3414    0.0553 C   0  0  0  0  0  0  0  0  0  0  0  0
    1.1361   -0.7756    0.6959 C   0  0  0  0  0  0  0  0  0  0  0  0
   -0.8708    0.2514   -0.2113 C   0  0  0  0  0  0  0  0  0  0  0  0
   -0.2309    1.2621   -0.7136 N   0  0  0  0  0  0  0  0  0  0  0  0
    3.4344    0.4399    0.1090 C   0  0  0  0  0  0  0  0  0  0  0  0
    1.1304    1.2665   -0.5725 C   0  0  0  0  0  0  0  0  0  0  0  0
    4.0965    1.6157   -0.0471 N   0  0  0  0  0  0  0  0  0  0  0  0
    5.4058    1.2784   -0.0272 N   0  0  0  0  0  0  0  0  0  0  0  0
    5.5190   -0.0578    0.1213 N   0  0  0  0  0  0  0  0  0  0  0  0
    4.2841   -0.6074    0.2020 N   0  0  0  0  0  0  0  0  0  0  0  0
   -2.3675    0.1775   -0.3629 C   0  0  0  0  0  0  0  0  0  0  0  0
   -0.9950   -1.8408    0.9989 C   0  0  0  0  0  0  0  0  0  0  0  0
    1.6893   -1.6150    1.4074 O   0  0  0  0  0  0  0  0  0  0  0  0
   -2.3231   -1.9079    0.8619 C   0  0  0  0  0  0  0  0  0  0  0  0
   -3.0243   -0.8690    0.1608 C   0  0  0  0  0  0  0  0  0  0  0  0
   -3.0426    1.2899   -1.1009 C   0  0  0  0  0  0  0  0  0  0  0  0
    1.6341    2.1074   -1.0480 H   0  0  0  0  0  0  0  0  0  0  0  0
   -0.4468   -2.6154    1.5300 H   0  0  0  0  0  0  0  0  0  0  0  0
   -2.8867   -2.7364    1.2771 H   0  0  0  0  0  0  0  0  0  0  0  0
   -4.1022   -0.9600    0.0725 H   0  0  0  0  0  0  0  0  0  0  0  0
   -2.8678    2.2474   -0.5994 H   0  0  0  0  0  0  0  0  0  0  0  0
   -4.1263    1.1404   -1.1568 H   0  0  0  0  0  0  0  0  0  0  0  0
   -2.6662    1.3565   -2.1269 H   0  0  0  0  0  0  0  0  0  0  0  0
  3  4  1  0
  4  2  1  0
  5  2  1  0
  6  5  2  0
  7  3  1  0
  8  6  1  0
  9  7  1  0
 10  9  1  0
 11 12  1  0
 12  7  2  0
 13  5  1  0
 14  2  1  0
 15  4  2  0
 16 14  2  0
 17 16  1  0
 18 13  1  0
 17 13  2  0
  8  3  2  0
 10 11  2  0
  8 19  1  0
 14 20  1  0
 16 21  1  0
 17 22  1  0
 18 23  1  0
 18 24  1  0
 18 25  1  0
M  CHG  2   1   1   9  -1
M  END
$$$$
