
     RDKit          3D

 25 26  0  0  0  0  0  0  0  0999 V2000
    0.0000    0.0000    0.0000 K   0  0  0  0  0 15  0  0  0  0  0  0
   -0.2474   -0.4558    0.8007 N   0  0  0  0  0  0  0  0  0  0  0  0
    1.8829    0.0996   -0.2482 C   0  0  0  0  0  0  0  0  0  0  0  0
    1.1513   -0.5499    0.8653 C   0  0  0  0  0  0  0  0  0  0  0  0
   -0.8718    0.1180   -0.3037 C   0  0  0  0  0  0  0  0  0  0  0  0
   -0.2270    0.6264   -1.3082 N   0  0  0  0  0  0  0  0  0  0  0  0
    3.4488    0.1847   -0.2688 C   0  0  0  0  0  0  0  0  0  0  0  0
    1.1397    0.6107   -1.2400 C   0  0  0  0  0  0  0  0  0  0  0  0
    4.1552    0.3428   -1.4183 N   0  0  0  0  0  0  0  0  0  0  0  0
    5.4415    0.4596   -1.0182 N   0  0  0  0  0  0  0  0  0  0  0  0
    5.4972    0.3881    0.3279 N   0  0  0  0  0  0  0  0  0  0  0  0
    4.2473    0.2216    0.8214 N   0  0  0  0  0  0  0  0  0  0  0  0
   -2.3778    0.1352   -0.3097 C   0  0  0  0  0  0  0  0  0  0  0  0
   -0.9973   -0.9941    1.8422 C   0  0  0  0  0  0  0  0  0  0  0  0
    1.7209   -1.1655    1.7672 O   0  0  0  0  0  0  0  0  0  0  0  0
   -2.3340   -0.9763    1.8382 C   0  0  0  0  0  0  0  0  0  0  0  0
   -3.0394   -0.3944    0.7309 C   0  0  0  0  0  0  0  0  0  0  0  0
   -3.0567    0.7526   -1.4911 C   0  0  0  0  0  0  0  0  0  0  0  0
    1.6426    1.0884   -2.0801 H   0  0  0  0  0  0  0  0  0  0  0  0
   -0.4453   -1.4339    2.6695 H   0  0  0  0  0  0  0  0  0  0  0  0
   -2.9010   -1.4001    2.6600 H   0  0  0  0  0  0  0  0  0  0  0  0
   -4.1241   -0.4008    0.7654 H   0  0  0  0  0  0  0  0  0  0  0  0
   -2.7880    0.2227   -2.4108 H   0  0  0  0  0  0  0  0  0  0  0  0
   -2.7702    1.8043   -1.5947 H   0  0  0  0  0  0  0  0  0  0  0  0
   -4.1474    0.7162   -1.3968 H   0  0  0  0  0  0  0  0  0  0  0  0
  3  4  1  0
  4  2  1  0
  5  2  1  0
  6  5  2  0
  7  3  1  0
  8  6  1  0
  9  7  1  0
 10  9  1  0
 11 12  1  0
 12  7  2  0
 13  5  1  0
 14  2  1  0
 15  4  2  0
 16 14  2  0
 17 16  1  0
 18 13  1  0
 17 13  2  0
  8  3  2  0
 10 11  2  0
  8 19  1  0
 14 20  1  0
 16 21  1  0
 17 22  1  0
 18 23  1  0
 18 24  1  0
 18 25  1  0
M  CHG  2   1   1   9  -1
M  END
$$$$
