
     RDKit          3D

 25 26  0  0  0  0  0  0  0  0999 V2000
    0.0000    0.0000    0.0000 K   0  0  0  0  0 15  0  0  0  0  0  0
   -0.1799   -0.9319   -0.0954 N   0  0  0  0  0  0  0  0  0  0  0  0
    1.8463    0.4228   -0.1707 C   0  0  0  0  0  0  0  0  0  0  0  0
    1.2106   -0.9114   -0.2832 C   0  0  0  0  0  0  0  0  0  0  0  0
   -0.8929    0.2522    0.0722 C   0  0  0  0  0  0  0  0  0  0  0  0
   -0.3385    1.4248    0.1036 N   0  0  0  0  0  0  0  0  0  0  0  0
    3.4025    0.6045   -0.2405 C   0  0  0  0  0  0  0  0  0  0  0  0
    1.0247    1.4695   -0.0077 C   0  0  0  0  0  0  0  0  0  0  0  0
    3.9841    1.7807   -0.5923 N   0  0  0  0  0  0  0  0  0  0  0  0
    5.3111    1.5646   -0.4488 N   0  0  0  0  0  0  0  0  0  0  0  0
    5.5122    0.3044   -0.0113 N   0  0  0  0  0  0  0  0  0  0  0  0
    4.3179   -0.3171    0.1337 N   0  0  0  0  0  0  0  0  0  0  0  0
   -2.3875    0.1393    0.2208 C   0  0  0  0  0  0  0  0  0  0  0  0
   -0.8360   -2.1588   -0.1310 C   0  0  0  0  0  0  0  0  0  0  0  0
    1.8447   -1.9301   -0.5609 O   0  0  0  0  0  0  0  0  0  0  0  0
   -2.1622   -2.2593    0.0038 C   0  0  0  0  0  0  0  0  0  0  0  0
   -2.9556   -1.0760    0.1851 C   0  0  0  0  0  0  0  0  0  0  0  0
   -3.1609    1.4065    0.4044 C   0  0  0  0  0  0  0  0  0  0  0  0
    1.4549    2.4674    0.0701 H   0  0  0  0  0  0  0  0  0  0  0  0
   -0.2188   -3.0427   -0.2733 H   0  0  0  0  0  0  0  0  0  0  0  0
   -2.6554   -3.2248   -0.0256 H   0  0  0  0  0  0  0  0  0  0  0  0
   -4.0287   -1.2003    0.2894 H   0  0  0  0  0  0  0  0  0  0  0  0
   -4.2348    1.2153    0.5043 H   0  0  0  0  0  0  0  0  0  0  0  0
   -2.8344    1.9302    1.3088 H   0  0  0  0  0  0  0  0  0  0  0  0
   -3.0234    2.0703   -0.4554 H   0  0  0  0  0  0  0  0  0  0  0  0
  3  4  1  0
  4  2  1  0
  5  2  1  0
  6  5  2  0
  7  3  1  0
  8  6  1  0
  9  7  1  0
 10  9  1  0
 11 12  1  0
 12  7  2  0
 13  5  1  0
 14  2  1  0
 15  4  2  0
 16 14  2  0
 17 16  1  0
 18 13  1  0
 17 13  2  0
  8  3  2  0
 10 11  2  0
  8 19  1  0
 14 20  1  0
 16 21  1  0
 17 22  1  0
 18 23  1  0
 18 24  1  0
 18 25  1  0
M  CHG  2   1   1   9  -1
M  END
$$$$
