
     RDKit          3D

 66 71  0  0  0  0  0  0  0  0999 V2000
   -5.3771    2.7896   -0.0320 C   0  0  0  0  0  0  0  0  0  0  0  0
   -5.8317    3.3853   -1.2098 C   0  0  0  0  0  0  0  0  0  0  0  0
   -5.2962    2.9928   -2.4330 C   0  0  0  0  0  0  0  0  0  0  0  0
   -4.3156    2.0088   -2.4565 C   0  0  0  0  0  0  0  0  0  0  0  0
   -3.8694    1.4175   -1.2744 C   0  0  0  0  0  0  0  0  0  0  0  0
   -4.3873    1.7953   -0.0303 C   0  0  0  0  0  0  0  0  0  0  0  0
   -5.9214    3.1859    1.1275 F   0  0  0  0  0  0  0  0  0  0  0  0
   -3.7954    1.6325   -3.6325 F   0  0  0  0  0  0  0  0  0  0  0  0
   -2.9228    0.4721   -1.3482 F   0  0  0  0  0  0  0  0  0  0  0  0
   -3.9392    1.1782    1.2883 C   0  0  1  0  0  0  0  0  0  0  0  0
   -4.0801   -1.2823    0.8701 N   0  0  0  0  0  0  0  0  0  0  0  0
   -4.6526   -0.1637    1.6373 C   0  0  2  0  0  0  0  0  0  0  0  0
   -2.3989    1.0504    1.4016 C   0  0  0  0  0  0  0  0  0  0  0  0
   -1.9017   -0.3823    1.6244 C   0  0  1  0  0  0  0  0  0  0  0  0
   -2.6957   -1.4117    0.7996 C   0  0  0  0  0  0  0  0  0  0  0  0
   -6.1799   -0.0487    1.6294 C   0  0  0  0  0  0  0  0  0  0  0  0
   -4.9059   -2.2903    0.1708 C   0  0  0  0  0  0  0  0  0  0  0  0
   -5.2085   -2.0150   -1.3048 C   0  0  0  0  0  0  0  0  0  0  0  0
   -5.9736   -3.0100   -1.8162 F   0  0  0  0  0  0  0  0  0  0  0  0
   -4.0981   -1.9274   -2.0616 F   0  0  0  0  0  0  0  0  0  0  0  0
   -5.9073   -0.8661   -1.4564 F   0  0  0  0  0  0  0  0  0  0  0  0
   -2.1376   -2.3165    0.1786 O   0  0  0  0  0  0  0  0  0  0  0  0
   -0.4871   -0.5255    1.2968 N   0  0  0  0  0  0  0  0  0  0  0  0
    0.4991   -0.0313    2.1182 C   0  0  0  0  0  0  0  0  0  0  0  0
    0.2584    0.6329    3.1203 O   0  0  0  0  0  0  0  0  0  0  0  0
    1.8998   -0.3571    1.7567 C   0  0  0  0  0  0  0  0  0  0  0  0
    2.2930   -0.7434    0.4702 C   0  0  0  0  0  0  0  0  0  0  0  0
    2.8812   -0.2510    2.7485 C   0  0  0  0  0  0  0  0  0  0  0  0
    4.2006   -0.5224    2.5597 N   0  0  0  0  0  0  0  0  0  0  0  0
    4.5312   -0.9025    1.3168 C   0  0  0  0  0  0  0  0  0  0  0  0
    3.6347   -1.0137    0.2613 C   0  0  0  0  0  0  0  0  0  0  0  0
    4.3199   -1.4541   -0.9927 C   0  0  0  0  0  0  0  0  0  0  0  0
    5.9271   -1.2738    0.8979 C   0  0  0  0  0  0  0  0  0  0  0  0
    5.8068   -1.2255   -0.6371 C   0  0  2  0  0  0  0  0  0  0  0  0
    6.3771    0.0351   -1.2418 C   0  0  0  0  0  0  0  0  0  0  0  0
    7.4107   -0.2965   -2.1063 C   0  0  0  0  0  0  0  0  0  0  0  0
    7.5824   -1.6644   -2.1273 N   0  0  0  0  0  0  0  0  0  0  0  0
    6.6890   -2.3056   -1.2898 C   0  0  0  0  0  0  0  0  0  0  0  0
    6.6190   -3.5103   -1.1140 O   0  0  0  0  0  0  0  0  0  0  0  0
    8.1402    0.5653   -2.8149 N   0  0  0  0  0  0  0  0  0  0  0  0
    6.0480    1.3657   -1.0682 C   0  0  0  0  0  0  0  0  0  0  0  0
    6.7850    2.3056   -1.7872 C   0  0  0  0  0  0  0  0  0  0  0  0
    7.8042    1.8647   -2.6346 C   0  0  0  0  0  0  0  0  0  0  0  0
   -6.6012    4.1505   -1.1615 H   0  0  0  0  0  0  0  0  0  0  0  0
   -5.6335    3.4413   -3.3620 H   0  0  0  0  0  0  0  0  0  0  0  0
   -4.2251    1.8923    2.0747 H   0  0  0  0  0  0  0  0  0  0  0  0
   -4.3885   -0.3904    2.6809 H   0  0  0  0  0  0  0  0  0  0  0  0
   -1.8883    1.5025    0.5426 H   0  0  0  0  0  0  0  0  0  0  0  0
   -2.0694    1.6584    2.2555 H   0  0  0  0  0  0  0  0  0  0  0  0
   -2.0208   -0.6580    2.6803 H   0  0  0  0  0  0  0  0  0  0  0  0
   -6.5046    0.8121    2.2239 H   0  0  0  0  0  0  0  0  0  0  0  0
   -6.5864    0.0622    0.6212 H   0  0  0  0  0  0  0  0  0  0  0  0
   -6.6407   -0.9339    2.0802 H   0  0  0  0  0  0  0  0  0  0  0  0
   -5.8359   -2.4417    0.7244 H   0  0  0  0  0  0  0  0  0  0  0  0
   -4.3773   -3.2498    0.2229 H   0  0  0  0  0  0  0  0  0  0  0  0
   -0.2741   -1.2602    0.6278 H   0  0  0  0  0  0  0  0  0  0  0  0
    1.5895   -0.8141   -0.3517 H   0  0  0  0  0  0  0  0  0  0  0  0
    2.6238    0.0583    3.7596 H   0  0  0  0  0  0  0  0  0  0  0  0
    3.9931   -0.8596   -1.8525 H   0  0  0  0  0  0  0  0  0  0  0  0
    4.0930   -2.5100   -1.1778 H   0  0  0  0  0  0  0  0  0  0  0  0
    6.1552   -2.2785    1.2698 H   0  0  0  0  0  0  0  0  0  0  0  0
    6.6590   -0.5655    1.2994 H   0  0  0  0  0  0  0  0  0  0  0  0
    8.2844   -2.1232   -2.6851 H   0  0  0  0  0  0  0  0  0  0  0  0
    5.2536    1.6788   -0.3979 H   0  0  0  0  0  0  0  0  0  0  0  0
    6.5754    3.3662   -1.6916 H   0  0  0  0  0  0  0  0  0  0  0  0
    8.3946    2.5763   -3.2064 H   0  0  0  0  0  0  0  0  0  0  0  0
  1  2  2  0
  2  3  1  0
  3  4  2  0
  4  5  1  0
  5  6  2  0
  1  6  1  0
  1  7  1  0
  4  8  1  0
  5  9  1  0
 10  6  1  0
 11 12  1  0
 13 14  1  0
 14 15  1  0
 11 15  1  0
 12 10  1  0
 10 13  1  0
 12 16  1  0
 11 17  1  0
 17 18  1  0
 18 19  1  0
 18 20  1  0
 18 21  1  0
 15 22  2  0
 14 23  1  0
 23 24  1  0
 24 25  2  0
 24 26  1  0
 28 29  1  0
 29 30  2  0
 30 31  1  0
 27 31  2  0
 27 26  1  0
 26 28  2  0
 31 32  1  0
 30 33  1  0
 34 32  1  1
 34 33  1  0
 34 35  1  0
 35 36  2  0
 36 37  1  0
 37 38  1  0
 38 34  1  0
 38 39  2  0
 36 40  1  0
 35 41  1  0
 41 42  2  0
 40 43  2  0
 43 42  1  0
  2 44  1  0
  3 45  1  0
 10 46  1  1
 12 47  1  1
 13 48  1  0
 13 49  1  0
 14 50  1  1
 16 51  1  0
 16 52  1  0
 16 53  1  0
 17 54  1  0
 17 55  1  0
 23 56  1  0
 27 57  1  0
 28 58  1  0
 32 59  1  0
 32 60  1  0
 33 61  1  0
 33 62  1  0
 37 63  1  0
 41 64  1  0
 42 65  1  0
 43 66  1  0
M  END
$$$$
