
     RDKit          3D

 66 71  0  0  0  0  0  0  0  0999 V2000
   -5.4044    1.9207   -1.0410 C   0  0  0  0  0  0  0  0  0  0  0  0
   -6.4310    2.7712   -1.4611 C   0  0  0  0  0  0  0  0  0  0  0  0
   -7.4677    3.0967   -0.5898 C   0  0  0  0  0  0  0  0  0  0  0  0
   -7.4650    2.5612    0.6911 C   0  0  0  0  0  0  0  0  0  0  0  0
   -6.4372    1.7145    1.1024 C   0  0  0  0  0  0  0  0  0  0  0  0
   -5.3755    1.3784    0.2490 C   0  0  0  0  0  0  0  0  0  0  0  0
   -4.4503    1.6167   -1.9292 F   0  0  0  0  0  0  0  0  0  0  0  0
   -8.4651    2.8601    1.5307 F   0  0  0  0  0  0  0  0  0  0  0  0
   -6.4709    1.2028    2.3427 F   0  0  0  0  0  0  0  0  0  0  0  0
   -4.2890    0.4512    0.7646 C   0  0  1  0  0  0  0  0  0  0  0  0
   -3.6991   -1.8560    1.4817 N   0  0  0  0  0  0  0  0  0  0  0  0
   -4.7223   -1.0400    0.7959 C   0  0  2  0  0  0  0  0  0  0  0  0
   -2.9177    0.5613    0.0818 C   0  0  0  0  0  0  0  0  0  0  0  0
   -1.8858   -0.2308    0.8801 C   0  0  1  0  0  0  0  0  0  0  0  0
   -2.3422   -1.6596    1.2453 C   0  0  0  0  0  0  0  0  0  0  0  0
   -5.0250   -1.5965   -0.6037 C   0  0  0  0  0  0  0  0  0  0  0  0
   -4.0917   -3.1491    2.0834 C   0  0  0  0  0  0  0  0  0  0  0  0
   -4.1624   -4.3747    1.1629 C   0  0  0  0  0  0  0  0  0  0  0  0
   -3.8980   -5.5087    1.8528 F   0  0  0  0  0  0  0  0  0  0  0  0
   -5.4103   -4.5108    0.6519 F   0  0  0  0  0  0  0  0  0  0  0  0
   -3.3056   -4.3119    0.1237 F   0  0  0  0  0  0  0  0  0  0  0  0
   -1.5116   -2.5512    1.4408 O   0  0  0  0  0  0  0  0  0  0  0  0
   -0.6063   -0.3381    0.1813 N   0  0  0  0  0  0  0  0  0  0  0  0
    0.2370    0.7458    0.0696 C   0  0  0  0  0  0  0  0  0  0  0  0
   -0.0655    1.8694    0.4563 O   0  0  0  0  0  0  0  0  0  0  0  0
    1.5777    0.5003   -0.5154 C   0  0  0  0  0  0  0  0  0  0  0  0
    2.6153    1.4007   -0.2489 C   0  0  0  0  0  0  0  0  0  0  0  0
    1.8405   -0.5821   -1.3598 C   0  0  0  0  0  0  0  0  0  0  0  0
    3.0499   -0.8414   -1.9247 N   0  0  0  0  0  0  0  0  0  0  0  0
    4.0179    0.0413   -1.6328 C   0  0  0  0  0  0  0  0  0  0  0  0
    3.8522    1.1512   -0.8150 C   0  0  0  0  0  0  0  0  0  0  0  0
    5.1118    1.9489   -0.7114 C   0  0  0  0  0  0  0  0  0  0  0  0
    5.4155   -0.0346   -2.1833 C   0  0  0  0  0  0  0  0  0  0  0  0
    6.1587    0.9574   -1.2678 C   0  0  2  0  0  0  0  0  0  0  0  0
    6.9712    0.2817   -0.1890 C   0  0  0  0  0  0  0  0  0  0  0  0
    8.3098    0.6121   -0.3464 C   0  0  0  0  0  0  0  0  0  0  0  0
    8.4614    1.4445   -1.4351 N   0  0  0  0  0  0  0  0  0  0  0  0
    7.2519    1.7084   -2.0505 C   0  0  0  0  0  0  0  0  0  0  0  0
    7.0933    2.4148   -3.0322 O   0  0  0  0  0  0  0  0  0  0  0  0
    9.3110    0.1958    0.4289 N   0  0  0  0  0  0  0  0  0  0  0  0
    6.6034   -0.5531    0.8486 C   0  0  0  0  0  0  0  0  0  0  0  0
    7.6166   -1.0156    1.6870 C   0  0  0  0  0  0  0  0  0  0  0  0
    8.9337   -0.6201    1.4415 C   0  0  0  0  0  0  0  0  0  0  0  0
   -6.4126    3.1703   -2.4717 H   0  0  0  0  0  0  0  0  0  0  0  0
   -8.2730    3.7550   -0.9004 H   0  0  0  0  0  0  0  0  0  0  0  0
   -4.1181    0.7614    1.8080 H   0  0  0  0  0  0  0  0  0  0  0  0
   -5.6377   -1.1185    1.3965 H   0  0  0  0  0  0  0  0  0  0  0  0
   -2.9478    0.1899   -0.9487 H   0  0  0  0  0  0  0  0  0  0  0  0
   -2.6145    1.6134    0.0191 H   0  0  0  0  0  0  0  0  0  0  0  0
   -1.6964    0.2799    1.8338 H   0  0  0  0  0  0  0  0  0  0  0  0
   -4.1175   -1.7220   -1.2024 H   0  0  0  0  0  0  0  0  0  0  0  0
   -5.5003   -2.5769   -0.5376 H   0  0  0  0  0  0  0  0  0  0  0  0
   -5.7198   -0.9585   -1.1565 H   0  0  0  0  0  0  0  0  0  0  0  0
   -3.3571   -3.3672    2.8687 H   0  0  0  0  0  0  0  0  0  0  0  0
   -5.0497   -3.0095    2.5967 H   0  0  0  0  0  0  0  0  0  0  0  0
   -0.2030   -1.2716    0.1783 H   0  0  0  0  0  0  0  0  0  0  0  0
    2.4506    2.2703    0.3812 H   0  0  0  0  0  0  0  0  0  0  0  0
    1.0661   -1.2901   -1.6407 H   0  0  0  0  0  0  0  0  0  0  0  0
    5.3122    2.2413    0.3250 H   0  0  0  0  0  0  0  0  0  0  0  0
    5.0222    2.8499   -1.3286 H   0  0  0  0  0  0  0  0  0  0  0  0
    5.4042    0.2876   -3.2303 H   0  0  0  0  0  0  0  0  0  0  0  0
    5.8049   -1.0560   -2.1245 H   0  0  0  0  0  0  0  0  0  0  0  0
    9.3533    1.8053   -1.7333 H   0  0  0  0  0  0  0  0  0  0  0  0
    5.5712   -0.8461    1.0119 H   0  0  0  0  0  0  0  0  0  0  0  0
    7.3907   -1.6747    2.5192 H   0  0  0  0  0  0  0  0  0  0  0  0
    9.7429   -0.9661    2.0796 H   0  0  0  0  0  0  0  0  0  0  0  0
  1  2  2  0
  2  3  1  0
  3  4  2  0
  4  5  1  0
  5  6  2  0
  1  6  1  0
  1  7  1  0
  4  8  1  0
  5  9  1  0
 10  6  1  0
 11 12  1  0
 13 14  1  0
 14 15  1  0
 11 15  1  0
 12 10  1  0
 10 13  1  0
 12 16  1  0
 11 17  1  0
 17 18  1  0
 18 19  1  0
 18 20  1  0
 18 21  1  0
 15 22  2  0
 14 23  1  0
 23 24  1  0
 24 25  2  0
 24 26  1  0
 28 29  1  0
 29 30  2  0
 30 31  1  0
 27 31  2  0
 27 26  1  0
 26 28  2  0
 31 32  1  0
 30 33  1  0
 34 32  1  1
 34 33  1  0
 34 35  1  0
 35 36  2  0
 36 37  1  0
 37 38  1  0
 38 34  1  0
 38 39  2  0
 36 40  1  0
 35 41  1  0
 41 42  2  0
 40 43  2  0
 43 42  1  0
  2 44  1  0
  3 45  1  0
 10 46  1  1
 12 47  1  1
 13 48  1  0
 13 49  1  0
 14 50  1  1
 16 51  1  0
 16 52  1  0
 16 53  1  0
 17 54  1  0
 17 55  1  0
 23 56  1  0
 27 57  1  0
 28 58  1  0
 32 59  1  0
 32 60  1  0
 33 61  1  0
 33 62  1  0
 37 63  1  0
 41 64  1  0
 42 65  1  0
 43 66  1  0
M  END
$$$$
