
     RDKit          3D

 66 71  0  0  0  0  0  0  0  0999 V2000
   -5.9953    2.5529   -1.0160 C   0  0  0  0  0  0  0  0  0  0  0  0
   -6.9234    2.7285   -2.0440 C   0  0  0  0  0  0  0  0  0  0  0  0
   -7.2085    1.6728   -2.9067 C   0  0  0  0  0  0  0  0  0  0  0  0
   -6.5597    0.4569   -2.7263 C   0  0  0  0  0  0  0  0  0  0  0  0
   -5.6338    0.2896   -1.6973 C   0  0  0  0  0  0  0  0  0  0  0  0
   -5.3299    1.3356   -0.8172 C   0  0  0  0  0  0  0  0  0  0  0  0
   -5.7548    3.5861   -0.1967 F   0  0  0  0  0  0  0  0  0  0  0  0
   -6.8359   -0.5615   -3.5520 F   0  0  0  0  0  0  0  0  0  0  0  0
   -5.0305   -0.8994   -1.5584 F   0  0  0  0  0  0  0  0  0  0  0  0
   -4.3306    1.1856    0.3205 C   0  0  1  0  0  0  0  0  0  0  0  0
   -4.1956   -1.1878    1.1299 N   0  0  0  0  0  0  0  0  0  0  0  0
   -4.7306    0.1523    1.4306 C   0  0  2  0  0  0  0  0  0  0  0  0
   -2.9100    0.9425   -0.2420 C   0  0  0  0  0  0  0  0  0  0  0  0
   -2.0874    0.0261    0.6569 C   0  0  1  0  0  0  0  0  0  0  0  0
   -2.8354   -1.3070    0.8303 C   0  0  0  0  0  0  0  0  0  0  0  0
   -6.2277    0.2143    1.7613 C   0  0  0  0  0  0  0  0  0  0  0  0
   -4.8783   -2.4188    1.5798 C   0  0  0  0  0  0  0  0  0  0  0  0
   -4.6428   -2.8087    3.0441 C   0  0  0  0  0  0  0  0  0  0  0  0
   -5.3150   -3.9436    3.3466 F   0  0  0  0  0  0  0  0  0  0  0  0
   -5.0904   -1.8451    3.8832 F   0  0  0  0  0  0  0  0  0  0  0  0
   -3.3412   -3.0154    3.3284 F   0  0  0  0  0  0  0  0  0  0  0  0
   -2.2571   -2.3907    0.7461 O   0  0  0  0  0  0  0  0  0  0  0  0
   -0.7710   -0.2536    0.0943 N   0  0  0  0  0  0  0  0  0  0  0  0
    0.2524    0.6615    0.1951 C   0  0  0  0  0  0  0  0  0  0  0  0
    0.0987    1.7792    0.6769 O   0  0  0  0  0  0  0  0  0  0  0  0
    1.5928    0.2259   -0.2637 C   0  0  0  0  0  0  0  0  0  0  0  0
    2.7308    0.8497    0.2589 C   0  0  0  0  0  0  0  0  0  0  0  0
    1.7667   -0.7797   -1.2180 C   0  0  0  0  0  0  0  0  0  0  0  0
    2.9752   -1.2224   -1.6558 N   0  0  0  0  0  0  0  0  0  0  0  0
    4.0394   -0.5959   -1.1278 C   0  0  0  0  0  0  0  0  0  0  0  0
    3.9686    0.4213   -0.1871 C   0  0  0  0  0  0  0  0  0  0  0  0
    5.3238    0.8840    0.2369 C   0  0  0  0  0  0  0  0  0  0  0  0
    5.4603   -0.9587   -1.4530 C   0  0  0  0  0  0  0  0  0  0  0  0
    6.2446    0.1918   -0.7927 C   0  0  2  0  0  0  0  0  0  0  0  0
    7.5707   -0.2365   -0.2213 C   0  0  0  0  0  0  0  0  0  0  0  0
    8.5990    0.4311   -0.8700 C   0  0  0  0  0  0  0  0  0  0  0  0
    8.0783    1.2726   -1.8285 N   0  0  0  0  0  0  0  0  0  0  0  0
    6.6975    1.2117   -1.8675 C   0  0  0  0  0  0  0  0  0  0  0  0
    5.9836    1.8572   -2.6161 O   0  0  0  0  0  0  0  0  0  0  0  0
    9.9003    0.2919   -0.6156 N   0  0  0  0  0  0  0  0  0  0  0  0
    7.8825   -1.1349    0.7815 C   0  0  0  0  0  0  0  0  0  0  0  0
    9.2316   -1.3158    1.0833 C   0  0  0  0  0  0  0  0  0  0  0  0
   10.1889   -0.5917    0.3691 C   0  0  0  0  0  0  0  0  0  0  0  0
   -7.4171    3.6892   -2.1617 H   0  0  0  0  0  0  0  0  0  0  0  0
   -7.9266    1.7880   -3.7127 H   0  0  0  0  0  0  0  0  0  0  0  0
   -4.2887    2.1516    0.8444 H   0  0  0  0  0  0  0  0  0  0  0  0
   -4.2056    0.4546    2.3487 H   0  0  0  0  0  0  0  0  0  0  0  0
   -2.9480    0.5015   -1.2471 H   0  0  0  0  0  0  0  0  0  0  0  0
   -2.4075    1.9091   -0.3753 H   0  0  0  0  0  0  0  0  0  0  0  0
   -1.9423    0.4697    1.6494 H   0  0  0  0  0  0  0  0  0  0  0  0
   -6.8451   -0.2008    0.9587 H   0  0  0  0  0  0  0  0  0  0  0  0
   -6.5426    1.2482    1.9392 H   0  0  0  0  0  0  0  0  0  0  0  0
   -6.4579   -0.3475    2.6708 H   0  0  0  0  0  0  0  0  0  0  0  0
   -5.9490   -2.3245    1.3778 H   0  0  0  0  0  0  0  0  0  0  0  0
   -4.5283   -3.2462    0.9511 H   0  0  0  0  0  0  0  0  0  0  0  0
   -0.5577   -1.2405   -0.0259 H   0  0  0  0  0  0  0  0  0  0  0  0
    2.6421    1.6434    0.9954 H   0  0  0  0  0  0  0  0  0  0  0  0
    0.9218   -1.2728   -1.6901 H   0  0  0  0  0  0  0  0  0  0  0  0
    5.5137    0.5447    1.2615 H   0  0  0  0  0  0  0  0  0  0  0  0
    5.3955    1.9765    0.2002 H   0  0  0  0  0  0  0  0  0  0  0  0
    5.6852   -1.9338   -1.0075 H   0  0  0  0  0  0  0  0  0  0  0  0
    5.6076   -1.0147   -2.5363 H   0  0  0  0  0  0  0  0  0  0  0  0
    8.6472    1.8561   -2.4203 H   0  0  0  0  0  0  0  0  0  0  0  0
    7.1151   -1.6841    1.3176 H   0  0  0  0  0  0  0  0  0  0  0  0
    9.5395   -2.0085    1.8604 H   0  0  0  0  0  0  0  0  0  0  0  0
   11.2480   -0.7132    0.5829 H   0  0  0  0  0  0  0  0  0  0  0  0
  1  2  2  0
  2  3  1  0
  3  4  2  0
  4  5  1  0
  5  6  2  0
  1  6  1  0
  1  7  1  0
  4  8  1  0
  5  9  1  0
 10  6  1  0
 11 12  1  0
 13 14  1  0
 14 15  1  0
 11 15  1  0
 12 10  1  0
 10 13  1  0
 12 16  1  0
 11 17  1  0
 17 18  1  0
 18 19  1  0
 18 20  1  0
 18 21  1  0
 15 22  2  0
 14 23  1  0
 23 24  1  0
 24 25  2  0
 24 26  1  0
 28 29  1  0
 29 30  2  0
 30 31  1  0
 27 31  2  0
 27 26  1  0
 26 28  2  0
 31 32  1  0
 30 33  1  0
 34 32  1  1
 34 33  1  0
 34 35  1  0
 35 36  2  0
 36 37  1  0
 37 38  1  0
 38 34  1  0
 38 39  2  0
 36 40  1  0
 35 41  1  0
 41 42  2  0
 40 43  2  0
 43 42  1  0
  2 44  1  0
  3 45  1  0
 10 46  1  1
 12 47  1  1
 13 48  1  0
 13 49  1  0
 14 50  1  1
 16 51  1  0
 16 52  1  0
 16 53  1  0
 17 54  1  0
 17 55  1  0
 23 56  1  0
 27 57  1  0
 28 58  1  0
 32 59  1  0
 32 60  1  0
 33 61  1  0
 33 62  1  0
 37 63  1  0
 41 64  1  0
 42 65  1  0
 43 66  1  0
M  END
$$$$
