
     RDKit          3D

 66 71  0  0  0  0  0  0  0  0999 V2000
   -5.2574   -3.1031    0.8439 C   0  0  0  0  0  0  0  0  0  0  0  0
   -5.7716   -3.6752    2.0087 C   0  0  0  0  0  0  0  0  0  0  0  0
   -5.6462   -3.0041    3.2225 C   0  0  0  0  0  0  0  0  0  0  0  0
   -5.0092   -1.7691    3.2506 C   0  0  0  0  0  0  0  0  0  0  0  0
   -4.4987   -1.2039    2.0823 C   0  0  0  0  0  0  0  0  0  0  0  0
   -4.6100   -1.8604    0.8506 C   0  0  0  0  0  0  0  0  0  0  0  0
   -5.4052   -3.7720   -0.3085 F   0  0  0  0  0  0  0  0  0  0  0  0
   -4.8895   -1.1213    4.4178 F   0  0  0  0  0  0  0  0  0  0  0  0
   -3.8914   -0.0113    2.1538 F   0  0  0  0  0  0  0  0  0  0  0  0
   -4.0632   -1.2751   -0.4429 C   0  0  1  0  0  0  0  0  0  0  0  0
   -4.0154    1.2341   -0.3981 N   0  0  0  0  0  0  0  0  0  0  0  0
   -4.7380    0.0589   -0.9160 C   0  0  2  0  0  0  0  0  0  0  0  0
   -2.5208   -1.1765   -0.3742 C   0  0  0  0  0  0  0  0  0  0  0  0
   -1.9888    0.0211   -1.1548 C   0  0  1  0  0  0  0  0  0  0  0  0
   -2.6335    1.3025   -0.5954 C   0  0  0  0  0  0  0  0  0  0  0  0
   -6.2548    0.0510   -0.6853 C   0  0  0  0  0  0  0  0  0  0  0  0
   -4.7042    2.5117   -0.1183 C   0  0  0  0  0  0  0  0  0  0  0  0
   -4.9781    3.3989   -1.3388 C   0  0  0  0  0  0  0  0  0  0  0  0
   -5.7415    2.7520   -2.2514 F   0  0  0  0  0  0  0  0  0  0  0  0
   -5.6549    4.5118   -0.9712 F   0  0  0  0  0  0  0  0  0  0  0  0
   -3.8502    3.7932   -1.9633 F   0  0  0  0  0  0  0  0  0  0  0  0
   -1.9715    2.3166   -0.3722 O   0  0  0  0  0  0  0  0  0  0  0  0
   -0.5409    0.1566   -1.0437 N   0  0  0  0  0  0  0  0  0  0  0  0
    0.3146   -0.6753   -1.7275 C   0  0  0  0  0  0  0  0  0  0  0  0
   -0.0799   -1.6349   -2.3802 O   0  0  0  0  0  0  0  0  0  0  0  0
    1.7634   -0.3571   -1.6670 C   0  0  0  0  0  0  0  0  0  0  0  0
    2.3305    0.4983   -0.7151 C   0  0  0  0  0  0  0  0  0  0  0  0
    2.6110   -0.9608   -2.6031 C   0  0  0  0  0  0  0  0  0  0  0  0
    3.9550   -0.7605   -2.6702 N   0  0  0  0  0  0  0  0  0  0  0  0
    4.4531    0.0775   -1.7492 C   0  0  0  0  0  0  0  0  0  0  0  0
    3.6984    0.7084   -0.7689 C   0  0  0  0  0  0  0  0  0  0  0  0
    4.5484    1.5816    0.0978 C   0  0  0  0  0  0  0  0  0  0  0  0
    5.9038    0.4634   -1.6666 C   0  0  0  0  0  0  0  0  0  0  0  0
    5.9722    1.1012   -0.2659 C   0  0  2  0  0  0  0  0  0  0  0  0
    6.5787    0.1932    0.7769 C   0  0  0  0  0  0  0  0  0  0  0  0
    7.7215    0.7861    1.2952 C   0  0  0  0  0  0  0  0  0  0  0  0
    7.9320    2.0056    0.6876 N   0  0  0  0  0  0  0  0  0  0  0  0
    6.9582    2.2841   -0.2531 C   0  0  0  0  0  0  0  0  0  0  0  0
    6.8983    3.2923   -0.9366 O   0  0  0  0  0  0  0  0  0  0  0  0
    8.5095    0.2681    2.2376 N   0  0  0  0  0  0  0  0  0  0  0  0
    6.1931   -1.0466    1.2492 C   0  0  0  0  0  0  0  0  0  0  0  0
    6.9874   -1.6307    2.2350 C   0  0  0  0  0  0  0  0  0  0  0  0
    8.1170   -0.9461    2.6909 C   0  0  0  0  0  0  0  0  0  0  0  0
   -6.2658   -4.6412    1.9580 H   0  0  0  0  0  0  0  0  0  0  0  0
   -6.0381   -3.4312    4.1404 H   0  0  0  0  0  0  0  0  0  0  0  0
   -4.2861   -1.9947   -1.2438 H   0  0  0  0  0  0  0  0  0  0  0  0
   -4.5991    0.1136   -2.0058 H   0  0  0  0  0  0  0  0  0  0  0  0
   -2.0878   -2.1123   -0.7499 H   0  0  0  0  0  0  0  0  0  0  0  0
   -2.1707   -1.0993    0.6637 H   0  0  0  0  0  0  0  0  0  0  0  0
   -2.2359   -0.0580   -2.2204 H   0  0  0  0  0  0  0  0  0  0  0  0
   -6.5103    0.1365    0.3753 H   0  0  0  0  0  0  0  0  0  0  0  0
   -6.7009   -0.8712   -1.0749 H   0  0  0  0  0  0  0  0  0  0  0  0
   -6.7411    0.8818   -1.2043 H   0  0  0  0  0  0  0  0  0  0  0  0
   -4.0814    3.0841    0.5801 H   0  0  0  0  0  0  0  0  0  0  0  0
   -5.6347    2.3018    0.4169 H   0  0  0  0  0  0  0  0  0  0  0  0
   -0.2203    1.0679   -0.7274 H   0  0  0  0  0  0  0  0  0  0  0  0
    1.7406    0.9790    0.0566 H   0  0  0  0  0  0  0  0  0  0  0  0
    2.2187   -1.6412   -3.3565 H   0  0  0  0  0  0  0  0  0  0  0  0
    4.3108    1.4395    1.1576 H   0  0  0  0  0  0  0  0  0  0  0  0
    4.3812    2.6306   -0.1708 H   0  0  0  0  0  0  0  0  0  0  0  0
    6.5494   -0.4138   -1.7776 H   0  0  0  0  0  0  0  0  0  0  0  0
    6.1282    1.1785   -2.4656 H   0  0  0  0  0  0  0  0  0  0  0  0
    8.7099    2.6055    0.9102 H   0  0  0  0  0  0  0  0  0  0  0  0
    5.3126   -1.5574    0.8720 H   0  0  0  0  0  0  0  0  0  0  0  0
    6.7364   -2.6046    2.6440 H   0  0  0  0  0  0  0  0  0  0  0  0
    8.7533   -1.3783    3.4593 H   0  0  0  0  0  0  0  0  0  0  0  0
  1  2  2  0
  2  3  1  0
  3  4  2  0
  4  5  1  0
  5  6  2  0
  1  6  1  0
  1  7  1  0
  4  8  1  0
  5  9  1  0
 10  6  1  0
 11 12  1  0
 13 14  1  0
 14 15  1  0
 11 15  1  0
 12 10  1  0
 10 13  1  0
 12 16  1  0
 11 17  1  0
 17 18  1  0
 18 19  1  0
 18 20  1  0
 18 21  1  0
 15 22  2  0
 14 23  1  0
 23 24  1  0
 24 25  2  0
 24 26  1  0
 28 29  1  0
 29 30  2  0
 30 31  1  0
 27 31  2  0
 27 26  1  0
 26 28  2  0
 31 32  1  0
 30 33  1  0
 34 32  1  1
 34 33  1  0
 34 35  1  0
 35 36  2  0
 36 37  1  0
 37 38  1  0
 38 34  1  0
 38 39  2  0
 36 40  1  0
 35 41  1  0
 41 42  2  0
 40 43  2  0
 43 42  1  0
  2 44  1  0
  3 45  1  0
 10 46  1  6
 12 47  1  6
 13 48  1  0
 13 49  1  0
 14 50  1  6
 16 51  1  0
 16 52  1  0
 16 53  1  0
 17 54  1  0
 17 55  1  0
 23 56  1  0
 27 57  1  0
 28 58  1  0
 32 59  1  0
 32 60  1  0
 33 61  1  0
 33 62  1  0
 37 63  1  0
 41 64  1  0
 42 65  1  0
 43 66  1  0
M  END
$$$$
