
     RDKit          3D

 66 71  0  0  0  0  0  0  0  0999 V2000
   -5.1174    1.5811   -0.8677 C   0  0  0  0  0  0  0  0  0  0  0  0
   -5.9456    2.4050   -1.6331 C   0  0  0  0  0  0  0  0  0  0  0  0
   -6.7950    3.3125   -1.0031 C   0  0  0  0  0  0  0  0  0  0  0  0
   -6.8050    3.3779    0.3849 C   0  0  0  0  0  0  0  0  0  0  0  0
   -5.9737    2.5515    1.1403 C   0  0  0  0  0  0  0  0  0  0  0  0
   -5.1046    1.6354    0.5311 C   0  0  0  0  0  0  0  0  0  0  0  0
   -4.3183    0.7199   -1.5119 F   0  0  0  0  0  0  0  0  0  0  0  0
   -7.6291    4.2408    0.9956 F   0  0  0  0  0  0  0  0  0  0  0  0
   -6.0221    2.6297    2.4795 F   0  0  0  0  0  0  0  0  0  0  0  0
   -4.2171    0.7418    1.3854 C   0  0  1  0  0  0  0  0  0  0  0  0
   -4.2798   -1.5682    0.4029 N   0  0  0  0  0  0  0  0  0  0  0  0
   -4.7297   -0.7275    1.5250 C   0  0  2  0  0  0  0  0  0  0  0  0
   -2.7298    0.8127    0.9522 C   0  0  0  0  0  0  0  0  0  0  0  0
   -2.0644   -0.5597    0.8424 C   0  0  1  0  0  0  0  0  0  0  0  0
   -2.9419   -1.5196    0.0192 C   0  0  0  0  0  0  0  0  0  0  0  0
   -6.2180   -0.8087    1.8798 C   0  0  0  0  0  0  0  0  0  0  0  0
   -5.1594   -2.5418   -0.2794 C   0  0  0  0  0  0  0  0  0  0  0  0
   -5.8489   -2.0547   -1.5568 C   0  0  0  0  0  0  0  0  0  0  0  0
   -6.6731   -1.0114   -1.3064 F   0  0  0  0  0  0  0  0  0  0  0  0
   -4.9785   -1.6788   -2.5139 F   0  0  0  0  0  0  0  0  0  0  0  0
   -6.6177   -3.0439   -2.0747 F   0  0  0  0  0  0  0  0  0  0  0  0
   -2.4709   -2.2293   -0.8703 O   0  0  0  0  0  0  0  0  0  0  0  0
   -0.7525   -0.4830    0.2072 N   0  0  0  0  0  0  0  0  0  0  0  0
    0.3452    0.0004    0.8815 C   0  0  0  0  0  0  0  0  0  0  0  0
    0.2716    0.4521    2.0207 O   0  0  0  0  0  0  0  0  0  0  0  0
    1.6589   -0.0710    0.1937 C   0  0  0  0  0  0  0  0  0  0  0  0
    2.8300    0.0459    0.9528 C   0  0  0  0  0  0  0  0  0  0  0  0
    1.7837   -0.2295   -1.1896 C   0  0  0  0  0  0  0  0  0  0  0  0
    2.9689   -0.3109   -1.8519 N   0  0  0  0  0  0  0  0  0  0  0  0
    4.0630   -0.1875   -1.0837 C   0  0  0  0  0  0  0  0  0  0  0  0
    4.0446   -0.0126    0.2927 C   0  0  0  0  0  0  0  0  0  0  0  0
    5.4238    0.0601    0.8622 C   0  0  0  0  0  0  0  0  0  0  0  0
    5.4656   -0.2681   -1.6165 C   0  0  0  0  0  0  0  0  0  0  0  0
    6.2914    0.2132   -0.4075 C   0  0  2  0  0  0  0  0  0  0  0  0
    7.6424   -0.4442   -0.2996 C   0  0  0  0  0  0  0  0  0  0  0  0
    8.6401    0.5136   -0.4059 C   0  0  0  0  0  0  0  0  0  0  0  0
    8.0767    1.7588   -0.5771 N   0  0  0  0  0  0  0  0  0  0  0  0
    6.6954    1.6982   -0.5957 C   0  0  0  0  0  0  0  0  0  0  0  0
    5.9494    2.6540   -0.7325 O   0  0  0  0  0  0  0  0  0  0  0  0
    9.9520    0.2814   -0.3549 N   0  0  0  0  0  0  0  0  0  0  0  0
    8.0008   -1.7678   -0.1282 C   0  0  0  0  0  0  0  0  0  0  0  0
    9.3627   -2.0609   -0.0704 C   0  0  0  0  0  0  0  0  0  0  0  0
   10.2860   -1.0194   -0.1864 C   0  0  0  0  0  0  0  0  0  0  0  0
   -5.9209    2.3277   -2.7172 H   0  0  0  0  0  0  0  0  0  0  0  0
   -7.4470    3.9606   -1.5808 H   0  0  0  0  0  0  0  0  0  0  0  0
   -4.2411    1.1562    2.4046 H   0  0  0  0  0  0  0  0  0  0  0  0
   -4.2053   -1.1500    2.3950 H   0  0  0  0  0  0  0  0  0  0  0  0
   -2.6050    1.3508    0.0042 H   0  0  0  0  0  0  0  0  0  0  0  0
   -2.1832    1.4253    1.6824 H   0  0  0  0  0  0  0  0  0  0  0  0
   -1.9244   -1.0018    1.8362 H   0  0  0  0  0  0  0  0  0  0  0  0
   -6.4897   -1.8201    2.1993 H   0  0  0  0  0  0  0  0  0  0  0  0
   -6.4526   -0.1425    2.7172 H   0  0  0  0  0  0  0  0  0  0  0  0
   -6.8628   -0.5399    1.0394 H   0  0  0  0  0  0  0  0  0  0  0  0
   -5.9011   -2.9184    0.4290 H   0  0  0  0  0  0  0  0  0  0  0  0
   -4.5503   -3.4130   -0.5495 H   0  0  0  0  0  0  0  0  0  0  0  0
   -0.6416   -1.0695   -0.6151 H   0  0  0  0  0  0  0  0  0  0  0  0
    2.7837    0.1841    2.0296 H   0  0  0  0  0  0  0  0  0  0  0  0
    0.9182   -0.2849   -1.8434 H   0  0  0  0  0  0  0  0  0  0  0  0
    5.5235    0.9100    1.5465 H   0  0  0  0  0  0  0  0  0  0  0  0
    5.6383   -0.8673    1.4053 H   0  0  0  0  0  0  0  0  0  0  0  0
    5.6798   -1.3081   -1.8876 H   0  0  0  0  0  0  0  0  0  0  0  0
    5.5831    0.3677   -2.5004 H   0  0  0  0  0  0  0  0  0  0  0  0
    8.6185    2.6015   -0.6807 H   0  0  0  0  0  0  0  0  0  0  0  0
    7.2594   -2.5558   -0.0444 H   0  0  0  0  0  0  0  0  0  0  0  0
    9.7068   -3.0819    0.0612 H   0  0  0  0  0  0  0  0  0  0  0  0
   11.3540   -1.2185   -0.1459 H   0  0  0  0  0  0  0  0  0  0  0  0
  1  2  2  0
  2  3  1  0
  3  4  2  0
  4  5  1  0
  5  6  2  0
  1  6  1  0
  1  7  1  0
  4  8  1  0
  5  9  1  0
 10  6  1  0
 11 12  1  0
 13 14  1  0
 14 15  1  0
 11 15  1  0
 12 10  1  0
 10 13  1  0
 12 16  1  0
 11 17  1  0
 17 18  1  0
 18 19  1  0
 18 20  1  0
 18 21  1  0
 15 22  2  0
 14 23  1  0
 23 24  1  0
 24 25  2  0
 24 26  1  0
 28 29  1  0
 29 30  2  0
 30 31  1  0
 27 31  2  0
 27 26  1  0
 26 28  2  0
 31 32  1  0
 30 33  1  0
 34 32  1  1
 34 33  1  0
 34 35  1  0
 35 36  2  0
 36 37  1  0
 37 38  1  0
 38 34  1  0
 38 39  2  0
 36 40  1  0
 35 41  1  0
 41 42  2  0
 40 43  2  0
 43 42  1  0
  2 44  1  0
  3 45  1  0
 10 46  1  1
 12 47  1  1
 13 48  1  0
 13 49  1  0
 14 50  1  1
 16 51  1  0
 16 52  1  0
 16 53  1  0
 17 54  1  0
 17 55  1  0
 23 56  1  0
 27 57  1  0
 28 58  1  0
 32 59  1  0
 32 60  1  0
 33 61  1  0
 33 62  1  0
 37 63  1  0
 41 64  1  0
 42 65  1  0
 43 66  1  0
M  END
$$$$
