
     RDKit          3D

 66 71  0  0  0  0  0  0  0  0999 V2000
   -6.4154   -0.6828    1.7789 C   0  0  0  0  0  0  0  0  0  0  0  0
   -7.3251   -0.2617    2.7498 C   0  0  0  0  0  0  0  0  0  0  0  0
   -7.2206    1.0204    3.2814 C   0  0  0  0  0  0  0  0  0  0  0  0
   -6.2116    1.8608    2.8257 C   0  0  0  0  0  0  0  0  0  0  0  0
   -5.3056    1.4309    1.8549 C   0  0  0  0  0  0  0  0  0  0  0  0
   -5.3797    0.1424    1.3150 C   0  0  0  0  0  0  0  0  0  0  0  0
   -6.5524   -1.9166    1.2728 F   0  0  0  0  0  0  0  0  0  0  0  0
   -6.1233    3.1028    3.3207 F   0  0  0  0  0  0  0  0  0  0  0  0
   -4.3769    2.2941    1.4218 F   0  0  0  0  0  0  0  0  0  0  0  0
   -4.4326   -0.3928    0.2566 C   0  0  1  0  0  0  0  0  0  0  0  0
   -4.0931   -0.9066   -2.1678 N   0  0  0  0  0  0  0  0  0  0  0  0
   -5.0099   -0.3062   -1.1798 C   0  0  2  0  0  0  0  0  0  0  0  0
   -3.0087    0.1824    0.2735 C   0  0  0  0  0  0  0  0  0  0  0  0
   -2.1221   -0.6581   -0.6398 C   0  0  1  0  0  0  0  0  0  0  0  0
   -2.7119   -0.8505   -2.0516 C   0  0  0  0  0  0  0  0  0  0  0  0
   -5.3559    1.1284   -1.6110 C   0  0  0  0  0  0  0  0  0  0  0  0
   -4.6619   -1.4017   -3.4398 C   0  0  0  0  0  0  0  0  0  0  0  0
   -4.8331   -2.9214   -3.4974 C   0  0  0  0  0  0  0  0  0  0  0  0
   -3.6734   -3.5823   -3.3034 F   0  0  0  0  0  0  0  0  0  0  0  0
   -5.7088   -3.3391   -2.5519 F   0  0  0  0  0  0  0  0  0  0  0  0
   -5.3290   -3.2994   -4.6983 F   0  0  0  0  0  0  0  0  0  0  0  0
   -1.9687   -1.0503   -3.0168 O   0  0  0  0  0  0  0  0  0  0  0  0
   -0.7811   -0.0958   -0.7880 N   0  0  0  0  0  0  0  0  0  0  0  0
    0.1385   -0.1813    0.2359 C   0  0  0  0  0  0  0  0  0  0  0  0
   -0.1385   -0.6172    1.3479 O   0  0  0  0  0  0  0  0  0  0  0  0
    1.5269    0.2385   -0.0716 C   0  0  0  0  0  0  0  0  0  0  0  0
    2.5811   -0.2666    0.6969 C   0  0  0  0  0  0  0  0  0  0  0  0
    1.8263    1.1414   -1.0948 C   0  0  0  0  0  0  0  0  0  0  0  0
    3.0832    1.5428   -1.4227 N   0  0  0  0  0  0  0  0  0  0  0  0
    4.0631    1.0345   -0.6578 C   0  0  0  0  0  0  0  0  0  0  0  0
    3.8655    0.1450    0.3883 C   0  0  0  0  0  0  0  0  0  0  0  0
    5.1539   -0.2684    1.0198 C   0  0  0  0  0  0  0  0  0  0  0  0
    5.5205    1.3286   -0.8732 C   0  0  0  0  0  0  0  0  0  0  0  0
    6.1610    0.7187    0.3888 C   0  0  2  0  0  0  0  0  0  0  0  0
    7.5192    0.1163    0.1424 C   0  0  0  0  0  0  0  0  0  0  0  0
    8.4735    0.7867    0.8935 C   0  0  0  0  0  0  0  0  0  0  0  0
    7.8736    1.7886    1.6242 N   0  0  0  0  0  0  0  0  0  0  0  0
    6.5097    1.8377    1.4022 C   0  0  0  0  0  0  0  0  0  0  0  0
    5.7383    2.6240    1.9246 O   0  0  0  0  0  0  0  0  0  0  0  0
    9.7784    0.5149    0.9165 N   0  0  0  0  0  0  0  0  0  0  0  0
    7.9177   -0.9302   -0.6676 C   0  0  0  0  0  0  0  0  0  0  0  0
    9.2741   -1.2520   -0.6782 C   0  0  0  0  0  0  0  0  0  0  0  0
   10.1521   -0.5130    0.1179 C   0  0  0  0  0  0  0  0  0  0  0  0
   -8.1081   -0.9379    3.0811 H   0  0  0  0  0  0  0  0  0  0  0  0
   -7.9170    1.3713    4.0367 H   0  0  0  0  0  0  0  0  0  0  0  0
   -4.3110   -1.4630    0.4883 H   0  0  0  0  0  0  0  0  0  0  0  0
   -5.9338   -0.8990   -1.2113 H   0  0  0  0  0  0  0  0  0  0  0  0
   -2.6129    0.1726    1.2963 H   0  0  0  0  0  0  0  0  0  0  0  0
   -2.9872    1.2274   -0.0550 H   0  0  0  0  0  0  0  0  0  0  0  0
   -2.0097   -1.6649   -0.2158 H   0  0  0  0  0  0  0  0  0  0  0  0
   -6.0921    1.5849   -0.9436 H   0  0  0  0  0  0  0  0  0  0  0  0
   -5.7906    1.1402   -2.6163 H   0  0  0  0  0  0  0  0  0  0  0  0
   -4.4706    1.7709   -1.6437 H   0  0  0  0  0  0  0  0  0  0  0  0
   -5.6343   -0.9256   -3.6032 H   0  0  0  0  0  0  0  0  0  0  0  0
   -4.0142   -1.0889   -4.2661 H   0  0  0  0  0  0  0  0  0  0  0  0
   -0.4360   -0.0764   -1.7444 H   0  0  0  0  0  0  0  0  0  0  0  0
    2.3939   -0.9621    1.5099 H   0  0  0  0  0  0  0  0  0  0  0  0
    1.0482    1.6000   -1.6980 H   0  0  0  0  0  0  0  0  0  0  0  0
    5.1030   -0.1799    2.1101 H   0  0  0  0  0  0  0  0  0  0  0  0
    5.3657   -1.3095    0.7529 H   0  0  0  0  0  0  0  0  0  0  0  0
    5.6890    2.4065   -0.9638 H   0  0  0  0  0  0  0  0  0  0  0  0
    5.8466    0.8340   -1.7945 H   0  0  0  0  0  0  0  0  0  0  0  0
    8.3801    2.4031    2.2408 H   0  0  0  0  0  0  0  0  0  0  0  0
    7.2107   -1.4846   -1.2764 H   0  0  0  0  0  0  0  0  0  0  0  0
    9.6486   -2.0631   -1.2950 H   0  0  0  0  0  0  0  0  0  0  0  0
   11.2148   -0.7418    0.1291 H   0  0  0  0  0  0  0  0  0  0  0  0
  1  2  2  0
  2  3  1  0
  3  4  2  0
  4  5  1  0
  5  6  2  0
  1  6  1  0
  1  7  1  0
  4  8  1  0
  5  9  1  0
 10  6  1  0
 11 12  1  0
 13 14  1  0
 14 15  1  0
 11 15  1  0
 12 10  1  0
 10 13  1  0
 12 16  1  0
 11 17  1  0
 17 18  1  0
 18 19  1  0
 18 20  1  0
 18 21  1  0
 15 22  2  0
 14 23  1  0
 23 24  1  0
 24 25  2  0
 24 26  1  0
 28 29  1  0
 29 30  2  0
 30 31  1  0
 27 31  2  0
 27 26  1  0
 26 28  2  0
 31 32  1  0
 30 33  1  0
 34 32  1  1
 34 33  1  0
 34 35  1  0
 35 36  2  0
 36 37  1  0
 37 38  1  0
 38 34  1  0
 38 39  2  0
 36 40  1  0
 35 41  1  0
 41 42  2  0
 40 43  2  0
 43 42  1  0
  2 44  1  0
  3 45  1  0
 10 46  1  1
 12 47  1  1
 13 48  1  0
 13 49  1  0
 14 50  1  1
 16 51  1  0
 16 52  1  0
 16 53  1  0
 17 54  1  0
 17 55  1  0
 23 56  1  0
 27 57  1  0
 28 58  1  0
 32 59  1  0
 32 60  1  0
 33 61  1  0
 33 62  1  0
 37 63  1  0
 41 64  1  0
 42 65  1  0
 43 66  1  0
M  END
$$$$
