
     RDKit          3D

 66 71  0  0  0  0  0  0  0  0999 V2000
   -5.2017   -2.3717   -1.7116 C   0  0  0  0  0  0  0  0  0  0  0  0
   -5.5807   -3.5714   -1.1061 C   0  0  0  0  0  0  0  0  0  0  0  0
   -4.9872   -3.9571    0.0921 C   0  0  0  0  0  0  0  0  0  0  0  0
   -4.0250   -3.1345    0.6645 C   0  0  0  0  0  0  0  0  0  0  0  0
   -3.6547   -1.9361    0.0532 C   0  0  0  0  0  0  0  0  0  0  0  0
   -4.2329   -1.5240   -1.1531 C   0  0  0  0  0  0  0  0  0  0  0  0
   -5.7996   -2.0284   -2.8617 F   0  0  0  0  0  0  0  0  0  0  0  0
   -3.4480   -3.5063    1.8151 F   0  0  0  0  0  0  0  0  0  0  0  0
   -2.7220   -1.1782    0.6456 F   0  0  0  0  0  0  0  0  0  0  0  0
   -3.8703   -0.2248   -1.8620 C   0  0  1  0  0  0  0  0  0  0  0  0
   -4.1410    1.4794   -0.0576 N   0  0  0  0  0  0  0  0  0  0  0  0
   -4.6610    1.0185   -1.3554 C   0  0  2  0  0  0  0  0  0  0  0  0
   -2.3465    0.0520   -1.8831 C   0  0  0  0  0  0  0  0  0  0  0  0
   -1.9218    1.3302   -1.1484 C   0  0  1  0  0  0  0  0  0  0  0  0
   -2.7652    1.6066    0.1103 C   0  0  0  0  0  0  0  0  0  0  0  0
   -6.1793    0.8437   -1.4518 C   0  0  0  0  0  0  0  0  0  0  0  0
   -5.0113    1.8012    1.0940 C   0  0  0  0  0  0  0  0  0  0  0  0
   -5.2624    0.6670    2.0920 C   0  0  0  0  0  0  0  0  0  0  0  0
   -4.1312    0.2042    2.6575 F   0  0  0  0  0  0  0  0  0  0  0  0
   -6.0723    1.0958    3.0904 F   0  0  0  0  0  0  0  0  0  0  0  0
   -5.8880   -0.3777    1.5008 F   0  0  0  0  0  0  0  0  0  0  0  0
   -2.2521    1.9760    1.1672 O   0  0  0  0  0  0  0  0  0  0  0  0
   -0.5174    1.2882   -0.7547 N   0  0  0  0  0  0  0  0  0  0  0  0
    0.4985    1.4211   -1.6717 C   0  0  0  0  0  0  0  0  0  0  0  0
    0.2974    1.5106   -2.8780 O   0  0  0  0  0  0  0  0  0  0  0  0
    1.8814    1.4744   -1.1379 C   0  0  0  0  0  0  0  0  0  0  0  0
    2.2347    1.0042    0.1320 C   0  0  0  0  0  0  0  0  0  0  0  0
    2.8880    1.9977   -1.9565 C   0  0  0  0  0  0  0  0  0  0  0  0
    4.1954    2.1073   -1.5968 N   0  0  0  0  0  0  0  0  0  0  0  0
    4.4871    1.6577   -0.3677 C   0  0  0  0  0  0  0  0  0  0  0  0
    3.5637    1.1006    0.5076 C   0  0  0  0  0  0  0  0  0  0  0  0
    4.2079    0.6930    1.7940 C   0  0  0  0  0  0  0  0  0  0  0  0
    5.8630    1.7056    0.2377 C   0  0  0  0  0  0  0  0  0  0  0  0
    5.7076    0.7336    1.4225 C   0  0  2  0  0  0  0  0  0  0  0  0
    6.2925   -0.6329    1.1558 C   0  0  0  0  0  0  0  0  0  0  0  0
    7.2966   -0.8913    2.0780 C   0  0  0  0  0  0  0  0  0  0  0  0
    7.4355    0.1826    2.9315 N   0  0  0  0  0  0  0  0  0  0  0  0
    6.5485    1.1979    2.6260 C   0  0  0  0  0  0  0  0  0  0  0  0
    6.4552    2.2614    3.2155 O   0  0  0  0  0  0  0  0  0  0  0  0
    8.0293   -2.0032    2.1409 N   0  0  0  0  0  0  0  0  0  0  0  0
    5.9994   -1.5850    0.1981 C   0  0  0  0  0  0  0  0  0  0  0  0
    6.7413   -2.7652    0.2217 C   0  0  0  0  0  0  0  0  0  0  0  0
    7.7292   -2.9263    1.1962 C   0  0  0  0  0  0  0  0  0  0  0  0
   -6.3375   -4.1934   -1.5757 H   0  0  0  0  0  0  0  0  0  0  0  0
   -5.2651   -4.8847    0.5824 H   0  0  0  0  0  0  0  0  0  0  0  0
   -4.1486   -0.3647   -2.9172 H   0  0  0  0  0  0  0  0  0  0  0  0
   -4.4227    1.8388   -2.0485 H   0  0  0  0  0  0  0  0  0  0  0  0
   -2.0373    0.1570   -2.9329 H   0  0  0  0  0  0  0  0  0  0  0  0
   -1.7725   -0.8115   -1.5242 H   0  0  0  0  0  0  0  0  0  0  0  0
   -2.0480    2.1968   -1.8106 H   0  0  0  0  0  0  0  0  0  0  0  0
   -6.5661    0.1291   -0.7209 H   0  0  0  0  0  0  0  0  0  0  0  0
   -6.6932    1.7975   -1.2905 H   0  0  0  0  0  0  0  0  0  0  0  0
   -6.4649    0.4971   -2.4509 H   0  0  0  0  0  0  0  0  0  0  0  0
   -4.5431    2.6257    1.6455 H   0  0  0  0  0  0  0  0  0  0  0  0
   -5.9612    2.1993    0.7285 H   0  0  0  0  0  0  0  0  0  0  0  0
   -0.3429    1.4624    0.2312 H   0  0  0  0  0  0  0  0  0  0  0  0
    1.5117    0.5572    0.8047 H   0  0  0  0  0  0  0  0  0  0  0  0
    2.6626    2.3622   -2.9565 H   0  0  0  0  0  0  0  0  0  0  0  0
    3.9518    1.4193    2.5734 H   0  0  0  0  0  0  0  0  0  0  0  0
    3.8747   -0.3025    2.1063 H   0  0  0  0  0  0  0  0  0  0  0  0
    6.6218    1.3916   -0.4859 H   0  0  0  0  0  0  0  0  0  0  0  0
    6.0749    2.7306    0.5605 H   0  0  0  0  0  0  0  0  0  0  0  0
    8.1133    0.2105    3.6760 H   0  0  0  0  0  0  0  0  0  0  0  0
    5.2293   -1.4291   -0.5509 H   0  0  0  0  0  0  0  0  0  0  0  0
    6.5596   -3.5496   -0.5067 H   0  0  0  0  0  0  0  0  0  0  0  0
    8.3230   -3.8362    1.2367 H   0  0  0  0  0  0  0  0  0  0  0  0
  1  2  2  0
  2  3  1  0
  3  4  2  0
  4  5  1  0
  5  6  2  0
  1  6  1  0
  1  7  1  0
  4  8  1  0
  5  9  1  0
 10  6  1  0
 11 12  1  0
 13 14  1  0
 14 15  1  0
 11 15  1  0
 12 10  1  0
 10 13  1  0
 12 16  1  0
 11 17  1  0
 17 18  1  0
 18 19  1  0
 18 20  1  0
 18 21  1  0
 15 22  2  0
 14 23  1  0
 23 24  1  0
 24 25  2  0
 24 26  1  0
 28 29  1  0
 29 30  2  0
 30 31  1  0
 27 31  2  0
 27 26  1  0
 26 28  2  0
 31 32  1  0
 30 33  1  0
 34 32  1  1
 34 33  1  0
 34 35  1  0
 35 36  2  0
 36 37  1  0
 37 38  1  0
 38 34  1  0
 38 39  2  0
 36 40  1  0
 35 41  1  0
 41 42  2  0
 40 43  2  0
 43 42  1  0
  2 44  1  0
  3 45  1  0
 10 46  1  6
 12 47  1  6
 13 48  1  0
 13 49  1  0
 14 50  1  6
 16 51  1  0
 16 52  1  0
 16 53  1  0
 17 54  1  0
 17 55  1  0
 23 56  1  0
 27 57  1  0
 28 58  1  0
 32 59  1  0
 32 60  1  0
 33 61  1  0
 33 62  1  0
 37 63  1  0
 41 64  1  0
 42 65  1  0
 43 66  1  0
M  END
$$$$
