
     RDKit          3D

 66 71  0  0  0  0  0  0  0  0999 V2000
   -5.2830   -0.2041    2.1930 C   0  0  0  0  0  0  0  0  0  0  0  0
   -6.2787   -0.1392    3.1711 C   0  0  0  0  0  0  0  0  0  0  0  0
   -7.4189   -0.9307    3.0577 C   0  0  0  0  0  0  0  0  0  0  0  0
   -7.5510   -1.7700    1.9593 C   0  0  0  0  0  0  0  0  0  0  0  0
   -6.5537   -1.8280    0.9874 C   0  0  0  0  0  0  0  0  0  0  0  0
   -5.3884   -1.0547    1.0857 C   0  0  0  0  0  0  0  0  0  0  0  0
   -4.2245    0.6041    2.3301 F   0  0  0  0  0  0  0  0  0  0  0  0
   -8.6498   -2.5268    1.8394 F   0  0  0  0  0  0  0  0  0  0  0  0
   -6.7180   -2.6383   -0.0703 F   0  0  0  0  0  0  0  0  0  0  0  0
   -4.3333   -1.1765    0.0018 C   0  0  1  0  0  0  0  0  0  0  0  0
   -3.6644   -0.6339   -2.3481 N   0  0  0  0  0  0  0  0  0  0  0  0
   -4.6666   -0.3766   -1.2855 C   0  0  2  0  0  0  0  0  0  0  0  0
   -2.8917   -0.8690    0.4260 C   0  0  0  0  0  0  0  0  0  0  0  0
   -1.9464   -1.3666   -0.6608 C   0  0  1  0  0  0  0  0  0  0  0  0
   -2.3243   -0.8803   -2.0746 C   0  0  0  0  0  0  0  0  0  0  0  0
   -4.8205    1.1277   -1.0328 C   0  0  0  0  0  0  0  0  0  0  0  0
   -4.0320   -0.3714   -3.7590 C   0  0  0  0  0  0  0  0  0  0  0  0
   -3.6136    0.9664   -4.3915 C   0  0  0  0  0  0  0  0  0  0  0  0
   -2.2833    1.1685   -4.4170 F   0  0  0  0  0  0  0  0  0  0  0  0
   -4.0511    1.0171   -5.6757 F   0  0  0  0  0  0  0  0  0  0  0  0
   -4.1726    2.0187   -3.7545 F   0  0  0  0  0  0  0  0  0  0  0  0
   -1.4633   -0.8286   -2.9562 O   0  0  0  0  0  0  0  0  0  0  0  0
   -0.5573   -0.9842   -0.4153 N   0  0  0  0  0  0  0  0  0  0  0  0
    0.1807   -1.5959    0.5769 C   0  0  0  0  0  0  0  0  0  0  0  0
   -0.3026   -2.3784    1.3879 O   0  0  0  0  0  0  0  0  0  0  0  0
    1.6313   -1.2925    0.6072 C   0  0  0  0  0  0  0  0  0  0  0  0
    2.1812   -0.1352    0.0442 C   0  0  0  0  0  0  0  0  0  0  0  0
    2.4855   -2.1904    1.2553 C   0  0  0  0  0  0  0  0  0  0  0  0
    3.8323   -2.0336    1.3562 N   0  0  0  0  0  0  0  0  0  0  0  0
    4.3220   -0.9284    0.7732 C   0  0  0  0  0  0  0  0  0  0  0  0
    3.5527    0.0334    0.1316 C   0  0  0  0  0  0  0  0  0  0  0  0
    4.3883    1.1744   -0.3521 C   0  0  0  0  0  0  0  0  0  0  0  0
    5.7777   -0.5569    0.7927 C   0  0  0  0  0  0  0  0  0  0  0  0
    5.8187    0.6088   -0.2136 C   0  0  2  0  0  0  0  0  0  0  0  0
    6.8581    1.6475    0.1144 C   0  0  0  0  0  0  0  0  0  0  0  0
    7.7989    1.7079   -0.9036 C   0  0  0  0  0  0  0  0  0  0  0  0
    7.4770    0.8039   -1.8919 N   0  0  0  0  0  0  0  0  0  0  0  0
    6.3211    0.1075   -1.5912 C   0  0  0  0  0  0  0  0  0  0  0  0
    5.8005   -0.7373   -2.3004 O   0  0  0  0  0  0  0  0  0  0  0  0
    8.8585    2.5161   -0.9379 N   0  0  0  0  0  0  0  0  0  0  0  0
    6.9992    2.4818    1.2072 C   0  0  0  0  0  0  0  0  0  0  0  0
    8.0949    3.3440    1.2183 C   0  0  0  0  0  0  0  0  0  0  0  0
    8.9827    3.3259    0.1403 C   0  0  0  0  0  0  0  0  0  0  0  0
   -6.1529    0.5334    4.0162 H   0  0  0  0  0  0  0  0  0  0  0  0
   -8.2009   -0.8951    3.8095 H   0  0  0  0  0  0  0  0  0  0  0  0
   -4.3309   -2.2422   -0.2755 H   0  0  0  0  0  0  0  0  0  0  0  0
   -5.6249   -0.7520   -1.6681 H   0  0  0  0  0  0  0  0  0  0  0  0
   -2.7367    0.2031    0.5928 H   0  0  0  0  0  0  0  0  0  0  0  0
   -2.6653   -1.3674    1.3761 H   0  0  0  0  0  0  0  0  0  0  0  0
   -1.9794   -2.4639   -0.6972 H   0  0  0  0  0  0  0  0  0  0  0  0
   -3.8550    1.6169   -0.8740 H   0  0  0  0  0  0  0  0  0  0  0  0
   -5.2987    1.6103   -1.8897 H   0  0  0  0  0  0  0  0  0  0  0  0
   -5.4631    1.3438   -0.1769 H   0  0  0  0  0  0  0  0  0  0  0  0
   -3.5799   -1.1729   -4.3564 H   0  0  0  0  0  0  0  0  0  0  0  0
   -5.1174   -0.4908   -3.8538 H   0  0  0  0  0  0  0  0  0  0  0  0
   -0.0555   -0.6683   -1.2419 H   0  0  0  0  0  0  0  0  0  0  0  0
    1.5650    0.6197   -0.4311 H   0  0  0  0  0  0  0  0  0  0  0  0
    2.0976   -3.0928    1.7246 H   0  0  0  0  0  0  0  0  0  0  0  0
    4.2191    2.0431    0.2943 H   0  0  0  0  0  0  0  0  0  0  0  0
    4.1363    1.4379   -1.3852 H   0  0  0  0  0  0  0  0  0  0  0  0
    6.0494   -0.2477    1.8079 H   0  0  0  0  0  0  0  0  0  0  0  0
    6.4005   -1.4064    0.4942 H   0  0  0  0  0  0  0  0  0  0  0  0
    8.0221    0.6833   -2.7302 H   0  0  0  0  0  0  0  0  0  0  0  0
    6.2929    2.4719    2.0315 H   0  0  0  0  0  0  0  0  0  0  0  0
    8.2619    4.0207    2.0505 H   0  0  0  0  0  0  0  0  0  0  0  0
    9.8437    3.9890    0.1217 H   0  0  0  0  0  0  0  0  0  0  0  0
  1  2  2  0
  2  3  1  0
  3  4  2  0
  4  5  1  0
  5  6  2  0
  1  6  1  0
  1  7  1  0
  4  8  1  0
  5  9  1  0
 10  6  1  0
 11 12  1  0
 13 14  1  0
 14 15  1  0
 11 15  1  0
 12 10  1  0
 10 13  1  0
 12 16  1  0
 11 17  1  0
 17 18  1  0
 18 19  1  0
 18 20  1  0
 18 21  1  0
 15 22  2  0
 14 23  1  0
 23 24  1  0
 24 25  2  0
 24 26  1  0
 28 29  1  0
 29 30  2  0
 30 31  1  0
 27 31  2  0
 27 26  1  0
 26 28  2  0
 31 32  1  0
 30 33  1  0
 34 32  1  6
 34 33  1  0
 34 35  1  0
 35 36  2  0
 36 37  1  0
 37 38  1  0
 38 34  1  0
 38 39  2  0
 36 40  1  0
 35 41  1  0
 41 42  2  0
 40 43  2  0
 43 42  1  0
  2 44  1  0
  3 45  1  0
 10 46  1  6
 12 47  1  6
 13 48  1  0
 13 49  1  0
 14 50  1  6
 16 51  1  0
 16 52  1  0
 16 53  1  0
 17 54  1  0
 17 55  1  0
 23 56  1  0
 27 57  1  0
 28 58  1  0
 32 59  1  0
 32 60  1  0
 33 61  1  0
 33 62  1  0
 37 63  1  0
 41 64  1  0
 42 65  1  0
 43 66  1  0
M  END
$$$$
