
     RDKit          3D

 66 71  0  0  0  0  0  0  0  0999 V2000
   -5.3230    2.2966    0.9770 C   0  0  0  0  0  0  0  0  0  0  0  0
   -6.3138    3.0458    1.6176 C   0  0  0  0  0  0  0  0  0  0  0  0
   -7.3803    2.4025    2.2412 C   0  0  0  0  0  0  0  0  0  0  0  0
   -7.4442    1.0156    2.2078 C   0  0  0  0  0  0  0  0  0  0  0  0
   -6.4519    0.2760    1.5667 C   0  0  0  0  0  0  0  0  0  0  0  0
   -5.3594    0.8977    0.9442 C   0  0  0  0  0  0  0  0  0  0  0  0
   -4.3404    2.9656    0.3606 F   0  0  0  0  0  0  0  0  0  0  0  0
   -8.4753    0.3913    2.7923 F   0  0  0  0  0  0  0  0  0  0  0  0
   -6.5526   -1.0619    1.5371 F   0  0  0  0  0  0  0  0  0  0  0  0
   -4.3116    0.0340    0.2652 C   0  0  1  0  0  0  0  0  0  0  0  0
   -3.7216   -1.3372   -1.7449 N   0  0  0  0  0  0  0  0  0  0  0  0
   -4.7365   -0.4478   -1.1467 C   0  0  2  0  0  0  0  0  0  0  0  0
   -2.8945    0.6225    0.2019 C   0  0  0  0  0  0  0  0  0  0  0  0
   -1.9213   -0.4674   -0.2344 C   0  0  1  0  0  0  0  0  0  0  0  0
   -2.3602   -1.1917   -1.5227 C   0  0  0  0  0  0  0  0  0  0  0  0
   -5.0379    0.7074   -2.1156 C   0  0  0  0  0  0  0  0  0  0  0  0
   -4.1556   -2.2928   -2.7871 C   0  0  0  0  0  0  0  0  0  0  0  0
   -4.3496   -3.7236   -2.2803 C   0  0  0  0  0  0  0  0  0  0  0  0
   -3.2345   -4.2261   -1.7105 F   0  0  0  0  0  0  0  0  0  0  0  0
   -4.7021   -4.5452   -3.2960 F   0  0  0  0  0  0  0  0  0  0  0  0
   -5.3419   -3.7733   -1.3597 F   0  0  0  0  0  0  0  0  0  0  0  0
   -1.5198   -1.7031   -2.2674 O   0  0  0  0  0  0  0  0  0  0  0  0
   -0.5699    0.0458   -0.4517 N   0  0  0  0  0  0  0  0  0  0  0  0
    0.2395    0.3844    0.6109 C   0  0  0  0  0  0  0  0  0  0  0  0
   -0.1484    0.3940    1.7735 O   0  0  0  0  0  0  0  0  0  0  0  0
    1.6529    0.7024    0.2991 C   0  0  0  0  0  0  0  0  0  0  0  0
    2.6292    0.5272    1.2855 C   0  0  0  0  0  0  0  0  0  0  0  0
    2.0466    1.2014   -0.9456 C   0  0  0  0  0  0  0  0  0  0  0  0
    3.3282    1.5066   -1.2812 N   0  0  0  0  0  0  0  0  0  0  0  0
    4.2339    1.3099   -0.3101 C   0  0  0  0  0  0  0  0  0  0  0  0
    3.9387    0.8284    0.9591 C   0  0  0  0  0  0  0  0  0  0  0  0
    5.1645    0.7400    1.8099 C   0  0  0  0  0  0  0  0  0  0  0  0
    5.7006    1.6097   -0.4577 C   0  0  0  0  0  0  0  0  0  0  0  0
    6.2869    0.8595    0.7539 C   0  0  2  0  0  0  0  0  0  0  0  0
    6.9074   -0.4691    0.3915 C   0  0  0  0  0  0  0  0  0  0  0  0
    8.2528   -0.4557    0.7305 C   0  0  0  0  0  0  0  0  0  0  0  0
    8.5846    0.7644    1.2806 N   0  0  0  0  0  0  0  0  0  0  0  0
    7.4963    1.6154    1.3344 C   0  0  0  0  0  0  0  0  0  0  0  0
    7.5059    2.7542    1.7710 O   0  0  0  0  0  0  0  0  0  0  0  0
    9.1102   -1.4612    0.5546 N   0  0  0  0  0  0  0  0  0  0  0  0
    6.3721   -1.6046   -0.1860 C   0  0  0  0  0  0  0  0  0  0  0  0
    7.2309   -2.6834   -0.3917 C   0  0  0  0  0  0  0  0  0  0  0  0
    8.5696   -2.5668   -0.0106 C   0  0  0  0  0  0  0  0  0  0  0  0
   -6.2448    4.1304    1.6195 H   0  0  0  0  0  0  0  0  0  0  0  0
   -8.1588    2.9686    2.7429 H   0  0  0  0  0  0  0  0  0  0  0  0
   -4.2207   -0.8646    0.8963 H   0  0  0  0  0  0  0  0  0  0  0  0
   -5.6513   -1.0456   -1.0407 H   0  0  0  0  0  0  0  0  0  0  0  0
   -2.8351    1.4666   -0.4941 H   0  0  0  0  0  0  0  0  0  0  0  0
   -2.6069    1.0125    1.1856 H   0  0  0  0  0  0  0  0  0  0  0  0
   -1.8576   -1.2376    0.5459 H   0  0  0  0  0  0  0  0  0  0  0  0
   -4.1542    1.3247   -2.3047 H   0  0  0  0  0  0  0  0  0  0  0  0
   -5.3697    0.3266   -3.0875 H   0  0  0  0  0  0  0  0  0  0  0  0
   -5.8374    1.3522   -1.7397 H   0  0  0  0  0  0  0  0  0  0  0  0
   -3.4125   -2.3048   -3.5923 H   0  0  0  0  0  0  0  0  0  0  0  0
   -5.0924   -1.9368   -3.2286 H   0  0  0  0  0  0  0  0  0  0  0  0
   -0.1292   -0.2812   -1.3080 H   0  0  0  0  0  0  0  0  0  0  0  0
    2.3641    0.1631    2.2741 H   0  0  0  0  0  0  0  0  0  0  0  0
    1.3263    1.3985   -1.7348 H   0  0  0  0  0  0  0  0  0  0  0  0
    5.1724    1.5722    2.5228 H   0  0  0  0  0  0  0  0  0  0  0  0
    5.1990   -0.2062    2.3606 H   0  0  0  0  0  0  0  0  0  0  0  0
    5.8514    2.6929   -0.3941 H   0  0  0  0  0  0  0  0  0  0  0  0
    6.0804    1.2479   -1.4188 H   0  0  0  0  0  0  0  0  0  0  0  0
    9.5143    0.9934    1.5933 H   0  0  0  0  0  0  0  0  0  0  0  0
    5.3278   -1.6646   -0.4754 H   0  0  0  0  0  0  0  0  0  0  0  0
    6.8694   -3.6026   -0.8422 H   0  0  0  0  0  0  0  0  0  0  0  0
    9.2608   -3.3929   -0.1592 H   0  0  0  0  0  0  0  0  0  0  0  0
  1  2  2  0
  2  3  1  0
  3  4  2  0
  4  5  1  0
  5  6  2  0
  1  6  1  0
  1  7  1  0
  4  8  1  0
  5  9  1  0
 10  6  1  0
 11 12  1  0
 13 14  1  0
 14 15  1  0
 11 15  1  0
 12 10  1  0
 10 13  1  0
 12 16  1  0
 11 17  1  0
 17 18  1  0
 18 19  1  0
 18 20  1  0
 18 21  1  0
 15 22  2  0
 14 23  1  0
 23 24  1  0
 24 25  2  0
 24 26  1  0
 28 29  1  0
 29 30  2  0
 30 31  1  0
 27 31  2  0
 27 26  1  0
 26 28  2  0
 31 32  1  0
 30 33  1  0
 34 32  1  1
 34 33  1  0
 34 35  1  0
 35 36  2  0
 36 37  1  0
 37 38  1  0
 38 34  1  0
 38 39  2  0
 36 40  1  0
 35 41  1  0
 41 42  2  0
 40 43  2  0
 43 42  1  0
  2 44  1  0
  3 45  1  0
 10 46  1  1
 12 47  1  1
 13 48  1  0
 13 49  1  0
 14 50  1  1
 16 51  1  0
 16 52  1  0
 16 53  1  0
 17 54  1  0
 17 55  1  0
 23 56  1  0
 27 57  1  0
 28 58  1  0
 32 59  1  0
 32 60  1  0
 33 61  1  0
 33 62  1  0
 37 63  1  0
 41 64  1  0
 42 65  1  0
 43 66  1  0
M  END
$$$$
