
     RDKit          3D

 34 33  0  0  0  0  0  0  0  0999 V2000
   44.6073    3.8685    8.6226 C   0  0  0  0  0  0  0  0  0  0  0  0
   45.1822    4.4139    9.9225 C   0  0  0  0  0  0  0  0  0  0  0  0
   44.9060    3.5755   11.0885 N   0  0  0  0  0  0  0  0  0  0  0  0
   43.4986    3.4966   11.4784 C   0  0  0  0  0  0  0  0  0  0  0  0
   42.9181    4.8247   11.9432 C   0  0  0  0  0  0  0  0  0  0  0  0
   43.3880    5.9887   11.6913 S   0  0  0  0  0  0  0  0  0  0  0  0
   43.9228    4.6120   10.7174 C   0  0  0  0  0  0  0  0  0  0  0  0
   43.8144    3.3110   11.2130 C   0  0  0  0  0  0  0  0  0  0  0  0
   44.4716    4.8543    9.4531 C   0  0  0  0  0  0  0  0  0  0  0  0
   44.2466    2.2360   10.4369 C   0  0  0  0  0  0  0  0  0  0  0  0
   44.1963    7.1298   11.3160 O   0  0  0  0  0  0  0  0  0  0  0  0
   41.9437    6.0197   11.6133 O   0  0  0  0  0  0  0  0  0  0  0  0
   43.7812    5.5943   13.2087 O   0  0  0  0  0  0  0  0  0  0  0  0
   44.7899    2.4723    9.1718 C   0  0  0  0  0  0  0  0  0  0  0  0
   43.2895    3.0836   12.4565 O   0  0  0  0  0  0  0  0  0  0  0  0
   44.8998    3.7742    8.6918 C   0  0  0  0  0  0  0  0  0  0  0  0
   45.4422    3.9473    7.4541 O   0  0  0  0  0  0  0  0  0  0  0  0
   43.5135    3.8937    8.6212 H   0  0  0  0  0  0  0  0  0  0  0  0
   44.9526    4.4745    7.7786 H   0  0  0  0  0  0  0  0  0  0  0  0
   44.9311    2.8371    8.4480 H   0  0  0  0  0  0  0  0  0  0  0  0
   44.8469    5.4436   10.0842 H   0  0  0  0  0  0  0  0  0  0  0  0
   46.2717    4.4718    9.8145 H   0  0  0  0  0  0  0  0  0  0  0  0
   45.2497    2.6322   10.9073 H   0  0  0  0  0  0  0  0  0  0  0  0
   42.8856    3.0752   10.6746 H   0  0  0  0  0  0  0  0  0  0  0  0
   43.4304    2.7910   12.3148 H   0  0  0  0  0  0  0  0  0  0  0  0
   43.5347    5.2728   12.7294 H   0  0  0  0  0  0  0  0  0  0  0  0
   41.9144    4.6699   12.3529 H   0  0  0  0  0  0  0  0  0  0  0  0
   42.8298    5.5402   11.1202 H   0  0  0  0  0  0  0  0  0  0  0  0
   44.5575    5.8715    9.0807 H   0  0  0  0  0  0  0  0  0  0  0  0
   44.1774    1.2122   10.7929 H   0  0  0  0  0  0  0  0  0  0  0  0
   43.3852    4.7134   13.4011 H   0  0  0  0  0  0  0  0  0  0  0  0
   45.1318    1.6415    8.5591 H   0  0  0  0  0  0  0  0  0  0  0  0
   43.1833    2.1193   12.5724 H   0  0  0  0  0  0  0  0  0  0  0  0
   45.4756    4.8973    7.2495 H   0  0  0  0  0  0  0  0  0  0  0  0
  1  2  1  0
  2  3  1  0
  3  4  1  0
  4  5  1  0
  7  6  1  0
  8  7  2  0
  9  7  1  0
 10  8  1  0
 11  6  2  0
 12  6  2  0
 13  6  1  0
 14 16  1  0
 15  8  1  0
 16  9  2  0
 10 14  2  0
 16 17  1  0
  1 18  1  0
  1 19  1  0
  1 20  1  0
  2 21  1  0
  2 22  1  0
  3 23  1  0
  4 24  1  0
  4 25  1  0
  5 26  1  0
  5 27  1  0
  5 28  1  0
  9 29  1  0
 10 30  1  0
 13 31  1  0
 14 32  1  0
 15 33  1  0
 17 34  1  0
M  END
> <Uni-Dock RESULT> 
ENERGY=   -6.254  LOWER_BOUND=    0.000  UPPER_BOUND=    0.000
INTER + INTRA:          -6.254
INTER:                  -6.254
INTRA:                   0.000
UNBOUND:                 0.000

$$$$

     RDKit          3D

 34 33  0  0  0  0  0  0  0  0999 V2000
   45.9934    2.1962    8.4472 C   0  0  0  0  0  0  0  0  0  0  0  0
   44.5366    2.5339    8.7322 C   0  0  0  0  0  0  0  0  0  0  0  0
   44.2701    3.9689    8.8261 N   0  0  0  0  0  0  0  0  0  0  0  0
   44.8867    4.6423    9.9687 C   0  0  0  0  0  0  0  0  0  0  0  0
   44.3575    4.1692   11.3151 C   0  0  0  0  0  0  0  0  0  0  0  0
   43.7508    3.0661   11.5476 S   0  0  0  0  0  0  0  0  0  0  0  0
   44.6725    3.2456   10.0483 C   0  0  0  0  0  0  0  0  0  0  0  0
   44.9551    4.5151    9.5400 C   0  0  0  0  0  0  0  0  0  0  0  0
   45.0946    2.0934    9.3754 C   0  0  0  0  0  0  0  0  0  0  0  0
   45.6766    4.6410    8.3533 C   0  0  0  0  0  0  0  0  0  0  0  0
   43.0335    1.8106   11.4721 O   0  0  0  0  0  0  0  0  0  0  0  0
   44.6594    3.3600   12.6344 O   0  0  0  0  0  0  0  0  0  0  0  0
   42.6553    4.2536   11.4995 O   0  0  0  0  0  0  0  0  0  0  0  0
   46.1052    3.4940    7.6808 C   0  0  0  0  0  0  0  0  0  0  0  0
   44.5263    5.6368   10.1969 O   0  0  0  0  0  0  0  0  0  0  0  0
   45.8106    2.2338    8.1934 C   0  0  0  0  0  0  0  0  0  0  0  0
   46.2480    1.1496    7.4941 O   0  0  0  0  0  0  0  0  0  0  0  0
   46.6418    2.4560    9.2893 H   0  0  0  0  0  0  0  0  0  0  0  0
   46.0991    1.1211    8.2687 H   0  0  0  0  0  0  0  0  0  0  0  0
   46.3548    2.7200    7.5562 H   0  0  0  0  0  0  0  0  0  0  0  0
   44.1915    2.0055    9.6269 H   0  0  0  0  0  0  0  0  0  0  0  0
   43.9295    2.1440    7.9066 H   0  0  0  0  0  0  0  0  0  0  0  0
   44.5866    4.4216    7.9684 H   0  0  0  0  0  0  0  0  0  0  0  0
   45.9783    4.5580    9.9392 H   0  0  0  0  0  0  0  0  0  0  0  0
   44.6617    5.7115    9.8781 H   0  0  0  0  0  0  0  0  0  0  0  0
   43.2643    4.2222   11.3517 H   0  0  0  0  0  0  0  0  0  0  0  0
   44.7500    4.8063   12.1147 H   0  0  0  0  0  0  0  0  0  0  0  0
   44.6634    3.1418   11.5341 H   0  0  0  0  0  0  0  0  0  0  0  0
   44.8627    1.1106    9.7767 H   0  0  0  0  0  0  0  0  0  0  0  0
   45.9123    5.6133    7.9304 H   0  0  0  0  0  0  0  0  0  0  0  0
   43.1376    5.1000   11.3547 H   0  0  0  0  0  0  0  0  0  0  0  0
   46.6667    3.5808    6.7537 H   0  0  0  0  0  0  0  0  0  0  0  0
   44.9215    6.4168    9.7608 H   0  0  0  0  0  0  0  0  0  0  0  0
   45.9628    0.3390    7.9492 H   0  0  0  0  0  0  0  0  0  0  0  0
  1  2  1  0
  2  3  1  0
  3  4  1  0
  4  5  1  0
  7  6  1  0
  8  7  2  0
  9  7  1  0
 10  8  1  0
 11  6  2  0
 12  6  2  0
 13  6  1  0
 14 16  1  0
 15  8  1  0
 16  9  2  0
 10 14  2  0
 16 17  1  0
  1 18  1  0
  1 19  1  0
  1 20  1  0
  2 21  1  0
  2 22  1  0
  3 23  1  0
  4 24  1  0
  4 25  1  0
  5 26  1  0
  5 27  1  0
  5 28  1  0
  9 29  1  0
 10 30  1  0
 13 31  1  0
 14 32  1  0
 15 33  1  0
 17 34  1  0
M  END
> <Uni-Dock RESULT> 
ENERGY=   -6.023  LOWER_BOUND=    1.693  UPPER_BOUND=    2.898
INTER + INTRA:          -6.023
INTER:                  -6.023
INTRA:                   0.000
UNBOUND:                 0.000

$$$$

     RDKit          3D

 34 33  0  0  0  0  0  0  0  0999 V2000
   45.1767    4.4583    9.4329 C   0  0  0  0  0  0  0  0  0  0  0  0
   44.8674    3.8857    8.0567 C   0  0  0  0  0  0  0  0  0  0  0  0
   44.7668    2.4268    8.0327 N   0  0  0  0  0  0  0  0  0  0  0  0
   46.0150    1.7130    8.3001 C   0  0  0  0  0  0  0  0  0  0  0  0
   47.0863    1.9383    7.2427 C   0  0  0  0  0  0  0  0  0  0  0  0
   47.1376    2.9078    6.4081 S   0  0  0  0  0  0  0  0  0  0  0  0
   46.0915    3.0450    7.8281 C   0  0  0  0  0  0  0  0  0  0  0  0
   45.6527    1.8999    8.4960 C   0  0  0  0  0  0  0  0  0  0  0  0
   45.6994    4.3188    8.2551 C   0  0  0  0  0  0  0  0  0  0  0  0
   44.8226    2.0232    9.6099 C   0  0  0  0  0  0  0  0  0  0  0  0
   46.8717    4.0490    5.5575 O   0  0  0  0  0  0  0  0  0  0  0  0
   48.4677    2.6148    6.8957 O   0  0  0  0  0  0  0  0  0  0  0  0
   46.6065    1.5921    5.6337 O   0  0  0  0  0  0  0  0  0  0  0  0
   44.4331    3.2928   10.0435 C   0  0  0  0  0  0  0  0  0  0  0  0
   46.0292    0.6571    8.0635 O   0  0  0  0  0  0  0  0  0  0  0  0
   44.8708    4.4265    9.3647 C   0  0  0  0  0  0  0  0  0  0  0  0
   44.4561    5.6389    9.8273 O   0  0  0  0  0  0  0  0  0  0  0  0
   46.1844    4.1919    9.7655 H   0  0  0  0  0  0  0  0  0  0  0  0
   45.1167    5.5513    9.4044 H   0  0  0  0  0  0  0  0  0  0  0  0
   44.4593    4.1037   10.1802 H   0  0  0  0  0  0  0  0  0  0  0  0
   45.5948    4.2467    7.3222 H   0  0  0  0  0  0  0  0  0  0  0  0
   43.8985    4.2837    7.7328 H   0  0  0  0  0  0  0  0  0  0  0  0
   44.0674    2.1317    8.7142 H   0  0  0  0  0  0  0  0  0  0  0  0
   46.4065    1.9538    9.2942 H   0  0  0  0  0  0  0  0  0  0  0  0
   45.7816    0.6418    8.3164 H   0  0  0  0  0  0  0  0  0  0  0  0
   46.7026    1.7272    6.2390 H   0  0  0  0  0  0  0  0  0  0  0  0
   47.9350    1.2704    7.4235 H   0  0  0  0  0  0  0  0  0  0  0  0
   47.4663    2.9642    7.2610 H   0  0  0  0  0  0  0  0  0  0  0  0
   46.0414    5.2025    7.7232 H   0  0  0  0  0  0  0  0  0  0  0  0
   44.4628    1.1530   10.1513 H   0  0  0  0  0  0  0  0  0  0  0  0
   46.6045    0.8466    6.2773 H   0  0  0  0  0  0  0  0  0  0  0  0
   43.7845    3.4002   10.9097 H   0  0  0  0  0  0  0  0  0  0  0  0
   45.7292    0.0000    8.7214 H   0  0  0  0  0  0  0  0  0  0  0  0
   44.8172    6.3393    9.2575 H   0  0  0  0  0  0  0  0  0  0  0  0
  1  2  1  0
  2  3  1  0
  3  4  1  0
  4  5  1  0
  7  6  1  0
  8  7  2  0
  9  7  1  0
 10  8  1  0
 11  6  2  0
 12  6  2  0
 13  6  1  0
 14 16  1  0
 15  8  1  0
 16  9  2  0
 10 14  2  0
 16 17  1  0
  1 18  1  0
  1 19  1  0
  1 20  1  0
  2 21  1  0
  2 22  1  0
  3 23  1  0
  4 24  1  0
  4 25  1  0
  5 26  1  0
  5 27  1  0
  5 28  1  0
  9 29  1  0
 10 30  1  0
 13 31  1  0
 14 32  1  0
 15 33  1  0
 17 34  1  0
M  END
> <Uni-Dock RESULT> 
ENERGY=   -5.668  LOWER_BOUND=    2.732  UPPER_BOUND=    4.967
INTER + INTRA:          -5.668
INTER:                  -5.668
INTRA:                   0.000
UNBOUND:                 0.000

$$$$

     RDKit          3D

 34 33  0  0  0  0  0  0  0  0999 V2000
   44.9876    2.5185    9.5824 C   0  0  0  0  0  0  0  0  0  0  0  0
   43.9055    3.3983   10.1928 C   0  0  0  0  0  0  0  0  0  0  0  0
   44.1150    4.8293    9.9754 N   0  0  0  0  0  0  0  0  0  0  0  0
   45.2791    5.3975   10.6546 C   0  0  0  0  0  0  0  0  0  0  0  0
   45.1816    5.3550   12.1729 C   0  0  0  0  0  0  0  0  0  0  0  0
   44.4187    4.5937   12.8639 S   0  0  0  0  0  0  0  0  0  0  0  0
   44.7214    4.2013   11.1657 C   0  0  0  0  0  0  0  0  0  0  0  0
   45.1425    5.1915   10.2757 C   0  0  0  0  0  0  0  0  0  0  0  0
   44.5131    2.8877   10.7306 C   0  0  0  0  0  0  0  0  0  0  0  0
   45.3704    4.8690    8.9382 C   0  0  0  0  0  0  0  0  0  0  0  0
   43.3995    3.6859   13.3473 O   0  0  0  0  0  0  0  0  0  0  0  0
   45.7112    4.6988   13.5053 O   0  0  0  0  0  0  0  0  0  0  0  0
   43.7729    6.0752   12.8332 O   0  0  0  0  0  0  0  0  0  0  0  0
   45.1694    3.5578    8.5003 C   0  0  0  0  0  0  0  0  0  0  0  0
   45.3303    6.4772   10.7062 O   0  0  0  0  0  0  0  0  0  0  0  0
   44.7420    2.5812    9.3953 C   0  0  0  0  0  0  0  0  0  0  0  0
   44.5566    1.3205    8.9133 O   0  0  0  0  0  0  0  0  0  0  0  0
   45.9492    2.6496   10.0876 H   0  0  0  0  0  0  0  0  0  0  0  0
   44.7073    1.4641    9.6746 H   0  0  0  0  0  0  0  0  0  0  0  0
   45.1222    2.7366    8.5178 H   0  0  0  0  0  0  0  0  0  0  0  0
   43.7855    3.1706   11.2570 H   0  0  0  0  0  0  0  0  0  0  0  0
   42.9494    3.1350    9.7250 H   0  0  0  0  0  0  0  0  0  0  0  0
   44.2020    5.0031    8.9739 H   0  0  0  0  0  0  0  0  0  0  0  0
   46.2069    4.9212   10.3205 H   0  0  0  0  0  0  0  0  0  0  0  0
   45.3516    6.4493   10.3536 H   0  0  0  0  0  0  0  0  0  0  0  0
   44.2459    5.8041   12.5223 H   0  0  0  0  0  0  0  0  0  0  0  0
   46.0091    5.9193   12.6156 H   0  0  0  0  0  0  0  0  0  0  0  0
   45.2403    4.3317   12.5557 H   0  0  0  0  0  0  0  0  0  0  0  0
   44.1784    2.1270   11.4307 H   0  0  0  0  0  0  0  0  0  0  0  0
   45.6974    5.6154    8.2200 H   0  0  0  0  0  0  0  0  0  0  0  0
   44.3857    6.6582   12.3286 H   0  0  0  0  0  0  0  0  0  0  0  0
   45.3423    3.2960    7.4591 H   0  0  0  0  0  0  0  0  0  0  0  0
   45.7380    6.9870    9.9792 H   0  0  0  0  0  0  0  0  0  0  0  0
   44.2443    0.7457    9.6327 H   0  0  0  0  0  0  0  0  0  0  0  0
  1  2  1  0
  2  3  1  0
  3  4  1  0
  4  5  1  0
  7  6  1  0
  8  7  2  0
  9  7  1  0
 10  8  1  0
 11  6  2  0
 12  6  2  0
 13  6  1  0
 14 16  1  0
 15  8  1  0
 16  9  2  0
 10 14  2  0
 16 17  1  0
  1 18  1  0
  1 19  1  0
  1 20  1  0
  2 21  1  0
  2 22  1  0
  3 23  1  0
  4 24  1  0
  4 25  1  0
  5 26  1  0
  5 27  1  0
  5 28  1  0
  9 29  1  0
 10 30  1  0
 13 31  1  0
 14 32  1  0
 15 33  1  0
 17 34  1  0
M  END
> <Uni-Dock RESULT> 
ENERGY=   -5.504  LOWER_BOUND=    1.477  UPPER_BOUND=    2.638
INTER + INTRA:          -5.504
INTER:                  -5.504
INTRA:                   0.000
UNBOUND:                 0.000

$$$$

     RDKit          3D

 34 33  0  0  0  0  0  0  0  0999 V2000
   44.1555    3.6905   12.0785 C   0  0  0  0  0  0  0  0  0  0  0  0
   44.3735    4.7266   13.1724 C   0  0  0  0  0  0  0  0  0  0  0  0
   43.8636    6.0558   12.8375 N   0  0  0  0  0  0  0  0  0  0  0  0
   44.5603    6.7314   11.7432 C   0  0  0  0  0  0  0  0  0  0  0  0
   46.0141    7.0579   12.0537 C   0  0  0  0  0  0  0  0  0  0  0  0
   46.7395    6.5105   12.9556 S   0  0  0  0  0  0  0  0  0  0  0  0
   45.2450    5.7121   12.4470 C   0  0  0  0  0  0  0  0  0  0  0  0
   44.2235    6.4452   11.8395 C   0  0  0  0  0  0  0  0  0  0  0  0
   45.1009    4.3401   12.6819 C   0  0  0  0  0  0  0  0  0  0  0  0
   43.0480    5.8036   11.4501 C   0  0  0  0  0  0  0  0  0  0  0  0
   47.2606    5.7797   14.0917 O   0  0  0  0  0  0  0  0  0  0  0  0
   47.5269    6.7235   11.7608 O   0  0  0  0  0  0  0  0  0  0  0  0
   46.2677    7.9619   13.4881 O   0  0  0  0  0  0  0  0  0  0  0  0
   42.9017    4.4331   11.6773 C   0  0  0  0  0  0  0  0  0  0  0  0
   44.3666    7.7896   11.6261 O   0  0  0  0  0  0  0  0  0  0  0  0
   43.9240    3.7146   12.2907 C   0  0  0  0  0  0  0  0  0  0  0  0
   43.7260    2.3820   12.4929 O   0  0  0  0  0  0  0  0  0  0  0  0
   44.7560    3.9071   11.1899 H   0  0  0  0  0  0  0  0  0  0  0  0
   44.4468    2.6990   12.4402 H   0  0  0  0  0  0  0  0  0  0  0  0
   43.1024    3.6421   11.7825 H   0  0  0  0  0  0  0  0  0  0  0  0
   45.4307    4.7652   13.4546 H   0  0  0  0  0  0  0  0  0  0  0  0
   43.8405    4.3907   14.0698 H   0  0  0  0  0  0  0  0  0  0  0  0
   42.8743    5.9811   12.6002 H   0  0  0  0  0  0  0  0  0  0  0  0
   44.4906    6.1583   10.8125 H   0  0  0  0  0  0  0  0  0  0  0  0
   44.0376    7.6772   11.5578 H   0  0  0  0  0  0  0  0  0  0  0  0
   46.1037    7.6086   12.9960 H   0  0  0  0  0  0  0  0  0  0  0  0
   46.4335    7.6842   11.2593 H   0  0  0  0  0  0  0  0  0  0  0  0
   46.6287    6.1550   12.1189 H   0  0  0  0  0  0  0  0  0  0  0  0
   45.8997    3.7813   13.1619 H   0  0  0  0  0  0  0  0  0  0  0  0
   42.2340    6.3445   10.9762 H   0  0  0  0  0  0  0  0  0  0  0  0
   45.7402    8.3861   12.7727 H   0  0  0  0  0  0  0  0  0  0  0  0
   41.9885    3.9233   11.3795 H   0  0  0  0  0  0  0  0  0  0  0  0
   43.6113    8.0961   11.0872 H   0  0  0  0  0  0  0  0  0  0  0  0
   44.5035    2.0074   12.9409 H   0  0  0  0  0  0  0  0  0  0  0  0
  1  2  1  0
  2  3  1  0
  3  4  1  0
  4  5  1  0
  7  6  1  0
  8  7  2  0
  9  7  1  0
 10  8  1  0
 11  6  2  0
 12  6  2  0
 13  6  1  0
 14 16  1  0
 15  8  1  0
 16  9  2  0
 10 14  2  0
 16 17  1  0
  1 18  1  0
  1 19  1  0
  1 20  1  0
  2 21  1  0
  2 22  1  0
  3 23  1  0
  4 24  1  0
  4 25  1  0
  5 26  1  0
  5 27  1  0
  5 28  1  0
  9 29  1  0
 10 30  1  0
 13 31  1  0
 14 32  1  0
 15 33  1  0
 17 34  1  0
M  END
> <Uni-Dock RESULT> 
ENERGY=   -4.498  LOWER_BOUND=    2.749  UPPER_BOUND=    3.915
INTER + INTRA:          -4.498
INTER:                  -4.498
INTRA:                   0.000
UNBOUND:                 0.000

$$$$

     RDKit          3D

 34 33  0  0  0  0  0  0  0  0999 V2000
   47.0534    6.5891   12.2393 C   0  0  0  0  0  0  0  0  0  0  0  0
   45.6624    6.8034   12.8194 C   0  0  0  0  0  0  0  0  0  0  0  0
   45.1226    5.6318   13.5086 N   0  0  0  0  0  0  0  0  0  0  0  0
   44.8358    4.4828   12.6502 C   0  0  0  0  0  0  0  0  0  0  0  0
   43.7354    4.7412   11.6309 C   0  0  0  0  0  0  0  0  0  0  0  0
   43.3280    5.8857   11.2269 S   0  0  0  0  0  0  0  0  0  0  0  0
   44.8852    5.7673   12.0581 C   0  0  0  0  0  0  0  0  0  0  0  0
   45.1590    4.6835   12.8949 C   0  0  0  0  0  0  0  0  0  0  0  0
   45.8255    6.7874   11.8748 C   0  0  0  0  0  0  0  0  0  0  0  0
   46.3883    4.6071   13.5491 C   0  0  0  0  0  0  0  0  0  0  0  0
   43.0368    7.2920   11.0424 O   0  0  0  0  0  0  0  0  0  0  0  0
   43.3787    4.9657   10.1115 O   0  0  0  0  0  0  0  0  0  0  0  0
   42.2537    5.3032   12.2848 O   0  0  0  0  0  0  0  0  0  0  0  0
   47.3325    5.6200   13.3649 C   0  0  0  0  0  0  0  0  0  0  0  0
   44.2284    3.6971   13.0799 O   0  0  0  0  0  0  0  0  0  0  0  0
   47.0449    6.6992   12.5343 C   0  0  0  0  0  0  0  0  0  0  0  0
   47.9995    7.6611   12.3952 O   0  0  0  0  0  0  0  0  0  0  0  0
   47.0421    5.8706   11.4142 H   0  0  0  0  0  0  0  0  0  0  0  0
   47.4445    7.5343   11.8486 H   0  0  0  0  0  0  0  0  0  0  0  0
   47.7505    6.2294   13.0033 H   0  0  0  0  0  0  0  0  0  0  0  0
   44.9771    7.1594   12.0431 H   0  0  0  0  0  0  0  0  0  0  0  0
   45.7220    7.6143   13.5550 H   0  0  0  0  0  0  0  0  0  0  0  0
   45.7783    5.3433   14.2349 H   0  0  0  0  0  0  0  0  0  0  0  0
   45.7411    4.1245   12.1486 H   0  0  0  0  0  0  0  0  0  0  0  0
   44.5041    3.6644   13.3000 H   0  0  0  0  0  0  0  0  0  0  0  0
   42.8308    5.1256   12.1138 H   0  0  0  0  0  0  0  0  0  0  0  0
   43.4720    3.8081   11.1219 H   0  0  0  0  0  0  0  0  0  0  0  0
   44.0507    5.4555   10.8644 H   0  0  0  0  0  0  0  0  0  0  0  0
   45.5986    7.6296   11.2267 H   0  0  0  0  0  0  0  0  0  0  0  0
   46.6326    3.7784   14.2075 H   0  0  0  0  0  0  0  0  0  0  0  0
   42.5606    4.4092   12.5613 H   0  0  0  0  0  0  0  0  0  0  0  0
   48.2933    5.5712   13.8718 H   0  0  0  0  0  0  0  0  0  0  0  0
   44.6442    2.9758   13.5912 H   0  0  0  0  0  0  0  0  0  0  0  0
   47.6665    8.3596   11.8064 H   0  0  0  0  0  0  0  0  0  0  0  0
  1  2  1  0
  2  3  1  0
  3  4  1  0
  4  5  1  0
  7  6  1  0
  8  7  2  0
  9  7  1  0
 10  8  1  0
 11  6  2  0
 12  6  2  0
 13  6  1  0
 14 16  1  0
 15  8  1  0
 16  9  2  0
 10 14  2  0
 16 17  1  0
  1 18  1  0
  1 19  1  0
  1 20  1  0
  2 21  1  0
  2 22  1  0
  3 23  1  0
  4 24  1  0
  4 25  1  0
  5 26  1  0
  5 27  1  0
  5 28  1  0
  9 29  1  0
 10 30  1  0
 13 31  1  0
 14 32  1  0
 15 33  1  0
 17 34  1  0
M  END
> <Uni-Dock RESULT> 
ENERGY=   -4.459  LOWER_BOUND=    2.802  UPPER_BOUND=    3.568
INTER + INTRA:          -4.459
INTER:                  -4.459
INTRA:                   0.000
UNBOUND:                 0.000

$$$$

     RDKit          3D

 34 33  0  0  0  0  0  0  0  0999 V2000
   46.0725    7.1386   12.8683 C   0  0  0  0  0  0  0  0  0  0  0  0
   45.9125    6.0610   11.8050 C   0  0  0  0  0  0  0  0  0  0  0  0
   44.6945    6.1949   11.0065 N   0  0  0  0  0  0  0  0  0  0  0  0
   43.4456    5.9803   11.7368 C   0  0  0  0  0  0  0  0  0  0  0  0
   43.2819    4.5617   12.2635 C   0  0  0  0  0  0  0  0  0  0  0  0
   44.2172    3.7067   12.4461 S   0  0  0  0  0  0  0  0  0  0  0  0
   44.6338    5.4158   12.2588 C   0  0  0  0  0  0  0  0  0  0  0  0
   43.7524    6.2926   11.6230 C   0  0  0  0  0  0  0  0  0  0  0  0
   45.8678    5.8650   12.7425 C   0  0  0  0  0  0  0  0  0  0  0  0
   44.0974    7.6359   11.4763 C   0  0  0  0  0  0  0  0  0  0  0  0
   45.4541    2.9542   12.4590 O   0  0  0  0  0  0  0  0  0  0  0  0
   43.2649    3.6254   13.5321 O   0  0  0  0  0  0  0  0  0  0  0  0
   43.4320    3.3251   11.0857 O   0  0  0  0  0  0  0  0  0  0  0  0
   45.3256    8.0903   11.9625 C   0  0  0  0  0  0  0  0  0  0  0  0
   42.5535    5.8423   11.1401 O   0  0  0  0  0  0  0  0  0  0  0  0
   46.1991    7.2050   12.5876 C   0  0  0  0  0  0  0  0  0  0  0  0
   47.3856    7.7007   13.0378 O   0  0  0  0  0  0  0  0  0  0  0  0
   45.3175    7.0471   13.6549 H   0  0  0  0  0  0  0  0  0  0  0  0
   47.0556    7.0518   13.3427 H   0  0  0  0  0  0  0  0  0  0  0  0
   45.9995    8.1402   12.4318 H   0  0  0  0  0  0  0  0  0  0  0  0
   45.9846    5.0665   12.2574 H   0  0  0  0  0  0  0  0  0  0  0  0
   46.7624    6.1342   11.1162 H   0  0  0  0  0  0  0  0  0  0  0  0
   44.6739    7.1246   10.5871 H   0  0  0  0  0  0  0  0  0  0  0  0
   43.3313    6.7031   12.5516 H   0  0  0  0  0  0  0  0  0  0  0  0
   42.6221    6.1751   11.0396 H   0  0  0  0  0  0  0  0  0  0  0  0
   43.4197    3.8246   11.4654 H   0  0  0  0  0  0  0  0  0  0  0  0
   42.2740    4.4291   12.6707 H   0  0  0  0  0  0  0  0  0  0  0  0
   43.9918    4.3416   13.0664 H   0  0  0  0  0  0  0  0  0  0  0  0
   46.5487    5.1721   13.2292 H   0  0  0  0  0  0  0  0  0  0  0  0
   43.4353    8.3437   10.9859 H   0  0  0  0  0  0  0  0  0  0  0  0
   42.6948    3.9687   10.9752 H   0  0  0  0  0  0  0  0  0  0  0  0
   45.6053    9.1353   11.8516 H   0  0  0  0  0  0  0  0  0  0  0  0
   42.0322    6.6147   10.8462 H   0  0  0  0  0  0  0  0  0  0  0  0
   47.9032    6.9798   13.4352 H   0  0  0  0  0  0  0  0  0  0  0  0
  1  2  1  0
  2  3  1  0
  3  4  1  0
  4  5  1  0
  7  6  1  0
  8  7  2  0
  9  7  1  0
 10  8  1  0
 11  6  2  0
 12  6  2  0
 13  6  1  0
 14 16  1  0
 15  8  1  0
 16  9  2  0
 10 14  2  0
 16 17  1  0
  1 18  1  0
  1 19  1  0
  1 20  1  0
  2 21  1  0
  2 22  1  0
  3 23  1  0
  4 24  1  0
  4 25  1  0
  5 26  1  0
  5 27  1  0
  5 28  1  0
  9 29  1  0
 10 30  1  0
 13 31  1  0
 14 32  1  0
 15 33  1  0
 17 34  1  0
M  END
> <Uni-Dock RESULT> 
ENERGY=   -4.372  LOWER_BOUND=    2.662  UPPER_BOUND=    4.078
INTER + INTRA:          -4.372
INTER:                  -4.372
INTRA:                   0.000
UNBOUND:                 0.000

$$$$

     RDKit          3D

 34 33  0  0  0  0  0  0  0  0999 V2000
   43.5015    5.5184   12.6869 C   0  0  0  0  0  0  0  0  0  0  0  0
   44.5535    6.0208   11.7079 C   0  0  0  0  0  0  0  0  0  0  0  0
   45.8752    5.4262   11.9041 N   0  0  0  0  0  0  0  0  0  0  0  0
   46.5397    5.7870   13.1561 C   0  0  0  0  0  0  0  0  0  0  0  0
   46.8785    7.2669   13.2635 C   0  0  0  0  0  0  0  0  0  0  0  0
   46.3475    8.2184   12.5912 S   0  0  0  0  0  0  0  0  0  0  0  0
   45.5339    6.6488   12.6574 C   0  0  0  0  0  0  0  0  0  0  0  0
   46.2529    5.4925   12.9671 C   0  0  0  0  0  0  0  0  0  0  0  0
   44.1644    6.5878   12.3760 C   0  0  0  0  0  0  0  0  0  0  0  0
   45.5996    4.2611   13.0088 C   0  0  0  0  0  0  0  0  0  0  0  0
   45.6351    9.0399   11.6351 O   0  0  0  0  0  0  0  0  0  0  0  0
   46.5486    8.6428   13.9595 O   0  0  0  0  0  0  0  0  0  0  0  0
   47.8033    7.8989   11.9658 O   0  0  0  0  0  0  0  0  0  0  0  0
   44.2315    4.1959   12.7342 C   0  0  0  0  0  0  0  0  0  0  0  0
   47.5951    5.5588   13.2273 O   0  0  0  0  0  0  0  0  0  0  0  0
   43.5271    5.3544   12.4192 C   0  0  0  0  0  0  0  0  0  0  0  0
   42.1963    5.2321   12.1548 O   0  0  0  0  0  0  0  0  0  0  0  0
   43.7093    5.8478   13.7094 H   0  0  0  0  0  0  0  0  0  0  0  0
   42.5166    5.9074   12.4085 H   0  0  0  0  0  0  0  0  0  0  0  0
   43.4432    4.4250   12.6795 H   0  0  0  0  0  0  0  0  0  0  0  0
   44.6018    7.1145   11.7296 H   0  0  0  0  0  0  0  0  0  0  0  0
   44.2269    5.7598   10.6943 H   0  0  0  0  0  0  0  0  0  0  0  0
   45.7918    4.4105   11.8576 H   0  0  0  0  0  0  0  0  0  0  0  0
   45.9536    5.4679   14.0245 H   0  0  0  0  0  0  0  0  0  0  0  0
   47.4800    5.2248   13.2006 H   0  0  0  0  0  0  0  0  0  0  0  0
   47.4424    7.6085   12.3892 H   0  0  0  0  0  0  0  0  0  0  0  0
   47.4962    7.4447   14.1501 H   0  0  0  0  0  0  0  0  0  0  0  0
   45.9800    7.8838   13.3605 H   0  0  0  0  0  0  0  0  0  0  0  0
   43.6166    7.4933   12.1293 H   0  0  0  0  0  0  0  0  0  0  0  0
   46.1295    3.3429   13.2453 H   0  0  0  0  0  0  0  0  0  0  0  0
   48.2148    7.1904   12.5122 H   0  0  0  0  0  0  0  0  0  0  0  0
   43.7127    3.2406   12.7620 H   0  0  0  0  0  0  0  0  0  0  0  0
   47.8901    4.6813   13.5397 H   0  0  0  0  0  0  0  0  0  0  0  0
   41.8322    6.1066   11.9350 H   0  0  0  0  0  0  0  0  0  0  0  0
  1  2  1  0
  2  3  1  0
  3  4  1  0
  4  5  1  0
  7  6  1  0
  8  7  2  0
  9  7  1  0
 10  8  1  0
 11  6  2  0
 12  6  2  0
 13  6  1  0
 14 16  1  0
 15  8  1  0
 16  9  2  0
 10 14  2  0
 16 17  1  0
  1 18  1  0
  1 19  1  0
  1 20  1  0
  2 21  1  0
  2 22  1  0
  3 23  1  0
  4 24  1  0
  4 25  1  0
  5 26  1  0
  5 27  1  0
  5 28  1  0
  9 29  1  0
 10 30  1  0
 13 31  1  0
 14 32  1  0
 15 33  1  0
 17 34  1  0
M  END
> <Uni-Dock RESULT> 
ENERGY=   -4.097  LOWER_BOUND=    2.953  UPPER_BOUND=    4.142
INTER + INTRA:          -4.097
INTER:                  -4.097
INTRA:                   0.000
UNBOUND:                 0.000

$$$$

     RDKit          3D

 34 33  0  0  0  0  0  0  0  0999 V2000
   49.4019    3.1519   17.1630 C   0  0  0  0  0  0  0  0  0  0  0  0
   48.6478    3.0501   18.4815 C   0  0  0  0  0  0  0  0  0  0  0  0
   47.3269    3.6775   18.4568 N   0  0  0  0  0  0  0  0  0  0  0  0
   47.3324    5.1328   18.3105 C   0  0  0  0  0  0  0  0  0  0  0  0
   47.9684    5.8625   19.4851 C   0  0  0  0  0  0  0  0  0  0  0  0
   48.7736    5.3609   20.3449 S   0  0  0  0  0  0  0  0  0  0  0  0
   48.4932    4.5052   18.8221 C   0  0  0  0  0  0  0  0  0  0  0  0
   47.3341    4.7431   18.0807 C   0  0  0  0  0  0  0  0  0  0  0  0
   49.4443    3.5753   18.3873 C   0  0  0  0  0  0  0  0  0  0  0  0
   47.1233    4.0560   16.8855 C   0  0  0  0  0  0  0  0  0  0  0  0
   49.5729    4.4987   21.1900 O   0  0  0  0  0  0  0  0  0  0  0  0
   49.2022    6.6988   19.9996 O   0  0  0  0  0  0  0  0  0  0  0  0
   47.3108    5.4821   21.0219 O   0  0  0  0  0  0  0  0  0  0  0  0
   48.0725    3.1309   16.4444 C   0  0  0  0  0  0  0  0  0  0  0  0
   46.4020    5.6440   18.5201 O   0  0  0  0  0  0  0  0  0  0  0  0
   49.2203    2.8967   17.1962 C   0  0  0  0  0  0  0  0  0  0  0  0
   50.1097    1.9801   16.7220 O   0  0  0  0  0  0  0  0  0  0  0  0
   49.6851    4.1843   16.9369 H   0  0  0  0  0  0  0  0  0  0  0  0
   50.3221    2.5606   17.2128 H   0  0  0  0  0  0  0  0  0  0  0  0
   48.8016    2.7666   16.3322 H   0  0  0  0  0  0  0  0  0  0  0  0
   49.2594    3.4420   19.3008 H   0  0  0  0  0  0  0  0  0  0  0  0
   48.4987    1.9874   18.7067 H   0  0  0  0  0  0  0  0  0  0  0  0
   46.7822    3.2731   17.6950 H   0  0  0  0  0  0  0  0  0  0  0  0
   47.8083    5.4370   17.3722 H   0  0  0  0  0  0  0  0  0  0  0  0
   46.2877    5.4580   18.2410 H   0  0  0  0  0  0  0  0  0  0  0  0
   47.5214    5.5497   20.4346 H   0  0  0  0  0  0  0  0  0  0  0  0
   47.8131    6.9416   19.3820 H   0  0  0  0  0  0  0  0  0  0  0  0
   49.0476    5.6895   19.5352 H   0  0  0  0  0  0  0  0  0  0  0  0
   50.3392    3.3931   18.9762 H   0  0  0  0  0  0  0  0  0  0  0  0
   46.2322    4.2169   16.2856 H   0  0  0  0  0  0  0  0  0  0  0  0
   46.7100    5.9004   20.3631 H   0  0  0  0  0  0  0  0  0  0  0  0
   47.9170    2.5882   15.5150 H   0  0  0  0  0  0  0  0  0  0  0  0
   45.7345    5.7617   17.8164 H   0  0  0  0  0  0  0  0  0  0  0  0
   50.8513    1.9015   17.3459 H   0  0  0  0  0  0  0  0  0  0  0  0
  1  2  1  0
  2  3  1  0
  3  4  1  0
  4  5  1  0
  7  6  1  0
  8  7  2  0
  9  7  1  0
 10  8  1  0
 11  6  2  0
 12  6  2  0
 13  6  1  0
 14 16  1  0
 15  8  1  0
 16  9  2  0
 10 14  2  0
 16 17  1  0
  1 18  1  0
  1 19  1  0
  1 20  1  0
  2 21  1  0
  2 22  1  0
  3 23  1  0
  4 24  1  0
  4 25  1  0
  5 26  1  0
  5 27  1  0
  5 28  1  0
  9 29  1  0
 10 30  1  0
 13 31  1  0
 14 32  1  0
 15 33  1  0
 17 34  1  0
M  END
> <Uni-Dock RESULT> 
ENERGY=   -4.036  LOWER_BOUND=    8.303  UPPER_BOUND=    9.248
INTER + INTRA:          -4.036
INTER:                  -4.036
INTRA:                   0.000
UNBOUND:                 0.000

$$$$
