
     RDKit          3D

 34 33  0  0  0  0  0  0  0  0999 V2000
   42.8490    5.3486   12.2469 C   0  0  0  0  0  0  0  0  0  0  0  0
   43.6741    4.1820   11.7257 C   0  0  0  0  0  0  0  0  0  0  0  0
   43.9585    4.3725   10.3046 N   0  0  0  0  0  0  0  0  0  0  0  0
   44.7424    3.2610    9.7698 C   0  0  0  0  0  0  0  0  0  0  0  0
   45.0107    3.4849    8.2895 C   0  0  0  0  0  0  0  0  0  0  0  0
   43.4090    5.4240   12.2472 S   0  0  0  0  0  0  0  0  0  0  0  0
   43.9990    4.3678   10.9673 C   0  0  0  0  0  0  0  0  0  0  0  0
   43.8116    2.9851   11.0068 C   0  0  0  0  0  0  0  0  0  0  0  0
   44.6807    4.9595    9.8973 C   0  0  0  0  0  0  0  0  0  0  0  0
   44.3084    2.1945    9.9693 C   0  0  0  0  0  0  0  0  0  0  0  0
   44.4898    6.2902   12.6615 O   0  0  0  0  0  0  0  0  0  0  0  0
   42.6877    4.6006   13.1972 O   0  0  0  0  0  0  0  0  0  0  0  0
   42.3306    6.3795   11.5240 O   0  0  0  0  0  0  0  0  0  0  0  0
   44.9870    2.7784    8.8972 C   0  0  0  0  0  0  0  0  0  0  0  0
   43.1623    2.3057   11.9984 O   0  0  0  0  0  0  0  0  0  0  0  0
   45.1664    4.1576    8.8723 C   0  0  0  0  0  0  0  0  0  0  0  0
   45.8221    4.7710    7.8477 O   0  0  0  0  0  0  0  0  0  0  0  0
   43.3819    6.2975   12.1225 H   0  0  0  0  0  0  0  0  0  0  0  0
   41.8898    5.4223   11.7235 H   0  0  0  0  0  0  0  0  0  0  0  0
   42.6412    5.2163   13.3135 H   0  0  0  0  0  0  0  0  0  0  0  0
   44.6087    4.1253   12.2951 H   0  0  0  0  0  0  0  0  0  0  0  0
   43.1190    3.2505   11.8861 H   0  0  0  0  0  0  0  0  0  0  0  0
   43.0834    4.4557    9.7875 H   0  0  0  0  0  0  0  0  0  0  0  0
   45.7002    3.1841   10.2968 H   0  0  0  0  0  0  0  0  0  0  0  0
   44.2053    2.3140    9.8974 H   0  0  0  0  0  0  0  0  0  0  0  0
   45.6062    2.6600    7.8854 H   0  0  0  0  0  0  0  0  0  0  0  0
   45.5661    4.4143    8.1237 H   0  0  0  0  0  0  0  0  0  0  0  0
   44.0767    3.5367    7.7196 H   0  0  0  0  0  0  0  0  0  0  0  0
   44.8409    6.0338    9.8587 H   0  0  0  0  0  0  0  0  0  0  0  0
   44.1636    1.1166    9.9972 H   0  0  0  0  0  0  0  0  0  0  0  0
   42.5581    7.3078   11.7439 H   0  0  0  0  0  0  0  0  0  0  0  0
   45.3638    2.1442    8.1006 H   0  0  0  0  0  0  0  0  0  0  0  0
   42.8083    2.9247   12.6739 H   0  0  0  0  0  0  0  0  0  0  0  0
   46.1189    4.0954    7.2149 H   0  0  0  0  0  0  0  0  0  0  0  0
  1  2  1  0
  2  3  1  0
  3  4  1  0
  4  5  1  0
  7  6  1  0
  8  7  2  0
  9  7  1  0
 10  8  1  0
 11  6  2  0
 12  6  2  0
 13  6  1  0
 14 16  1  0
 15  8  1  0
 16  9  2  0
 10 14  2  0
 16 17  1  0
  1 18  1  0
  1 19  1  0
  1 20  1  0
  2 21  1  0
  2 22  1  0
  3 23  1  0
  4 24  1  0
  4 25  1  0
  5 26  1  0
  5 27  1  0
  5 28  1  0
  9 29  1  0
 10 30  1  0
 13 31  1  0
 14 32  1  0
 15 33  1  0
 17 34  1  0
M  END
> <Uni-Dock RESULT> 
ENERGY=   -6.673  LOWER_BOUND=    0.000  UPPER_BOUND=    0.000
INTER + INTRA:          -6.673
INTER:                  -6.673
INTRA:                   0.000
UNBOUND:                 0.000

$$$$

     RDKit          3D

 34 33  0  0  0  0  0  0  0  0999 V2000
   44.7649    5.0823   12.9136 C   0  0  0  0  0  0  0  0  0  0  0  0
   44.6244    5.1622   11.4012 C   0  0  0  0  0  0  0  0  0  0  0  0
   44.9408    3.8655   10.8053 N   0  0  0  0  0  0  0  0  0  0  0  0
   44.8252    3.9117    9.3491 C   0  0  0  0  0  0  0  0  0  0  0  0
   45.1713    2.5523    8.7614 C   0  0  0  0  0  0  0  0  0  0  0  0
   44.2649    4.9229   12.7044 S   0  0  0  0  0  0  0  0  0  0  0  0
   44.6210    4.3862   11.0653 C   0  0  0  0  0  0  0  0  0  0  0  0
   45.1650    5.2457   10.1093 C   0  0  0  0  0  0  0  0  0  0  0  0
   44.3300    3.0565   10.7378 C   0  0  0  0  0  0  0  0  0  0  0  0
   45.4189    4.7693    8.8220 C   0  0  0  0  0  0  0  0  0  0  0  0
   42.9118    4.5324   13.0308 O   0  0  0  0  0  0  0  0  0  0  0  0
   44.7087    6.2977   12.8215 O   0  0  0  0  0  0  0  0  0  0  0  0
   45.2211    4.0279   13.6444 O   0  0  0  0  0  0  0  0  0  0  0  0
   45.1337    3.4431    8.4892 C   0  0  0  0  0  0  0  0  0  0  0  0
   45.4877    6.5563   10.3204 O   0  0  0  0  0  0  0  0  0  0  0  0
   44.5912    2.5988    9.4525 C   0  0  0  0  0  0  0  0  0  0  0  0
   44.2965    1.2984    9.1736 O   0  0  0  0  0  0  0  0  0  0  0  0
   44.0885    4.3310   13.3351 H   0  0  0  0  0  0  0  0  0  0  0  0
   45.7888    4.8245   13.2045 H   0  0  0  0  0  0  0  0  0  0  0  0
   44.5195    6.0484   13.3663 H   0  0  0  0  0  0  0  0  0  0  0  0
   43.5967    5.4521   11.1546 H   0  0  0  0  0  0  0  0  0  0  0  0
   45.2991    5.9369   11.0190 H   0  0  0  0  0  0  0  0  0  0  0  0
   45.8874    3.5897   11.0661 H   0  0  0  0  0  0  0  0  0  0  0  0
   43.8019    4.1746    9.0579 H   0  0  0  0  0  0  0  0  0  0  0  0
   45.5033    4.6654    8.9324 H   0  0  0  0  0  0  0  0  0  0  0  0
   45.0769    2.5780    7.6710 H   0  0  0  0  0  0  0  0  0  0  0  0
   44.4992    1.7745    9.1396 H   0  0  0  0  0  0  0  0  0  0  0  0
   46.2001    2.2647    9.0036 H   0  0  0  0  0  0  0  0  0  0  0  0
   43.8983    2.3794   11.4702 H   0  0  0  0  0  0  0  0  0  0  0  0
   45.8431    5.4368    8.0750 H   0  0  0  0  0  0  0  0  0  0  0  0
   44.6625    3.6253   14.3428 H   0  0  0  0  0  0  0  0  0  0  0  0
   45.3405    3.0938    7.4823 H   0  0  0  0  0  0  0  0  0  0  0  0
   45.3183    6.8133   11.2532 H   0  0  0  0  0  0  0  0  0  0  0  0
   44.5128    1.1194    8.2429 H   0  0  0  0  0  0  0  0  0  0  0  0
  1  2  1  0
  2  3  1  0
  3  4  1  0
  4  5  1  0
  7  6  1  0
  8  7  2  0
  9  7  1  0
 10  8  1  0
 11  6  2  0
 12  6  2  0
 13  6  1  0
 14 16  1  0
 15  8  1  0
 16  9  2  0
 10 14  2  0
 16 17  1  0
  1 18  1  0
  1 19  1  0
  1 20  1  0
  2 21  1  0
  2 22  1  0
  3 23  1  0
  4 24  1  0
  4 25  1  0
  5 26  1  0
  5 27  1  0
  5 28  1  0
  9 29  1  0
 10 30  1  0
 13 31  1  0
 14 32  1  0
 15 33  1  0
 17 34  1  0
M  END
> <Uni-Dock RESULT> 
ENERGY=   -5.397  LOWER_BOUND=    1.404  UPPER_BOUND=    2.540
INTER + INTRA:          -5.397
INTER:                  -5.397
INTRA:                   0.000
UNBOUND:                 0.000

$$$$

     RDKit          3D

 34 33  0  0  0  0  0  0  0  0999 V2000
   42.9769    6.0337   11.6610 C   0  0  0  0  0  0  0  0  0  0  0  0
   44.4515    6.3525   11.8538 C   0  0  0  0  0  0  0  0  0  0  0  0
   45.0261    5.4529   12.8524 N   0  0  0  0  0  0  0  0  0  0  0  0
   46.4426    5.7407   13.0690 C   0  0  0  0  0  0  0  0  0  0  0  0
   47.0056    4.7961   14.1197 C   0  0  0  0  0  0  0  0  0  0  0  0
   43.3370    5.7277   11.3515 S   0  0  0  0  0  0  0  0  0  0  0  0
   44.8330    5.7301   12.2808 C   0  0  0  0  0  0  0  0  0  0  0  0
   45.5136    6.9116   12.5802 C   0  0  0  0  0  0  0  0  0  0  0  0
   45.3354    4.4958   12.7096 C   0  0  0  0  0  0  0  0  0  0  0  0
   46.7004    6.8542   13.3127 C   0  0  0  0  0  0  0  0  0  0  0  0
   43.4592    4.7552   10.2887 O   0  0  0  0  0  0  0  0  0  0  0  0
   42.9859    7.1079   11.0825 O   0  0  0  0  0  0  0  0  0  0  0  0
   42.2285    5.1386   12.3629 O   0  0  0  0  0  0  0  0  0  0  0  0
   47.2059    5.6263   13.7461 C   0  0  0  0  0  0  0  0  0  0  0  0
   45.1141    8.1657   12.2143 O   0  0  0  0  0  0  0  0  0  0  0  0
   46.5166    4.4576   13.4395 C   0  0  0  0  0  0  0  0  0  0  0  0
   46.9716    3.2378   13.8406 O   0  0  0  0  0  0  0  0  0  0  0  0
   42.8357    5.0016   11.3224 H   0  0  0  0  0  0  0  0  0  0  0  0
   42.4159    6.1695   12.5918 H   0  0  0  0  0  0  0  0  0  0  0  0
   42.5433    6.6981   10.9067 H   0  0  0  0  0  0  0  0  0  0  0  0
   44.9689    6.2346   10.8950 H   0  0  0  0  0  0  0  0  0  0  0  0
   44.5540    7.3966   12.1714 H   0  0  0  0  0  0  0  0  0  0  0  0
   44.5182    5.5468   13.7318 H   0  0  0  0  0  0  0  0  0  0  0  0
   47.0032    5.6096   12.1365 H   0  0  0  0  0  0  0  0  0  0  0  0
   46.5785    6.7746   13.4069 H   0  0  0  0  0  0  0  0  0  0  0  0
   48.0692    5.0005   14.2792 H   0  0  0  0  0  0  0  0  0  0  0  0
   46.9064    3.7511   13.8068 H   0  0  0  0  0  0  0  0  0  0  0  0
   46.4918    4.9173   15.0795 H   0  0  0  0  0  0  0  0  0  0  0  0
   44.8198    3.5679   12.4758 H   0  0  0  0  0  0  0  0  0  0  0  0
   47.2329    7.7733   13.5477 H   0  0  0  0  0  0  0  0  0  0  0  0
   41.7615    4.4088   11.9033 H   0  0  0  0  0  0  0  0  0  0  0  0
   48.1299    5.6055   14.3156 H   0  0  0  0  0  0  0  0  0  0  0  0
   44.2567    8.1351   11.7360 H   0  0  0  0  0  0  0  0  0  0  0  0
   47.8069    3.3566   14.3232 H   0  0  0  0  0  0  0  0  0  0  0  0
  1  2  1  0
  2  3  1  0
  3  4  1  0
  4  5  1  0
  7  6  1  0
  8  7  2  0
  9  7  1  0
 10  8  1  0
 11  6  2  0
 12  6  2  0
 13  6  1  0
 14 16  1  0
 15  8  1  0
 16  9  2  0
 10 14  2  0
 16 17  1  0
  1 18  1  0
  1 19  1  0
  1 20  1  0
  2 21  1  0
  2 22  1  0
  3 23  1  0
  4 24  1  0
  4 25  1  0
  5 26  1  0
  5 27  1  0
  5 28  1  0
  9 29  1  0
 10 30  1  0
 13 31  1  0
 14 32  1  0
 15 33  1  0
 17 34  1  0
M  END
> <Uni-Dock RESULT> 
ENERGY=   -4.930  LOWER_BOUND=    2.845  UPPER_BOUND=    4.249
INTER + INTRA:          -4.930
INTER:                  -4.930
INTRA:                   0.000
UNBOUND:                 0.000

$$$$

     RDKit          3D

 34 33  0  0  0  0  0  0  0  0999 V2000
   44.9982    2.3535    9.2053 C   0  0  0  0  0  0  0  0  0  0  0  0
   44.0866    2.9877   10.2446 C   0  0  0  0  0  0  0  0  0  0  0  0
   44.7444    4.1513   10.8361 N   0  0  0  0  0  0  0  0  0  0  0  0
   43.8970    4.7785   11.8485 C   0  0  0  0  0  0  0  0  0  0  0  0
   44.6146    5.9768   12.4506 C   0  0  0  0  0  0  0  0  0  0  0  0
   44.6745    2.7786    9.0217 S   0  0  0  0  0  0  0  0  0  0  0  0
   44.3712    3.7557   10.4552 C   0  0  0  0  0  0  0  0  0  0  0  0
   43.7092    3.2419   11.5717 C   0  0  0  0  0  0  0  0  0  0  0  0
   44.8091    5.0853   10.4417 C   0  0  0  0  0  0  0  0  0  0  0  0
   43.4875    4.0641   12.6777 C   0  0  0  0  0  0  0  0  0  0  0  0
   44.2330    3.5185    7.8608 O   0  0  0  0  0  0  0  0  0  0  0  0
   44.1967    1.4380    9.2959 O   0  0  0  0  0  0  0  0  0  0  0  0
   46.2810    2.7026    8.9113 O   0  0  0  0  0  0  0  0  0  0  0  0
   43.9242    5.3909   12.6721 C   0  0  0  0  0  0  0  0  0  0  0  0
   43.2424    1.9637   11.6922 O   0  0  0  0  0  0  0  0  0  0  0  0
   44.5819    5.8885   11.5520 C   0  0  0  0  0  0  0  0  0  0  0  0
   45.0252    7.1757   11.5012 O   0  0  0  0  0  0  0  0  0  0  0  0
   45.2394    3.0615    8.4051 H   0  0  0  0  0  0  0  0  0  0  0  0
   45.9362    2.0113    9.6553 H   0  0  0  0  0  0  0  0  0  0  0  0
   44.5067    1.4869    8.7516 H   0  0  0  0  0  0  0  0  0  0  0  0
   43.1501    3.2870    9.7605 H   0  0  0  0  0  0  0  0  0  0  0  0
   43.8508    2.2450   11.0155 H   0  0  0  0  0  0  0  0  0  0  0  0
   45.6295    3.8685   11.2564 H   0  0  0  0  0  0  0  0  0  0  0  0
   42.9563    5.1166   11.3993 H   0  0  0  0  0  0  0  0  0  0  0  0
   43.6580    4.0658   12.6463 H   0  0  0  0  0  0  0  0  0  0  0  0
   43.9805    6.4567   13.2030 H   0  0  0  0  0  0  0  0  0  0  0  0
   44.8518    6.7226   11.6843 H   0  0  0  0  0  0  0  0  0  0  0  0
   45.5482    5.6770   12.9387 H   0  0  0  0  0  0  0  0  0  0  0  0
   45.3181    5.5001    9.5755 H   0  0  0  0  0  0  0  0  0  0  0  0
   42.9720    3.6664   13.5493 H   0  0  0  0  0  0  0  0  0  0  0  0
   46.5312    2.9637    7.9997 H   0  0  0  0  0  0  0  0  0  0  0  0
   43.7420    6.0118   13.5439 H   0  0  0  0  0  0  0  0  0  0  0  0
   43.4643    1.4328   10.8961 H   0  0  0  0  0  0  0  0  0  0  0  0
   44.7872    7.6234   12.3306 H   0  0  0  0  0  0  0  0  0  0  0  0
  1  2  1  0
  2  3  1  0
  3  4  1  0
  4  5  1  0
  7  6  1  0
  8  7  2  0
  9  7  1  0
 10  8  1  0
 11  6  2  0
 12  6  2  0
 13  6  1  0
 14 16  1  0
 15  8  1  0
 16  9  2  0
 10 14  2  0
 16 17  1  0
  1 18  1  0
  1 19  1  0
  1 20  1  0
  2 21  1  0
  2 22  1  0
  3 23  1  0
  4 24  1  0
  4 25  1  0
  5 26  1  0
  5 27  1  0
  5 28  1  0
  9 29  1  0
 10 30  1  0
 13 31  1  0
 14 32  1  0
 15 33  1  0
 17 34  1  0
M  END
> <Uni-Dock RESULT> 
ENERGY=   -4.818  LOWER_BOUND=    1.791  UPPER_BOUND=    3.738
INTER + INTRA:          -4.818
INTER:                  -4.818
INTRA:                   0.000
UNBOUND:                 0.000

$$$$

     RDKit          3D

 34 33  0  0  0  0  0  0  0  0999 V2000
   47.3323    6.7390   13.4334 C   0  0  0  0  0  0  0  0  0  0  0  0
   46.4879    5.5760   12.9355 C   0  0  0  0  0  0  0  0  0  0  0  0
   45.0851    5.9795   12.8594 N   0  0  0  0  0  0  0  0  0  0  0  0
   44.2440    4.8787   12.3935 C   0  0  0  0  0  0  0  0  0  0  0  0
   42.7920    5.3281   12.3366 C   0  0  0  0  0  0  0  0  0  0  0  0
   47.2353    6.7261   12.8769 S   0  0  0  0  0  0  0  0  0  0  0  0
   45.7186    5.8464   12.7117 C   0  0  0  0  0  0  0  0  0  0  0  0
   45.5811    4.5256   13.1419 C   0  0  0  0  0  0  0  0  0  0  0  0
   44.6401    6.5135   12.1186 C   0  0  0  0  0  0  0  0  0  0  0  0
   44.3580    3.8733   12.9780 C   0  0  0  0  0  0  0  0  0  0  0  0
   47.5595    7.3245   11.6014 O   0  0  0  0  0  0  0  0  0  0  0  0
   48.1696    5.8623   13.5708 O   0  0  0  0  0  0  0  0  0  0  0  0
   46.8909    7.9527   13.8647 O   0  0  0  0  0  0  0  0  0  0  0  0
   43.2770    4.5338   12.3896 C   0  0  0  0  0  0  0  0  0  0  0  0
   46.5637    3.7828   13.7327 O   0  0  0  0  0  0  0  0  0  0  0  0
   43.4296    5.8497   11.9653 C   0  0  0  0  0  0  0  0  0  0  0  0
   42.4036    6.5335   11.3860 O   0  0  0  0  0  0  0  0  0  0  0  0
   47.2537    7.6013   12.7625 H   0  0  0  0  0  0  0  0  0  0  0  0
   47.0229    7.0543   14.4355 H   0  0  0  0  0  0  0  0  0  0  0  0
   48.3858    6.4456   13.4830 H   0  0  0  0  0  0  0  0  0  0  0  0
   46.8493    5.2723   11.9464 H   0  0  0  0  0  0  0  0  0  0  0  0
   46.6083    4.7274   13.6188 H   0  0  0  0  0  0  0  0  0  0  0  0
   44.7669    6.2900   13.7773 H   0  0  0  0  0  0  0  0  0  0  0  0
   44.5566    4.5598   11.3927 H   0  0  0  0  0  0  0  0  0  0  0  0
   44.3268    4.0184   13.0676 H   0  0  0  0  0  0  0  0  0  0  0  0
   42.1582    4.5104   11.9787 H   0  0  0  0  0  0  0  0  0  0  0  0
   42.6661    6.1756   11.6543 H   0  0  0  0  0  0  0  0  0  0  0  0
   42.4294    5.6270   13.3260 H   0  0  0  0  0  0  0  0  0  0  0  0
   44.7365    7.5390   11.7714 H   0  0  0  0  0  0  0  0  0  0  0  0
   44.2478    2.8440   13.3126 H   0  0  0  0  0  0  0  0  0  0  0  0
   47.2021    8.7784   13.4366 H   0  0  0  0  0  0  0  0  0  0  0  0
   42.3347    4.0073   12.2733 H   0  0  0  0  0  0  0  0  0  0  0  0
   47.3820    4.3134   13.8499 H   0  0  0  0  0  0  0  0  0  0  0  0
   41.6292    5.9489   11.3277 H   0  0  0  0  0  0  0  0  0  0  0  0
  1  2  1  0
  2  3  1  0
  3  4  1  0
  4  5  1  0
  7  6  1  0
  8  7  2  0
  9  7  1  0
 10  8  1  0
 11  6  2  0
 12  6  2  0
 13  6  1  0
 14 16  1  0
 15  8  1  0
 16  9  2  0
 10 14  2  0
 16 17  1  0
  1 18  1  0
  1 19  1  0
  1 20  1  0
  2 21  1  0
  2 22  1  0
  3 23  1  0
  4 24  1  0
  4 25  1  0
  5 26  1  0
  5 27  1  0
  5 28  1  0
  9 29  1  0
 10 30  1  0
 13 31  1  0
 14 32  1  0
 15 33  1  0
 17 34  1  0
M  END
> <Uni-Dock RESULT> 
ENERGY=   -4.460  LOWER_BOUND=    3.132  UPPER_BOUND=    4.085
INTER + INTRA:          -4.460
INTER:                  -4.460
INTRA:                   0.000
UNBOUND:                 0.000

$$$$

     RDKit          3D

 34 33  0  0  0  0  0  0  0  0999 V2000
   45.7628    3.5315    7.3904 C   0  0  0  0  0  0  0  0  0  0  0  0
   45.7382    4.0589    8.8168 C   0  0  0  0  0  0  0  0  0  0  0  0
   44.5491    3.5634    9.5075 N   0  0  0  0  0  0  0  0  0  0  0  0
   44.4902    4.0618   10.8802 C   0  0  0  0  0  0  0  0  0  0  0  0
   43.2376    3.5375   11.5654 C   0  0  0  0  0  0  0  0  0  0  0  0
   45.9865    3.1913    7.7822 S   0  0  0  0  0  0  0  0  0  0  0  0
   45.1671    3.6370    9.2760 C   0  0  0  0  0  0  0  0  0  0  0  0
   45.2544    4.9238    9.8098 C   0  0  0  0  0  0  0  0  0  0  0  0
   44.4224    2.6483    9.9302 C   0  0  0  0  0  0  0  0  0  0  0  0
   44.5916    5.2196   11.0021 C   0  0  0  0  0  0  0  0  0  0  0  0
   46.7263    1.9707    8.0117 O   0  0  0  0  0  0  0  0  0  0  0  0
   46.6276    4.3825    7.2619 O   0  0  0  0  0  0  0  0  0  0  0  0
   44.7982    2.8021    6.7646 O   0  0  0  0  0  0  0  0  0  0  0  0
   43.8445    4.2389   11.6586 C   0  0  0  0  0  0  0  0  0  0  0  0
   45.9493    5.9614    9.2559 O   0  0  0  0  0  0  0  0  0  0  0  0
   43.7675    2.9609   11.1147 C   0  0  0  0  0  0  0  0  0  0  0  0
   43.0514    1.9726   11.7198 O   0  0  0  0  0  0  0  0  0  0  0  0
   45.7810    2.4364    7.3733 H   0  0  0  0  0  0  0  0  0  0  0  0
   44.8867    3.8692    6.8266 H   0  0  0  0  0  0  0  0  0  0  0  0
   46.6567    3.8915    6.8709 H   0  0  0  0  0  0  0  0  0  0  0  0
   46.6444    3.7250    9.3348 H   0  0  0  0  0  0  0  0  0  0  0  0
   45.7419    5.1548    8.7938 H   0  0  0  0  0  0  0  0  0  0  0  0
   43.7124    3.8524    9.0010 H   0  0  0  0  0  0  0  0  0  0  0  0
   45.3692    3.7280   11.4431 H   0  0  0  0  0  0  0  0  0  0  0  0
   44.4729    5.1578   10.8918 H   0  0  0  0  0  0  0  0  0  0  0  0
   43.1930    3.8997   12.5975 H   0  0  0  0  0  0  0  0  0  0  0  0
   43.2294    2.4425   11.5918 H   0  0  0  0  0  0  0  0  0  0  0  0
   42.3318    3.8753   11.0505 H   0  0  0  0  0  0  0  0  0  0  0  0
   44.3535    1.6402    9.5299 H   0  0  0  0  0  0  0  0  0  0  0  0
   44.6575    6.2217   11.4203 H   0  0  0  0  0  0  0  0  0  0  0  0
   45.0049    1.9214    6.3859 H   0  0  0  0  0  0  0  0  0  0  0  0
   43.3363    4.4916   12.5841 H   0  0  0  0  0  0  0  0  0  0  0  0
   46.3585    5.6942    8.4038 H   0  0  0  0  0  0  0  0  0  0  0  0
   42.6626    2.3223   12.5392 H   0  0  0  0  0  0  0  0  0  0  0  0
  1  2  1  0
  2  3  1  0
  3  4  1  0
  4  5  1  0
  7  6  1  0
  8  7  2  0
  9  7  1  0
 10  8  1  0
 11  6  2  0
 12  6  2  0
 13  6  1  0
 14 16  1  0
 15  8  1  0
 16  9  2  0
 10 14  2  0
 16 17  1  0
  1 18  1  0
  1 19  1  0
  1 20  1  0
  2 21  1  0
  2 22  1  0
  3 23  1  0
  4 24  1  0
  4 25  1  0
  5 26  1  0
  5 27  1  0
  5 28  1  0
  9 29  1  0
 10 30  1  0
 13 31  1  0
 14 32  1  0
 15 33  1  0
 17 34  1  0
M  END
> <Uni-Dock RESULT> 
ENERGY=   -4.306  LOWER_BOUND=    2.201  UPPER_BOUND=    4.480
INTER + INTRA:          -4.306
INTER:                  -4.306
INTRA:                   0.000
UNBOUND:                 0.000

$$$$

     RDKit          3D

 34 33  0  0  0  0  0  0  0  0999 V2000
   45.1647    3.5343    8.0516 C   0  0  0  0  0  0  0  0  0  0  0  0
   45.4575    4.3746    9.2852 C   0  0  0  0  0  0  0  0  0  0  0  0
   44.2041    4.7541    9.9346 N   0  0  0  0  0  0  0  0  0  0  0  0
   44.4509    5.5729   11.1199 C   0  0  0  0  0  0  0  0  0  0  0  0
   43.1282    5.9590   11.7639 C   0  0  0  0  0  0  0  0  0  0  0  0
   45.1942    3.2520    8.5401 S   0  0  0  0  0  0  0  0  0  0  0  0
   44.7650    4.4413    9.7660 C   0  0  0  0  0  0  0  0  0  0  0  0
   45.5160    5.6014    9.9633 C   0  0  0  0  0  0  0  0  0  0  0  0
   43.6392    4.1839   10.5572 C   0  0  0  0  0  0  0  0  0  0  0  0
   45.1353    6.5059   10.9560 C   0  0  0  0  0  0  0  0  0  0  0  0
   45.2101    1.9441    9.1559 O   0  0  0  0  0  0  0  0  0  0  0  0
   46.3392    3.7645    7.8141 O   0  0  0  0  0  0  0  0  0  0  0  0
   43.9441    3.2449    7.5222 O   0  0  0  0  0  0  0  0  0  0  0  0
   44.0114    6.2567   11.7471 C   0  0  0  0  0  0  0  0  0  0  0  0
   46.6274    5.9516    9.2503 O   0  0  0  0  0  0  0  0  0  0  0  0
   43.2736    5.0961   11.5389 C   0  0  0  0  0  0  0  0  0  0  0  0
   42.1708    4.8110   12.2862 O   0  0  0  0  0  0  0  0  0  0  0  0
   44.6184    2.6220    8.3143 H   0  0  0  0  0  0  0  0  0  0  0  0
   44.5690    4.0934    7.3222 H   0  0  0  0  0  0  0  0  0  0  0  0
   46.1004    3.2387    7.5663 H   0  0  0  0  0  0  0  0  0  0  0  0
   46.0795    3.7910    9.9733 H   0  0  0  0  0  0  0  0  0  0  0  0
   46.0218    5.2655    8.9863 H   0  0  0  0  0  0  0  0  0  0  0  0
   43.6191    5.2693    9.2770 H   0  0  0  0  0  0  0  0  0  0  0  0
   45.0512    5.0154   11.8478 H   0  0  0  0  0  0  0  0  0  0  0  0
   44.9984    6.4839   10.8518 H   0  0  0  0  0  0  0  0  0  0  0  0
   43.3071    6.5645   12.6583 H   0  0  0  0  0  0  0  0  0  0  0  0
   42.5606    5.0720   12.0653 H   0  0  0  0  0  0  0  0  0  0  0  0
   42.5086    6.5465   11.0779 H   0  0  0  0  0  0  0  0  0  0  0  0
   43.0509    3.2803   10.4197 H   0  0  0  0  0  0  0  0  0  0  0  0
   45.7184    7.4110   11.1118 H   0  0  0  0  0  0  0  0  0  0  0  0
   43.6583    2.3141    7.4055 H   0  0  0  0  0  0  0  0  0  0  0  0
   43.7331    6.9747   12.5124 H   0  0  0  0  0  0  0  0  0  0  0  0
   46.8156    5.2916    8.5475 H   0  0  0  0  0  0  0  0  0  0  0  0
   42.0414    5.5194   12.9391 H   0  0  0  0  0  0  0  0  0  0  0  0
  1  2  1  0
  2  3  1  0
  3  4  1  0
  4  5  1  0
  7  6  1  0
  8  7  2  0
  9  7  1  0
 10  8  1  0
 11  6  2  0
 12  6  2  0
 13  6  1  0
 14 16  1  0
 15  8  1  0
 16  9  2  0
 10 14  2  0
 16 17  1  0
  1 18  1  0
  1 19  1  0
  1 20  1  0
  2 21  1  0
  2 22  1  0
  3 23  1  0
  4 24  1  0
  4 25  1  0
  5 26  1  0
  5 27  1  0
  5 28  1  0
  9 29  1  0
 10 30  1  0
 13 31  1  0
 14 32  1  0
 15 33  1  0
 17 34  1  0
M  END
> <Uni-Dock RESULT> 
ENERGY=   -4.091  LOWER_BOUND=    1.812  UPPER_BOUND=    4.362
INTER + INTRA:          -4.091
INTER:                  -4.091
INTRA:                   0.000
UNBOUND:                 0.000

$$$$

     RDKit          3D

 34 33  0  0  0  0  0  0  0  0999 V2000
   47.1711    5.3515   13.6745 C   0  0  0  0  0  0  0  0  0  0  0  0
   45.6966    5.6121   13.4072 C   0  0  0  0  0  0  0  0  0  0  0  0
   45.1549    4.5586   12.5508 N   0  0  0  0  0  0  0  0  0  0  0  0
   43.7395    4.7860   12.2659 C   0  0  0  0  0  0  0  0  0  0  0  0
   43.2112    3.6801   11.3653 C   0  0  0  0  0  0  0  0  0  0  0  0
   46.8087    5.0915   14.0214 S   0  0  0  0  0  0  0  0  0  0  0  0
   45.3324    4.9247   13.0756 C   0  0  0  0  0  0  0  0  0  0  0  0
   44.6424    6.0337   12.5831 C   0  0  0  0  0  0  0  0  0  0  0  0
   44.8556    3.6305   12.8355 C   0  0  0  0  0  0  0  0  0  0  0  0
   43.4720    5.8435   11.8467 C   0  0  0  0  0  0  0  0  0  0  0  0
   46.6775    4.2946   15.2204 O   0  0  0  0  0  0  0  0  0  0  0  0
   47.1357    6.5024   14.0782 O   0  0  0  0  0  0  0  0  0  0  0  0
   47.9457    4.3704   13.1348 O   0  0  0  0  0  0  0  0  0  0  0  0
   42.9921    4.5549   11.6010 C   0  0  0  0  0  0  0  0  0  0  0  0
   45.0175    7.3359   12.7561 O   0  0  0  0  0  0  0  0  0  0  0  0
   43.6903    3.4597   12.0989 C   0  0  0  0  0  0  0  0  0  0  0  0
   43.2601    2.1850   11.8847 O   0  0  0  0  0  0  0  0  0  0  0  0
   47.3190    4.3872   14.1726 H   0  0  0  0  0  0  0  0  0  0  0  0
   47.7494    5.3499   12.7444 H   0  0  0  0  0  0  0  0  0  0  0  0
   47.5800    6.1323   14.3238 H   0  0  0  0  0  0  0  0  0  0  0  0
   45.1611    5.6365   14.3631 H   0  0  0  0  0  0  0  0  0  0  0  0
   45.5868    6.5922   12.9288 H   0  0  0  0  0  0  0  0  0  0  0  0
   45.6797    4.5228   11.6771 H   0  0  0  0  0  0  0  0  0  0  0  0
   43.1615    4.7925   13.1970 H   0  0  0  0  0  0  0  0  0  0  0  0
   43.5969    5.7522   11.7684 H   0  0  0  0  0  0  0  0  0  0  0  0
   42.1484    3.8397   11.1563 H   0  0  0  0  0  0  0  0  0  0  0  0
   43.3177    2.6984   11.8392 H   0  0  0  0  0  0  0  0  0  0  0  0
   43.7431    3.6588   10.4080 H   0  0  0  0  0  0  0  0  0  0  0  0
   45.3785    2.7590   13.2207 H   0  0  0  0  0  0  0  0  0  0  0  0
   42.9323    6.7059   11.4614 H   0  0  0  0  0  0  0  0  0  0  0  0
   48.4128    3.7289   13.7112 H   0  0  0  0  0  0  0  0  0  0  0  0
   42.0804    4.4306   11.0248 H   0  0  0  0  0  0  0  0  0  0  0  0
   45.8651    7.3942   13.2491 H   0  0  0  0  0  0  0  0  0  0  0  0
   42.4334    2.2136   11.3741 H   0  0  0  0  0  0  0  0  0  0  0  0
  1  2  1  0
  2  3  1  0
  3  4  1  0
  4  5  1  0
  7  6  1  0
  8  7  2  0
  9  7  1  0
 10  8  1  0
 11  6  2  0
 12  6  2  0
 13  6  1  0
 14 16  1  0
 15  8  1  0
 16  9  2  0
 10 14  2  0
 16 17  1  0
  1 18  1  0
  1 19  1  0
  1 20  1  0
  2 21  1  0
  2 22  1  0
  3 23  1  0
  4 24  1  0
  4 25  1  0
  5 26  1  0
  5 27  1  0
  5 28  1  0
  9 29  1  0
 10 30  1  0
 13 31  1  0
 14 32  1  0
 15 33  1  0
 17 34  1  0
M  END
> <Uni-Dock RESULT> 
ENERGY=   -4.083  LOWER_BOUND=    2.688  UPPER_BOUND=    4.090
INTER + INTRA:          -4.083
INTER:                  -4.083
INTRA:                   0.000
UNBOUND:                 0.000

$$$$

     RDKit          3D

 34 33  0  0  0  0  0  0  0  0999 V2000
   52.0928    3.7728   18.7217 C   0  0  0  0  0  0  0  0  0  0  0  0
   51.0849    3.3542   17.6623 C   0  0  0  0  0  0  0  0  0  0  0  0
   49.7316    3.6747   18.1124 N   0  0  0  0  0  0  0  0  0  0  0  0
   48.7366    3.2745   17.1194 C   0  0  0  0  0  0  0  0  0  0  0  0
   47.3416    3.6114   17.6230 C   0  0  0  0  0  0  0  0  0  0  0  0
   51.9387    4.1752   18.3564 S   0  0  0  0  0  0  0  0  0  0  0  0
   50.3293    3.6978   17.8240 C   0  0  0  0  0  0  0  0  0  0  0  0
   50.0989    2.4901   17.1630 C   0  0  0  0  0  0  0  0  0  0  0  0
   49.2717    4.5798   18.0759 C   0  0  0  0  0  0  0  0  0  0  0  0
   48.8038    2.1661   16.7551 C   0  0  0  0  0  0  0  0  0  0  0  0
   52.1918    5.5231   17.8989 O   0  0  0  0  0  0  0  0  0  0  0  0
   52.8433    3.0855   18.0486 O   0  0  0  0  0  0  0  0  0  0  0  0
   51.8274    4.2680   19.9619 O   0  0  0  0  0  0  0  0  0  0  0  0
   47.7435    3.0402   17.0057 C   0  0  0  0  0  0  0  0  0  0  0  0
   51.0534    1.5583   16.8683 O   0  0  0  0  0  0  0  0  0  0  0  0
   47.9890    4.2403   17.6648 C   0  0  0  0  0  0  0  0  0  0  0  0
   46.9865    5.1237   17.9304 O   0  0  0  0  0  0  0  0  0  0  0  0
   52.0369    4.8488   18.9184 H   0  0  0  0  0  0  0  0  0  0  0  0
   51.9222    3.2420   19.6644 H   0  0  0  0  0  0  0  0  0  0  0  0
   53.1094    3.5440   18.3858 H   0  0  0  0  0  0  0  0  0  0  0  0
   51.3094    3.8834   16.7293 H   0  0  0  0  0  0  0  0  0  0  0  0
   51.1849    2.2784   17.4777 H   0  0  0  0  0  0  0  0  0  0  0  0
   49.5432    3.2030   18.9968 H   0  0  0  0  0  0  0  0  0  0  0  0
   48.9103    3.8019   16.1746 H   0  0  0  0  0  0  0  0  0  0  0  0
   48.7973    2.1973   16.9256 H   0  0  0  0  0  0  0  0  0  0  0  0
   46.5924    3.3227   16.8789 H   0  0  0  0  0  0  0  0  0  0  0  0
   47.2361    4.6858   17.8084 H   0  0  0  0  0  0  0  0  0  0  0  0
   47.1152    3.0787   18.5529 H   0  0  0  0  0  0  0  0  0  0  0  0
   49.4390    5.5271   18.5819 H   0  0  0  0  0  0  0  0  0  0  0  0
   48.6212    1.2255   16.2400 H   0  0  0  0  0  0  0  0  0  0  0  0
   52.1780    5.1419   20.2363 H   0  0  0  0  0  0  0  0  0  0  0  0
   46.7443    2.7672   16.6805 H   0  0  0  0  0  0  0  0  0  0  0  0
   51.9305    1.8329   17.2151 H   0  0  0  0  0  0  0  0  0  0  0  0
   46.1532    4.7695   17.5767 H   0  0  0  0  0  0  0  0  0  0  0  0
  1  2  1  0
  2  3  1  0
  3  4  1  0
  4  5  1  0
  7  6  1  0
  8  7  2  0
  9  7  1  0
 10  8  1  0
 11  6  2  0
 12  6  2  0
 13  6  1  0
 14 16  1  0
 15  8  1  0
 16  9  2  0
 10 14  2  0
 16 17  1  0
  1 18  1  0
  1 19  1  0
  1 20  1  0
  2 21  1  0
  2 22  1  0
  3 23  1  0
  4 24  1  0
  4 25  1  0
  5 26  1  0
  5 27  1  0
  5 28  1  0
  9 29  1  0
 10 30  1  0
 13 31  1  0
 14 32  1  0
 15 33  1  0
 17 34  1  0
M  END
> <Uni-Dock RESULT> 
ENERGY=   -3.997  LOWER_BOUND=    8.845  UPPER_BOUND=    9.821
INTER + INTRA:          -3.997
INTER:                  -3.997
INTRA:                   0.000
UNBOUND:                 0.000

$$$$
