
     RDKit          3D

 34 33  0  0  0  0  0  0  0  0999 V2000
   47.8686    1.7008    7.0411 C   0  0  0  0  0  0  0  0  0  0  0  0
   47.0520    2.9796    7.1479 C   0  0  0  0  0  0  0  0  0  0  0  0
   46.0314    2.8304    8.1834 N   0  0  0  0  0  0  0  0  0  0  0  0
   45.2211    4.0409    8.3038 C   0  0  0  0  0  0  0  0  0  0  0  0
   44.1639    3.8482    9.3803 C   0  0  0  0  0  0  0  0  0  0  0  0
   47.2593    2.1890    6.2249 S   0  0  0  0  0  0  0  0  0  0  0  0
   46.3072    2.7561    7.5936 C   0  0  0  0  0  0  0  0  0  0  0  0
   45.6080    1.8758    8.4211 C   0  0  0  0  0  0  0  0  0  0  0  0
   46.2777    4.1339    7.8403 C   0  0  0  0  0  0  0  0  0  0  0  0
   44.8762    2.3796    9.4979 C   0  0  0  0  0  0  0  0  0  0  0  0
   47.0831    0.7533    6.1333 O   0  0  0  0  0  0  0  0  0  0  0  0
   48.5728    2.7887    6.3002 O   0  0  0  0  0  0  0  0  0  0  0  0
   46.5492    2.8433    4.9339 O   0  0  0  0  0  0  0  0  0  0  0  0
   44.8401    3.7533    9.7480 C   0  0  0  0  0  0  0  0  0  0  0  0
   45.5666    0.5185    8.2719 O   0  0  0  0  0  0  0  0  0  0  0  0
   45.5425    4.6178    8.9149 C   0  0  0  0  0  0  0  0  0  0  0  0
   45.5369    5.9645    9.1203 O   0  0  0  0  0  0  0  0  0  0  0  0
   47.2381    0.8486    6.7655 H   0  0  0  0  0  0  0  0  0  0  0  0
   48.6413    1.8101    6.2734 H   0  0  0  0  0  0  0  0  0  0  0  0
   48.3656    1.4678    7.9890 H   0  0  0  0  0  0  0  0  0  0  0  0
   47.7233    3.8103    7.3937 H   0  0  0  0  0  0  0  0  0  0  0  0
   46.5883    3.1908    6.1772 H   0  0  0  0  0  0  0  0  0  0  0  0
   45.4312    2.0362    7.9622 H   0  0  0  0  0  0  0  0  0  0  0  0
   44.7267    4.2699    7.3528 H   0  0  0  0  0  0  0  0  0  0  0  0
   45.8526    4.8946    8.5748 H   0  0  0  0  0  0  0  0  0  0  0  0
   44.6223    3.6378   10.3525 H   0  0  0  0  0  0  0  0  0  0  0  0
   43.4901    3.0212    9.1319 H   0  0  0  0  0  0  0  0  0  0  0  0
   43.5599    4.7556    9.4818 H   0  0  0  0  0  0  0  0  0  0  0  0
   46.8246    4.8291    7.2087 H   0  0  0  0  0  0  0  0  0  0  0  0
   44.3301    1.6960   10.1443 H   0  0  0  0  0  0  0  0  0  0  0  0
   47.2429    3.2930    4.4065 H   0  0  0  0  0  0  0  0  0  0  0  0
   44.2635    4.1230   10.5904 H   0  0  0  0  0  0  0  0  0  0  0  0
   46.0704    0.2377    7.4769 H   0  0  0  0  0  0  0  0  0  0  0  0
   45.0013    6.1604    9.9076 H   0  0  0  0  0  0  0  0  0  0  0  0
  1  2  1  0
  2  3  1  0
  3  4  1  0
  4  5  1  0
  7  6  1  0
  8  7  2  0
  9  7  1  0
 10  8  1  0
 11  6  2  0
 12  6  2  0
 13  6  1  0
 14 16  1  0
 15  8  1  0
 16  9  2  0
 10 14  2  0
 16 17  1  0
  1 18  1  0
  1 19  1  0
  1 20  1  0
  2 21  1  0
  2 22  1  0
  3 23  1  0
  4 24  1  0
  4 25  1  0
  5 26  1  0
  5 27  1  0
  5 28  1  0
  9 29  1  0
 10 30  1  0
 13 31  1  0
 14 32  1  0
 15 33  1  0
 17 34  1  0
M  END
> <Uni-Dock RESULT> 
ENERGY=   -5.913  LOWER_BOUND=    0.000  UPPER_BOUND=    0.000
INTER + INTRA:          -5.913
INTER:                  -5.913
INTRA:                   0.000
UNBOUND:                 0.000

$$$$

     RDKit          3D

 34 33  0  0  0  0  0  0  0  0999 V2000
   42.5184    5.3912   11.8001 C   0  0  0  0  0  0  0  0  0  0  0  0
   43.6531    5.3036   10.7910 C   0  0  0  0  0  0  0  0  0  0  0  0
   43.9394    3.9027   10.4882 N   0  0  0  0  0  0  0  0  0  0  0  0
   45.0345    3.7837    9.5275 C   0  0  0  0  0  0  0  0  0  0  0  0
   45.3134    2.3157    9.2434 C   0  0  0  0  0  0  0  0  0  0  0  0
   43.5679    5.7912   11.9201 S   0  0  0  0  0  0  0  0  0  0  0  0
   43.9517    4.4596   10.8334 C   0  0  0  0  0  0  0  0  0  0  0  0
   43.7698    3.1268   11.2068 C   0  0  0  0  0  0  0  0  0  0  0  0
   44.4422    4.7776    9.5614 C   0  0  0  0  0  0  0  0  0  0  0  0
   44.0823    2.1109   10.3018 C   0  0  0  0  0  0  0  0  0  0  0  0
   43.1472    5.2186   13.1834 O   0  0  0  0  0  0  0  0  0  0  0  0
   42.7448    6.7422   11.2069 O   0  0  0  0  0  0  0  0  0  0  0  0
   44.9776    6.5311   12.1738 O   0  0  0  0  0  0  0  0  0  0  0  0
   44.5747    2.4211    9.0321 C   0  0  0  0  0  0  0  0  0  0  0  0
   43.3009    2.7047   12.4185 O   0  0  0  0  0  0  0  0  0  0  0  0
   44.7500    3.7538    8.6744 C   0  0  0  0  0  0  0  0  0  0  0  0
   45.2268    4.1040    7.4473 O   0  0  0  0  0  0  0  0  0  0  0  0
   42.7836    4.8959   12.7403 H   0  0  0  0  0  0  0  0  0  0  0  0
   42.2929    6.4389   12.0235 H   0  0  0  0  0  0  0  0  0  0  0  0
   41.6063    4.9253   11.4120 H   0  0  0  0  0  0  0  0  0  0  0  0
   43.3598    5.8365    9.8794 H   0  0  0  0  0  0  0  0  0  0  0  0
   44.5399    5.7974   11.2052 H   0  0  0  0  0  0  0  0  0  0  0  0
   44.1808    3.4081   11.3468 H   0  0  0  0  0  0  0  0  0  0  0  0
   45.9444    4.2519    9.9203 H   0  0  0  0  0  0  0  0  0  0  0  0
   44.7712    4.2835    8.5884 H   0  0  0  0  0  0  0  0  0  0  0  0
   44.4305    1.8178    8.8285 H   0  0  0  0  0  0  0  0  0  0  0  0
   45.6115    1.7844   10.1537 H   0  0  0  0  0  0  0  0  0  0  0  0
   46.1266    2.2205    8.5167 H   0  0  0  0  0  0  0  0  0  0  0  0
   44.5802    5.8113    9.2553 H   0  0  0  0  0  0  0  0  0  0  0  0
   43.9417    1.0714   10.5901 H   0  0  0  0  0  0  0  0  0  0  0  0
   44.8504    7.4869   11.9951 H   0  0  0  0  0  0  0  0  0  0  0  0
   44.8121    1.6148    8.3449 H   0  0  0  0  0  0  0  0  0  0  0  0
   43.1371    3.4669   13.0160 H   0  0  0  0  0  0  0  0  0  0  0  0
   45.3836    3.2968    6.9287 H   0  0  0  0  0  0  0  0  0  0  0  0
  1  2  1  0
  2  3  1  0
  3  4  1  0
  4  5  1  0
  7  6  1  0
  8  7  2  0
  9  7  1  0
 10  8  1  0
 11  6  2  0
 12  6  2  0
 13  6  1  0
 14 16  1  0
 15  8  1  0
 16  9  2  0
 10 14  2  0
 16 17  1  0
  1 18  1  0
  1 19  1  0
  1 20  1  0
  2 21  1  0
  2 22  1  0
  3 23  1  0
  4 24  1  0
  4 25  1  0
  5 26  1  0
  5 27  1  0
  5 28  1  0
  9 29  1  0
 10 30  1  0
 13 31  1  0
 14 32  1  0
 15 33  1  0
 17 34  1  0
M  END
> <Uni-Dock RESULT> 
ENERGY=   -5.783  LOWER_BOUND=    3.191  UPPER_BOUND=    5.284
INTER + INTRA:          -5.783
INTER:                  -5.783
INTRA:                   0.000
UNBOUND:                 0.000

$$$$

     RDKit          3D

 34 33  0  0  0  0  0  0  0  0999 V2000
   42.9804    5.1991   12.8252 C   0  0  0  0  0  0  0  0  0  0  0  0
   44.4900    5.0150   12.8508 C   0  0  0  0  0  0  0  0  0  0  0  0
   45.1491    6.2912   12.5804 N   0  0  0  0  0  0  0  0  0  0  0  0
   46.6035    6.1458   12.5875 C   0  0  0  0  0  0  0  0  0  0  0  0
   47.2568    7.4873   12.2925 C   0  0  0  0  0  0  0  0  0  0  0  0
   43.5930    4.5119   12.1709 S   0  0  0  0  0  0  0  0  0  0  0  0
   44.8299    5.7361   12.4411 C   0  0  0  0  0  0  0  0  0  0  0  0
   44.6884    7.0437   11.9733 C   0  0  0  0  0  0  0  0  0  0  0  0
   45.9725    5.3605   13.1576 C   0  0  0  0  0  0  0  0  0  0  0  0
   45.6966    7.9761   12.2239 C   0  0  0  0  0  0  0  0  0  0  0  0
   42.5526    5.1119   11.3595 O   0  0  0  0  0  0  0  0  0  0  0  0
   43.2966    3.8732   13.4336 O   0  0  0  0  0  0  0  0  0  0  0  0
   44.3186    3.3899   11.2688 O   0  0  0  0  0  0  0  0  0  0  0  0
   46.8404    7.6073   12.9357 C   0  0  0  0  0  0  0  0  0  0  0  0
   43.6201    7.5160   11.2648 O   0  0  0  0  0  0  0  0  0  0  0  0
   46.9668    6.3008   13.3959 C   0  0  0  0  0  0  0  0  0  0  0  0
   48.0639    5.8959   14.0946 O   0  0  0  0  0  0  0  0  0  0  0  0
   42.6391    5.5478   11.8445 H   0  0  0  0  0  0  0  0  0  0  0  0
   42.4811    4.2482   13.0368 H   0  0  0  0  0  0  0  0  0  0  0  0
   42.6570    5.9248   13.5792 H   0  0  0  0  0  0  0  0  0  0  0  0
   44.7851    4.6369   13.8362 H   0  0  0  0  0  0  0  0  0  0  0  0
   44.7727    4.2684   12.0995 H   0  0  0  0  0  0  0  0  0  0  0  0
   44.8444    6.6502   11.6758 H   0  0  0  0  0  0  0  0  0  0  0  0
   46.9217    5.4183   11.8319 H   0  0  0  0  0  0  0  0  0  0  0  0
   46.9446    5.7923   13.5671 H   0  0  0  0  0  0  0  0  0  0  0  0
   46.9781    8.2368   13.0410 H   0  0  0  0  0  0  0  0  0  0  0  0
   46.9657    7.8626   11.3055 H   0  0  0  0  0  0  0  0  0  0  0  0
   48.3468    7.3866   12.3061 H   0  0  0  0  0  0  0  0  0  0  0  0
   46.0910    4.3480   13.5347 H   0  0  0  0  0  0  0  0  0  0  0  0
   45.5891    8.9957   11.8604 H   0  0  0  0  0  0  0  0  0  0  0  0
   44.1737    2.5205   11.6986 H   0  0  0  0  0  0  0  0  0  0  0  0
   47.6124    8.3487   13.1179 H   0  0  0  0  0  0  0  0  0  0  0  0
   42.9691    6.8008   11.0935 H   0  0  0  0  0  0  0  0  0  0  0  0
   48.6656    6.6520   14.2012 H   0  0  0  0  0  0  0  0  0  0  0  0
  1  2  1  0
  2  3  1  0
  3  4  1  0
  4  5  1  0
  7  6  1  0
  8  7  2  0
  9  7  1  0
 10  8  1  0
 11  6  2  0
 12  6  2  0
 13  6  1  0
 14 16  1  0
 15  8  1  0
 16  9  2  0
 10 14  2  0
 16 17  1  0
  1 18  1  0
  1 19  1  0
  1 20  1  0
  2 21  1  0
  2 22  1  0
  3 23  1  0
  4 24  1  0
  4 25  1  0
  5 26  1  0
  5 27  1  0
  5 28  1  0
  9 29  1  0
 10 30  1  0
 13 31  1  0
 14 32  1  0
 15 33  1  0
 17 34  1  0
M  END
> <Uni-Dock RESULT> 
ENERGY=   -4.504  LOWER_BOUND=    5.453  UPPER_BOUND=    6.589
INTER + INTRA:          -4.504
INTER:                  -4.504
INTRA:                   0.000
UNBOUND:                 0.000

$$$$

     RDKit          3D

 34 33  0  0  0  0  0  0  0  0999 V2000
   47.3544    5.3214   13.2199 C   0  0  0  0  0  0  0  0  0  0  0  0
   46.0851    4.4854   13.2813 C   0  0  0  0  0  0  0  0  0  0  0  0
   44.9812    5.2150   12.6606 N   0  0  0  0  0  0  0  0  0  0  0  0
   43.7421    4.4415   12.7129 C   0  0  0  0  0  0  0  0  0  0  0  0
   42.6134    5.2326   12.0696 C   0  0  0  0  0  0  0  0  0  0  0  0
   46.8422    4.9293   14.1472 S   0  0  0  0  0  0  0  0  0  0  0  0
   45.4106    5.0558   13.1292 C   0  0  0  0  0  0  0  0  0  0  0  0
   44.9455    6.2854   12.6597 C   0  0  0  0  0  0  0  0  0  0  0  0
   44.7465    3.8712   12.7893 C   0  0  0  0  0  0  0  0  0  0  0  0
   43.8104    6.3264   11.8483 C   0  0  0  0  0  0  0  0  0  0  0  0
   47.3099    6.2748   14.4147 O   0  0  0  0  0  0  0  0  0  0  0  0
   47.7142    3.9203   13.5886 O   0  0  0  0  0  0  0  0  0  0  0  0
   46.3014    4.3230   15.5396 O   0  0  0  0  0  0  0  0  0  0  0  0
   43.1413    5.1486   11.5076 C   0  0  0  0  0  0  0  0  0  0  0  0
   45.5134    7.4982   12.9300 O   0  0  0  0  0  0  0  0  0  0  0  0
   43.6171    3.9309   11.9827 C   0  0  0  0  0  0  0  0  0  0  0  0
   42.9977    2.7570   11.6762 O   0  0  0  0  0  0  0  0  0  0  0  0
   47.2347    6.2660   13.7613 H   0  0  0  0  0  0  0  0  0  0  0  0
   48.1873    4.7757   13.6748 H   0  0  0  0  0  0  0  0  0  0  0  0
   47.6275    5.5513   12.1844 H   0  0  0  0  0  0  0  0  0  0  0  0
   46.2572    3.5390   12.7562 H   0  0  0  0  0  0  0  0  0  0  0  0
   45.8561    4.2582   14.3290 H   0  0  0  0  0  0  0  0  0  0  0  0
   44.8491    6.1075   13.1358 H   0  0  0  0  0  0  0  0  0  0  0  0
   43.4737    4.2136   13.7508 H   0  0  0  0  0  0  0  0  0  0  0  0
   43.8633    3.4942   12.1754 H   0  0  0  0  0  0  0  0  0  0  0  0
   42.8371    5.4616   11.0221 H   0  0  0  0  0  0  0  0  0  0  0  0
   42.4382    6.1761   12.5976 H   0  0  0  0  0  0  0  0  0  0  0  0
   41.6845    4.6540   12.0971 H   0  0  0  0  0  0  0  0  0  0  0  0
   45.1032    2.9067   13.1412 H   0  0  0  0  0  0  0  0  0  0  0  0
   43.4456    7.2831   11.4812 H   0  0  0  0  0  0  0  0  0  0  0  0
   46.8596    3.5492   15.7660 H   0  0  0  0  0  0  0  0  0  0  0  0
   42.2598    5.2043   10.8763 H   0  0  0  0  0  0  0  0  0  0  0  0
   46.2820    7.3988   13.5334 H   0  0  0  0  0  0  0  0  0  0  0  0
   42.2389    2.9433   11.0979 H   0  0  0  0  0  0  0  0  0  0  0  0
  1  2  1  0
  2  3  1  0
  3  4  1  0
  4  5  1  0
  7  6  1  0
  8  7  2  0
  9  7  1  0
 10  8  1  0
 11  6  2  0
 12  6  2  0
 13  6  1  0
 14 16  1  0
 15  8  1  0
 16  9  2  0
 10 14  2  0
 16 17  1  0
  1 18  1  0
  1 19  1  0
  1 20  1  0
  2 21  1  0
  2 22  1  0
  3 23  1  0
  4 24  1  0
  4 25  1  0
  5 26  1  0
  5 27  1  0
  5 28  1  0
  9 29  1  0
 10 30  1  0
 13 31  1  0
 14 32  1  0
 15 33  1  0
 17 34  1  0
M  END
> <Uni-Dock RESULT> 
ENERGY=   -4.332  LOWER_BOUND=    5.482  UPPER_BOUND=    6.557
INTER + INTRA:          -4.332
INTER:                  -4.332
INTRA:                   0.000
UNBOUND:                 0.000

$$$$

     RDKit          3D

 34 33  0  0  0  0  0  0  0  0999 V2000
   46.9186    6.0599   13.8818 C   0  0  0  0  0  0  0  0  0  0  0  0
   45.8130    6.2819   12.8611 C   0  0  0  0  0  0  0  0  0  0  0  0
   45.0570    5.0452   12.6733 N   0  0  0  0  0  0  0  0  0  0  0  0
   43.9915    5.2226   11.6884 C   0  0  0  0  0  0  0  0  0  0  0  0
   43.2330    3.9165   11.5093 C   0  0  0  0  0  0  0  0  0  0  0  0
   47.0401    6.3883   12.8080 S   0  0  0  0  0  0  0  0  0  0  0  0
   45.5555    5.4641   12.5998 C   0  0  0  0  0  0  0  0  0  0  0  0
   45.5106    4.0841   12.8052 C   0  0  0  0  0  0  0  0  0  0  0  0
   44.4007    6.1621   12.2269 C   0  0  0  0  0  0  0  0  0  0  0  0
   44.3042    3.4028   12.6346 C   0  0  0  0  0  0  0  0  0  0  0  0
   48.0992    5.4508   13.1243 O   0  0  0  0  0  0  0  0  0  0  0  0
   46.7569    7.5263   13.6537 O   0  0  0  0  0  0  0  0  0  0  0  0
   47.3540    6.9922   11.3466 O   0  0  0  0  0  0  0  0  0  0  0  0
   43.1489    4.0926   12.2599 C   0  0  0  0  0  0  0  0  0  0  0  0
   46.5736    3.3062   13.1677 O   0  0  0  0  0  0  0  0  0  0  0  0
   43.2093    5.4677   12.0594 C   0  0  0  0  0  0  0  0  0  0  0  0
   42.1084    6.1821   11.6940 O   0  0  0  0  0  0  0  0  0  0  0  0
   47.6208    5.2893   13.5459 H   0  0  0  0  0  0  0  0  0  0  0  0
   47.4824    6.9859   14.0340 H   0  0  0  0  0  0  0  0  0  0  0  0
   46.5083    5.7522   14.8497 H   0  0  0  0  0  0  0  0  0  0  0  0
   45.1527    7.0794   13.2203 H   0  0  0  0  0  0  0  0  0  0  0  0
   46.2595    6.6082   11.9146 H   0  0  0  0  0  0  0  0  0  0  0  0
   45.6850    4.3015   12.3694 H   0  0  0  0  0  0  0  0  0  0  0  0
   44.4073    5.5311   10.7223 H   0  0  0  0  0  0  0  0  0  0  0  0
   43.2916    5.9971   12.0222 H   0  0  0  0  0  0  0  0  0  0  0  0
   42.7841    3.5865   12.4522 H   0  0  0  0  0  0  0  0  0  0  0  0
   43.8920    3.1209   11.1454 H   0  0  0  0  0  0  0  0  0  0  0  0
   42.4271    4.0459   10.7796 H   0  0  0  0  0  0  0  0  0  0  0  0
   44.4202    7.2378   12.0722 H   0  0  0  0  0  0  0  0  0  0  0  0
   44.2663    2.3274   12.7937 H   0  0  0  0  0  0  0  0  0  0  0  0
   47.4988    7.9570   11.4462 H   0  0  0  0  0  0  0  0  0  0  0  0
   42.2219    3.5421   12.1317 H   0  0  0  0  0  0  0  0  0  0  0  0
   47.3939    3.8422   13.2338 H   0  0  0  0  0  0  0  0  0  0  0  0
   41.3491    5.5786   11.6289 H   0  0  0  0  0  0  0  0  0  0  0  0
  1  2  1  0
  2  3  1  0
  3  4  1  0
  4  5  1  0
  7  6  1  0
  8  7  2  0
  9  7  1  0
 10  8  1  0
 11  6  2  0
 12  6  2  0
 13  6  1  0
 14 16  1  0
 15  8  1  0
 16  9  2  0
 10 14  2  0
 16 17  1  0
  1 18  1  0
  1 19  1  0
  1 20  1  0
  2 21  1  0
  2 22  1  0
  3 23  1  0
  4 24  1  0
  4 25  1  0
  5 26  1  0
  5 27  1  0
  5 28  1  0
  9 29  1  0
 10 30  1  0
 13 31  1  0
 14 32  1  0
 15 33  1  0
 17 34  1  0
M  END
> <Uni-Dock RESULT> 
ENERGY=   -4.257  LOWER_BOUND=    5.311  UPPER_BOUND=    5.946
INTER + INTRA:          -4.257
INTER:                  -4.257
INTRA:                   0.000
UNBOUND:                 0.000

$$$$

     RDKit          3D

 34 33  0  0  0  0  0  0  0  0999 V2000
   44.6339    3.9757    8.0587 C   0  0  0  0  0  0  0  0  0  0  0  0
   44.6091    3.1519    9.3371 C   0  0  0  0  0  0  0  0  0  0  0  0
   44.7543    4.0310   10.4956 N   0  0  0  0  0  0  0  0  0  0  0  0
   44.7449    3.2674   11.7419 C   0  0  0  0  0  0  0  0  0  0  0  0
   44.9086    4.2096   12.9246 C   0  0  0  0  0  0  0  0  0  0  0  0
   45.3419    3.1437    8.3457 S   0  0  0  0  0  0  0  0  0  0  0  0
   44.9473    3.6828    9.9752 C   0  0  0  0  0  0  0  0  0  0  0  0
   45.2947    4.9538   10.4361 C   0  0  0  0  0  0  0  0  0  0  0  0
   44.2560    2.7930   10.8060 C   0  0  0  0  0  0  0  0  0  0  0  0
   44.9488    5.3321   11.7346 C   0  0  0  0  0  0  0  0  0  0  0  0
   46.1059    4.1977    7.7084 O   0  0  0  0  0  0  0  0  0  0  0  0
   44.1463    2.6013    7.7401 O   0  0  0  0  0  0  0  0  0  0  0  0
   46.3352    1.8919    8.5586 O   0  0  0  0  0  0  0  0  0  0  0  0
   44.2616    4.4483   12.5698 C   0  0  0  0  0  0  0  0  0  0  0  0
   45.9683    5.8974    9.7135 O   0  0  0  0  0  0  0  0  0  0  0  0
   43.9218    3.1855   12.0960 C   0  0  0  0  0  0  0  0  0  0  0  0
   43.2514    2.2906   12.8742 O   0  0  0  0  0  0  0  0  0  0  0  0
   45.5821    4.5133    7.9507 H   0  0  0  0  0  0  0  0  0  0  0  0
   44.5158    3.3233    7.1876 H   0  0  0  0  0  0  0  0  0  0  0  0
   43.8201    4.7086    8.0439 H   0  0  0  0  0  0  0  0  0  0  0  0
   43.6595    2.6075    9.3906 H   0  0  0  0  0  0  0  0  0  0  0  0
   45.4226    2.4177    9.3061 H   0  0  0  0  0  0  0  0  0  0  0  0
   45.6253    4.5561   10.4213 H   0  0  0  0  0  0  0  0  0  0  0  0
   45.5605    2.5353   11.7513 H   0  0  0  0  0  0  0  0  0  0  0  0
   43.7982    2.7256   11.8476 H   0  0  0  0  0  0  0  0  0  0  0  0
   44.0976    4.9449   12.9606 H   0  0  0  0  0  0  0  0  0  0  0  0
   45.8601    4.7499   12.8736 H   0  0  0  0  0  0  0  0  0  0  0  0
   44.8926    3.6441   13.8619 H   0  0  0  0  0  0  0  0  0  0  0  0
   43.9721    1.8038   10.4564 H   0  0  0  0  0  0  0  0  0  0  0  0
   45.2185    6.3219   12.0966 H   0  0  0  0  0  0  0  0  0  0  0  0
   45.9885    1.1415    8.0310 H   0  0  0  0  0  0  0  0  0  0  0  0
   44.0039    4.7634   13.5763 H   0  0  0  0  0  0  0  0  0  0  0  0
   46.2115    5.5523    8.8267 H   0  0  0  0  0  0  0  0  0  0  0  0
   43.0695    2.6988   13.7375 H   0  0  0  0  0  0  0  0  0  0  0  0
  1  2  1  0
  2  3  1  0
  3  4  1  0
  4  5  1  0
  7  6  1  0
  8  7  2  0
  9  7  1  0
 10  8  1  0
 11  6  2  0
 12  6  2  0
 13  6  1  0
 14 16  1  0
 15  8  1  0
 16  9  2  0
 10 14  2  0
 16 17  1  0
  1 18  1  0
  1 19  1  0
  1 20  1  0
  2 21  1  0
  2 22  1  0
  3 23  1  0
  4 24  1  0
  4 25  1  0
  5 26  1  0
  5 27  1  0
  5 28  1  0
  9 29  1  0
 10 30  1  0
 13 31  1  0
 14 32  1  0
 15 33  1  0
 17 34  1  0
M  END
> <Uni-Dock RESULT> 
ENERGY=   -4.047  LOWER_BOUND=    2.476  UPPER_BOUND=    3.910
INTER + INTRA:          -4.047
INTER:                  -4.047
INTRA:                   0.000
UNBOUND:                 0.000

$$$$

     RDKit          3D

 34 33  0  0  0  0  0  0  0  0999 V2000
   44.4507    4.4937   11.4251 C   0  0  0  0  0  0  0  0  0  0  0  0
   44.3115    5.9445   11.8602 C   0  0  0  0  0  0  0  0  0  0  0  0
   45.5881    6.4302   12.3802 N   0  0  0  0  0  0  0  0  0  0  0  0
   45.4849    7.8211   12.8175 C   0  0  0  0  0  0  0  0  0  0  0  0
   46.8252    8.2907   13.3621 C   0  0  0  0  0  0  0  0  0  0  0  0
   43.7444    4.9054   12.2046 S   0  0  0  0  0  0  0  0  0  0  0  0
   45.0170    6.1090   12.3879 C   0  0  0  0  0  0  0  0  0  0  0  0
   46.2908    5.7715   12.8488 C   0  0  0  0  0  0  0  0  0  0  0  0
   44.7163    7.4324   12.0442 C   0  0  0  0  0  0  0  0  0  0  0  0
   47.2645    6.7648   12.9663 C   0  0  0  0  0  0  0  0  0  0  0  0
   44.2665    3.6398   12.6804 O   0  0  0  0  0  0  0  0  0  0  0  0
   43.1717    5.0414   10.8840 O   0  0  0  0  0  0  0  0  0  0  0  0
   42.5933    5.3677   13.2342 O   0  0  0  0  0  0  0  0  0  0  0  0
   46.9704    8.0877   12.6278 C   0  0  0  0  0  0  0  0  0  0  0  0
   46.6906    4.5168   13.2123 O   0  0  0  0  0  0  0  0  0  0  0  0
   45.6968    8.4083   12.1695 C   0  0  0  0  0  0  0  0  0  0  0  0
   45.3645    9.6843   11.8273 O   0  0  0  0  0  0  0  0  0  0  0  0
   44.7321    3.8517   12.2668 H   0  0  0  0  0  0  0  0  0  0  0  0
   43.4997    4.1273   11.0255 H   0  0  0  0  0  0  0  0  0  0  0  0
   45.2093    4.3859   10.6424 H   0  0  0  0  0  0  0  0  0  0  0  0
   43.9996    6.5455   10.9984 H   0  0  0  0  0  0  0  0  0  0  0  0
   43.5310    6.0155   12.6267 H   0  0  0  0  0  0  0  0  0  0  0  0
   45.8854    5.8459   13.1614 H   0  0  0  0  0  0  0  0  0  0  0  0
   44.7243    7.9236   13.6000 H   0  0  0  0  0  0  0  0  0  0  0  0
   45.1986    8.4628   11.9765 H   0  0  0  0  0  0  0  0  0  0  0  0
   47.6085    8.2226   12.5996 H   0  0  0  0  0  0  0  0  0  0  0  0
   47.1343    7.6932   14.2265 H   0  0  0  0  0  0  0  0  0  0  0  0
   46.7566    9.3353   13.6823 H   0  0  0  0  0  0  0  0  0  0  0  0
   43.7311    7.7067   11.6760 H   0  0  0  0  0  0  0  0  0  0  0  0
   48.2579    6.5048   13.3253 H   0  0  0  0  0  0  0  0  0  0  0  0
   41.7465    5.4015   12.7410 H   0  0  0  0  0  0  0  0  0  0  0  0
   47.7428    8.8440   12.7282 H   0  0  0  0  0  0  0  0  0  0  0  0
   45.9484    3.8776   13.1401 H   0  0  0  0  0  0  0  0  0  0  0  0
   46.1423   10.2550   11.9475 H   0  0  0  0  0  0  0  0  0  0  0  0
  1  2  1  0
  2  3  1  0
  3  4  1  0
  4  5  1  0
  7  6  1  0
  8  7  2  0
  9  7  1  0
 10  8  1  0
 11  6  2  0
 12  6  2  0
 13  6  1  0
 14 16  1  0
 15  8  1  0
 16  9  2  0
 10 14  2  0
 16 17  1  0
  1 18  1  0
  1 19  1  0
  1 20  1  0
  2 21  1  0
  2 22  1  0
  3 23  1  0
  4 24  1  0
  4 25  1  0
  5 26  1  0
  5 27  1  0
  5 28  1  0
  9 29  1  0
 10 30  1  0
 13 31  1  0
 14 32  1  0
 15 33  1  0
 17 34  1  0
M  END
> <Uni-Dock RESULT> 
ENERGY=   -4.013  LOWER_BOUND=    5.112  UPPER_BOUND=    6.438
INTER + INTRA:          -4.013
INTER:                  -4.013
INTRA:                   0.000
UNBOUND:                 0.000

$$$$

     RDKit          3D

 34 33  0  0  0  0  0  0  0  0999 V2000
   51.6890    3.9742   18.7631 C   0  0  0  0  0  0  0  0  0  0  0  0
   50.4392    4.7601   18.3972 C   0  0  0  0  0  0  0  0  0  0  0  0
   49.4429    3.8631   17.8150 N   0  0  0  0  0  0  0  0  0  0  0  0
   48.2314    4.5909   17.4422 C   0  0  0  0  0  0  0  0  0  0  0  0
   47.2218    3.6317   16.8308 C   0  0  0  0  0  0  0  0  0  0  0  0
   51.6186    4.8463   18.0487 S   0  0  0  0  0  0  0  0  0  0  0  0
   49.9803    4.2378   17.8317 C   0  0  0  0  0  0  0  0  0  0  0  0
   49.7271    2.9828   17.2753 C   0  0  0  0  0  0  0  0  0  0  0  0
   48.9218    5.0542   18.2476 C   0  0  0  0  0  0  0  0  0  0  0  0
   48.4084    2.5467   17.1348 C   0  0  0  0  0  0  0  0  0  0  0  0
   52.5279    3.8661   17.4890 O   0  0  0  0  0  0  0  0  0  0  0  0
   51.7558    5.3187   19.4083 O   0  0  0  0  0  0  0  0  0  0  0  0
   51.6939    6.1591   17.1160 O   0  0  0  0  0  0  0  0  0  0  0  0
   47.3476    3.3573   17.5452 C   0  0  0  0  0  0  0  0  0  0  0  0
   50.6805    2.1085   16.8359 O   0  0  0  0  0  0  0  0  0  0  0  0
   47.6158    4.6051   18.0982 C   0  0  0  0  0  0  0  0  0  0  0  0
   46.6137    5.4295   18.5129 O   0  0  0  0  0  0  0  0  0  0  0  0
   52.1381    3.5080   17.8795 H   0  0  0  0  0  0  0  0  0  0  0  0
   52.4354    4.6395   19.2088 H   0  0  0  0  0  0  0  0  0  0  0  0
   51.4630    3.1863   19.4896 H   0  0  0  0  0  0  0  0  0  0  0  0
   50.0405    5.2344   19.3012 H   0  0  0  0  0  0  0  0  0  0  0  0
   50.7081    5.5505   17.6868 H   0  0  0  0  0  0  0  0  0  0  0  0
   49.8336    3.4030   16.9931 H   0  0  0  0  0  0  0  0  0  0  0  0
   48.4631    5.3784   16.7159 H   0  0  0  0  0  0  0  0  0  0  0  0
   47.7847    5.0615   18.3254 H   0  0  0  0  0  0  0  0  0  0  0  0
   46.9491    2.8403   17.5371 H   0  0  0  0  0  0  0  0  0  0  0  0
   47.6186    3.1616   15.9245 H   0  0  0  0  0  0  0  0  0  0  0  0
   46.3081    4.1697   16.5583 H   0  0  0  0  0  0  0  0  0  0  0  0
   49.1057    6.0297   18.6902 H   0  0  0  0  0  0  0  0  0  0  0  0
   48.2081    1.5693   16.7015 H   0  0  0  0  0  0  0  0  0  0  0  0
   52.0354    6.8968   17.6645 H   0  0  0  0  0  0  0  0  0  0  0  0
   46.3300    2.9983   17.4253 H   0  0  0  0  0  0  0  0  0  0  0  0
   51.5792    2.4933   16.9304 H   0  0  0  0  0  0  0  0  0  0  0  0
   45.7609    4.9868   18.3654 H   0  0  0  0  0  0  0  0  0  0  0  0
  1  2  1  0
  2  3  1  0
  3  4  1  0
  4  5  1  0
  7  6  1  0
  8  7  2  0
  9  7  1  0
 10  8  1  0
 11  6  2  0
 12  6  2  0
 13  6  1  0
 14 16  1  0
 15  8  1  0
 16  9  2  0
 10 14  2  0
 16 17  1  0
  1 18  1  0
  1 19  1  0
  1 20  1  0
  2 21  1  0
  2 22  1  0
  3 23  1  0
  4 24  1  0
  4 25  1  0
  5 26  1  0
  5 27  1  0
  5 28  1  0
  9 29  1  0
 10 30  1  0
 13 31  1  0
 14 32  1  0
 15 33  1  0
 17 34  1  0
M  END
> <Uni-Dock RESULT> 
ENERGY=   -3.650  LOWER_BOUND=    9.919  UPPER_BOUND=   10.905
INTER + INTRA:          -3.650
INTER:                  -3.650
INTRA:                   0.000
UNBOUND:                 0.000

$$$$

     RDKit          3D

 34 33  0  0  0  0  0  0  0  0999 V2000
   41.0139   16.8327   14.6626 C   0  0  0  0  0  0  0  0  0  0  0  0
   41.1751   15.3261   14.5304 C   0  0  0  0  0  0  0  0  0  0  0  0
   40.0932   14.6480   15.2418 N   0  0  0  0  0  0  0  0  0  0  0  0
   40.2254   13.1958   15.1426 C   0  0  0  0  0  0  0  0  0  0  0  0
   39.0922   12.5223   15.9014 C   0  0  0  0  0  0  0  0  0  0  0  0
   41.8963   16.2111   14.9956 S   0  0  0  0  0  0  0  0  0  0  0  0
   40.6600   14.9692   15.1713 C   0  0  0  0  0  0  0  0  0  0  0  0
   39.6230   15.0865   16.0984 C   0  0  0  0  0  0  0  0  0  0  0  0
   40.7398   13.8481   14.3366 C   0  0  0  0  0  0  0  0  0  0  0  0
   38.6646   14.0755   16.1889 C   0  0  0  0  0  0  0  0  0  0  0  0
   41.6440   17.2256   15.9995 O   0  0  0  0  0  0  0  0  0  0  0  0
   42.0153   16.5444   13.5937 O   0  0  0  0  0  0  0  0  0  0  0  0
   43.2745   15.4750   15.3924 O   0  0  0  0  0  0  0  0  0  0  0  0
   38.7398   12.9530   15.3611 C   0  0  0  0  0  0  0  0  0  0  0  0
   39.4505   16.1326   16.9599 O   0  0  0  0  0  0  0  0  0  0  0  0
   39.7787   12.8507   14.4419 C   0  0  0  0  0  0  0  0  0  0  0  0
   39.8923   11.7749   13.6139 O   0  0  0  0  0  0  0  0  0  0  0  0
   41.0582   17.1466   15.7110 H   0  0  0  0  0  0  0  0  0  0  0  0
   41.8163   17.3463   14.1233 H   0  0  0  0  0  0  0  0  0  0  0  0
   40.0586   17.1672   14.2441 H   0  0  0  0  0  0  0  0  0  0  0  0
   41.1564   15.0587   13.4677 H   0  0  0  0  0  0  0  0  0  0  0  0
   42.1488   15.0325   14.9396 H   0  0  0  0  0  0  0  0  0  0  0  0
   40.0993   14.9271   16.2226 H   0  0  0  0  0  0  0  0  0  0  0  0
   41.1830   12.8665   15.5620 H   0  0  0  0  0  0  0  0  0  0  0  0
   40.1860   12.8821   14.0933 H   0  0  0  0  0  0  0  0  0  0  0  0
   38.1168   12.8117   15.4957 H   0  0  0  0  0  0  0  0  0  0  0  0
   39.1140   12.7857   16.9644 H   0  0  0  0  0  0  0  0  0  0  0  0
   39.1804   11.4340   15.8225 H   0  0  0  0  0  0  0  0  0  0  0  0
   41.5372   13.7487   13.6047 H   0  0  0  0  0  0  0  0  0  0  0  0
   37.8555   14.1641   16.9106 H   0  0  0  0  0  0  0  0  0  0  0  0
   43.9195   15.6388   14.6721 H   0  0  0  0  0  0  0  0  0  0  0  0
   37.9842   12.1785   15.4497 H   0  0  0  0  0  0  0  0  0  0  0  0
   40.1779   16.7862   16.8678 H   0  0  0  0  0  0  0  0  0  0  0  0
   39.1514   11.1685   13.7826 H   0  0  0  0  0  0  0  0  0  0  0  0
  1  2  1  0
  2  3  1  0
  3  4  1  0
  4  5  1  0
  7  6  1  0
  8  7  2  0
  9  7  1  0
 10  8  1  0
 11  6  2  0
 12  6  2  0
 13  6  1  0
 14 16  1  0
 15  8  1  0
 16  9  2  0
 10 14  2  0
 16 17  1  0
  1 18  1  0
  1 19  1  0
  1 20  1  0
  2 21  1  0
  2 22  1  0
  3 23  1  0
  4 24  1  0
  4 25  1  0
  5 26  1  0
  5 27  1  0
  5 28  1  0
  9 29  1  0
 10 30  1  0
 13 31  1  0
 14 32  1  0
 15 33  1  0
 17 34  1  0
M  END
> <Uni-Dock RESULT> 
ENERGY=   -3.478  LOWER_BOUND=   13.554  UPPER_BOUND=   15.315
INTER + INTRA:          -3.478
INTER:                  -3.478
INTRA:                   0.000
UNBOUND:                 0.000

$$$$
