
     RDKit          3D

 34 33  0  0  0  0  0  0  0  0999 V2000
   45.4059    4.4032    9.9717 C   0  0  0  0  0  0  0  0  0  0  0  0
   45.2750    4.2295    8.4649 C   0  0  0  0  0  0  0  0  0  0  0  0
   44.7620    2.9200    8.0634 N   0  0  0  0  0  0  0  0  0  0  0  0
   45.6488    1.7917    8.3456 C   0  0  0  0  0  0  0  0  0  0  0  0
   46.9560    1.8324    7.5670 C   0  0  0  0  0  0  0  0  0  0  0  0
   44.3469    3.1638   10.5332 S   0  0  0  0  0  0  0  0  0  0  0  0
   45.3325    2.9825    9.0754 C   0  0  0  0  0  0  0  0  0  0  0  0
   45.7277    4.1052    8.3452 C   0  0  0  0  0  0  0  0  0  0  0  0
   45.6908    1.6948    8.6605 C   0  0  0  0  0  0  0  0  0  0  0  0
   46.4987    3.9465    7.1940 C   0  0  0  0  0  0  0  0  0  0  0  0
   45.2355    3.6048   11.5862 O   0  0  0  0  0  0  0  0  0  0  0  0
   43.5406    1.9687   10.6671 O   0  0  0  0  0  0  0  0  0  0  0  0
   43.3461    4.3889   10.2012 O   0  0  0  0  0  0  0  0  0  0  0  0
   46.8637    2.6636    6.7789 C   0  0  0  0  0  0  0  0  0  0  0  0
   45.3613    5.3604    8.7499 O   0  0  0  0  0  0  0  0  0  0  0  0
   46.4572    1.5515    7.5110 C   0  0  0  0  0  0  0  0  0  0  0  0
   46.8366    0.3241    7.0578 O   0  0  0  0  0  0  0  0  0  0  0  0
   45.6756    5.4383   10.2058 H   0  0  0  0  0  0  0  0  0  0  0  0
   44.4619    4.1806   10.4800 H   0  0  0  0  0  0  0  0  0  0  0  0
   46.1848    3.7572   10.3879 H   0  0  0  0  0  0  0  0  0  0  0  0
   44.5684    4.9824    8.0961 H   0  0  0  0  0  0  0  0  0  0  0  0
   46.2269    4.4523    7.9721 H   0  0  0  0  0  0  0  0  0  0  0  0
   43.8675    2.7584    8.5265 H   0  0  0  0  0  0  0  0  0  0  0  0
   45.1162    0.8777    8.0572 H   0  0  0  0  0  0  0  0  0  0  0  0
   45.8489    1.7009    9.4185 H   0  0  0  0  0  0  0  0  0  0  0  0
   47.6031    2.6489    7.9012 H   0  0  0  0  0  0  0  0  0  0  0  0
   46.7740    1.9497    6.4936 H   0  0  0  0  0  0  0  0  0  0  0  0
   47.5059    0.8967    7.7126 H   0  0  0  0  0  0  0  0  0  0  0  0
   45.3715    0.8279    9.2328 H   0  0  0  0  0  0  0  0  0  0  0  0
   46.8217    4.7986    6.6029 H   0  0  0  0  0  0  0  0  0  0  0  0
   43.8955    5.1561    9.9193 H   0  0  0  0  0  0  0  0  0  0  0  0
   47.4631    2.5283    5.8818 H   0  0  0  0  0  0  0  0  0  0  0  0
   45.8292    6.0111    8.1910 H   0  0  0  0  0  0  0  0  0  0  0  0
   46.4753   -0.3601    7.6468 H   0  0  0  0  0  0  0  0  0  0  0  0
  1  2  1  0
  2  3  1  0
  3  4  1  0
  4  5  1  0
  7  6  1  0
  8  7  2  0
  9  7  1  0
 10  8  1  0
 11  6  2  0
 12  6  2  0
 13  6  1  0
 14 16  1  0
 15  8  1  0
 16  9  2  0
 10 14  2  0
 16 17  1  0
  1 18  1  0
  1 19  1  0
  1 20  1  0
  2 21  1  0
  2 22  1  0
  3 23  1  0
  4 24  1  0
  4 25  1  0
  5 26  1  0
  5 27  1  0
  5 28  1  0
  9 29  1  0
 10 30  1  0
 13 31  1  0
 14 32  1  0
 15 33  1  0
 17 34  1  0
M  END
> <Uni-Dock RESULT> 
ENERGY=   -6.786  LOWER_BOUND=    0.000  UPPER_BOUND=    0.000
INTER + INTRA:          -6.786
INTER:                  -6.786
INTRA:                   0.000
UNBOUND:                 0.000

$$$$

     RDKit          3D

 34 33  0  0  0  0  0  0  0  0999 V2000
   42.9168    4.5064   11.6239 C   0  0  0  0  0  0  0  0  0  0  0  0
   44.0534    3.5251   11.3732 C   0  0  0  0  0  0  0  0  0  0  0  0
   45.2432    4.1375   10.7828 N   0  0  0  0  0  0  0  0  0  0  0  0
   45.0725    4.6400    9.4199 C   0  0  0  0  0  0  0  0  0  0  0  0
   44.7812    3.5496    8.3987 C   0  0  0  0  0  0  0  0  0  0  0  0
   43.7735    6.0026   11.6151 S   0  0  0  0  0  0  0  0  0  0  0  0
   44.2191    4.6468   10.5698 C   0  0  0  0  0  0  0  0  0  0  0  0
   43.9214    3.3358   10.9472 C   0  0  0  0  0  0  0  0  0  0  0  0
   44.8898    4.9130    9.3706 C   0  0  0  0  0  0  0  0  0  0  0  0
   44.2852    2.2764   10.1163 C   0  0  0  0  0  0  0  0  0  0  0  0
   42.3532    6.2157   11.4404 O   0  0  0  0  0  0  0  0  0  0  0  0
   44.7360    7.0610   11.3922 O   0  0  0  0  0  0  0  0  0  0  0  0
   43.9979    5.4520   13.1181 O   0  0  0  0  0  0  0  0  0  0  0  0
   44.9497    2.5373    8.9157 C   0  0  0  0  0  0  0  0  0  0  0  0
   43.2777    3.0829   12.1284 O   0  0  0  0  0  0  0  0  0  0  0  0
   45.2478    3.8481    8.5539 C   0  0  0  0  0  0  0  0  0  0  0  0
   45.9019    4.0445    7.3752 O   0  0  0  0  0  0  0  0  0  0  0  0
   42.1108    4.0106   12.1751 H   0  0  0  0  0  0  0  0  0  0  0  0
   43.2543    5.3599   12.2211 H   0  0  0  0  0  0  0  0  0  0  0  0
   42.4931    4.8834   10.6883 H   0  0  0  0  0  0  0  0  0  0  0  0
   44.3525    3.0977   12.3375 H   0  0  0  0  0  0  0  0  0  0  0  0
   43.7010    2.6800   10.7728 H   0  0  0  0  0  0  0  0  0  0  0  0
   45.5515    4.9053   11.3795 H   0  0  0  0  0  0  0  0  0  0  0  0
   46.0118    5.1262    9.1310 H   0  0  0  0  0  0  0  0  0  0  0  0
   44.3020    5.4171    9.3754 H   0  0  0  0  0  0  0  0  0  0  0  0
   43.7907    3.1087    8.5459 H   0  0  0  0  0  0  0  0  0  0  0  0
   45.5286    2.7508    8.4483 H   0  0  0  0  0  0  0  0  0  0  0  0
   44.8071    3.9692    7.3875 H   0  0  0  0  0  0  0  0  0  0  0  0
   45.1225    5.9369    9.0906 H   0  0  0  0  0  0  0  0  0  0  0  0
   44.0695    1.2451   10.3808 H   0  0  0  0  0  0  0  0  0  0  0  0
   43.4881    4.6144   13.2091 H   0  0  0  0  0  0  0  0  0  0  0  0
   45.2395    1.7186    8.2613 H   0  0  0  0  0  0  0  0  0  0  0  0
   43.0513    2.1329   12.1564 H   0  0  0  0  0  0  0  0  0  0  0  0
   46.0616    4.9960    7.2527 H   0  0  0  0  0  0  0  0  0  0  0  0
  1  2  1  0
  2  3  1  0
  3  4  1  0
  4  5  1  0
  7  6  1  0
  8  7  2  0
  9  7  1  0
 10  8  1  0
 11  6  2  0
 12  6  2  0
 13  6  1  0
 14 16  1  0
 15  8  1  0
 16  9  2  0
 10 14  2  0
 16 17  1  0
  1 18  1  0
  1 19  1  0
  1 20  1  0
  2 21  1  0
  2 22  1  0
  3 23  1  0
  4 24  1  0
  4 25  1  0
  5 26  1  0
  5 27  1  0
  5 28  1  0
  9 29  1  0
 10 30  1  0
 13 31  1  0
 14 32  1  0
 15 33  1  0
 17 34  1  0
M  END
> <Uni-Dock RESULT> 
ENERGY=   -6.480  LOWER_BOUND=    2.126  UPPER_BOUND=    3.477
INTER + INTRA:          -6.480
INTER:                  -6.480
INTRA:                   0.000
UNBOUND:                 0.000

$$$$

     RDKit          3D

 34 33  0  0  0  0  0  0  0  0999 V2000
   46.6298    3.0640    6.2732 C   0  0  0  0  0  0  0  0  0  0  0  0
   46.6734    3.7795    7.6163 C   0  0  0  0  0  0  0  0  0  0  0  0
   46.6319    2.8783    8.7675 N   0  0  0  0  0  0  0  0  0  0  0  0
   45.3766    2.1479    8.9403 C   0  0  0  0  0  0  0  0  0  0  0  0
   44.1844    3.0448    9.2420 C   0  0  0  0  0  0  0  0  0  0  0  0
   47.1240    1.4782    6.7355 S   0  0  0  0  0  0  0  0  0  0  0  0
   46.1371    2.5083    7.7817 C   0  0  0  0  0  0  0  0  0  0  0  0
   46.2074    3.8987    7.6742 C   0  0  0  0  0  0  0  0  0  0  0  0
   45.3019    1.9036    8.7280 C   0  0  0  0  0  0  0  0  0  0  0  0
   45.4287    4.6982    8.5105 C   0  0  0  0  0  0  0  0  0  0  0  0
   46.4845    1.4658    5.4379 O   0  0  0  0  0  0  0  0  0  0  0  0
   47.4003    0.2558    7.4607 O   0  0  0  0  0  0  0  0  0  0  0  0
   48.5217    2.2744    6.5775 O   0  0  0  0  0  0  0  0  0  0  0  0
   44.5893    4.0994    9.4527 C   0  0  0  0  0  0  0  0  0  0  0  0
   47.0373    4.4826    6.7556 O   0  0  0  0  0  0  0  0  0  0  0  0
   44.5335    2.7122    9.5556 C   0  0  0  0  0  0  0  0  0  0  0  0
   43.7022    2.1817   10.4954 O   0  0  0  0  0  0  0  0  0  0  0  0
   46.7872    3.7829    5.4623 H   0  0  0  0  0  0  0  0  0  0  0  0
   47.4149    2.3040    6.2032 H   0  0  0  0  0  0  0  0  0  0  0  0
   45.6630    2.5809    6.1027 H   0  0  0  0  0  0  0  0  0  0  0  0
   47.6157    4.3371    7.6739 H   0  0  0  0  0  0  0  0  0  0  0  0
   45.8811    4.5331    7.6719 H   0  0  0  0  0  0  0  0  0  0  0  0
   47.3949    2.2058    8.6895 H   0  0  0  0  0  0  0  0  0  0  0  0
   45.5081    1.4692    9.7912 H   0  0  0  0  0  0  0  0  0  0  0  0
   45.1633    1.5119    8.0746 H   0  0  0  0  0  0  0  0  0  0  0  0
   43.9096    3.6597    8.3798 H   0  0  0  0  0  0  0  0  0  0  0  0
   44.3913    3.7065   10.0896 H   0  0  0  0  0  0  0  0  0  0  0  0
   43.3136    2.4331    9.5003 H   0  0  0  0  0  0  0  0  0  0  0  0
   45.2607    0.8206    8.8074 H   0  0  0  0  0  0  0  0  0  0  0  0
   45.4606    5.7825    8.4533 H   0  0  0  0  0  0  0  0  0  0  0  0
   48.3139    3.1843    6.2631 H   0  0  0  0  0  0  0  0  0  0  0  0
   43.9792    4.7134   10.1110 H   0  0  0  0  0  0  0  0  0  0  0  0
   46.8574    5.4428    6.7471 H   0  0  0  0  0  0  0  0  0  0  0  0
   43.7711    1.2119   10.4727 H   0  0  0  0  0  0  0  0  0  0  0  0
  1  2  1  0
  2  3  1  0
  3  4  1  0
  4  5  1  0
  7  6  1  0
  8  7  2  0
  9  7  1  0
 10  8  1  0
 11  6  2  0
 12  6  2  0
 13  6  1  0
 14 16  1  0
 15  8  1  0
 16  9  2  0
 10 14  2  0
 16 17  1  0
  1 18  1  0
  1 19  1  0
  1 20  1  0
  2 21  1  0
  2 22  1  0
  3 23  1  0
  4 24  1  0
  4 25  1  0
  5 26  1  0
  5 27  1  0
  5 28  1  0
  9 29  1  0
 10 30  1  0
 13 31  1  0
 14 32  1  0
 15 33  1  0
 17 34  1  0
M  END
> <Uni-Dock RESULT> 
ENERGY=   -5.394  LOWER_BOUND=    1.787  UPPER_BOUND=    3.765
INTER + INTRA:          -5.394
INTER:                  -5.394
INTRA:                   0.000
UNBOUND:                 0.000

$$$$

     RDKit          3D

 34 33  0  0  0  0  0  0  0  0999 V2000
   44.9971    4.4577    8.5943 C   0  0  0  0  0  0  0  0  0  0  0  0
   45.5403    4.9452    9.9303 C   0  0  0  0  0  0  0  0  0  0  0  0
   45.1622    4.1029   11.0647 N   0  0  0  0  0  0  0  0  0  0  0  0
   43.7358    4.0987   11.3877 C   0  0  0  0  0  0  0  0  0  0  0  0
   43.2107    5.4494   11.8530 C   0  0  0  0  0  0  0  0  0  0  0  0
   44.6532    2.8098    8.9669 S   0  0  0  0  0  0  0  0  0  0  0  0
   44.4486    4.1128   10.1458 C   0  0  0  0  0  0  0  0  0  0  0  0
   45.2102    5.2792   10.0495 C   0  0  0  0  0  0  0  0  0  0  0  0
   43.5248    3.9434   11.1834 C   0  0  0  0  0  0  0  0  0  0  0  0
   45.0431    6.2951   10.9902 C   0  0  0  0  0  0  0  0  0  0  0  0
   43.9673    3.2245    7.7625 O   0  0  0  0  0  0  0  0  0  0  0  0
   44.3371    1.5639    9.6334 O   0  0  0  0  0  0  0  0  0  0  0  0
   46.2363    2.7971    8.6411 O   0  0  0  0  0  0  0  0  0  0  0  0
   44.1183    6.1331   12.0244 C   0  0  0  0  0  0  0  0  0  0  0  0
   46.1217    5.4313    9.0397 O   0  0  0  0  0  0  0  0  0  0  0  0
   43.3703    4.9625   12.1144 C   0  0  0  0  0  0  0  0  0  0  0  0
   42.4872    4.8553   13.1460 O   0  0  0  0  0  0  0  0  0  0  0  0
   45.4157    5.0583    7.7800 H   0  0  0  0  0  0  0  0  0  0  0  0
   45.2694    3.4127    8.4131 H   0  0  0  0  0  0  0  0  0  0  0  0
   43.9077    4.5464    8.5431 H   0  0  0  0  0  0  0  0  0  0  0  0
   46.6352    4.9417    9.8738 H   0  0  0  0  0  0  0  0  0  0  0  0
   45.2572    5.9894   10.0981 H   0  0  0  0  0  0  0  0  0  0  0  0
   45.4597    3.1448   10.8796 H   0  0  0  0  0  0  0  0  0  0  0  0
   43.5881    3.3830   12.2051 H   0  0  0  0  0  0  0  0  0  0  0  0
   43.1382    3.7283   10.5480 H   0  0  0  0  0  0  0  0  0  0  0  0
   43.2024    6.1838   11.0421 H   0  0  0  0  0  0  0  0  0  0  0  0
   43.8142    5.8466   12.6760 H   0  0  0  0  0  0  0  0  0  0  0  0
   42.1817    5.3456   12.2129 H   0  0  0  0  0  0  0  0  0  0  0  0
   42.9427    3.0283   11.2525 H   0  0  0  0  0  0  0  0  0  0  0  0
   45.6202    7.2142   10.9445 H   0  0  0  0  0  0  0  0  0  0  0  0
   46.4931    3.7080    8.3688 H   0  0  0  0  0  0  0  0  0  0  0  0
   43.9814    6.9181   12.7644 H   0  0  0  0  0  0  0  0  0  0  0  0
   46.4598    6.3476    9.0679 H   0  0  0  0  0  0  0  0  0  0  0  0
   42.0464    3.9896   13.1012 H   0  0  0  0  0  0  0  0  0  0  0  0
  1  2  1  0
  2  3  1  0
  3  4  1  0
  4  5  1  0
  7  6  1  0
  8  7  2  0
  9  7  1  0
 10  8  1  0
 11  6  2  0
 12  6  2  0
 13  6  1  0
 14 16  1  0
 15  8  1  0
 16  9  2  0
 10 14  2  0
 16 17  1  0
  1 18  1  0
  1 19  1  0
  1 20  1  0
  2 21  1  0
  2 22  1  0
  3 23  1  0
  4 24  1  0
  4 25  1  0
  5 26  1  0
  5 27  1  0
  5 28  1  0
  9 29  1  0
 10 30  1  0
 13 31  1  0
 14 32  1  0
 15 33  1  0
 17 34  1  0
M  END
> <Uni-Dock RESULT> 
ENERGY=   -4.818  LOWER_BOUND=    2.409  UPPER_BOUND=    4.378
INTER + INTRA:          -4.818
INTER:                  -4.818
INTRA:                   0.000
UNBOUND:                 0.000

$$$$

     RDKit          3D

 34 33  0  0  0  0  0  0  0  0999 V2000
   45.0204    3.5968   11.6696 C   0  0  0  0  0  0  0  0  0  0  0  0
   45.4992    4.2109   12.9777 C   0  0  0  0  0  0  0  0  0  0  0  0
   44.7307    5.3826   13.3966 N   0  0  0  0  0  0  0  0  0  0  0  0
   44.8648    6.5553   12.5330 C   0  0  0  0  0  0  0  0  0  0  0  0
   46.2712    7.1365   12.5059 C   0  0  0  0  0  0  0  0  0  0  0  0
   43.4226    4.2381   11.5770 S   0  0  0  0  0  0  0  0  0  0  0  0
   44.7755    5.1530   12.2569 C   0  0  0  0  0  0  0  0  0  0  0  0
   45.8652    4.4881   12.8227 C   0  0  0  0  0  0  0  0  0  0  0  0
   44.7226    6.5514   12.2328 C   0  0  0  0  0  0  0  0  0  0  0  0
   46.9213    5.2226   13.3613 C   0  0  0  0  0  0  0  0  0  0  0  0
   43.8588    3.7416   10.2901 O   0  0  0  0  0  0  0  0  0  0  0  0
   42.2319    5.0498   11.7170 O   0  0  0  0  0  0  0  0  0  0  0  0
   43.2576    2.9627   12.5561 O   0  0  0  0  0  0  0  0  0  0  0  0
   46.8758    6.6184   13.3345 C   0  0  0  0  0  0  0  0  0  0  0  0
   45.9028    3.1202   12.8550 O   0  0  0  0  0  0  0  0  0  0  0  0
   45.7805    7.2701   12.7746 C   0  0  0  0  0  0  0  0  0  0  0  0
   45.7857    8.6324   12.7801 O   0  0  0  0  0  0  0  0  0  0  0  0
   45.5549    2.6601   11.4796 H   0  0  0  0  0  0  0  0  0  0  0  0
   43.9500    3.3692   11.7068 H   0  0  0  0  0  0  0  0  0  0  0  0
   45.2048    4.2601   10.8191 H   0  0  0  0  0  0  0  0  0  0  0  0
   45.3958    3.4556   13.7658 H   0  0  0  0  0  0  0  0  0  0  0  0
   46.5695    4.4354   12.9234 H   0  0  0  0  0  0  0  0  0  0  0  0
   43.7444    5.1286   13.4544 H   0  0  0  0  0  0  0  0  0  0  0  0
   44.1915    7.3274   12.9238 H   0  0  0  0  0  0  0  0  0  0  0  0
   44.5230    6.3414   11.5147 H   0  0  0  0  0  0  0  0  0  0  0  0
   46.9773    6.4693   12.0026 H   0  0  0  0  0  0  0  0  0  0  0  0
   46.6385    7.3318   13.5189 H   0  0  0  0  0  0  0  0  0  0  0  0
   46.2716    8.0866   11.9614 H   0  0  0  0  0  0  0  0  0  0  0  0
   43.8661    7.0582   11.7963 H   0  0  0  0  0  0  0  0  0  0  0  0
   47.7830    4.7363   13.8095 H   0  0  0  0  0  0  0  0  0  0  0  0
   44.1327    2.5147   12.6140 H   0  0  0  0  0  0  0  0  0  0  0  0
   47.6930    7.2009   13.7533 H   0  0  0  0  0  0  0  0  0  0  0  0
   46.7854    2.8455   13.1714 H   0  0  0  0  0  0  0  0  0  0  0  0
   44.9620    8.9571   12.3778 H   0  0  0  0  0  0  0  0  0  0  0  0
  1  2  1  0
  2  3  1  0
  3  4  1  0
  4  5  1  0
  7  6  1  0
  8  7  2  0
  9  7  1  0
 10  8  1  0
 11  6  2  0
 12  6  2  0
 13  6  1  0
 14 16  1  0
 15  8  1  0
 16  9  2  0
 10 14  2  0
 16 17  1  0
  1 18  1  0
  1 19  1  0
  1 20  1  0
  2 21  1  0
  2 22  1  0
  3 23  1  0
  4 24  1  0
  4 25  1  0
  5 26  1  0
  5 27  1  0
  5 28  1  0
  9 29  1  0
 10 30  1  0
 13 31  1  0
 14 32  1  0
 15 33  1  0
 17 34  1  0
M  END
> <Uni-Dock RESULT> 
ENERGY=   -4.748  LOWER_BOUND=    3.767  UPPER_BOUND=    5.615
INTER + INTRA:          -4.748
INTER:                  -4.748
INTRA:                   0.000
UNBOUND:                 0.000

$$$$

     RDKit          3D

 34 33  0  0  0  0  0  0  0  0999 V2000
   43.0382    5.1658   12.3809 C   0  0  0  0  0  0  0  0  0  0  0  0
   43.7924    6.0590   11.4058 C   0  0  0  0  0  0  0  0  0  0  0  0
   45.2192    5.7531   11.3066 N   0  0  0  0  0  0  0  0  0  0  0  0
   45.9988    6.0258   12.5136 C   0  0  0  0  0  0  0  0  0  0  0  0
   46.0526    7.5006   12.8859 C   0  0  0  0  0  0  0  0  0  0  0  0
   44.1196    3.8278   12.4965 S   0  0  0  0  0  0  0  0  0  0  0  0
   44.6857    5.4931   12.3073 C   0  0  0  0  0  0  0  0  0  0  0  0
   43.8798    6.4470   11.6825 C   0  0  0  0  0  0  0  0  0  0  0  0
   45.9602    5.8288   12.7782 C   0  0  0  0  0  0  0  0  0  0  0  0
   44.3422    7.7543   11.5341 C   0  0  0  0  0  0  0  0  0  0  0  0
   43.1755    3.8295   13.5927 O   0  0  0  0  0  0  0  0  0  0  0  0
   45.2841    2.9675   12.4948 O   0  0  0  0  0  0  0  0  0  0  0  0
   43.2888    3.5216   11.1442 O   0  0  0  0  0  0  0  0  0  0  0  0
   45.6113    8.0957   12.0075 C   0  0  0  0  0  0  0  0  0  0  0  0
   42.6401    6.1072   11.2120 O   0  0  0  0  0  0  0  0  0  0  0  0
   46.4086    7.1340   12.6219 C   0  0  0  0  0  0  0  0  0  0  0  0
   47.6394    7.5203   13.0598 O   0  0  0  0  0  0  0  0  0  0  0  0
   41.9635    5.3656   12.3151 H   0  0  0  0  0  0  0  0  0  0  0  0
   43.1958    4.1067   12.1517 H   0  0  0  0  0  0  0  0  0  0  0  0
   43.3445    5.3461   13.4157 H   0  0  0  0  0  0  0  0  0  0  0  0
   43.3593    5.9157   10.4088 H   0  0  0  0  0  0  0  0  0  0  0  0
   43.6274    7.1135   11.6500 H   0  0  0  0  0  0  0  0  0  0  0  0
   45.3308    4.7698   11.0589 H   0  0  0  0  0  0  0  0  0  0  0  0
   47.0254    5.6918   12.3217 H   0  0  0  0  0  0  0  0  0  0  0  0
   45.6402    5.4332   13.3619 H   0  0  0  0  0  0  0  0  0  0  0  0
   45.0793    7.8712   13.2212 H   0  0  0  0  0  0  0  0  0  0  0  0
   46.3845    8.1109   12.0394 H   0  0  0  0  0  0  0  0  0  0  0  0
   46.7623    7.6525   13.7060 H   0  0  0  0  0  0  0  0  0  0  0  0
   46.5815    5.0763   13.2565 H   0  0  0  0  0  0  0  0  0  0  0  0
   43.7410    8.5198   11.0520 H   0  0  0  0  0  0  0  0  0  0  0  0
   42.6112    4.2289   11.0427 H   0  0  0  0  0  0  0  0  0  0  0  0
   45.9824    9.1116   11.8953 H   0  0  0  0  0  0  0  0  0  0  0  0
   42.1872    6.9239   10.9249 H   0  0  0  0  0  0  0  0  0  0  0  0
   48.0947    6.7549   13.4505 H   0  0  0  0  0  0  0  0  0  0  0  0
  1  2  1  0
  2  3  1  0
  3  4  1  0
  4  5  1  0
  7  6  1  0
  8  7  2  0
  9  7  1  0
 10  8  1  0
 11  6  2  0
 12  6  2  0
 13  6  1  0
 14 16  1  0
 15  8  1  0
 16  9  2  0
 10 14  2  0
 16 17  1  0
  1 18  1  0
  1 19  1  0
  1 20  1  0
  2 21  1  0
  2 22  1  0
  3 23  1  0
  4 24  1  0
  4 25  1  0
  5 26  1  0
  5 27  1  0
  5 28  1  0
  9 29  1  0
 10 30  1  0
 13 31  1  0
 14 32  1  0
 15 33  1  0
 17 34  1  0
M  END
> <Uni-Dock RESULT> 
ENERGY=   -4.571  LOWER_BOUND=    4.538  UPPER_BOUND=    5.373
INTER + INTRA:          -4.571
INTER:                  -4.571
INTRA:                   0.000
UNBOUND:                 0.000

$$$$

     RDKit          3D

 34 33  0  0  0  0  0  0  0  0999 V2000
   46.4724    4.3073   13.9863 C   0  0  0  0  0  0  0  0  0  0  0  0
   45.8330    3.9193   12.6604 C   0  0  0  0  0  0  0  0  0  0  0  0
   45.3910    5.0614   11.8609 N   0  0  0  0  0  0  0  0  0  0  0  0
   44.2836    5.8280   12.4310 C   0  0  0  0  0  0  0  0  0  0  0  0
   42.9858    5.0399   12.5371 C   0  0  0  0  0  0  0  0  0  0  0  0
   46.8915    5.9505   13.6746 S   0  0  0  0  0  0  0  0  0  0  0  0
   45.4309    5.2012   13.0152 C   0  0  0  0  0  0  0  0  0  0  0  0
   45.3792    3.8226   12.7999 C   0  0  0  0  0  0  0  0  0  0  0  0
   44.3396    6.0179   12.6977 C   0  0  0  0  0  0  0  0  0  0  0  0
   44.2235    3.2468   12.2728 C   0  0  0  0  0  0  0  0  0  0  0  0
   46.8993    5.6723   15.0943 O   0  0  0  0  0  0  0  0  0  0  0  0
   46.9581    7.3031   13.1626 O   0  0  0  0  0  0  0  0  0  0  0  0
   48.1114    5.1214   13.0134 O   0  0  0  0  0  0  0  0  0  0  0  0
   43.1296    4.0569   11.9596 C   0  0  0  0  0  0  0  0  0  0  0  0
   46.4560    3.0325   13.0999 O   0  0  0  0  0  0  0  0  0  0  0  0
   43.1959    5.4312   12.1715 C   0  0  0  0  0  0  0  0  0  0  0  0
   42.1023    6.1742   11.8432 O   0  0  0  0  0  0  0  0  0  0  0  0
   46.8879    3.4193   14.4741 H   0  0  0  0  0  0  0  0  0  0  0  0
   47.2898    5.0207   13.8386 H   0  0  0  0  0  0  0  0  0  0  0  0
   45.7448    4.7506   14.6727 H   0  0  0  0  0  0  0  0  0  0  0  0
   46.5802    3.3778   12.0682 H   0  0  0  0  0  0  0  0  0  0  0  0
   45.0164    3.2088   12.8252 H   0  0  0  0  0  0  0  0  0  0  0  0
   46.1821    5.6882   11.7127 H   0  0  0  0  0  0  0  0  0  0  0  0
   44.1025    6.6825   11.7682 H   0  0  0  0  0  0  0  0  0  0  0  0
   44.5515    6.2507   13.4052 H   0  0  0  0  0  0  0  0  0  0  0  0
   43.0518    4.2468   13.2879 H   0  0  0  0  0  0  0  0  0  0  0  0
   42.7172    4.5882   11.5764 H   0  0  0  0  0  0  0  0  0  0  0  0
   42.1684    5.7057   12.8335 H   0  0  0  0  0  0  0  0  0  0  0  0
   44.3939    7.0906   12.8629 H   0  0  0  0  0  0  0  0  0  0  0  0
   44.1510    2.1781   12.0923 H   0  0  0  0  0  0  0  0  0  0  0  0
   47.9600    4.1664   13.2002 H   0  0  0  0  0  0  0  0  0  0  0  0
   42.2243    3.6186   11.5464 H   0  0  0  0  0  0  0  0  0  0  0  0
   46.1880    2.0984   12.9988 H   0  0  0  0  0  0  0  0  0  0  0  0
   42.2865    7.1118   12.0240 H   0  0  0  0  0  0  0  0  0  0  0  0
  1  2  1  0
  2  3  1  0
  3  4  1  0
  4  5  1  0
  7  6  1  0
  8  7  2  0
  9  7  1  0
 10  8  1  0
 11  6  2  0
 12  6  2  0
 13  6  1  0
 14 16  1  0
 15  8  1  0
 16  9  2  0
 10 14  2  0
 16 17  1  0
  1 18  1  0
  1 19  1  0
  1 20  1  0
  2 21  1  0
  2 22  1  0
  3 23  1  0
  4 24  1  0
  4 25  1  0
  5 26  1  0
  5 27  1  0
  5 28  1  0
  9 29  1  0
 10 30  1  0
 13 31  1  0
 14 32  1  0
 15 33  1  0
 17 34  1  0
M  END
> <Uni-Dock RESULT> 
ENERGY=   -4.433  LOWER_BOUND=    4.579  UPPER_BOUND=    5.766
INTER + INTRA:          -4.433
INTER:                  -4.433
INTRA:                   0.000
UNBOUND:                 0.000

$$$$

     RDKit          3D

 34 33  0  0  0  0  0  0  0  0999 V2000
   47.9151    5.9108   18.9587 C   0  0  0  0  0  0  0  0  0  0  0  0
   47.2827    4.5965   18.5227 C   0  0  0  0  0  0  0  0  0  0  0  0
   48.0577    3.4145   18.8988 N   0  0  0  0  0  0  0  0  0  0  0  0
   49.3497    3.2785   18.2271 C   0  0  0  0  0  0  0  0  0  0  0  0
   49.2378    3.0744   16.7229 C   0  0  0  0  0  0  0  0  0  0  0  0
   48.9800    5.3617   20.1985 S   0  0  0  0  0  0  0  0  0  0  0  0
   48.6413    4.4093   18.7467 C   0  0  0  0  0  0  0  0  0  0  0  0
   47.4340    4.5675   18.0633 C   0  0  0  0  0  0  0  0  0  0  0  0
   49.5967    3.4846   18.3098 C   0  0  0  0  0  0  0  0  0  0  0  0
   47.1778    3.8047   16.9242 C   0  0  0  0  0  0  0  0  0  0  0  0
   49.3425    6.6893   19.7522 O   0  0  0  0  0  0  0  0  0  0  0  0
   49.8556    4.5758   21.0423 O   0  0  0  0  0  0  0  0  0  0  0  0
   47.5556    5.4782   20.9534 O   0  0  0  0  0  0  0  0  0  0  0  0
   48.1306    2.8845   16.4809 C   0  0  0  0  0  0  0  0  0  0  0  0
   46.4988    5.4641   18.5052 O   0  0  0  0  0  0  0  0  0  0  0  0
   49.3274    2.7302   17.1751 C   0  0  0  0  0  0  0  0  0  0  0  0
   50.2183    1.8147   16.7019 O   0  0  0  0  0  0  0  0  0  0  0  0
   47.2292    6.7401   18.7560 H   0  0  0  0  0  0  0  0  0  0  0  0
   48.1306    5.9102   20.0323 H   0  0  0  0  0  0  0  0  0  0  0  0
   48.8448    6.1122   18.4182 H   0  0  0  0  0  0  0  0  0  0  0  0
   46.3041    4.5119   19.0097 H   0  0  0  0  0  0  0  0  0  0  0  0
   47.0765    4.6116   17.4475 H   0  0  0  0  0  0  0  0  0  0  0  0
   48.2116    3.4263   19.9072 H   0  0  0  0  0  0  0  0  0  0  0  0
   49.8455    2.3958   18.6482 H   0  0  0  0  0  0  0  0  0  0  0  0
   50.0044    4.1284   18.4469 H   0  0  0  0  0  0  0  0  0  0  0  0
   48.8732    3.9731   16.2166 H   0  0  0  0  0  0  0  0  0  0  0  0
   48.5649    2.2438   16.4851 H   0  0  0  0  0  0  0  0  0  0  0  0
   50.2217    2.8377   16.3046 H   0  0  0  0  0  0  0  0  0  0  0  0
   50.5298    3.3649   18.8538 H   0  0  0  0  0  0  0  0  0  0  0  0
   46.2486    3.9027   16.3703 H   0  0  0  0  0  0  0  0  0  0  0  0
   46.9039    5.8383   20.3089 H   0  0  0  0  0  0  0  0  0  0  0  0
   47.9403    2.2833   15.5950 H   0  0  0  0  0  0  0  0  0  0  0  0
   45.7881    5.5195   17.8370 H   0  0  0  0  0  0  0  0  0  0  0  0
   50.9971    1.7958   17.2839 H   0  0  0  0  0  0  0  0  0  0  0  0
  1  2  1  0
  2  3  1  0
  3  4  1  0
  4  5  1  0
  7  6  1  0
  8  7  2  0
  9  7  1  0
 10  8  1  0
 11  6  2  0
 12  6  2  0
 13  6  1  0
 14 16  1  0
 15  8  1  0
 16  9  2  0
 10 14  2  0
 16 17  1  0
  1 18  1  0
  1 19  1  0
  1 20  1  0
  2 21  1  0
  2 22  1  0
  3 23  1  0
  4 24  1  0
  4 25  1  0
  5 26  1  0
  5 27  1  0
  5 28  1  0
  9 29  1  0
 10 30  1  0
 13 31  1  0
 14 32  1  0
 15 33  1  0
 17 34  1  0
M  END
> <Uni-Dock RESULT> 
ENERGY=   -4.085  LOWER_BOUND=    9.147  UPPER_BOUND=   10.408
INTER + INTRA:          -4.085
INTER:                  -4.085
INTRA:                   0.000
UNBOUND:                 0.000

$$$$

     RDKit          3D

 34 33  0  0  0  0  0  0  0  0999 V2000
   47.1606    6.9799   12.0276 C   0  0  0  0  0  0  0  0  0  0  0  0
   47.2839    8.2644   12.8353 C   0  0  0  0  0  0  0  0  0  0  0  0
   46.0061    8.7767   13.3293 N   0  0  0  0  0  0  0  0  0  0  0  0
   45.0832    9.2459   12.2962 C   0  0  0  0  0  0  0  0  0  0  0  0
   45.5924   10.4559   11.5259 C   0  0  0  0  0  0  0  0  0  0  0  0
   45.6180    6.4154   12.5514 S   0  0  0  0  0  0  0  0  0  0  0  0
   45.9849    8.1352   12.3589 C   0  0  0  0  0  0  0  0  0  0  0  0
   47.2971    8.5961   12.4824 C   0  0  0  0  0  0  0  0  0  0  0  0
   44.9345    9.0231   12.0999 C   0  0  0  0  0  0  0  0  0  0  0  0
   47.5704    9.9558   12.3351 C   0  0  0  0  0  0  0  0  0  0  0  0
   46.0217    5.7622   11.3253 O   0  0  0  0  0  0  0  0  0  0  0  0
   44.2668    6.3111   13.0612 O   0  0  0  0  0  0  0  0  0  0  0  0
   46.6165    5.9117   13.7183 O   0  0  0  0  0  0  0  0  0  0  0  0
   46.5262   10.8451   12.0708 C   0  0  0  0  0  0  0  0  0  0  0  0
   48.3169    7.7232   12.7498 O   0  0  0  0  0  0  0  0  0  0  0  0
   45.2209   10.3747   11.9575 C   0  0  0  0  0  0  0  0  0  0  0  0
   44.2409   11.2865   11.7048 O   0  0  0  0  0  0  0  0  0  0  0  0
   48.1565    6.5884   11.7953 H   0  0  0  0  0  0  0  0  0  0  0  0
   46.6210    6.2093   12.5881 H   0  0  0  0  0  0  0  0  0  0  0  0
   46.6419    7.1460   11.0787 H   0  0  0  0  0  0  0  0  0  0  0  0
   47.9109    8.0570   13.7104 H   0  0  0  0  0  0  0  0  0  0  0  0
   47.8223    9.0251   12.2606 H   0  0  0  0  0  0  0  0  0  0  0  0
   45.5454    8.0479   13.8745 H   0  0  0  0  0  0  0  0  0  0  0  0
   44.1522    9.5362   12.7974 H   0  0  0  0  0  0  0  0  0  0  0  0
   44.8170    8.4401   11.6040 H   0  0  0  0  0  0  0  0  0  0  0  0
   46.4480   10.2040   10.8922 H   0  0  0  0  0  0  0  0  0  0  0  0
   45.8881   11.2621   12.2055 H   0  0  0  0  0  0  0  0  0  0  0  0
   44.8023   10.8418   10.8732 H   0  0  0  0  0  0  0  0  0  0  0  0
   43.9161    8.6539   12.0129 H   0  0  0  0  0  0  0  0  0  0  0  0
   48.5796   10.3470   12.4261 H   0  0  0  0  0  0  0  0  0  0  0  0
   47.5327    6.1598   13.4559 H   0  0  0  0  0  0  0  0  0  0  0  0
   46.7278   11.9075   11.9561 H   0  0  0  0  0  0  0  0  0  0  0  0
   49.1621    8.2079   12.6767 H   0  0  0  0  0  0  0  0  0  0  0  0
   43.3824   10.8311   11.6668 H   0  0  0  0  0  0  0  0  0  0  0  0
  1  2  1  0
  2  3  1  0
  3  4  1  0
  4  5  1  0
  7  6  1  0
  8  7  2  0
  9  7  1  0
 10  8  1  0
 11  6  2  0
 12  6  2  0
 13  6  1  0
 14 16  1  0
 15  8  1  0
 16  9  2  0
 10 14  2  0
 16 17  1  0
  1 18  1  0
  1 19  1  0
  1 20  1  0
  2 21  1  0
  2 22  1  0
  3 23  1  0
  4 24  1  0
  4 25  1  0
  5 26  1  0
  5 27  1  0
  5 28  1  0
  9 29  1  0
 10 30  1  0
 13 31  1  0
 14 32  1  0
 15 33  1  0
 17 34  1  0
M  END
> <Uni-Dock RESULT> 
ENERGY=   -3.876  LOWER_BOUND=    5.542  UPPER_BOUND=    7.407
INTER + INTRA:          -3.876
INTER:                  -3.876
INTRA:                   0.000
UNBOUND:                 0.000

$$$$
