
     RDKit          3D

 34 33  0  0  0  0  0  0  0  0999 V2000
   47.8517    2.3414    6.3834 C   0  0  0  0  0  0  0  0  0  0  0  0
   46.5854    2.2731    7.2244 C   0  0  0  0  0  0  0  0  0  0  0  0
   45.9879    3.6027    7.3186 N   0  0  0  0  0  0  0  0  0  0  0  0
   44.7257    3.6086    8.0561 C   0  0  0  0  0  0  0  0  0  0  0  0
   44.9041    3.4620    9.5611 C   0  0  0  0  0  0  0  0  0  0  0  0
   47.4183    2.3526    6.2536 S   0  0  0  0  0  0  0  0  0  0  0  0
   46.3663    2.7779    7.6007 C   0  0  0  0  0  0  0  0  0  0  0  0
   45.7229    1.8070    8.3705 C   0  0  0  0  0  0  0  0  0  0  0  0
   46.1925    4.1418    7.8775 C   0  0  0  0  0  0  0  0  0  0  0  0
   44.9017    2.2044    9.4256 C   0  0  0  0  0  0  0  0  0  0  0  0
   47.5631    0.9099    6.2439 O   0  0  0  0  0  0  0  0  0  0  0  0
   46.9740    3.0806    5.0878 O   0  0  0  0  0  0  0  0  0  0  0  0
   48.8653    2.9252    6.6769 O   0  0  0  0  0  0  0  0  0  0  0  0
   44.7251    3.5602    9.7077 C   0  0  0  0  0  0  0  0  0  0  0  0
   45.8278    0.4575    8.1873 O   0  0  0  0  0  0  0  0  0  0  0  0
   45.3693    4.5173    8.9320 C   0  0  0  0  0  0  0  0  0  0  0  0
   45.1639    5.8277    9.2425 O   0  0  0  0  0  0  0  0  0  0  0  0
   48.5938    3.0080    6.8358 H   0  0  0  0  0  0  0  0  0  0  0  0
   47.6368    2.7025    5.3719 H   0  0  0  0  0  0  0  0  0  0  0  0
   48.3009    1.3467    6.2974 H   0  0  0  0  0  0  0  0  0  0  0  0
   45.8859    1.5738    6.7528 H   0  0  0  0  0  0  0  0  0  0  0  0
   46.8417    1.8841    8.2154 H   0  0  0  0  0  0  0  0  0  0  0  0
   46.6465    4.2489    7.7525 H   0  0  0  0  0  0  0  0  0  0  0  0
   44.2338    4.5686    7.8618 H   0  0  0  0  0  0  0  0  0  0  0  0
   44.0486    2.8352    7.6754 H   0  0  0  0  0  0  0  0  0  0  0  0
   45.3088    2.4812    9.8284 H   0  0  0  0  0  0  0  0  0  0  0  0
   43.9374    3.5697   10.0638 H   0  0  0  0  0  0  0  0  0  0  0  0
   45.5745    4.2320    9.9571 H   0  0  0  0  0  0  0  0  0  0  0  0
   46.6955    4.8881    7.2683 H   0  0  0  0  0  0  0  0  0  0  0  0
   44.3959    1.4562   10.0314 H   0  0  0  0  0  0  0  0  0  0  0  0
   49.5206    2.2037    6.5685 H   0  0  0  0  0  0  0  0  0  0  0  0
   44.0837    3.8670   10.5297 H   0  0  0  0  0  0  0  0  0  0  0  0
   46.4275    0.2465    7.4407 H   0  0  0  0  0  0  0  0  0  0  0  0
   45.6336    6.3872    8.6019 H   0  0  0  0  0  0  0  0  0  0  0  0
  1  2  1  0
  2  3  1  0
  3  4  1  0
  4  5  1  0
  7  6  1  0
  8  7  2  0
  9  7  1  0
 10  8  1  0
 11  6  2  0
 12  6  2  0
 13  6  1  0
 14 16  1  0
 15  8  1  0
 16  9  2  0
 10 14  2  0
 16 17  1  0
  1 18  1  0
  1 19  1  0
  1 20  1  0
  2 21  1  0
  2 22  1  0
  3 23  1  0
  4 24  1  0
  4 25  1  0
  5 26  1  0
  5 27  1  0
  5 28  1  0
  9 29  1  0
 10 30  1  0
 13 31  1  0
 14 32  1  0
 15 33  1  0
 17 34  1  0
M  END
> <Uni-Dock RESULT> 
ENERGY=   -5.973  LOWER_BOUND=    0.000  UPPER_BOUND=    0.000
INTER + INTRA:          -5.973
INTER:                  -5.973
INTRA:                   0.000
UNBOUND:                 0.000

$$$$

     RDKit          3D

 34 33  0  0  0  0  0  0  0  0999 V2000
   42.8084    5.5410   12.2433 C   0  0  0  0  0  0  0  0  0  0  0  0
   43.5796    4.3363   11.7244 C   0  0  0  0  0  0  0  0  0  0  0  0
   44.5089    4.7623   10.6809 N   0  0  0  0  0  0  0  0  0  0  0  0
   45.3391    3.6696   10.1772 C   0  0  0  0  0  0  0  0  0  0  0  0
   44.5865    2.7081    9.2677 C   0  0  0  0  0  0  0  0  0  0  0  0
   43.2362    5.4164   12.3227 S   0  0  0  0  0  0  0  0  0  0  0  0
   43.8016    4.2839   11.0979 C   0  0  0  0  0  0  0  0  0  0  0  0
   43.7559    2.9021   11.2923 C   0  0  0  0  0  0  0  0  0  0  0  0
   44.3074    4.8226    9.9059 C   0  0  0  0  0  0  0  0  0  0  0  0
   44.2179    2.0542   10.2858 C   0  0  0  0  0  0  0  0  0  0  0  0
   42.6319    4.6460   13.3921 O   0  0  0  0  0  0  0  0  0  0  0  0
   44.2905    6.3711   12.5745 O   0  0  0  0  0  0  0  0  0  0  0  0
   42.0154    6.1975   11.6153 O   0  0  0  0  0  0  0  0  0  0  0  0
   44.7214    2.5834    9.0962 C   0  0  0  0  0  0  0  0  0  0  0  0
   43.2807    2.2779   12.4105 O   0  0  0  0  0  0  0  0  0  0  0  0
   44.7640    3.9613    8.9159 C   0  0  0  0  0  0  0  0  0  0  0  0
   45.2671    4.4313    7.7404 O   0  0  0  0  0  0  0  0  0  0  0  0
   42.2211    6.0102   11.4467 H   0  0  0  0  0  0  0  0  0  0  0  0
   43.4845    6.2946   12.6612 H   0  0  0  0  0  0  0  0  0  0  0  0
   42.1170    5.2333   13.0345 H   0  0  0  0  0  0  0  0  0  0  0  0
   44.1260    3.8813   12.5582 H   0  0  0  0  0  0  0  0  0  0  0  0
   42.8657    3.5999   11.3409 H   0  0  0  0  0  0  0  0  0  0  0  0
   43.9941    5.1901    9.9117 H   0  0  0  0  0  0  0  0  0  0  0  0
   46.1582    4.1151    9.6012 H   0  0  0  0  0  0  0  0  0  0  0  0
   45.8080    3.1237   11.0042 H   0  0  0  0  0  0  0  0  0  0  0  0
   43.8096    2.1604    9.8097 H   0  0  0  0  0  0  0  0  0  0  0  0
   45.2795    1.9715    8.8480 H   0  0  0  0  0  0  0  0  0  0  0  0
   44.1166    3.2387    8.4329 H   0  0  0  0  0  0  0  0  0  0  0  0
   44.3416    5.9001    9.7683 H   0  0  0  0  0  0  0  0  0  0  0  0
   44.1868    0.9764   10.4271 H   0  0  0  0  0  0  0  0  0  0  0  0
   41.2443    6.1668   12.2204 H   0  0  0  0  0  0  0  0  0  0  0  0
   45.0818    1.9205    8.3140 H   0  0  0  0  0  0  0  0  0  0  0  0
   42.9611    2.9283   13.0711 H   0  0  0  0  0  0  0  0  0  0  0  0
   45.2792    5.4027    7.7617 H   0  0  0  0  0  0  0  0  0  0  0  0
  1  2  1  0
  2  3  1  0
  3  4  1  0
  4  5  1  0
  7  6  1  0
  8  7  2  0
  9  7  1  0
 10  8  1  0
 11  6  2  0
 12  6  2  0
 13  6  1  0
 14 16  1  0
 15  8  1  0
 16  9  2  0
 10 14  2  0
 16 17  1  0
  1 18  1  0
  1 19  1  0
  1 20  1  0
  2 21  1  0
  2 22  1  0
  3 23  1  0
  4 24  1  0
  4 25  1  0
  5 26  1  0
  5 27  1  0
  5 28  1  0
  9 29  1  0
 10 30  1  0
 13 31  1  0
 14 32  1  0
 15 33  1  0
 17 34  1  0
M  END
> <Uni-Dock RESULT> 
ENERGY=   -5.334  LOWER_BOUND=    3.378  UPPER_BOUND=    5.483
INTER + INTRA:          -5.334
INTER:                  -5.334
INTRA:                   0.000
UNBOUND:                 0.000

$$$$

     RDKit          3D

 34 33  0  0  0  0  0  0  0  0999 V2000
   42.9643    5.6181   11.9212 C   0  0  0  0  0  0  0  0  0  0  0  0
   43.6824    4.3561   11.4663 C   0  0  0  0  0  0  0  0  0  0  0  0
   44.6589    4.6936   10.4337 N   0  0  0  0  0  0  0  0  0  0  0  0
   45.4415    3.5407    9.9917 C   0  0  0  0  0  0  0  0  0  0  0  0
   44.6612    2.5874    9.0970 C   0  0  0  0  0  0  0  0  0  0  0  0
   43.3826    5.4741   12.0164 S   0  0  0  0  0  0  0  0  0  0  0  0
   43.9168    4.2689   10.8483 C   0  0  0  0  0  0  0  0  0  0  0  0
   43.7921    2.8996   11.0904 C   0  0  0  0  0  0  0  0  0  0  0  0
   44.4803    4.7358    9.6519 C   0  0  0  0  0  0  0  0  0  0  0  0
   44.2328    1.9919   10.1274 C   0  0  0  0  0  0  0  0  0  0  0  0
   42.7113    4.7767   13.0959 O   0  0  0  0  0  0  0  0  0  0  0  0
   44.4801    6.3805   12.2624 O   0  0  0  0  0  0  0  0  0  0  0  0
   42.2235    6.2919   11.2491 O   0  0  0  0  0  0  0  0  0  0  0  0
   44.7936    2.4495    8.9337 C   0  0  0  0  0  0  0  0  0  0  0  0
   43.2563    2.3430   12.2169 O   0  0  0  0  0  0  0  0  0  0  0  0
   44.9145    3.8156    8.7057 C   0  0  0  0  0  0  0  0  0  0  0  0
   45.4713    4.2147    7.5282 O   0  0  0  0  0  0  0  0  0  0  0  0
   42.4231    6.0879   11.0929 H   0  0  0  0  0  0  0  0  0  0  0  0
   43.6693    6.3499   12.3300 H   0  0  0  0  0  0  0  0  0  0  0  0
   42.2378    5.3768   12.7040 H   0  0  0  0  0  0  0  0  0  0  0  0
   44.1826    3.9040   12.3301 H   0  0  0  0  0  0  0  0  0  0  0  0
   42.9398    3.6447   11.0903 H   0  0  0  0  0  0  0  0  0  0  0  0
   44.1872    5.1192    9.6362 H   0  0  0  0  0  0  0  0  0  0  0  0
   46.2975    3.9209    9.4224 H   0  0  0  0  0  0  0  0  0  0  0  0
   45.8597    3.0019   10.8498 H   0  0  0  0  0  0  0  0  0  0  0  0
   43.8429    2.1018    9.6371 H   0  0  0  0  0  0  0  0  0  0  0  0
   45.3240    1.8003    8.7225 H   0  0  0  0  0  0  0  0  0  0  0  0
   44.2415    3.1109    8.2316 H   0  0  0  0  0  0  0  0  0  0  0  0
   44.5757    5.8042    9.4770 H   0  0  0  0  0  0  0  0  0  0  0  0
   44.1404    0.9232   10.3060 H   0  0  0  0  0  0  0  0  0  0  0  0
   41.4371    6.3242   11.8340 H   0  0  0  0  0  0  0  0  0  0  0  0
   45.1372    1.7400    8.1855 H   0  0  0  0  0  0  0  0  0  0  0  0
   42.9557    3.0333   12.8451 H   0  0  0  0  0  0  0  0  0  0  0  0
   45.5350    5.1842    7.5152 H   0  0  0  0  0  0  0  0  0  0  0  0
  1  2  1  0
  2  3  1  0
  3  4  1  0
  4  5  1  0
  7  6  1  0
  8  7  2  0
  9  7  1  0
 10  8  1  0
 11  6  2  0
 12  6  2  0
 13  6  1  0
 14 16  1  0
 15  8  1  0
 16  9  2  0
 10 14  2  0
 16 17  1  0
  1 18  1  0
  1 19  1  0
  1 20  1  0
  2 21  1  0
  2 22  1  0
  3 23  1  0
  4 24  1  0
  4 25  1  0
  5 26  1  0
  5 27  1  0
  5 28  1  0
  9 29  1  0
 10 30  1  0
 13 31  1  0
 14 32  1  0
 15 33  1  0
 17 34  1  0
M  END
> <Uni-Dock RESULT> 
ENERGY=   -5.101  LOWER_BOUND=    3.195  UPPER_BOUND=    5.296
INTER + INTRA:          -5.101
INTER:                  -5.101
INTRA:                   0.000
UNBOUND:                 0.000

$$$$

     RDKit          3D

 34 33  0  0  0  0  0  0  0  0999 V2000
   45.0546    2.6521    9.0292 C   0  0  0  0  0  0  0  0  0  0  0  0
   44.1839    3.2085   10.1462 C   0  0  0  0  0  0  0  0  0  0  0  0
   44.1611    4.6670   10.0688 N   0  0  0  0  0  0  0  0  0  0  0  0
   43.2875    5.2766   11.0699 C   0  0  0  0  0  0  0  0  0  0  0  0
   43.8698    5.2507   12.4765 C   0  0  0  0  0  0  0  0  0  0  0  0
   44.6363    2.8239    9.0105 S   0  0  0  0  0  0  0  0  0  0  0  0
   44.2901    3.7998   10.4353 C   0  0  0  0  0  0  0  0  0  0  0  0
   43.6235    3.2765   11.5448 C   0  0  0  0  0  0  0  0  0  0  0  0
   44.7099    5.1378   10.4179 C   0  0  0  0  0  0  0  0  0  0  0  0
   43.3776    4.0978   12.6450 C   0  0  0  0  0  0  0  0  0  0  0  0
   44.2478    1.4583    9.3047 O   0  0  0  0  0  0  0  0  0  0  0  0
   44.1346    3.5249    7.8514 O   0  0  0  0  0  0  0  0  0  0  0  0
   46.2464    2.8008    8.9203 O   0  0  0  0  0  0  0  0  0  0  0  0
   43.7938    5.4303   12.6352 C   0  0  0  0  0  0  0  0  0  0  0  0
   43.1780    1.9907   11.6635 O   0  0  0  0  0  0  0  0  0  0  0  0
   44.4543    5.9401   11.5232 C   0  0  0  0  0  0  0  0  0  0  0  0
   44.8380    7.2468   11.5579 O   0  0  0  0  0  0  0  0  0  0  0  0
   46.0876    3.0057    9.1168 H   0  0  0  0  0  0  0  0  0  0  0  0
   44.6730    2.9457    8.0454 H   0  0  0  0  0  0  0  0  0  0  0  0
   45.0686    1.5581    9.0719 H   0  0  0  0  0  0  0  0  0  0  0  0
   43.1707    2.8055   10.0377 H   0  0  0  0  0  0  0  0  0  0  0  0
   44.5854    2.8702   11.1071 H   0  0  0  0  0  0  0  0  0  0  0  0
   45.1075    5.0342   10.1642 H   0  0  0  0  0  0  0  0  0  0  0  0
   43.1346    6.3230   10.7821 H   0  0  0  0  0  0  0  0  0  0  0  0
   42.2965    4.8082   11.0590 H   0  0  0  0  0  0  0  0  0  0  0  0
   43.9617    4.2299   12.8593 H   0  0  0  0  0  0  0  0  0  0  0  0
   43.2176    5.8035   13.1607 H   0  0  0  0  0  0  0  0  0  0  0  0
   44.8586    5.7206   12.5043 H   0  0  0  0  0  0  0  0  0  0  0  0
   45.2241    5.5346    9.5466 H   0  0  0  0  0  0  0  0  0  0  0  0
   42.8592    3.7001   13.5143 H   0  0  0  0  0  0  0  0  0  0  0  0
   46.5317    1.8671    8.8274 H   0  0  0  0  0  0  0  0  0  0  0  0
   43.5998    6.0684   13.4933 H   0  0  0  0  0  0  0  0  0  0  0  0
   43.3933    1.4654   10.8640 H   0  0  0  0  0  0  0  0  0  0  0  0
   45.2466    7.4844   10.7089 H   0  0  0  0  0  0  0  0  0  0  0  0
  1  2  1  0
  2  3  1  0
  3  4  1  0
  4  5  1  0
  7  6  1  0
  8  7  2  0
  9  7  1  0
 10  8  1  0
 11  6  2  0
 12  6  2  0
 13  6  1  0
 14 16  1  0
 15  8  1  0
 16  9  2  0
 10 14  2  0
 16 17  1  0
  1 18  1  0
  1 19  1  0
  1 20  1  0
  2 21  1  0
  2 22  1  0
  3 23  1  0
  4 24  1  0
  4 25  1  0
  5 26  1  0
  5 27  1  0
  5 28  1  0
  9 29  1  0
 10 30  1  0
 13 31  1  0
 14 32  1  0
 15 33  1  0
 17 34  1  0
M  END
> <Uni-Dock RESULT> 
ENERGY=   -5.072  LOWER_BOUND=    2.829  UPPER_BOUND=    3.759
INTER + INTRA:          -5.072
INTER:                  -5.072
INTRA:                   0.000
UNBOUND:                 0.000

$$$$

     RDKit          3D

 34 33  0  0  0  0  0  0  0  0999 V2000
   47.0517    5.1129   13.6930 C   0  0  0  0  0  0  0  0  0  0  0  0
   45.6270    5.4654   13.2911 C   0  0  0  0  0  0  0  0  0  0  0  0
   44.7997    4.2617   13.3148 N   0  0  0  0  0  0  0  0  0  0  0  0
   43.3962    4.5295   13.0059 C   0  0  0  0  0  0  0  0  0  0  0  0
   43.1440    4.8066   11.5302 C   0  0  0  0  0  0  0  0  0  0  0  0
   46.6816    5.1551   13.9500 S   0  0  0  0  0  0  0  0  0  0  0  0
   45.2193    5.0435   12.9745 C   0  0  0  0  0  0  0  0  0  0  0  0
   44.5621    6.1787   12.4962 C   0  0  0  0  0  0  0  0  0  0  0  0
   44.7292    3.7603   12.6915 C   0  0  0  0  0  0  0  0  0  0  0  0
   43.4078    6.0278   11.7279 C   0  0  0  0  0  0  0  0  0  0  0  0
   47.0795    6.5487   13.9927 O   0  0  0  0  0  0  0  0  0  0  0  0
   46.4795    4.3842   15.1547 O   0  0  0  0  0  0  0  0  0  0  0  0
   47.8107    4.4144   13.0682 O   0  0  0  0  0  0  0  0  0  0  0  0
   42.9150    4.7535   11.4412 C   0  0  0  0  0  0  0  0  0  0  0  0
   44.9573    7.4684   12.7110 O   0  0  0  0  0  0  0  0  0  0  0  0
   43.5772    3.6311   11.9256 C   0  0  0  0  0  0  0  0  0  0  0  0
   43.0570    2.4089   11.6233 O   0  0  0  0  0  0  0  0  0  0  0  0
   47.4941    4.3919   12.9971 H   0  0  0  0  0  0  0  0  0  0  0  0
   47.0849    4.6836   14.7000 H   0  0  0  0  0  0  0  0  0  0  0  0
   47.6773    6.0115   13.6894 H   0  0  0  0  0  0  0  0  0  0  0  0
   45.2362    6.2099   13.9938 H   0  0  0  0  0  0  0  0  0  0  0  0
   45.6437    5.9136   12.2923 H   0  0  0  0  0  0  0  0  0  0  0  0
   45.1728    3.5716   12.6635 H   0  0  0  0  0  0  0  0  0  0  0  0
   42.8198    3.6418   13.2907 H   0  0  0  0  0  0  0  0  0  0  0  0
   43.0127    5.3532   13.6193 H   0  0  0  0  0  0  0  0  0  0  0  0
   43.6207    5.7360   11.2043 H   0  0  0  0  0  0  0  0  0  0  0  0
   42.0689    4.9038   11.3470 H   0  0  0  0  0  0  0  0  0  0  0  0
   43.5173    3.9891   10.9045 H   0  0  0  0  0  0  0  0  0  0  0  0
   45.2474    2.8846   13.0732 H   0  0  0  0  0  0  0  0  0  0  0  0
   42.8883    6.9054   11.3505 H   0  0  0  0  0  0  0  0  0  0  0  0
   48.5872    5.0103   13.0072 H   0  0  0  0  0  0  0  0  0  0  0  0
   42.0147    4.6389   10.8433 H   0  0  0  0  0  0  0  0  0  0  0  0
   45.7789    7.5034   13.2451 H   0  0  0  0  0  0  0  0  0  0  0  0
   43.5870    1.7184   12.0553 H   0  0  0  0  0  0  0  0  0  0  0  0
  1  2  1  0
  2  3  1  0
  3  4  1  0
  4  5  1  0
  7  6  1  0
  8  7  2  0
  9  7  1  0
 10  8  1  0
 11  6  2  0
 12  6  2  0
 13  6  1  0
 14 16  1  0
 15  8  1  0
 16  9  2  0
 10 14  2  0
 16 17  1  0
  1 18  1  0
  1 19  1  0
  1 20  1  0
  2 21  1  0
  2 22  1  0
  3 23  1  0
  4 24  1  0
  4 25  1  0
  5 26  1  0
  5 27  1  0
  5 28  1  0
  9 29  1  0
 10 30  1  0
 13 31  1  0
 14 32  1  0
 15 33  1  0
 17 34  1  0
M  END
> <Uni-Dock RESULT> 
ENERGY=   -4.473  LOWER_BOUND=    5.443  UPPER_BOUND=    6.525
INTER + INTRA:          -4.473
INTER:                  -4.473
INTRA:                   0.000
UNBOUND:                 0.000

$$$$

     RDKit          3D

 34 33  0  0  0  0  0  0  0  0999 V2000
   42.9366    5.2919   12.3869 C   0  0  0  0  0  0  0  0  0  0  0  0
   44.0865    6.2303   12.0514 C   0  0  0  0  0  0  0  0  0  0  0  0
   45.3574    5.5674   12.3328 N   0  0  0  0  0  0  0  0  0  0  0  0
   46.5164    6.3815   11.9708 C   0  0  0  0  0  0  0  0  0  0  0  0
   46.7750    7.5290   12.9374 C   0  0  0  0  0  0  0  0  0  0  0  0
   43.2185    5.2875   12.0329 S   0  0  0  0  0  0  0  0  0  0  0  0
   44.6714    6.2240   12.3711 C   0  0  0  0  0  0  0  0  0  0  0  0
   44.7977    7.5584   11.9803 C   0  0  0  0  0  0  0  0  0  0  0  0
   45.7117    5.5765   13.0533 C   0  0  0  0  0  0  0  0  0  0  0  0
   45.9726    8.2494   12.2764 C   0  0  0  0  0  0  0  0  0  0  0  0
   42.2364    6.1866   11.4589 O   0  0  0  0  0  0  0  0  0  0  0  0
   43.6134    4.0674   11.3682 O   0  0  0  0  0  0  0  0  0  0  0  0
   42.6432    4.8981   13.4884 O   0  0  0  0  0  0  0  0  0  0  0  0
   47.0117    7.6116   12.9563 C   0  0  0  0  0  0  0  0  0  0  0  0
   43.8461    8.2798   11.3173 O   0  0  0  0  0  0  0  0  0  0  0  0
   46.8746    6.2818   13.3378 C   0  0  0  0  0  0  0  0  0  0  0  0
   47.9163    5.7006   13.9957 O   0  0  0  0  0  0  0  0  0  0  0  0
   42.9419    5.0203   13.4480 H   0  0  0  0  0  0  0  0  0  0  0  0
   42.9910    4.3712   11.7962 H   0  0  0  0  0  0  0  0  0  0  0  0
   41.9792    5.7760   12.1682 H   0  0  0  0  0  0  0  0  0  0  0  0
   44.0241    6.4996   10.9910 H   0  0  0  0  0  0  0  0  0  0  0  0
   43.9785    7.1451   12.6434 H   0  0  0  0  0  0  0  0  0  0  0  0
   45.4055    5.3144   13.3193 H   0  0  0  0  0  0  0  0  0  0  0  0
   47.3949    5.7261   11.9747 H   0  0  0  0  0  0  0  0  0  0  0  0
   46.4216    6.7601   10.9464 H   0  0  0  0  0  0  0  0  0  0  0  0
   45.9708    8.2704   12.9121 H   0  0  0  0  0  0  0  0  0  0  0  0
   47.7055    8.0403   12.6694 H   0  0  0  0  0  0  0  0  0  0  0  0
   46.8774    7.1653   13.9652 H   0  0  0  0  0  0  0  0  0  0  0  0
   45.6030    4.5362   13.3485 H   0  0  0  0  0  0  0  0  0  0  0  0
   46.0812    9.2891   11.9765 H   0  0  0  0  0  0  0  0  0  0  0  0
   41.6937    5.1420   13.5144 H   0  0  0  0  0  0  0  0  0  0  0  0
   47.9265    8.1521   13.1847 H   0  0  0  0  0  0  0  0  0  0  0  0
   43.0436    7.7410   11.1519 H   0  0  0  0  0  0  0  0  0  0  0  0
   47.7088    4.7665   14.1645 H   0  0  0  0  0  0  0  0  0  0  0  0
  1  2  1  0
  2  3  1  0
  3  4  1  0
  4  5  1  0
  7  6  1  0
  8  7  2  0
  9  7  1  0
 10  8  1  0
 11  6  2  0
 12  6  2  0
 13  6  1  0
 14 16  1  0
 15  8  1  0
 16  9  2  0
 10 14  2  0
 16 17  1  0
  1 18  1  0
  1 19  1  0
  1 20  1  0
  2 21  1  0
  2 22  1  0
  3 23  1  0
  4 24  1  0
  4 25  1  0
  5 26  1  0
  5 27  1  0
  5 28  1  0
  9 29  1  0
 10 30  1  0
 13 31  1  0
 14 32  1  0
 15 33  1  0
 17 34  1  0
M  END
> <Uni-Dock RESULT> 
ENERGY=   -4.470  LOWER_BOUND=    5.666  UPPER_BOUND=    6.887
INTER + INTRA:          -4.470
INTER:                  -4.470
INTRA:                   0.000
UNBOUND:                 0.000

$$$$

     RDKit          3D

 34 33  0  0  0  0  0  0  0  0999 V2000
   46.7974    4.6489   14.0436 C   0  0  0  0  0  0  0  0  0  0  0  0
   45.8113    4.4135   12.9089 C   0  0  0  0  0  0  0  0  0  0  0  0
   45.5728    5.6679   12.1994 N   0  0  0  0  0  0  0  0  0  0  0  0
   44.6858    5.5110   11.0480 C   0  0  0  0  0  0  0  0  0  0  0  0
   43.2245    5.3228   11.4318 C   0  0  0  0  0  0  0  0  0  0  0  0
   46.8719    4.6196   13.5981 S   0  0  0  0  0  0  0  0  0  0  0  0
   45.3843    4.8767   12.6908 C   0  0  0  0  0  0  0  0  0  0  0  0
   44.5941    3.8130   12.2511 C   0  0  0  0  0  0  0  0  0  0  0  0
   45.0154    6.2023   12.4195 C   0  0  0  0  0  0  0  0  0  0  0  0
   43.4259    4.0785   11.5368 C   0  0  0  0  0  0  0  0  0  0  0  0
   46.9767    3.2018   13.8830 O   0  0  0  0  0  0  0  0  0  0  0  0
   47.9332    5.3436   12.9379 O   0  0  0  0  0  0  0  0  0  0  0  0
   46.6004    5.3236   15.0235 O   0  0  0  0  0  0  0  0  0  0  0  0
   43.0518    5.3955   11.2642 C   0  0  0  0  0  0  0  0  0  0  0  0
   44.8611    2.4906   12.4651 O   0  0  0  0  0  0  0  0  0  0  0  0
   43.8487    6.4459   11.7053 C   0  0  0  0  0  0  0  0  0  0  0  0
   43.4453    7.7137   11.4124 O   0  0  0  0  0  0  0  0  0  0  0  0
   46.4050    5.3709   14.7678 H   0  0  0  0  0  0  0  0  0  0  0  0
   47.7537    5.0261   13.6658 H   0  0  0  0  0  0  0  0  0  0  0  0
   46.9915    3.7113   14.5745 H   0  0  0  0  0  0  0  0  0  0  0  0
   46.2298    3.6643   12.2275 H   0  0  0  0  0  0  0  0  0  0  0  0
   44.8818    4.0137   13.3275 H   0  0  0  0  0  0  0  0  0  0  0  0
   45.1895    6.3616   12.8408 H   0  0  0  0  0  0  0  0  0  0  0  0
   44.7661    6.4210   10.4424 H   0  0  0  0  0  0  0  0  0  0  0  0
   45.0209    4.6867   10.4078 H   0  0  0  0  0  0  0  0  0  0  0  0
   43.0622    4.3800   11.9627 H   0  0  0  0  0  0  0  0  0  0  0  0
   42.6012    5.3076   10.5317 H   0  0  0  0  0  0  0  0  0  0  0  0
   42.8735    6.1424   12.0677 H   0  0  0  0  0  0  0  0  0  0  0  0
   45.6411    7.0216   12.7635 H   0  0  0  0  0  0  0  0  0  0  0  0
   42.8032    3.2572   11.1897 H   0  0  0  0  0  0  0  0  0  0  0  0
   46.8275    4.6801   15.7278 H   0  0  0  0  0  0  0  0  0  0  0  0
   42.1417    5.5995   10.7063 H   0  0  0  0  0  0  0  0  0  0  0  0
   45.6862    2.3744   12.9819 H   0  0  0  0  0  0  0  0  0  0  0  0
   44.1081    8.3451   11.7381 H   0  0  0  0  0  0  0  0  0  0  0  0
  1  2  1  0
  2  3  1  0
  3  4  1  0
  4  5  1  0
  7  6  1  0
  8  7  2  0
  9  7  1  0
 10  8  1  0
 11  6  2  0
 12  6  2  0
 13  6  1  0
 14 16  1  0
 15  8  1  0
 16  9  2  0
 10 14  2  0
 16 17  1  0
  1 18  1  0
  1 19  1  0
  1 20  1  0
  2 21  1  0
  2 22  1  0
  3 23  1  0
  4 24  1  0
  4 25  1  0
  5 26  1  0
  5 27  1  0
  5 28  1  0
  9 29  1  0
 10 30  1  0
 13 31  1  0
 14 32  1  0
 15 33  1  0
 17 34  1  0
M  END
> <Uni-Dock RESULT> 
ENERGY=   -3.909  LOWER_BOUND=    5.108  UPPER_BOUND=    5.789
INTER + INTRA:          -3.909
INTER:                  -3.909
INTRA:                   0.000
UNBOUND:                 0.000

$$$$

     RDKit          3D

 34 33  0  0  0  0  0  0  0  0999 V2000
   53.9629    4.8608    7.7446 C   0  0  0  0  0  0  0  0  0  0  0  0
   54.5467    6.1786    7.2567 C   0  0  0  0  0  0  0  0  0  0  0  0
   53.5496    7.2370    7.3955 N   0  0  0  0  0  0  0  0  0  0  0  0
   54.0583    8.5524    7.0106 C   0  0  0  0  0  0  0  0  0  0  0  0
   54.1976    8.7299    5.5049 C   0  0  0  0  0  0  0  0  0  0  0  0
   54.1110    5.2163    7.9823 S   0  0  0  0  0  0  0  0  0  0  0  0
   54.1814    6.6622    6.9790 C   0  0  0  0  0  0  0  0  0  0  0  0
   55.3592    7.0667    6.3479 C   0  0  0  0  0  0  0  0  0  0  0  0
   53.0004    7.4046    6.8341 C   0  0  0  0  0  0  0  0  0  0  0  0
   55.3540    8.2210    5.5650 C   0  0  0  0  0  0  0  0  0  0  0  0
   55.3884    4.5392    7.8726 O   0  0  0  0  0  0  0  0  0  0  0  0
   53.5516    5.5830    9.2626 O   0  0  0  0  0  0  0  0  0  0  0  0
   53.0527    4.2576    7.2326 O   0  0  0  0  0  0  0  0  0  0  0  0
   54.1819    8.9643    5.4153 C   0  0  0  0  0  0  0  0  0  0  0  0
   56.5575    6.4151    6.4212 O   0  0  0  0  0  0  0  0  0  0  0  0
   53.0161    8.5523    6.0510 C   0  0  0  0  0  0  0  0  0  0  0  0
   51.8982    9.3115    5.8787 O   0  0  0  0  0  0  0  0  0  0  0  0
   53.0868    4.5715    7.1542 H   0  0  0  0  0  0  0  0  0  0  0  0
   53.6629    4.9252    8.7959 H   0  0  0  0  0  0  0  0  0  0  0  0
   54.7074    4.0630    7.6552 H   0  0  0  0  0  0  0  0  0  0  0  0
   55.4359    6.4127    7.8528 H   0  0  0  0  0  0  0  0  0  0  0  0
   54.8559    6.0616    6.2128 H   0  0  0  0  0  0  0  0  0  0  0  0
   52.7232    7.0094    6.8434 H   0  0  0  0  0  0  0  0  0  0  0  0
   53.3489    9.3021    7.3794 H   0  0  0  0  0  0  0  0  0  0  0  0
   55.0119    8.7621    7.5089 H   0  0  0  0  0  0  0  0  0  0  0  0
   54.9628    8.0688    5.0871 H   0  0  0  0  0  0  0  0  0  0  0  0
   54.4890    9.7603    5.2759 H   0  0  0  0  0  0  0  0  0  0  0  0
   53.2505    8.5288    4.9933 H   0  0  0  0  0  0  0  0  0  0  0  0
   52.0910    7.0817    7.3339 H   0  0  0  0  0  0  0  0  0  0  0  0
   56.2661    8.5449    5.0692 H   0  0  0  0  0  0  0  0  0  0  0  0
   53.4654    3.3743    7.1271 H   0  0  0  0  0  0  0  0  0  0  0  0
   54.1809    9.8640    4.8056 H   0  0  0  0  0  0  0  0  0  0  0  0
   56.4894    5.6083    6.9744 H   0  0  0  0  0  0  0  0  0  0  0  0
   51.1724    8.9392    6.4069 H   0  0  0  0  0  0  0  0  0  0  0  0
  1  2  1  0
  2  3  1  0
  3  4  1  0
  4  5  1  0
  7  6  1  0
  8  7  2  0
  9  7  1  0
 10  8  1  0
 11  6  2  0
 12  6  2  0
 13  6  1  0
 14 16  1  0
 15  8  1  0
 16  9  2  0
 10 14  2  0
 16 17  1  0
  1 18  1  0
  1 19  1  0
  1 20  1  0
  2 21  1  0
  2 22  1  0
  3 23  1  0
  4 24  1  0
  4 25  1  0
  5 26  1  0
  5 27  1  0
  5 28  1  0
  9 29  1  0
 10 30  1  0
 13 31  1  0
 14 32  1  0
 15 33  1  0
 17 34  1  0
M  END
> <Uni-Dock RESULT> 
ENERGY=   -3.635  LOWER_BOUND=    8.036  UPPER_BOUND=    9.455
INTER + INTRA:          -3.635
INTER:                  -3.635
INTRA:                   0.000
UNBOUND:                 0.000

$$$$

     RDKit          3D

 34 33  0  0  0  0  0  0  0  0999 V2000
   43.6295    4.3409   10.7658 C   0  0  0  0  0  0  0  0  0  0  0  0
   44.5596    4.8051   11.8770 C   0  0  0  0  0  0  0  0  0  0  0  0
   44.4613    6.2551   12.0240 N   0  0  0  0  0  0  0  0  0  0  0  0
   45.2764    6.7725   13.1217 C   0  0  0  0  0  0  0  0  0  0  0  0
   46.7665    6.7950   12.8098 C   0  0  0  0  0  0  0  0  0  0  0  0
   43.5318    4.4719   11.1878 S   0  0  0  0  0  0  0  0  0  0  0  0
   44.8560    5.4023   11.8830 C   0  0  0  0  0  0  0  0  0  0  0  0
   45.8299    4.8113   12.6901 C   0  0  0  0  0  0  0  0  0  0  0  0
   44.8999    6.7745   11.5966 C   0  0  0  0  0  0  0  0  0  0  0  0
   46.8555    5.5992   13.2124 C   0  0  0  0  0  0  0  0  0  0  0  0
   43.7661    3.0737   11.4920 O   0  0  0  0  0  0  0  0  0  0  0  0
   42.2915    5.1278   11.5311 O   0  0  0  0  0  0  0  0  0  0  0  0
   43.7406    4.6040    9.5941 O   0  0  0  0  0  0  0  0  0  0  0  0
   46.9062    6.9655   12.9306 C   0  0  0  0  0  0  0  0  0  0  0  0
   45.8803    3.4881   13.0253 O   0  0  0  0  0  0  0  0  0  0  0  0
   45.9289    7.5425   12.1275 C   0  0  0  0  0  0  0  0  0  0  0  0
   46.0177    8.8797   11.8832 O   0  0  0  0  0  0  0  0  0  0  0  0
   43.9018    4.7916    9.8053 H   0  0  0  0  0  0  0  0  0  0  0  0
   42.5887    4.6020   10.9851 H   0  0  0  0  0  0  0  0  0  0  0  0
   43.6877    3.2532   10.6556 H   0  0  0  0  0  0  0  0  0  0  0  0
   44.2711    4.3074   12.8095 H   0  0  0  0  0  0  0  0  0  0  0  0
   45.5823    4.5016   11.6297 H   0  0  0  0  0  0  0  0  0  0  0  0
   44.7252    6.7109   11.1510 H   0  0  0  0  0  0  0  0  0  0  0  0
   44.9523    7.8010   13.3178 H   0  0  0  0  0  0  0  0  0  0  0  0
   45.0886    6.2112   14.0444 H   0  0  0  0  0  0  0  0  0  0  0  0
   47.1723    5.7856   12.6933 H   0  0  0  0  0  0  0  0  0  0  0  0
   47.3116    7.2789   13.6269 H   0  0  0  0  0  0  0  0  0  0  0  0
   46.9705    7.3574   11.8926 H   0  0  0  0  0  0  0  0  0  0  0  0
   44.1335    7.2235   10.9704 H   0  0  0  0  0  0  0  0  0  0  0  0
   47.6191    5.1489   13.8423 H   0  0  0  0  0  0  0  0  0  0  0  0
   43.7135    3.7025    9.2089 H   0  0  0  0  0  0  0  0  0  0  0  0
   47.7058    7.5774   13.3398 H   0  0  0  0  0  0  0  0  0  0  0  0
   45.1408    2.9903   12.6168 H   0  0  0  0  0  0  0  0  0  0  0  0
   45.2558    9.1601   11.3492 H   0  0  0  0  0  0  0  0  0  0  0  0
  1  2  1  0
  2  3  1  0
  3  4  1  0
  4  5  1  0
  7  6  1  0
  8  7  2  0
  9  7  1  0
 10  8  1  0
 11  6  2  0
 12  6  2  0
 13  6  1  0
 14 16  1  0
 15  8  1  0
 16  9  2  0
 10 14  2  0
 16 17  1  0
  1 18  1  0
  1 19  1  0
  1 20  1  0
  2 21  1  0
  2 22  1  0
  3 23  1  0
  4 24  1  0
  4 25  1  0
  5 26  1  0
  5 27  1  0
  5 28  1  0
  9 29  1  0
 10 30  1  0
 13 31  1  0
 14 32  1  0
 15 33  1  0
 17 34  1  0
M  END
> <Uni-Dock RESULT> 
ENERGY=   -3.587  LOWER_BOUND=    4.599  UPPER_BOUND=    5.765
INTER + INTRA:          -3.587
INTER:                  -3.587
INTRA:                   0.000
UNBOUND:                 0.000

$$$$
