
     RDKit          3D

 34 33  0  0  0  0  0  0  0  0999 V2000
   44.3991    5.3743   12.1247 C   0  0  0  0  0  0  0  0  0  0  0  0
   43.9325    3.9680   11.7767 C   0  0  0  0  0  0  0  0  0  0  0  0
   44.5740    3.4287   10.5768 N   0  0  0  0  0  0  0  0  0  0  0  0
   44.1252    4.0879    9.3503 C   0  0  0  0  0  0  0  0  0  0  0  0
   44.7368    3.3942    8.1415 C   0  0  0  0  0  0  0  0  0  0  0  0
   43.7816    5.1959   12.2708 S   0  0  0  0  0  0  0  0  0  0  0  0
   44.3558    4.3005   10.8672 C   0  0  0  0  0  0  0  0  0  0  0  0
   44.0222    2.9609   10.6596 C   0  0  0  0  0  0  0  0  0  0  0  0
   45.1770    4.9748    9.9558 C   0  0  0  0  0  0  0  0  0  0  0  0
   44.5128    2.2972    9.5338 C   0  0  0  0  0  0  0  0  0  0  0  0
   44.9116    5.8517   12.8899 O   0  0  0  0  0  0  0  0  0  0  0  0
   42.9064    4.3184   13.0224 O   0  0  0  0  0  0  0  0  0  0  0  0
   42.8688    6.3750   11.6581 O   0  0  0  0  0  0  0  0  0  0  0  0
   45.3303    2.9648    8.6190 C   0  0  0  0  0  0  0  0  0  0  0  0
   43.2302    2.2095   11.4807 O   0  0  0  0  0  0  0  0  0  0  0  0
   45.6543    4.2993    8.8398 C   0  0  0  0  0  0  0  0  0  0  0  0
   46.4484    4.9907    7.9753 O   0  0  0  0  0  0  0  0  0  0  0  0
   43.9827    5.6770   13.0912 H   0  0  0  0  0  0  0  0  0  0  0  0
   45.4906    5.4210   12.2011 H   0  0  0  0  0  0  0  0  0  0  0  0
   44.0723    6.1075   11.3813 H   0  0  0  0  0  0  0  0  0  0  0  0
   44.1894    3.3105   12.6153 H   0  0  0  0  0  0  0  0  0  0  0  0
   42.8407    3.9405   11.6815 H   0  0  0  0  0  0  0  0  0  0  0  0
   44.3616    2.4328   10.5133 H   0  0  0  0  0  0  0  0  0  0  0  0
   43.0331    4.0485    9.2680 H   0  0  0  0  0  0  0  0  0  0  0  0
   44.4332    5.1383    9.3390 H   0  0  0  0  0  0  0  0  0  0  0  0
   44.4277    2.3449    8.0865 H   0  0  0  0  0  0  0  0  0  0  0  0
   45.8310    3.4290    8.1765 H   0  0  0  0  0  0  0  0  0  0  0  0
   44.4133    3.8887    7.2199 H   0  0  0  0  0  0  0  0  0  0  0  0
   45.4512    6.0153   10.1102 H   0  0  0  0  0  0  0  0  0  0  0  0
   44.2543    1.2534    9.3694 H   0  0  0  0  0  0  0  0  0  0  0  0
   43.1744    7.2223   12.0459 H   0  0  0  0  0  0  0  0  0  0  0  0
   45.6995    2.4291    7.7498 H   0  0  0  0  0  0  0  0  0  0  0  0
   42.8914    2.7475   12.2295 H   0  0  0  0  0  0  0  0  0  0  0  0
   46.7212    4.3971    7.2555 H   0  0  0  0  0  0  0  0  0  0  0  0
  1  2  1  0
  2  3  1  0
  3  4  1  0
  4  5  1  0
  7  6  1  0
  8  7  2  0
  9  7  1  0
 10  8  1  0
 11  6  2  0
 12  6  2  0
 13  6  1  0
 14 16  1  0
 15  8  1  0
 16  9  2  0
 10 14  2  0
 16 17  1  0
  1 18  1  0
  1 19  1  0
  1 20  1  0
  2 21  1  0
  2 22  1  0
  3 23  1  0
  4 24  1  0
  4 25  1  0
  5 26  1  0
  5 27  1  0
  5 28  1  0
  9 29  1  0
 10 30  1  0
 13 31  1  0
 14 32  1  0
 15 33  1  0
 17 34  1  0
M  END
> <Uni-Dock RESULT> 
ENERGY=   -5.563  LOWER_BOUND=    0.000  UPPER_BOUND=    0.000
INTER + INTRA:          -5.563
INTER:                  -5.563
INTRA:                   0.000
UNBOUND:                 0.000

$$$$

     RDKit          3D

 34 33  0  0  0  0  0  0  0  0999 V2000
   44.4459    3.9177    8.7826 C   0  0  0  0  0  0  0  0  0  0  0  0
   44.6061    3.2152   10.1233 C   0  0  0  0  0  0  0  0  0  0  0  0
   43.8530    3.8554   11.2027 N   0  0  0  0  0  0  0  0  0  0  0  0
   44.4151    5.1476   11.5957 C   0  0  0  0  0  0  0  0  0  0  0  0
   43.6591    5.6914   12.7996 C   0  0  0  0  0  0  0  0  0  0  0  0
   45.0144    3.6135    8.9195 S   0  0  0  0  0  0  0  0  0  0  0  0
   44.2509    4.1696   10.4058 C   0  0  0  0  0  0  0  0  0  0  0  0
   44.2964    3.4212   11.5834 C   0  0  0  0  0  0  0  0  0  0  0  0
   43.5775    5.3965   10.3726 C   0  0  0  0  0  0  0  0  0  0  0  0
   43.6660    3.9061   12.7305 C   0  0  0  0  0  0  0  0  0  0  0  0
   44.0524    3.7133    7.8448 O   0  0  0  0  0  0  0  0  0  0  0  0
   45.6966    2.3696    9.2161 O   0  0  0  0  0  0  0  0  0  0  0  0
   46.1454    4.7179    8.6029 O   0  0  0  0  0  0  0  0  0  0  0  0
   42.9947    5.1307   12.7051 C   0  0  0  0  0  0  0  0  0  0  0  0
   44.9242    2.2166   11.7278 O   0  0  0  0  0  0  0  0  0  0  0  0
   42.9576    5.8647   11.5242 C   0  0  0  0  0  0  0  0  0  0  0  0
   42.3148    7.0637   11.4520 O   0  0  0  0  0  0  0  0  0  0  0  0
   44.9270    3.3300    7.9938 H   0  0  0  0  0  0  0  0  0  0  0  0
   43.3889    4.0299    8.5190 H   0  0  0  0  0  0  0  0  0  0  0  0
   44.9095    4.9087    8.7841 H   0  0  0  0  0  0  0  0  0  0  0  0
   44.2277    2.1921   10.0151 H   0  0  0  0  0  0  0  0  0  0  0  0
   45.6672    3.1295   10.3852 H   0  0  0  0  0  0  0  0  0  0  0  0
   43.8531    3.2350   12.0127 H   0  0  0  0  0  0  0  0  0  0  0  0
   45.4742    5.0445   11.8579 H   0  0  0  0  0  0  0  0  0  0  0  0
   44.3320    5.8718   10.7790 H   0  0  0  0  0  0  0  0  0  0  0  0
   43.7427    5.0178   13.6592 H   0  0  0  0  0  0  0  0  0  0  0  0
   42.5965    5.8275   12.5715 H   0  0  0  0  0  0  0  0  0  0  0  0
   44.0679    6.6636   13.0933 H   0  0  0  0  0  0  0  0  0  0  0  0
   43.5273    5.9848    9.4600 H   0  0  0  0  0  0  0  0  0  0  0  0
   43.7000    3.3251   13.6496 H   0  0  0  0  0  0  0  0  0  0  0  0
   46.0270    5.0100    7.6743 H   0  0  0  0  0  0  0  0  0  0  0  0
   42.5125    5.4889   13.6094 H   0  0  0  0  0  0  0  0  0  0  0  0
   45.3759    1.9546   10.8959 H   0  0  0  0  0  0  0  0  0  0  0  0
   41.9165    7.2595   12.3169 H   0  0  0  0  0  0  0  0  0  0  0  0
  1  2  1  0
  2  3  1  0
  3  4  1  0
  4  5  1  0
  7  6  1  0
  8  7  2  0
  9  7  1  0
 10  8  1  0
 11  6  2  0
 12  6  2  0
 13  6  1  0
 14 16  1  0
 15  8  1  0
 16  9  2  0
 10 14  2  0
 16 17  1  0
  1 18  1  0
  1 19  1  0
  1 20  1  0
  2 21  1  0
  2 22  1  0
  3 23  1  0
  4 24  1  0
  4 25  1  0
  5 26  1  0
  5 27  1  0
  5 28  1  0
  9 29  1  0
 10 30  1  0
 13 31  1  0
 14 32  1  0
 15 33  1  0
 17 34  1  0
M  END
> <Uni-Dock RESULT> 
ENERGY=   -4.715  LOWER_BOUND=    1.720  UPPER_BOUND=    3.800
INTER + INTRA:          -4.715
INTER:                  -4.715
INTRA:                   0.000
UNBOUND:                 0.000

$$$$

     RDKit          3D

 34 33  0  0  0  0  0  0  0  0999 V2000
   43.4264    5.1479   12.7413 C   0  0  0  0  0  0  0  0  0  0  0  0
   44.7685    4.4959   13.0413 C   0  0  0  0  0  0  0  0  0  0  0  0
   45.8355    5.4648   13.2962 N   0  0  0  0  0  0  0  0  0  0  0  0
   46.2404    6.1905   12.0923 C   0  0  0  0  0  0  0  0  0  0  0  0
   47.4316    7.0839   12.4078 C   0  0  0  0  0  0  0  0  0  0  0  0
   43.5728    4.5706   12.4589 S   0  0  0  0  0  0  0  0  0  0  0  0
   45.0463    5.4809   12.7776 C   0  0  0  0  0  0  0  0  0  0  0  0
   46.2233    4.8569   13.1951 C   0  0  0  0  0  0  0  0  0  0  0  0
   45.0031    6.8700   12.6088 C   0  0  0  0  0  0  0  0  0  0  0  0
   47.3598    5.6287   13.4420 C   0  0  0  0  0  0  0  0  0  0  0  0
   42.4814    5.2028   13.1657 O   0  0  0  0  0  0  0  0  0  0  0  0
   43.8794    3.1650   12.6346 O   0  0  0  0  0  0  0  0  0  0  0  0
   43.2781    4.8057   10.8915 O   0  0  0  0  0  0  0  0  0  0  0  0
   47.3245    7.0147   13.2729 C   0  0  0  0  0  0  0  0  0  0  0  0
   46.3768    3.5135   13.3896 O   0  0  0  0  0  0  0  0  0  0  0  0
   46.1443    7.6221   12.8570 C   0  0  0  0  0  0  0  0  0  0  0  0
   46.0627    8.9703   12.6790 O   0  0  0  0  0  0  0  0  0  0  0  0
   42.6452    4.3829   12.6810 H   0  0  0  0  0  0  0  0  0  0  0  0
   43.1442    5.8529   13.5304 H   0  0  0  0  0  0  0  0  0  0  0  0
   43.4376    5.6829   11.7869 H   0  0  0  0  0  0  0  0  0  0  0  0
   44.6520    3.8843   13.9435 H   0  0  0  0  0  0  0  0  0  0  0  0
   45.0490    3.8100   12.2333 H   0  0  0  0  0  0  0  0  0  0  0  0
   46.6443    4.9680   13.6703 H   0  0  0  0  0  0  0  0  0  0  0  0
   46.5212    5.4917   11.2961 H   0  0  0  0  0  0  0  0  0  0  0  0
   45.4235    6.8200   11.7250 H   0  0  0  0  0  0  0  0  0  0  0  0
   48.2915    6.4956   12.7457 H   0  0  0  0  0  0  0  0  0  0  0  0
   47.1850    7.8118   13.1881 H   0  0  0  0  0  0  0  0  0  0  0  0
   47.7340    7.6380   11.5134 H   0  0  0  0  0  0  0  0  0  0  0  0
   44.0907    7.3690   12.2926 H   0  0  0  0  0  0  0  0  0  0  0  0
   48.2784    5.1452   13.7672 H   0  0  0  0  0  0  0  0  0  0  0  0
   42.3479    5.1036   10.8032 H   0  0  0  0  0  0  0  0  0  0  0  0
   48.2207    7.5950   13.4697 H   0  0  0  0  0  0  0  0  0  0  0  0
   45.5525    3.0299   13.1628 H   0  0  0  0  0  0  0  0  0  0  0  0
   46.9207    9.3694   12.9016 H   0  0  0  0  0  0  0  0  0  0  0  0
  1  2  1  0
  2  3  1  0
  3  4  1  0
  4  5  1  0
  7  6  1  0
  8  7  2  0
  9  7  1  0
 10  8  1  0
 11  6  2  0
 12  6  2  0
 13  6  1  0
 14 16  1  0
 15  8  1  0
 16  9  2  0
 10 14  2  0
 16 17  1  0
  1 18  1  0
  1 19  1  0
  1 20  1  0
  2 21  1  0
  2 22  1  0
  3 23  1  0
  4 24  1  0
  4 25  1  0
  5 26  1  0
  5 27  1  0
  5 28  1  0
  9 29  1  0
 10 30  1  0
 13 31  1  0
 14 32  1  0
 15 33  1  0
 17 34  1  0
M  END
> <Uni-Dock RESULT> 
ENERGY=   -4.709  LOWER_BOUND=    3.085  UPPER_BOUND=    4.011
INTER + INTRA:          -4.709
INTER:                  -4.709
INTRA:                   0.000
UNBOUND:                 0.000

$$$$

     RDKit          3D

 34 33  0  0  0  0  0  0  0  0999 V2000
   43.4162    4.8070   12.7454 C   0  0  0  0  0  0  0  0  0  0  0  0
   44.8076    4.2647   13.0394 C   0  0  0  0  0  0  0  0  0  0  0  0
   45.7888    5.3151   13.3155 N   0  0  0  0  0  0  0  0  0  0  0  0
   46.1344    6.0933   12.1259 C   0  0  0  0  0  0  0  0  0  0  0  0
   47.2456    7.0777   12.4617 C   0  0  0  0  0  0  0  0  0  0  0  0
   43.6113    4.2491   12.4536 S   0  0  0  0  0  0  0  0  0  0  0  0
   45.0023    5.2740   12.7941 C   0  0  0  0  0  0  0  0  0  0  0  0
   46.2265    4.7437   13.2053 C   0  0  0  0  0  0  0  0  0  0  0  0
   44.8432    6.6574   12.6492 C   0  0  0  0  0  0  0  0  0  0  0  0
   47.2936    5.6037   13.4702 C   0  0  0  0  0  0  0  0  0  0  0  0
   42.4689    4.7750   13.1669 O   0  0  0  0  0  0  0  0  0  0  0  0
   44.0343    2.8713   12.6061 O   0  0  0  0  0  0  0  0  0  0  0  0
   43.3019    4.4863   10.8894 O   0  0  0  0  0  0  0  0  0  0  0  0
   47.1425    6.9846   13.3250 C   0  0  0  0  0  0  0  0  0  0  0  0
   46.4918    3.4147   13.3771 O   0  0  0  0  0  0  0  0  0  0  0  0
   45.9165    7.4980   12.9150 C   0  0  0  0  0  0  0  0  0  0  0  0
   45.7225    8.8376   12.7601 O   0  0  0  0  0  0  0  0  0  0  0  0
   42.7022    3.9804   12.6687 H   0  0  0  0  0  0  0  0  0  0  0  0
   43.0739    5.4718   13.5456 H   0  0  0  0  0  0  0  0  0  0  0  0
   43.3850    5.3578   11.8006 H   0  0  0  0  0  0  0  0  0  0  0  0
   44.7405    3.6297   13.9304 H   0  0  0  0  0  0  0  0  0  0  0  0
   45.1467    3.6192   12.2208 H   0  0  0  0  0  0  0  0  0  0  0  0
   46.6355    4.8814   13.6841 H   0  0  0  0  0  0  0  0  0  0  0  0
   46.4749    5.4346   11.3188 H   0  0  0  0  0  0  0  0  0  0  0  0
   45.2685    6.6584   11.7664 H   0  0  0  0  0  0  0  0  0  0  0  0
   48.1510    6.5578   12.7928 H   0  0  0  0  0  0  0  0  0  0  0  0
   46.9368    7.7686   13.2535 H   0  0  0  0  0  0  0  0  0  0  0  0
   47.5028    7.6710   11.5782 H   0  0  0  0  0  0  0  0  0  0  0  0
   43.8929    7.0836   12.3381 H   0  0  0  0  0  0  0  0  0  0  0  0
   48.2487    5.1932   13.7906 H   0  0  0  0  0  0  0  0  0  0  0  0
   42.3502    4.7066   10.8025 H   0  0  0  0  0  0  0  0  0  0  0  0
   47.9863    7.6345   13.5354 H   0  0  0  0  0  0  0  0  0  0  0  0
   45.7116    2.8677   13.1386 H   0  0  0  0  0  0  0  0  0  0  0  0
   46.5434    9.3033   12.9931 H   0  0  0  0  0  0  0  0  0  0  0  0
  1  2  1  0
  2  3  1  0
  3  4  1  0
  4  5  1  0
  7  6  1  0
  8  7  2  0
  9  7  1  0
 10  8  1  0
 11  6  2  0
 12  6  2  0
 13  6  1  0
 14 16  1  0
 15  8  1  0
 16  9  2  0
 10 14  2  0
 16 17  1  0
  1 18  1  0
  1 19  1  0
  1 20  1  0
  2 21  1  0
  2 22  1  0
  3 23  1  0
  4 24  1  0
  4 25  1  0
  5 26  1  0
  5 27  1  0
  5 28  1  0
  9 29  1  0
 10 30  1  0
 13 31  1  0
 14 32  1  0
 15 33  1  0
 17 34  1  0
M  END
> <Uni-Dock RESULT> 
ENERGY=   -4.560  LOWER_BOUND=    3.049  UPPER_BOUND=    4.010
INTER + INTRA:          -4.560
INTER:                  -4.560
INTRA:                   0.000
UNBOUND:                 0.000

$$$$

     RDKit          3D

 34 33  0  0  0  0  0  0  0  0999 V2000
   44.5957    3.4552    8.8429 C   0  0  0  0  0  0  0  0  0  0  0  0
   44.0203    2.8897   10.1335 C   0  0  0  0  0  0  0  0  0  0  0  0
   43.8046    3.9078   11.1627 N   0  0  0  0  0  0  0  0  0  0  0  0
   45.0553    4.4225   11.7204 C   0  0  0  0  0  0  0  0  0  0  0  0
   44.7517    5.3789   12.8649 C   0  0  0  0  0  0  0  0  0  0  0  0
   44.7530    2.8407    9.0220 S   0  0  0  0  0  0  0  0  0  0  0  0
   44.4135    3.8196   10.4461 C   0  0  0  0  0  0  0  0  0  0  0  0
   43.7491    3.2989   11.5580 C   0  0  0  0  0  0  0  0  0  0  0  0
   44.8247    5.1577   10.4298 C   0  0  0  0  0  0  0  0  0  0  0  0
   43.4983    4.1228   12.6566 C   0  0  0  0  0  0  0  0  0  0  0  0
   44.3100    3.5649    7.8517 O   0  0  0  0  0  0  0  0  0  0  0  0
   44.2990    1.4924    9.2987 O   0  0  0  0  0  0  0  0  0  0  0  0
   46.3619    2.7965    8.9304 O   0  0  0  0  0  0  0  0  0  0  0  0
   43.9082    5.4580   12.6481 C   0  0  0  0  0  0  0  0  0  0  0  0
   43.3067    2.0123   11.6807 O   0  0  0  0  0  0  0  0  0  0  0  0
   44.5687    5.9624   11.5327 C   0  0  0  0  0  0  0  0  0  0  0  0
   44.9866    7.2580   11.4793 O   0  0  0  0  0  0  0  0  0  0  0  0
   44.6205    2.6769    8.0730 H   0  0  0  0  0  0  0  0  0  0  0  0
   43.9828    4.2803    8.4650 H   0  0  0  0  0  0  0  0  0  0  0  0
   45.6192    3.8177    8.9777 H   0  0  0  0  0  0  0  0  0  0  0  0
   43.0477    2.4409    9.9006 H   0  0  0  0  0  0  0  0  0  0  0  0
   44.6552    2.0802   10.5122 H   0  0  0  0  0  0  0  0  0  0  0  0
   43.2510    3.4981   11.9154 H   0  0  0  0  0  0  0  0  0  0  0  0
   45.6763    3.6022   12.0979 H   0  0  0  0  0  0  0  0  0  0  0  0
   45.6262    4.9639   10.9593 H   0  0  0  0  0  0  0  0  0  0  0  0
   44.2111    4.8737   13.6725 H   0  0  0  0  0  0  0  0  0  0  0  0
   44.1468    6.2257   12.5234 H   0  0  0  0  0  0  0  0  0  0  0  0
   45.6832    5.7760   13.2809 H   0  0  0  0  0  0  0  0  0  0  0  0
   45.3352    5.5777    9.5669 H   0  0  0  0  0  0  0  0  0  0  0  0
   42.9809    3.7197   13.5244 H   0  0  0  0  0  0  0  0  0  0  0  0
   46.6172    3.0574    8.0202 H   0  0  0  0  0  0  0  0  0  0  0  0
   43.7035    6.0801   13.5140 H   0  0  0  0  0  0  0  0  0  0  0  0
   43.5485    1.4815   10.8904 H   0  0  0  0  0  0  0  0  0  0  0  0
   44.7301    7.7054   12.3033 H   0  0  0  0  0  0  0  0  0  0  0  0
  1  2  1  0
  2  3  1  0
  3  4  1  0
  4  5  1  0
  7  6  1  0
  8  7  2  0
  9  7  1  0
 10  8  1  0
 11  6  2  0
 12  6  2  0
 13  6  1  0
 14 16  1  0
 15  8  1  0
 16  9  2  0
 10 14  2  0
 16 17  1  0
  1 18  1  0
  1 19  1  0
  1 20  1  0
  2 21  1  0
  2 22  1  0
  3 23  1  0
  4 24  1  0
  4 25  1  0
  5 26  1  0
  5 27  1  0
  5 28  1  0
  9 29  1  0
 10 30  1  0
 13 31  1  0
 14 32  1  0
 15 33  1  0
 17 34  1  0
M  END
> <Uni-Dock RESULT> 
ENERGY=   -4.525  LOWER_BOUND=    1.675  UPPER_BOUND=    3.661
INTER + INTRA:          -4.525
INTER:                  -4.525
INTRA:                   0.000
UNBOUND:                 0.000

$$$$

     RDKit          3D

 34 33  0  0  0  0  0  0  0  0999 V2000
   43.4916    4.6721   11.9139 C   0  0  0  0  0  0  0  0  0  0  0  0
   43.5258    6.1574   11.5833 C   0  0  0  0  0  0  0  0  0  0  0  0
   44.8698    6.7325   11.6546 N   0  0  0  0  0  0  0  0  0  0  0  0
   45.3714    6.8303   13.0253 C   0  0  0  0  0  0  0  0  0  0  0  0
   46.7133    7.5485   13.0308 C   0  0  0  0  0  0  0  0  0  0  0  0
   42.9700    5.0462   12.0638 S   0  0  0  0  0  0  0  0  0  0  0  0
   44.4401    6.0153   12.0939 C   0  0  0  0  0  0  0  0  0  0  0  0
   44.4626    7.3360   11.6422 C   0  0  0  0  0  0  0  0  0  0  0  0
   45.6068    5.4139   12.5808 C   0  0  0  0  0  0  0  0  0  0  0  0
   45.6584    8.0551   11.6808 C   0  0  0  0  0  0  0  0  0  0  0  0
   43.2693    3.7786   11.4362 O   0  0  0  0  0  0  0  0  0  0  0  0
   41.8954    5.8948   11.5886 O   0  0  0  0  0  0  0  0  0  0  0  0
   42.6691    4.7117   13.6118 O   0  0  0  0  0  0  0  0  0  0  0  0
   46.8254    7.4621   12.1679 C   0  0  0  0  0  0  0  0  0  0  0  0
   43.3867    8.0192   11.1504 O   0  0  0  0  0  0  0  0  0  0  0  0
   46.7873    6.1452   12.6139 C   0  0  0  0  0  0  0  0  0  0  0  0
   47.9003    5.5254   13.0969 O   0  0  0  0  0  0  0  0  0  0  0  0
   42.4900    4.2712   11.7262 H   0  0  0  0  0  0  0  0  0  0  0  0
   44.1981    4.1123   11.2921 H   0  0  0  0  0  0  0  0  0  0  0  0
   43.7302    4.4832   12.9649 H   0  0  0  0  0  0  0  0  0  0  0  0
   43.1647    6.2824   10.5559 H   0  0  0  0  0  0  0  0  0  0  0  0
   42.8308    6.7083   12.2277 H   0  0  0  0  0  0  0  0  0  0  0  0
   44.8470    7.6662   11.2438 H   0  0  0  0  0  0  0  0  0  0  0  0
   44.6680    7.3865   13.6554 H   0  0  0  0  0  0  0  0  0  0  0  0
   45.5098    5.8353   13.4602 H   0  0  0  0  0  0  0  0  0  0  0  0
   46.6211    8.5667   12.6377 H   0  0  0  0  0  0  0  0  0  0  0  0
   47.4521    7.0120   12.4259 H   0  0  0  0  0  0  0  0  0  0  0  0
   47.0999    7.6165   14.0528 H   0  0  0  0  0  0  0  0  0  0  0  0
   45.6047    4.3836   12.9274 H   0  0  0  0  0  0  0  0  0  0  0  0
   45.6788    9.0845   11.3296 H   0  0  0  0  0  0  0  0  0  0  0  0
   42.5393    3.7427   13.6890 H   0  0  0  0  0  0  0  0  0  0  0  0
   47.7438    8.0406   12.1897 H   0  0  0  0  0  0  0  0  0  0  0  0
   42.5747    7.4676   11.1866 H   0  0  0  0  0  0  0  0  0  0  0  0
   48.6500    6.1423   13.0477 H   0  0  0  0  0  0  0  0  0  0  0  0
  1  2  1  0
  2  3  1  0
  3  4  1  0
  4  5  1  0
  7  6  1  0
  8  7  2  0
  9  7  1  0
 10  8  1  0
 11  6  2  0
 12  6  2  0
 13  6  1  0
 14 16  1  0
 15  8  1  0
 16  9  2  0
 10 14  2  0
 16 17  1  0
  1 18  1  0
  1 19  1  0
  1 20  1  0
  2 21  1  0
  2 22  1  0
  3 23  1  0
  4 24  1  0
  4 25  1  0
  5 26  1  0
  5 27  1  0
  5 28  1  0
  9 29  1  0
 10 30  1  0
 13 31  1  0
 14 32  1  0
 15 33  1  0
 17 34  1  0
M  END
> <Uni-Dock RESULT> 
ENERGY=   -4.014  LOWER_BOUND=    2.766  UPPER_BOUND=    4.171
INTER + INTRA:          -4.014
INTER:                  -4.014
INTRA:                   0.000
UNBOUND:                 0.000

$$$$

     RDKit          3D

 34 33  0  0  0  0  0  0  0  0999 V2000
   43.5588    4.7349   11.7568 C   0  0  0  0  0  0  0  0  0  0  0  0
   44.3767    6.0114   11.6216 C   0  0  0  0  0  0  0  0  0  0  0  0
   45.7521    5.8676   12.1008 N   0  0  0  0  0  0  0  0  0  0  0  0
   45.8342    5.7413   13.5559 C   0  0  0  0  0  0  0  0  0  0  0  0
   47.2934    5.7224   13.9880 C   0  0  0  0  0  0  0  0  0  0  0  0
   43.2554    5.3175   11.8109 S   0  0  0  0  0  0  0  0  0  0  0  0
   44.9328    5.4568   12.3288 C   0  0  0  0  0  0  0  0  0  0  0  0
   45.6976    6.5922   12.0552 C   0  0  0  0  0  0  0  0  0  0  0  0
   45.4916    4.3778   13.0241 C   0  0  0  0  0  0  0  0  0  0  0  0
   47.0256    6.6454   12.4819 C   0  0  0  0  0  0  0  0  0  0  0  0
   43.0874    4.0494   11.1372 O   0  0  0  0  0  0  0  0  0  0  0  0
   42.8864    6.5687   11.1793 O   0  0  0  0  0  0  0  0  0  0  0  0
   42.4128    5.2041   13.1806 O   0  0  0  0  0  0  0  0  0  0  0  0
   47.5885    5.5736   13.1784 C   0  0  0  0  0  0  0  0  0  0  0  0
   45.2545    7.6989   11.3880 O   0  0  0  0  0  0  0  0  0  0  0  0
   46.8141    4.4489   13.4430 C   0  0  0  0  0  0  0  0  0  0  0  0
   47.3205    3.3797   14.1186 O   0  0  0  0  0  0  0  0  0  0  0  0
   42.5845    4.8632   11.2738 H   0  0  0  0  0  0  0  0  0  0  0  0
   44.0624    3.8899   11.2752 H   0  0  0  0  0  0  0  0  0  0  0  0
   43.3757    4.4774   12.8043 H   0  0  0  0  0  0  0  0  0  0  0  0
   44.4206    6.2724   10.5579 H   0  0  0  0  0  0  0  0  0  0  0  0
   43.8722    6.8434   12.1268 H   0  0  0  0  0  0  0  0  0  0  0  0
   46.2860    6.6869   11.8097 H   0  0  0  0  0  0  0  0  0  0  0  0
   45.3292    6.5818   14.0457 H   0  0  0  0  0  0  0  0  0  0  0  0
   45.3616    4.8130   13.8924 H   0  0  0  0  0  0  0  0  0  0  0  0
   47.8038    6.6497   13.7060 H   0  0  0  0  0  0  0  0  0  0  0  0
   47.8301    4.8827   13.5337 H   0  0  0  0  0  0  0  0  0  0  0  0
   47.3628    5.6179   15.0756 H   0  0  0  0  0  0  0  0  0  0  0  0
   44.9097    3.4845   13.2359 H   0  0  0  0  0  0  0  0  0  0  0  0
   47.6238    7.5290   12.2702 H   0  0  0  0  0  0  0  0  0  0  0  0
   41.8281    4.4201   13.1084 H   0  0  0  0  0  0  0  0  0  0  0  0
   48.6230    5.6372   13.5017 H   0  0  0  0  0  0  0  0  0  0  0  0
   44.3055    7.6088   11.1508 H   0  0  0  0  0  0  0  0  0  0  0  0
   48.2515    3.5567   14.3351 H   0  0  0  0  0  0  0  0  0  0  0  0
  1  2  1  0
  2  3  1  0
  3  4  1  0
  4  5  1  0
  7  6  1  0
  8  7  2  0
  9  7  1  0
 10  8  1  0
 11  6  2  0
 12  6  2  0
 13  6  1  0
 14 16  1  0
 15  8  1  0
 16  9  2  0
 10 14  2  0
 16 17  1  0
  1 18  1  0
  1 19  1  0
  1 20  1  0
  2 21  1  0
  2 22  1  0
  3 23  1  0
  4 24  1  0
  4 25  1  0
  5 26  1  0
  5 27  1  0
  5 28  1  0
  9 29  1  0
 10 30  1  0
 13 31  1  0
 14 32  1  0
 15 33  1  0
 17 34  1  0
M  END
> <Uni-Dock RESULT> 
ENERGY=   -3.947  LOWER_BOUND=    2.611  UPPER_BOUND=    4.225
INTER + INTRA:          -3.947
INTER:                  -3.947
INTRA:                   0.000
UNBOUND:                 0.000

$$$$

     RDKit          3D

 34 33  0  0  0  0  0  0  0  0999 V2000
   45.4611    2.9725    8.5586 C   0  0  0  0  0  0  0  0  0  0  0  0
   45.5629    4.3481    9.2021 C   0  0  0  0  0  0  0  0  0  0  0  0
   45.0970    4.3709   10.5894 N   0  0  0  0  0  0  0  0  0  0  0  0
   43.6469    4.2142   10.7019 C   0  0  0  0  0  0  0  0  0  0  0  0
   43.2248    4.3730   12.1556 C   0  0  0  0  0  0  0  0  0  0  0  0
   45.3875    3.5088    8.1825 S   0  0  0  0  0  0  0  0  0  0  0  0
   44.8763    3.8504    9.8328 C   0  0  0  0  0  0  0  0  0  0  0  0
   45.1204    5.0833   10.4406 C   0  0  0  0  0  0  0  0  0  0  0  0
   44.2174    2.8337   10.5342 C   0  0  0  0  0  0  0  0  0  0  0  0
   44.7007    5.2966   11.7547 C   0  0  0  0  0  0  0  0  0  0  0  0
   46.0981    2.2497    8.1741 O   0  0  0  0  0  0  0  0  0  0  0  0
   45.9789    4.7191    7.6476 O   0  0  0  0  0  0  0  0  0  0  0  0
   44.0166    3.2469    7.3759 O   0  0  0  0  0  0  0  0  0  0  0  0
   44.0403    4.2875   12.4593 C   0  0  0  0  0  0  0  0  0  0  0  0
   45.7512    6.1417    9.8506 O   0  0  0  0  0  0  0  0  0  0  0  0
   43.8049    3.0643   11.8404 C   0  0  0  0  0  0  0  0  0  0  0  0
   43.1649    2.0510   12.4883 O   0  0  0  0  0  0  0  0  0  0  0  0
   45.9338    2.9868    7.5709 H   0  0  0  0  0  0  0  0  0  0  0  0
   45.9710    2.2147    9.1628 H   0  0  0  0  0  0  0  0  0  0  0  0
   44.4207    2.6632    8.4211 H   0  0  0  0  0  0  0  0  0  0  0  0
   46.6186    4.6434    9.2008 H   0  0  0  0  0  0  0  0  0  0  0  0
   45.0298    5.0923    8.5989 H   0  0  0  0  0  0  0  0  0  0  0  0
   45.3667    5.2609   11.0092 H   0  0  0  0  0  0  0  0  0  0  0  0
   43.1289    4.9671   10.0970 H   0  0  0  0  0  0  0  0  0  0  0  0
   43.3355    3.2228   10.3576 H   0  0  0  0  0  0  0  0  0  0  0  0
   43.4819    5.3666   12.5382 H   0  0  0  0  0  0  0  0  0  0  0  0
   43.7076    3.6239   12.7923 H   0  0  0  0  0  0  0  0  0  0  0  0
   42.1413    4.2469   12.2491 H   0  0  0  0  0  0  0  0  0  0  0  0
   44.0288    1.8664   10.0755 H   0  0  0  0  0  0  0  0  0  0  0  0
   44.8894    6.2563   12.2307 H   0  0  0  0  0  0  0  0  0  0  0  0
   44.1087    2.3959    6.8973 H   0  0  0  0  0  0  0  0  0  0  0  0
   43.7219    4.4759   13.4799 H   0  0  0  0  0  0  0  0  0  0  0  0
   45.9850    5.9356    8.9191 H   0  0  0  0  0  0  0  0  0  0  0  0
   42.9491    2.3414   13.3906 H   0  0  0  0  0  0  0  0  0  0  0  0
  1  2  1  0
  2  3  1  0
  3  4  1  0
  4  5  1  0
  7  6  1  0
  8  7  2  0
  9  7  1  0
 10  8  1  0
 11  6  2  0
 12  6  2  0
 13  6  1  0
 14 16  1  0
 15  8  1  0
 16  9  2  0
 10 14  2  0
 16 17  1  0
  1 18  1  0
  1 19  1  0
  1 20  1  0
  2 21  1  0
  2 22  1  0
  3 23  1  0
  4 24  1  0
  4 25  1  0
  5 26  1  0
  5 27  1  0
  5 28  1  0
  9 29  1  0
 10 30  1  0
 13 31  1  0
 14 32  1  0
 15 33  1  0
 17 34  1  0
M  END
> <Uni-Dock RESULT> 
ENERGY=   -3.899  LOWER_BOUND=    1.828  UPPER_BOUND=    4.213
INTER + INTRA:          -3.899
INTER:                  -3.899
INTRA:                   0.000
UNBOUND:                 0.000

$$$$

     RDKit          3D

 34 33  0  0  0  0  0  0  0  0999 V2000
   46.4037    7.1056   12.9250 C   0  0  0  0  0  0  0  0  0  0  0  0
   45.1178    7.4387   12.1821 C   0  0  0  0  0  0  0  0  0  0  0  0
   44.1997    6.3033   12.0821 N   0  0  0  0  0  0  0  0  0  0  0  0
   44.6821    5.2639   11.1726 C   0  0  0  0  0  0  0  0  0  0  0  0
   43.6236    4.1805   11.0237 C   0  0  0  0  0  0  0  0  0  0  0  0
   46.4192    7.5542   12.4423 S   0  0  0  0  0  0  0  0  0  0  0  0
   45.1390    6.3829   12.1413 C   0  0  0  0  0  0  0  0  0  0  0  0
   43.9119    6.7564   11.5901 C   0  0  0  0  0  0  0  0  0  0  0  0
   45.3838    5.0478   12.4842 C   0  0  0  0  0  0  0  0  0  0  0  0
   42.9291    5.7874   11.3812 C   0  0  0  0  0  0  0  0  0  0  0  0
   46.8855    7.3847   13.8003 O   0  0  0  0  0  0  0  0  0  0  0  0
   45.9626    8.8386   11.9500 O   0  0  0  0  0  0  0  0  0  0  0  0
   47.6359    7.0820   11.4960 O   0  0  0  0  0  0  0  0  0  0  0  0
   43.1678    4.4531   11.7183 C   0  0  0  0  0  0  0  0  0  0  0  0
   43.5682    8.0253   11.2189 O   0  0  0  0  0  0  0  0  0  0  0  0
   44.3951    4.0966   12.2672 C   0  0  0  0  0  0  0  0  0  0  0  0
   44.6726    2.8080   12.6117 O   0  0  0  0  0  0  0  0  0  0  0  0
   46.9936    8.0158   13.0763 H   0  0  0  0  0  0  0  0  0  0  0  0
   46.1914    6.6768   13.9101 H   0  0  0  0  0  0  0  0  0  0  0  0
   47.0255    6.3994   12.3667 H   0  0  0  0  0  0  0  0  0  0  0  0
   44.6048    8.2335   12.7360 H   0  0  0  0  0  0  0  0  0  0  0  0
   45.3445    7.8460   11.1898 H   0  0  0  0  0  0  0  0  0  0  0  0
   43.2974    6.6422   11.7476 H   0  0  0  0  0  0  0  0  0  0  0  0
   44.9003    5.6858   10.1849 H   0  0  0  0  0  0  0  0  0  0  0  0
   45.5967    4.8033   11.5594 H   0  0  0  0  0  0  0  0  0  0  0  0
   42.6965    4.5852   10.6034 H   0  0  0  0  0  0  0  0  0  0  0  0
   43.3907    3.7190   11.9893 H   0  0  0  0  0  0  0  0  0  0  0  0
   43.9818    3.3938   10.3519 H   0  0  0  0  0  0  0  0  0  0  0  0
   46.3316    4.7454   12.9219 H   0  0  0  0  0  0  0  0  0  0  0  0
   41.9721    6.0755   10.9517 H   0  0  0  0  0  0  0  0  0  0  0  0
   48.4415    7.0213   12.0521 H   0  0  0  0  0  0  0  0  0  0  0  0
   42.3894    3.7162   11.5460 H   0  0  0  0  0  0  0  0  0  0  0  0
   44.3164    8.6463   11.3586 H   0  0  0  0  0  0  0  0  0  0  0  0
   43.8942    2.2573   12.4225 H   0  0  0  0  0  0  0  0  0  0  0  0
  1  2  1  0
  2  3  1  0
  3  4  1  0
  4  5  1  0
  7  6  1  0
  8  7  2  0
  9  7  1  0
 10  8  1  0
 11  6  2  0
 12  6  2  0
 13  6  1  0
 14 16  1  0
 15  8  1  0
 16  9  2  0
 10 14  2  0
 16 17  1  0
  1 18  1  0
  1 19  1  0
  1 20  1  0
  2 21  1  0
  2 22  1  0
  3 23  1  0
  4 24  1  0
  4 25  1  0
  5 26  1  0
  5 27  1  0
  5 28  1  0
  9 29  1  0
 10 30  1  0
 13 31  1  0
 14 32  1  0
 15 33  1  0
 17 34  1  0
M  END
> <Uni-Dock RESULT> 
ENERGY=   -3.831  LOWER_BOUND=    2.474  UPPER_BOUND=    3.915
INTER + INTRA:          -3.831
INTER:                  -3.831
INTRA:                   0.000
UNBOUND:                 0.000

$$$$
