
     RDKit          3D

 34 33  0  0  0  0  0  0  0  0999 V2000
   43.7055    5.6391   12.2363 C   0  0  0  0  0  0  0  0  0  0  0  0
   43.3723    4.6982   11.0886 C   0  0  0  0  0  0  0  0  0  0  0  0
   44.6052    4.1753   10.5032 N   0  0  0  0  0  0  0  0  0  0  0  0
   44.3187    3.2577    9.4022 C   0  0  0  0  0  0  0  0  0  0  0  0
   45.6205    2.7244    8.8239 C   0  0  0  0  0  0  0  0  0  0  0  0
   43.4832    5.5537   11.9645 S   0  0  0  0  0  0  0  0  0  0  0  0
   44.0690    4.4208   10.7500 C   0  0  0  0  0  0  0  0  0  0  0  0
   43.8240    3.0496   10.8412 C   0  0  0  0  0  0  0  0  0  0  0  0
   44.7894    4.9407    9.6681 C   0  0  0  0  0  0  0  0  0  0  0  0
   44.3046    2.1980    9.8449 C   0  0  0  0  0  0  0  0  0  0  0  0
   42.8064    6.6389   11.2904 O   0  0  0  0  0  0  0  0  0  0  0  0
   42.8337    4.7826   13.0058 O   0  0  0  0  0  0  0  0  0  0  0  0
   44.8175    6.1947   12.6029 O   0  0  0  0  0  0  0  0  0  0  0  0
   45.0265    2.7097    8.7643 C   0  0  0  0  0  0  0  0  0  0  0  0
   43.1365    2.4370   11.8503 O   0  0  0  0  0  0  0  0  0  0  0  0
   45.2620    4.0784    8.6870 C   0  0  0  0  0  0  0  0  0  0  0  0
   45.9605    4.6224    7.6517 O   0  0  0  0  0  0  0  0  0  0  0  0
   42.7858    6.0418   12.6726 H   0  0  0  0  0  0  0  0  0  0  0  0
   44.3134    6.4831   11.8930 H   0  0  0  0  0  0  0  0  0  0  0  0
   44.2551    5.1201   13.0290 H   0  0  0  0  0  0  0  0  0  0  0  0
   42.7475    3.8804   11.4656 H   0  0  0  0  0  0  0  0  0  0  0  0
   42.7975    5.2475   10.3344 H   0  0  0  0  0  0  0  0  0  0  0  0
   45.1479    3.6932   11.2195 H   0  0  0  0  0  0  0  0  0  0  0  0
   43.7099    2.4156    9.7508 H   0  0  0  0  0  0  0  0  0  0  0  0
   43.7645    3.7757    8.6112 H   0  0  0  0  0  0  0  0  0  0  0  0
   46.2483    3.5379    8.4450 H   0  0  0  0  0  0  0  0  0  0  0  0
   45.4124    2.0438    7.9921 H   0  0  0  0  0  0  0  0  0  0  0  0
   46.1925    2.1712    9.5766 H   0  0  0  0  0  0  0  0  0  0  0  0
   44.9795    6.0074    9.5808 H   0  0  0  0  0  0  0  0  0  0  0  0
   44.1155    1.1289    9.9134 H   0  0  0  0  0  0  0  0  0  0  0  0
   44.7234    7.1705   12.5756 H   0  0  0  0  0  0  0  0  0  0  0  0
   45.3917    2.0287    8.0016 H   0  0  0  0  0  0  0  0  0  0  0  0
   42.8607    3.0881   12.5322 H   0  0  0  0  0  0  0  0  0  0  0  0
   46.2146    3.9137    7.0368 H   0  0  0  0  0  0  0  0  0  0  0  0
  1  2  1  0
  2  3  1  0
  3  4  1  0
  4  5  1  0
  7  6  1  0
  8  7  2  0
  9  7  1  0
 10  8  1  0
 11  6  2  0
 12  6  2  0
 13  6  1  0
 14 16  1  0
 15  8  1  0
 16  9  2  0
 10 14  2  0
 16 17  1  0
  1 18  1  0
  1 19  1  0
  1 20  1  0
  2 21  1  0
  2 22  1  0
  3 23  1  0
  4 24  1  0
  4 25  1  0
  5 26  1  0
  5 27  1  0
  5 28  1  0
  9 29  1  0
 10 30  1  0
 13 31  1  0
 14 32  1  0
 15 33  1  0
 17 34  1  0
M  END
> <Uni-Dock RESULT> 
ENERGY=   -5.584  LOWER_BOUND=    0.000  UPPER_BOUND=    0.000
INTER + INTRA:          -5.584
INTER:                  -5.584
INTRA:                   0.000
UNBOUND:                 0.000

$$$$

     RDKit          3D

 34 33  0  0  0  0  0  0  0  0999 V2000
   44.6754    2.8317    8.6711 C   0  0  0  0  0  0  0  0  0  0  0  0
   44.7781    3.2174   10.1389 C   0  0  0  0  0  0  0  0  0  0  0  0
   43.7899    4.2483   10.4503 N   0  0  0  0  0  0  0  0  0  0  0  0
   43.8557    4.6340   11.8585 C   0  0  0  0  0  0  0  0  0  0  0  0
   42.8089    5.6982   12.1506 C   0  0  0  0  0  0  0  0  0  0  0  0
   44.8844    2.8757    8.9628 S   0  0  0  0  0  0  0  0  0  0  0  0
   44.2332    3.8110   10.3055 C   0  0  0  0  0  0  0  0  0  0  0  0
   43.5714    3.2045   11.3746 C   0  0  0  0  0  0  0  0  0  0  0  0
   44.4084    5.1996   10.2775 C   0  0  0  0  0  0  0  0  0  0  0  0
   43.0829    3.9938   12.4172 C   0  0  0  0  0  0  0  0  0  0  0  0
   46.2557    3.2787    8.7460 O   0  0  0  0  0  0  0  0  0  0  0  0
   44.5249    1.4885    9.1799 O   0  0  0  0  0  0  0  0  0  0  0  0
   44.0648    3.3879    7.6725 O   0  0  0  0  0  0  0  0  0  0  0  0
   43.2518    5.3801   12.3942 C   0  0  0  0  0  0  0  0  0  0  0  0
   43.3443    1.8635   11.5025 O   0  0  0  0  0  0  0  0  0  0  0  0
   43.9139    5.9697   11.3225 C   0  0  0  0  0  0  0  0  0  0  0  0
   44.1023    7.3174   11.2574 O   0  0  0  0  0  0  0  0  0  0  0  0
   45.4202    2.0666    8.4296 H   0  0  0  0  0  0  0  0  0  0  0  0
   44.8558    3.6948    8.0212 H   0  0  0  0  0  0  0  0  0  0  0  0
   43.6861    2.4250    8.4354 H   0  0  0  0  0  0  0  0  0  0  0  0
   44.6134    2.3266   10.7558 H   0  0  0  0  0  0  0  0  0  0  0  0
   45.7896    3.5890   10.3386 H   0  0  0  0  0  0  0  0  0  0  0  0
   42.8550    3.9048   10.2317 H   0  0  0  0  0  0  0  0  0  0  0  0
   43.6753    3.7671   12.5044 H   0  0  0  0  0  0  0  0  0  0  0  0
   44.8472    5.0365   12.0956 H   0  0  0  0  0  0  0  0  0  0  0  0
   42.9697    6.5911   11.5370 H   0  0  0  0  0  0  0  0  0  0  0  0
   42.8600    5.9983   13.2022 H   0  0  0  0  0  0  0  0  0  0  0  0
   41.7977    5.3251   11.9557 H   0  0  0  0  0  0  0  0  0  0  0  0
   44.9294    5.6833    9.4553 H   0  0  0  0  0  0  0  0  0  0  0  0
   42.5666    3.5241   13.2515 H   0  0  0  0  0  0  0  0  0  0  0  0
   44.7165    3.6295    6.9805 H   0  0  0  0  0  0  0  0  0  0  0  0
   42.8627    5.9744   13.2153 H   0  0  0  0  0  0  0  0  0  0  0  0
   43.6802    1.3747   10.7195 H   0  0  0  0  0  0  0  0  0  0  0  0
   43.7239    7.7267   12.0537 H   0  0  0  0  0  0  0  0  0  0  0  0
  1  2  1  0
  2  3  1  0
  3  4  1  0
  4  5  1  0
  7  6  1  0
  8  7  2  0
  9  7  1  0
 10  8  1  0
 11  6  2  0
 12  6  2  0
 13  6  1  0
 14 16  1  0
 15  8  1  0
 16  9  2  0
 10 14  2  0
 16 17  1  0
  1 18  1  0
  1 19  1  0
  1 20  1  0
  2 21  1  0
  2 22  1  0
  3 23  1  0
  4 24  1  0
  4 25  1  0
  5 26  1  0
  5 27  1  0
  5 28  1  0
  9 29  1  0
 10 30  1  0
 13 31  1  0
 14 32  1  0
 15 33  1  0
 17 34  1  0
M  END
> <Uni-Dock RESULT> 
ENERGY=   -4.819  LOWER_BOUND=    1.669  UPPER_BOUND=    3.797
INTER + INTRA:          -4.819
INTER:                  -4.819
INTRA:                   0.000
UNBOUND:                 0.000

$$$$

     RDKit          3D

 34 33  0  0  0  0  0  0  0  0999 V2000
   45.8663    3.4192    7.9235 C   0  0  0  0  0  0  0  0  0  0  0  0
   44.8467    4.0771    8.8406 C   0  0  0  0  0  0  0  0  0  0  0  0
   44.9435    3.5031   10.1813 N   0  0  0  0  0  0  0  0  0  0  0  0
   43.9821    4.1226   11.0912 C   0  0  0  0  0  0  0  0  0  0  0  0
   44.1168    3.5113   12.4775 C   0  0  0  0  0  0  0  0  0  0  0  0
   45.5414    3.5731    7.9605 S   0  0  0  0  0  0  0  0  0  0  0  0
   44.8917    3.7382    9.5891 C   0  0  0  0  0  0  0  0  0  0  0  0
   45.0755    4.8988   10.3425 C   0  0  0  0  0  0  0  0  0  0  0  0
   44.1657    2.6619   10.1128 C   0  0  0  0  0  0  0  0  0  0  0  0
   44.5307    4.9788   11.6253 C   0  0  0  0  0  0  0  0  0  0  0  0
   44.4830    3.1142    7.0891 O   0  0  0  0  0  0  0  0  0  0  0  0
   46.3006    4.7727    7.6680 O   0  0  0  0  0  0  0  0  0  0  0  0
   46.5905    2.3532    8.0606 O   0  0  0  0  0  0  0  0  0  0  0  0
   43.8076    3.9077   12.1550 C   0  0  0  0  0  0  0  0  0  0  0  0
   45.7653    6.0042    9.9319 O   0  0  0  0  0  0  0  0  0  0  0  0
   43.6325    2.7580   11.3918 C   0  0  0  0  0  0  0  0  0  0  0  0
   42.9346    1.6887   11.8667 O   0  0  0  0  0  0  0  0  0  0  0  0
   45.7918    3.8383    6.9150 H   0  0  0  0  0  0  0  0  0  0  0  0
   45.6972    2.3393    7.8531 H   0  0  0  0  0  0  0  0  0  0  0  0
   46.8881    3.5841    8.2821 H   0  0  0  0  0  0  0  0  0  0  0  0
   45.0343    5.1566    8.8691 H   0  0  0  0  0  0  0  0  0  0  0  0
   43.8434    3.9154    8.4304 H   0  0  0  0  0  0  0  0  0  0  0  0
   45.8889    3.6305   10.5419 H   0  0  0  0  0  0  0  0  0  0  0  0
   44.1552    5.2029   11.1576 H   0  0  0  0  0  0  0  0  0  0  0  0
   42.9600    3.9618   10.7299 H   0  0  0  0  0  0  0  0  0  0  0  0
   43.9294    2.4324   12.4546 H   0  0  0  0  0  0  0  0  0  0  0  0
   43.3921    3.9648   13.1613 H   0  0  0  0  0  0  0  0  0  0  0  0
   45.1180    3.6773   12.8894 H   0  0  0  0  0  0  0  0  0  0  0  0
   44.0080    1.7560    9.5332 H   0  0  0  0  0  0  0  0  0  0  0  0
   44.6724    5.8819   12.2149 H   0  0  0  0  0  0  0  0  0  0  0  0
   46.3763    1.7149    7.3475 H   0  0  0  0  0  0  0  0  0  0  0  0
   43.3938    3.9914   13.1553 H   0  0  0  0  0  0  0  0  0  0  0  0
   46.1510    5.8652    9.0393 H   0  0  0  0  0  0  0  0  0  0  0  0
   42.6078    1.8972   12.7582 H   0  0  0  0  0  0  0  0  0  0  0  0
  1  2  1  0
  2  3  1  0
  3  4  1  0
  4  5  1  0
  7  6  1  0
  8  7  2  0
  9  7  1  0
 10  8  1  0
 11  6  2  0
 12  6  2  0
 13  6  1  0
 14 16  1  0
 15  8  1  0
 16  9  2  0
 10 14  2  0
 16 17  1  0
  1 18  1  0
  1 19  1  0
  1 20  1  0
  2 21  1  0
  2 22  1  0
  3 23  1  0
  4 24  1  0
  4 25  1  0
  5 26  1  0
  5 27  1  0
  5 28  1  0
  9 29  1  0
 10 30  1  0
 13 31  1  0
 14 32  1  0
 15 33  1  0
 17 34  1  0
M  END
> <Uni-Dock RESULT> 
ENERGY=   -4.632  LOWER_BOUND=    1.927  UPPER_BOUND=    4.215
INTER + INTRA:          -4.632
INTER:                  -4.632
INTRA:                   0.000
UNBOUND:                 0.000

$$$$

     RDKit          3D

 34 33  0  0  0  0  0  0  0  0999 V2000
   42.9755    4.9969   11.9648 C   0  0  0  0  0  0  0  0  0  0  0  0
   43.8116    6.0663   12.6511 C   0  0  0  0  0  0  0  0  0  0  0  0
   45.2131    5.9252   12.2607 N   0  0  0  0  0  0  0  0  0  0  0  0
   46.0431    6.9467   12.8962 C   0  0  0  0  0  0  0  0  0  0  0  0
   47.4908    6.7783   12.4608 C   0  0  0  0  0  0  0  0  0  0  0  0
   43.0271    5.2069   12.2544 S   0  0  0  0  0  0  0  0  0  0  0  0
   44.6022    5.9717   12.4434 C   0  0  0  0  0  0  0  0  0  0  0  0
   44.8583    7.2600   11.9707 C   0  0  0  0  0  0  0  0  0  0  0  0
   45.6037    5.2466   13.0998 C   0  0  0  0  0  0  0  0  0  0  0  0
   46.1230    7.8211   12.1558 C   0  0  0  0  0  0  0  0  0  0  0  0
   42.6135    4.6861   13.5380 O   0  0  0  0  0  0  0  0  0  0  0  0
   42.1882    6.1131   11.4956 O   0  0  0  0  0  0  0  0  0  0  0  0
   43.3067    3.9195   11.3253 O   0  0  0  0  0  0  0  0  0  0  0  0
   47.1277    7.1021   12.8072 C   0  0  0  0  0  0  0  0  0  0  0  0
   43.9582    8.0533   11.3173 O   0  0  0  0  0  0  0  0  0  0  0  0
   46.8571    5.8197   13.2732 C   0  0  0  0  0  0  0  0  0  0  0  0
   47.8055    5.0813   13.9145 O   0  0  0  0  0  0  0  0  0  0  0  0
   41.9259    5.0915   12.2612 H   0  0  0  0  0  0  0  0  0  0  0  0
   43.3142    3.9922   12.2396 H   0  0  0  0  0  0  0  0  0  0  0  0
   43.0273    5.0907   10.8747 H   0  0  0  0  0  0  0  0  0  0  0  0
   43.4307    7.0546   12.3695 H   0  0  0  0  0  0  0  0  0  0  0  0
   43.7074    5.9565   13.7365 H   0  0  0  0  0  0  0  0  0  0  0  0
   45.2960    5.9973   11.2469 H   0  0  0  0  0  0  0  0  0  0  0  0
   45.6997    7.9498   12.6186 H   0  0  0  0  0  0  0  0  0  0  0  0
   45.9874    6.8560   13.9870 H   0  0  0  0  0  0  0  0  0  0  0  0
   47.8766    5.7922   12.7407 H   0  0  0  0  0  0  0  0  0  0  0  0
   48.1192    7.5350   12.9415 H   0  0  0  0  0  0  0  0  0  0  0  0
   47.5956    6.8930   11.3765 H   0  0  0  0  0  0  0  0  0  0  0  0
   45.4148    4.2460   13.4803 H   0  0  0  0  0  0  0  0  0  0  0  0
   46.3256    8.8247   11.7883 H   0  0  0  0  0  0  0  0  0  0  0  0
   42.9168    3.1381   11.7714 H   0  0  0  0  0  0  0  0  0  0  0  0
   48.1042    7.5578   12.9391 H   0  0  0  0  0  0  0  0  0  0  0  0
   43.1050    7.5837   11.1896 H   0  0  0  0  0  0  0  0  0  0  0  0
   48.6214    5.6058   13.9800 H   0  0  0  0  0  0  0  0  0  0  0  0
  1  2  1  0
  2  3  1  0
  3  4  1  0
  4  5  1  0
  7  6  1  0
  8  7  2  0
  9  7  1  0
 10  8  1  0
 11  6  2  0
 12  6  2  0
 13  6  1  0
 14 16  1  0
 15  8  1  0
 16  9  2  0
 10 14  2  0
 16 17  1  0
  1 18  1  0
  1 19  1  0
  1 20  1  0
  2 21  1  0
  2 22  1  0
  3 23  1  0
  4 24  1  0
  4 25  1  0
  5 26  1  0
  5 27  1  0
  5 28  1  0
  9 29  1  0
 10 30  1  0
 13 31  1  0
 14 32  1  0
 15 33  1  0
 17 34  1  0
M  END
> <Uni-Dock RESULT> 
ENERGY=   -4.507  LOWER_BOUND=    2.871  UPPER_BOUND=    4.320
INTER + INTRA:          -4.507
INTER:                  -4.507
INTRA:                   0.000
UNBOUND:                 0.000

$$$$

     RDKit          3D

 34 33  0  0  0  0  0  0  0  0999 V2000
   43.3862    4.6647   12.6722 C   0  0  0  0  0  0  0  0  0  0  0  0
   44.8075    4.9953   12.2428 C   0  0  0  0  0  0  0  0  0  0  0  0
   45.3366    6.0762   13.0723 N   0  0  0  0  0  0  0  0  0  0  0  0
   46.7072    6.4111   12.6912 C   0  0  0  0  0  0  0  0  0  0  0  0
   47.2303    7.5295   13.5796 C   0  0  0  0  0  0  0  0  0  0  0  0
   43.6288    4.6859   12.4052 S   0  0  0  0  0  0  0  0  0  0  0  0
   45.0947    5.6166   12.6996 C   0  0  0  0  0  0  0  0  0  0  0  0
   46.2665    5.0189   13.1668 C   0  0  0  0  0  0  0  0  0  0  0  0
   45.0566    6.9914   12.4389 C   0  0  0  0  0  0  0  0  0  0  0  0
   47.4024    5.8034   13.3744 C   0  0  0  0  0  0  0  0  0  0  0  0
   43.1391    5.0080   11.0836 O   0  0  0  0  0  0  0  0  0  0  0  0
   43.8902    3.3179   12.8066 O   0  0  0  0  0  0  0  0  0  0  0  0
   42.5468    5.2905   13.4359 O   0  0  0  0  0  0  0  0  0  0  0  0
   47.3706    7.1762   13.1190 C   0  0  0  0  0  0  0  0  0  0  0  0
   46.4140    3.6915   13.4542 O   0  0  0  0  0  0  0  0  0  0  0  0
   46.1957    7.7571   12.6532 C   0  0  0  0  0  0  0  0  0  0  0  0
   46.1179    9.0915   12.3901 O   0  0  0  0  0  0  0  0  0  0  0  0
   42.9809    3.8622   12.0477 H   0  0  0  0  0  0  0  0  0  0  0  0
   42.7291    5.5352   12.5709 H   0  0  0  0  0  0  0  0  0  0  0  0
   43.3538    4.3294   13.7145 H   0  0  0  0  0  0  0  0  0  0  0  0
   45.4285    4.0973   12.3376 H   0  0  0  0  0  0  0  0  0  0  0  0
   44.7994    5.2954   11.1888 H   0  0  0  0  0  0  0  0  0  0  0  0
   45.3108    5.7999   14.0536 H   0  0  0  0  0  0  0  0  0  0  0  0
   47.3603    5.5369   12.7937 H   0  0  0  0  0  0  0  0  0  0  0  0
   46.7404    6.7420   11.6470 H   0  0  0  0  0  0  0  0  0  0  0  0
   46.6133    8.4298   13.4878 H   0  0  0  0  0  0  0  0  0  0  0  0
   48.2537    7.7915   13.2923 H   0  0  0  0  0  0  0  0  0  0  0  0
   47.2430    7.2278   14.6325 H   0  0  0  0  0  0  0  0  0  0  0  0
   44.1532    7.4675   12.0667 H   0  0  0  0  0  0  0  0  0  0  0  0
   48.3170    5.3406   13.7386 H   0  0  0  0  0  0  0  0  0  0  0  0
   41.7391    5.5126   12.9260 H   0  0  0  0  0  0  0  0  0  0  0  0
   48.2655    7.7671   13.2886 H   0  0  0  0  0  0  0  0  0  0  0  0
   45.5693    3.2081   13.3214 H   0  0  0  0  0  0  0  0  0  0  0  0
   46.9830    9.4980   12.5671 H   0  0  0  0  0  0  0  0  0  0  0  0
  1  2  1  0
  2  3  1  0
  3  4  1  0
  4  5  1  0
  7  6  1  0
  8  7  2  0
  9  7  1  0
 10  8  1  0
 11  6  2  0
 12  6  2  0
 13  6  1  0
 14 16  1  0
 15  8  1  0
 16  9  2  0
 10 14  2  0
 16 17  1  0
  1 18  1  0
  1 19  1  0
  1 20  1  0
  2 21  1  0
  2 22  1  0
  3 23  1  0
  4 24  1  0
  4 25  1  0
  5 26  1  0
  5 27  1  0
  5 28  1  0
  9 29  1  0
 10 30  1  0
 13 31  1  0
 14 32  1  0
 15 33  1  0
 17 34  1  0
M  END
> <Uni-Dock RESULT> 
ENERGY=   -4.309  LOWER_BOUND=    2.840  UPPER_BOUND=    4.232
INTER + INTRA:          -4.309
INTER:                  -4.309
INTRA:                   0.000
UNBOUND:                 0.000

$$$$

     RDKit          3D

 34 33  0  0  0  0  0  0  0  0999 V2000
   44.1439    3.2460   10.6555 C   0  0  0  0  0  0  0  0  0  0  0  0
   44.2822    4.1565   11.8660 C   0  0  0  0  0  0  0  0  0  0  0  0
   45.6948    4.3203   12.2035 N   0  0  0  0  0  0  0  0  0  0  0  0
   45.8627    5.2001   13.3585 C   0  0  0  0  0  0  0  0  0  0  0  0
   47.3420    5.3577   13.6754 C   0  0  0  0  0  0  0  0  0  0  0  0
   44.0058    3.3637   10.9681 S   0  0  0  0  0  0  0  0  0  0  0  0
   45.0774    4.2310   12.0640 C   0  0  0  0  0  0  0  0  0  0  0  0
   45.1746    5.6235   12.0524 C   0  0  0  0  0  0  0  0  0  0  0  0
   45.8334    3.4762   12.9687 C   0  0  0  0  0  0  0  0  0  0  0  0
   46.0340    6.2598   12.9498 C   0  0  0  0  0  0  0  0  0  0  0  0
   43.2161    2.4316   11.7412 O   0  0  0  0  0  0  0  0  0  0  0  0
   43.3882    4.3413   10.0942 O   0  0  0  0  0  0  0  0  0  0  0  0
   44.9893    2.4632   10.0622 O   0  0  0  0  0  0  0  0  0  0  0  0
   46.7933    5.5126   13.8531 C   0  0  0  0  0  0  0  0  0  0  0  0
   44.4869    6.4547   11.2144 O   0  0  0  0  0  0  0  0  0  0  0  0
   46.6850    4.1259   13.8531 C   0  0  0  0  0  0  0  0  0  0  0  0
   47.4055    3.3563   14.7160 O   0  0  0  0  0  0  0  0  0  0  0  0
   43.0870    3.1115   10.4039 H   0  0  0  0  0  0  0  0  0  0  0  0
   44.5719    2.2571   10.8525 H   0  0  0  0  0  0  0  0  0  0  0  0
   44.6472    3.6698    9.7798 H   0  0  0  0  0  0  0  0  0  0  0  0
   43.8251    5.1264   11.6390 H   0  0  0  0  0  0  0  0  0  0  0  0
   43.7401    3.7122   12.7085 H   0  0  0  0  0  0  0  0  0  0  0  0
   46.1966    4.7047   11.4033 H   0  0  0  0  0  0  0  0  0  0  0  0
   45.4323    6.1877   13.1565 H   0  0  0  0  0  0  0  0  0  0  0  0
   45.3550    4.7785   14.2334 H   0  0  0  0  0  0  0  0  0  0  0  0
   47.8034    4.3910   13.9039 H   0  0  0  0  0  0  0  0  0  0  0  0
   47.4736    6.0081   14.5461 H   0  0  0  0  0  0  0  0  0  0  0  0
   47.8828    5.8063   12.8352 H   0  0  0  0  0  0  0  0  0  0  0  0
   45.7604    2.3919   12.9939 H   0  0  0  0  0  0  0  0  0  0  0  0
   46.1121    7.3447   12.9429 H   0  0  0  0  0  0  0  0  0  0  0  0
   44.6583    1.5404   10.0874 H   0  0  0  0  0  0  0  0  0  0  0  0
   47.4560    6.0285   14.5412 H   0  0  0  0  0  0  0  0  0  0  0  0
   43.9319    5.9403   10.5881 H   0  0  0  0  0  0  0  0  0  0  0  0
   47.9419    3.9366   15.2822 H   0  0  0  0  0  0  0  0  0  0  0  0
  1  2  1  0
  2  3  1  0
  3  4  1  0
  4  5  1  0
  7  6  1  0
  8  7  2  0
  9  7  1  0
 10  8  1  0
 11  6  2  0
 12  6  2  0
 13  6  1  0
 14 16  1  0
 15  8  1  0
 16  9  2  0
 10 14  2  0
 16 17  1  0
  1 18  1  0
  1 19  1  0
  1 20  1  0
  2 21  1  0
  2 22  1  0
  3 23  1  0
  4 24  1  0
  4 25  1  0
  5 26  1  0
  5 27  1  0
  5 28  1  0
  9 29  1  0
 10 30  1  0
 13 31  1  0
 14 32  1  0
 15 33  1  0
 17 34  1  0
M  END
> <Uni-Dock RESULT> 
ENERGY=   -4.268  LOWER_BOUND=    2.588  UPPER_BOUND=    4.315
INTER + INTRA:          -4.268
INTER:                  -4.268
INTRA:                   0.000
UNBOUND:                 0.000

$$$$

     RDKit          3D

 34 33  0  0  0  0  0  0  0  0999 V2000
   45.5690    8.0125   12.3957 C   0  0  0  0  0  0  0  0  0  0  0  0
   45.0386    6.8551   11.5635 C   0  0  0  0  0  0  0  0  0  0  0  0
   44.6440    5.7545   12.4408 N   0  0  0  0  0  0  0  0  0  0  0  0
   44.1191    4.6285   11.6710 C   0  0  0  0  0  0  0  0  0  0  0  0
   43.7084    3.5072   12.6131 C   0  0  0  0  0  0  0  0  0  0  0  0
   45.5827    7.8253   12.0869 S   0  0  0  0  0  0  0  0  0  0  0  0
   44.8353    6.2309   12.0597 C   0  0  0  0  0  0  0  0  0  0  0  0
   43.5172    6.0411   11.6408 C   0  0  0  0  0  0  0  0  0  0  0  0
   45.6130    5.1400   12.4656 C   0  0  0  0  0  0  0  0  0  0  0  0
   42.9781    4.7535   11.6310 C   0  0  0  0  0  0  0  0  0  0  0  0
   46.8586    7.7450   11.4118 O   0  0  0  0  0  0  0  0  0  0  0  0
   44.5739    8.7889   11.6937 O   0  0  0  0  0  0  0  0  0  0  0  0
   45.9215    8.0915   13.6403 O   0  0  0  0  0  0  0  0  0  0  0  0
   43.7476    3.6610   12.0373 C   0  0  0  0  0  0  0  0  0  0  0  0
   42.6713    7.0308   11.2272 O   0  0  0  0  0  0  0  0  0  0  0  0
   45.0595    3.8660   12.4514 C   0  0  0  0  0  0  0  0  0  0  0  0
   45.8476    2.8310   12.8559 O   0  0  0  0  0  0  0  0  0  0  0  0
   45.8755    8.8364   11.7432 H   0  0  0  0  0  0  0  0  0  0  0  0
   46.4396    7.7091   12.9871 H   0  0  0  0  0  0  0  0  0  0  0  0
   44.8038    8.3926   13.0811 H   0  0  0  0  0  0  0  0  0  0  0  0
   44.1839    7.2015   10.9714 H   0  0  0  0  0  0  0  0  0  0  0  0
   45.8226    6.5263   10.8719 H   0  0  0  0  0  0  0  0  0  0  0  0
   43.9374    6.0783   13.1010 H   0  0  0  0  0  0  0  0  0  0  0  0
   43.2488    4.9375   11.0807 H   0  0  0  0  0  0  0  0  0  0  0  0
   44.8831    4.2513   10.9817 H   0  0  0  0  0  0  0  0  0  0  0  0
   44.5595    3.1568   13.2067 H   0  0  0  0  0  0  0  0  0  0  0  0
   43.3233    2.6567   12.0413 H   0  0  0  0  0  0  0  0  0  0  0  0
   42.9214    3.8344   13.3010 H   0  0  0  0  0  0  0  0  0  0  0  0
   46.6432    5.2731   12.7856 H   0  0  0  0  0  0  0  0  0  0  0  0
   41.9512    4.6024   11.3053 H   0  0  0  0  0  0  0  0  0  0  0  0
   46.8640    8.3557   13.7001 H   0  0  0  0  0  0  0  0  0  0  0  0
   43.3073    2.6687   12.0226 H   0  0  0  0  0  0  0  0  0  0  0  0
   43.1020    7.9110   11.2945 H   0  0  0  0  0  0  0  0  0  0  0  0
   45.3430    2.0035   12.7807 H   0  0  0  0  0  0  0  0  0  0  0  0
  1  2  1  0
  2  3  1  0
  3  4  1  0
  4  5  1  0
  7  6  1  0
  8  7  2  0
  9  7  1  0
 10  8  1  0
 11  6  2  0
 12  6  2  0
 13  6  1  0
 14 16  1  0
 15  8  1  0
 16  9  2  0
 10 14  2  0
 16 17  1  0
  1 18  1  0
  1 19  1  0
  1 20  1  0
  2 21  1  0
  2 22  1  0
  3 23  1  0
  4 24  1  0
  4 25  1  0
  5 26  1  0
  5 27  1  0
  5 28  1  0
  9 29  1  0
 10 30  1  0
 13 31  1  0
 14 32  1  0
 15 33  1  0
 17 34  1  0
M  END
> <Uni-Dock RESULT> 
ENERGY=   -3.968  LOWER_BOUND=    2.694  UPPER_BOUND=    3.577
INTER + INTRA:          -3.968
INTER:                  -3.968
INTRA:                   0.000
UNBOUND:                 0.000

$$$$

     RDKit          3D

 34 33  0  0  0  0  0  0  0  0999 V2000
   44.9830    4.1080   12.8534 C   0  0  0  0  0  0  0  0  0  0  0  0
   45.8253    5.2649   12.3381 C   0  0  0  0  0  0  0  0  0  0  0  0
   45.2084    6.5343   12.7181 N   0  0  0  0  0  0  0  0  0  0  0  0
   46.0006    7.6682   12.2460 C   0  0  0  0  0  0  0  0  0  0  0  0
   45.3377    8.9708   12.6671 C   0  0  0  0  0  0  0  0  0  0  0  0
   45.2039    4.2365   12.5979 S   0  0  0  0  0  0  0  0  0  0  0  0
   45.4649    5.9772   12.5379 C   0  0  0  0  0  0  0  0  0  0  0  0
   46.5356    6.5857   13.1950 C   0  0  0  0  0  0  0  0  0  0  0  0
   44.5622    6.7457   11.7935 C   0  0  0  0  0  0  0  0  0  0  0  0
   46.6997    7.9691   13.1062 C   0  0  0  0  0  0  0  0  0  0  0  0
   45.0139    3.7547   11.2482 O   0  0  0  0  0  0  0  0  0  0  0  0
   46.2133    3.6720   13.4716 O   0  0  0  0  0  0  0  0  0  0  0  0
   43.7800    4.0617   13.3332 O   0  0  0  0  0  0  0  0  0  0  0  0
   45.8011    8.7423   12.3676 C   0  0  0  0  0  0  0  0  0  0  0  0
   47.4717    5.9345   13.9474 O   0  0  0  0  0  0  0  0  0  0  0  0
   44.7395    8.1214   11.7178 C   0  0  0  0  0  0  0  0  0  0  0  0
   43.8387    8.8346   10.9858 O   0  0  0  0  0  0  0  0  0  0  0  0
   45.4351    3.1542   12.5632 H   0  0  0  0  0  0  0  0  0  0  0  0
   43.9695    4.1405   12.4393 H   0  0  0  0  0  0  0  0  0  0  0  0
   44.9082    4.1266   13.9461 H   0  0  0  0  0  0  0  0  0  0  0  0
   46.8354    5.1869   12.7562 H   0  0  0  0  0  0  0  0  0  0  0  0
   45.9004    5.1914   11.2472 H   0  0  0  0  0  0  0  0  0  0  0  0
   45.1140    6.5800   13.7325 H   0  0  0  0  0  0  0  0  0  0  0  0
   47.0137    7.6306   12.6627 H   0  0  0  0  0  0  0  0  0  0  0  0
   46.0795    7.6469   11.1531 H   0  0  0  0  0  0  0  0  0  0  0  0
   44.3280    9.0540   12.2510 H   0  0  0  0  0  0  0  0  0  0  0  0
   45.9217    9.8241   12.3077 H   0  0  0  0  0  0  0  0  0  0  0  0
   45.2672    9.0464   13.7575 H   0  0  0  0  0  0  0  0  0  0  0  0
   43.7294    6.2832   11.2700 H   0  0  0  0  0  0  0  0  0  0  0  0
   47.5330    8.4462   13.6175 H   0  0  0  0  0  0  0  0  0  0  0  0
   43.2242    3.4781   12.7745 H   0  0  0  0  0  0  0  0  0  0  0  0
   45.9475    9.8167   12.3132 H   0  0  0  0  0  0  0  0  0  0  0  0
   47.2748    4.9734   13.9970 H   0  0  0  0  0  0  0  0  0  0  0  0
   44.0903    9.7733   11.0054 H   0  0  0  0  0  0  0  0  0  0  0  0
  1  2  1  0
  2  3  1  0
  3  4  1  0
  4  5  1  0
  7  6  1  0
  8  7  2  0
  9  7  1  0
 10  8  1  0
 11  6  2  0
 12  6  2  0
 13  6  1  0
 14 16  1  0
 15  8  1  0
 16  9  2  0
 10 14  2  0
 16 17  1  0
  1 18  1  0
  1 19  1  0
  1 20  1  0
  2 21  1  0
  2 22  1  0
  3 23  1  0
  4 24  1  0
  4 25  1  0
  5 26  1  0
  5 27  1  0
  5 28  1  0
  9 29  1  0
 10 30  1  0
 13 31  1  0
 14 32  1  0
 15 33  1  0
 17 34  1  0
M  END
> <Uni-Dock RESULT> 
ENERGY=   -3.811  LOWER_BOUND=    3.028  UPPER_BOUND=    4.726
INTER + INTRA:          -3.811
INTER:                  -3.811
INTRA:                   0.000
UNBOUND:                 0.000

$$$$

     RDKit          3D

 34 33  0  0  0  0  0  0  0  0999 V2000
   47.6412    5.6061   19.3847 C   0  0  0  0  0  0  0  0  0  0  0  0
   48.1701    5.0227   18.0833 C   0  0  0  0  0  0  0  0  0  0  0  0
   49.0157    3.8648   18.3673 N   0  0  0  0  0  0  0  0  0  0  0  0
   49.5322    3.2736   17.1345 C   0  0  0  0  0  0  0  0  0  0  0  0
   50.3973    2.0669   17.4648 C   0  0  0  0  0  0  0  0  0  0  0  0
   47.7507    5.6634   19.0450 S   0  0  0  0  0  0  0  0  0  0  0  0
   48.6605    4.3829   18.2486 C   0  0  0  0  0  0  0  0  0  0  0  0
   48.0370    3.4201   17.4531 C   0  0  0  0  0  0  0  0  0  0  0  0
   50.0486    4.3615   18.4286 C   0  0  0  0  0  0  0  0  0  0  0  0
   48.8084    2.4325   16.8381 C   0  0  0  0  0  0  0  0  0  0  0  0
   48.3884    6.9278   18.7542 O   0  0  0  0  0  0  0  0  0  0  0  0
   46.3455    5.4394   18.7689 O   0  0  0  0  0  0  0  0  0  0  0  0
   47.9774    5.4070   20.6203 O   0  0  0  0  0  0  0  0  0  0  0  0
   50.1935    2.4036   17.0156 C   0  0  0  0  0  0  0  0  0  0  0  0
   46.6944    3.3461   17.2116 O   0  0  0  0  0  0  0  0  0  0  0  0
   50.8003    3.3702   17.8107 C   0  0  0  0  0  0  0  0  0  0  0  0
   52.1476    3.3820   18.0122 O   0  0  0  0  0  0  0  0  0  0  0  0
   47.0149    6.4800   19.1788 H   0  0  0  0  0  0  0  0  0  0  0  0
   48.4607    5.9251   20.0378 H   0  0  0  0  0  0  0  0  0  0  0  0
   47.0324    4.8761   19.9290 H   0  0  0  0  0  0  0  0  0  0  0  0
   47.3236    4.7354   17.4492 H   0  0  0  0  0  0  0  0  0  0  0  0
   48.7456    5.7925   17.5568 H   0  0  0  0  0  0  0  0  0  0  0  0
   48.4807    3.1676   18.8846 H   0  0  0  0  0  0  0  0  0  0  0  0
   48.7085    2.9569   16.4845 H   0  0  0  0  0  0  0  0  0  0  0  0
   50.1373    4.0055   16.5874 H   0  0  0  0  0  0  0  0  0  0  0  0
   51.2455    2.3490   18.0978 H   0  0  0  0  0  0  0  0  0  0  0  0
   50.7952    1.6256   16.5454 H   0  0  0  0  0  0  0  0  0  0  0  0
   49.8209    1.2955   17.9866 H   0  0  0  0  0  0  0  0  0  0  0  0
   50.5473    5.1105   19.0384 H   0  0  0  0  0  0  0  0  0  0  0  0
   48.3254    1.6807   16.2177 H   0  0  0  0  0  0  0  0  0  0  0  0
   48.2764    6.2507   21.0209 H   0  0  0  0  0  0  0  0  0  0  0  0
   50.7735    1.6257   16.5286 H   0  0  0  0  0  0  0  0  0  0  0  0
   46.2108    4.0458   17.7029 H   0  0  0  0  0  0  0  0  0  0  0  0
   52.5467    2.6494   17.5131 H   0  0  0  0  0  0  0  0  0  0  0  0
  1  2  1  0
  2  3  1  0
  3  4  1  0
  4  5  1  0
  7  6  1  0
  8  7  2  0
  9  7  1  0
 10  8  1  0
 11  6  2  0
 12  6  2  0
 13  6  1  0
 14 16  1  0
 15  8  1  0
 16  9  2  0
 10 14  2  0
 16 17  1  0
  1 18  1  0
  1 19  1  0
  1 20  1  0
  2 21  1  0
  2 22  1  0
  3 23  1  0
  4 24  1  0
  4 25  1  0
  5 26  1  0
  5 27  1  0
  5 28  1  0
  9 29  1  0
 10 30  1  0
 13 31  1  0
 14 32  1  0
 15 33  1  0
 17 34  1  0
M  END
> <Uni-Dock RESULT> 
ENERGY=   -3.692  LOWER_BOUND=    8.127  UPPER_BOUND=    9.051
INTER + INTRA:          -3.692
INTER:                  -3.692
INTRA:                   0.000
UNBOUND:                 0.000

$$$$
