
     RDKit          3D

 34 33  0  0  0  0  0  0  0  0999 V2000
   44.9169    3.1558    9.5756 C   0  0  0  0  0  0  0  0  0  0  0  0
   44.7795    2.6910    8.1329 C   0  0  0  0  0  0  0  0  0  0  0  0
   45.7596    3.2896    7.2274 N   0  0  0  0  0  0  0  0  0  0  0  0
   47.1526    2.9327    7.4948 C   0  0  0  0  0  0  0  0  0  0  0  0
   47.4694    1.4643    7.2482 C   0  0  0  0  0  0  0  0  0  0  0  0
   44.7576    3.4884    9.7181 S   0  0  0  0  0  0  0  0  0  0  0  0
   45.7072    2.7935    8.4004 C   0  0  0  0  0  0  0  0  0  0  0  0
   46.2684    3.6032    7.4130 C   0  0  0  0  0  0  0  0  0  0  0  0
   45.8866    1.4063    8.3587 C   0  0  0  0  0  0  0  0  0  0  0  0
   47.0122    3.0277    6.3798 C   0  0  0  0  0  0  0  0  0  0  0  0
   45.6285    4.3084   10.5306 O   0  0  0  0  0  0  0  0  0  0  0  0
   43.9700    2.4258   10.3128 O   0  0  0  0  0  0  0  0  0  0  0  0
   43.6576    4.4396    9.0192 O   0  0  0  0  0  0  0  0  0  0  0  0
   47.1929    1.6428    6.3356 C   0  0  0  0  0  0  0  0  0  0  0  0
   46.1047    4.9552    7.4443 O   0  0  0  0  0  0  0  0  0  0  0  0
   46.6283    0.8455    7.3263 C   0  0  0  0  0  0  0  0  0  0  0  0
   46.7807   -0.5083    7.3205 O   0  0  0  0  0  0  0  0  0  0  0  0
   45.8335    2.7785   10.0390 H   0  0  0  0  0  0  0  0  0  0  0  0
   44.9181    4.2489    9.6411 H   0  0  0  0  0  0  0  0  0  0  0  0
   44.0732    2.7865   10.1682 H   0  0  0  0  0  0  0  0  0  0  0  0
   44.8065    1.5973    8.0824 H   0  0  0  0  0  0  0  0  0  0  0  0
   43.7847    2.9871    7.7795 H   0  0  0  0  0  0  0  0  0  0  0  0
   45.5274    3.0240    6.2702 H   0  0  0  0  0  0  0  0  0  0  0  0
   47.4498    3.2211    8.5084 H   0  0  0  0  0  0  0  0  0  0  0  0
   47.7767    3.5329    6.8222 H   0  0  0  0  0  0  0  0  0  0  0  0
   46.9640    0.8142    7.9687 H   0  0  0  0  0  0  0  0  0  0  0  0
   47.1745    1.1592    6.2388 H   0  0  0  0  0  0  0  0  0  0  0  0
   48.5463    1.2932    7.3480 H   0  0  0  0  0  0  0  0  0  0  0  0
   45.4590    0.7602    9.1221 H   0  0  0  0  0  0  0  0  0  0  0  0
   47.4572    3.6410    5.6010 H   0  0  0  0  0  0  0  0  0  0  0  0
   42.7788    4.1471    9.3368 H   0  0  0  0  0  0  0  0  0  0  0  0
   47.7731    1.2078    5.5272 H   0  0  0  0  0  0  0  0  0  0  0  0
   46.6219    5.3724    6.7355 H   0  0  0  0  0  0  0  0  0  0  0  0
   47.3317   -0.7642    6.5625 H   0  0  0  0  0  0  0  0  0  0  0  0
  1  2  1  0
  2  3  1  0
  3  4  1  0
  4  5  1  0
  7  6  1  0
  8  7  2  0
  9  7  1  0
 10  8  1  0
 11  6  2  0
 12  6  2  0
 13  6  1  0
 14 16  1  0
 15  8  1  0
 16  9  2  0
 10 14  2  0
 16 17  1  0
  1 18  1  0
  1 19  1  0
  1 20  1  0
  2 21  1  0
  2 22  1  0
  3 23  1  0
  4 24  1  0
  4 25  1  0
  5 26  1  0
  5 27  1  0
  5 28  1  0
  9 29  1  0
 10 30  1  0
 13 31  1  0
 14 32  1  0
 15 33  1  0
 17 34  1  0
M  END
> <Uni-Dock RESULT> 
ENERGY=   -5.791  LOWER_BOUND=    0.000  UPPER_BOUND=    0.000
INTER + INTRA:          -5.791
INTER:                  -5.791
INTRA:                   0.000
UNBOUND:                 0.000

$$$$

     RDKit          3D

 34 33  0  0  0  0  0  0  0  0999 V2000
   43.9461    5.4490   11.1154 C   0  0  0  0  0  0  0  0  0  0  0  0
   45.1590    4.5496   10.9250 C   0  0  0  0  0  0  0  0  0  0  0  0
   44.8199    3.1812   10.5360 N   0  0  0  0  0  0  0  0  0  0  0  0
   44.1766    3.0476    9.2292 C   0  0  0  0  0  0  0  0  0  0  0  0
   45.0808    3.4086    8.0589 C   0  0  0  0  0  0  0  0  0  0  0  0
   43.7346    5.4694   11.4489 S   0  0  0  0  0  0  0  0  0  0  0  0
   44.4647    4.3759   10.2689 C   0  0  0  0  0  0  0  0  0  0  0  0
   44.2550    2.9987   10.3380 C   0  0  0  0  0  0  0  0  0  0  0  0
   45.2670    4.9156    9.2572 C   0  0  0  0  0  0  0  0  0  0  0  0
   44.8470    2.1557    9.3941 C   0  0  0  0  0  0  0  0  0  0  0  0
   42.2980    5.4258   11.2898 O   0  0  0  0  0  0  0  0  0  0  0  0
   44.4499    6.7298   11.3956 O   0  0  0  0  0  0  0  0  0  0  0  0
   44.1113    4.8727   12.8999 O   0  0  0  0  0  0  0  0  0  0  0  0
   45.6485    2.6918    8.3829 C   0  0  0  0  0  0  0  0  0  0  0  0
   43.4729    2.4611   11.3153 O   0  0  0  0  0  0  0  0  0  0  0  0
   45.8504    4.0672    8.3244 C   0  0  0  0  0  0  0  0  0  0  0  0
   46.6243    4.6304    7.3548 O   0  0  0  0  0  0  0  0  0  0  0  0
   43.4423    5.6587   10.1670 H   0  0  0  0  0  0  0  0  0  0  0  0
   43.2220    4.9975   11.8018 H   0  0  0  0  0  0  0  0  0  0  0  0
   44.2568    6.4088   11.5415 H   0  0  0  0  0  0  0  0  0  0  0  0
   45.8602    5.0031   10.2164 H   0  0  0  0  0  0  0  0  0  0  0  0
   45.6884    4.4949   11.8837 H   0  0  0  0  0  0  0  0  0  0  0  0
   45.6696    2.6167   10.5462 H   0  0  0  0  0  0  0  0  0  0  0  0
   43.2462    3.6230    9.1828 H   0  0  0  0  0  0  0  0  0  0  0  0
   43.8802    1.9978    9.1187 H   0  0  0  0  0  0  0  0  0  0  0  0
   45.3199    4.4763    8.0458 H   0  0  0  0  0  0  0  0  0  0  0  0
   46.0180    2.8433    8.0929 H   0  0  0  0  0  0  0  0  0  0  0  0
   44.5810    3.1706    7.1141 H   0  0  0  0  0  0  0  0  0  0  0  0
   45.4385    5.9872    9.1864 H   0  0  0  0  0  0  0  0  0  0  0  0
   44.6961    1.0803    9.4309 H   0  0  0  0  0  0  0  0  0  0  0  0
   44.5542    5.5881   13.4005 H   0  0  0  0  0  0  0  0  0  0  0  0
   46.1031    2.0258    7.6555 H   0  0  0  0  0  0  0  0  0  0  0  0
   43.3668    1.5059   11.1728 H   0  0  0  0  0  0  0  0  0  0  0  0
   46.9517    3.9333    6.7628 H   0  0  0  0  0  0  0  0  0  0  0  0
  1  2  1  0
  2  3  1  0
  3  4  1  0
  4  5  1  0
  7  6  1  0
  8  7  2  0
  9  7  1  0
 10  8  1  0
 11  6  2  0
 12  6  2  0
 13  6  1  0
 14 16  1  0
 15  8  1  0
 16  9  2  0
 10 14  2  0
 16 17  1  0
  1 18  1  0
  1 19  1  0
  1 20  1  0
  2 21  1  0
  2 22  1  0
  3 23  1  0
  4 24  1  0
  4 25  1  0
  5 26  1  0
  5 27  1  0
  5 28  1  0
  9 29  1  0
 10 30  1  0
 13 31  1  0
 14 32  1  0
 15 33  1  0
 17 34  1  0
M  END
> <Uni-Dock RESULT> 
ENERGY=   -5.561  LOWER_BOUND=    2.382  UPPER_BOUND=    3.701
INTER + INTRA:          -5.561
INTER:                  -5.561
INTRA:                   0.000
UNBOUND:                 0.000

$$$$

     RDKit          3D

 34 33  0  0  0  0  0  0  0  0999 V2000
   43.9989    3.9772   12.6070 C   0  0  0  0  0  0  0  0  0  0  0  0
   43.2847    3.9089   11.2647 C   0  0  0  0  0  0  0  0  0  0  0  0
   43.8872    4.7552   10.2353 N   0  0  0  0  0  0  0  0  0  0  0  0
   45.2444    4.3810    9.8386 C   0  0  0  0  0  0  0  0  0  0  0  0
   45.3279    3.0409    9.1212 C   0  0  0  0  0  0  0  0  0  0  0  0
   43.9326    4.2551   12.8801 S   0  0  0  0  0  0  0  0  0  0  0  0
   44.2491    3.9637   11.1667 C   0  0  0  0  0  0  0  0  0  0  0  0
   44.4510    5.0229   10.2819 C   0  0  0  0  0  0  0  0  0  0  0  0
   44.2907    2.6434   10.7049 C   0  0  0  0  0  0  0  0  0  0  0  0
   44.6961    4.7648    8.9308 C   0  0  0  0  0  0  0  0  0  0  0  0
   45.1088    4.8547   13.4702 O   0  0  0  0  0  0  0  0  0  0  0  0
   43.3524    3.0501   13.4408 O   0  0  0  0  0  0  0  0  0  0  0  0
   42.7262    5.3253   12.9332 O   0  0  0  0  0  0  0  0  0  0  0  0
   44.7382    3.4475    8.4669 C   0  0  0  0  0  0  0  0  0  0  0  0
   44.4171    6.3125   10.7194 O   0  0  0  0  0  0  0  0  0  0  0  0
   44.5353    2.3993    9.3591 C   0  0  0  0  0  0  0  0  0  0  0  0
   44.5684    1.1008    8.9481 O   0  0  0  0  0  0  0  0  0  0  0  0
   44.9908    3.5173   12.5637 H   0  0  0  0  0  0  0  0  0  0  0  0
   44.1099    5.0131   12.9443 H   0  0  0  0  0  0  0  0  0  0  0  0
   43.4201    3.4391   13.3651 H   0  0  0  0  0  0  0  0  0  0  0  0
   43.2053    2.8693   10.9295 H   0  0  0  0  0  0  0  0  0  0  0  0
   42.2566    4.2592   11.4149 H   0  0  0  0  0  0  0  0  0  0  0  0
   43.2868    4.7471    9.4106 H   0  0  0  0  0  0  0  0  0  0  0  0
   45.9280    4.3981   10.6937 H   0  0  0  0  0  0  0  0  0  0  0  0
   45.6084    5.1564    9.1543 H   0  0  0  0  0  0  0  0  0  0  0  0
   45.0876    2.2081    9.7890 H   0  0  0  0  0  0  0  0  0  0  0  0
   44.6467    3.0067    8.2645 H   0  0  0  0  0  0  0  0  0  0  0  0
   46.3443    2.8810    8.7466 H   0  0  0  0  0  0  0  0  0  0  0  0
   44.1388    1.8054   11.3813 H   0  0  0  0  0  0  0  0  0  0  0  0
   44.8556    5.5759    8.2256 H   0  0  0  0  0  0  0  0  0  0  0  0
   42.0159    4.9333   13.4813 H   0  0  0  0  0  0  0  0  0  0  0  0
   44.9295    3.2603    7.4144 H   0  0  0  0  0  0  0  0  0  0  0  0
   44.6547    6.9181    9.9978 H   0  0  0  0  0  0  0  0  0  0  0  0
   44.7660    1.0719    7.9974 H   0  0  0  0  0  0  0  0  0  0  0  0
  1  2  1  0
  2  3  1  0
  3  4  1  0
  4  5  1  0
  7  6  1  0
  8  7  2  0
  9  7  1  0
 10  8  1  0
 11  6  2  0
 12  6  2  0
 13  6  1  0
 14 16  1  0
 15  8  1  0
 16  9  2  0
 10 14  2  0
 16 17  1  0
  1 18  1  0
  1 19  1  0
  1 20  1  0
  2 21  1  0
  2 22  1  0
  3 23  1  0
  4 24  1  0
  4 25  1  0
  5 26  1  0
  5 27  1  0
  5 28  1  0
  9 29  1  0
 10 30  1  0
 13 31  1  0
 14 32  1  0
 15 33  1  0
 17 34  1  0
M  END
> <Uni-Dock RESULT> 
ENERGY=   -4.980  LOWER_BOUND=    2.723  UPPER_BOUND=    3.500
INTER + INTRA:          -4.980
INTER:                  -4.980
INTRA:                   0.000
UNBOUND:                 0.000

$$$$

     RDKit          3D

 34 33  0  0  0  0  0  0  0  0999 V2000
   43.3846    5.4645   11.5897 C   0  0  0  0  0  0  0  0  0  0  0  0
   44.0317    5.8796   12.9033 C   0  0  0  0  0  0  0  0  0  0  0  0
   45.4313    5.4724   13.0227 N   0  0  0  0  0  0  0  0  0  0  0  0
   46.3438    6.0943   12.0636 C   0  0  0  0  0  0  0  0  0  0  0  0
   46.5163    7.5937   12.2621 C   0  0  0  0  0  0  0  0  0  0  0  0
   43.2255    5.1088   11.5230 S   0  0  0  0  0  0  0  0  0  0  0  0
   44.6399    5.9608   12.1508 C   0  0  0  0  0  0  0  0  0  0  0  0
   45.7818    5.2649   12.5476 C   0  0  0  0  0  0  0  0  0  0  0  0
   44.5967    7.3561   12.2492 C   0  0  0  0  0  0  0  0  0  0  0  0
   46.8857    5.9629   13.0439 C   0  0  0  0  0  0  0  0  0  0  0  0
   43.5844    4.4806   10.2710 O   0  0  0  0  0  0  0  0  0  0  0  0
   42.0884    6.0052   11.6051 O   0  0  0  0  0  0  0  0  0  0  0  0
   42.8869    3.9561   12.6001 O   0  0  0  0  0  0  0  0  0  0  0  0
   46.8452    7.3560   13.1433 C   0  0  0  0  0  0  0  0  0  0  0  0
   45.8383    3.9071   12.4531 O   0  0  0  0  0  0  0  0  0  0  0  0
   45.7006    8.0391   12.7444 C   0  0  0  0  0  0  0  0  0  0  0  0
   45.6201    9.3968   12.8246 O   0  0  0  0  0  0  0  0  0  0  0  0
   43.7983    6.0163   10.7403 H   0  0  0  0  0  0  0  0  0  0  0  0
   43.5147    4.3929   11.4054 H   0  0  0  0  0  0  0  0  0  0  0  0
   42.3094    5.6698   11.6225 H   0  0  0  0  0  0  0  0  0  0  0  0
   43.9156    6.9573   13.0596 H   0  0  0  0  0  0  0  0  0  0  0  0
   43.4796    5.3933   13.7163 H   0  0  0  0  0  0  0  0  0  0  0  0
   45.7537    5.6786   13.9683 H   0  0  0  0  0  0  0  0  0  0  0  0
   46.0449    5.8789   11.0325 H   0  0  0  0  0  0  0  0  0  0  0  0
   47.3235    5.6193   12.1921 H   0  0  0  0  0  0  0  0  0  0  0  0
   45.5969    8.1412   12.0336 H   0  0  0  0  0  0  0  0  0  0  0  0
   46.8123    7.8260   13.2904 H   0  0  0  0  0  0  0  0  0  0  0  0
   47.2992    7.9706   11.5957 H   0  0  0  0  0  0  0  0  0  0  0  0
   43.7159    7.9150   11.9414 H   0  0  0  0  0  0  0  0  0  0  0  0
   47.7843    5.4393   13.3585 H   0  0  0  0  0  0  0  0  0  0  0  0
   41.9532    4.0766   12.8686 H   0  0  0  0  0  0  0  0  0  0  0  0
   47.7097    7.8868   13.5308 H   0  0  0  0  0  0  0  0  0  0  0  0
   46.7249    3.5906   12.6931 H   0  0  0  0  0  0  0  0  0  0  0  0
   46.4596    9.7467   13.1659 H   0  0  0  0  0  0  0  0  0  0  0  0
  1  2  1  0
  2  3  1  0
  3  4  1  0
  4  5  1  0
  7  6  1  0
  8  7  2  0
  9  7  1  0
 10  8  1  0
 11  6  2  0
 12  6  2  0
 13  6  1  0
 14 16  1  0
 15  8  1  0
 16  9  2  0
 10 14  2  0
 16 17  1  0
  1 18  1  0
  1 19  1  0
  1 20  1  0
  2 21  1  0
  2 22  1  0
  3 23  1  0
  4 24  1  0
  4 25  1  0
  5 26  1  0
  5 27  1  0
  5 28  1  0
  9 29  1  0
 10 30  1  0
 13 31  1  0
 14 32  1  0
 15 33  1  0
 17 34  1  0
M  END
> <Uni-Dock RESULT> 
ENERGY=   -4.386  LOWER_BOUND=    5.151  UPPER_BOUND=    6.417
INTER + INTRA:          -4.386
INTER:                  -4.386
INTRA:                   0.000
UNBOUND:                 0.000

$$$$

     RDKit          3D

 34 33  0  0  0  0  0  0  0  0999 V2000
   44.4406    2.9367    9.3518 C   0  0  0  0  0  0  0  0  0  0  0  0
   45.1129    3.4248   10.6270 C   0  0  0  0  0  0  0  0  0  0  0  0
   45.4220    4.8543   10.6176 N   0  0  0  0  0  0  0  0  0  0  0  0
   44.2602    5.7414   10.5681 C   0  0  0  0  0  0  0  0  0  0  0  0
   43.3969    5.6948   11.8211 C   0  0  0  0  0  0  0  0  0  0  0  0
   44.6352    2.8324    9.0239 S   0  0  0  0  0  0  0  0  0  0  0  0
   44.4777    4.0694   10.2752 C   0  0  0  0  0  0  0  0  0  0  0  0
   45.1955    5.2631   10.2015 C   0  0  0  0  0  0  0  0  0  0  0  0
   43.6179    3.8309   11.3533 C   0  0  0  0  0  0  0  0  0  0  0  0
   45.0552    6.2235   11.2064 C   0  0  0  0  0  0  0  0  0  0  0  0
   44.1138    3.3628    7.7838 O   0  0  0  0  0  0  0  0  0  0  0  0
   44.1381    1.5816    9.5639 O   0  0  0  0  0  0  0  0  0  0  0  0
   46.2186    2.5757    8.8499 O   0  0  0  0  0  0  0  0  0  0  0  0
   44.1974    5.9880   12.2840 C   0  0  0  0  0  0  0  0  0  0  0  0
   46.0326    5.5094    9.1554 O   0  0  0  0  0  0  0  0  0  0  0  0
   43.4867    4.7935   12.3465 C   0  0  0  0  0  0  0  0  0  0  0  0
   42.6400    4.5245   13.3795 O   0  0  0  0  0  0  0  0  0  0  0  0
   43.4256    3.3325    9.2500 H   0  0  0  0  0  0  0  0  0  0  0  0
   45.0166    3.2235    8.4657 H   0  0  0  0  0  0  0  0  0  0  0  0
   44.3674    1.8442    9.3636 H   0  0  0  0  0  0  0  0  0  0  0  0
   44.5114    3.1530   11.5010 H   0  0  0  0  0  0  0  0  0  0  0  0
   46.0621    2.8861   10.7319 H   0  0  0  0  0  0  0  0  0  0  0  0
   45.9734    5.0764   11.4467 H   0  0  0  0  0  0  0  0  0  0  0  0
   43.6508    5.5499    9.6788 H   0  0  0  0  0  0  0  0  0  0  0  0
   44.6372    6.7644   10.4527 H   0  0  0  0  0  0  0  0  0  0  0  0
   42.8950    4.7288   11.9317 H   0  0  0  0  0  0  0  0  0  0  0  0
   43.9931    5.8813   12.7204 H   0  0  0  0  0  0  0  0  0  0  0  0
   42.6211    6.4657   11.7685 H   0  0  0  0  0  0  0  0  0  0  0  0
   43.0481    2.9073   11.4250 H   0  0  0  0  0  0  0  0  0  0  0  0
   45.6057    7.1595   11.1675 H   0  0  0  0  0  0  0  0  0  0  0  0
   46.3719    1.6172    8.9779 H   0  0  0  0  0  0  0  0  0  0  0  0
   44.0973    6.7424   13.0587 H   0  0  0  0  0  0  0  0  0  0  0  0
   46.3895    6.4109    9.2162 H   0  0  0  0  0  0  0  0  0  0  0  0
   42.6277    5.2820   13.9875 H   0  0  0  0  0  0  0  0  0  0  0  0
  1  2  1  0
  2  3  1  0
  3  4  1  0
  4  5  1  0
  7  6  1  0
  8  7  2  0
  9  7  1  0
 10  8  1  0
 11  6  2  0
 12  6  2  0
 13  6  1  0
 14 16  1  0
 15  8  1  0
 16  9  2  0
 10 14  2  0
 16 17  1  0
  1 18  1  0
  1 19  1  0
  1 20  1  0
  2 21  1  0
  2 22  1  0
  3 23  1  0
  4 24  1  0
  4 25  1  0
  5 26  1  0
  5 27  1  0
  5 28  1  0
  9 29  1  0
 10 30  1  0
 13 31  1  0
 14 32  1  0
 15 33  1  0
 17 34  1  0
M  END
> <Uni-Dock RESULT> 
ENERGY=   -4.324  LOWER_BOUND=    2.757  UPPER_BOUND=    4.835
INTER + INTRA:          -4.324
INTER:                  -4.324
INTRA:                   0.000
UNBOUND:                 0.000

$$$$

     RDKit          3D

 34 33  0  0  0  0  0  0  0  0999 V2000
   46.6657    6.0692   12.5575 C   0  0  0  0  0  0  0  0  0  0  0  0
   45.3003    5.8638   13.1978 C   0  0  0  0  0  0  0  0  0  0  0  0
   44.1887    6.3413   12.3760 N   0  0  0  0  0  0  0  0  0  0  0  0
   44.0025    5.6332   11.1098 C   0  0  0  0  0  0  0  0  0  0  0  0
   43.5691    4.1832   11.2739 C   0  0  0  0  0  0  0  0  0  0  0  0
   46.8724    6.4055   12.5779 S   0  0  0  0  0  0  0  0  0  0  0  0
   45.2856    5.7064   12.2398 C   0  0  0  0  0  0  0  0  0  0  0  0
   44.2359    6.4966   11.7717 C   0  0  0  0  0  0  0  0  0  0  0  0
   45.0939    4.3368   12.4542 C   0  0  0  0  0  0  0  0  0  0  0  0
   42.9898    5.9191   11.5154 C   0  0  0  0  0  0  0  0  0  0  0  0
   47.4444    6.8720   11.3344 O   0  0  0  0  0  0  0  0  0  0  0  0
   47.5978    5.4822   13.4289 O   0  0  0  0  0  0  0  0  0  0  0  0
   46.6027    7.6789   13.5314 O   0  0  0  0  0  0  0  0  0  0  0  0
   42.7955    4.5520   11.7287 C   0  0  0  0  0  0  0  0  0  0  0  0
   44.4106    7.8302   11.5549 O   0  0  0  0  0  0  0  0  0  0  0  0
   43.8502    3.7740   12.1959 C   0  0  0  0  0  0  0  0  0  0  0  0
   43.7030    2.4376   12.4167 O   0  0  0  0  0  0  0  0  0  0  0  0
   46.8066    5.4247   11.6846 H   0  0  0  0  0  0  0  0  0  0  0  0
   46.8053    7.1103   12.2478 H   0  0  0  0  0  0  0  0  0  0  0  0
   47.4550    5.8257   13.2764 H   0  0  0  0  0  0  0  0  0  0  0  0
   45.1665    4.8134   13.4775 H   0  0  0  0  0  0  0  0  0  0  0  0
   45.2815    6.4327   14.1349 H   0  0  0  0  0  0  0  0  0  0  0  0
   43.3279    6.2792   12.9200 H   0  0  0  0  0  0  0  0  0  0  0  0
   44.8992    5.6938   10.4843 H   0  0  0  0  0  0  0  0  0  0  0  0
   43.2189    6.1617   10.5541 H   0  0  0  0  0  0  0  0  0  0  0  0
   44.3594    3.5720   11.7202 H   0  0  0  0  0  0  0  0  0  0  0  0
   42.6744    4.1054   11.9005 H   0  0  0  0  0  0  0  0  0  0  0  0
   43.3308    3.7521   10.2960 H   0  0  0  0  0  0  0  0  0  0  0  0
   45.9021    3.7052   12.8157 H   0  0  0  0  0  0  0  0  0  0  0  0
   42.1594    6.5176   11.1507 H   0  0  0  0  0  0  0  0  0  0  0  0
   47.1462    7.5574   14.3366 H   0  0  0  0  0  0  0  0  0  0  0  0
   41.8221    4.1153   11.5258 H   0  0  0  0  0  0  0  0  0  0  0  0
   43.6114    8.2130   11.1566 H   0  0  0  0  0  0  0  0  0  0  0  0
   42.7990    2.1726   12.1795 H   0  0  0  0  0  0  0  0  0  0  0  0
  1  2  1  0
  2  3  1  0
  3  4  1  0
  4  5  1  0
  7  6  1  0
  8  7  2  0
  9  7  1  0
 10  8  1  0
 11  6  2  0
 12  6  2  0
 13  6  1  0
 14 16  1  0
 15  8  1  0
 16  9  2  0
 10 14  2  0
 16 17  1  0
  1 18  1  0
  1 19  1  0
  1 20  1  0
  2 21  1  0
  2 22  1  0
  3 23  1  0
  4 24  1  0
  4 25  1  0
  5 26  1  0
  5 27  1  0
  5 28  1  0
  9 29  1  0
 10 30  1  0
 13 31  1  0
 14 32  1  0
 15 33  1  0
 17 34  1  0
M  END
> <Uni-Dock RESULT> 
ENERGY=   -4.184  LOWER_BOUND=    4.956  UPPER_BOUND=    5.781
INTER + INTRA:          -4.184
INTER:                  -4.184
INTRA:                   0.000
UNBOUND:                 0.000

$$$$

     RDKit          3D

 34 33  0  0  0  0  0  0  0  0999 V2000
   45.9851    7.6562   12.4968 C   0  0  0  0  0  0  0  0  0  0  0  0
   45.6083    6.5118   11.5668 C   0  0  0  0  0  0  0  0  0  0  0  0
   45.7458    5.1898   12.1771 N   0  0  0  0  0  0  0  0  0  0  0  0
   44.8500    4.9287   13.3034 C   0  0  0  0  0  0  0  0  0  0  0  0
   43.3795    4.8583   12.9162 C   0  0  0  0  0  0  0  0  0  0  0  0
   46.3547    7.7851   12.5521 S   0  0  0  0  0  0  0  0  0  0  0  0
   45.3226    6.3532   12.4811 C   0  0  0  0  0  0  0  0  0  0  0  0
   45.8239    5.0887   12.7897 C   0  0  0  0  0  0  0  0  0  0  0  0
   43.9838    6.5063   12.1034 C   0  0  0  0  0  0  0  0  0  0  0  0
   44.9870    3.9720   12.7222 C   0  0  0  0  0  0  0  0  0  0  0  0
   46.7499    8.0002   13.9264 O   0  0  0  0  0  0  0  0  0  0  0  0
   45.7132    8.8392   11.7902 O   0  0  0  0  0  0  0  0  0  0  0  0
   47.6692    7.4286   11.6871 O   0  0  0  0  0  0  0  0  0  0  0  0
   43.6499    4.1219   12.3454 C   0  0  0  0  0  0  0  0  0  0  0  0
   47.1241    4.9265   13.1626 O   0  0  0  0  0  0  0  0  0  0  0  0
   43.1613    5.3883   12.0399 C   0  0  0  0  0  0  0  0  0  0  0  0
   41.8643    5.5782   11.6685 O   0  0  0  0  0  0  0  0  0  0  0  0
   45.2677    7.7681   13.3153 H   0  0  0  0  0  0  0  0  0  0  0  0
   46.9817    7.5065   12.9254 H   0  0  0  0  0  0  0  0  0  0  0  0
   45.9987    8.5995   11.9407 H   0  0  0  0  0  0  0  0  0  0  0  0
   44.5998    6.6634   11.1678 H   0  0  0  0  0  0  0  0  0  0  0  0
   46.2846    6.5453   10.7044 H   0  0  0  0  0  0  0  0  0  0  0  0
   45.5928    4.4799   11.4606 H   0  0  0  0  0  0  0  0  0  0  0  0
   44.9975    5.6581   14.1066 H   0  0  0  0  0  0  0  0  0  0  0  0
   45.1366    3.9596   13.7286 H   0  0  0  0  0  0  0  0  0  0  0  0
   42.9990    5.8313   12.5911 H   0  0  0  0  0  0  0  0  0  0  0  0
   43.2158    4.1347   12.1107 H   0  0  0  0  0  0  0  0  0  0  0  0
   42.7818    4.5409   13.7771 H   0  0  0  0  0  0  0  0  0  0  0  0
   43.5753    7.4851   11.8626 H   0  0  0  0  0  0  0  0  0  0  0  0
   45.3584    2.9785   12.9584 H   0  0  0  0  0  0  0  0  0  0  0  0
   47.7654    8.1260   11.0067 H   0  0  0  0  0  0  0  0  0  0  0  0
   43.0098    3.2460   12.2967 H   0  0  0  0  0  0  0  0  0  0  0  0
   47.2874    4.0035   13.4178 H   0  0  0  0  0  0  0  0  0  0  0  0
   41.3997    4.7251   11.6840 H   0  0  0  0  0  0  0  0  0  0  0  0
  1  2  1  0
  2  3  1  0
  3  4  1  0
  4  5  1  0
  7  6  1  0
  8  7  2  0
  9  7  1  0
 10  8  1  0
 11  6  2  0
 12  6  2  0
 13  6  1  0
 14 16  1  0
 15  8  1  0
 16  9  2  0
 10 14  2  0
 16 17  1  0
  1 18  1  0
  1 19  1  0
  1 20  1  0
  2 21  1  0
  2 22  1  0
  3 23  1  0
  4 24  1  0
  4 25  1  0
  5 26  1  0
  5 27  1  0
  5 28  1  0
  9 29  1  0
 10 30  1  0
 13 31  1  0
 14 32  1  0
 15 33  1  0
 17 34  1  0
M  END
> <Uni-Dock RESULT> 
ENERGY=   -4.115  LOWER_BOUND=    5.408  UPPER_BOUND=    6.397
INTER + INTRA:          -4.115
INTER:                  -4.115
INTRA:                   0.000
UNBOUND:                 0.000

$$$$

     RDKit          3D

 34 33  0  0  0  0  0  0  0  0999 V2000
   43.7561    4.5570   12.6068 C   0  0  0  0  0  0  0  0  0  0  0  0
   45.1897    4.3753   12.1292 C   0  0  0  0  0  0  0  0  0  0  0  0
   45.8092    5.6096   11.6481 N   0  0  0  0  0  0  0  0  0  0  0  0
   45.9915    6.6495   12.6605 C   0  0  0  0  0  0  0  0  0  0  0  0
   46.9993    6.2853   13.7417 C   0  0  0  0  0  0  0  0  0  0  0  0
   43.4404    4.5532   12.3689 S   0  0  0  0  0  0  0  0  0  0  0  0
   45.0622    5.2136   12.6021 C   0  0  0  0  0  0  0  0  0  0  0  0
   45.5754    6.1827   11.7401 C   0  0  0  0  0  0  0  0  0  0  0  0
   45.8333    4.7435   13.6711 C   0  0  0  0  0  0  0  0  0  0  0  0
   46.8625    6.6860   11.9450 C   0  0  0  0  0  0  0  0  0  0  0  0
   42.4776    5.6114   12.5791 O   0  0  0  0  0  0  0  0  0  0  0  0
   43.3511    3.3098   13.1101 O   0  0  0  0  0  0  0  0  0  0  0  0
   43.3676    4.0887   10.8254 O   0  0  0  0  0  0  0  0  0  0  0  0
   47.6347    6.2184   13.0116 C   0  0  0  0  0  0  0  0  0  0  0  0
   44.8336    6.6517   10.6982 O   0  0  0  0  0  0  0  0  0  0  0  0
   47.1119    5.2515   13.8647 C   0  0  0  0  0  0  0  0  0  0  0  0
   47.8312    4.7690   14.9163 O   0  0  0  0  0  0  0  0  0  0  0  0
   43.7057    5.1461   13.5275 H   0  0  0  0  0  0  0  0  0  0  0  0
   43.1441    5.0501   11.8441 H   0  0  0  0  0  0  0  0  0  0  0  0
   43.3063    3.5808   12.8165 H   0  0  0  0  0  0  0  0  0  0  0  0
   45.7939    3.9053   12.9126 H   0  0  0  0  0  0  0  0  0  0  0  0
   45.1758    3.6686   11.2910 H   0  0  0  0  0  0  0  0  0  0  0  0
   46.7157    5.3839   11.2381 H   0  0  0  0  0  0  0  0  0  0  0  0
   45.0363    6.9372   13.1120 H   0  0  0  0  0  0  0  0  0  0  0  0
   46.3555    7.5455   12.1440 H   0  0  0  0  0  0  0  0  0  0  0  0
   46.6395    5.4663   14.3718 H   0  0  0  0  0  0  0  0  0  0  0  0
   47.9599    5.9917   13.3056 H   0  0  0  0  0  0  0  0  0  0  0  0
   47.1772    7.1483   14.3917 H   0  0  0  0  0  0  0  0  0  0  0  0
   45.4478    3.9907   14.3549 H   0  0  0  0  0  0  0  0  0  0  0  0
   47.2805    7.4409   11.2847 H   0  0  0  0  0  0  0  0  0  0  0  0
   43.1055    3.1454   10.8194 H   0  0  0  0  0  0  0  0  0  0  0  0
   48.6337    6.6175   13.1599 H   0  0  0  0  0  0  0  0  0  0  0  0
   45.3040    7.3736   10.2494 H   0  0  0  0  0  0  0  0  0  0  0  0
   48.6917    5.2189   14.9476 H   0  0  0  0  0  0  0  0  0  0  0  0
  1  2  1  0
  2  3  1  0
  3  4  1  0
  4  5  1  0
  7  6  1  0
  8  7  2  0
  9  7  1  0
 10  8  1  0
 11  6  2  0
 12  6  2  0
 13  6  1  0
 14 16  1  0
 15  8  1  0
 16  9  2  0
 10 14  2  0
 16 17  1  0
  1 18  1  0
  1 19  1  0
  1 20  1  0
  2 21  1  0
  2 22  1  0
  3 23  1  0
  4 24  1  0
  4 25  1  0
  5 26  1  0
  5 27  1  0
  5 28  1  0
  9 29  1  0
 10 30  1  0
 13 31  1  0
 14 32  1  0
 15 33  1  0
 17 34  1  0
M  END
> <Uni-Dock RESULT> 
ENERGY=   -4.062  LOWER_BOUND=    4.753  UPPER_BOUND=    5.767
INTER + INTRA:          -4.062
INTER:                  -4.062
INTRA:                   0.000
UNBOUND:                 0.000

$$$$

     RDKit          3D

 34 33  0  0  0  0  0  0  0  0999 V2000
   47.6310    4.1944   17.6282 C   0  0  0  0  0  0  0  0  0  0  0  0
   48.5387    3.4574   18.6026 C   0  0  0  0  0  0  0  0  0  0  0  0
   49.6312    2.7330   17.9540 N   0  0  0  0  0  0  0  0  0  0  0  0
   50.6064    3.5717   17.2578 C   0  0  0  0  0  0  0  0  0  0  0  0
   51.4277    4.4579   18.1838 C   0  0  0  0  0  0  0  0  0  0  0  0
   47.3280    4.0273   17.4369 S   0  0  0  0  0  0  0  0  0  0  0  0
   49.0327    3.8552   17.8674 C   0  0  0  0  0  0  0  0  0  0  0  0
   49.8018    2.8096   17.3568 C   0  0  0  0  0  0  0  0  0  0  0  0
   49.6045    4.7888   18.7390 C   0  0  0  0  0  0  0  0  0  0  0  0
   51.1471    2.6945   17.7161 C   0  0  0  0  0  0  0  0  0  0  0  0
   47.2370    4.3159   16.0228 O   0  0  0  0  0  0  0  0  0  0  0  0
   46.7038    4.8981   18.4143 O   0  0  0  0  0  0  0  0  0  0  0  0
   46.6523    2.5886   17.7144 O   0  0  0  0  0  0  0  0  0  0  0  0
   51.7207    3.6252   18.5862 C   0  0  0  0  0  0  0  0  0  0  0  0
   49.2584    1.8966   16.5043 O   0  0  0  0  0  0  0  0  0  0  0  0
   50.9433    4.6639   19.0890 C   0  0  0  0  0  0  0  0  0  0  0  0
   51.4635    5.5924   19.9396 O   0  0  0  0  0  0  0  0  0  0  0  0
   48.1418    5.0387   17.1556 H   0  0  0  0  0  0  0  0  0  0  0  0
   47.2661    3.5243   16.8426 H   0  0  0  0  0  0  0  0  0  0  0  0
   46.7598    4.5928   18.1587 H   0  0  0  0  0  0  0  0  0  0  0  0
   48.9155    4.1468   19.3656 H   0  0  0  0  0  0  0  0  0  0  0  0
   47.9279    2.7189   19.1352 H   0  0  0  0  0  0  0  0  0  0  0  0
   50.1163    2.1736   18.6557 H   0  0  0  0  0  0  0  0  0  0  0  0
   50.1286    4.1749   16.4788 H   0  0  0  0  0  0  0  0  0  0  0  0
   51.2946    2.9006   16.7306 H   0  0  0  0  0  0  0  0  0  0  0  0
   50.8132    5.2308   18.6553 H   0  0  0  0  0  0  0  0  0  0  0  0
   51.9099    3.8693   18.9712 H   0  0  0  0  0  0  0  0  0  0  0  0
   52.2150    4.9636   17.6150 H   0  0  0  0  0  0  0  0  0  0  0  0
   49.0205    5.6122   19.1439 H   0  0  0  0  0  0  0  0  0  0  0  0
   51.7630    1.8871   17.3295 H   0  0  0  0  0  0  0  0  0  0  0  0
   45.8982    2.7356   18.3212 H   0  0  0  0  0  0  0  0  0  0  0  0
   52.7673    3.5246   18.8578 H   0  0  0  0  0  0  0  0  0  0  0  0
   49.9440    1.2880   16.1827 H   0  0  0  0  0  0  0  0  0  0  0  0
   52.4048    5.4006   20.0844 H   0  0  0  0  0  0  0  0  0  0  0  0
  1  2  1  0
  2  3  1  0
  3  4  1  0
  4  5  1  0
  7  6  1  0
  8  7  2  0
  9  7  1  0
 10  8  1  0
 11  6  2  0
 12  6  2  0
 13  6  1  0
 14 16  1  0
 15  8  1  0
 16  9  2  0
 10 14  2  0
 16 17  1  0
  1 18  1  0
  1 19  1  0
  1 20  1  0
  2 21  1  0
  2 22  1  0
  3 23  1  0
  4 24  1  0
  4 25  1  0
  5 26  1  0
  5 27  1  0
  5 28  1  0
  9 29  1  0
 10 30  1  0
 13 31  1  0
 14 32  1  0
 15 33  1  0
 17 34  1  0
M  END
> <Uni-Dock RESULT> 
ENERGY=   -3.884  LOWER_BOUND=    9.592  UPPER_BOUND=   10.859
INTER + INTRA:          -3.884
INTER:                  -3.884
INTRA:                   0.000
UNBOUND:                 0.000

$$$$
