
     RDKit          3D

 34 33  0  0  0  0  0  0  0  0999 V2000
   44.9487    4.5605    9.8066 C   0  0  0  0  0  0  0  0  0  0  0  0
   44.8970    3.3236    8.9229 C   0  0  0  0  0  0  0  0  0  0  0  0
   46.1500    3.1916    8.1821 N   0  0  0  0  0  0  0  0  0  0  0  0
   46.1365    2.0043    7.3297 C   0  0  0  0  0  0  0  0  0  0  0  0
   47.4568    1.8911    6.5830 C   0  0  0  0  0  0  0  0  0  0  0  0
   44.4925    3.3505   10.1382 S   0  0  0  0  0  0  0  0  0  0  0  0
   45.5626    2.9518    8.7880 C   0  0  0  0  0  0  0  0  0  0  0  0
   46.0724    3.9587    7.9663 C   0  0  0  0  0  0  0  0  0  0  0  0
   45.8784    1.6119    8.5490 C   0  0  0  0  0  0  0  0  0  0  0  0
   46.9124    3.6274    6.9019 C   0  0  0  0  0  0  0  0  0  0  0  0
   43.6025    2.2289   10.3494 O   0  0  0  0  0  0  0  0  0  0  0  0
   45.3312    3.8703   11.1967 O   0  0  0  0  0  0  0  0  0  0  0  0
   43.5943    4.5805    9.5948 O   0  0  0  0  0  0  0  0  0  0  0  0
   47.2360    2.2886    6.6621 C   0  0  0  0  0  0  0  0  0  0  0  0
   45.7530    5.2700    8.1958 O   0  0  0  0  0  0  0  0  0  0  0  0
   46.7155    1.2944    7.4872 C   0  0  0  0  0  0  0  0  0  0  0  0
   47.0069   -0.0206    7.2840 O   0  0  0  0  0  0  0  0  0  0  0  0
   45.0980    5.4672    9.2105 H   0  0  0  0  0  0  0  0  0  0  0  0
   44.0087    4.6701   10.3568 H   0  0  0  0  0  0  0  0  0  0  0  0
   45.7612    4.4927   10.5381 H   0  0  0  0  0  0  0  0  0  0  0  0
   44.7257    2.4415    9.5507 H   0  0  0  0  0  0  0  0  0  0  0  0
   44.0541    3.4178    8.2288 H   0  0  0  0  0  0  0  0  0  0  0  0
   46.9310    3.1363    8.8356 H   0  0  0  0  0  0  0  0  0  0  0  0
   45.3207    2.0698    6.6011 H   0  0  0  0  0  0  0  0  0  0  0  0
   45.9861    1.1000    7.9308 H   0  0  0  0  0  0  0  0  0  0  0  0
   48.2985    1.7920    7.2767 H   0  0  0  0  0  0  0  0  0  0  0  0
   47.4487    1.0086    5.9351 H   0  0  0  0  0  0  0  0  0  0  0  0
   47.6323    2.7700    5.9532 H   0  0  0  0  0  0  0  0  0  0  0  0
   45.4803    0.8207    9.1805 H   0  0  0  0  0  0  0  0  0  0  0  0
   47.3216    4.3909    6.2460 H   0  0  0  0  0  0  0  0  0  0  0  0
   44.2091    5.2794    9.2744 H   0  0  0  0  0  0  0  0  0  0  0  0
   47.8900    2.0401    5.8311 H   0  0  0  0  0  0  0  0  0  0  0  0
   46.2968    5.8281    7.6071 H   0  0  0  0  0  0  0  0  0  0  0  0
   47.5935   -0.1054    6.5144 H   0  0  0  0  0  0  0  0  0  0  0  0
  1  2  1  0
  2  3  1  0
  3  4  1  0
  4  5  1  0
  7  6  1  0
  8  7  2  0
  9  7  1  0
 10  8  1  0
 11  6  2  0
 12  6  2  0
 13  6  1  0
 14 16  1  0
 15  8  1  0
 16  9  2  0
 10 14  2  0
 16 17  1  0
  1 18  1  0
  1 19  1  0
  1 20  1  0
  2 21  1  0
  2 22  1  0
  3 23  1  0
  4 24  1  0
  4 25  1  0
  5 26  1  0
  5 27  1  0
  5 28  1  0
  9 29  1  0
 10 30  1  0
 13 31  1  0
 14 32  1  0
 15 33  1  0
 17 34  1  0
M  END
> <Uni-Dock RESULT> 
ENERGY=   -6.318  LOWER_BOUND=    0.000  UPPER_BOUND=    0.000
INTER + INTRA:          -6.318
INTER:                  -6.318
INTRA:                   0.000
UNBOUND:                 0.000

$$$$

     RDKit          3D

 34 33  0  0  0  0  0  0  0  0999 V2000
   47.5630    1.6404    6.6847 C   0  0  0  0  0  0  0  0  0  0  0  0
   46.3716    2.5636    6.8892 C   0  0  0  0  0  0  0  0  0  0  0  0
   45.9309    2.5021    8.2814 N   0  0  0  0  0  0  0  0  0  0  0  0
   44.7916    3.3879    8.5138 C   0  0  0  0  0  0  0  0  0  0  0  0
   44.3662    3.3083    9.9720 C   0  0  0  0  0  0  0  0  0  0  0  0
   47.4166    2.8836    6.2209 S   0  0  0  0  0  0  0  0  0  0  0  0
   46.2905    2.8949    7.5843 C   0  0  0  0  0  0  0  0  0  0  0  0
   45.9347    1.7039    8.2196 C   0  0  0  0  0  0  0  0  0  0  0  0
   45.7525    4.1134    8.0061 C   0  0  0  0  0  0  0  0  0  0  0  0
   45.0412    1.7290    9.2917 C   0  0  0  0  0  0  0  0  0  0  0  0
   47.0849    3.9973    5.3579 O   0  0  0  0  0  0  0  0  0  0  0  0
   48.7425    2.7153    6.7755 O   0  0  0  0  0  0  0  0  0  0  0  0
   47.0626    1.5282    5.4131 O   0  0  0  0  0  0  0  0  0  0  0  0
   44.5045    2.9464    9.7213 C   0  0  0  0  0  0  0  0  0  0  0  0
   46.4548    0.5099    7.7977 O   0  0  0  0  0  0  0  0  0  0  0  0
   44.8647    4.1260    9.0742 C   0  0  0  0  0  0  0  0  0  0  0  0
   44.3615    5.3306    9.4631 O   0  0  0  0  0  0  0  0  0  0  0  0
   47.3055    0.6028    6.9230 H   0  0  0  0  0  0  0  0  0  0  0  0
   47.8915    1.6748    5.6409 H   0  0  0  0  0  0  0  0  0  0  0  0
   48.4088    1.9377    7.3139 H   0  0  0  0  0  0  0  0  0  0  0  0
   46.6606    3.5864    6.6213 H   0  0  0  0  0  0  0  0  0  0  0  0
   45.5613    2.2513    6.2207 H   0  0  0  0  0  0  0  0  0  0  0  0
   46.7006    2.7640    8.8971 H   0  0  0  0  0  0  0  0  0  0  0  0
   43.9470    3.0936    7.8807 H   0  0  0  0  0  0  0  0  0  0  0  0
   45.0542    4.4247    8.2732 H   0  0  0  0  0  0  0  0  0  0  0  0
   45.1745    3.6252   10.6397 H   0  0  0  0  0  0  0  0  0  0  0  0
   43.5067    3.9626   10.1499 H   0  0  0  0  0  0  0  0  0  0  0  0
   44.0755    2.2881   10.2447 H   0  0  0  0  0  0  0  0  0  0  0  0
   46.0194    5.0452    7.5124 H   0  0  0  0  0  0  0  0  0  0  0  0
   44.7461    0.8168    9.8030 H   0  0  0  0  0  0  0  0  0  0  0  0
   47.1076    0.7806    6.0519 H   0  0  0  0  0  0  0  0  0  0  0  0
   43.8094    2.9562   10.5561 H   0  0  0  0  0  0  0  0  0  0  0  0
   46.1934   -0.1832    8.4341 H   0  0  0  0  0  0  0  0  0  0  0  0
   43.7556    5.2003   10.2110 H   0  0  0  0  0  0  0  0  0  0  0  0
  1  2  1  0
  2  3  1  0
  3  4  1  0
  4  5  1  0
  7  6  1  0
  8  7  2  0
  9  7  1  0
 10  8  1  0
 11  6  2  0
 12  6  2  0
 13  6  1  0
 14 16  1  0
 15  8  1  0
 16  9  2  0
 10 14  2  0
 16 17  1  0
  1 18  1  0
  1 19  1  0
  1 20  1  0
  2 21  1  0
  2 22  1  0
  3 23  1  0
  4 24  1  0
  4 25  1  0
  5 26  1  0
  5 27  1  0
  5 28  1  0
  9 29  1  0
 10 30  1  0
 13 31  1  0
 14 32  1  0
 15 33  1  0
 17 34  1  0
M  END
> <Uni-Dock RESULT> 
ENERGY=   -5.966  LOWER_BOUND=    1.894  UPPER_BOUND=    4.323
INTER + INTRA:          -5.966
INTER:                  -5.966
INTRA:                   0.000
UNBOUND:                 0.000

$$$$

     RDKit          3D

 34 33  0  0  0  0  0  0  0  0999 V2000
   44.9772    5.6608   12.5049 C   0  0  0  0  0  0  0  0  0  0  0  0
   44.2579    4.6723   11.5998 C   0  0  0  0  0  0  0  0  0  0  0  0
   45.0618    4.4188   10.4057 N   0  0  0  0  0  0  0  0  0  0  0  0
   44.4018    3.4628    9.5186 C   0  0  0  0  0  0  0  0  0  0  0  0
   45.2685    3.2135    8.2937 C   0  0  0  0  0  0  0  0  0  0  0  0
   44.3496    4.5408   12.8708 S   0  0  0  0  0  0  0  0  0  0  0  0
   44.6934    4.1974   11.1705 C   0  0  0  0  0  0  0  0  0  0  0  0
   45.1323    5.2114   10.3173 C   0  0  0  0  0  0  0  0  0  0  0  0
   44.5056    2.8981   10.6923 C   0  0  0  0  0  0  0  0  0  0  0  0
   45.3954    4.9253    8.9766 C   0  0  0  0  0  0  0  0  0  0  0  0
   43.3184    3.6259   13.3120 O   0  0  0  0  0  0  0  0  0  0  0  0
   45.6267    4.6351   13.5446 O   0  0  0  0  0  0  0  0  0  0  0  0
   43.7045    6.0237   12.8631 O   0  0  0  0  0  0  0  0  0  0  0  0
   45.2146    3.6255    8.4946 C   0  0  0  0  0  0  0  0  0  0  0  0
   45.3053    6.4862   10.7856 O   0  0  0  0  0  0  0  0  0  0  0  0
   44.7710    2.6253    9.3565 C   0  0  0  0  0  0  0  0  0  0  0  0
   44.5817    1.3479    8.9232 O   0  0  0  0  0  0  0  0  0  0  0  0
   45.1501    6.6134   11.9927 H   0  0  0  0  0  0  0  0  0  0  0  0
   44.3751    5.8622   13.3967 H   0  0  0  0  0  0  0  0  0  0  0  0
   45.9449    5.2670   12.8337 H   0  0  0  0  0  0  0  0  0  0  0  0
   44.0841    3.7416   12.1521 H   0  0  0  0  0  0  0  0  0  0  0  0
   43.2843    5.0904   11.3199 H   0  0  0  0  0  0  0  0  0  0  0  0
   45.9767    4.0598   10.6777 H   0  0  0  0  0  0  0  0  0  0  0  0
   43.4315    3.8546    9.1934 H   0  0  0  0  0  0  0  0  0  0  0  0
   44.2305    2.5118   10.0359 H   0  0  0  0  0  0  0  0  0  0  0  0
   46.2396    2.7911    8.5733 H   0  0  0  0  0  0  0  0  0  0  0  0
   44.7746    2.5054    7.6205 H   0  0  0  0  0  0  0  0  0  0  0  0
   45.4445    4.1406    7.7376 H   0  0  0  0  0  0  0  0  0  0  0  0
   44.1578    2.1037   11.3488 H   0  0  0  0  0  0  0  0  0  0  0  0
   45.7363    5.6958    8.2906 H   0  0  0  0  0  0  0  0  0  0  0  0
   44.3317    6.6187   12.3923 H   0  0  0  0  0  0  0  0  0  0  0  0
   45.4212    3.4122    7.4497 H   0  0  0  0  0  0  0  0  0  0  0  0
   45.7317    7.0173   10.0857 H   0  0  0  0  0  0  0  0  0  0  0  0
   44.7975    1.2932    7.9777 H   0  0  0  0  0  0  0  0  0  0  0  0
  1  2  1  0
  2  3  1  0
  3  4  1  0
  4  5  1  0
  7  6  1  0
  8  7  2  0
  9  7  1  0
 10  8  1  0
 11  6  2  0
 12  6  2  0
 13  6  1  0
 14 16  1  0
 15  8  1  0
 16  9  2  0
 10 14  2  0
 16 17  1  0
  1 18  1  0
  1 19  1  0
  1 20  1  0
  2 21  1  0
  2 22  1  0
  3 23  1  0
  4 24  1  0
  4 25  1  0
  5 26  1  0
  5 27  1  0
  5 28  1  0
  9 29  1  0
 10 30  1  0
 13 31  1  0
 14 32  1  0
 15 33  1  0
 17 34  1  0
M  END
> <Uni-Dock RESULT> 
ENERGY=   -5.463  LOWER_BOUND=    2.302  UPPER_BOUND=    3.001
INTER + INTRA:          -5.463
INTER:                  -5.463
INTRA:                   0.000
UNBOUND:                 0.000

$$$$

     RDKit          3D

 34 33  0  0  0  0  0  0  0  0999 V2000
   45.3389    3.9355    8.2301 C   0  0  0  0  0  0  0  0  0  0  0  0
   45.1067    3.6786    9.7113 C   0  0  0  0  0  0  0  0  0  0  0  0
   44.7061    4.9192   10.3721 N   0  0  0  0  0  0  0  0  0  0  0  0
   44.4645    4.7036   11.7974 C   0  0  0  0  0  0  0  0  0  0  0  0
   44.0395    6.0096   12.4512 C   0  0  0  0  0  0  0  0  0  0  0  0
   44.6921    2.9045    8.7786 S   0  0  0  0  0  0  0  0  0  0  0  0
   44.5703    4.1071   10.0692 C   0  0  0  0  0  0  0  0  0  0  0  0
   45.3319    5.2762   10.0229 C   0  0  0  0  0  0  0  0  0  0  0  0
   43.7099    3.8618   11.1424 C   0  0  0  0  0  0  0  0  0  0  0  0
   45.2278    6.2139   11.0516 C   0  0  0  0  0  0  0  0  0  0  0  0
   44.4161    1.6043    9.3516 O   0  0  0  0  0  0  0  0  0  0  0  0
   43.9396    3.4196    7.6550 O   0  0  0  0  0  0  0  0  0  0  0  0
   46.2525    2.9207    8.3544 O   0  0  0  0  0  0  0  0  0  0  0  0
   44.3639    5.9757   12.1247 C   0  0  0  0  0  0  0  0  0  0  0  0
   46.1825    5.5094    8.9758 O   0  0  0  0  0  0  0  0  0  0  0  0
   43.6143    4.8023   12.1599 C   0  0  0  0  0  0  0  0  0  0  0  0
   42.7635    4.5347   13.1894 O   0  0  0  0  0  0  0  0  0  0  0  0
   46.1256    4.6818    8.0762 H   0  0  0  0  0  0  0  0  0  0  0  0
   45.6489    3.0115    7.7315 H   0  0  0  0  0  0  0  0  0  0  0  0
   44.4263    4.2924    7.7408 H   0  0  0  0  0  0  0  0  0  0  0  0
   44.3302    2.9133    9.8249 H   0  0  0  0  0  0  0  0  0  0  0  0
   46.0324    3.2945   10.1546 H   0  0  0  0  0  0  0  0  0  0  0  0
   43.8619    5.2853    9.9323 H   0  0  0  0  0  0  0  0  0  0  0  0
   45.3762    4.3419   12.2861 H   0  0  0  0  0  0  0  0  0  0  0  0
   43.6772    3.9555   11.9461 H   0  0  0  0  0  0  0  0  0  0  0  0
   43.1117    6.3907   12.0114 H   0  0  0  0  0  0  0  0  0  0  0  0
   43.8666    5.8563   13.5214 H   0  0  0  0  0  0  0  0  0  0  0  0
   44.8126    6.7776   12.3413 H   0  0  0  0  0  0  0  0  0  0  0  0
   43.1178    2.9506   11.1894 H   0  0  0  0  0  0  0  0  0  0  0  0
   45.8101    7.1311   11.0414 H   0  0  0  0  0  0  0  0  0  0  0  0
   46.4929    3.8508    8.1394 H   0  0  0  0  0  0  0  0  0  0  0  0
   44.2898    6.7108   12.9211 H   0  0  0  0  0  0  0  0  0  0  0  0
   46.5261    6.4202    9.0537 H   0  0  0  0  0  0  0  0  0  0  0  0
   42.7935    5.2641   13.8301 H   0  0  0  0  0  0  0  0  0  0  0  0
  1  2  1  0
  2  3  1  0
  3  4  1  0
  4  5  1  0
  7  6  1  0
  8  7  2  0
  9  7  1  0
 10  8  1  0
 11  6  2  0
 12  6  2  0
 13  6  1  0
 14 16  1  0
 15  8  1  0
 16  9  2  0
 10 14  2  0
 16 17  1  0
  1 18  1  0
  1 19  1  0
  1 20  1  0
  2 21  1  0
  2 22  1  0
  3 23  1  0
  4 24  1  0
  4 25  1  0
  5 26  1  0
  5 27  1  0
  5 28  1  0
  9 29  1  0
 10 30  1  0
 13 31  1  0
 14 32  1  0
 15 33  1  0
 17 34  1  0
M  END
> <Uni-Dock RESULT> 
ENERGY=   -4.569  LOWER_BOUND=    2.260  UPPER_BOUND=    4.606
INTER + INTRA:          -4.569
INTER:                  -4.569
INTRA:                   0.000
UNBOUND:                 0.000

$$$$

     RDKit          3D

 34 33  0  0  0  0  0  0  0  0999 V2000
   43.1678    4.7748   11.7826 C   0  0  0  0  0  0  0  0  0  0  0  0
   44.0654    5.8846   12.3082 C   0  0  0  0  0  0  0  0  0  0  0  0
   45.3869    5.3452   12.6230 N   0  0  0  0  0  0  0  0  0  0  0  0
   46.2785    6.3907   13.1216 C   0  0  0  0  0  0  0  0  0  0  0  0
   47.6456    5.7988   13.4283 C   0  0  0  0  0  0  0  0  0  0  0  0
   43.2910    6.0117   11.2957 S   0  0  0  0  0  0  0  0  0  0  0  0
   44.8235    5.8326   12.1596 C   0  0  0  0  0  0  0  0  0  0  0  0
   45.0223    4.7648   13.0366 C   0  0  0  0  0  0  0  0  0  0  0  0
   45.8267    6.7845   11.9605 C   0  0  0  0  0  0  0  0  0  0  0  0
   46.2360    4.6396   13.7144 C   0  0  0  0  0  0  0  0  0  0  0  0
   43.0727    7.4231   11.0606 O   0  0  0  0  0  0  0  0  0  0  0  0
   43.3062    5.0504   10.2142 O   0  0  0  0  0  0  0  0  0  0  0  0
   42.1694    5.5219   12.3526 O   0  0  0  0  0  0  0  0  0  0  0  0
   47.2451    5.5863   13.5142 C   0  0  0  0  0  0  0  0  0  0  0  0
   44.0339    3.8391   13.2383 O   0  0  0  0  0  0  0  0  0  0  0  0
   47.0304    6.6494   12.6402 C   0  0  0  0  0  0  0  0  0  0  0  0
   47.9889    7.5920   12.4207 O   0  0  0  0  0  0  0  0  0  0  0  0
   43.0507    3.9761   12.5229 H   0  0  0  0  0  0  0  0  0  0  0  0
   42.1731    5.1710   11.5543 H   0  0  0  0  0  0  0  0  0  0  0  0
   43.5743    4.3359   10.8651 H   0  0  0  0  0  0  0  0  0  0  0  0
   44.1415    6.6731   11.5506 H   0  0  0  0  0  0  0  0  0  0  0  0
   43.6083    6.3162   13.2059 H   0  0  0  0  0  0  0  0  0  0  0  0
   45.7908    4.9182   11.7896 H   0  0  0  0  0  0  0  0  0  0  0  0
   45.8695    6.8332   14.0368 H   0  0  0  0  0  0  0  0  0  0  0  0
   46.3917    7.1877   12.3776 H   0  0  0  0  0  0  0  0  0  0  0  0
   48.1045    5.3720   12.5300 H   0  0  0  0  0  0  0  0  0  0  0  0
   48.3151    6.5756   13.8116 H   0  0  0  0  0  0  0  0  0  0  0  0
   47.5753    5.0107   14.1857 H   0  0  0  0  0  0  0  0  0  0  0  0
   45.6776    7.6231   11.2840 H   0  0  0  0  0  0  0  0  0  0  0  0
   46.4165    3.8193   14.4037 H   0  0  0  0  0  0  0  0  0  0  0  0
   42.4216    4.6207   12.6581 H   0  0  0  0  0  0  0  0  0  0  0  0
   48.1862    5.4812   14.0464 H   0  0  0  0  0  0  0  0  0  0  0  0
   44.3981    3.1106   13.7772 H   0  0  0  0  0  0  0  0  0  0  0  0
   48.7730    7.3845   12.9551 H   0  0  0  0  0  0  0  0  0  0  0  0
  1  2  1  0
  2  3  1  0
  3  4  1  0
  4  5  1  0
  7  6  1  0
  8  7  2  0
  9  7  1  0
 10  8  1  0
 11  6  2  0
 12  6  2  0
 13  6  1  0
 14 16  1  0
 15  8  1  0
 16  9  2  0
 10 14  2  0
 16 17  1  0
  1 18  1  0
  1 19  1  0
  1 20  1  0
  2 21  1  0
  2 22  1  0
  3 23  1  0
  4 24  1  0
  4 25  1  0
  5 26  1  0
  5 27  1  0
  5 28  1  0
  9 29  1  0
 10 30  1  0
 13 31  1  0
 14 32  1  0
 15 33  1  0
 17 34  1  0
M  END
> <Uni-Dock RESULT> 
ENERGY=   -4.542  LOWER_BOUND=    4.939  UPPER_BOUND=    5.857
INTER + INTRA:          -4.542
INTER:                  -4.542
INTRA:                   0.000
UNBOUND:                 0.000

$$$$

     RDKit          3D

 34 33  0  0  0  0  0  0  0  0999 V2000
   43.2733    6.0141   11.4000 C   0  0  0  0  0  0  0  0  0  0  0  0
   44.4228    5.0883   11.7678 C   0  0  0  0  0  0  0  0  0  0  0  0
   45.3542    5.7834   12.6542 N   0  0  0  0  0  0  0  0  0  0  0  0
   46.4669    4.9158   13.0354 C   0  0  0  0  0  0  0  0  0  0  0  0
   47.4094    5.6650   13.9650 C   0  0  0  0  0  0  0  0  0  0  0  0
   43.1935    4.7284   11.7503 S   0  0  0  0  0  0  0  0  0  0  0  0
   44.7468    5.1793   12.4651 C   0  0  0  0  0  0  0  0  0  0  0  0
   45.3545    6.3915   12.1334 C   0  0  0  0  0  0  0  0  0  0  0  0
   45.3620    4.2966   13.3564 C   0  0  0  0  0  0  0  0  0  0  0  0
   46.5828    6.7312   12.7029 C   0  0  0  0  0  0  0  0  0  0  0  0
   43.1404    3.2841   11.6708 O   0  0  0  0  0  0  0  0  0  0  0  0
   42.1778    5.4934   12.4410 O   0  0  0  0  0  0  0  0  0  0  0  0
   43.2652    5.2902   10.2356 O   0  0  0  0  0  0  0  0  0  0  0  0
   47.1997    5.8539   13.5998 C   0  0  0  0  0  0  0  0  0  0  0  0
   44.7550    7.2501   11.2515 O   0  0  0  0  0  0  0  0  0  0  0  0
   46.5839    4.6455   13.9171 C   0  0  0  0  0  0  0  0  0  0  0  0
   47.1549    3.7647   14.7852 O   0  0  0  0  0  0  0  0  0  0  0  0
   43.6362    6.9122   10.8887 H   0  0  0  0  0  0  0  0  0  0  0  0
   42.5773    5.5019   10.7279 H   0  0  0  0  0  0  0  0  0  0  0  0
   42.7148    6.3268   12.2888 H   0  0  0  0  0  0  0  0  0  0  0  0
   44.0201    4.1938   12.2569 H   0  0  0  0  0  0  0  0  0  0  0  0
   44.9343    4.7752   10.8505 H   0  0  0  0  0  0  0  0  0  0  0  0
   44.8622    6.0983   13.4902 H   0  0  0  0  0  0  0  0  0  0  0  0
   47.0228    4.5989   12.1458 H   0  0  0  0  0  0  0  0  0  0  0  0
   46.0985    4.0183   13.5458 H   0  0  0  0  0  0  0  0  0  0  0  0
   46.8993    5.9735   14.8838 H   0  0  0  0  0  0  0  0  0  0  0  0
   48.2504    5.0230   14.2462 H   0  0  0  0  0  0  0  0  0  0  0  0
   47.8153    6.5595   13.4805 H   0  0  0  0  0  0  0  0  0  0  0  0
   44.8984    3.3472   13.6153 H   0  0  0  0  0  0  0  0  0  0  0  0
   47.0784    7.6673   12.4610 H   0  0  0  0  0  0  0  0  0  0  0  0
   43.4878    6.2479   10.2836 H   0  0  0  0  0  0  0  0  0  0  0  0
   48.1558    6.1262   14.0376 H   0  0  0  0  0  0  0  0  0  0  0  0
   45.2587    8.0867   11.2438 H   0  0  0  0  0  0  0  0  0  0  0  0
   48.0007    4.1246   15.0994 H   0  0  0  0  0  0  0  0  0  0  0  0
  1  2  1  0
  2  3  1  0
  3  4  1  0
  4  5  1  0
  7  6  1  0
  8  7  2  0
  9  7  1  0
 10  8  1  0
 11  6  2  0
 12  6  2  0
 13  6  1  0
 14 16  1  0
 15  8  1  0
 16  9  2  0
 10 14  2  0
 16 17  1  0
  1 18  1  0
  1 19  1  0
  1 20  1  0
  2 21  1  0
  2 22  1  0
  3 23  1  0
  4 24  1  0
  4 25  1  0
  5 26  1  0
  5 27  1  0
  5 28  1  0
  9 29  1  0
 10 30  1  0
 13 31  1  0
 14 32  1  0
 15 33  1  0
 17 34  1  0
M  END
> <Uni-Dock RESULT> 
ENERGY=   -4.507  LOWER_BOUND=    4.617  UPPER_BOUND=    5.400
INTER + INTRA:          -4.507
INTER:                  -4.507
INTRA:                   0.000
UNBOUND:                 0.000

$$$$

     RDKit          3D

 34 33  0  0  0  0  0  0  0  0999 V2000
   43.9783    4.2810   12.3523 C   0  0  0  0  0  0  0  0  0  0  0  0
   44.0138    5.7726   12.6482 C   0  0  0  0  0  0  0  0  0  0  0  0
   45.3842    6.2677   12.5330 N   0  0  0  0  0  0  0  0  0  0  0  0
   45.4510    7.7029   12.8015 C   0  0  0  0  0  0  0  0  0  0  0  0
   46.8863    8.1868   12.6625 C   0  0  0  0  0  0  0  0  0  0  0  0
   43.1258    5.2108   11.9154 S   0  0  0  0  0  0  0  0  0  0  0  0
   44.5467    6.1979   12.2812 C   0  0  0  0  0  0  0  0  0  0  0  0
   45.6141    5.6631   13.0048 C   0  0  0  0  0  0  0  0  0  0  0  0
   44.5775    7.5252   11.8461 C   0  0  0  0  0  0  0  0  0  0  0  0
   46.7268    6.4563   13.2892 C   0  0  0  0  0  0  0  0  0  0  0  0
   41.9803    6.0913   11.8281 O   0  0  0  0  0  0  0  0  0  0  0  0
   43.4972    4.3303   10.8287 O   0  0  0  0  0  0  0  0  0  0  0  0
   42.9234    4.2883   13.2280 O   0  0  0  0  0  0  0  0  0  0  0  0
   46.7650    7.7834   12.8510 C   0  0  0  0  0  0  0  0  0  0  0  0
   45.5770    4.3654   13.4394 O   0  0  0  0  0  0  0  0  0  0  0  0
   45.6902    8.3048   12.1347 C   0  0  0  0  0  0  0  0  0  0  0  0
   45.6904    9.5933   11.6928 O   0  0  0  0  0  0  0  0  0  0  0  0
   44.6100    3.7233   13.0519 H   0  0  0  0  0  0  0  0  0  0  0  0
   42.9554    3.9024   12.4467 H   0  0  0  0  0  0  0  0  0  0  0  0
   44.3231    4.0694   11.3344 H   0  0  0  0  0  0  0  0  0  0  0  0
   43.3554    6.2935   11.9435 H   0  0  0  0  0  0  0  0  0  0  0  0
   43.6329    5.9430   13.6615 H   0  0  0  0  0  0  0  0  0  0  0  0
   45.7407    6.0766   11.5969 H   0  0  0  0  0  0  0  0  0  0  0  0
   45.1013    7.9153   13.8181 H   0  0  0  0  0  0  0  0  0  0  0  0
   44.8166    8.2563   12.0993 H   0  0  0  0  0  0  0  0  0  0  0  0
   47.2651    8.0210   11.6483 H   0  0  0  0  0  0  0  0  0  0  0  0
   46.9441    9.2598   12.8722 H   0  0  0  0  0  0  0  0  0  0  0  0
   47.5484    7.6698   13.3654 H   0  0  0  0  0  0  0  0  0  0  0  0
   43.7474    7.9516   11.2874 H   0  0  0  0  0  0  0  0  0  0  0  0
   47.5704    6.0659   13.8518 H   0  0  0  0  0  0  0  0  0  0  0  0
   43.7739    3.8231   13.3990 H   0  0  0  0  0  0  0  0  0  0  0  0
   47.6347    8.3935   13.0776 H   0  0  0  0  0  0  0  0  0  0  0  0
   46.4519    4.1382   13.8092 H   0  0  0  0  0  0  0  0  0  0  0  0
   46.5173   10.0260   11.9622 H   0  0  0  0  0  0  0  0  0  0  0  0
  1  2  1  0
  2  3  1  0
  3  4  1  0
  4  5  1  0
  7  6  1  0
  8  7  2  0
  9  7  1  0
 10  8  1  0
 11  6  2  0
 12  6  2  0
 13  6  1  0
 14 16  1  0
 15  8  1  0
 16  9  2  0
 10 14  2  0
 16 17  1  0
  1 18  1  0
  1 19  1  0
  1 20  1  0
  2 21  1  0
  2 22  1  0
  3 23  1  0
  4 24  1  0
  4 25  1  0
  5 26  1  0
  5 27  1  0
  5 28  1  0
  9 29  1  0
 10 30  1  0
 13 31  1  0
 14 32  1  0
 15 33  1  0
 17 34  1  0
M  END
> <Uni-Dock RESULT> 
ENERGY=   -4.418  LOWER_BOUND=    4.869  UPPER_BOUND=    6.295
INTER + INTRA:          -4.418
INTER:                  -4.418
INTRA:                   0.000
UNBOUND:                 0.000

$$$$

     RDKit          3D

 34 33  0  0  0  0  0  0  0  0999 V2000
   42.9298    5.4370   12.1259 C   0  0  0  0  0  0  0  0  0  0  0  0
   44.4405    5.2605   12.1228 C   0  0  0  0  0  0  0  0  0  0  0  0
   45.0839    6.4930   12.5737 N   0  0  0  0  0  0  0  0  0  0  0  0
   46.5387    6.3524   12.5923 C   0  0  0  0  0  0  0  0  0  0  0  0
   47.1751    7.6465   13.0758 C   0  0  0  0  0  0  0  0  0  0  0  0
   43.6198    4.3823   12.5659 S   0  0  0  0  0  0  0  0  0  0  0  0
   44.8478    5.6517   12.6524 C   0  0  0  0  0  0  0  0  0  0  0  0
   44.6302    6.8909   12.0476 C   0  0  0  0  0  0  0  0  0  0  0  0
   46.0445    5.3894   13.3242 C   0  0  0  0  0  0  0  0  0  0  0  0
   45.6111    7.8812   12.1211 C   0  0  0  0  0  0  0  0  0  0  0  0
   44.2956    3.1030   12.6061 O   0  0  0  0  0  0  0  0  0  0  0  0
   42.5892    4.7322   13.5195 O   0  0  0  0  0  0  0  0  0  0  0  0
   42.9767    4.5394   11.0905 O   0  0  0  0  0  0  0  0  0  0  0  0
   46.8080    7.6256   12.7971 C   0  0  0  0  0  0  0  0  0  0  0  0
   43.4613    7.1420   11.3807 O   0  0  0  0  0  0  0  0  0  0  0  0
   47.0131    6.3826   13.3911 C   0  0  0  0  0  0  0  0  0  0  0  0
   48.1665    6.0962   14.0567 O   0  0  0  0  0  0  0  0  0  0  0  0
   42.6250    6.2523   11.4610 H   0  0  0  0  0  0  0  0  0  0  0  0
   42.4425    4.5199   11.7795 H   0  0  0  0  0  0  0  0  0  0  0  0
   42.5573    5.6568   13.1322 H   0  0  0  0  0  0  0  0  0  0  0  0
   44.7050    4.4247   12.7808 H   0  0  0  0  0  0  0  0  0  0  0  0
   44.7672    5.0119   11.1067 H   0  0  0  0  0  0  0  0  0  0  0  0
   44.7502    6.7329   13.5070 H   0  0  0  0  0  0  0  0  0  0  0  0
   46.9109    6.1276   11.5865 H   0  0  0  0  0  0  0  0  0  0  0  0
   46.8384    5.5349   13.2583 H   0  0  0  0  0  0  0  0  0  0  0  0
   46.8525    7.8922   14.0932 H   0  0  0  0  0  0  0  0  0  0  0  0
   48.2657    7.5505   13.0825 H   0  0  0  0  0  0  0  0  0  0  0  0
   46.9146    8.4850   12.4210 H   0  0  0  0  0  0  0  0  0  0  0  0
   46.2248    4.4244   13.7926 H   0  0  0  0  0  0  0  0  0  0  0  0
   45.4684    8.8537   11.6579 H   0  0  0  0  0  0  0  0  0  0  0  0
   42.6797    5.4729   10.9930 H   0  0  0  0  0  0  0  0  0  0  0  0
   47.5659    8.4021   12.8486 H   0  0  0  0  0  0  0  0  0  0  0  0
   43.4401    8.0881   11.1396 H   0  0  0  0  0  0  0  0  0  0  0  0
   48.7560    6.8676   14.0263 H   0  0  0  0  0  0  0  0  0  0  0  0
  1  2  1  0
  2  3  1  0
  3  4  1  0
  4  5  1  0
  7  6  1  0
  8  7  2  0
  9  7  1  0
 10  8  1  0
 11  6  2  0
 12  6  2  0
 13  6  1  0
 14 16  1  0
 15  8  1  0
 16  9  2  0
 10 14  2  0
 16 17  1  0
  1 18  1  0
  1 19  1  0
  1 20  1  0
  2 21  1  0
  2 22  1  0
  3 23  1  0
  4 24  1  0
  4 25  1  0
  5 26  1  0
  5 27  1  0
  5 28  1  0
  9 29  1  0
 10 30  1  0
 13 31  1  0
 14 32  1  0
 15 33  1  0
 17 34  1  0
M  END
> <Uni-Dock RESULT> 
ENERGY=   -4.416  LOWER_BOUND=    4.935  UPPER_BOUND=    5.806
INTER + INTRA:          -4.416
INTER:                  -4.416
INTRA:                   0.000
UNBOUND:                 0.000

$$$$

     RDKit          3D

 34 33  0  0  0  0  0  0  0  0999 V2000
   47.4359    6.0438   13.8071 C   0  0  0  0  0  0  0  0  0  0  0  0
   46.5210    6.1412   12.5959 C   0  0  0  0  0  0  0  0  0  0  0  0
   45.1802    5.6793   12.9498 N   0  0  0  0  0  0  0  0  0  0  0  0
   44.2722    5.7704   11.8079 C   0  0  0  0  0  0  0  0  0  0  0  0
   42.8858    5.2935   12.2128 C   0  0  0  0  0  0  0  0  0  0  0  0
   47.3490    7.0558   12.9408 S   0  0  0  0  0  0  0  0  0  0  0  0
   45.7714    6.2869   12.7241 C   0  0  0  0  0  0  0  0  0  0  0  0
   45.5175    5.0252   13.2649 C   0  0  0  0  0  0  0  0  0  0  0  0
   44.7883    6.9567   11.9914 C   0  0  0  0  0  0  0  0  0  0  0  0
   44.2685    4.4297   13.0815 C   0  0  0  0  0  0  0  0  0  0  0  0
   47.5913    7.9091   11.7970 O   0  0  0  0  0  0  0  0  0  0  0  0
   47.3832    7.5651   14.2949 O   0  0  0  0  0  0  0  0  0  0  0  0
   48.4089    5.8368   12.8635 O   0  0  0  0  0  0  0  0  0  0  0  0
   43.2794    5.0984   12.3540 C   0  0  0  0  0  0  0  0  0  0  0  0
   46.4860    4.3660   13.9734 O   0  0  0  0  0  0  0  0  0  0  0  0
   43.5491    6.3544   11.8158 C   0  0  0  0  0  0  0  0  0  0  0  0
   42.6115    7.0357   11.1001 O   0  0  0  0  0  0  0  0  0  0  0  0
   47.5069    5.0121   14.1678 H   0  0  0  0  0  0  0  0  0  0  0  0
   48.4445    6.3793   13.5453 H   0  0  0  0  0  0  0  0  0  0  0  0
   47.0750    6.6711   14.6292 H   0  0  0  0  0  0  0  0  0  0  0  0
   46.4918    7.1814   12.2515 H   0  0  0  0  0  0  0  0  0  0  0  0
   46.9335    5.5255   11.7886 H   0  0  0  0  0  0  0  0  0  0  0  0
   44.8175    6.2377   13.7222 H   0  0  0  0  0  0  0  0  0  0  0  0
   44.6358    5.1467   10.9836 H   0  0  0  0  0  0  0  0  0  0  0  0
   44.2053    6.8045   11.4503 H   0  0  0  0  0  0  0  0  0  0  0  0
   42.4717    5.9121   13.0162 H   0  0  0  0  0  0  0  0  0  0  0  0
   42.2034    5.3503   11.3585 H   0  0  0  0  0  0  0  0  0  0  0  0
   42.9093    4.2540   12.5570 H   0  0  0  0  0  0  0  0  0  0  0  0
   44.9800    7.9372   11.5611 H   0  0  0  0  0  0  0  0  0  0  0  0
   44.0449    3.4481   13.4902 H   0  0  0  0  0  0  0  0  0  0  0  0
   48.1333    5.1605   13.5235 H   0  0  0  0  0  0  0  0  0  0  0  0
   42.3106    4.6270   12.2158 H   0  0  0  0  0  0  0  0  0  0  0  0
   46.0876    3.5694   14.3739 H   0  0  0  0  0  0  0  0  0  0  0  0
   41.7984    6.5068   11.0487 H   0  0  0  0  0  0  0  0  0  0  0  0
  1  2  1  0
  2  3  1  0
  3  4  1  0
  4  5  1  0
  7  6  1  0
  8  7  2  0
  9  7  1  0
 10  8  1  0
 11  6  2  0
 12  6  2  0
 13  6  1  0
 14 16  1  0
 15  8  1  0
 16  9  2  0
 10 14  2  0
 16 17  1  0
  1 18  1  0
  1 19  1  0
  1 20  1  0
  2 21  1  0
  2 22  1  0
  3 23  1  0
  4 24  1  0
  4 25  1  0
  5 26  1  0
  5 27  1  0
  5 28  1  0
  9 29  1  0
 10 30  1  0
 13 31  1  0
 14 32  1  0
 15 33  1  0
 17 34  1  0
M  END
> <Uni-Dock RESULT> 
ENERGY=   -4.085  LOWER_BOUND=    5.410  UPPER_BOUND=    6.396
INTER + INTRA:          -4.085
INTER:                  -4.085
INTRA:                   0.000
UNBOUND:                 0.000

$$$$
