
     RDKit          3D

 34 33  0  0  0  0  0  0  0  0999 V2000
   42.8838    4.8471   12.3948 C   0  0  0  0  0  0  0  0  0  0  0  0
   43.6881    5.9918   11.7982 C   0  0  0  0  0  0  0  0  0  0  0  0
   45.0904    5.8696   12.1922 N   0  0  0  0  0  0  0  0  0  0  0  0
   45.8902    6.9626   11.6424 C   0  0  0  0  0  0  0  0  0  0  0  0
   47.3389    6.8114   12.0799 C   0  0  0  0  0  0  0  0  0  0  0  0
   44.4864    3.9129   12.4948 S   0  0  0  0  0  0  0  0  0  0  0  0
   44.8521    5.6404   12.3875 C   0  0  0  0  0  0  0  0  0  0  0  0
   44.0731    6.4794   11.5883 C   0  0  0  0  0  0  0  0  0  0  0  0
   45.9454    6.1429   13.1023 C   0  0  0  0  0  0  0  0  0  0  0  0
   44.3778    7.8380   11.5076 C   0  0  0  0  0  0  0  0  0  0  0  0
   43.3442    3.7812   13.3727 O   0  0  0  0  0  0  0  0  0  0  0  0
   45.7302    3.2179   12.7530 O   0  0  0  0  0  0  0  0  0  0  0  0
   44.0023    3.5036   11.0078 O   0  0  0  0  0  0  0  0  0  0  0  0
   45.4645    8.3455   12.2236 C   0  0  0  0  0  0  0  0  0  0  0  0
   43.0142    5.9775   10.8811 O   0  0  0  0  0  0  0  0  0  0  0  0
   46.2384    7.4976   13.0109 C   0  0  0  0  0  0  0  0  0  0  0  0
   47.2895    8.0446   13.6832 O   0  0  0  0  0  0  0  0  0  0  0  0
   43.2588    3.8776   12.0500 H   0  0  0  0  0  0  0  0  0  0  0  0
   42.9237    4.8614   13.4893 H   0  0  0  0  0  0  0  0  0  0  0  0
   41.8338    4.9281   12.0954 H   0  0  0  0  0  0  0  0  0  0  0  0
   43.5967    5.9593   10.7065 H   0  0  0  0  0  0  0  0  0  0  0  0
   43.2712    6.9433   12.1479 H   0  0  0  0  0  0  0  0  0  0  0  0
   45.1624    5.8695   13.2094 H   0  0  0  0  0  0  0  0  0  0  0  0
   45.8466    6.9509   10.5474 H   0  0  0  0  0  0  0  0  0  0  0  0
   45.5101    7.9304   11.9892 H   0  0  0  0  0  0  0  0  0  0  0  0
   47.9450    7.6222   11.6628 H   0  0  0  0  0  0  0  0  0  0  0  0
   47.4308    6.8493   13.1707 H   0  0  0  0  0  0  0  0  0  0  0  0
   47.7608    5.8622   11.7323 H   0  0  0  0  0  0  0  0  0  0  0  0
   46.5492    5.4792   13.7152 H   0  0  0  0  0  0  0  0  0  0  0  0
   43.7929    8.5175   10.8943 H   0  0  0  0  0  0  0  0  0  0  0  0
   43.2723    4.1134   10.7523 H   0  0  0  0  0  0  0  0  0  0  0  0
   45.7122    9.4028   12.1660 H   0  0  0  0  0  0  0  0  0  0  0  0
   42.5246    6.7267   10.4895 H   0  0  0  0  0  0  0  0  0  0  0  0
   47.7514    7.3461   14.1776 H   0  0  0  0  0  0  0  0  0  0  0  0
  1  2  1  0
  2  3  1  0
  3  4  1  0
  4  5  1  0
  7  6  1  0
  8  7  2  0
  9  7  1  0
 10  8  1  0
 11  6  2  0
 12  6  2  0
 13  6  1  0
 14 16  1  0
 15  8  1  0
 16  9  2  0
 10 14  2  0
 16 17  1  0
  1 18  1  0
  1 19  1  0
  1 20  1  0
  2 21  1  0
  2 22  1  0
  3 23  1  0
  4 24  1  0
  4 25  1  0
  5 26  1  0
  5 27  1  0
  5 28  1  0
  9 29  1  0
 10 30  1  0
 13 31  1  0
 14 32  1  0
 15 33  1  0
 17 34  1  0
M  END
> <Uni-Dock RESULT> 
ENERGY=   -4.181  LOWER_BOUND=    0.000  UPPER_BOUND=    0.000
INTER + INTRA:          -4.181
INTER:                  -4.181
INTRA:                   0.000
UNBOUND:                 0.000

$$$$

     RDKit          3D

 34 33  0  0  0  0  0  0  0  0999 V2000
   42.6076    4.8857   12.3461 C   0  0  0  0  0  0  0  0  0  0  0  0
   43.6373    3.9516   11.7292 C   0  0  0  0  0  0  0  0  0  0  0  0
   44.2450    4.5867   10.5614 N   0  0  0  0  0  0  0  0  0  0  0  0
   45.2338    3.7089    9.9382 C   0  0  0  0  0  0  0  0  0  0  0  0
   45.8374    4.3945    8.7221 C   0  0  0  0  0  0  0  0  0  0  0  0
   43.5300    6.2735   11.5249 S   0  0  0  0  0  0  0  0  0  0  0  0
   43.9311    4.7655   10.6915 C   0  0  0  0  0  0  0  0  0  0  0  0
   44.0699    3.5763   11.4099 C   0  0  0  0  0  0  0  0  0  0  0  0
   44.1242    4.7928    9.3057 C   0  0  0  0  0  0  0  0  0  0  0  0
   44.3937    2.3965   10.7404 C   0  0  0  0  0  0  0  0  0  0  0  0
   42.1153    6.2229   11.8228 O   0  0  0  0  0  0  0  0  0  0  0  0
   44.1104    7.3608   10.7650 O   0  0  0  0  0  0  0  0  0  0  0  0
   44.3229    6.1877   12.9310 O   0  0  0  0  0  0  0  0  0  0  0  0
   44.5819    2.4174    9.3564 C   0  0  0  0  0  0  0  0  0  0  0  0
   43.8934    3.5607   12.7671 O   0  0  0  0  0  0  0  0  0  0  0  0
   44.4483    3.6107    8.6522 C   0  0  0  0  0  0  0  0  0  0  0  0
   44.6483    3.5748    7.3051 O   0  0  0  0  0  0  0  0  0  0  0  0
   43.0669    5.8283   12.6623 H   0  0  0  0  0  0  0  0  0  0  0  0
   41.8045    5.1155   11.6375 H   0  0  0  0  0  0  0  0  0  0  0  0
   42.1554    4.4189   13.2272 H   0  0  0  0  0  0  0  0  0  0  0  0
   44.4038    3.7231   12.4785 H   0  0  0  0  0  0  0  0  0  0  0  0
   43.1461    3.0136   11.4458 H   0  0  0  0  0  0  0  0  0  0  0  0
   43.5207    4.8237    9.8837 H   0  0  0  0  0  0  0  0  0  0  0  0
   46.0349    3.4754   10.6486 H   0  0  0  0  0  0  0  0  0  0  0  0
   44.7695    2.7667    9.6249 H   0  0  0  0  0  0  0  0  0  0  0  0
   46.5862    3.7455    8.2567 H   0  0  0  0  0  0  0  0  0  0  0  0
   45.0721    4.6180    7.9711 H   0  0  0  0  0  0  0  0  0  0  0  0
   46.3303    5.3324    9.0000 H   0  0  0  0  0  0  0  0  0  0  0  0
   44.0210    5.7257    8.7579 H   0  0  0  0  0  0  0  0  0  0  0  0
   44.5103    1.4549   11.2693 H   0  0  0  0  0  0  0  0  0  0  0  0
   44.0706    5.3407   13.3656 H   0  0  0  0  0  0  0  0  0  0  0  0
   44.8368    1.5037    8.8248 H   0  0  0  0  0  0  0  0  0  0  0  0
   43.9073    2.6311   13.0672 H   0  0  0  0  0  0  0  0  0  0  0  0
   44.5409    4.4704    6.9418 H   0  0  0  0  0  0  0  0  0  0  0  0
  1  2  1  0
  2  3  1  0
  3  4  1  0
  4  5  1  0
  7  6  1  0
  8  7  2  0
  9  7  1  0
 10  8  1  0
 11  6  2  0
 12  6  2  0
 13  6  1  0
 14 16  1  0
 15  8  1  0
 16  9  2  0
 10 14  2  0
 16 17  1  0
  1 18  1  0
  1 19  1  0
  1 20  1  0
  2 21  1  0
  2 22  1  0
  3 23  1  0
  4 24  1  0
  4 25  1  0
  5 26  1  0
  5 27  1  0
  5 28  1  0
  9 29  1  0
 10 30  1  0
 13 31  1  0
 14 32  1  0
 15 33  1  0
 17 34  1  0
M  END
> <Uni-Dock RESULT> 
ENERGY=   -4.177  LOWER_BOUND=    2.770  UPPER_BOUND=    4.315
INTER + INTRA:          -4.177
INTER:                  -4.177
INTRA:                   0.000
UNBOUND:                 0.000

$$$$

     RDKit          3D

 34 33  0  0  0  0  0  0  0  0999 V2000
   44.9883    4.1915    8.0682 C   0  0  0  0  0  0  0  0  0  0  0  0
   45.2840    4.8788    9.3924 C   0  0  0  0  0  0  0  0  0  0  0  0
   44.6211    4.1629   10.4807 N   0  0  0  0  0  0  0  0  0  0  0  0
   44.8775    4.8054   11.7683 C   0  0  0  0  0  0  0  0  0  0  0  0
   44.1654    4.0432   12.8752 C   0  0  0  0  0  0  0  0  0  0  0  0
   44.6525    2.6573    9.0605 S   0  0  0  0  0  0  0  0  0  0  0  0
   44.5041    4.0584   10.1302 C   0  0  0  0  0  0  0  0  0  0  0  0
   45.3582    5.1532    9.9833 C   0  0  0  0  0  0  0  0  0  0  0  0
   43.5297    4.0387   11.1345 C   0  0  0  0  0  0  0  0  0  0  0  0
   45.2344    6.2478   10.8387 C   0  0  0  0  0  0  0  0  0  0  0  0
   44.0501    3.0290    7.7988 O   0  0  0  0  0  0  0  0  0  0  0  0
   44.2131    1.4932    9.8012 O   0  0  0  0  0  0  0  0  0  0  0  0
   46.2416    2.5003    8.8091 O   0  0  0  0  0  0  0  0  0  0  0  0
   44.2596    6.2353   11.8391 C   0  0  0  0  0  0  0  0  0  0  0  0
   46.3181    5.1587    9.0076 O   0  0  0  0  0  0  0  0  0  0  0  0
   43.4191    5.1348   11.9805 C   0  0  0  0  0  0  0  0  0  0  0  0
   42.4902    5.1734   12.9763 O   0  0  0  0  0  0  0  0  0  0  0  0
   45.3446    3.1558    8.0712 H   0  0  0  0  0  0  0  0  0  0  0  0
   43.9139    4.1846    7.8552 H   0  0  0  0  0  0  0  0  0  0  0  0
   45.4902    4.7181    7.2500 H   0  0  0  0  0  0  0  0  0  0  0  0
   46.3683    4.8915    9.5519 H   0  0  0  0  0  0  0  0  0  0  0  0
   44.9336    5.9163    9.3439 H   0  0  0  0  0  0  0  0  0  0  0  0
   43.6166    4.1293   10.3077 H   0  0  0  0  0  0  0  0  0  0  0  0
   45.9528    4.8162   11.9793 H   0  0  0  0  0  0  0  0  0  0  0  0
   44.5205    5.8417   11.7597 H   0  0  0  0  0  0  0  0  0  0  0  0
   44.3619    4.5144   13.8437 H   0  0  0  0  0  0  0  0  0  0  0  0
   43.0814    4.0352   12.7185 H   0  0  0  0  0  0  0  0  0  0  0  0
   44.5126    3.0057   12.9285 H   0  0  0  0  0  0  0  0  0  0  0  0
   42.8755    3.1780   11.2442 H   0  0  0  0  0  0  0  0  0  0  0  0
   45.8834    7.1145   10.7524 H   0  0  0  0  0  0  0  0  0  0  0  0
   46.5799    3.3658    8.4832 H   0  0  0  0  0  0  0  0  0  0  0  0
   44.1560    7.0825   12.5130 H   0  0  0  0  0  0  0  0  0  0  0  0
   46.7245    6.0467    8.9827 H   0  0  0  0  0  0  0  0  0  0  0  0
   41.9844    4.3429   12.9744 H   0  0  0  0  0  0  0  0  0  0  0  0
  1  2  1  0
  2  3  1  0
  3  4  1  0
  4  5  1  0
  7  6  1  0
  8  7  2  0
  9  7  1  0
 10  8  1  0
 11  6  2  0
 12  6  2  0
 13  6  1  0
 14 16  1  0
 15  8  1  0
 16  9  2  0
 10 14  2  0
 16 17  1  0
  1 18  1  0
  1 19  1  0
  1 20  1  0
  2 21  1  0
  2 22  1  0
  3 23  1  0
  4 24  1  0
  4 25  1  0
  5 26  1  0
  5 27  1  0
  5 28  1  0
  9 29  1  0
 10 30  1  0
 13 31  1  0
 14 32  1  0
 15 33  1  0
 17 34  1  0
M  END
> <Uni-Dock RESULT> 
ENERGY=   -4.119  LOWER_BOUND=    2.548  UPPER_BOUND=    3.700
INTER + INTRA:          -4.119
INTER:                  -4.119
INTRA:                   0.000
UNBOUND:                 0.000

$$$$

     RDKit          3D

 34 33  0  0  0  0  0  0  0  0999 V2000
   43.9182    4.1019   11.6970 C   0  0  0  0  0  0  0  0  0  0  0  0
   44.9451    4.6723   12.6632 C   0  0  0  0  0  0  0  0  0  0  0  0
   45.1880    6.0800   12.3533 N   0  0  0  0  0  0  0  0  0  0  0  0
   46.1798    6.6561   13.2593 C   0  0  0  0  0  0  0  0  0  0  0  0
   46.4168    8.1156   12.9027 C   0  0  0  0  0  0  0  0  0  0  0  0
   43.3444    5.8501   11.4405 S   0  0  0  0  0  0  0  0  0  0  0  0
   44.9925    5.8912   12.0820 C   0  0  0  0  0  0  0  0  0  0  0  0
   45.4031    4.9576   13.0357 C   0  0  0  0  0  0  0  0  0  0  0  0
   45.8665    6.8863   11.6298 C   0  0  0  0  0  0  0  0  0  0  0  0
   46.7032    5.0068   13.5380 C   0  0  0  0  0  0  0  0  0  0  0  0
   43.2956    4.7670   10.4828 O   0  0  0  0  0  0  0  0  0  0  0  0
   42.9823    7.2045   11.0783 O   0  0  0  0  0  0  0  0  0  0  0  0
   42.4252    5.4230   12.6997 O   0  0  0  0  0  0  0  0  0  0  0  0
   47.5812    5.9946   13.0856 C   0  0  0  0  0  0  0  0  0  0  0  0
   44.5378    3.9963   13.4834 O   0  0  0  0  0  0  0  0  0  0  0  0
   47.1578    6.9245   12.1403 C   0  0  0  0  0  0  0  0  0  0  0  0
   48.0534    7.8693   11.7387 O   0  0  0  0  0  0  0  0  0  0  0  0
   42.9679    4.6421   11.7645 H   0  0  0  0  0  0  0  0  0  0  0  0
   44.2723    4.1578   10.6620 H   0  0  0  0  0  0  0  0  0  0  0  0
   43.7252    3.0498   11.9301 H   0  0  0  0  0  0  0  0  0  0  0  0
   44.5660    4.5691   13.6863 H   0  0  0  0  0  0  0  0  0  0  0  0
   45.8729    4.0943   12.5826 H   0  0  0  0  0  0  0  0  0  0  0  0
   45.5104    6.1687   11.3899 H   0  0  0  0  0  0  0  0  0  0  0  0
   45.8274    6.5961   14.2952 H   0  0  0  0  0  0  0  0  0  0  0  0
   47.1284    6.1114   13.1889 H   0  0  0  0  0  0  0  0  0  0  0  0
   47.1520    8.5554   13.5845 H   0  0  0  0  0  0  0  0  0  0  0  0
   46.8007    8.2182   11.8820 H   0  0  0  0  0  0  0  0  0  0  0  0
   45.4926    8.6980   12.9824 H   0  0  0  0  0  0  0  0  0  0  0  0
   45.5337    7.6122   10.8929 H   0  0  0  0  0  0  0  0  0  0  0  0
   47.0540    4.2966   14.2814 H   0  0  0  0  0  0  0  0  0  0  0  0
   42.7952    4.5893   13.0712 H   0  0  0  0  0  0  0  0  0  0  0  0
   48.5964    6.0434   13.4724 H   0  0  0  0  0  0  0  0  0  0  0  0
   45.0376    3.3709   14.0432 H   0  0  0  0  0  0  0  0  0  0  0  0
   47.6278    8.4600   11.0940 H   0  0  0  0  0  0  0  0  0  0  0  0
  1  2  1  0
  2  3  1  0
  3  4  1  0
  4  5  1  0
  7  6  1  0
  8  7  2  0
  9  7  1  0
 10  8  1  0
 11  6  2  0
 12  6  2  0
 13  6  1  0
 14 16  1  0
 15  8  1  0
 16  9  2  0
 10 14  2  0
 16 17  1  0
  1 18  1  0
  1 19  1  0
  1 20  1  0
  2 21  1  0
  2 22  1  0
  3 23  1  0
  4 24  1  0
  4 25  1  0
  5 26  1  0
  5 27  1  0
  5 28  1  0
  9 29  1  0
 10 30  1  0
 13 31  1  0
 14 32  1  0
 15 33  1  0
 17 34  1  0
M  END
> <Uni-Dock RESULT> 
ENERGY=   -4.111  LOWER_BOUND=    1.317  UPPER_BOUND=    2.654
INTER + INTRA:          -4.111
INTER:                  -4.111
INTRA:                   0.000
UNBOUND:                 0.000

$$$$

     RDKit          3D

 34 33  0  0  0  0  0  0  0  0999 V2000
   47.0081    4.6222   14.5262 C   0  0  0  0  0  0  0  0  0  0  0  0
   46.1353    4.0956   13.3975 C   0  0  0  0  0  0  0  0  0  0  0  0
   45.4358    5.2057   12.7533 N   0  0  0  0  0  0  0  0  0  0  0  0
   44.5788    4.7310   11.6685 C   0  0  0  0  0  0  0  0  0  0  0  0
   43.8586    5.9079   11.0285 C   0  0  0  0  0  0  0  0  0  0  0  0
   46.9825    6.2558   13.6421 S   0  0  0  0  0  0  0  0  0  0  0  0
   45.6029    5.2979   13.0866 C   0  0  0  0  0  0  0  0  0  0  0  0
   45.7227    3.9167   12.9202 C   0  0  0  0  0  0  0  0  0  0  0  0
   44.3998    5.9530   12.8003 C   0  0  0  0  0  0  0  0  0  0  0  0
   44.6288    3.1754   12.4744 C   0  0  0  0  0  0  0  0  0  0  0  0
   47.0959    6.0376   15.0677 O   0  0  0  0  0  0  0  0  0  0  0  0
   46.8456    7.5845   13.0830 O   0  0  0  0  0  0  0  0  0  0  0  0
   48.2674    5.5665   12.9444 O   0  0  0  0  0  0  0  0  0  0  0  0
   43.4240    3.8238   12.1928 C   0  0  0  0  0  0  0  0  0  0  0  0
   46.9072    3.2855   13.1886 O   0  0  0  0  0  0  0  0  0  0  0  0
   43.3191    5.2023   12.3552 C   0  0  0  0  0  0  0  0  0  0  0  0
   42.1228    5.7837   12.0607 O   0  0  0  0  0  0  0  0  0  0  0  0
   47.7530    5.3328   14.1525 H   0  0  0  0  0  0  0  0  0  0  0  0
   46.4073    5.1251   15.2917 H   0  0  0  0  0  0  0  0  0  0  0  0
   47.5420    3.7959   15.0067 H   0  0  0  0  0  0  0  0  0  0  0  0
   46.7696    3.5745   12.6712 H   0  0  0  0  0  0  0  0  0  0  0  0
   45.4187    3.3734   13.8054 H   0  0  0  0  0  0  0  0  0  0  0  0
   44.8728    5.7031   13.4430 H   0  0  0  0  0  0  0  0  0  0  0  0
   45.1795    4.2240   10.9049 H   0  0  0  0  0  0  0  0  0  0  0  0
   43.8363    4.0193   12.0474 H   0  0  0  0  0  0  0  0  0  0  0  0
   43.2224    5.5595   10.2085 H   0  0  0  0  0  0  0  0  0  0  0  0
   43.2206    6.4253   11.7531 H   0  0  0  0  0  0  0  0  0  0  0  0
   44.5704    6.6325   10.6184 H   0  0  0  0  0  0  0  0  0  0  0  0
   44.3204    7.0294   12.9263 H   0  0  0  0  0  0  0  0  0  0  0  0
   44.6888    2.1000   12.3332 H   0  0  0  0  0  0  0  0  0  0  0  0
   48.2521    4.6080   13.1701 H   0  0  0  0  0  0  0  0  0  0  0  0
   42.5655    3.2557   11.8425 H   0  0  0  0  0  0  0  0  0  0  0  0
   46.7596    2.3213   13.1347 H   0  0  0  0  0  0  0  0  0  0  0  0
   42.1903    6.7435   12.2011 H   0  0  0  0  0  0  0  0  0  0  0  0
  1  2  1  0
  2  3  1  0
  3  4  1  0
  4  5  1  0
  7  6  1  0
  8  7  2  0
  9  7  1  0
 10  8  1  0
 11  6  2  0
 12  6  2  0
 13  6  1  0
 14 16  1  0
 15  8  1  0
 16  9  2  0
 10 14  2  0
 16 17  1  0
  1 18  1  0
  1 19  1  0
  1 20  1  0
  2 21  1  0
  2 22  1  0
  3 23  1  0
  4 24  1  0
  4 25  1  0
  5 26  1  0
  5 27  1  0
  5 28  1  0
  9 29  1  0
 10 30  1  0
 13 31  1  0
 14 32  1  0
 15 33  1  0
 17 34  1  0
M  END
> <Uni-Dock RESULT> 
ENERGY=   -3.945  LOWER_BOUND=    1.971  UPPER_BOUND=    4.026
INTER + INTRA:          -3.945
INTER:                  -3.945
INTRA:                   0.000
UNBOUND:                 0.000

$$$$

     RDKit          3D

 34 33  0  0  0  0  0  0  0  0999 V2000
   45.5287    2.1334    8.9128 C   0  0  0  0  0  0  0  0  0  0  0  0
   44.4667    2.5107    9.9340 C   0  0  0  0  0  0  0  0  0  0  0  0
   44.5698    3.9334   10.2530 N   0  0  0  0  0  0  0  0  0  0  0  0
   43.5674    4.3267   11.2415 C   0  0  0  0  0  0  0  0  0  0  0  0
   43.7098    5.8074   11.5584 C   0  0  0  0  0  0  0  0  0  0  0  0
   45.5519    3.9273    8.4308 S   0  0  0  0  0  0  0  0  0  0  0  0
   44.8698    3.7944   10.0576 C   0  0  0  0  0  0  0  0  0  0  0  0
   44.0464    2.7177   10.3929 C   0  0  0  0  0  0  0  0  0  0  0  0
   45.1559    4.7965   10.9917 C   0  0  0  0  0  0  0  0  0  0  0  0
   43.5097    2.6300   11.6771 C   0  0  0  0  0  0  0  0  0  0  0  0
   46.6530    2.9915    8.3615 O   0  0  0  0  0  0  0  0  0  0  0  0
   45.7295    5.3357    8.1449 O   0  0  0  0  0  0  0  0  0  0  0  0
   44.3885    3.3772    7.4526 O   0  0  0  0  0  0  0  0  0  0  0  0
   43.7969    3.6247   12.6148 C   0  0  0  0  0  0  0  0  0  0  0  0
   43.7598    1.7492    9.4692 O   0  0  0  0  0  0  0  0  0  0  0  0
   44.6128    4.6973   12.2663 C   0  0  0  0  0  0  0  0  0  0  0  0
   44.8554    5.6415   13.2179 O   0  0  0  0  0  0  0  0  0  0  0  0
   45.4100    2.7069    7.9874 H   0  0  0  0  0  0  0  0  0  0  0  0
   46.5365    2.3142    9.3021 H   0  0  0  0  0  0  0  0  0  0  0  0
   45.4504    1.0703    8.6629 H   0  0  0  0  0  0  0  0  0  0  0  0
   43.4779    2.2861    9.5180 H   0  0  0  0  0  0  0  0  0  0  0  0
   44.6042    1.9027   10.8356 H   0  0  0  0  0  0  0  0  0  0  0  0
   45.5029    4.1384   10.6100 H   0  0  0  0  0  0  0  0  0  0  0  0
   42.5594    4.1416   10.8536 H   0  0  0  0  0  0  0  0  0  0  0  0
   43.6897    3.7490   12.1650 H   0  0  0  0  0  0  0  0  0  0  0  0
   42.9549    6.1100   12.2913 H   0  0  0  0  0  0  0  0  0  0  0  0
   44.6960    6.0309   11.9792 H   0  0  0  0  0  0  0  0  0  0  0  0
   43.5725    6.4197   10.6607 H   0  0  0  0  0  0  0  0  0  0  0  0
   45.7918    5.6338   10.7172 H   0  0  0  0  0  0  0  0  0  0  0  0
   42.8647    1.8065   11.9699 H   0  0  0  0  0  0  0  0  0  0  0  0
   44.1284    2.4822    7.7707 H   0  0  0  0  0  0  0  0  0  0  0  0
   43.3818    3.5673   13.6183 H   0  0  0  0  0  0  0  0  0  0  0  0
   43.2808    1.0273    9.9207 H   0  0  0  0  0  0  0  0  0  0  0  0
   45.4213    6.3370   12.8416 H   0  0  0  0  0  0  0  0  0  0  0  0
  1  2  1  0
  2  3  1  0
  3  4  1  0
  4  5  1  0
  7  6  1  0
  8  7  2  0
  9  7  1  0
 10  8  1  0
 11  6  2  0
 12  6  2  0
 13  6  1  0
 14 16  1  0
 15  8  1  0
 16  9  2  0
 10 14  2  0
 16 17  1  0
  1 18  1  0
  1 19  1  0
  1 20  1  0
  2 21  1  0
  2 22  1  0
  3 23  1  0
  4 24  1  0
  4 25  1  0
  5 26  1  0
  5 27  1  0
  5 28  1  0
  9 29  1  0
 10 30  1  0
 13 31  1  0
 14 32  1  0
 15 33  1  0
 17 34  1  0
M  END
> <Uni-Dock RESULT> 
ENERGY=   -3.818  LOWER_BOUND=    2.970  UPPER_BOUND=    4.187
INTER + INTRA:          -3.818
INTER:                  -3.818
INTRA:                   0.000
UNBOUND:                 0.000

$$$$

     RDKit          3D

 34 33  0  0  0  0  0  0  0  0999 V2000
   47.1186    7.2749   12.1162 C   0  0  0  0  0  0  0  0  0  0  0  0
   45.6084    7.1006   12.1626 C   0  0  0  0  0  0  0  0  0  0  0  0
   45.2795    5.7532   12.6241 N   0  0  0  0  0  0  0  0  0  0  0  0
   43.8328    5.5497   12.6701 C   0  0  0  0  0  0  0  0  0  0  0  0
   43.5261    4.1369   13.1426 C   0  0  0  0  0  0  0  0  0  0  0  0
   47.2099    5.8959   13.3576 S   0  0  0  0  0  0  0  0  0  0  0  0
   45.6489    5.8011   12.5308 C   0  0  0  0  0  0  0  0  0  0  0  0
   44.9667    6.9658   12.1732 C   0  0  0  0  0  0  0  0  0  0  0  0
   45.1053    4.5402   12.2607 C   0  0  0  0  0  0  0  0  0  0  0  0
   43.7334    6.8758   11.5284 C   0  0  0  0  0  0  0  0  0  0  0  0
   48.1953    6.2314   12.3530 O   0  0  0  0  0  0  0  0  0  0  0  0
   47.3380    4.7155   14.1865 O   0  0  0  0  0  0  0  0  0  0  0  0
   47.0740    7.1687   14.3447 O   0  0  0  0  0  0  0  0  0  0  0  0
   43.1893    5.6194   11.2515 C   0  0  0  0  0  0  0  0  0  0  0  0
   45.4985    8.1955   12.4537 O   0  0  0  0  0  0  0  0  0  0  0  0
   43.8752    4.4655   11.6198 C   0  0  0  0  0  0  0  0  0  0  0  0
   43.2959    3.2670   11.3304 O   0  0  0  0  0  0  0  0  0  0  0  0
   47.5650    7.1273   13.1054 H   0  0  0  0  0  0  0  0  0  0  0  0
   47.5796    6.5642   11.4218 H   0  0  0  0  0  0  0  0  0  0  0  0
   47.3711    8.2857   11.7800 H   0  0  0  0  0  0  0  0  0  0  0  0
   45.1851    7.8484   12.8429 H   0  0  0  0  0  0  0  0  0  0  0  0
   45.1963    7.2765   11.1622 H   0  0  0  0  0  0  0  0  0  0  0  0
   45.7035    5.0645   12.0029 H   0  0  0  0  0  0  0  0  0  0  0  0
   43.3712    6.2637   13.3615 H   0  0  0  0  0  0  0  0  0  0  0  0
   43.3908    5.6999   11.6783 H   0  0  0  0  0  0  0  0  0  0  0  0
   42.4434    3.9817   13.1885 H   0  0  0  0  0  0  0  0  0  0  0  0
   43.9447    3.3897   12.4598 H   0  0  0  0  0  0  0  0  0  0  0  0
   43.9352    3.9560   14.1425 H   0  0  0  0  0  0  0  0  0  0  0  0
   45.6417    3.6406   12.5503 H   0  0  0  0  0  0  0  0  0  0  0  0
   43.1763    7.7620   11.2380 H   0  0  0  0  0  0  0  0  0  0  0  0
   46.7939    7.9405   13.8010 H   0  0  0  0  0  0  0  0  0  0  0  0
   42.2272    5.5378   10.7512 H   0  0  0  0  0  0  0  0  0  0  0  0
   44.9450    8.8745   12.0213 H   0  0  0  0  0  0  0  0  0  0  0  0
   43.8673    2.5493   11.6529 H   0  0  0  0  0  0  0  0  0  0  0  0
  1  2  1  0
  2  3  1  0
  3  4  1  0
  4  5  1  0
  7  6  1  0
  8  7  2  0
  9  7  1  0
 10  8  1  0
 11  6  2  0
 12  6  2  0
 13  6  1  0
 14 16  1  0
 15  8  1  0
 16  9  2  0
 10 14  2  0
 16 17  1  0
  1 18  1  0
  1 19  1  0
  1 20  1  0
  2 21  1  0
  2 22  1  0
  3 23  1  0
  4 24  1  0
  4 25  1  0
  5 26  1  0
  5 27  1  0
  5 28  1  0
  9 29  1  0
 10 30  1  0
 13 31  1  0
 14 32  1  0
 15 33  1  0
 17 34  1  0
M  END
> <Uni-Dock RESULT> 
ENERGY=   -3.726  LOWER_BOUND=    1.565  UPPER_BOUND=    3.745
INTER + INTRA:          -3.726
INTER:                  -3.726
INTRA:                   0.000
UNBOUND:                 0.000

$$$$

     RDKit          3D

 34 33  0  0  0  0  0  0  0  0999 V2000
   44.7117    2.6909    9.9935 C   0  0  0  0  0  0  0  0  0  0  0  0
   43.9828    3.7104   10.8551 C   0  0  0  0  0  0  0  0  0  0  0  0
   44.6266    5.0166   10.7280 N   0  0  0  0  0  0  0  0  0  0  0  0
   43.9548    6.0185   11.5534 C   0  0  0  0  0  0  0  0  0  0  0  0
   44.6553    7.3605   11.4068 C   0  0  0  0  0  0  0  0  0  0  0  0
   45.3214    4.1310    8.9908 S   0  0  0  0  0  0  0  0  0  0  0  0
   44.8316    4.7260   10.5831 C   0  0  0  0  0  0  0  0  0  0  0  0
   43.7215    4.1801   11.2307 C   0  0  0  0  0  0  0  0  0  0  0  0
   45.5653    5.7637   11.1692 C   0  0  0  0  0  0  0  0  0  0  0  0
   43.3426    4.6643   12.4826 C   0  0  0  0  0  0  0  0  0  0  0  0
   45.9967    2.8698    9.2055 O   0  0  0  0  0  0  0  0  0  0  0  0
   45.9584    5.2273    8.2914 O   0  0  0  0  0  0  0  0  0  0  0  0
   43.9326    3.8113    8.2280 O   0  0  0  0  0  0  0  0  0  0  0  0
   44.0751    5.6960   13.0743 C   0  0  0  0  0  0  0  0  0  0  0  0
   43.0006    3.1751   10.6444 O   0  0  0  0  0  0  0  0  0  0  0  0
   45.1753    6.2374   12.4154 C   0  0  0  0  0  0  0  0  0  0  0  0
   45.8499    7.2453   13.0358 O   0  0  0  0  0  0  0  0  0  0  0  0
   44.7000    2.9833    8.9381 H   0  0  0  0  0  0  0  0  0  0  0  0
   45.7552    2.5787   10.3073 H   0  0  0  0  0  0  0  0  0  0  0  0
   44.2282    1.7122   10.0774 H   0  0  0  0  0  0  0  0  0  0  0  0
   42.9381    3.7692   10.5290 H   0  0  0  0  0  0  0  0  0  0  0  0
   43.9968    3.3738   11.8981 H   0  0  0  0  0  0  0  0  0  0  0  0
   45.6058    4.9449   11.0039 H   0  0  0  0  0  0  0  0  0  0  0  0
   42.9097    6.1274   11.2423 H   0  0  0  0  0  0  0  0  0  0  0  0
   43.9681    5.7205   12.6082 H   0  0  0  0  0  0  0  0  0  0  0  0
   44.1504    8.1176   12.0155 H   0  0  0  0  0  0  0  0  0  0  0  0
   45.6979    7.3029   11.7377 H   0  0  0  0  0  0  0  0  0  0  0  0
   44.6436    7.7019   10.3661 H   0  0  0  0  0  0  0  0  0  0  0  0
   46.4229    6.1859   10.6526 H   0  0  0  0  0  0  0  0  0  0  0  0
   42.4837    4.2627   13.0126 H   0  0  0  0  0  0  0  0  0  0  0  0
   43.4073    3.2083    8.8028 H   0  0  0  0  0  0  0  0  0  0  0  0
   43.7870    6.0826   14.0491 H   0  0  0  0  0  0  0  0  0  0  0  0
   42.3504    2.8450   11.2945 H   0  0  0  0  0  0  0  0  0  0  0  0
   46.5799    7.5403   12.4652 H   0  0  0  0  0  0  0  0  0  0  0  0
  1  2  1  0
  2  3  1  0
  3  4  1  0
  4  5  1  0
  7  6  1  0
  8  7  2  0
  9  7  1  0
 10  8  1  0
 11  6  2  0
 12  6  2  0
 13  6  1  0
 14 16  1  0
 15  8  1  0
 16  9  2  0
 10 14  2  0
 16 17  1  0
  1 18  1  0
  1 19  1  0
  1 20  1  0
  2 21  1  0
  2 22  1  0
  3 23  1  0
  4 24  1  0
  4 25  1  0
  5 26  1  0
  5 27  1  0
  5 28  1  0
  9 29  1  0
 10 30  1  0
 13 31  1  0
 14 32  1  0
 15 33  1  0
 17 34  1  0
M  END
> <Uni-Dock RESULT> 
ENERGY=   -3.680  LOWER_BOUND=    2.160  UPPER_BOUND=    3.022
INTER + INTRA:          -3.680
INTER:                  -3.680
INTRA:                   0.000
UNBOUND:                 0.000

$$$$

     RDKit          3D

 34 33  0  0  0  0  0  0  0  0999 V2000
   53.0361    6.0004    8.6808 C   0  0  0  0  0  0  0  0  0  0  0  0
   53.0539    6.8963    7.4519 C   0  0  0  0  0  0  0  0  0  0  0  0
   54.4087    6.9625    6.9070 N   0  0  0  0  0  0  0  0  0  0  0  0
   54.4620    7.8258    5.7287 C   0  0  0  0  0  0  0  0  0  0  0  0
   55.8850    7.8813    5.1948 C   0  0  0  0  0  0  0  0  0  0  0  0
   54.5718    5.2100    7.9966 S   0  0  0  0  0  0  0  0  0  0  0  0
   54.3881    6.8066    7.2574 C   0  0  0  0  0  0  0  0  0  0  0  0
   53.1201    7.2945    6.9351 C   0  0  0  0  0  0  0  0  0  0  0  0
   55.5363    7.5593    6.9861 C   0  0  0  0  0  0  0  0  0  0  0  0
   52.9910    8.5520    6.3459 C   0  0  0  0  0  0  0  0  0  0  0  0
   54.2103    5.3505    9.3903 O   0  0  0  0  0  0  0  0  0  0  0  0
   55.8601    4.6868    7.5925 O   0  0  0  0  0  0  0  0  0  0  0  0
   53.4366    4.2996    7.2927 O   0  0  0  0  0  0  0  0  0  0  0  0
   54.1337    9.3095    6.0783 C   0  0  0  0  0  0  0  0  0  0  0  0
   52.0029    6.5461    7.1906 O   0  0  0  0  0  0  0  0  0  0  0  0
   55.3929    8.8091    6.3972 C   0  0  0  0  0  0  0  0  0  0  0  0
   56.4732    9.5876    6.1093 O   0  0  0  0  0  0  0  0  0  0  0  0
   53.3622    4.9842    8.4349 H   0  0  0  0  0  0  0  0  0  0  0  0
   53.6915    6.3908    9.4668 H   0  0  0  0  0  0  0  0  0  0  0  0
   52.0217    5.9395    9.0880 H   0  0  0  0  0  0  0  0  0  0  0  0
   52.3641    6.4881    6.7044 H   0  0  0  0  0  0  0  0  0  0  0  0
   52.7020    7.8959    7.7318 H   0  0  0  0  0  0  0  0  0  0  0  0
   55.0483    7.3139    7.6194 H   0  0  0  0  0  0  0  0  0  0  0  0
   53.8028    7.4375    4.9440 H   0  0  0  0  0  0  0  0  0  0  0  0
   54.1334    8.8409    5.9797 H   0  0  0  0  0  0  0  0  0  0  0  0
   55.9293    8.5189    4.3059 H   0  0  0  0  0  0  0  0  0  0  0  0
   56.5734    8.2942    5.9399 H   0  0  0  0  0  0  0  0  0  0  0  0
   56.2415    6.8847    4.9127 H   0  0  0  0  0  0  0  0  0  0  0  0
   56.5185    7.1663    7.2345 H   0  0  0  0  0  0  0  0  0  0  0  0
   52.0197    8.9603    6.0816 H   0  0  0  0  0  0  0  0  0  0  0  0
   52.5731    4.7605    7.4019 H   0  0  0  0  0  0  0  0  0  0  0  0
   54.0446   10.2903    5.6171 H   0  0  0  0  0  0  0  0  0  0  0  0
   51.2169    7.0990    7.0147 H   0  0  0  0  0  0  0  0  0  0  0  0
   57.2844    9.1167    6.3661 H   0  0  0  0  0  0  0  0  0  0  0  0
  1  2  1  0
  2  3  1  0
  3  4  1  0
  4  5  1  0
  7  6  1  0
  8  7  2  0
  9  7  1  0
 10  8  1  0
 11  6  2  0
 12  6  2  0
 13  6  1  0
 14 16  1  0
 15  8  1  0
 16  9  2  0
 10 14  2  0
 16 17  1  0
  1 18  1  0
  1 19  1  0
  1 20  1  0
  2 21  1  0
  2 22  1  0
  3 23  1  0
  4 24  1  0
  4 25  1  0
  5 26  1  0
  5 27  1  0
  5 28  1  0
  9 29  1  0
 10 30  1  0
 13 31  1  0
 14 32  1  0
 15 33  1  0
 17 34  1  0
M  END
> <Uni-Dock RESULT> 
ENERGY=   -3.289  LOWER_BOUND=    9.495  UPPER_BOUND=   10.859
INTER + INTRA:          -3.289
INTER:                  -3.289
INTRA:                   0.000
UNBOUND:                 0.000

$$$$
