
     RDKit          3D

 44 43  0  0  0  0  0  0  0  0999 V2000
   -2.5578   -0.7144   -0.5122 C   0  0  0  0  0  0  0  0  0  0  0  0
   -1.1946   -0.6271   -0.2836 C   0  0  0  0  0  0  0  0  0  0  0  0
   -0.5801    0.5485    0.0825 C   0  0  0  0  0  0  0  0  0  0  0  0
   -3.2999    0.4503   -0.3562 C   0  0  0  0  0  0  0  0  0  0  0  0
    2.9501   -0.4230    0.8707 N   0  0  0  0  0  0  0  0  0  0  0  0
   -1.3595    1.6936    0.2290 C   0  0  0  0  0  0  0  0  0  0  0  0
    3.6717    0.0455   -0.2883 C   0  0  0  0  0  0  0  0  0  0  0  0
   -2.7404    1.6549    0.0084 C   0  0  0  0  0  0  0  0  0  0  0  0
    1.5488   -0.6498    0.5910 C   0  0  0  0  0  0  0  0  0  0  0  0
    0.8731    0.6814    0.3370 C   0  0  2  0  0  0  0  0  0  0  0  0
   -4.6819    0.4043   -0.5775 O   0  0  0  0  0  0  0  0  0  0  0  0
   -3.2113   -1.9976   -0.9129 C   0  0  0  0  0  0  0  0  0  0  0  0
    1.0378    1.4368    1.4996 O   0  0  0  0  0  0  0  0  0  0  0  0
   -2.2790   -3.0318   -1.0041 O   0  0  0  0  0  0  0  0  0  0  0  0
    3.5797   -1.0123   -1.3851 C   0  0  0  0  0  0  0  0  0  0  0  0
    5.1309    0.2321    0.0500 C   0  0  0  0  0  0  0  0  0  0  0  0
    3.1125    1.3086   -0.8928 C   0  0  0  0  0  0  0  0  0  0  0  0
   -2.6583    0.3473    0.2058 C   0  0  0  0  0  0  0  0  0  0  0  0
   -1.2909    0.5210    0.4308 C   0  0  0  0  0  0  0  0  0  0  0  0
   -0.4128   -0.5349    0.2984 C   0  0  0  0  0  0  0  0  0  0  0  0
   -3.1162   -0.9217   -0.1571 C   0  0  0  0  0  0  0  0  0  0  0  0
    3.1587   -0.4056   -0.6977 N   0  0  0  0  0  0  0  0  0  0  0  0
   -0.8591   -1.7897   -0.0594 C   0  0  0  0  0  0  0  0  0  0  0  0
    3.6368    0.8816   -0.2341 C   0  0  0  0  0  0  0  0  0  0  0  0
   -2.2239   -1.9860   -0.2898 C   0  0  0  0  0  0  0  0  0  0  0  0
    1.7328   -0.4619   -0.8325 C   0  0  0  0  0  0  0  0  0  0  0  0
    1.0568   -0.3946    0.5275 C   0  0  2  0  0  0  0  0  0  0  0  0
   -4.4672   -1.1635   -0.3966 O   0  0  0  0  0  0  0  0  0  0  0  0
   -3.6236    1.4718    0.3447 C   0  0  0  0  0  0  0  0  0  0  0  0
    1.4838   -1.4832    1.3103 O   0  0  0  0  0  0  0  0  0  0  0  0
   -4.0413    1.9685   -0.8762 O   0  0  0  0  0  0  0  0  0  0  0  0
    5.1627    0.7496   -0.1546 C   0  0  0  0  0  0  0  0  0  0  0  0
    3.1601    1.2022    1.1633 C   0  0  0  0  0  0  0  0  0  0  0  0
    3.3017    1.9990   -1.2127 C   0  0  0  0  0  0  0  0  0  0  0  0
    2.7743    0.6670    0.5510 O   0  0  0  0  0  0  0  0  0  0  0  0
    1.3023   -0.9651    1.1933 O   0  0  0  0  0  0  0  0  0  0  0  0
   -1.3226   -1.8250   -0.8547 O   0  0  0  0  0  0  0  0  0  0  0  0
   -2.5687   -0.7695    0.7239 O   0  0  0  0  0  0  0  0  0  0  0  0
    1.0787    1.3072   -1.4588 O   0  0  0  0  0  0  0  0  0  0  0  0
   -1.0631    1.5612    0.4950 O   0  0  0  0  0  0  0  0  0  0  0  0
    1.5729   -0.0315    0.3840 C   0  0  0  0  0  0  0  0  0  0  0  0
    0.6080    0.2715   -0.6929 C   0  0  0  0  0  0  0  0  0  0  0  0
   -0.7779    0.4862   -0.2541 C   0  0  0  0  0  0  0  0  0  0  0  0
   -1.6037   -0.7021   -0.0867 C   0  0  0  0  0  0  0  0  0  0  0  0
 10  3  1  0
 11  4  1  0
 12  1  1  0
 10 13  1  1
 14 12  1  0
 15  7  1  0
 16  7  1  0
 17  7  1  0
  6  8  1  0
  2  1  2  0
  3  2  1  0
  4  1  1  0
  5  9  1  0
  6  3  2  0
  7  5  1  0
  8  4  2  0
  9 10  1  0
 27 20  1  0
 28 21  1  0
 29 18  1  0
 27 30  1  1
 31 29  1  0
 32 24  1  0
 33 24  1  0
 34 24  1  0
 23 25  1  0
 19 18  2  0
 20 19  1  0
 21 18  1  0
 22 26  1  0
 23 20  2  0
 24 22  1  0
 25 21  2  0
 26 27  1  0
 41 36  2  0
 42 39  1  0
 43 40  1  0
 41 35  1  0
 43 44  1  0
 42 43  1  0
 44 37  1  0
 41 42  1  0
 44 38  2  0
M  END
