
     RDKit          3D

 92 91  0  0  0  0  0  0  0  0999 V2000
   -3.8038    0.0806    0.3148 C   0  0  0  0  0  0  0  0  0  0  0  0
   -2.6440   -0.2256    1.0518 C   0  0  0  0  0  0  0  0  0  0  0  0
   -1.3525   -0.0279    0.5277 C   0  0  0  0  0  0  0  0  0  0  0  0
   -3.6473    0.6031   -0.9699 C   0  0  0  0  0  0  0  0  0  0  0  0
    1.8695   -0.4037   -0.1112 N   0  0  0  0  0  0  0  0  0  0  0  0
   -1.2404    0.4805   -0.7720 C   0  0  0  0  0  0  0  0  0  0  0  0
    3.2378    0.0506   -0.4072 C   0  0  0  0  0  0  0  0  0  0  0  0
   -2.3787    0.7983   -1.5169 C   0  0  0  0  0  0  0  0  0  0  0  0
    1.2123    0.2345    1.0464 C   0  0  0  0  0  0  0  0  0  0  0  0
   -0.1584   -0.4259    1.3782 C   0  0  2  0  0  0  0  0  0  0  0  0
   -4.7587    0.9118   -1.7003 O   0  0  0  0  0  0  0  0  0  0  0  0
   -5.1610   -0.1255    0.9388 C   0  0  0  0  0  0  0  0  0  0  0  0
   -0.0085   -1.8514    1.3298 O   0  0  0  0  0  0  0  0  0  0  0  0
   -5.2815   -1.4489    1.4608 O   0  0  0  0  0  0  0  0  0  0  0  0
    3.6867   -0.7324   -1.6560 C   0  0  0  0  0  0  0  0  0  0  0  0
    3.2767    1.5518   -0.7359 C   0  0  0  0  0  0  0  0  0  0  0  0
    4.2183   -0.2619    0.7360 C   0  0  0  0  0  0  0  0  0  0  0  0
    2.9148    0.2460   -0.0242 C   0  0  0  0  0  0  0  0  0  0  0  0
    1.7906   -0.2763   -0.6808 C   0  0  0  0  0  0  0  0  0  0  0  0
    0.9710   -1.2431   -0.0728 C   0  0  0  0  0  0  0  0  0  0  0  0
    3.2051   -0.2089    1.2658 C   0  0  0  0  0  0  0  0  0  0  0  0
   -1.9026   -0.3354    0.5992 N   0  0  0  0  0  0  0  0  0  0  0  0
    1.3169   -1.7069    1.2035 C   0  0  0  0  0  0  0  0  0  0  0  0
   -2.5499    0.6930   -0.2291 C   0  0  0  0  0  0  0  0  0  0  0  0
    2.4238   -1.1874    1.8751 C   0  0  0  0  0  0  0  0  0  0  0  0
   -1.5793   -1.6356    0.0021 C   0  0  0  0  0  0  0  0  0  0  0  0
   -0.2539   -1.7668   -0.7964 C   0  0  2  0  0  0  0  0  0  0  0  0
    4.2658    0.3351    1.9303 O   0  0  0  0  0  0  0  0  0  0  0  0
    3.7498    1.3056   -0.6907 C   0  0  0  0  0  0  0  0  0  0  0  0
   -0.0430   -3.1453   -1.1248 O   0  0  0  0  0  0  0  0  0  0  0  0
    3.3397    2.5924   -0.2544 O   0  0  0  0  0  0  0  0  0  0  0  0
   -3.7450    0.1575   -1.0353 C   0  0  0  0  0  0  0  0  0  0  0  0
   -1.5574    1.3939   -1.1717 C   0  0  0  0  0  0  0  0  0  0  0  0
   -3.0801    1.7428    0.7711 C   0  0  0  0  0  0  0  0  0  0  0  0
    2.7726    0.1388    0.0461 O   0  0  0  0  0  0  0  0  0  0  0  0
    1.9409    0.4627   -2.0016 O   0  0  0  0  0  0  0  0  0  0  0  0
   -2.4757   -0.6059   -0.0689 O   0  0  0  0  0  0  0  0  0  0  0  0
   -1.9645    0.1440    1.9793 O   0  0  0  0  0  0  0  0  0  0  0  0
   -0.0915   -1.4198   -1.2606 O   0  0  0  0  0  0  0  0  0  0  0  0
    0.2239    1.5006    1.0515 O   0  0  0  0  0  0  0  0  0  0  0  0
    1.7694    0.0588   -0.8596 C   0  0  0  0  0  0  0  0  0  0  0  0
    0.4996   -0.5525   -0.2780 C   0  0  1  0  0  0  0  0  0  0  0  0
   -0.4189    0.6038    0.1371 C   0  0  1  0  0  0  0  0  0  0  0  0
   -1.6699    0.0412    0.7981 C   0  0  0  0  0  0  0  0  0  0  0  0
   -2.7570   -0.6310    2.0586 H   0  0  0  0  0  0  0  0  0  0  0  0
    1.8826   -1.4115    0.0822 H   0  0  0  0  0  0  0  0  0  0  0  0
   -0.2652    0.6299   -1.2328 H   0  0  0  0  0  0  0  0  0  0  0  0
   -2.2538    1.1891   -2.5233 H   0  0  0  0  0  0  0  0  0  0  0  0
    1.0744    1.3096    0.8852 H   0  0  0  0  0  0  0  0  0  0  0  0
    1.8450    0.0980    1.9313 H   0  0  0  0  0  0  0  0  0  0  0  0
   -0.3854   -0.1650    2.4185 H   0  0  0  0  0  0  0  0  0  0  0  0
   -4.4823    1.3300   -2.5329 H   0  0  0  0  0  0  0  0  0  0  0  0
   -5.9777    0.0145    0.2227 H   0  0  0  0  0  0  0  0  0  0  0  0
   -5.3099    0.5867    1.7593 H   0  0  0  0  0  0  0  0  0  0  0  0
   -0.3934   -2.1311    0.4815 H   0  0  0  0  0  0  0  0  0  0  0  0
   -4.7891   -2.0317    0.8563 H   0  0  0  0  0  0  0  0  0  0  0  0
    3.7017   -1.8132   -1.4703 H   0  0  0  0  0  0  0  0  0  0  0  0
    4.6975   -0.4452   -1.9603 H   0  0  0  0  0  0  0  0  0  0  0  0
    3.0220   -0.5452   -2.5086 H   0  0  0  0  0  0  0  0  0  0  0  0
    2.5605    1.8061   -1.5246 H   0  0  0  0  0  0  0  0  0  0  0  0
    4.2717    1.8531   -1.0842 H   0  0  0  0  0  0  0  0  0  0  0  0
    3.0481    2.1688    0.1397 H   0  0  0  0  0  0  0  0  0  0  0  0
    4.0356    0.3630    1.6164 H   0  0  0  0  0  0  0  0  0  0  0  0
    4.1551   -1.3132    1.0444 H   0  0  0  0  0  0  0  0  0  0  0  0
    5.2529   -0.0695    0.4261 H   0  0  0  0  0  0  0  0  0  0  0  0
    1.5403    0.0974   -1.6739 H   0  0  0  0  0  0  0  0  0  0  0  0
   -1.0750    0.0525    1.0558 H   0  0  0  0  0  0  0  0  0  0  0  0
    0.7137   -2.4706    1.6882 H   0  0  0  0  0  0  0  0  0  0  0  0
    2.6547   -1.5536    2.8711 H   0  0  0  0  0  0  0  0  0  0  0  0
   -1.5293   -2.3445    0.8388 H   0  0  0  0  0  0  0  0  0  0  0  0
   -2.4063   -2.0282   -0.6009 H   0  0  0  0  0  0  0  0  0  0  0  0
   -0.3669   -1.2471   -1.7526 H   0  0  0  0  0  0  0  0  0  0  0  0
    4.2996   -0.0352    2.8279 H   0  0  0  0  0  0  0  0  0  0  0  0
    4.8125    1.1697   -0.4647 H   0  0  0  0  0  0  0  0  0  0  0  0
    3.6502    1.2603   -1.7799 H   0  0  0  0  0  0  0  0  0  0  0  0
    0.9180   -3.2953   -1.1436 H   0  0  0  0  0  0  0  0  0  0  0  0
    3.2765    2.5335    0.7160 H   0  0  0  0  0  0  0  0  0  0  0  0
   -3.4255   -0.4915   -1.8582 H   0  0  0  0  0  0  0  0  0  0  0  0
   -4.4374   -0.4090   -0.3979 H   0  0  0  0  0  0  0  0  0  0  0  0
   -4.3130    0.9818   -1.4893 H   0  0  0  0  0  0  0  0  0  0  0  0
   -0.6813    1.7713   -0.6292 H   0  0  0  0  0  0  0  0  0  0  0  0
   -2.0279    2.2584   -1.6569 H   0  0  0  0  0  0  0  0  0  0  0  0
   -1.2092    0.7326   -1.9705 H   0  0  0  0  0  0  0  0  0  0  0  0
   -2.2680    2.1983    1.3488 H   0  0  0  0  0  0  0  0  0  0  0  0
   -3.6039    2.5588    0.2570 H   0  0  0  0  0  0  0  0  0  0  0  0
   -3.7881    1.2994    1.4842 H   0  0  0  0  0  0  0  0  0  0  0  0
    3.4999    0.5677   -0.4538 H   0  0  0  0  0  0  0  0  0  0  0  0
   -3.2801   -0.8259    0.4590 H   0  0  0  0  0  0  0  0  0  0  0  0
   -1.0471   -1.2142   -1.3391 H   0  0  0  0  0  0  0  0  0  0  0  0
    0.2054    1.0844    1.9381 H   0  0  0  0  0  0  0  0  0  0  0  0
    0.7701   -1.1785    0.5818 H   0  0  0  0  0  0  0  0  0  0  0  0
   -0.7340    1.1949   -0.7293 H   0  0  0  0  0  0  0  0  0  0  0  0
 10  3  1  0
 11  4  1  0
 12  1  1  0
 10 13  1  0
 14 12  1  0
 15  7  1  0
 16  7  1  0
 17  7  1  0
  6  8  1  0
  2  1  2  0
  3  2  1  0
  4  1  1  0
  5  9  1  0
  6  3  2  0
  7  5  1  0
  8  4  2  0
  9 10  1  0
 27 20  1  0
 28 21  1  0
 29 18  1  0
 27 30  1  0
 31 29  1  0
 32 24  1  0
 33 24  1  0
 34 24  1  0
 23 25  1  0
 19 18  2  0
 20 19  1  0
 21 18  1  0
 22 26  1  0
 23 20  2  0
 24 22  1  0
 25 21  2  0
 26 27  1  0
 41 36  2  0
 42 39  1  0
 43 40  1  0
 41 35  1  0
 43 44  1  0
 42 43  1  0
 44 37  1  0
 41 42  1  0
 44 38  2  0
  2 45  1  0
  5 46  1  0
  6 47  1  0
  8 48  1  0
  9 49  1  0
  9 50  1  0
 10 51  1  1
 11 52  1  0
 12 53  1  0
 12 54  1  0
 13 55  1  0
 14 56  1  0
 15 57  1  0
 15 58  1  0
 15 59  1  0
 16 60  1  0
 16 61  1  0
 16 62  1  0
 17 63  1  0
 17 64  1  0
 17 65  1  0
 19 66  1  0
 22 67  1  0
 23 68  1  0
 25 69  1  0
 26 70  1  0
 26 71  1  0
 27 72  1  6
 28 73  1  0
 29 74  1  0
 29 75  1  0
 30 76  1  0
 31 77  1  0
 32 78  1  0
 32 79  1  0
 32 80  1  0
 33 81  1  0
 33 82  1  0
 33 83  1  0
 34 84  1  0
 34 85  1  0
 34 86  1  0
 35 87  1  0
 37 88  1  0
 39 89  1  0
 40 90  1  0
 42 91  1  1
 43 92  1  6
M  END
$$$$
