
     RDKit          3D

 92 91  0  0  0  0  0  0  0  0999 V2000
    3.5184    0.8195    0.2522 C   0  0  0  0  0  0  0  0  0  0  0  0
    2.2648    0.8146   -0.3833 C   0  0  0  0  0  0  0  0  0  0  0  0
    1.5811   -0.3860   -0.6504 C   0  0  0  0  0  0  0  0  0  0  0  0
    4.0879   -0.4097    0.6003 C   0  0  0  0  0  0  0  0  0  0  0  0
   -2.1972    0.1661   -0.9159 N   0  0  0  0  0  0  0  0  0  0  0  0
    2.1754   -1.5963   -0.2659 C   0  0  0  0  0  0  0  0  0  0  0  0
   -3.3889    0.1467   -0.0501 C   0  0  0  0  0  0  0  0  0  0  0  0
    3.4261   -1.6109    0.3526 C   0  0  0  0  0  0  0  0  0  0  0  0
   -0.9105   -0.1228   -0.2654 C   0  0  0  0  0  0  0  0  0  0  0  0
    0.2164   -0.3394   -1.3117 C   0  0  2  0  0  0  0  0  0  0  0  0
    5.3141   -0.4158    1.2085 O   0  0  0  0  0  0  0  0  0  0  0  0
    4.2332    2.1292    0.4767 C   0  0  0  0  0  0  0  0  0  0  0  0
    0.0012   -1.5523   -2.0479 O   0  0  0  0  0  0  0  0  0  0  0  0
    4.7692    2.2309    1.7890 O   0  0  0  0  0  0  0  0  0  0  0  0
   -4.5425    0.7161   -0.8973 C   0  0  0  0  0  0  0  0  0  0  0  0
   -3.7465   -1.2909    0.3604 C   0  0  0  0  0  0  0  0  0  0  0  0
   -3.2244    1.0248    1.1998 C   0  0  0  0  0  0  0  0  0  0  0  0
    3.7748    0.1004   -0.0060 C   0  0  0  0  0  0  0  0  0  0  0  0
    2.5661   -0.2119    0.6426 C   0  0  0  0  0  0  0  0  0  0  0  0
    1.4671    0.6596    0.5962 C   0  0  0  0  0  0  0  0  0  0  0  0
    3.8657    1.3100   -0.6997 C   0  0  0  0  0  0  0  0  0  0  0  0
   -2.1585   -0.5238    0.9574 N   0  0  0  0  0  0  0  0  0  0  0  0
    1.5927    1.8650   -0.1093 C   0  0  0  0  0  0  0  0  0  0  0  0
   -3.3549   -0.7095    0.1186 C   0  0  0  0  0  0  0  0  0  0  0  0
    2.7868    2.1905   -0.7539 C   0  0  0  0  0  0  0  0  0  0  0  0
   -0.9463   -0.0602    0.2636 C   0  0  0  0  0  0  0  0  0  0  0  0
    0.1682    0.2856    1.2817 C   0  0  2  0  0  0  0  0  0  0  0  0
    5.0331    1.6264   -1.3348 O   0  0  0  0  0  0  0  0  0  0  0  0
    4.9259   -0.8672    0.0791 C   0  0  0  0  0  0  0  0  0  0  0  0
   -0.2638    1.3724    2.1112 O   0  0  0  0  0  0  0  0  0  0  0  0
    4.5433   -2.1439   -0.4283 O   0  0  0  0  0  0  0  0  0  0  0  0
   -3.9145    0.6349   -0.3768 C   0  0  0  0  0  0  0  0  0  0  0  0
   -4.4107   -1.3705    1.0258 C   0  0  0  0  0  0  0  0  0  0  0  0
   -3.0899   -1.6388   -1.0778 C   0  0  0  0  0  0  0  0  0  0  0  0
   -2.3587    0.5187   -0.9898 O   0  0  0  0  0  0  0  0  0  0  0  0
   -2.5501    0.4812    1.2377 O   0  0  0  0  0  0  0  0  0  0  0  0
    2.4561   -0.2463   -1.0069 O   0  0  0  0  0  0  0  0  0  0  0  0
    2.4453   -0.7737    1.1676 O   0  0  0  0  0  0  0  0  0  0  0  0
    0.0540    1.6168   -0.7900 O   0  0  0  0  0  0  0  0  0  0  0  0
   -0.1439   -1.6458    0.9650 O   0  0  0  0  0  0  0  0  0  0  0  0
   -1.8296    0.5477    0.2568 C   0  0  0  0  0  0  0  0  0  0  0  0
   -0.3146    0.6814    0.2323 C   0  0  1  0  0  0  0  0  0  0  0  0
    0.3149   -0.6904   -0.0022 C   0  0  1  0  0  0  0  0  0  0  0  0
    1.8236   -0.5744    0.1341 C   0  0  0  0  0  0  0  0  0  0  0  0
    1.8125    1.7608   -0.6796 H   0  0  0  0  0  0  0  0  0  0  0  0
   -2.3479   -0.4129   -1.7393 H   0  0  0  0  0  0  0  0  0  0  0  0
    1.6698   -2.5396   -0.4614 H   0  0  0  0  0  0  0  0  0  0  0  0
    3.8605   -2.5662    0.6314 H   0  0  0  0  0  0  0  0  0  0  0  0
   -0.9896   -1.0268    0.3489 H   0  0  0  0  0  0  0  0  0  0  0  0
   -0.6403    0.7140    0.3886 H   0  0  0  0  0  0  0  0  0  0  0  0
    0.2091    0.4754   -2.0475 H   0  0  0  0  0  0  0  0  0  0  0  0
    5.6214   -1.3388    1.2575 H   0  0  0  0  0  0  0  0  0  0  0  0
    3.5549    2.9770    0.3369 H   0  0  0  0  0  0  0  0  0  0  0  0
    5.0492    2.2252   -0.2468 H   0  0  0  0  0  0  0  0  0  0  0  0
   -0.9017   -1.8542   -1.8621 H   0  0  0  0  0  0  0  0  0  0  0  0
    5.1565    1.3543    1.9809 H   0  0  0  0  0  0  0  0  0  0  0  0
   -5.4782    0.7389   -0.3261 H   0  0  0  0  0  0  0  0  0  0  0  0
   -4.7215    0.1106   -1.7943 H   0  0  0  0  0  0  0  0  0  0  0  0
   -4.3305    1.7422   -1.2221 H   0  0  0  0  0  0  0  0  0  0  0  0
   -3.0017   -1.7221    1.0368 H   0  0  0  0  0  0  0  0  0  0  0  0
   -3.8261   -1.9468   -0.5135 H   0  0  0  0  0  0  0  0  0  0  0  0
   -4.7098   -1.3206    0.8812 H   0  0  0  0  0  0  0  0  0  0  0  0
   -2.4645    0.6269    1.8820 H   0  0  0  0  0  0  0  0  0  0  0  0
   -2.9377    2.0486    0.9319 H   0  0  0  0  0  0  0  0  0  0  0  0
   -4.1622    1.0840    1.7649 H   0  0  0  0  0  0  0  0  0  0  0  0
    2.4880   -1.1550    1.1840 H   0  0  0  0  0  0  0  0  0  0  0  0
   -2.3585    0.1478    1.7044 H   0  0  0  0  0  0  0  0  0  0  0  0
    0.7552    2.5589   -0.1588 H   0  0  0  0  0  0  0  0  0  0  0  0
    2.8561    3.1309   -1.2921 H   0  0  0  0  0  0  0  0  0  0  0  0
   -0.5786   -0.8369   -0.4142 H   0  0  0  0  0  0  0  0  0  0  0  0
   -1.1730    0.8351   -0.3240 H   0  0  0  0  0  0  0  0  0  0  0  0
    0.3335   -0.5686    1.9489 H   0  0  0  0  0  0  0  0  0  0  0  0
    4.9226    2.4720   -1.8025 H   0  0  0  0  0  0  0  0  0  0  0  0
    5.7989   -0.5335   -0.4899 H   0  0  0  0  0  0  0  0  0  0  0  0
    5.2375   -0.9863    1.1237 H   0  0  0  0  0  0  0  0  0  0  0  0
    0.5322    1.7229    2.5460 H   0  0  0  0  0  0  0  0  0  0  0  0
    3.9451   -1.9778   -1.1788 H   0  0  0  0  0  0  0  0  0  0  0  0
   -3.2355    1.1299   -1.0786 H   0  0  0  0  0  0  0  0  0  0  0  0
   -4.8696    0.4919   -0.8976 H   0  0  0  0  0  0  0  0  0  0  0  0
   -4.0950    1.3220    0.4579 H   0  0  0  0  0  0  0  0  0  0  0  0
   -4.0590   -2.3352    1.4110 H   0  0  0  0  0  0  0  0  0  0  0  0
   -5.3418   -1.5561    0.4769 H   0  0  0  0  0  0  0  0  0  0  0  0
   -4.6579   -0.7369    1.8857 H   0  0  0  0  0  0  0  0  0  0  0  0
   -2.4128   -1.1833   -1.8079 H   0  0  0  0  0  0  0  0  0  0  0  0
   -4.0226   -1.8722   -1.6060 H   0  0  0  0  0  0  0  0  0  0  0  0
   -2.6495   -2.5889   -0.7535 H   0  0  0  0  0  0  0  0  0  0  0  0
   -3.3235    0.4296   -0.8236 H   0  0  0  0  0  0  0  0  0  0  0  0
    3.4039   -0.1973   -0.7625 H   0  0  0  0  0  0  0  0  0  0  0  0
   -0.4531    1.3646   -1.5876 H   0  0  0  0  0  0  0  0  0  0  0  0
    0.4019   -1.5284    1.7700 H   0  0  0  0  0  0  0  0  0  0  0  0
   -0.0041    1.1062    1.1931 H   0  0  0  0  0  0  0  0  0  0  0  0
    0.0777   -1.0899   -0.9938 H   0  0  0  0  0  0  0  0  0  0  0  0
 10  3  1  0
 11  4  1  0
 12  1  1  0
 10 13  1  0
 14 12  1  0
 15  7  1  0
 16  7  1  0
 17  7  1  0
  6  8  1  0
  2  1  2  0
  3  2  1  0
  4  1  1  0
  5  9  1  0
  6  3  2  0
  7  5  1  0
  8  4  2  0
  9 10  1  0
 27 20  1  0
 28 21  1  0
 29 18  1  0
 27 30  1  0
 31 29  1  0
 32 24  1  0
 33 24  1  0
 34 24  1  0
 23 25  1  0
 19 18  2  0
 20 19  1  0
 21 18  1  0
 22 26  1  0
 23 20  2  0
 24 22  1  0
 25 21  2  0
 26 27  1  0
 41 36  2  0
 42 39  1  0
 43 40  1  0
 41 35  1  0
 43 44  1  0
 42 43  1  0
 44 37  1  0
 41 42  1  0
 44 38  2  0
  2 45  1  0
  5 46  1  0
  6 47  1  0
  8 48  1  0
  9 49  1  0
  9 50  1  0
 10 51  1  6
 11 52  1  0
 12 53  1  0
 12 54  1  0
 13 55  1  0
 14 56  1  0
 15 57  1  0
 15 58  1  0
 15 59  1  0
 16 60  1  0
 16 61  1  0
 16 62  1  0
 17 63  1  0
 17 64  1  0
 17 65  1  0
 19 66  1  0
 22 67  1  0
 23 68  1  0
 25 69  1  0
 26 70  1  0
 26 71  1  0
 27 72  1  1
 28 73  1  0
 29 74  1  0
 29 75  1  0
 30 76  1  0
 31 77  1  0
 32 78  1  0
 32 79  1  0
 32 80  1  0
 33 81  1  0
 33 82  1  0
 33 83  1  0
 34 84  1  0
 34 85  1  0
 34 86  1  0
 35 87  1  0
 37 88  1  0
 39 89  1  0
 40 90  1  0
 42 91  1  1
 43 92  1  6
M  END
$$$$
