
     RDKit          3D

 92 91  0  0  0  0  0  0  0  0999 V2000
    2.9748    0.3309    0.0246 C   0  0  0  0  0  0  0  0  0  0  0  0
    1.7663    0.4638    0.7287 C   0  0  0  0  0  0  0  0  0  0  0  0
    0.9798   -0.6555    1.0533 C   0  0  0  0  0  0  0  0  0  0  0  0
    3.3982   -0.9557   -0.3302 C   0  0  0  0  0  0  0  0  0  0  0  0
   -1.5047    0.8782   -0.0182 N   0  0  0  0  0  0  0  0  0  0  0  0
    1.4466   -1.9306    0.6946 C   0  0  0  0  0  0  0  0  0  0  0  0
   -2.6681    0.2186   -0.6251 C   0  0  0  0  0  0  0  0  0  0  0  0
    2.6501   -2.0833    0.0065 C   0  0  0  0  0  0  0  0  0  0  0  0
   -1.2439    0.6644    1.4111 C   0  0  0  0  0  0  0  0  0  0  0  0
   -0.3295   -0.5292    1.8121 C   0  0  2  0  0  0  0  0  0  0  0  0
    4.5731   -1.0925   -1.0170 O   0  0  0  0  0  0  0  0  0  0  0  0
    3.8034    1.5245   -0.3745 C   0  0  0  0  0  0  0  0  0  0  0  0
   -0.0484   -0.4370    3.2140 O   0  0  0  0  0  0  0  0  0  0  0  0
    3.2821    2.7441    0.1489 O   0  0  0  0  0  0  0  0  0  0  0  0
   -3.9858    0.7420   -0.0274 C   0  0  0  0  0  0  0  0  0  0  0  0
   -2.6141   -1.3095   -0.5179 C   0  0  0  0  0  0  0  0  0  0  0  0
   -2.6396    0.6007   -2.1216 C   0  0  0  0  0  0  0  0  0  0  0  0
    3.9487   -0.0601   -0.0264 C   0  0  0  0  0  0  0  0  0  0  0  0
    2.7107   -0.5437    0.4320 C   0  0  0  0  0  0  0  0  0  0  0  0
    1.4986    0.0864    0.0916 C   0  0  0  0  0  0  0  0  0  0  0  0
    3.9577    1.0701   -0.8456 C   0  0  0  0  0  0  0  0  0  0  0  0
   -2.2361   -0.8873    0.3801 N   0  0  0  0  0  0  0  0  0  0  0  0
    1.5512    1.2334   -0.7081 C   0  0  0  0  0  0  0  0  0  0  0  0
   -3.5606   -0.4229   -0.0672 C   0  0  0  0  0  0  0  0  0  0  0  0
    2.7735    1.7168   -1.1848 C   0  0  0  0  0  0  0  0  0  0  0  0
   -1.0760   -0.1680   -0.1725 C   0  0  0  0  0  0  0  0  0  0  0  0
    0.2034   -0.4813    0.6439 C   0  0  2  0  0  0  0  0  0  0  0  0
    5.1479    1.5450   -1.3137 O   0  0  0  0  0  0  0  0  0  0  0  0
    5.2125   -0.7823    0.3600 C   0  0  0  0  0  0  0  0  0  0  0  0
    0.0096    0.0041    1.9815 O   0  0  0  0  0  0  0  0  0  0  0  0
    5.3347   -0.8349    1.7778 O   0  0  0  0  0  0  0  0  0  0  0  0
   -4.5718   -1.4574    0.4588 C   0  0  0  0  0  0  0  0  0  0  0  0
   -3.9039    0.9508    0.5387 C   0  0  0  0  0  0  0  0  0  0  0  0
   -3.6755   -0.3614   -1.5969 C   0  0  0  0  0  0  0  0  0  0  0  0
    1.9312    1.7231   -0.1642 O   0  0  0  0  0  0  0  0  0  0  0  0
    1.4497    0.6400    1.7319 O   0  0  0  0  0  0  0  0  0  0  0  0
   -1.5863    1.0065    0.8258 O   0  0  0  0  0  0  0  0  0  0  0  0
   -2.7095   -0.4265   -0.4577 O   0  0  0  0  0  0  0  0  0  0  0  0
    0.4295    0.1673   -1.7111 O   0  0  0  0  0  0  0  0  0  0  0  0
   -0.6788   -2.2762   -0.4380 O   0  0  0  0  0  0  0  0  0  0  0  0
    1.3750    0.6920    0.5146 C   0  0  0  0  0  0  0  0  0  0  0  0
    0.7690   -0.3496   -0.4213 C   0  0  1  0  0  0  0  0  0  0  0  0
   -0.4373   -1.0250    0.2285 C   0  0  1  0  0  0  0  0  0  0  0  0
   -1.6815   -0.1478    0.1433 C   0  0  0  0  0  0  0  0  0  0  0  0
    1.4294    1.4611    1.0127 H   0  0  0  0  0  0  0  0  0  0  0  0
   -0.6610    0.6686   -0.5508 H   0  0  0  0  0  0  0  0  0  0  0  0
    0.8693   -2.8188    0.9543 H   0  0  0  0  0  0  0  0  0  0  0  0
    2.9842   -3.0827   -0.2556 H   0  0  0  0  0  0  0  0  0  0  0  0
   -0.7725    1.5849    1.7821 H   0  0  0  0  0  0  0  0  0  0  0  0
   -2.1711    0.6084    1.9924 H   0  0  0  0  0  0  0  0  0  0  0  0
   -0.9021   -1.4513    1.6805 H   0  0  0  0  0  0  0  0  0  0  0  0
    4.7445   -2.0403   -1.1496 H   0  0  0  0  0  0  0  0  0  0  0  0
    4.8265    1.4138   -0.0042 H   0  0  0  0  0  0  0  0  0  0  0  0
    3.8109    1.6051   -1.4669 H   0  0  0  0  0  0  0  0  0  0  0  0
    0.8880   -0.1818    3.3100 H   0  0  0  0  0  0  0  0  0  0  0  0
    3.8313    3.4543   -0.2177 H   0  0  0  0  0  0  0  0  0  0  0  0
   -4.0307    1.8376   -0.0568 H   0  0  0  0  0  0  0  0  0  0  0  0
   -4.8466    0.3633   -0.5911 H   0  0  0  0  0  0  0  0  0  0  0  0
   -4.1225    0.4283    1.0126 H   0  0  0  0  0  0  0  0  0  0  0  0
   -2.7731   -1.6457    0.5108 H   0  0  0  0  0  0  0  0  0  0  0  0
   -3.3959   -1.7757   -1.1298 H   0  0  0  0  0  0  0  0  0  0  0  0
   -1.6506   -1.7010   -0.8652 H   0  0  0  0  0  0  0  0  0  0  0  0
   -2.7044    1.6883   -2.2597 H   0  0  0  0  0  0  0  0  0  0  0  0
   -3.4778    0.1495   -2.6639 H   0  0  0  0  0  0  0  0  0  0  0  0
   -1.7160    0.2603   -2.6017 H   0  0  0  0  0  0  0  0  0  0  0  0
    2.6973   -1.4312    1.0684 H   0  0  0  0  0  0  0  0  0  0  0  0
   -2.1787   -0.8174    1.4028 H   0  0  0  0  0  0  0  0  0  0  0  0
    0.6464    1.7682   -0.9801 H   0  0  0  0  0  0  0  0  0  0  0  0
    2.7806    2.6061   -1.8080 H   0  0  0  0  0  0  0  0  0  0  0  0
   -1.2553    0.9113   -0.1294 H   0  0  0  0  0  0  0  0  0  0  0  0
   -0.9258   -0.4603   -1.2180 H   0  0  0  0  0  0  0  0  0  0  0  0
    0.3114   -1.5724    0.7081 H   0  0  0  0  0  0  0  0  0  0  0  0
    4.9766    2.2580   -1.9556 H   0  0  0  0  0  0  0  0  0  0  0  0
    6.1096   -0.2997   -0.0360 H   0  0  0  0  0  0  0  0  0  0  0  0
    5.1915   -1.8055   -0.0268 H   0  0  0  0  0  0  0  0  0  0  0  0
    0.8281    0.4583    2.2553 H   0  0  0  0  0  0  0  0  0  0  0  0
    5.1463    0.0649    2.0965 H   0  0  0  0  0  0  0  0  0  0  0  0
   -4.3673   -2.4551    0.0579 H   0  0  0  0  0  0  0  0  0  0  0  0
   -4.5477   -1.5267    1.5510 H   0  0  0  0  0  0  0  0  0  0  0  0
   -5.5960   -1.1945    0.1707 H   0  0  0  0  0  0  0  0  0  0  0  0
   -3.3012    1.7536    0.1064 H   0  0  0  0  0  0  0  0  0  0  0  0
   -3.7499    0.9646    1.6231 H   0  0  0  0  0  0  0  0  0  0  0  0
   -4.9556    1.2043    0.3572 H   0  0  0  0  0  0  0  0  0  0  0  0
   -3.0164    0.3982   -2.0313 H   0  0  0  0  0  0  0  0  0  0  0  0
   -4.6977   -0.1093   -1.9060 H   0  0  0  0  0  0  0  0  0  0  0  0
   -3.4208   -1.3232   -2.0553 H   0  0  0  0  0  0  0  0  0  0  0  0
    2.2792    2.3036    0.5487 H   0  0  0  0  0  0  0  0  0  0  0  0
   -2.4507    1.4470    0.6794 H   0  0  0  0  0  0  0  0  0  0  0  0
    1.2144    0.6632   -2.0122 H   0  0  0  0  0  0  0  0  0  0  0  0
   -1.1961   -2.0518   -1.2393 H   0  0  0  0  0  0  0  0  0  0  0  0
    1.5538   -1.0985   -0.5949 H   0  0  0  0  0  0  0  0  0  0  0  0
   -0.2616   -1.2671    1.2825 H   0  0  0  0  0  0  0  0  0  0  0  0
 10  3  1  0
 11  4  1  0
 12  1  1  0
 10 13  1  0
 14 12  1  0
 15  7  1  0
 16  7  1  0
 17  7  1  0
  6  8  1  0
  2  1  2  0
  3  2  1  0
  4  1  1  0
  5  9  1  0
  6  3  2  0
  7  5  1  0
  8  4  2  0
  9 10  1  0
 27 20  1  0
 28 21  1  0
 29 18  1  0
 27 30  1  0
 31 29  1  0
 32 24  1  0
 33 24  1  0
 34 24  1  0
 23 25  1  0
 19 18  2  0
 20 19  1  0
 21 18  1  0
 22 26  1  0
 23 20  2  0
 24 22  1  0
 25 21  2  0
 26 27  1  0
 41 36  2  0
 42 39  1  0
 43 40  1  0
 41 35  1  0
 43 44  1  0
 42 43  1  0
 44 37  1  0
 41 42  1  0
 44 38  2  0
  2 45  1  0
  5 46  1  0
  6 47  1  0
  8 48  1  0
  9 49  1  0
  9 50  1  0
 10 51  1  1
 11 52  1  0
 12 53  1  0
 12 54  1  0
 13 55  1  0
 14 56  1  0
 15 57  1  0
 15 58  1  0
 15 59  1  0
 16 60  1  0
 16 61  1  0
 16 62  1  0
 17 63  1  0
 17 64  1  0
 17 65  1  0
 19 66  1  0
 22 67  1  0
 23 68  1  0
 25 69  1  0
 26 70  1  0
 26 71  1  0
 27 72  1  1
 28 73  1  0
 29 74  1  0
 29 75  1  0
 30 76  1  0
 31 77  1  0
 32 78  1  0
 32 79  1  0
 32 80  1  0
 33 81  1  0
 33 82  1  0
 33 83  1  0
 34 84  1  0
 34 85  1  0
 34 86  1  0
 35 87  1  0
 37 88  1  0
 39 89  1  0
 40 90  1  0
 42 91  1  6
 43 92  1  1
M  END
$$$$
