
     RDKit          3D

 92 91  0  0  0  0  0  0  0  0999 V2000
    3.3888    0.3870   -0.7013 C   0  0  0  0  0  0  0  0  0  0  0  0
    1.9940    0.3277   -0.5375 C   0  0  0  0  0  0  0  0  0  0  0  0
    1.3059   -0.8992   -0.4769 C   0  0  0  0  0  0  0  0  0  0  0  0
    4.0886   -0.8157   -0.8407 C   0  0  0  0  0  0  0  0  0  0  0  0
   -2.0687   -0.3952    1.3767 N   0  0  0  0  0  0  0  0  0  0  0  0
    2.0470   -2.0809   -0.6257 C   0  0  0  0  0  0  0  0  0  0  0  0
   -3.1249    0.2822    0.5904 C   0  0  0  0  0  0  0  0  0  0  0  0
    3.4302   -2.0427   -0.8063 C   0  0  0  0  0  0  0  0  0  0  0  0
   -0.6563   -0.1670    0.9924 C   0  0  0  0  0  0  0  0  0  0  0  0
   -0.2013   -0.9179   -0.2852 C   0  0  2  0  0  0  0  0  0  0  0  0
    5.4447   -0.7709   -1.0162 O   0  0  0  0  0  0  0  0  0  0  0  0
    4.1357    1.6951   -0.7440 C   0  0  0  0  0  0  0  0  0  0  0  0
   -0.6885   -2.2643   -0.1952 O   0  0  0  0  0  0  0  0  0  0  0  0
    3.2880    2.8118   -0.4839 O   0  0  0  0  0  0  0  0  0  0  0  0
   -4.3240    0.4736    1.5468 C   0  0  0  0  0  0  0  0  0  0  0  0
   -3.5930   -0.6258   -0.5592 C   0  0  0  0  0  0  0  0  0  0  0  0
   -2.7351    1.6634    0.0382 C   0  0  0  0  0  0  0  0  0  0  0  0
    3.0331   -0.2751   -0.5103 C   0  0  0  0  0  0  0  0  0  0  0  0
    2.0485    0.3242    0.2960 C   0  0  0  0  0  0  0  0  0  0  0  0
    1.3629   -0.4028    1.2833 C   0  0  0  0  0  0  0  0  0  0  0  0
    3.2987   -1.6349   -0.3310 C   0  0  0  0  0  0  0  0  0  0  0  0
   -1.4517    0.7869    0.4419 N   0  0  0  0  0  0  0  0  0  0  0  0
    1.6715   -1.7612    1.4479 C   0  0  0  0  0  0  0  0  0  0  0  0
   -2.7778    0.5817   -0.1720 C   0  0  0  0  0  0  0  0  0  0  0  0
    2.6325   -2.3761    0.6435 C   0  0  0  0  0  0  0  0  0  0  0  0
   -1.1506   -0.0550    1.6173 C   0  0  0  0  0  0  0  0  0  0  0  0
    0.2837    0.2313    2.1408 C   0  0  2  0  0  0  0  0  0  0  0  0
    4.2280   -2.2409   -1.1295 O   0  0  0  0  0  0  0  0  0  0  0  0
    3.7271    0.5279   -1.5804 C   0  0  0  0  0  0  0  0  0  0  0  0
    0.4767    1.6468    2.2385 O   0  0  0  0  0  0  0  0  0  0  0  0
    4.0655    1.8328   -1.1148 O   0  0  0  0  0  0  0  0  0  0  0  0
   -3.9233    0.8335    0.8214 C   0  0  0  0  0  0  0  0  0  0  0  0
   -2.8822    1.6178   -1.3087 C   0  0  0  0  0  0  0  0  0  0  0  0
   -2.9112   -0.8239   -0.7820 C   0  0  0  0  0  0  0  0  0  0  0  0
    1.6922    0.9587    0.6943 O   0  0  0  0  0  0  0  0  0  0  0  0
    2.4575   -1.0568    0.1486 O   0  0  0  0  0  0  0  0  0  0  0  0
   -1.3746    1.7057    0.8179 O   0  0  0  0  0  0  0  0  0  0  0  0
   -0.8463    1.9329   -1.3400 O   0  0  0  0  0  0  0  0  0  0  0  0
    0.0141   -2.2593    0.7332 O   0  0  0  0  0  0  0  0  0  0  0  0
   -0.4070   -0.8023   -1.6608 O   0  0  0  0  0  0  0  0  0  0  0  0
    1.5117   -0.3600    0.4787 C   0  0  0  0  0  0  0  0  0  0  0  0
    0.0757   -0.8239    0.7125 C   0  0  1  0  0  0  0  0  0  0  0  0
   -0.8525   -0.3114   -0.3877 C   0  0  1  0  0  0  0  0  0  0  0  0
   -0.9899    1.2043   -0.3691 C   0  0  0  0  0  0  0  0  0  0  0  0
    1.4371    1.2597   -0.4555 H   0  0  0  0  0  0  0  0  0  0  0  0
   -2.1499   -0.0905    2.3499 H   0  0  0  0  0  0  0  0  0  0  0  0
    1.5448   -3.0475   -0.6044 H   0  0  0  0  0  0  0  0  0  0  0  0
    3.9708   -2.9778   -0.9173 H   0  0  0  0  0  0  0  0  0  0  0  0
   -0.4187    0.9017    0.9500 H   0  0  0  0  0  0  0  0  0  0  0  0
   -0.0634   -0.5635    1.8293 H   0  0  0  0  0  0  0  0  0  0  0  0
   -0.6534   -0.4715   -1.1762 H   0  0  0  0  0  0  0  0  0  0  0  0
    5.7674   -1.6816   -1.1283 H   0  0  0  0  0  0  0  0  0  0  0  0
    4.5807    1.8346   -1.7349 H   0  0  0  0  0  0  0  0  0  0  0  0
    4.9243    1.6956    0.0167 H   0  0  0  0  0  0  0  0  0  0  0  0
   -1.5279   -2.1810    0.3014 H   0  0  0  0  0  0  0  0  0  0  0  0
    3.8675    3.5928   -0.4971 H   0  0  0  0  0  0  0  0  0  0  0  0
   -4.6569   -0.4832    1.9693 H   0  0  0  0  0  0  0  0  0  0  0  0
   -4.0680    1.1374    2.3825 H   0  0  0  0  0  0  0  0  0  0  0  0
   -5.1800    0.9184    1.0250 H   0  0  0  0  0  0  0  0  0  0  0  0
   -3.8582   -1.6264   -0.1946 H   0  0  0  0  0  0  0  0  0  0  0  0
   -4.4853   -0.2129   -1.0463 H   0  0  0  0  0  0  0  0  0  0  0  0
   -2.8320   -0.7405   -1.3354 H   0  0  0  0  0  0  0  0  0  0  0  0
   -2.3995    2.3354    0.8373 H   0  0  0  0  0  0  0  0  0  0  0  0
   -3.5919    2.1429   -0.4514 H   0  0  0  0  0  0  0  0  0  0  0  0
   -1.9386    1.5968   -0.7094 H   0  0  0  0  0  0  0  0  0  0  0  0
    1.8174    1.3799    0.1505 H   0  0  0  0  0  0  0  0  0  0  0  0
   -0.7349    0.6119   -0.2689 H   0  0  0  0  0  0  0  0  0  0  0  0
    1.1597   -2.3537    2.2036 H   0  0  0  0  0  0  0  0  0  0  0  0
    2.8448   -3.4314    0.7893 H   0  0  0  0  0  0  0  0  0  0  0  0
   -1.2631   -1.1212    1.3975 H   0  0  0  0  0  0  0  0  0  0  0  0
   -1.8454    0.2119    2.4218 H   0  0  0  0  0  0  0  0  0  0  0  0
    0.3781   -0.1607    3.1606 H   0  0  0  0  0  0  0  0  0  0  0  0
    4.2813   -3.1808   -0.8922 H   0  0  0  0  0  0  0  0  0  0  0  0
    4.6594    0.0558   -1.9050 H   0  0  0  0  0  0  0  0  0  0  0  0
    3.0722    0.6283   -2.4516 H   0  0  0  0  0  0  0  0  0  0  0  0
   -0.2177    2.0304    1.6627 H   0  0  0  0  0  0  0  0  0  0  0  0
    4.3829    1.7240   -0.2017 H   0  0  0  0  0  0  0  0  0  0  0  0
   -3.8222    1.8121    1.3057 H   0  0  0  0  0  0  0  0  0  0  0  0
   -4.8939    0.8186    0.3100 H   0  0  0  0  0  0  0  0  0  0  0  0
   -3.9615    0.0691    1.6053 H   0  0  0  0  0  0  0  0  0  0  0  0
   -3.8460    1.5414   -1.8266 H   0  0  0  0  0  0  0  0  0  0  0  0
   -2.0937    1.4736   -2.0584 H   0  0  0  0  0  0  0  0  0  0  0  0
   -2.7961    2.6417   -0.9247 H   0  0  0  0  0  0  0  0  0  0  0  0
   -2.9478   -1.6032   -0.0140 H   0  0  0  0  0  0  0  0  0  0  0  0
   -2.0727   -1.0505   -1.4503 H   0  0  0  0  0  0  0  0  0  0  0  0
   -3.8319   -0.9103   -1.3708 H   0  0  0  0  0  0  0  0  0  0  0  0
    2.6483    1.0941    0.5145 H   0  0  0  0  0  0  0  0  0  0  0  0
   -1.4215    2.6757    0.6730 H   0  0  0  0  0  0  0  0  0  0  0  0
    0.3642   -2.5430   -0.1361 H   0  0  0  0  0  0  0  0  0  0  0  0
   -0.7806   -0.2043   -2.3376 H   0  0  0  0  0  0  0  0  0  0  0  0
   -0.2342   -0.4836    1.7061 H   0  0  0  0  0  0  0  0  0  0  0  0
   -1.8571   -0.7267   -0.2475 H   0  0  0  0  0  0  0  0  0  0  0  0
 10  3  1  0
 11  4  1  0
 12  1  1  0
 10 13  1  0
 14 12  1  0
 15  7  1  0
 16  7  1  0
 17  7  1  0
  6  8  1  0
  2  1  2  0
  3  2  1  0
  4  1  1  0
  5  9  1  0
  6  3  2  0
  7  5  1  0
  8  4  2  0
  9 10  1  0
 27 20  1  0
 28 21  1  0
 29 18  1  0
 27 30  1  0
 31 29  1  0
 32 24  1  0
 33 24  1  0
 34 24  1  0
 23 25  1  0
 19 18  2  0
 20 19  1  0
 21 18  1  0
 22 26  1  0
 23 20  2  0
 24 22  1  0
 25 21  2  0
 26 27  1  0
 41 36  2  0
 42 39  1  0
 43 40  1  0
 41 35  1  0
 43 44  1  0
 42 43  1  0
 44 37  1  0
 41 42  1  0
 44 38  2  0
  2 45  1  0
  5 46  1  0
  6 47  1  0
  8 48  1  0
  9 49  1  0
  9 50  1  0
 10 51  1  6
 11 52  1  0
 12 53  1  0
 12 54  1  0
 13 55  1  0
 14 56  1  0
 15 57  1  0
 15 58  1  0
 15 59  1  0
 16 60  1  0
 16 61  1  0
 16 62  1  0
 17 63  1  0
 17 64  1  0
 17 65  1  0
 19 66  1  0
 22 67  1  0
 23 68  1  0
 25 69  1  0
 26 70  1  0
 26 71  1  0
 27 72  1  1
 28 73  1  0
 29 74  1  0
 29 75  1  0
 30 76  1  0
 31 77  1  0
 32 78  1  0
 32 79  1  0
 32 80  1  0
 33 81  1  0
 33 82  1  0
 33 83  1  0
 34 84  1  0
 34 85  1  0
 34 86  1  0
 35 87  1  0
 37 88  1  0
 39 89  1  0
 40 90  1  0
 42 91  1  1
 43 92  1  1
M  END
$$$$
