
     RDKit          3D

 65 66  0  0  0  0  0  0  0  0999 V2000
    0.6854    0.0000    0.0000 Cl  0  0  0  0  0  0  0  0  0  0  0  0
    4.1999    0.0811   -0.0481 C   0  0  0  0  0  0  0  0  0  0  0  0
    4.5606   -1.2480   -0.0232 C   0  0  0  0  0  0  0  0  0  0  0  0
    3.6772   -2.2268    0.3745 C   0  0  0  0  0  0  0  0  0  0  0  0
    2.9217    0.4369    0.3365 C   0  0  0  0  0  0  0  0  0  0  0  0
    1.9875   -0.5284    0.7503 C   0  0  0  0  0  0  0  0  0  0  0  0
    5.7589    3.4333   -0.9009 C   0  0  0  0  0  0  0  0  0  0  0  0
    2.4110   -1.8386    0.7513 C   0  0  0  0  0  0  0  0  0  0  0  0
    5.1221    1.0550   -0.4519 C   0  0  0  0  0  0  0  0  0  0  0  0
    3.9895   -3.5681    0.4291 C   0  0  0  0  0  0  0  0  0  0  0  0
    4.7568    2.4068   -0.4721 C   0  0  0  0  0  0  0  0  0  0  0  0
    5.2652   -3.9419    0.0616 C   0  0  0  0  0  0  0  0  0  0  0  0
    2.5953    1.7853    0.3033 C   0  0  0  0  0  0  0  0  0  0  0  0
    5.8292   -1.6537   -0.3851 C   0  0  0  0  0  0  0  0  0  0  0  0
    6.2029   -3.0082   -0.3484 C   0  0  0  0  0  0  0  0  0  0  0  0
    0.6811   -0.0535    1.1574 C   0  0  1  0  0  0  0  0  0  0  0  0
   -0.3473   -1.1947    1.3496 C   0  0  0  0  0  0  0  0  0  0  0  0
    3.4821    2.7621   -0.0900 C   0  0  0  0  0  0  0  0  0  0  0  0
    5.5121    3.9660   -2.1273 F   0  0  0  0  0  0  0  0  0  0  0  0
    5.7869    4.4720    0.0283 F   0  0  0  0  0  0  0  0  0  0  0  0
    7.0214    2.8647   -0.8923 F   0  0  0  0  0  0  0  0  0  0  0  0
    2.8369   -4.7556    0.9379 Cl  0  0  0  0  0  0  0  0  0  0  0  0
   -1.6143   -0.4970    1.7954 C   0  0  0  0  0  0  0  0  0  0  0  0
   -2.0919    0.4416    0.7604 N   0  0  0  0  0  0  0  0  0  0  0  0
    7.8352   -3.4961   -0.8159 Cl  0  0  0  0  0  0  0  0  0  0  0  0
    0.7836    0.5267    2.4234 O   0  0  0  0  0  0  0  0  0  0  0  0
   -2.9906    1.3227    1.4836 C   0  0  0  0  0  0  0  0  0  0  0  0
   -2.7760   -0.3623   -0.2490 C   0  0  0  0  0  0  0  0  0  0  0  0
   -3.2799    2.6077    0.8280 C   0  0  0  0  0  0  0  0  0  0  0  0
   -4.0546   -0.9935    0.1456 C   0  0  0  0  0  0  0  0  0  0  0  0
   -3.9320    2.6728   -0.5021 C   0  0  0  0  0  0  0  0  0  0  0  0
   -4.6563   -1.7531   -1.0590 C   0  0  0  0  0  0  0  0  0  0  0  0
   -5.3008    2.0741   -0.6033 C   0  0  0  0  0  0  0  0  0  0  0  0
   -5.9828   -2.3255   -0.6016 C   0  0  0  0  0  0  0  0  0  0  0  0
   -0.6854    0.0000    0.0000 H   0  0  0  0  0  0  0  0  0  0  0  0
    1.6897   -2.5787    1.0673 H   0  0  0  0  0  0  0  0  0  0  0  0
    6.1107    0.8446   -0.7569 H   0  0  0  0  0  0  0  0  0  0  0  0
    5.6018   -4.9911    0.0765 H   0  0  0  0  0  0  0  0  0  0  0  0
    1.6048    2.1505    0.5963 H   0  0  0  0  0  0  0  0  0  0  0  0
    6.6066   -0.9886   -0.7109 H   0  0  0  0  0  0  0  0  0  0  0  0
    0.2406    0.7249    0.5073 H   0  0  0  0  0  0  0  0  0  0  0  0
   -0.4326   -1.8347    0.4817 H   0  0  0  0  0  0  0  0  0  0  0  0
   -0.0003   -1.8112    2.2092 H   0  0  0  0  0  0  0  0  0  0  0  0
    3.2323    3.8066   -0.1173 H   0  0  0  0  0  0  0  0  0  0  0  0
   -1.3950    0.1304    2.7036 H   0  0  0  0  0  0  0  0  0  0  0  0
   -2.4350   -1.1705    2.0379 H   0  0  0  0  0  0  0  0  0  0  0  0
    0.8825   -0.1619    3.1310 H   0  0  0  0  0  0  0  0  0  0  0  0
   -3.8861    0.7428    1.7614 H   0  0  0  0  0  0  0  0  0  0  0  0
   -2.4999    1.5879    2.4881 H   0  0  0  0  0  0  0  0  0  0  0  0
   -2.0457   -1.2362   -0.3973 H   0  0  0  0  0  0  0  0  0  0  0  0
   -2.7238    0.1488   -1.2019 H   0  0  0  0  0  0  0  0  0  0  0  0
   -3.8627    3.3078    1.5055 H   0  0  0  0  0  0  0  0  0  0  0  0
   -2.2951    3.1937    0.6905 H   0  0  0  0  0  0  0  0  0  0  0  0
   -4.8386   -0.4000    0.6021 H   0  0  0  0  0  0  0  0  0  0  0  0
   -3.8123   -1.8588    0.8530 H   0  0  0  0  0  0  0  0  0  0  0  0
   -4.0188    3.8003   -0.7438 H   0  0  0  0  0  0  0  0  0  0  0  0
   -3.2326    2.3088   -1.2806 H   0  0  0  0  0  0  0  0  0  0  0  0
   -4.8009   -1.1183   -1.9262 H   0  0  0  0  0  0  0  0  0  0  0  0
   -3.9938   -2.6282   -1.2420 H   0  0  0  0  0  0  0  0  0  0  0  0
   -5.2223    1.2082   -1.3053 H   0  0  0  0  0  0  0  0  0  0  0  0
   -5.7217    1.7932    0.3719 H   0  0  0  0  0  0  0  0  0  0  0  0
   -5.9947    2.8527   -1.0327 H   0  0  0  0  0  0  0  0  0  0  0  0
   -6.5531   -2.5891   -1.5303 H   0  0  0  0  0  0  0  0  0  0  0  0
   -5.8833   -3.2121    0.0210 H   0  0  0  0  0  0  0  0  0  0  0  0
   -6.5114   -1.4858   -0.0960 H   0  0  0  0  0  0  0  0  0  0  0  0
  3  2  2  0
  4  3  1  0
  5  2  1  0
  6  5  2  0
  7 11  1  0
  8  6  1  0
  9  2  1  0
 10  4  1  0
 11  9  2  0
 12 15  1  0
 13  5  1  0
 14  3  1  0
 15 14  2  0
 16  6  1  0
 17 16  1  0
 18 11  1  0
 19  7  1  0
 20  7  1  0
 21  7  1  0
 22 10  1  0
 23 17  1  0
 24 23  1  0
 25 15  1  0
 26 16  1  0
 27 24  1  0
 28 24  1  0
 29 27  1  0
 30 28  1  0
 31 29  1  0
 32 30  1  0
 33 31  1  0
 34 32  1  0
 18 13  2  0
  8  4  2  0
 10 12  2  0
  1 35  1  0
  8 36  1  0
  9 37  1  0
 12 38  1  0
 13 39  1  0
 14 40  1  0
 16 41  1  6
 17 42  1  0
 17 43  1  0
 18 44  1  0
 23 45  1  0
 23 46  1  0
 26 47  1  0
 27 48  1  0
 27 49  1  0
 28 50  1  0
 28 51  1  0
 29 52  1  0
 29 53  1  0
 30 54  1  0
 30 55  1  0
 31 56  1  0
 31 57  1  0
 32 58  1  0
 32 59  1  0
 33 60  1  0
 33 61  1  0
 33 62  1  0
 34 63  1  0
 34 64  1  0
 34 65  1  0
M  END
$$$$
