
     RDKit          3D

 65 66  0  0  0  0  0  0  0  0999 V2000
    0.6832    0.0000    0.0000 Cl  0  0  0  0  0  0  0  0  0  0  0  0
   -4.0040   -0.1242   -0.0218 C   0  0  0  0  0  0  0  0  0  0  0  0
   -3.5943   -1.4597   -0.0903 C   0  0  0  0  0  0  0  0  0  0  0  0
   -2.2979   -1.8010    0.2305 C   0  0  0  0  0  0  0  0  0  0  0  0
   -3.0794    0.8337    0.3725 C   0  0  0  0  0  0  0  0  0  0  0  0
   -1.7709    0.5230    0.7010 C   0  0  0  0  0  0  0  0  0  0  0  0
   -7.1310    1.9368   -0.6068 C   0  0  0  0  0  0  0  0  0  0  0  0
   -1.4320   -0.8185    0.6122 C   0  0  0  0  0  0  0  0  0  0  0  0
   -5.3043    0.2159   -0.3430 C   0  0  0  0  0  0  0  0  0  0  0  0
   -1.8924   -3.1205    0.1604 C   0  0  0  0  0  0  0  0  0  0  0  0
   -5.7308    1.5474   -0.2798 C   0  0  0  0  0  0  0  0  0  0  0  0
   -2.7564   -4.1224   -0.2273 C   0  0  0  0  0  0  0  0  0  0  0  0
   -3.5224    2.1459    0.4262 C   0  0  0  0  0  0  0  0  0  0  0  0
   -4.4623   -2.4474   -0.4787 C   0  0  0  0  0  0  0  0  0  0  0  0
   -4.0517   -3.7869   -0.5503 C   0  0  0  0  0  0  0  0  0  0  0  0
   -0.7747    1.5256    1.1349 C   0  0  1  0  0  0  0  0  0  0  0  0
   -0.0686    2.0970   -0.0666 C   0  0  0  0  0  0  0  0  0  0  0  0
   -4.8197    2.5032    0.1088 C   0  0  0  0  0  0  0  0  0  0  0  0
   -7.2075    3.1882   -1.2079 F   0  0  0  0  0  0  0  0  0  0  0  0
   -7.7257    1.0278   -1.4521 F   0  0  0  0  0  0  0  0  0  0  0  0
   -7.9077    2.0460    0.5566 F   0  0  0  0  0  0  0  0  0  0  0  0
   -0.2551   -3.5987    0.5596 Cl  0  0  0  0  0  0  0  0  0  0  0  0
    0.6781    1.0325   -0.8305 C   0  0  0  0  0  0  0  0  0  0  0  0
    1.7381    0.4136    0.0218 N   0  0  0  0  0  0  0  0  0  0  0  0
   -5.1847   -5.0455   -1.0551 Cl  0  0  0  0  0  0  0  0  0  0  0  0
   -1.2082    2.4662    2.0214 O   0  0  0  0  0  0  0  0  0  0  0  0
    2.1776   -0.6773   -0.8728 C   0  0  0  0  0  0  0  0  0  0  0  0
    2.8432    1.3620    0.0984 C   0  0  0  0  0  0  0  0  0  0  0  0
    3.3445   -1.4410   -0.3925 C   0  0  0  0  0  0  0  0  0  0  0  0
    3.7348    1.1791    1.2837 C   0  0  0  0  0  0  0  0  0  0  0  0
    3.6580   -2.5704   -1.4087 C   0  0  0  0  0  0  0  0  0  0  0  0
    4.8945    2.1336    1.3063 C   0  0  0  0  0  0  0  0  0  0  0  0
    4.8604   -3.3521   -0.9137 C   0  0  0  0  0  0  0  0  0  0  0  0
    5.8196    1.9937    0.1552 C   0  0  0  0  0  0  0  0  0  0  0  0
   -0.6832    0.0000    0.0000 H   0  0  0  0  0  0  0  0  0  0  0  0
   -0.4187   -1.1292    0.8607 H   0  0  0  0  0  0  0  0  0  0  0  0
   -6.0590   -0.4847   -0.6516 H   0  0  0  0  0  0  0  0  0  0  0  0
   -2.4564   -5.1551   -0.2880 H   0  0  0  0  0  0  0  0  0  0  0  0
   -2.8669    2.9451    0.7073 H   0  0  0  0  0  0  0  0  0  0  0  0
   -5.4907   -2.2826   -0.7521 H   0  0  0  0  0  0  0  0  0  0  0  0
    0.0571    0.9660    1.6947 H   0  0  0  0  0  0  0  0  0  0  0  0
   -0.8166    2.5072   -0.8062 H   0  0  0  0  0  0  0  0  0  0  0  0
    0.6132    2.8640    0.2789 H   0  0  0  0  0  0  0  0  0  0  0  0
   -5.1736    3.5393    0.1539 H   0  0  0  0  0  0  0  0  0  0  0  0
    1.1606    1.5155   -1.6951 H   0  0  0  0  0  0  0  0  0  0  0  0
   -0.0618    0.2666   -1.1432 H   0  0  0  0  0  0  0  0  0  0  0  0
   -0.8605    2.4156    2.9216 H   0  0  0  0  0  0  0  0  0  0  0  0
    1.2859   -1.3556   -0.9455 H   0  0  0  0  0  0  0  0  0  0  0  0
    2.3725   -0.1923   -1.8607 H   0  0  0  0  0  0  0  0  0  0  0  0
    2.5207    2.4206    0.0544 H   0  0  0  0  0  0  0  0  0  0  0  0
    3.4475    1.2138   -0.8262 H   0  0  0  0  0  0  0  0  0  0  0  0
    3.2645   -1.8335    0.6075 H   0  0  0  0  0  0  0  0  0  0  0  0
    4.2593   -0.7735   -0.4642 H   0  0  0  0  0  0  0  0  0  0  0  0
    3.1018    1.5023    2.1960 H   0  0  0  0  0  0  0  0  0  0  0  0
    4.0825    0.1740    1.5179 H   0  0  0  0  0  0  0  0  0  0  0  0
    2.7956   -3.2467   -1.4973 H   0  0  0  0  0  0  0  0  0  0  0  0
    3.9112   -2.0512   -2.3587 H   0  0  0  0  0  0  0  0  0  0  0  0
    5.4278    2.0062    2.2817 H   0  0  0  0  0  0  0  0  0  0  0  0
    4.4827    3.1687    1.3084 H   0  0  0  0  0  0  0  0  0  0  0  0
    4.7919   -4.4405   -1.1736 H   0  0  0  0  0  0  0  0  0  0  0  0
    5.7676   -2.9872   -1.4786 H   0  0  0  0  0  0  0  0  0  0  0  0
    5.0226   -3.2654    0.1683 H   0  0  0  0  0  0  0  0  0  0  0  0
    6.4110    2.9376    0.0659 H   0  0  0  0  0  0  0  0  0  0  0  0
    6.5533    1.1762    0.4124 H   0  0  0  0  0  0  0  0  0  0  0  0
    5.3077    1.7729   -0.7707 H   0  0  0  0  0  0  0  0  0  0  0  0
  3  2  2  0
  4  3  1  0
  5  2  1  0
  6  5  2  0
  7 11  1  0
  8  6  1  0
  9  2  1  0
 10  4  1  0
 11  9  2  0
 12 15  1  0
 13  5  1  0
 14  3  1  0
 15 14  2  0
 16  6  1  0
 17 16  1  0
 18 11  1  0
 19  7  1  0
 20  7  1  0
 21  7  1  0
 22 10  1  0
 23 17  1  0
 24 23  1  0
 25 15  1  0
 26 16  1  0
 27 24  1  0
 28 24  1  0
 29 27  1  0
 30 28  1  0
 31 29  1  0
 32 30  1  0
 33 31  1  0
 34 32  1  0
 18 13  2  0
  8  4  2  0
 10 12  2  0
  1 35  1  0
  8 36  1  0
  9 37  1  0
 12 38  1  0
 13 39  1  0
 14 40  1  0
 16 41  1  1
 17 42  1  0
 17 43  1  0
 18 44  1  0
 23 45  1  0
 23 46  1  0
 26 47  1  0
 27 48  1  0
 27 49  1  0
 28 50  1  0
 28 51  1  0
 29 52  1  0
 29 53  1  0
 30 54  1  0
 30 55  1  0
 31 56  1  0
 31 57  1  0
 32 58  1  0
 32 59  1  0
 33 60  1  0
 33 61  1  0
 33 62  1  0
 34 63  1  0
 34 64  1  0
 34 65  1  0
M  END
$$$$
