
     RDKit          3D

 65 66  0  0  0  0  0  0  0  0999 V2000
    0.6904    0.0000    0.0000 Cl  0  0  0  0  0  0  0  0  0  0  0  0
    3.8611    0.1651   -0.3156 C   0  0  0  0  0  0  0  0  0  0  0  0
    4.6757   -0.8108    0.2151 C   0  0  0  0  0  0  0  0  0  0  0  0
    4.1494   -1.7260    1.1025 C   0  0  0  0  0  0  0  0  0  0  0  0
    2.5231    0.2019    0.0590 C   0  0  0  0  0  0  0  0  0  0  0  0
    1.9735   -0.7012    0.9438 C   0  0  0  0  0  0  0  0  0  0  0  0
    4.0585    3.0777   -2.6833 C   0  0  0  0  0  0  0  0  0  0  0  0
    2.8305   -1.6643    1.4515 C   0  0  0  0  0  0  0  0  0  0  0  0
    4.3632    1.0918   -1.2020 C   0  0  0  0  0  0  0  0  0  0  0  0
    4.9070   -2.7365    1.6780 C   0  0  0  0  0  0  0  0  0  0  0  0
    3.5303    2.0796   -1.7339 C   0  0  0  0  0  0  0  0  0  0  0  0
    6.2376   -2.7984    1.3255 C   0  0  0  0  0  0  0  0  0  0  0  0
    1.7155    1.1950   -0.4849 C   0  0  0  0  0  0  0  0  0  0  0  0
    6.0057   -0.8868   -0.1258 C   0  0  0  0  0  0  0  0  0  0  0  0
    6.7912   -1.8976    0.4415 C   0  0  0  0  0  0  0  0  0  0  0  0
    0.5234   -0.6517    1.3391 C   0  0  1  0  0  0  0  0  0  0  0  0
   -0.2823   -1.5569    0.4543 C   0  0  0  0  0  0  0  0  0  0  0  0
    2.2062    2.1289   -1.3734 C   0  0  0  0  0  0  0  0  0  0  0  0
    4.0329    2.6584   -3.9991 F   0  0  0  0  0  0  0  0  0  0  0  0
    3.3870    4.2818   -2.5943 F   0  0  0  0  0  0  0  0  0  0  0  0
    5.4048    3.3268   -2.3869 F   0  0  0  0  0  0  0  0  0  0  0  0
    4.2314   -3.8815    2.7936 Cl  0  0  0  0  0  0  0  0  0  0  0  0
   -1.7108   -1.6844    0.6486 C   0  0  0  0  0  0  0  0  0  0  0  0
   -2.6312   -0.5817    0.4751 N   0  0  0  0  0  0  0  0  0  0  0  0
    8.5031   -2.0152    0.0179 Cl  0  0  0  0  0  0  0  0  0  0  0  0
    0.5059   -1.2709    2.6166 O   0  0  0  0  0  0  0  0  0  0  0  0
   -2.4833    0.4225    1.4788 C   0  0  0  0  0  0  0  0  0  0  0  0
   -2.4133   -0.0366   -0.8748 C   0  0  0  0  0  0  0  0  0  0  0  0
   -3.6781    1.2235    1.8747 C   0  0  0  0  0  0  0  0  0  0  0  0
   -2.8173   -1.0378   -1.9221 C   0  0  0  0  0  0  0  0  0  0  0  0
   -4.3653    2.0372    0.8393 C   0  0  0  0  0  0  0  0  0  0  0  0
   -4.2374   -1.4674   -1.9005 C   0  0  0  0  0  0  0  0  0  0  0  0
   -5.5352    2.8241    1.4619 C   0  0  0  0  0  0  0  0  0  0  0  0
   -5.2036   -0.3390   -2.1286 C   0  0  0  0  0  0  0  0  0  0  0  0
   -0.6904    0.0000    0.0000 H   0  0  0  0  0  0  0  0  0  0  0  0
    2.3782   -2.3725    2.1520 H   0  0  0  0  0  0  0  0  0  0  0  0
    5.3845    1.1270   -1.5385 H   0  0  0  0  0  0  0  0  0  0  0  0
    6.9010   -3.5640    1.7347 H   0  0  0  0  0  0  0  0  0  0  0  0
    0.6594    1.2856   -0.2384 H   0  0  0  0  0  0  0  0  0  0  0  0
    6.4953   -0.2332   -0.7939 H   0  0  0  0  0  0  0  0  0  0  0  0
    0.1754    0.3473    1.5038 H   0  0  0  0  0  0  0  0  0  0  0  0
    0.1611   -2.5941    0.6683 H   0  0  0  0  0  0  0  0  0  0  0  0
    0.0307   -1.4369   -0.6291 H   0  0  0  0  0  0  0  0  0  0  0  0
    1.5853    2.9129   -1.8080 H   0  0  0  0  0  0  0  0  0  0  0  0
   -1.8887   -2.0551    1.7041 H   0  0  0  0  0  0  0  0  0  0  0  0
   -2.0781   -2.5559    0.0300 H   0  0  0  0  0  0  0  0  0  0  0  0
    1.2431   -0.8261    3.1229 H   0  0  0  0  0  0  0  0  0  0  0  0
   -2.0130    0.0673    2.4056 H   0  0  0  0  0  0  0  0  0  0  0  0
   -1.7981    1.2178    0.9896 H   0  0  0  0  0  0  0  0  0  0  0  0
   -2.9955    0.8630   -0.9878 H   0  0  0  0  0  0  0  0  0  0  0  0
   -1.3492    0.2508   -1.0080 H   0  0  0  0  0  0  0  0  0  0  0  0
   -4.4301    0.5837    2.4250 H   0  0  0  0  0  0  0  0  0  0  0  0
   -3.3629    1.9655    2.6881 H   0  0  0  0  0  0  0  0  0  0  0  0
   -2.6385   -0.6182   -2.9610 H   0  0  0  0  0  0  0  0  0  0  0  0
   -2.1728   -1.9566   -1.8885 H   0  0  0  0  0  0  0  0  0  0  0  0
   -4.8826    1.3204    0.1430 H   0  0  0  0  0  0  0  0  0  0  0  0
   -3.7193    2.6995    0.2572 H   0  0  0  0  0  0  0  0  0  0  0  0
   -4.5089   -2.0384   -0.9845 H   0  0  0  0  0  0  0  0  0  0  0  0
   -4.3859   -2.1974   -2.7510 H   0  0  0  0  0  0  0  0  0  0  0  0
   -5.1219    3.8088    1.7382 H   0  0  0  0  0  0  0  0  0  0  0  0
   -6.3193    2.9990    0.6986 H   0  0  0  0  0  0  0  0  0  0  0  0
   -5.9764    2.2952    2.3121 H   0  0  0  0  0  0  0  0  0  0  0  0
   -5.8168   -0.4914   -3.0442 H   0  0  0  0  0  0  0  0  0  0  0  0
   -4.6860    0.6523   -2.1634 H   0  0  0  0  0  0  0  0  0  0  0  0
   -5.9290   -0.3140   -1.2687 H   0  0  0  0  0  0  0  0  0  0  0  0
  3  2  2  0
  4  3  1  0
  5  2  1  0
  6  5  2  0
  7 11  1  0
  8  6  1  0
  9  2  1  0
 10  4  1  0
 11  9  2  0
 12 15  1  0
 13  5  1  0
 14  3  1  0
 15 14  2  0
 16  6  1  0
 17 16  1  0
 18 11  1  0
 19  7  1  0
 20  7  1  0
 21  7  1  0
 22 10  1  0
 23 17  1  0
 24 23  1  0
 25 15  1  0
 26 16  1  0
 27 24  1  0
 28 24  1  0
 29 27  1  0
 30 28  1  0
 31 29  1  0
 32 30  1  0
 33 31  1  0
 34 32  1  0
 18 13  2  0
  8  4  2  0
 10 12  2  0
  1 35  1  0
  8 36  1  0
  9 37  1  0
 12 38  1  0
 13 39  1  0
 14 40  1  0
 16 41  1  1
 17 42  1  0
 17 43  1  0
 18 44  1  0
 23 45  1  0
 23 46  1  0
 26 47  1  0
 27 48  1  0
 27 49  1  0
 28 50  1  0
 28 51  1  0
 29 52  1  0
 29 53  1  0
 30 54  1  0
 30 55  1  0
 31 56  1  0
 31 57  1  0
 32 58  1  0
 32 59  1  0
 33 60  1  0
 33 61  1  0
 33 62  1  0
 34 63  1  0
 34 64  1  0
 34 65  1  0
M  END
$$$$
