
     RDKit          3D

 65 66  0  0  0  0  0  0  0  0999 V2000
    0.6908    0.0000    0.0000 Cl  0  0  0  0  0  0  0  0  0  0  0  0
    4.0970    0.1580    0.1590 C   0  0  0  0  0  0  0  0  0  0  0  0
    4.4439    0.0929   -1.1713 C   0  0  0  0  0  0  0  0  0  0  0  0
    3.5754   -0.4212   -2.1081 C   0  0  0  0  0  0  0  0  0  0  0  0
    2.8501   -0.3104    0.5162 C   0  0  0  0  0  0  0  0  0  0  0  0
    1.9425   -0.8345   -0.3773 C   0  0  0  0  0  0  0  0  0  0  0  0
    5.5244    1.2912    3.4548 C   0  0  0  0  0  0  0  0  0  0  0  0
    2.3405   -0.8786   -1.7128 C   0  0  0  0  0  0  0  0  0  0  0  0
    4.9556    0.6723    1.1050 C   0  0  0  0  0  0  0  0  0  0  0  0
    3.8758   -0.5064   -3.4525 C   0  0  0  0  0  0  0  0  0  0  0  0
    4.5931    0.7361    2.4497 C   0  0  0  0  0  0  0  0  0  0  0  0
    5.1154   -0.0460   -3.8486 C   0  0  0  0  0  0  0  0  0  0  0  0
    2.4909   -0.2476    1.8447 C   0  0  0  0  0  0  0  0  0  0  0  0
    5.6709    0.5427   -1.6024 C   0  0  0  0  0  0  0  0  0  0  0  0
    6.0202    0.4763   -2.9579 C   0  0  0  0  0  0  0  0  0  0  0  0
    0.6185   -1.3434   -0.0435 C   0  0  1  0  0  0  0  0  0  0  0  0
   -0.4594   -0.2572   -0.0718 C   0  0  0  0  0  0  0  0  0  0  0  0
    3.3456    0.2673    2.8041 C   0  0  0  0  0  0  0  0  0  0  0  0
    6.4468    2.1482    2.8973 F   0  0  0  0  0  0  0  0  0  0  0  0
    6.1179    0.2206    4.1195 F   0  0  0  0  0  0  0  0  0  0  0  0
    4.7892    1.9828    4.4032 F   0  0  0  0  0  0  0  0  0  0  0  0
    2.7240   -1.1733   -4.6213 Cl  0  0  0  0  0  0  0  0  0  0  0  0
   -1.7205   -0.9537    0.2989 C   0  0  0  0  0  0  0  0  0  0  0  0
   -2.9340   -0.2950    0.3181 N   0  0  0  0  0  0  0  0  0  0  0  0
    7.5604    1.0332   -3.5488 Cl  0  0  0  0  0  0  0  0  0  0  0  0
    0.2118   -2.2772   -1.0151 O   0  0  0  0  0  0  0  0  0  0  0  0
   -4.0444   -1.0485    0.7687 C   0  0  0  0  0  0  0  0  0  0  0  0
   -3.1943    0.9665   -0.2060 C   0  0  0  0  0  0  0  0  0  0  0  0
   -4.5701   -2.1603   -0.0291 C   0  0  0  0  0  0  0  0  0  0  0  0
   -2.5925    2.1321    0.5268 C   0  0  0  0  0  0  0  0  0  0  0  0
   -5.1169   -1.8714   -1.3814 C   0  0  0  0  0  0  0  0  0  0  0  0
   -3.0258    2.2070    1.9749 C   0  0  0  0  0  0  0  0  0  0  0  0
   -4.2049   -1.2760   -2.3847 C   0  0  0  0  0  0  0  0  0  0  0  0
   -4.5222    2.3565    2.1254 C   0  0  0  0  0  0  0  0  0  0  0  0
   -0.6908    0.0000    0.0000 H   0  0  0  0  0  0  0  0  0  0  0  0
    1.6433   -1.2904   -2.4607 H   0  0  0  0  0  0  0  0  0  0  0  0
    5.9380    1.0498    0.8768 H   0  0  0  0  0  0  0  0  0  0  0  0
    5.3541   -0.1089   -4.8841 H   0  0  0  0  0  0  0  0  0  0  0  0
    1.5299   -0.5915    2.2024 H   0  0  0  0  0  0  0  0  0  0  0  0
    6.4283    0.9631   -0.9633 H   0  0  0  0  0  0  0  0  0  0  0  0
    0.6141   -1.8237    0.9272 H   0  0  0  0  0  0  0  0  0  0  0  0
   -0.1760    0.5406    0.6628 H   0  0  0  0  0  0  0  0  0  0  0  0
   -0.4242    0.1972   -1.0717 H   0  0  0  0  0  0  0  0  0  0  0  0
    3.0606    0.3178    3.8662 H   0  0  0  0  0  0  0  0  0  0  0  0
   -1.5268   -1.3187    1.3726 H   0  0  0  0  0  0  0  0  0  0  0  0
   -1.7750   -1.8618   -0.3592 H   0  0  0  0  0  0  0  0  0  0  0  0
   -0.2278   -1.7751   -1.7578 H   0  0  0  0  0  0  0  0  0  0  0  0
   -3.8077   -1.3651    1.8279 H   0  0  0  0  0  0  0  0  0  0  0  0
   -4.9003   -0.3184    0.9155 H   0  0  0  0  0  0  0  0  0  0  0  0
   -2.9516    1.0728   -1.3045 H   0  0  0  0  0  0  0  0  0  0  0  0
   -4.3150    1.1681   -0.2045 H   0  0  0  0  0  0  0  0  0  0  0  0
   -5.4369   -2.5991    0.5610 H   0  0  0  0  0  0  0  0  0  0  0  0
   -3.8834   -3.0303   -0.1361 H   0  0  0  0  0  0  0  0  0  0  0  0
   -1.5232    2.2864    0.3910 H   0  0  0  0  0  0  0  0  0  0  0  0
   -3.0443    3.0782    0.0430 H   0  0  0  0  0  0  0  0  0  0  0  0
   -5.4555   -2.8744   -1.7931 H   0  0  0  0  0  0  0  0  0  0  0  0
   -6.0827   -1.3006   -1.3230 H   0  0  0  0  0  0  0  0  0  0  0  0
   -2.4908    3.0291    2.4939 H   0  0  0  0  0  0  0  0  0  0  0  0
   -2.7399    1.2804    2.5326 H   0  0  0  0  0  0  0  0  0  0  0  0
   -4.5159   -0.2061   -2.5561 H   0  0  0  0  0  0  0  0  0  0  0  0
   -4.3777   -1.7586   -3.3949 H   0  0  0  0  0  0  0  0  0  0  0  0
   -3.1410   -1.3703   -2.1994 H   0  0  0  0  0  0  0  0  0  0  0  0
   -4.7415    3.2318    2.8065 H   0  0  0  0  0  0  0  0  0  0  0  0
   -4.9755    2.5440    1.1302 H   0  0  0  0  0  0  0  0  0  0  0  0
   -4.9802    1.4506    2.5654 H   0  0  0  0  0  0  0  0  0  0  0  0
  3  2  2  0
  4  3  1  0
  5  2  1  0
  6  5  2  0
  7 11  1  0
  8  6  1  0
  9  2  1  0
 10  4  1  0
 11  9  2  0
 12 15  1  0
 13  5  1  0
 14  3  1  0
 15 14  2  0
 16  6  1  0
 17 16  1  0
 18 11  1  0
 19  7  1  0
 20  7  1  0
 21  7  1  0
 22 10  1  0
 23 17  1  0
 24 23  1  0
 25 15  1  0
 26 16  1  0
 27 24  1  0
 28 24  1  0
 29 27  1  0
 30 28  1  0
 31 29  1  0
 32 30  1  0
 33 31  1  0
 34 32  1  0
 18 13  2  0
  8  4  2  0
 10 12  2  0
  1 35  1  0
  8 36  1  0
  9 37  1  0
 12 38  1  0
 13 39  1  0
 14 40  1  0
 16 41  1  1
 17 42  1  0
 17 43  1  0
 18 44  1  0
 23 45  1  0
 23 46  1  0
 26 47  1  0
 27 48  1  0
 27 49  1  0
 28 50  1  0
 28 51  1  0
 29 52  1  0
 29 53  1  0
 30 54  1  0
 30 55  1  0
 31 56  1  0
 31 57  1  0
 32 58  1  0
 32 59  1  0
 33 60  1  0
 33 61  1  0
 33 62  1  0
 34 63  1  0
 34 64  1  0
 34 65  1  0
M  END
$$$$
