
     RDKit          3D

 65 66  0  0  0  0  0  0  0  0999 V2000
    0.6859    0.0000    0.0000 Cl  0  0  0  0  0  0  0  0  0  0  0  0
    4.2495    0.0209   -0.0309 C   0  0  0  0  0  0  0  0  0  0  0  0
    4.4025   -1.2396   -0.5646 C   0  0  0  0  0  0  0  0  0  0  0  0
    3.3055   -1.9540   -1.0024 C   0  0  0  0  0  0  0  0  0  0  0  0
    2.9679    0.5613    0.0585 C   0  0  0  0  0  0  0  0  0  0  0  0
    1.8475   -0.1180   -0.3672 C   0  0  0  0  0  0  0  0  0  0  0  0
    6.3688    2.7716    1.4296 C   0  0  0  0  0  0  0  0  0  0  0  0
    2.0750   -1.3874   -0.8958 C   0  0  0  0  0  0  0  0  0  0  0  0
    5.3502    0.7258    0.4078 C   0  0  0  0  0  0  0  0  0  0  0  0
    3.4275   -3.2151   -1.5403 C   0  0  0  0  0  0  0  0  0  0  0  0
    5.2017    2.0086    0.9572 C   0  0  0  0  0  0  0  0  0  0  0  0
    4.6587   -3.7975   -1.6544 C   0  0  0  0  0  0  0  0  0  0  0  0
    2.8452    1.8250    0.6029 C   0  0  0  0  0  0  0  0  0  0  0  0
    5.6357   -1.8419   -0.6873 C   0  0  0  0  0  0  0  0  0  0  0  0
    5.7683   -3.1111   -1.2276 C   0  0  0  0  0  0  0  0  0  0  0  0
    0.4703    0.4664   -0.2883 C   0  0  1  0  0  0  0  0  0  0  0  0
   -0.1334    0.2671    1.0559 C   0  0  0  0  0  0  0  0  0  0  0  0
    3.9400    2.5529    1.0516 C   0  0  0  0  0  0  0  0  0  0  0  0
    6.2985    4.0701    0.9637 F   0  0  0  0  0  0  0  0  0  0  0  0
    7.5358    2.2238    0.9651 F   0  0  0  0  0  0  0  0  0  0  0  0
    6.4001    2.7847    2.8096 F   0  0  0  0  0  0  0  0  0  0  0  0
    1.9968   -4.0723   -2.0781 Cl  0  0  0  0  0  0  0  0  0  0  0  0
   -1.5056    0.8074    1.2613 C   0  0  0  0  0  0  0  0  0  0  0  0
   -2.5407    0.3029    0.4556 N   0  0  0  0  0  0  0  0  0  0  0  0
    7.3292   -3.8562   -1.3773 Cl  0  0  0  0  0  0  0  0  0  0  0  0
    0.3587    1.7143   -0.8357 O   0  0  0  0  0  0  0  0  0  0  0  0
   -2.9090   -1.0377    0.6584 C   0  0  0  0  0  0  0  0  0  0  0  0
   -2.8716    0.9143   -0.7563 C   0  0  0  0  0  0  0  0  0  0  0  0
   -3.9773   -1.6045   -0.2373 C   0  0  0  0  0  0  0  0  0  0  0  0
   -3.4551    2.3115   -0.5567 C   0  0  0  0  0  0  0  0  0  0  0  0
   -4.2642   -3.0676    0.1445 C   0  0  0  0  0  0  0  0  0  0  0  0
   -4.7002    2.3067    0.2661 C   0  0  0  0  0  0  0  0  0  0  0  0
   -5.3300   -3.6479   -0.7422 C   0  0  0  0  0  0  0  0  0  0  0  0
   -5.2074    3.7468    0.4137 C   0  0  0  0  0  0  0  0  0  0  0  0
   -0.6859    0.0000    0.0000 H   0  0  0  0  0  0  0  0  0  0  0  0
    1.2053   -1.9343   -1.2345 H   0  0  0  0  0  0  0  0  0  0  0  0
    6.3579    0.3694    0.3676 H   0  0  0  0  0  0  0  0  0  0  0  0
    4.7773   -4.7867   -2.0737 H   0  0  0  0  0  0  0  0  0  0  0  0
    1.8873    2.3154    0.7141 H   0  0  0  0  0  0  0  0  0  0  0  0
    6.5519   -1.3683   -0.3761 H   0  0  0  0  0  0  0  0  0  0  0  0
   -0.1304   -0.2033   -0.9829 H   0  0  0  0  0  0  0  0  0  0  0  0
    0.5843    0.6515    1.8254 H   0  0  0  0  0  0  0  0  0  0  0  0
   -0.1888   -0.8381    1.3057 H   0  0  0  0  0  0  0  0  0  0  0  0
    3.8274    3.5467    1.4772 H   0  0  0  0  0  0  0  0  0  0  0  0
   -1.7739    0.5386    2.3310 H   0  0  0  0  0  0  0  0  0  0  0  0
   -1.4901    1.9228    1.2872 H   0  0  0  0  0  0  0  0  0  0  0  0
   -0.2920    2.2672   -0.3674 H   0  0  0  0  0  0  0  0  0  0  0  0
   -2.0236   -1.7316    0.5467 H   0  0  0  0  0  0  0  0  0  0  0  0
   -3.2592   -1.2169    1.7160 H   0  0  0  0  0  0  0  0  0  0  0  0
   -2.1364    0.9612   -1.5560 H   0  0  0  0  0  0  0  0  0  0  0  0
   -3.7503    0.3401   -1.1897 H   0  0  0  0  0  0  0  0  0  0  0  0
   -4.9364   -1.0663   -0.1648 H   0  0  0  0  0  0  0  0  0  0  0  0
   -3.6693   -1.6235   -1.3081 H   0  0  0  0  0  0  0  0  0  0  0  0
   -2.7028    3.0175   -0.1476 H   0  0  0  0  0  0  0  0  0  0  0  0
   -3.7476    2.6498   -1.5820 H   0  0  0  0  0  0  0  0  0  0  0  0
   -3.3400   -3.6813    0.0605 H   0  0  0  0  0  0  0  0  0  0  0  0
   -4.6097   -3.1192    1.1890 H   0  0  0  0  0  0  0  0  0  0  0  0
   -5.4903    1.7000   -0.2128 H   0  0  0  0  0  0  0  0  0  0  0  0
   -4.5225    1.9527    1.3151 H   0  0  0  0  0  0  0  0  0  0  0  0
   -5.1198   -4.7024   -1.0524 H   0  0  0  0  0  0  0  0  0  0  0  0
   -6.2960   -3.6526   -0.2070 H   0  0  0  0  0  0  0  0  0  0  0  0
   -5.3821   -3.0461   -1.6789 H   0  0  0  0  0  0  0  0  0  0  0  0
   -4.3106    4.4090    0.3832 H   0  0  0  0  0  0  0  0  0  0  0  0
   -5.6888    3.8763    1.3815 H   0  0  0  0  0  0  0  0  0  0  0  0
   -5.8698    4.0210   -0.4255 H   0  0  0  0  0  0  0  0  0  0  0  0
  3  2  2  0
  4  3  1  0
  5  2  1  0
  6  5  2  0
  7 11  1  0
  8  6  1  0
  9  2  1  0
 10  4  1  0
 11  9  2  0
 12 15  1  0
 13  5  1  0
 14  3  1  0
 15 14  2  0
 16  6  1  0
 17 16  1  0
 18 11  1  0
 19  7  1  0
 20  7  1  0
 21  7  1  0
 22 10  1  0
 23 17  1  0
 24 23  1  0
 25 15  1  0
 26 16  1  0
 27 24  1  0
 28 24  1  0
 29 27  1  0
 30 28  1  0
 31 29  1  0
 32 30  1  0
 33 31  1  0
 34 32  1  0
 18 13  2  0
  8  4  2  0
 10 12  2  0
  1 35  1  0
  8 36  1  0
  9 37  1  0
 12 38  1  0
 13 39  1  0
 14 40  1  0
 16 41  1  6
 17 42  1  0
 17 43  1  0
 18 44  1  0
 23 45  1  0
 23 46  1  0
 26 47  1  0
 27 48  1  0
 27 49  1  0
 28 50  1  0
 28 51  1  0
 29 52  1  0
 29 53  1  0
 30 54  1  0
 30 55  1  0
 31 56  1  0
 31 57  1  0
 32 58  1  0
 32 59  1  0
 33 60  1  0
 33 61  1  0
 33 62  1  0
 34 63  1  0
 34 64  1  0
 34 65  1  0
M  END
$$$$
