
     RDKit          3D

 34 35  0  0  0  0  0  0  0  0999 V2000
    0.0000    0.0000    0.0000 Cl  0  0  0  0  0  0  0  0  0  0  0  0
   -2.1974    0.1046    0.0639 C   0  0  0  0  0  0  0  0  0  0  0  0
   -2.9658   -1.0609    0.1610 C   0  0  0  0  0  0  0  0  0  0  0  0
   -2.3590   -2.3098    0.3402 C   0  0  0  0  0  0  0  0  0  0  0  0
   -0.8300   -0.0064    0.1491 C   0  0  0  0  0  0  0  0  0  0  0  0
   -0.2728   -1.2566    0.3264 C   0  0  0  0  0  0  0  0  0  0  0  0
   -2.6727    3.7843   -0.4577 C   0  0  0  0  0  0  0  0  0  0  0  0
   -0.9784   -2.4240    0.4270 C   0  0  0  0  0  0  0  0  0  0  0  0
   -2.7791    1.3387   -0.1258 C   0  0  0  0  0  0  0  0  0  0  0  0
   -3.1837   -3.4173    0.4289 C   0  0  0  0  0  0  0  0  0  0  0  0
   -2.0219    2.4866   -0.2340 C   0  0  0  0  0  0  0  0  0  0  0  0
   -4.5583   -3.2437    0.3380 C   0  0  0  0  0  0  0  0  0  0  0  0
   -0.0574    1.1351    0.0436 C   0  0  0  0  0  0  0  0  0  0  0  0
   -4.3248   -0.8975    0.0722 C   0  0  0  0  0  0  0  0  0  0  0  0
   -5.1367   -2.0029    0.1617 C   0  0  0  0  0  0  0  0  0  0  0  0
    1.2608   -1.2269    0.4120 C   0  0  0  0  0  0  0  0  0  0  0  0
    1.6723   -0.8547   -0.9641 C   0  0  0  0  0  0  0  0  0  0  0  0
   -0.6518    2.3813   -0.1479 C   0  0  0  0  0  0  0  0  0  0  0  0
   -3.5750    3.7259   -1.5220 F   0  0  0  0  0  0  0  0  0  0  0  0
   -1.7530    4.7565   -0.7497 F   0  0  0  0  0  0  0  0  0  0  0  0
   -3.4259    4.1071    0.6511 F   0  0  0  0  0  0  0  0  0  0  0  0
   -2.5379   -5.0190    0.6568 Cl  0  0  0  0  0  0  0  0  0  0  0  0
    3.0677   -0.7485   -1.2707 C   0  0  0  0  0  0  0  0  0  0  0  0
    3.8359    0.1646   -0.5187 N   0  0  0  0  0  0  0  0  0  0  0  0
   -6.8926   -1.8072    0.0456 Cl  0  0  0  0  0  0  0  0  0  0  0  0
    1.5806   -0.2694    1.3956 O   0  0  0  0  0  0  0  0  0  0  0  0
    4.0928   -0.2909    0.8036 C   0  0  0  0  0  0  0  0  0  0  0  0
    4.9521    0.6667   -1.2213 C   0  0  0  0  0  0  0  0  0  0  0  0
    5.0109   -1.5202    0.7956 C   0  0  0  0  0  0  0  0  0  0  0  0
    5.6930    1.6826   -0.4185 C   0  0  0  0  0  0  0  0  0  0  0  0
    6.2927   -1.0754    0.1150 C   0  0  0  0  0  0  0  0  0  0  0  0
    4.8463    2.8624   -0.0731 C   0  0  0  0  0  0  0  0  0  0  0  0
    7.2322   -2.2808    0.0845 C   0  0  0  0  0  0  0  0  0  0  0  0
    3.6370    2.5156    0.7311 C   0  0  0  0  0  0  0  0  0  0  0  0
  3  2  2  0
  4  3  1  0
  5  2  1  0
  6  5  2  0
  7 11  1  0
  8  6  1  0
  9  2  1  0
 10  4  1  0
 11  9  2  0
 12 15  1  0
 13  5  1  0
 14  3  1  0
 15 14  2  0
 16  6  1  0
 17 16  1  0
 18 11  1  0
 19  7  1  0
 20  7  1  0
 21  7  1  0
 22 10  1  0
 23 17  1  0
 24 23  1  0
 25 15  1  0
 26 16  1  0
 27 24  1  0
 28 24  1  0
 29 27  1  0
 30 28  1  0
 31 29  1  0
 32 30  1  0
 33 31  1  0
 34 32  1  0
 18 13  2  0
  8  4  2  0
 10 12  2  0
M  END
