
     RDKit          3D

 65 66  0  0  0  0  0  0  0  0999 V2000
    0.6835    0.0000    0.0000 Cl  0  0  0  0  0  0  0  0  0  0  0  0
    4.1192   -0.3826    0.0356 C   0  0  0  0  0  0  0  0  0  0  0  0
    4.1714   -1.7526    0.1770 C   0  0  0  0  0  0  0  0  0  0  0  0
    2.9975   -2.4912    0.1577 C   0  0  0  0  0  0  0  0  0  0  0  0
    2.8916    0.2503   -0.1258 C   0  0  0  0  0  0  0  0  0  0  0  0
    1.6939   -0.4736   -0.1496 C   0  0  0  0  0  0  0  0  0  0  0  0
    6.4783    2.5695   -0.0572 C   0  0  0  0  0  0  0  0  0  0  0  0
    1.8060   -1.8499   -0.0021 C   0  0  0  0  0  0  0  0  0  0  0  0
    5.2811    0.3565    0.0589 C   0  0  0  0  0  0  0  0  0  0  0  0
    3.0083   -3.8634    0.2970 C   0  0  0  0  0  0  0  0  0  0  0  0
    5.2467    1.7401   -0.0768 C   0  0  0  0  0  0  0  0  0  0  0  0
    4.1935   -4.5416    0.4603 C   0  0  0  0  0  0  0  0  0  0  0  0
    2.8918    1.6280   -0.2581 C   0  0  0  0  0  0  0  0  0  0  0  0
    5.3462   -2.4306    0.3392 C   0  0  0  0  0  0  0  0  0  0  0  0
    5.3639   -3.8208    0.4810 C   0  0  0  0  0  0  0  0  0  0  0  0
    0.4111    0.2264   -0.3402 C   0  0  1  0  0  0  0  0  0  0  0  0
   -0.1544    0.8173    0.9372 C   0  0  0  0  0  0  0  0  0  0  0  0
    4.0485    2.3848   -0.2363 C   0  0  0  0  0  0  0  0  0  0  0  0
    6.9743    2.5846   -1.3446 F   0  0  0  0  0  0  0  0  0  0  0  0
    7.3584    1.9962    0.8227 F   0  0  0  0  0  0  0  0  0  0  0  0
    6.2021    3.8499    0.3850 F   0  0  0  0  0  0  0  0  0  0  0  0
    1.5104   -4.8061    0.2748 Cl  0  0  0  0  0  0  0  0  0  0  0  0
   -1.4293    1.5211    0.6346 C   0  0  0  0  0  0  0  0  0  0  0  0
   -2.4387    0.6659    0.0768 N   0  0  0  0  0  0  0  0  0  0  0  0
    6.8918   -4.6707    0.6909 Cl  0  0  0  0  0  0  0  0  0  0  0  0
    0.3417    1.0557   -1.4334 O   0  0  0  0  0  0  0  0  0  0  0  0
   -2.9281   -0.2463    1.0299 C   0  0  0  0  0  0  0  0  0  0  0  0
   -3.3657    1.4783   -0.6334 C   0  0  0  0  0  0  0  0  0  0  0  0
   -4.0428   -1.1445    0.6252 C   0  0  0  0  0  0  0  0  0  0  0  0
   -4.2112    2.3854    0.2344 C   0  0  0  0  0  0  0  0  0  0  0  0
   -3.7740   -2.0623   -0.5119 C   0  0  0  0  0  0  0  0  0  0  0  0
   -5.1438    3.2316   -0.6171 C   0  0  0  0  0  0  0  0  0  0  0  0
   -2.6342   -3.0188   -0.2474 C   0  0  0  0  0  0  0  0  0  0  0  0
   -6.0614    2.3732   -1.4470 C   0  0  0  0  0  0  0  0  0  0  0  0
   -0.6835    0.0000    0.0000 H   0  0  0  0  0  0  0  0  0  0  0  0
    0.8758   -2.4236   -0.0189 H   0  0  0  0  0  0  0  0  0  0  0  0
    6.2656   -0.0657    0.1783 H   0  0  0  0  0  0  0  0  0  0  0  0
    4.2660   -5.6152    0.5750 H   0  0  0  0  0  0  0  0  0  0  0  0
    1.9709    2.1976   -0.3782 H   0  0  0  0  0  0  0  0  0  0  0  0
    6.2946   -1.9513    0.3661 H   0  0  0  0  0  0  0  0  0  0  0  0
   -0.3258   -0.6099   -0.5849 H   0  0  0  0  0  0  0  0  0  0  0  0
   -0.3455    0.0145    1.6739 H   0  0  0  0  0  0  0  0  0  0  0  0
    0.5708    1.4948    1.4365 H   0  0  0  0  0  0  0  0  0  0  0  0
    4.0058    3.4698   -0.3436 H   0  0  0  0  0  0  0  0  0  0  0  0
   -1.2844    2.4519    0.0365 H   0  0  0  0  0  0  0  0  0  0  0  0
   -1.8170    1.8988    1.6293 H   0  0  0  0  0  0  0  0  0  0  0  0
    0.2804    0.5209   -2.2608 H   0  0  0  0  0  0  0  0  0  0  0  0
   -2.0660   -0.9317    1.2978 H   0  0  0  0  0  0  0  0  0  0  0  0
   -3.1566    0.2583    2.0076 H   0  0  0  0  0  0  0  0  0  0  0  0
   -3.9861    0.9189   -1.3636 H   0  0  0  0  0  0  0  0  0  0  0  0
   -2.7535    2.1723   -1.2813 H   0  0  0  0  0  0  0  0  0  0  0  0
   -4.2790   -1.7822    1.5246 H   0  0  0  0  0  0  0  0  0  0  0  0
   -4.9943   -0.6172    0.4202 H   0  0  0  0  0  0  0  0  0  0  0  0
   -3.5896    3.1125    0.7969 H   0  0  0  0  0  0  0  0  0  0  0  0
   -4.7746    1.8049    0.9990 H   0  0  0  0  0  0  0  0  0  0  0  0
   -3.5438   -1.5064   -1.4383 H   0  0  0  0  0  0  0  0  0  0  0  0
   -4.6572   -2.7228   -0.7300 H   0  0  0  0  0  0  0  0  0  0  0  0
   -4.4654    3.7439   -1.3647 H   0  0  0  0  0  0  0  0  0  0  0  0
   -5.6368    4.0160   -0.0538 H   0  0  0  0  0  0  0  0  0  0  0  0
   -2.5560   -3.7394   -1.0865 H   0  0  0  0  0  0  0  0  0  0  0  0
   -1.7440   -2.4208   -0.0685 H   0  0  0  0  0  0  0  0  0  0  0  0
   -2.8272   -3.6114    0.6808 H   0  0  0  0  0  0  0  0  0  0  0  0
   -6.9467    2.9102   -1.8017 H   0  0  0  0  0  0  0  0  0  0  0  0
   -6.3160    1.4602   -0.8698 H   0  0  0  0  0  0  0  0  0  0  0  0
   -5.5091    1.9928   -2.3584 H   0  0  0  0  0  0  0  0  0  0  0  0
  3  2  2  0
  4  3  1  0
  5  2  1  0
  6  5  2  0
  7 11  1  0
  8  6  1  0
  9  2  1  0
 10  4  1  0
 11  9  2  0
 12 15  1  0
 13  5  1  0
 14  3  1  0
 15 14  2  0
 16  6  1  0
 17 16  1  0
 18 11  1  0
 19  7  1  0
 20  7  1  0
 21  7  1  0
 22 10  1  0
 23 17  1  0
 24 23  1  0
 25 15  1  0
 26 16  1  0
 27 24  1  0
 28 24  1  0
 29 27  1  0
 30 28  1  0
 31 29  1  0
 32 30  1  0
 33 31  1  0
 34 32  1  0
 18 13  2  0
  8  4  2  0
 10 12  2  0
  1 35  1  0
  8 36  1  0
  9 37  1  0
 12 38  1  0
 13 39  1  0
 14 40  1  0
 16 41  1  6
 17 42  1  0
 17 43  1  0
 18 44  1  0
 23 45  1  0
 23 46  1  0
 26 47  1  0
 27 48  1  0
 27 49  1  0
 28 50  1  0
 28 51  1  0
 29 52  1  0
 29 53  1  0
 30 54  1  0
 30 55  1  0
 31 56  1  0
 31 57  1  0
 32 58  1  0
 32 59  1  0
 33 60  1  0
 33 61  1  0
 33 62  1  0
 34 63  1  0
 34 64  1  0
 34 65  1  0
M  END
$$$$
