
     RDKit          3D

135142  0  0  0  0  0  0  0  0999 V2000
   48.5881    6.7474   19.3601 N   0  0  0  0  0  0  0  0  0  0  0  0
   48.4354    6.8561   20.7648 C   0  0  0  0  0  0  0  0  0  0  0  0
   48.5610    5.5539   18.5981 C   0  0  0  0  0  0  0  0  0  0  0  0
   48.8859    5.8790   21.6836 C   0  0  0  0  0  0  0  0  0  0  0  0
   49.4453    4.4999   18.8658 C   0  0  0  0  0  0  0  0  0  0  0  0
   49.6584    4.6238   21.3301 C   0  0  0  0  0  0  0  0  0  0  0  0
   50.4126    4.6205   20.0073 C   0  0  0  0  0  0  0  0  0  0  0  0
   48.6750    7.9798   18.5364 C   0  0  0  0  0  0  0  0  0  0  0  0
   49.9133    8.8063   18.8999 C   0  0  0  0  0  0  0  0  0  0  0  0
   49.5832   11.1143   17.8863 N   0  0  0  0  0  0  0  0  0  0  0  0
   47.6449    5.3972   17.5408 C   0  0  0  0  0  0  0  0  0  0  0  0
   47.7583    7.9731   21.3119 C   0  0  0  0  0  0  0  0  0  0  0  0
   50.3271    9.8413   17.8427 C   0  0  0  0  0  0  0  0  0  0  0  0
   49.4204    3.3352   18.0797 C   0  0  0  0  0  0  0  0  0  0  0  0
   48.6221    6.0390   23.0672 C   0  0  0  0  0  0  0  0  0  0  0  0
   50.3988   12.1825   17.2933 C   0  0  0  0  0  0  0  0  0  0  0  0
   48.3053   11.0499   17.1770 C   0  0  0  0  0  0  0  0  0  0  0  0
   47.5241    8.1260   22.6817 C   0  0  0  0  0  0  0  0  0  0  0  0
   47.6208    4.2379   16.7627 C   0  0  0  0  0  0  0  0  0  0  0  0
   47.9533    7.1519   23.5632 C   0  0  0  0  0  0  0  0  0  0  0  0
   48.5137    3.2073   17.0302 C   0  0  0  0  0  0  0  0  0  0  0  0
   47.7279   10.0887   18.3216 C   0  0  0  0  0  0  0  0  0  0  0  0
   51.3482    5.7322   20.6000 C   0  0  0  0  0  0  0  0  0  0  0  0
   49.0054    6.0443   19.9336 C   0  0  0  0  0  0  0  0  0  0  0  0
   48.0693    7.6654   18.1350 C   0  0  0  0  0  0  0  0  0  0  0  0
   47.6590    8.8000   18.8695 C   0  0  0  0  0  0  0  0  0  0  0  0
   50.3769    5.9281   19.6095 C   0  0  0  0  0  0  0  0  0  0  0  0
   47.9999    6.2907   18.8049 C   0  0  0  0  0  0  0  0  0  0  0  0
   48.1845   10.2540   17.0135 C   0  0  0  0  0  0  0  0  0  0  0  0
   50.9469    5.6132   21.9321 C   0  0  0  0  0  0  0  0  0  0  0  0
   47.3119   11.2590   19.1295 C   0  0  0  0  0  0  0  0  0  0  0  0
   52.8056    5.6269   20.3347 C   0  0  0  0  0  0  0  0  0  0  0  0
   48.6012    5.9017   21.3027 C   0  0  0  0  0  0  0  0  0  0  0  0
   48.5129    7.8394   16.7818 C   0  0  0  0  0  0  0  0  0  0  0  0
   48.5647    9.1522   16.2391 C   0  0  0  0  0  0  0  0  0  0  0  0
   49.5971    5.6844   22.2923 C   0  0  0  0  0  0  0  0  0  0  0  0
   46.8902   11.1932   20.2732 O   0  0  0  0  0  0  0  0  0  0  0  0
   53.6740    5.4176   21.1619 O   0  0  0  0  0  0  0  0  0  0  0  0
   47.1618    8.5908   20.1325 O   0  0  0  0  0  0  0  0  0  0  0  0
   50.7161    5.9841   18.2814 O   0  0  0  0  0  0  0  0  0  0  0  0
   47.4405   12.4367   18.4948 O   0  0  0  0  0  0  0  0  0  0  0  0
   53.1259    5.7975   19.0339 O   0  0  0  0  0  0  0  0  0  0  0  0
   48.9101    6.7876   15.9177 C   0  0  0  0  0  0  0  0  0  0  0  0
   47.2613    5.9557   21.7642 C   0  0  0  0  0  0  0  0  0  0  0  0
   48.9954    9.3657   14.9182 C   0  0  0  0  0  0  0  0  0  0  0  0
   49.2463    5.5371   23.6455 C   0  0  0  0  0  0  0  0  0  0  0  0
   46.9243    5.8083   23.1137 C   0  0  0  0  0  0  0  0  0  0  0  0
   49.3356    7.0132   14.6043 C   0  0  0  0  0  0  0  0  0  0  0  0
   47.9181    5.5970   24.0556 C   0  0  0  0  0  0  0  0  0  0  0  0
   49.3782    8.3041   14.1039 C   0  0  0  0  0  0  0  0  0  0  0  0
   48.9915    6.8500   19.6566 N   0  0  0  0  0  0  0  0  0  0  0  0
   49.4883    6.7285   20.9989 C   0  0  0  0  0  0  0  0  0  0  0  0
   48.5566    5.8501   18.7221 C   0  0  0  0  0  0  0  0  0  0  0  0
   49.0939    5.7084   21.8835 C   0  0  0  0  0  0  0  0  0  0  0  0
   48.5582    4.4580   18.9793 C   0  0  0  0  0  0  0  0  0  0  0  0
   48.1818    4.6022   21.4486 C   0  0  0  0  0  0  0  0  0  0  0  0
   48.8579    3.8438   20.3217 C   0  0  0  0  0  0  0  0  0  0  0  0
   48.7970    8.2760   19.2483 C   0  0  0  0  0  0  0  0  0  0  0  0
   49.9352    8.7841   18.3419 C   0  0  0  0  0  0  0  0  0  0  0  0
   48.6247   10.7558   17.4860 N   0  0  0  0  0  0  0  0  0  0  0  0
   48.1194    6.2091   17.4192 C   0  0  0  0  0  0  0  0  0  0  0  0
   50.4166    7.6638   21.5188 C   0  0  0  0  0  0  0  0  0  0  0  0
   49.8679   10.3021   18.1314 C   0  0  0  0  0  0  0  0  0  0  0  0
   48.2352    3.5253   17.9575 C   0  0  0  0  0  0  0  0  0  0  0  0
   49.5721    5.6704   23.2144 C   0  0  0  0  0  0  0  0  0  0  0  0
   48.4758   12.2058   17.6459 C   0  0  0  0  0  0  0  0  0  0  0  0
   48.6016   10.4187   16.0590 C   0  0  0  0  0  0  0  0  0  0  0  0
   50.8967    7.6178   22.8331 C   0  0  0  0  0  0  0  0  0  0  0  0
   47.7755    5.2828   16.4252 C   0  0  0  0  0  0  0  0  0  0  0  0
   50.4657    6.6205   23.6880 C   0  0  0  0  0  0  0  0  0  0  0  0
   47.8499    3.9319   16.6900 C   0  0  0  0  0  0  0  0  0  0  0  0
   50.4112    4.4632   22.1138 H   0  0  0  0  0  0  0  0  0  0  0  0
   48.9650    3.7733   21.3759 H   0  0  0  0  0  0  0  0  0  0  0  0
   51.1038    3.7686   19.9965 H   0  0  0  0  0  0  0  0  0  0  0  0
   51.0333    5.5170   19.8881 H   0  0  0  0  0  0  0  0  0  0  0  0
   47.7489    8.5531   18.6240 H   0  0  0  0  0  0  0  0  0  0  0  0
   48.7641    7.7313   17.4704 H   0  0  0  0  0  0  0  0  0  0  0  0
   50.7605    8.1175   19.0266 H   0  0  0  0  0  0  0  0  0  0  0  0
   49.7853    9.3017   19.8694 H   0  0  0  0  0  0  0  0  0  0  0  0
   46.9210    6.1808   17.3310 H   0  0  0  0  0  0  0  0  0  0  0  0
   47.3636    8.7544   20.6686 H   0  0  0  0  0  0  0  0  0  0  0  0
   50.3159    9.4032   16.8367 H   0  0  0  0  0  0  0  0  0  0  0  0
   51.3827   10.0564   18.0597 H   0  0  0  0  0  0  0  0  0  0  0  0
   50.1065    2.5176   18.2881 H   0  0  0  0  0  0  0  0  0  0  0  0
   48.9545    5.2786   23.7726 H   0  0  0  0  0  0  0  0  0  0  0  0
   51.3345   12.3100   17.8500 H   0  0  0  0  0  0  0  0  0  0  0  0
   50.6443   11.9791   16.2440 H   0  0  0  0  0  0  0  0  0  0  0  0
   49.8767   13.1446   17.3467 H   0  0  0  0  0  0  0  0  0  0  0  0
   47.5978   10.3928   17.6847 H   0  0  0  0  0  0  0  0  0  0  0  0
   47.8238   12.0350   17.1590 H   0  0  0  0  0  0  0  0  0  0  0  0
   48.4202   10.7101   16.1409 H   0  0  0  0  0  0  0  0  0  0  0  0
   46.9945    9.0008   23.0471 H   0  0  0  0  0  0  0  0  0  0  0  0
   46.9008    4.1409   15.9551 H   0  0  0  0  0  0  0  0  0  0  0  0
   47.7699    7.2528   24.6289 H   0  0  0  0  0  0  0  0  0  0  0  0
   48.4983    2.3019   16.4304 H   0  0  0  0  0  0  0  0  0  0  0  0
   46.9668    6.1474   19.1340 H   0  0  0  0  0  0  0  0  0  0  0  0
   48.1197    5.4743   18.0868 H   0  0  0  0  0  0  0  0  0  0  0  0
   48.2357   11.2530   16.5849 H   0  0  0  0  0  0  0  0  0  0  0  0
   51.7024    5.4523   22.7004 H   0  0  0  0  0  0  0  0  0  0  0  0
   46.9820    9.4515   20.5669 H   0  0  0  0  0  0  0  0  0  0  0  0
   51.6926    6.0106   18.2146 H   0  0  0  0  0  0  0  0  0  0  0  0
   47.1384   13.1028   19.1475 H   0  0  0  0  0  0  0  0  0  0  0  0
   54.1056    5.7055   19.0384 H   0  0  0  0  0  0  0  0  0  0  0  0
   48.9137    5.7556   16.2566 H   0  0  0  0  0  0  0  0  0  0  0  0
   46.4389    6.1361   21.0777 H   0  0  0  0  0  0  0  0  0  0  0  0
   49.0348   10.3727   14.5067 H   0  0  0  0  0  0  0  0  0  0  0  0
   50.0140    5.3715   24.3994 H   0  0  0  0  0  0  0  0  0  0  0  0
   45.8829    5.8660   23.4206 H   0  0  0  0  0  0  0  0  0  0  0  0
   49.6363    6.1743   13.9820 H   0  0  0  0  0  0  0  0  0  0  0  0
   47.6636    5.4828   25.1058 H   0  0  0  0  0  0  0  0  0  0  0  0
   49.7091    8.4868   13.0855 H   0  0  0  0  0  0  0  0  0  0  0  0
   47.1970    5.0001   21.1747 H   0  0  0  0  0  0  0  0  0  0  0  0
   48.0112    3.9088   22.2820 H   0  0  0  0  0  0  0  0  0  0  0  0
   48.4631    2.8201   20.3467 H   0  0  0  0  0  0  0  0  0  0  0  0
   49.9446    3.7599   20.4522 H   0  0  0  0  0  0  0  0  0  0  0  0
   48.7139    8.9275   20.1304 H   0  0  0  0  0  0  0  0  0  0  0  0
   47.8157    8.4118   18.7759 H   0  0  0  0  0  0  0  0  0  0  0  0
   50.9098    8.5467   18.7831 H   0  0  0  0  0  0  0  0  0  0  0  0
   49.9419    8.2684   17.3769 H   0  0  0  0  0  0  0  0  0  0  0  0
   48.0334    7.2443   17.1107 H   0  0  0  0  0  0  0  0  0  0  0  0
   50.8107    8.4632   20.9020 H   0  0  0  0  0  0  0  0  0  0  0  0
   50.7444   10.6302   17.5577 H   0  0  0  0  0  0  0  0  0  0  0  0
   49.9572   10.7681   19.1223 H   0  0  0  0  0  0  0  0  0  0  0  0
   48.2686    2.4570   18.1653 H   0  0  0  0  0  0  0  0  0  0  0  0
   49.2522    4.8770   23.8877 H   0  0  0  0  0  0  0  0  0  0  0  0
   49.3056   12.7592   17.1923 H   0  0  0  0  0  0  0  0  0  0  0  0
   47.5397   12.5501   17.1910 H   0  0  0  0  0  0  0  0  0  0  0  0
   48.4205   12.4718   18.7080 H   0  0  0  0  0  0  0  0  0  0  0  0
   47.6702   10.7688   15.5990 H   0  0  0  0  0  0  0  0  0  0  0  0
   49.4415   10.8663   15.5155 H   0  0  0  0  0  0  0  0  0  0  0  0
   48.6277    9.3364   15.9048 H   0  0  0  0  0  0  0  0  0  0  0  0
   51.6083    8.3639   23.1773 H   0  0  0  0  0  0  0  0  0  0  0  0
   47.4602    5.6323   15.4458 H   0  0  0  0  0  0  0  0  0  0  0  0
   50.8297    6.5736   24.7100 H   0  0  0  0  0  0  0  0  0  0  0  0
   47.5971    3.2018   15.9279 H   0  0  0  0  0  0  0  0  0  0  0  0
  2  1  1  0
  3  1  1  0
  4  2  2  0
  5  3  2  0
  6  4  1  0
  7  5  1  0
  8  1  1  0
  9  8  1  0
 10 13  1  0
 11  3  1  0
 12  2  1  0
 13  9  1  0
 14  5  1  0
 15  4  1  0
 16 10  1  0
 17 10  1  0
 18 12  2  0
 19 11  2  0
 20 15  2  0
 21 14  2  0
  6  7  1  0
 18 20  1  0
 19 21  1  0
 23 27  2  0
 24 28  1  0
 25 26  1  0
 26 22  2  0
 27 24  1  0
 28 25  1  0
 29 22  1  0
 30 23  1  0
 31 22  1  0
 32 23  1  0
 33 24  2  0
 34 35  1  0
 35 29  2  0
 36 33  1  0
 37 31  2  0
 38 32  2  0
 39 26  1  0
 40 27  1  0
 41 31  1  0
 42 32  1  0
 43 34  1  0
 44 33  1  0
 45 35  1  0
 46 36  1  0
 47 44  2  0
 48 43  2  0
 49 47  1  0
 50 45  2  0
 25 34  2  0
 48 50  1  0
 30 36  2  0
 46 49  2  0
 52 51  1  0
 53 51  1  0
 54 52  2  0
 55 53  2  0
 56 54  1  0
 57 55  1  0
 58 51  1  0
 59 58  1  0
 60 63  1  0
 61 53  1  0
 62 52  1  0
 63 59  1  0
 64 55  1  0
 65 54  1  0
 66 60  1  0
 67 60  1  0
 68 62  2  0
 69 61  2  0
 70 65  2  0
 71 64  2  0
 56 57  1  0
 68 70  1  0
 69 71  1  0
  6 72  1  0
  6 73  1  0
  7 74  1  0
  7 75  1  0
  8 76  1  0
  8 77  1  0
  9 78  1  0
  9 79  1  0
 11 80  1  0
 12 81  1  0
 13 82  1  0
 13 83  1  0
 14 84  1  0
 15 85  1  0
 16 86  1  0
 16 87  1  0
 16 88  1  0
 17 89  1  0
 17 90  1  0
 17 91  1  0
 18 92  1  0
 19 93  1  0
 20 94  1  0
 21 95  1  0
 28 96  1  0
 28 97  1  0
 29 98  1  0
 30 99  1  0
 39100  1  0
 40101  1  0
 41102  1  0
 42103  1  0
 43104  1  0
 44105  1  0
 45106  1  0
 46107  1  0
 47108  1  0
 48109  1  0
 49110  1  0
 50111  1  0
 56112  1  0
 56113  1  0
 57114  1  0
 57115  1  0
 58116  1  0
 58117  1  0
 59118  1  0
 59119  1  0
 61120  1  0
 62121  1  0
 63122  1  0
 63123  1  0
 64124  1  0
 65125  1  0
 66126  1  0
 66127  1  0
 66128  1  0
 67129  1  0
 67130  1  0
 67131  1  0
 68132  1  0
 69133  1  0
 70134  1  0
 71135  1  0
M  END
> <Uni-Dock RESULT> 
ENERGY=   -8.522  LOWER_BOUND=    0.000  UPPER_BOUND=    0.000
INTER + INTRA:          -8.522
INTER:                  -8.522
INTRA:                   0.000
UNBOUND:                 0.000

$$$$

     RDKit          3D

135142  0  0  0  0  0  0  0  0999 V2000
   48.7877    8.6328   19.8031 N   0  0  0  0  0  0  0  0  0  0  0  0
   48.2840    9.9526   19.6900 C   0  0  0  0  0  0  0  0  0  0  0  0
   48.4452    7.6808   20.7941 C   0  0  0  0  0  0  0  0  0  0  0  0
   47.9288   10.7573   20.7982 C   0  0  0  0  0  0  0  0  0  0  0  0
   48.6137    7.9578   22.1578 C   0  0  0  0  0  0  0  0  0  0  0  0
   48.0999   10.3785   22.2558 C   0  0  0  0  0  0  0  0  0  0  0  0
   49.1286    9.3034   22.5791 C   0  0  0  0  0  0  0  0  0  0  0  0
   49.6798    8.0973   18.7437 C   0  0  0  0  0  0  0  0  0  0  0  0
   50.9830    8.8989   18.6555 C   0  0  0  0  0  0  0  0  0  0  0  0
   52.0823    8.2788   16.4486 N   0  0  0  0  0  0  0  0  0  0  0  0
   47.9307    6.4213   20.4331 C   0  0  0  0  0  0  0  0  0  0  0  0
   48.0698   10.5136   18.4075 C   0  0  0  0  0  0  0  0  0  0  0  0
   52.1272    8.1847   17.9200 C   0  0  0  0  0  0  0  0  0  0  0  0
   48.2936    6.9886   23.1239 C   0  0  0  0  0  0  0  0  0  0  0  0
   47.3625   12.0392   20.5847 C   0  0  0  0  0  0  0  0  0  0  0  0
   53.4356    8.1110   15.9024 C   0  0  0  0  0  0  0  0  0  0  0  0
   51.2033    7.2788   15.8421 C   0  0  0  0  0  0  0  0  0  0  0  0
   47.5291   11.7883   18.2143 C   0  0  0  0  0  0  0  0  0  0  0  0
   47.6114    5.4609   21.3952 C   0  0  0  0  0  0  0  0  0  0  0  0
   47.1689   12.5528   19.3078 C   0  0  0  0  0  0  0  0  0  0  0  0
   47.7978    5.7441   22.7428 C   0  0  0  0  0  0  0  0  0  0  0  0
   49.9303    8.0498   16.4360 C   0  0  0  0  0  0  0  0  0  0  0  0
   50.2417   10.3016   22.1026 C   0  0  0  0  0  0  0  0  0  0  0  0
   48.6364    9.1512   20.6432 C   0  0  0  0  0  0  0  0  0  0  0  0
   49.1518    7.5089   18.6999 C   0  0  0  0  0  0  0  0  0  0  0  0
   49.1110    8.3168   17.5420 C   0  0  0  0  0  0  0  0  0  0  0  0
   49.8239    9.1570   21.4109 C   0  0  0  0  0  0  0  0  0  0  0  0
   48.2553    7.8762   19.8852 C   0  0  0  0  0  0  0  0  0  0  0  0
   50.7845    6.9470   16.4660 C   0  0  0  0  0  0  0  0  0  0  0  0
   49.4477   11.4493   22.0608 C   0  0  0  0  0  0  0  0  0  0  0  0
   49.8790    8.9328   15.2473 C   0  0  0  0  0  0  0  0  0  0  0  0
   51.4879   10.3864   22.9058 C   0  0  0  0  0  0  0  0  0  0  0  0
   47.8177   10.3292   20.6219 C   0  0  0  0  0  0  0  0  0  0  0  0
   50.0129    6.3615   18.7141 C   0  0  0  0  0  0  0  0  0  0  0  0
   50.8275    6.0997   17.5790 C   0  0  0  0  0  0  0  0  0  0  0  0
   48.2465   11.4749   21.3443 C   0  0  0  0  0  0  0  0  0  0  0  0
   49.1498    9.9061   15.1416 O   0  0  0  0  0  0  0  0  0  0  0  0
   51.8635   11.3478   23.5515 O   0  0  0  0  0  0  0  0  0  0  0  0
   48.2164    9.3588   17.5282 O   0  0  0  0  0  0  0  0  0  0  0  0
   50.5358    7.9862   21.4767 O   0  0  0  0  0  0  0  0  0  0  0  0
   50.7232    8.5773   14.2638 O   0  0  0  0  0  0  0  0  0  0  0  0
   52.2289    9.2581   22.8639 O   0  0  0  0  0  0  0  0  0  0  0  0
   50.1204    5.4423   19.7884 C   0  0  0  0  0  0  0  0  0  0  0  0
   46.5861   10.4504   19.9294 C   0  0  0  0  0  0  0  0  0  0  0  0
   51.6863    4.9872   17.5538 C   0  0  0  0  0  0  0  0  0  0  0  0
   47.4751   12.6499   21.3531 C   0  0  0  0  0  0  0  0  0  0  0  0
   45.8273   11.6253   19.9449 C   0  0  0  0  0  0  0  0  0  0  0  0
   50.9781    4.3379   19.7505 C   0  0  0  0  0  0  0  0  0  0  0  0
   46.2715   12.7262   20.6591 C   0  0  0  0  0  0  0  0  0  0  0  0
   51.7621    4.1100   18.6315 C   0  0  0  0  0  0  0  0  0  0  0  0
   49.0812    9.0328   19.9261 N   0  0  0  0  0  0  0  0  0  0  0  0
   49.0312   10.4097   20.3323 C   0  0  0  0  0  0  0  0  0  0  0  0
   48.5407    7.8524   20.5401 C   0  0  0  0  0  0  0  0  0  0  0  0
   47.9625   10.9671   21.0575 C   0  0  0  0  0  0  0  0  0  0  0  0
   47.8207    7.8409   21.7589 C   0  0  0  0  0  0  0  0  0  0  0  0
   46.8236   10.1258   21.5472 C   0  0  0  0  0  0  0  0  0  0  0  0
   47.3788    9.0788   22.4946 C   0  0  0  0  0  0  0  0  0  0  0  0
   49.7020    8.8594   18.5762 C   0  0  0  0  0  0  0  0  0  0  0  0
   51.1605    8.3690   18.6630 C   0  0  0  0  0  0  0  0  0  0  0  0
   51.2397    7.5970   16.2681 N   0  0  0  0  0  0  0  0  0  0  0  0
   48.7381    6.5714   19.9591 C   0  0  0  0  0  0  0  0  0  0  0  0
   50.0789   11.3042   20.0023 C   0  0  0  0  0  0  0  0  0  0  0  0
   51.8698    8.4320   17.3043 C   0  0  0  0  0  0  0  0  0  0  0  0
   47.4310    6.6172   22.3664 C   0  0  0  0  0  0  0  0  0  0  0  0
   47.9391   12.3439   21.3815 C   0  0  0  0  0  0  0  0  0  0  0  0
   51.7369    7.9801   14.9430 C   0  0  0  0  0  0  0  0  0  0  0  0
   51.4982    6.1709   16.4913 C   0  0  0  0  0  0  0  0  0  0  0  0
   50.0584   12.6644   20.3335 C   0  0  0  0  0  0  0  0  0  0  0  0
   48.3256    5.3702   20.5518 C   0  0  0  0  0  0  0  0  0  0  0  0
   48.9788   13.1887   21.0195 C   0  0  0  0  0  0  0  0  0  0  0  0
   47.6829    5.3914   21.7713 C   0  0  0  0  0  0  0  0  0  0  0  0
   48.4148   11.2791   22.8001 H   0  0  0  0  0  0  0  0  0  0  0  0
   47.1152   10.0955   22.6517 H   0  0  0  0  0  0  0  0  0  0  0  0
   49.3142    9.3052   23.6603 H   0  0  0  0  0  0  0  0  0  0  0  0
   50.0962    9.5071   22.1042 H   0  0  0  0  0  0  0  0  0  0  0  0
   49.1465    8.0597   17.7908 H   0  0  0  0  0  0  0  0  0  0  0  0
   49.9631    7.0586   18.9603 H   0  0  0  0  0  0  0  0  0  0  0  0
   51.3322    9.0998   19.6783 H   0  0  0  0  0  0  0  0  0  0  0  0
   50.8107    9.8817   18.2016 H   0  0  0  0  0  0  0  0  0  0  0  0
   47.7533    6.1888   19.3858 H   0  0  0  0  0  0  0  0  0  0  0  0
   48.2973    9.9487   17.5080 H   0  0  0  0  0  0  0  0  0  0  0  0
   52.2210    7.1435   18.2538 H   0  0  0  0  0  0  0  0  0  0  0  0
   53.0401    8.6893   18.2656 H   0  0  0  0  0  0  0  0  0  0  0  0
   48.4242    7.2043   24.1818 H   0  0  0  0  0  0  0  0  0  0  0  0
   47.0739   12.6519   21.4377 H   0  0  0  0  0  0  0  0  0  0  0  0
   54.1050    8.8934   16.2783 H   0  0  0  0  0  0  0  0  0  0  0  0
   53.8649    7.1347   16.1580 H   0  0  0  0  0  0  0  0  0  0  0  0
   53.4289    8.2114   14.8111 H   0  0  0  0  0  0  0  0  0  0  0  0
   50.1560    7.4678   16.0820 H   0  0  0  0  0  0  0  0  0  0  0  0
   51.2627    7.3256   14.7481 H   0  0  0  0  0  0  0  0  0  0  0  0
   51.4568    6.2581   16.1518 H   0  0  0  0  0  0  0  0  0  0  0  0
   47.3811   12.1678   17.2076 H   0  0  0  0  0  0  0  0  0  0  0  0
   47.2119    4.4980   21.0896 H   0  0  0  0  0  0  0  0  0  0  0  0
   46.7390   13.5410   19.1725 H   0  0  0  0  0  0  0  0  0  0  0  0
   47.5489    5.0025   23.4963 H   0  0  0  0  0  0  0  0  0  0  0  0
   47.2283    7.9101   19.5106 H   0  0  0  0  0  0  0  0  0  0  0  0
   48.1960    7.0714   20.6237 H   0  0  0  0  0  0  0  0  0  0  0  0
   51.4191    6.7357   15.6074 H   0  0  0  0  0  0  0  0  0  0  0  0
   49.7695   12.3360   22.6061 H   0  0  0  0  0  0  0  0  0  0  0  0
   48.3324    9.8870   16.7099 H   0  0  0  0  0  0  0  0  0  0  0  0
   51.3820    8.1666   21.9352 H   0  0  0  0  0  0  0  0  0  0  0  0
   50.5809    9.2474   13.5625 H   0  0  0  0  0  0  0  0  0  0  0  0
   53.0012    9.4852   23.4297 H   0  0  0  0  0  0  0  0  0  0  0  0
   49.5435    5.5755   20.6992 H   0  0  0  0  0  0  0  0  0  0  0  0
   46.1928    9.6289   19.3374 H   0  0  0  0  0  0  0  0  0  0  0  0
   52.3094    4.7908   16.6831 H   0  0  0  0  0  0  0  0  0  0  0  0
   47.8092   13.5250   21.9079 H   0  0  0  0  0  0  0  0  0  0  0  0
   44.8930   11.6732   19.3910 H   0  0  0  0  0  0  0  0  0  0  0  0
   51.0301    3.6645   20.6021 H   0  0  0  0  0  0  0  0  0  0  0  0
   45.6876   13.6425   20.6745 H   0  0  0  0  0  0  0  0  0  0  0  0
   52.4316    3.2554   18.5958 H   0  0  0  0  0  0  0  0  0  0  0  0
   46.2701    9.6974   20.7026 H   0  0  0  0  0  0  0  0  0  0  0  0
   46.1078   10.7495   22.0979 H   0  0  0  0  0  0  0  0  0  0  0  0
   46.5692    8.8172   23.1880 H   0  0  0  0  0  0  0  0  0  0  0  0
   48.2059    9.4536   23.1115 H   0  0  0  0  0  0  0  0  0  0  0  0
   49.6659    9.7988   18.0055 H   0  0  0  0  0  0  0  0  0  0  0  0
   49.0907    8.1946   17.9526 H   0  0  0  0  0  0  0  0  0  0  0  0
   51.7288    8.9837   19.3701 H   0  0  0  0  0  0  0  0  0  0  0  0
   51.2209    7.3570   19.0746 H   0  0  0  0  0  0  0  0  0  0  0  0
   49.2385    6.4475   19.0059 H   0  0  0  0  0  0  0  0  0  0  0  0
   50.9640   10.9610   19.4793 H   0  0  0  0  0  0  0  0  0  0  0  0
   52.9260    8.1610   17.4310 H   0  0  0  0  0  0  0  0  0  0  0  0
   51.8585    9.4830   16.9845 H   0  0  0  0  0  0  0  0  0  0  0  0
   46.9021    6.6262   23.3181 H   0  0  0  0  0  0  0  0  0  0  0  0
   47.1014   12.7602   21.9384 H   0  0  0  0  0  0  0  0  0  0  0  0
   52.8219    7.8535   14.8560 H   0  0  0  0  0  0  0  0  0  0  0  0
   51.2543    7.3815   14.1618 H   0  0  0  0  0  0  0  0  0  0  0  0
   51.4912    9.0266   14.7278 H   0  0  0  0  0  0  0  0  0  0  0  0
   51.0236    5.5695   15.7072 H   0  0  0  0  0  0  0  0  0  0  0  0
   52.5699    5.9416   16.4975 H   0  0  0  0  0  0  0  0  0  0  0  0
   51.0667    5.8309   17.4369 H   0  0  0  0  0  0  0  0  0  0  0  0
   50.8914   13.3038   20.0531 H   0  0  0  0  0  0  0  0  0  0  0  0
   48.5218    4.4252   20.0526 H   0  0  0  0  0  0  0  0  0  0  0  0
   48.9499   14.2420   21.2821 H   0  0  0  0  0  0  0  0  0  0  0  0
   47.3664    4.4694   22.2484 H   0  0  0  0  0  0  0  0  0  0  0  0
  2  1  1  0
  3  1  1  0
  4  2  2  0
  5  3  2  0
  6  4  1  0
  7  5  1  0
  8  1  1  0
  9  8  1  0
 10 13  1  0
 11  3  1  0
 12  2  1  0
 13  9  1  0
 14  5  1  0
 15  4  1  0
 16 10  1  0
 17 10  1  0
 18 12  2  0
 19 11  2  0
 20 15  2  0
 21 14  2  0
  6  7  1  0
 18 20  1  0
 19 21  1  0
 23 27  2  0
 24 28  1  0
 25 26  1  0
 26 22  2  0
 27 24  1  0
 28 25  1  0
 29 22  1  0
 30 23  1  0
 31 22  1  0
 32 23  1  0
 33 24  2  0
 34 35  1  0
 35 29  2  0
 36 33  1  0
 37 31  2  0
 38 32  2  0
 39 26  1  0
 40 27  1  0
 41 31  1  0
 42 32  1  0
 43 34  1  0
 44 33  1  0
 45 35  1  0
 46 36  1  0
 47 44  2  0
 48 43  2  0
 49 47  1  0
 50 45  2  0
 25 34  2  0
 48 50  1  0
 30 36  2  0
 46 49  2  0
 52 51  1  0
 53 51  1  0
 54 52  2  0
 55 53  2  0
 56 54  1  0
 57 55  1  0
 58 51  1  0
 59 58  1  0
 60 63  1  0
 61 53  1  0
 62 52  1  0
 63 59  1  0
 64 55  1  0
 65 54  1  0
 66 60  1  0
 67 60  1  0
 68 62  2  0
 69 61  2  0
 70 65  2  0
 71 64  2  0
 56 57  1  0
 68 70  1  0
 69 71  1  0
  6 72  1  0
  6 73  1  0
  7 74  1  0
  7 75  1  0
  8 76  1  0
  8 77  1  0
  9 78  1  0
  9 79  1  0
 11 80  1  0
 12 81  1  0
 13 82  1  0
 13 83  1  0
 14 84  1  0
 15 85  1  0
 16 86  1  0
 16 87  1  0
 16 88  1  0
 17 89  1  0
 17 90  1  0
 17 91  1  0
 18 92  1  0
 19 93  1  0
 20 94  1  0
 21 95  1  0
 28 96  1  0
 28 97  1  0
 29 98  1  0
 30 99  1  0
 39100  1  0
 40101  1  0
 41102  1  0
 42103  1  0
 43104  1  0
 44105  1  0
 45106  1  0
 46107  1  0
 47108  1  0
 48109  1  0
 49110  1  0
 50111  1  0
 56112  1  0
 56113  1  0
 57114  1  0
 57115  1  0
 58116  1  0
 58117  1  0
 59118  1  0
 59119  1  0
 61120  1  0
 62121  1  0
 63122  1  0
 63123  1  0
 64124  1  0
 65125  1  0
 66126  1  0
 66127  1  0
 66128  1  0
 67129  1  0
 67130  1  0
 67131  1  0
 68132  1  0
 69133  1  0
 70134  1  0
 71135  1  0
M  END
> <Uni-Dock RESULT> 
ENERGY=   -7.878  LOWER_BOUND=    2.296  UPPER_BOUND=    4.888
INTER + INTRA:          -7.878
INTER:                  -7.878
INTRA:                   0.000
UNBOUND:                 0.000

$$$$

     RDKit          3D

135142  0  0  0  0  0  0  0  0999 V2000
   48.7718    9.7177   17.8423 N   0  0  0  0  0  0  0  0  0  0  0  0
   49.0101    8.8542   16.7441 C   0  0  0  0  0  0  0  0  0  0  0  0
   48.5412   11.1138   17.7836 C   0  0  0  0  0  0  0  0  0  0  0  0
   49.6990    9.2438   15.5714 C   0  0  0  0  0  0  0  0  0  0  0  0
   49.4690   11.9798   17.1888 C   0  0  0  0  0  0  0  0  0  0  0  0
   50.3496   10.5924   15.3360 C   0  0  0  0  0  0  0  0  0  0  0  0
   50.7119   11.4141   16.5656 C   0  0  0  0  0  0  0  0  0  0  0  0
   48.6248    9.1450   19.2044 C   0  0  0  0  0  0  0  0  0  0  0  0
   49.9122    8.4478   19.6573 C   0  0  0  0  0  0  0  0  0  0  0  0
   49.3079    7.0192   21.6715 N   0  0  0  0  0  0  0  0  0  0  0  0
   47.3708   11.6723   18.3311 C   0  0  0  0  0  0  0  0  0  0  0  0
   48.5049    7.5315   16.7701 C   0  0  0  0  0  0  0  0  0  0  0  0
   50.0161    8.2128   21.1719 C   0  0  0  0  0  0  0  0  0  0  0  0
   49.2337   13.3652   17.1659 C   0  0  0  0  0  0  0  0  0  0  0  0
   49.8244    8.3324   14.4929 C   0  0  0  0  0  0  0  0  0  0  0  0
   49.9256    6.5687   22.9259 C   0  0  0  0  0  0  0  0  0  0  0  0
   47.8847    7.2611   21.9087 C   0  0  0  0  0  0  0  0  0  0  0  0
   48.6549    6.6378   15.7055 C   0  0  0  0  0  0  0  0  0  0  0  0
   47.1384   13.0490   18.3050 C   0  0  0  0  0  0  0  0  0  0  0  0
   49.3132    7.0416   14.5593 C   0  0  0  0  0  0  0  0  0  0  0  0
   48.0743   13.8970   17.7253 C   0  0  0  0  0  0  0  0  0  0  0  0
   47.6471    7.3635   20.3274 C   0  0  0  0  0  0  0  0  0  0  0  0
   51.7701   10.3120   16.9236 C   0  0  0  0  0  0  0  0  0  0  0  0
   49.3332   10.0588   17.0900 C   0  0  0  0  0  0  0  0  0  0  0  0
   47.9333    9.5307   19.2115 C   0  0  0  0  0  0  0  0  0  0  0  0
   47.7361    8.1331   19.1588 C   0  0  0  0  0  0  0  0  0  0  0  0
   50.5635   10.5331   17.6007 C   0  0  0  0  0  0  0  0  0  0  0  0
   48.0557   10.3066   17.8975 C   0  0  0  0  0  0  0  0  0  0  0  0
   47.7267    7.9927   21.5703 C   0  0  0  0  0  0  0  0  0  0  0  0
   51.7501    9.6397   15.7000 C   0  0  0  0  0  0  0  0  0  0  0  0
   47.4644    5.8961   20.2345 C   0  0  0  0  0  0  0  0  0  0  0  0
   53.0991   10.7586   17.4131 C   0  0  0  0  0  0  0  0  0  0  0  0
   49.3207    9.3859   15.8230 C   0  0  0  0  0  0  0  0  0  0  0  0
   47.9880   10.1748   20.4923 C   0  0  0  0  0  0  0  0  0  0  0  0
   47.8840    9.3799   21.6661 C   0  0  0  0  0  0  0  0  0  0  0  0
   50.5507    9.1867   15.1405 C   0  0  0  0  0  0  0  0  0  0  0  0
   47.3730    5.2771   19.1863 O   0  0  0  0  0  0  0  0  0  0  0  0
   54.1619   10.6205   16.8356 O   0  0  0  0  0  0  0  0  0  0  0  0
   47.6054    7.5584   17.9182 O   0  0  0  0  0  0  0  0  0  0  0  0
   50.5251   11.2464   18.7718 O   0  0  0  0  0  0  0  0  0  0  0  0
   47.4095    5.2743   21.4247 O   0  0  0  0  0  0  0  0  0  0  0  0
   53.0496   11.3592   18.6217 O   0  0  0  0  0  0  0  0  0  0  0  0
   48.1368   11.5708   20.6916 C   0  0  0  0  0  0  0  0  0  0  0  0
   48.1587    8.8946   15.1752 C   0  0  0  0  0  0  0  0  0  0  0  0
   47.9349    9.9720   22.9400 C   0  0  0  0  0  0  0  0  0  0  0  0
   50.5852    8.5343   13.8959 C   0  0  0  0  0  0  0  0  0  0  0  0
   48.2054    8.2463   13.9367 C   0  0  0  0  0  0  0  0  0  0  0  0
   48.1847   12.1480   21.9649 C   0  0  0  0  0  0  0  0  0  0  0  0
   49.4203    8.0673   13.2953 C   0  0  0  0  0  0  0  0  0  0  0  0
   48.0835   11.3474   23.0907 C   0  0  0  0  0  0  0  0  0  0  0  0
   49.2407    9.5341   17.7550 N   0  0  0  0  0  0  0  0  0  0  0  0
   50.0873    8.9924   16.7287 C   0  0  0  0  0  0  0  0  0  0  0  0
   48.5699   10.8005   17.8477 C   0  0  0  0  0  0  0  0  0  0  0  0
   49.9546    9.3100   15.3648 C   0  0  0  0  0  0  0  0  0  0  0  0
   48.6473   11.8218   16.8704 C   0  0  0  0  0  0  0  0  0  0  0  0
   48.9623   10.3268   14.8891 C   0  0  0  0  0  0  0  0  0  0  0  0
   49.3061   11.6606   15.5254 C   0  0  0  0  0  0  0  0  0  0  0  0
   48.9363    8.5365   18.8274 C   0  0  0  0  0  0  0  0  0  0  0  0
   49.7802    8.7675   20.0962 C   0  0  0  0  0  0  0  0  0  0  0  0
   48.2778    7.3884   21.5721 N   0  0  0  0  0  0  0  0  0  0  0  0
   47.7906   11.1324   18.9879 C   0  0  0  0  0  0  0  0  0  0  0  0
   51.1191    8.0749   17.0454 C   0  0  0  0  0  0  0  0  0  0  0  0
   49.6520    7.6067   21.0908 C   0  0  0  0  0  0  0  0  0  0  0  0
   48.0597   13.0955   17.0959 C   0  0  0  0  0  0  0  0  0  0  0  0
   50.7797    8.7022   14.3896 C   0  0  0  0  0  0  0  0  0  0  0  0
   48.1730    6.0742   22.2139 C   0  0  0  0  0  0  0  0  0  0  0  0
   47.8653    8.4277   22.5209 C   0  0  0  0  0  0  0  0  0  0  0  0
   51.9415    7.4828   16.0795 C   0  0  0  0  0  0  0  0  0  0  0  0
   47.1906   12.3828   19.1899 C   0  0  0  0  0  0  0  0  0  0  0  0
   51.7654    7.7918   14.7436 C   0  0  0  0  0  0  0  0  0  0  0  0
   47.3400   13.3767   18.2462 C   0  0  0  0  0  0  0  0  0  0  0  0
   51.2891   10.4197   14.7936 H   0  0  0  0  0  0  0  0  0  0  0  0
   49.6986   11.1723   14.6680 H   0  0  0  0  0  0  0  0  0  0  0  0
   51.3769   12.2319   16.2611 H   0  0  0  0  0  0  0  0  0  0  0  0
   51.2727   10.8243   17.3011 H   0  0  0  0  0  0  0  0  0  0  0  0
   47.7562    8.4830   19.2389 H   0  0  0  0  0  0  0  0  0  0  0  0
   48.4189    9.9344   19.9396 H   0  0  0  0  0  0  0  0  0  0  0  0
   50.7642    9.0797   19.3692 H   0  0  0  0  0  0  0  0  0  0  0  0
   50.0532    7.4986   19.1272 H   0  0  0  0  0  0  0  0  0  0  0  0
   46.6141   11.0243   18.7667 H   0  0  0  0  0  0  0  0  0  0  0  0
   47.9458    7.1660   17.6268 H   0  0  0  0  0  0  0  0  0  0  0  0
   49.7309    9.1131   21.7308 H   0  0  0  0  0  0  0  0  0  0  0  0
   51.0899    8.0754   21.3608 H   0  0  0  0  0  0  0  0  0  0  0  0
   49.9538   14.0366   16.7038 H   0  0  0  0  0  0  0  0  0  0  0  0
   50.3405    8.6379   13.5837 H   0  0  0  0  0  0  0  0  0  0  0  0
   50.9776    6.3048   22.7671 H   0  0  0  0  0  0  0  0  0  0  0  0
   49.8744    7.3350   23.7088 H   0  0  0  0  0  0  0  0  0  0  0  0
   49.4345    5.6617   23.2965 H   0  0  0  0  0  0  0  0  0  0  0  0
   47.3462    7.4312   20.9754 H   0  0  0  0  0  0  0  0  0  0  0  0
   47.4131    6.3791   22.3584 H   0  0  0  0  0  0  0  0  0  0  0  0
   47.7122    8.1143   22.5753 H   0  0  0  0  0  0  0  0  0  0  0  0
   48.2427    5.6356   15.7764 H   0  0  0  0  0  0  0  0  0  0  0  0
   46.2248   13.4537   18.7311 H   0  0  0  0  0  0  0  0  0  0  0  0
   49.4289    6.3611   13.7208 H   0  0  0  0  0  0  0  0  0  0  0  0
   47.8984   14.9684   17.6993 H   0  0  0  0  0  0  0  0  0  0  0  0
   47.1530   10.0960   17.3169 H   0  0  0  0  0  0  0  0  0  0  0  0
   47.9768   11.3873   18.0467 H   0  0  0  0  0  0  0  0  0  0  0  0
   47.6546    7.3979   22.4788 H   0  0  0  0  0  0  0  0  0  0  0  0
   52.6881    9.4759   15.1704 H   0  0  0  0  0  0  0  0  0  0  0  0
   47.5484    6.5833   18.0068 H   0  0  0  0  0  0  0  0  0  0  0  0
   51.4456   11.4057   19.0649 H   0  0  0  0  0  0  0  0  0  0  0  0
   47.2955    4.3263   21.2026 H   0  0  0  0  0  0  0  0  0  0  0  0
   53.9932   11.5795   18.7927 H   0  0  0  0  0  0  0  0  0  0  0  0
   48.2371   12.2491   19.8490 H   0  0  0  0  0  0  0  0  0  0  0  0
   47.1788    8.9885   15.6348 H   0  0  0  0  0  0  0  0  0  0  0  0
   47.8560    9.3596   23.8365 H   0  0  0  0  0  0  0  0  0  0  0  0
   51.5310    8.3839   13.3780 H   0  0  0  0  0  0  0  0  0  0  0  0
   47.2880    7.8790   13.4834 H   0  0  0  0  0  0  0  0  0  0  0  0
   48.3063   13.2234   22.0666 H   0  0  0  0  0  0  0  0  0  0  0  0
   49.4642    7.5634   12.3335 H   0  0  0  0  0  0  0  0  0  0  0  0
   48.1216   11.7886   24.0826 H   0  0  0  0  0  0  0  0  0  0  0  0
   47.9386    9.9951   15.1019 H   0  0  0  0  0  0  0  0  0  0  0  0
   49.0295   10.4333   13.7989 H   0  0  0  0  0  0  0  0  0  0  0  0
   48.9371   12.4403   14.8468 H   0  0  0  0  0  0  0  0  0  0  0  0
   50.3872   11.8228   15.6249 H   0  0  0  0  0  0  0  0  0  0  0  0
   49.0960    7.5108   18.4642 H   0  0  0  0  0  0  0  0  0  0  0  0
   47.8626    8.5294   19.0545 H   0  0  0  0  0  0  0  0  0  0  0  0
   50.8393    8.8749   19.8362 H   0  0  0  0  0  0  0  0  0  0  0  0
   49.5238    9.7131   20.5834 H   0  0  0  0  0  0  0  0  0  0  0  0
   47.6194   10.4229   19.7888 H   0  0  0  0  0  0  0  0  0  0  0  0
   51.3258    7.7979   18.0727 H   0  0  0  0  0  0  0  0  0  0  0  0
   50.3362    7.7708   21.9334 H   0  0  0  0  0  0  0  0  0  0  0  0
   50.0081    6.7030   20.5774 H   0  0  0  0  0  0  0  0  0  0  0  0
   48.1529   13.8785   16.3451 H   0  0  0  0  0  0  0  0  0  0  0  0
   50.6598    8.9551   13.3376 H   0  0  0  0  0  0  0  0  0  0  0  0
   48.8444    5.9797   23.0747 H   0  0  0  0  0  0  0  0  0  0  0  0
   47.1468    5.8910   22.5530 H   0  0  0  0  0  0  0  0  0  0  0  0
   48.4103    5.2773   21.4994 H   0  0  0  0  0  0  0  0  0  0  0  0
   46.8421    8.2431   22.8684 H   0  0  0  0  0  0  0  0  0  0  0  0
   48.5221    8.4707   23.3973 H   0  0  0  0  0  0  0  0  0  0  0  0
   47.8521    9.4146   22.0502 H   0  0  0  0  0  0  0  0  0  0  0  0
   52.7175    6.7842   16.3818 H   0  0  0  0  0  0  0  0  0  0  0  0
   46.6174   12.5680   20.0942 H   0  0  0  0  0  0  0  0  0  0  0  0
   52.3960    7.3394   13.9842 H   0  0  0  0  0  0  0  0  0  0  0  0
   46.8904   14.3536   18.3925 H   0  0  0  0  0  0  0  0  0  0  0  0
  2  1  1  0
  3  1  1  0
  4  2  2  0
  5  3  2  0
  6  4  1  0
  7  5  1  0
  8  1  1  0
  9  8  1  0
 10 13  1  0
 11  3  1  0
 12  2  1  0
 13  9  1  0
 14  5  1  0
 15  4  1  0
 16 10  1  0
 17 10  1  0
 18 12  2  0
 19 11  2  0
 20 15  2  0
 21 14  2  0
  6  7  1  0
 18 20  1  0
 19 21  1  0
 23 27  2  0
 24 28  1  0
 25 26  1  0
 26 22  2  0
 27 24  1  0
 28 25  1  0
 29 22  1  0
 30 23  1  0
 31 22  1  0
 32 23  1  0
 33 24  2  0
 34 35  1  0
 35 29  2  0
 36 33  1  0
 37 31  2  0
 38 32  2  0
 39 26  1  0
 40 27  1  0
 41 31  1  0
 42 32  1  0
 43 34  1  0
 44 33  1  0
 45 35  1  0
 46 36  1  0
 47 44  2  0
 48 43  2  0
 49 47  1  0
 50 45  2  0
 25 34  2  0
 48 50  1  0
 30 36  2  0
 46 49  2  0
 52 51  1  0
 53 51  1  0
 54 52  2  0
 55 53  2  0
 56 54  1  0
 57 55  1  0
 58 51  1  0
 59 58  1  0
 60 63  1  0
 61 53  1  0
 62 52  1  0
 63 59  1  0
 64 55  1  0
 65 54  1  0
 66 60  1  0
 67 60  1  0
 68 62  2  0
 69 61  2  0
 70 65  2  0
 71 64  2  0
 56 57  1  0
 68 70  1  0
 69 71  1  0
  6 72  1  0
  6 73  1  0
  7 74  1  0
  7 75  1  0
  8 76  1  0
  8 77  1  0
  9 78  1  0
  9 79  1  0
 11 80  1  0
 12 81  1  0
 13 82  1  0
 13 83  1  0
 14 84  1  0
 15 85  1  0
 16 86  1  0
 16 87  1  0
 16 88  1  0
 17 89  1  0
 17 90  1  0
 17 91  1  0
 18 92  1  0
 19 93  1  0
 20 94  1  0
 21 95  1  0
 28 96  1  0
 28 97  1  0
 29 98  1  0
 30 99  1  0
 39100  1  0
 40101  1  0
 41102  1  0
 42103  1  0
 43104  1  0
 44105  1  0
 45106  1  0
 46107  1  0
 47108  1  0
 48109  1  0
 49110  1  0
 50111  1  0
 56112  1  0
 56113  1  0
 57114  1  0
 57115  1  0
 58116  1  0
 58117  1  0
 59118  1  0
 59119  1  0
 61120  1  0
 62121  1  0
 63122  1  0
 63123  1  0
 64124  1  0
 65125  1  0
 66126  1  0
 66127  1  0
 66128  1  0
 67129  1  0
 67130  1  0
 67131  1  0
 68132  1  0
 69133  1  0
 70134  1  0
 71135  1  0
M  END
> <Uni-Dock RESULT> 
ENERGY=   -7.619  LOWER_BOUND=    2.093  UPPER_BOUND=    6.826
INTER + INTRA:          -7.619
INTER:                  -7.619
INTRA:                   0.000
UNBOUND:                 0.000

$$$$

     RDKit          3D

135142  0  0  0  0  0  0  0  0999 V2000
   48.7719    9.7177   17.8423 N   0  0  0  0  0  0  0  0  0  0  0  0
   49.0101    8.8542   16.7441 C   0  0  0  0  0  0  0  0  0  0  0  0
   48.5412   11.1138   17.7836 C   0  0  0  0  0  0  0  0  0  0  0  0
   49.6990    9.2438   15.5713 C   0  0  0  0  0  0  0  0  0  0  0  0
   49.4691   11.9798   17.1888 C   0  0  0  0  0  0  0  0  0  0  0  0
   50.3497   10.5924   15.3360 C   0  0  0  0  0  0  0  0  0  0  0  0
   50.7120   11.4141   16.5656 C   0  0  0  0  0  0  0  0  0  0  0  0
   48.6248    9.1450   19.2044 C   0  0  0  0  0  0  0  0  0  0  0  0
   49.9122    8.4478   19.6572 C   0  0  0  0  0  0  0  0  0  0  0  0
   49.3080    7.0192   21.6715 N   0  0  0  0  0  0  0  0  0  0  0  0
   47.3708   11.6723   18.3311 C   0  0  0  0  0  0  0  0  0  0  0  0
   48.5049    7.5315   16.7700 C   0  0  0  0  0  0  0  0  0  0  0  0
   50.0162    8.2128   21.1719 C   0  0  0  0  0  0  0  0  0  0  0  0
   49.2338   13.3652   17.1659 C   0  0  0  0  0  0  0  0  0  0  0  0
   49.8244    8.3324   14.4928 C   0  0  0  0  0  0  0  0  0  0  0  0
   49.9256    6.5686   22.9259 C   0  0  0  0  0  0  0  0  0  0  0  0
   47.8847    7.2611   21.9087 C   0  0  0  0  0  0  0  0  0  0  0  0
   48.6549    6.6378   15.7055 C   0  0  0  0  0  0  0  0  0  0  0  0
   47.1385   13.0490   18.3050 C   0  0  0  0  0  0  0  0  0  0  0  0
   49.3132    7.0417   14.5593 C   0  0  0  0  0  0  0  0  0  0  0  0
   48.0743   13.8970   17.7253 C   0  0  0  0  0  0  0  0  0  0  0  0
   47.6471    7.3635   20.3274 C   0  0  0  0  0  0  0  0  0  0  0  0
   51.7701   10.3120   16.9236 C   0  0  0  0  0  0  0  0  0  0  0  0
   49.3332   10.0588   17.0899 C   0  0  0  0  0  0  0  0  0  0  0  0
   47.9334    9.5307   19.2115 C   0  0  0  0  0  0  0  0  0  0  0  0
   47.7361    8.1331   19.1588 C   0  0  0  0  0  0  0  0  0  0  0  0
   50.5635   10.5331   17.6006 C   0  0  0  0  0  0  0  0  0  0  0  0
   48.0557   10.3066   17.8975 C   0  0  0  0  0  0  0  0  0  0  0  0
   47.7267    7.9927   21.5702 C   0  0  0  0  0  0  0  0  0  0  0  0
   51.7501    9.6397   15.7000 C   0  0  0  0  0  0  0  0  0  0  0  0
   47.4644    5.8961   20.2344 C   0  0  0  0  0  0  0  0  0  0  0  0
   53.0991   10.7586   17.4131 C   0  0  0  0  0  0  0  0  0  0  0  0
   49.3207    9.3859   15.8229 C   0  0  0  0  0  0  0  0  0  0  0  0
   47.9880   10.1748   20.4923 C   0  0  0  0  0  0  0  0  0  0  0  0
   47.8840    9.3799   21.6661 C   0  0  0  0  0  0  0  0  0  0  0  0
   50.5507    9.1867   15.1405 C   0  0  0  0  0  0  0  0  0  0  0  0
   47.3730    5.2771   19.1862 O   0  0  0  0  0  0  0  0  0  0  0  0
   54.1619   10.6205   16.8356 O   0  0  0  0  0  0  0  0  0  0  0  0
   47.6054    7.5585   17.9182 O   0  0  0  0  0  0  0  0  0  0  0  0
   50.5251   11.2464   18.7718 O   0  0  0  0  0  0  0  0  0  0  0  0
   47.4096    5.2743   21.4246 O   0  0  0  0  0  0  0  0  0  0  0  0
   53.0496   11.3592   18.6217 O   0  0  0  0  0  0  0  0  0  0  0  0
   48.1368   11.5708   20.6916 C   0  0  0  0  0  0  0  0  0  0  0  0
   48.1587    8.8947   15.1752 C   0  0  0  0  0  0  0  0  0  0  0  0
   47.9349    9.9719   22.9400 C   0  0  0  0  0  0  0  0  0  0  0  0
   50.5852    8.5344   13.8959 C   0  0  0  0  0  0  0  0  0  0  0  0
   48.2054    8.2464   13.9367 C   0  0  0  0  0  0  0  0  0  0  0  0
   48.1847   12.1480   21.9649 C   0  0  0  0  0  0  0  0  0  0  0  0
   49.4203    8.0673   13.2952 C   0  0  0  0  0  0  0  0  0  0  0  0
   48.0835   11.3474   23.0907 C   0  0  0  0  0  0  0  0  0  0  0  0
   49.2408    9.5341   17.7550 N   0  0  0  0  0  0  0  0  0  0  0  0
   50.0873    8.9925   16.7286 C   0  0  0  0  0  0  0  0  0  0  0  0
   48.5700   10.8005   17.8476 C   0  0  0  0  0  0  0  0  0  0  0  0
   49.9546    9.3101   15.3647 C   0  0  0  0  0  0  0  0  0  0  0  0
   48.6473   11.8218   16.8704 C   0  0  0  0  0  0  0  0  0  0  0  0
   48.9624   10.3268   14.8891 C   0  0  0  0  0  0  0  0  0  0  0  0
   49.3061   11.6606   15.5254 C   0  0  0  0  0  0  0  0  0  0  0  0
   48.9363    8.5365   18.8274 C   0  0  0  0  0  0  0  0  0  0  0  0
   49.7802    8.7675   20.0962 C   0  0  0  0  0  0  0  0  0  0  0  0
   48.2778    7.3884   21.5721 N   0  0  0  0  0  0  0  0  0  0  0  0
   47.7907   11.1324   18.9879 C   0  0  0  0  0  0  0  0  0  0  0  0
   51.1191    8.0749   17.0454 C   0  0  0  0  0  0  0  0  0  0  0  0
   49.6520    7.6067   21.0908 C   0  0  0  0  0  0  0  0  0  0  0  0
   48.0598   13.0955   17.0959 C   0  0  0  0  0  0  0  0  0  0  0  0
   50.7797    8.7023   14.3896 C   0  0  0  0  0  0  0  0  0  0  0  0
   48.1730    6.0742   22.2139 C   0  0  0  0  0  0  0  0  0  0  0  0
   47.8653    8.4276   22.5209 C   0  0  0  0  0  0  0  0  0  0  0  0
   51.9416    7.4828   16.0795 C   0  0  0  0  0  0  0  0  0  0  0  0
   47.1907   12.3828   19.1900 C   0  0  0  0  0  0  0  0  0  0  0  0
   51.7654    7.7919   14.7436 C   0  0  0  0  0  0  0  0  0  0  0  0
   47.3400   13.3767   18.2462 C   0  0  0  0  0  0  0  0  0  0  0  0
   51.2891   10.4198   14.7936 H   0  0  0  0  0  0  0  0  0  0  0  0
   49.6987   11.1723   14.6680 H   0  0  0  0  0  0  0  0  0  0  0  0
   51.3769   12.2319   16.2611 H   0  0  0  0  0  0  0  0  0  0  0  0
   51.2727   10.8243   17.3011 H   0  0  0  0  0  0  0  0  0  0  0  0
   47.7562    8.4830   19.2389 H   0  0  0  0  0  0  0  0  0  0  0  0
   48.4189    9.9344   19.9395 H   0  0  0  0  0  0  0  0  0  0  0  0
   50.7643    9.0797   19.3691 H   0  0  0  0  0  0  0  0  0  0  0  0
   50.0533    7.4986   19.1271 H   0  0  0  0  0  0  0  0  0  0  0  0
   46.6142   11.0243   18.7667 H   0  0  0  0  0  0  0  0  0  0  0  0
   47.9458    7.1660   17.6268 H   0  0  0  0  0  0  0  0  0  0  0  0
   49.7310    9.1131   21.7308 H   0  0  0  0  0  0  0  0  0  0  0  0
   51.0899    8.0754   21.3608 H   0  0  0  0  0  0  0  0  0  0  0  0
   49.9538   14.0366   16.7038 H   0  0  0  0  0  0  0  0  0  0  0  0
   50.3405    8.6380   13.5837 H   0  0  0  0  0  0  0  0  0  0  0  0
   50.9776    6.3048   22.7670 H   0  0  0  0  0  0  0  0  0  0  0  0
   49.8745    7.3349   23.7088 H   0  0  0  0  0  0  0  0  0  0  0  0
   49.4345    5.6616   23.2964 H   0  0  0  0  0  0  0  0  0  0  0  0
   47.3462    7.4312   20.9753 H   0  0  0  0  0  0  0  0  0  0  0  0
   47.4131    6.3791   22.3583 H   0  0  0  0  0  0  0  0  0  0  0  0
   47.7122    8.1143   22.5753 H   0  0  0  0  0  0  0  0  0  0  0  0
   48.2427    5.6357   15.7763 H   0  0  0  0  0  0  0  0  0  0  0  0
   46.2249   13.4537   18.7311 H   0  0  0  0  0  0  0  0  0  0  0  0
   49.4289    6.3611   13.7208 H   0  0  0  0  0  0  0  0  0  0  0  0
   47.8984   14.9684   17.6993 H   0  0  0  0  0  0  0  0  0  0  0  0
   47.1531   10.0960   17.3169 H   0  0  0  0  0  0  0  0  0  0  0  0
   47.9769   11.3874   18.0467 H   0  0  0  0  0  0  0  0  0  0  0  0
   47.6546    7.3979   22.4788 H   0  0  0  0  0  0  0  0  0  0  0  0
   52.6881    9.4759   15.1704 H   0  0  0  0  0  0  0  0  0  0  0  0
   47.5484    6.5833   18.0068 H   0  0  0  0  0  0  0  0  0  0  0  0
   51.4457   11.4057   19.0649 H   0  0  0  0  0  0  0  0  0  0  0  0
   47.2955    4.3262   21.2025 H   0  0  0  0  0  0  0  0  0  0  0  0
   53.9933   11.5795   18.7927 H   0  0  0  0  0  0  0  0  0  0  0  0
   48.2371   12.2491   19.8490 H   0  0  0  0  0  0  0  0  0  0  0  0
   47.1788    8.9886   15.6347 H   0  0  0  0  0  0  0  0  0  0  0  0
   47.8561    9.3596   23.8365 H   0  0  0  0  0  0  0  0  0  0  0  0
   51.5310    8.3840   13.3780 H   0  0  0  0  0  0  0  0  0  0  0  0
   47.2881    7.8791   13.4834 H   0  0  0  0  0  0  0  0  0  0  0  0
   48.3063   13.2233   22.0666 H   0  0  0  0  0  0  0  0  0  0  0  0
   49.4642    7.5635   12.3334 H   0  0  0  0  0  0  0  0  0  0  0  0
   48.1216   11.7886   24.0826 H   0  0  0  0  0  0  0  0  0  0  0  0
   47.9386    9.9951   15.1019 H   0  0  0  0  0  0  0  0  0  0  0  0
   49.0295   10.4334   13.7988 H   0  0  0  0  0  0  0  0  0  0  0  0
   48.9372   12.4404   14.8468 H   0  0  0  0  0  0  0  0  0  0  0  0
   50.3872   11.8228   15.6249 H   0  0  0  0  0  0  0  0  0  0  0  0
   49.0960    7.5109   18.4642 H   0  0  0  0  0  0  0  0  0  0  0  0
   47.8626    8.5294   19.0544 H   0  0  0  0  0  0  0  0  0  0  0  0
   50.8393    8.8749   19.8362 H   0  0  0  0  0  0  0  0  0  0  0  0
   49.5238    9.7131   20.5834 H   0  0  0  0  0  0  0  0  0  0  0  0
   47.6194   10.4229   19.7888 H   0  0  0  0  0  0  0  0  0  0  0  0
   51.3258    7.7979   18.0727 H   0  0  0  0  0  0  0  0  0  0  0  0
   50.3363    7.7708   21.9334 H   0  0  0  0  0  0  0  0  0  0  0  0
   50.0081    6.7030   20.5773 H   0  0  0  0  0  0  0  0  0  0  0  0
   48.1530   13.8785   16.3451 H   0  0  0  0  0  0  0  0  0  0  0  0
   50.6598    8.9552   13.3375 H   0  0  0  0  0  0  0  0  0  0  0  0
   48.8444    5.9796   23.0747 H   0  0  0  0  0  0  0  0  0  0  0  0
   47.1468    5.8910   22.5529 H   0  0  0  0  0  0  0  0  0  0  0  0
   48.4103    5.2773   21.4994 H   0  0  0  0  0  0  0  0  0  0  0  0
   46.8421    8.2431   22.8684 H   0  0  0  0  0  0  0  0  0  0  0  0
   48.5221    8.4707   23.3972 H   0  0  0  0  0  0  0  0  0  0  0  0
   47.8522    9.4146   22.0501 H   0  0  0  0  0  0  0  0  0  0  0  0
   52.7175    6.7843   16.3818 H   0  0  0  0  0  0  0  0  0  0  0  0
   46.6174   12.5680   20.0942 H   0  0  0  0  0  0  0  0  0  0  0  0
   52.3961    7.3394   13.9842 H   0  0  0  0  0  0  0  0  0  0  0  0
   46.8905   14.3536   18.3926 H   0  0  0  0  0  0  0  0  0  0  0  0
  2  1  1  0
  3  1  1  0
  4  2  2  0
  5  3  2  0
  6  4  1  0
  7  5  1  0
  8  1  1  0
  9  8  1  0
 10 13  1  0
 11  3  1  0
 12  2  1  0
 13  9  1  0
 14  5  1  0
 15  4  1  0
 16 10  1  0
 17 10  1  0
 18 12  2  0
 19 11  2  0
 20 15  2  0
 21 14  2  0
  6  7  1  0
 18 20  1  0
 19 21  1  0
 23 27  2  0
 24 28  1  0
 25 26  1  0
 26 22  2  0
 27 24  1  0
 28 25  1  0
 29 22  1  0
 30 23  1  0
 31 22  1  0
 32 23  1  0
 33 24  2  0
 34 35  1  0
 35 29  2  0
 36 33  1  0
 37 31  2  0
 38 32  2  0
 39 26  1  0
 40 27  1  0
 41 31  1  0
 42 32  1  0
 43 34  1  0
 44 33  1  0
 45 35  1  0
 46 36  1  0
 47 44  2  0
 48 43  2  0
 49 47  1  0
 50 45  2  0
 25 34  2  0
 48 50  1  0
 30 36  2  0
 46 49  2  0
 52 51  1  0
 53 51  1  0
 54 52  2  0
 55 53  2  0
 56 54  1  0
 57 55  1  0
 58 51  1  0
 59 58  1  0
 60 63  1  0
 61 53  1  0
 62 52  1  0
 63 59  1  0
 64 55  1  0
 65 54  1  0
 66 60  1  0
 67 60  1  0
 68 62  2  0
 69 61  2  0
 70 65  2  0
 71 64  2  0
 56 57  1  0
 68 70  1  0
 69 71  1  0
  6 72  1  0
  6 73  1  0
  7 74  1  0
  7 75  1  0
  8 76  1  0
  8 77  1  0
  9 78  1  0
  9 79  1  0
 11 80  1  0
 12 81  1  0
 13 82  1  0
 13 83  1  0
 14 84  1  0
 15 85  1  0
 16 86  1  0
 16 87  1  0
 16 88  1  0
 17 89  1  0
 17 90  1  0
 17 91  1  0
 18 92  1  0
 19 93  1  0
 20 94  1  0
 21 95  1  0
 28 96  1  0
 28 97  1  0
 29 98  1  0
 30 99  1  0
 39100  1  0
 40101  1  0
 41102  1  0
 42103  1  0
 43104  1  0
 44105  1  0
 45106  1  0
 46107  1  0
 47108  1  0
 48109  1  0
 49110  1  0
 50111  1  0
 56112  1  0
 56113  1  0
 57114  1  0
 57115  1  0
 58116  1  0
 58117  1  0
 59118  1  0
 59119  1  0
 61120  1  0
 62121  1  0
 63122  1  0
 63123  1  0
 64124  1  0
 65125  1  0
 66126  1  0
 66127  1  0
 66128  1  0
 67129  1  0
 67130  1  0
 67131  1  0
 68132  1  0
 69133  1  0
 70134  1  0
 71135  1  0
M  END
> <Uni-Dock RESULT> 
ENERGY=   -7.619  LOWER_BOUND=    2.093  UPPER_BOUND=    6.826
INTER + INTRA:          -7.619
INTER:                  -7.619
INTRA:                   0.000
UNBOUND:                 0.000

$$$$

     RDKit          3D

135142  0  0  0  0  0  0  0  0999 V2000
   48.7870    7.9375   16.6937 N   0  0  0  0  0  0  0  0  0  0  0  0
   48.8517    8.1557   15.2950 C   0  0  0  0  0  0  0  0  0  0  0  0
   48.4992    8.9057   17.6865 C   0  0  0  0  0  0  0  0  0  0  0  0
   49.3002    9.3615   14.7062 C   0  0  0  0  0  0  0  0  0  0  0  0
   49.2708   10.0690   17.8132 C   0  0  0  0  0  0  0  0  0  0  0  0
   49.8477   10.5600   15.4554 C   0  0  0  0  0  0  0  0  0  0  0  0
   50.3986   10.3143   16.8534 C   0  0  0  0  0  0  0  0  0  0  0  0
   48.9121    6.5566   17.2249 C   0  0  0  0  0  0  0  0  0  0  0  0
   50.2850    5.9575   16.9008 C   0  0  0  0  0  0  0  0  0  0  0  0
   50.1110    3.4535   17.3046 N   0  0  0  0  0  0  0  0  0  0  0  0
   47.4291    8.7202   18.5821 C   0  0  0  0  0  0  0  0  0  0  0  0
   48.4079    7.1459   14.4068 C   0  0  0  0  0  0  0  0  0  0  0  0
   50.6723    4.7410   17.7553 C   0  0  0  0  0  0  0  0  0  0  0  0
   48.9854   11.0037   18.8231 C   0  0  0  0  0  0  0  0  0  0  0  0
   49.2593    9.5151   13.2976 C   0  0  0  0  0  0  0  0  0  0  0  0
   50.9633    2.3529   17.7737 C   0  0  0  0  0  0  0  0  0  0  0  0
   48.7472    3.2294   17.7845 C   0  0  0  0  0  0  0  0  0  0  0  0
   48.3931    7.3057   13.0180 C   0  0  0  0  0  0  0  0  0  0  0  0
   47.1463    9.6516   19.5832 C   0  0  0  0  0  0  0  0  0  0  0  0
   48.8159    8.4978   12.4608 C   0  0  0  0  0  0  0  0  0  0  0  0
   47.9292   10.7931   19.7064 C   0  0  0  0  0  0  0  0  0  0  0  0
   48.2212    4.3807   16.8020 C   0  0  0  0  0  0  0  0  0  0  0  0
   51.5434    9.4671   16.1947 C   0  0  0  0  0  0  0  0  0  0  0  0
   49.1887    8.7927   16.3700 C   0  0  0  0  0  0  0  0  0  0  0  0
   48.2202    6.7090   17.5782 C   0  0  0  0  0  0  0  0  0  0  0  0
   48.0672    5.7515   16.5512 C   0  0  0  0  0  0  0  0  0  0  0  0
   50.4737    8.9517   16.9383 C   0  0  0  0  0  0  0  0  0  0  0  0
   48.0722    8.1923   17.2292 C   0  0  0  0  0  0  0  0  0  0  0  0
   48.5037    3.9484   18.0982 C   0  0  0  0  0  0  0  0  0  0  0  0
   51.3246    9.8653   14.8744 C   0  0  0  0  0  0  0  0  0  0  0  0
   48.0777    3.4057   15.6956 C   0  0  0  0  0  0  0  0  0  0  0  0
   52.9225    9.6376   16.7186 C   0  0  0  0  0  0  0  0  0  0  0  0
   48.9693    9.2223   15.0189 C   0  0  0  0  0  0  0  0  0  0  0  0
   48.4845    6.2564   18.9136 C   0  0  0  0  0  0  0  0  0  0  0  0
   48.6256    4.8620   19.1512 C   0  0  0  0  0  0  0  0  0  0  0  0
   50.0603    9.7604   14.2850 C   0  0  0  0  0  0  0  0  0  0  0  0
   47.8188    3.7055   14.5409 O   0  0  0  0  0  0  0  0  0  0  0  0
   53.8662   10.1173   16.1174 O   0  0  0  0  0  0  0  0  0  0  0  0
   47.7329    6.2117   15.3011 O   0  0  0  0  0  0  0  0  0  0  0  0
   50.6242    8.6097   18.2583 O   0  0  0  0  0  0  0  0  0  0  0  0
   48.2638    2.1269   16.0645 O   0  0  0  0  0  0  0  0  0  0  0  0
   53.0730    9.1896   17.9837 O   0  0  0  0  0  0  0  0  0  0  0  0
   48.6167    7.1016   20.0445 C   0  0  0  0  0  0  0  0  0  0  0  0
   47.7270    9.1592   14.3377 C   0  0  0  0  0  0  0  0  0  0  0  0
   48.8869    4.3777   20.4447 C   0  0  0  0  0  0  0  0  0  0  0  0
   49.8904   10.1957   12.9593 C   0  0  0  0  0  0  0  0  0  0  0  0
   47.5701    9.5950   13.0179 C   0  0  0  0  0  0  0  0  0  0  0  0
   48.8755    6.6070   21.3271 C   0  0  0  0  0  0  0  0  0  0  0  0
   48.6530   10.1155   12.3281 C   0  0  0  0  0  0  0  0  0  0  0  0
   49.0108    5.2431   21.5275 C   0  0  0  0  0  0  0  0  0  0  0  0
   49.2384    7.9462   16.4541 N   0  0  0  0  0  0  0  0  0  0  0  0
   49.9022    8.4310   15.2761 C   0  0  0  0  0  0  0  0  0  0  0  0
   48.5505    8.6488   17.5008 C   0  0  0  0  0  0  0  0  0  0  0  0
   49.5111    9.5934   14.5873 C   0  0  0  0  0  0  0  0  0  0  0  0
   48.4110   10.0561   17.5639 C   0  0  0  0  0  0  0  0  0  0  0  0
   48.4126   10.4752   15.0973 C   0  0  0  0  0  0  0  0  0  0  0  0
   48.8184   10.9992   16.4622 C   0  0  0  0  0  0  0  0  0  0  0  0
   49.1713    6.4523   16.4960 C   0  0  0  0  0  0  0  0  0  0  0  0
   50.2239    5.8470   17.4452 C   0  0  0  0  0  0  0  0  0  0  0  0
   49.0673    3.6168   17.6071 N   0  0  0  0  0  0  0  0  0  0  0  0
   47.9812    7.9494   18.5981 C   0  0  0  0  0  0  0  0  0  0  0  0
   51.0070    7.7361   14.7253 C   0  0  0  0  0  0  0  0  0  0  0  0
   50.3216    4.3232   17.2981 C   0  0  0  0  0  0  0  0  0  0  0  0
   47.8289   10.6830   18.6982 C   0  0  0  0  0  0  0  0  0  0  0  0
   50.1656    9.9930   13.3985 C   0  0  0  0  0  0  0  0  0  0  0  0
   49.1292    2.2403   17.1057 C   0  0  0  0  0  0  0  0  0  0  0  0
   48.7979    3.5981   19.0484 C   0  0  0  0  0  0  0  0  0  0  0  0
   51.6600    8.1396   13.5545 C   0  0  0  0  0  0  0  0  0  0  0  0
   47.3833    8.5748   19.7008 C   0  0  0  0  0  0  0  0  0  0  0  0
   51.2317    9.2695   12.8830 C   0  0  0  0  0  0  0  0  0  0  0  0
   47.3217    9.9508   19.7598 C   0  0  0  0  0  0  0  0  0  0  0  0
   50.6778   10.9718   14.8656 H   0  0  0  0  0  0  0  0  0  0  0  0
   49.0650   11.3301   15.4838 H   0  0  0  0  0  0  0  0  0  0  0  0
   50.9666   11.1979   17.1700 H   0  0  0  0  0  0  0  0  0  0  0  0
   51.1052    9.4756   16.8730 H   0  0  0  0  0  0  0  0  0  0  0  0
   48.0890    5.9393   16.8570 H   0  0  0  0  0  0  0  0  0  0  0  0
   48.8156    6.5490   18.3189 H   0  0  0  0  0  0  0  0  0  0  0  0
   51.0466    6.7306   17.0754 H   0  0  0  0  0  0  0  0  0  0  0  0
   50.3610    5.6998   15.8379 H   0  0  0  0  0  0  0  0  0  0  0  0
   46.7887    7.8467   18.4870 H   0  0  0  0  0  0  0  0  0  0  0  0
   48.0284    6.2006   14.7840 H   0  0  0  0  0  0  0  0  0  0  0  0
   50.4617    4.9220   18.8169 H   0  0  0  0  0  0  0  0  0  0  0  0
   51.7668    4.6811   17.6771 H   0  0  0  0  0  0  0  0  0  0  0  0
   49.5841   11.9063   18.9207 H   0  0  0  0  0  0  0  0  0  0  0  0
   49.5892   10.4495   12.8455 H   0  0  0  0  0  0  0  0  0  0  0  0
   51.9774    2.4483   17.3687 H   0  0  0  0  0  0  0  0  0  0  0  0
   51.0284    2.3199   18.8680 H   0  0  0  0  0  0  0  0  0  0  0  0
   50.5813    1.3884   17.4202 H   0  0  0  0  0  0  0  0  0  0  0  0
   48.0415    3.9221   17.3239 H   0  0  0  0  0  0  0  0  0  0  0  0
   48.3979    2.2293   17.5012 H   0  0  0  0  0  0  0  0  0  0  0  0
   48.6687    3.3196   18.8743 H   0  0  0  0  0  0  0  0  0  0  0  0
   48.0373    6.4998   12.3830 H   0  0  0  0  0  0  0  0  0  0  0  0
   46.3119    9.4862   20.2588 H   0  0  0  0  0  0  0  0  0  0  0  0
   48.8009    8.6394   11.3841 H   0  0  0  0  0  0  0  0  0  0  0  0
   47.7128   11.5228   20.4813 H   0  0  0  0  0  0  0  0  0  0  0  0
   47.0869    8.3159   16.7709 H   0  0  0  0  0  0  0  0  0  0  0  0
   47.9829    8.8198   18.1207 H   0  0  0  0  0  0  0  0  0  0  0  0
   48.6204    2.8847   18.2961 H   0  0  0  0  0  0  0  0  0  0  0  0
   52.1553   10.2739   14.2999 H   0  0  0  0  0  0  0  0  0  0  0  0
   47.7284    5.4677   14.6621 H   0  0  0  0  0  0  0  0  0  0  0  0
   51.5764    8.6567   18.4813 H   0  0  0  0  0  0  0  0  0  0  0  0
   48.1455    1.6122   15.2386 H   0  0  0  0  0  0  0  0  0  0  0  0
   54.0234    9.3686   18.1651 H   0  0  0  0  0  0  0  0  0  0  0  0
   48.5368    8.1808   19.9494 H   0  0  0  0  0  0  0  0  0  0  0  0
   46.8449    8.7454   14.8181 H   0  0  0  0  0  0  0  0  0  0  0  0
   48.9954    3.3093   20.6223 H   0  0  0  0  0  0  0  0  0  0  0  0
   50.7304   10.6065   12.4017 H   0  0  0  0  0  0  0  0  0  0  0  0
   46.5992    9.5183   12.5347 H   0  0  0  0  0  0  0  0  0  0  0  0
   48.9747    7.2958   22.1622 H   0  0  0  0  0  0  0  0  0  0  0  0
   48.5386   10.4549   11.3022 H   0  0  0  0  0  0  0  0  0  0  0  0
   49.2135    4.8521   22.5205 H   0  0  0  0  0  0  0  0  0  0  0  0
   47.4577    9.9354   15.1056 H   0  0  0  0  0  0  0  0  0  0  0  0
   48.2755   11.3300   14.4227 H   0  0  0  0  0  0  0  0  0  0  0  0
   48.3037   11.9588   16.5995 H   0  0  0  0  0  0  0  0  0  0  0  0
   49.8928   11.2103   16.5389 H   0  0  0  0  0  0  0  0  0  0  0  0
   49.2989    6.0267   15.4900 H   0  0  0  0  0  0  0  0  0  0  0  0
   48.1581    6.1184   16.7538 H   0  0  0  0  0  0  0  0  0  0  0  0
   51.2131    6.2709   17.2388 H   0  0  0  0  0  0  0  0  0  0  0  0
   50.0268    6.1145   18.4877 H   0  0  0  0  0  0  0  0  0  0  0  0
   47.9849    6.8670   18.6495 H   0  0  0  0  0  0  0  0  0  0  0  0
   51.4078    6.8512   15.2061 H   0  0  0  0  0  0  0  0  0  0  0  0
   51.1420    3.9480   17.9238 H   0  0  0  0  0  0  0  0  0  0  0  0
   50.6104    4.1188   16.2579 H   0  0  0  0  0  0  0  0  0  0  0  0
   47.7549   11.7684   18.7421 H   0  0  0  0  0  0  0  0  0  0  0  0
   49.8465   10.8924   12.8746 H   0  0  0  0  0  0  0  0  0  0  0  0
   49.9495    1.6719   17.5580 H   0  0  0  0  0  0  0  0  0  0  0  0
   48.1895    1.7133   17.3079 H   0  0  0  0  0  0  0  0  0  0  0  0
   49.2606    2.2331   16.0173 H   0  0  0  0  0  0  0  0  0  0  0  0
   47.8627    3.0647   19.2551 H   0  0  0  0  0  0  0  0  0  0  0  0
   49.6017    3.1113   19.6124 H   0  0  0  0  0  0  0  0  0  0  0  0
   48.6632    4.6095   19.4419 H   0  0  0  0  0  0  0  0  0  0  0  0
   52.5028    7.5658   13.1779 H   0  0  0  0  0  0  0  0  0  0  0  0
   46.9787    7.9733   20.5102 H   0  0  0  0  0  0  0  0  0  0  0  0
   51.7289    9.5933   11.9735 H   0  0  0  0  0  0  0  0  0  0  0  0
   46.8714   10.4506   20.6115 H   0  0  0  0  0  0  0  0  0  0  0  0
  2  1  1  0
  3  1  1  0
  4  2  2  0
  5  3  2  0
  6  4  1  0
  7  5  1  0
  8  1  1  0
  9  8  1  0
 10 13  1  0
 11  3  1  0
 12  2  1  0
 13  9  1  0
 14  5  1  0
 15  4  1  0
 16 10  1  0
 17 10  1  0
 18 12  2  0
 19 11  2  0
 20 15  2  0
 21 14  2  0
  6  7  1  0
 18 20  1  0
 19 21  1  0
 23 27  2  0
 24 28  1  0
 25 26  1  0
 26 22  2  0
 27 24  1  0
 28 25  1  0
 29 22  1  0
 30 23  1  0
 31 22  1  0
 32 23  1  0
 33 24  2  0
 34 35  1  0
 35 29  2  0
 36 33  1  0
 37 31  2  0
 38 32  2  0
 39 26  1  0
 40 27  1  0
 41 31  1  0
 42 32  1  0
 43 34  1  0
 44 33  1  0
 45 35  1  0
 46 36  1  0
 47 44  2  0
 48 43  2  0
 49 47  1  0
 50 45  2  0
 25 34  2  0
 48 50  1  0
 30 36  2  0
 46 49  2  0
 52 51  1  0
 53 51  1  0
 54 52  2  0
 55 53  2  0
 56 54  1  0
 57 55  1  0
 58 51  1  0
 59 58  1  0
 60 63  1  0
 61 53  1  0
 62 52  1  0
 63 59  1  0
 64 55  1  0
 65 54  1  0
 66 60  1  0
 67 60  1  0
 68 62  2  0
 69 61  2  0
 70 65  2  0
 71 64  2  0
 56 57  1  0
 68 70  1  0
 69 71  1  0
  6 72  1  0
  6 73  1  0
  7 74  1  0
  7 75  1  0
  8 76  1  0
  8 77  1  0
  9 78  1  0
  9 79  1  0
 11 80  1  0
 12 81  1  0
 13 82  1  0
 13 83  1  0
 14 84  1  0
 15 85  1  0
 16 86  1  0
 16 87  1  0
 16 88  1  0
 17 89  1  0
 17 90  1  0
 17 91  1  0
 18 92  1  0
 19 93  1  0
 20 94  1  0
 21 95  1  0
 28 96  1  0
 28 97  1  0
 29 98  1  0
 30 99  1  0
 39100  1  0
 40101  1  0
 41102  1  0
 42103  1  0
 43104  1  0
 44105  1  0
 45106  1  0
 46107  1  0
 47108  1  0
 48109  1  0
 49110  1  0
 50111  1  0
 56112  1  0
 56113  1  0
 57114  1  0
 57115  1  0
 58116  1  0
 58117  1  0
 59118  1  0
 59119  1  0
 61120  1  0
 62121  1  0
 63122  1  0
 63123  1  0
 64124  1  0
 65125  1  0
 66126  1  0
 66127  1  0
 66128  1  0
 67129  1  0
 67130  1  0
 67131  1  0
 68132  1  0
 69133  1  0
 70134  1  0
 71135  1  0
M  END
> <Uni-Dock RESULT> 
ENERGY=   -7.449  LOWER_BOUND=    1.994  UPPER_BOUND=    7.115
INTER + INTRA:          -7.449
INTER:                  -7.449
INTRA:                   0.000
UNBOUND:                 0.000

$$$$

     RDKit          3D

135142  0  0  0  0  0  0  0  0999 V2000
   48.8484    8.7041   17.6262 N   0  0  0  0  0  0  0  0  0  0  0  0
   48.7158    7.7472   18.6631 C   0  0  0  0  0  0  0  0  0  0  0  0
   49.0328    8.4350   16.2481 C   0  0  0  0  0  0  0  0  0  0  0  0
   49.3722    6.4938   18.6664 C   0  0  0  0  0  0  0  0  0  0  0  0
   50.1119    7.6632   15.7959 C   0  0  0  0  0  0  0  0  0  0  0  0
   50.3639    6.0135   17.6257 C   0  0  0  0  0  0  0  0  0  0  0  0
   51.0681    7.0761   16.7930 C   0  0  0  0  0  0  0  0  0  0  0  0
   48.6719   10.1458   17.9347 C   0  0  0  0  0  0  0  0  0  0  0  0
   49.7356   10.6382   18.9220 C   0  0  0  0  0  0  0  0  0  0  0  0
   48.9362   12.8828   19.8085 N   0  0  0  0  0  0  0  0  0  0  0  0
   48.1362    8.9450   15.2902 C   0  0  0  0  0  0  0  0  0  0  0  0
   47.8498    8.0096   19.7525 C   0  0  0  0  0  0  0  0  0  0  0  0
   49.9117   12.1637   18.9676 C   0  0  0  0  0  0  0  0  0  0  0  0
   50.2923    7.4313   14.4215 C   0  0  0  0  0  0  0  0  0  0  0  0
   49.1201    5.5697   19.7114 C   0  0  0  0  0  0  0  0  0  0  0  0
   49.5125   14.1601   20.2495 C   0  0  0  0  0  0  0  0  0  0  0  0
   47.6763   13.1502   19.1146 C   0  0  0  0  0  0  0  0  0  0  0  0
   47.6277    7.0952   20.7864 C   0  0  0  0  0  0  0  0  0  0  0  0
   48.3165    8.7112   13.9254 C   0  0  0  0  0  0  0  0  0  0  0  0
   48.2617    5.8673   20.7633 C   0  0  0  0  0  0  0  0  0  0  0  0
   49.3994    7.9568   13.4905 C   0  0  0  0  0  0  0  0  0  0  0  0
   47.3279   11.5870   19.1623 C   0  0  0  0  0  0  0  0  0  0  0  0
   51.7858    7.5513   18.1051 C   0  0  0  0  0  0  0  0  0  0  0  0
   49.4098    7.8794   17.5788 C   0  0  0  0  0  0  0  0  0  0  0  0
   48.1281   10.1263   17.3596 C   0  0  0  0  0  0  0  0  0  0  0  0
   47.5254   10.3075   18.6241 C   0  0  0  0  0  0  0  0  0  0  0  0
   50.7684    8.2447   17.4365 C   0  0  0  0  0  0  0  0  0  0  0  0
   48.3452    8.7008   16.8455 C   0  0  0  0  0  0  0  0  0  0  0  0
   47.7080   12.7078   18.4233 C   0  0  0  0  0  0  0  0  0  0  0  0
   51.4516    6.4534   18.9003 C   0  0  0  0  0  0  0  0  0  0  0  0
   46.7147   11.7390   20.5025 C   0  0  0  0  0  0  0  0  0  0  0  0
   53.2281    7.8951   18.0218 C   0  0  0  0  0  0  0  0  0  0  0  0
   49.0783    6.7384   18.3828 C   0  0  0  0  0  0  0  0  0  0  0  0
   48.4925   11.2834   16.5937 C   0  0  0  0  0  0  0  0  0  0  0  0
   48.2737   12.5728   17.1504 C   0  0  0  0  0  0  0  0  0  0  0  0
   50.1239    6.0350   19.0386 C   0  0  0  0  0  0  0  0  0  0  0  0
   46.3451   10.8090   21.2018 O   0  0  0  0  0  0  0  0  0  0  0  0
   54.1428    7.2938   18.5548 O   0  0  0  0  0  0  0  0  0  0  0  0
   47.1129    9.1829   19.2959 O   0  0  0  0  0  0  0  0  0  0  0  0
   51.0540    9.2874   16.5919 O   0  0  0  0  0  0  0  0  0  0  0  0
   46.5950   13.0144   20.9090 O   0  0  0  0  0  0  0  0  0  0  0  0
   53.4737    8.9932   17.2751 O   0  0  0  0  0  0  0  0  0  0  0  0
   49.0627   11.2494   15.2958 C   0  0  0  0  0  0  0  0  0  0  0  0
   47.7665    6.2372   18.5807 C   0  0  0  0  0  0  0  0  0  0  0  0
   48.6186   13.7316   16.4334 C   0  0  0  0  0  0  0  0  0  0  0  0
   49.8454    4.9104   19.8346 C   0  0  0  0  0  0  0  0  0  0  0  0
   47.5013    5.1174   19.3757 C   0  0  0  0  0  0  0  0  0  0  0  0
   49.4004   12.4101   14.5919 C   0  0  0  0  0  0  0  0  0  0  0  0
   48.5425    4.4519   20.0023 C   0  0  0  0  0  0  0  0  0  0  0  0
   49.1780   13.6530   15.1615 C   0  0  0  0  0  0  0  0  0  0  0  0
   49.2321    8.6235   17.9541 N   0  0  0  0  0  0  0  0  0  0  0  0
   49.7794    7.6552   18.8631 C   0  0  0  0  0  0  0  0  0  0  0  0
   48.9744    8.5467   16.5434 C   0  0  0  0  0  0  0  0  0  0  0  0
   49.6147    6.2666   18.7101 C   0  0  0  0  0  0  0  0  0  0  0  0
   49.2533    7.4163   15.7382 C   0  0  0  0  0  0  0  0  0  0  0  0
   48.9233    5.6857   17.5147 C   0  0  0  0  0  0  0  0  0  0  0  0
   49.7029    6.0826   16.2750 C   0  0  0  0  0  0  0  0  0  0  0  0
   48.7534    9.8555   18.6548 C   0  0  0  0  0  0  0  0  0  0  0  0
   49.7462   11.0266   18.5202 C   0  0  0  0  0  0  0  0  0  0  0  0
   48.0551   12.7781   19.1604 N   0  0  0  0  0  0  0  0  0  0  0  0
   48.4406    9.6574   15.8371 C   0  0  0  0  0  0  0  0  0  0  0  0
   50.5222    8.0616   19.9988 C   0  0  0  0  0  0  0  0  0  0  0  0
   49.3797   12.1990   19.4391 C   0  0  0  0  0  0  0  0  0  0  0  0
   49.0898    7.4650   14.3277 C   0  0  0  0  0  0  0  0  0  0  0  0
   50.1272    5.3604   19.6679 C   0  0  0  0  0  0  0  0  0  0  0  0
   47.6318   13.6260   20.2794 C   0  0  0  0  0  0  0  0  0  0  0  0
   48.0591   13.5685   17.9252 C   0  0  0  0  0  0  0  0  0  0  0  0
   51.0377    7.1621   20.9397 C   0  0  0  0  0  0  0  0  0  0  0  0
   48.2561    9.6874   14.4480 C   0  0  0  0  0  0  0  0  0  0  0  0
   50.8319    5.8048   20.7778 C   0  0  0  0  0  0  0  0  0  0  0  0
   48.5986    8.5907   13.6859 C   0  0  0  0  0  0  0  0  0  0  0  0
   51.1545    5.4586   18.1488 H   0  0  0  0  0  0  0  0  0  0  0  0
   49.8503    5.2954   16.9723 H   0  0  0  0  0  0  0  0  0  0  0  0
   51.9110    6.6116   16.2664 H   0  0  0  0  0  0  0  0  0  0  0  0
   51.4994    7.8669   17.4190 H   0  0  0  0  0  0  0  0  0  0  0  0
   47.6549   10.3296   18.2894 H   0  0  0  0  0  0  0  0  0  0  0  0
   48.7786   10.7550   17.0272 H   0  0  0  0  0  0  0  0  0  0  0  0
   50.7036   10.2101   18.6252 H   0  0  0  0  0  0  0  0  0  0  0  0
   49.5402   10.2600   19.9322 H   0  0  0  0  0  0  0  0  0  0  0  0
   47.2685    9.5163   15.6109 H   0  0  0  0  0  0  0  0  0  0  0  0
   47.2935    8.9409   19.8094 H   0  0  0  0  0  0  0  0  0  0  0  0
   49.9584   12.5855   17.9556 H   0  0  0  0  0  0  0  0  0  0  0  0
   50.9109   12.3174   19.3983 H   0  0  0  0  0  0  0  0  0  0  0  0
   51.1295    6.8321   14.0712 H   0  0  0  0  0  0  0  0  0  0  0  0
   49.6129    4.5985   19.7051 H   0  0  0  0  0  0  0  0  0  0  0  0
   50.4204   13.9922   20.8404 H   0  0  0  0  0  0  0  0  0  0  0  0
   49.7642   14.8121   19.4044 H   0  0  0  0  0  0  0  0  0  0  0  0
   48.8152   14.6951   20.9041 H   0  0  0  0  0  0  0  0  0  0  0  0
   47.1240   12.2303   18.9181 H   0  0  0  0  0  0  0  0  0  0  0  0
   47.0124   13.7583   19.7407 H   0  0  0  0  0  0  0  0  0  0  0  0
   47.8268   13.6799   18.1665 H   0  0  0  0  0  0  0  0  0  0  0  0
   46.9485    7.3460   21.5958 H   0  0  0  0  0  0  0  0  0  0  0  0
   47.6073    9.1130   13.2073 H   0  0  0  0  0  0  0  0  0  0  0  0
   48.0913    5.1435   21.5549 H   0  0  0  0  0  0  0  0  0  0  0  0
   49.5438    7.7690   12.4305 H   0  0  0  0  0  0  0  0  0  0  0  0
   47.3689    8.2078   16.8486 H   0  0  0  0  0  0  0  0  0  0  0  0
   48.6016    8.6793   15.7824 H   0  0  0  0  0  0  0  0  0  0  0  0
   47.5526   13.7021   18.8375 H   0  0  0  0  0  0  0  0  0  0  0  0
   52.2446    5.9098   19.4129 H   0  0  0  0  0  0  0  0  0  0  0  0
   46.7813    9.4288   20.1855 H   0  0  0  0  0  0  0  0  0  0  0  0
   52.0046    9.5041   16.6820 H   0  0  0  0  0  0  0  0  0  0  0  0
   46.1870   12.9526   21.7983 H   0  0  0  0  0  0  0  0  0  0  0  0
   54.4524    9.0788   17.3314 H   0  0  0  0  0  0  0  0  0  0  0  0
   49.2758   10.3054   14.8024 H   0  0  0  0  0  0  0  0  0  0  0  0
   46.9063    6.7250   18.1308 H   0  0  0  0  0  0  0  0  0  0  0  0
   48.4505   14.7172   16.8637 H   0  0  0  0  0  0  0  0  0  0  0  0
   50.6508    4.3758   20.3353 H   0  0  0  0  0  0  0  0  0  0  0  0
   46.4773    4.7757   19.5045 H   0  0  0  0  0  0  0  0  0  0  0  0
   49.8413   12.3325   13.6014 H   0  0  0  0  0  0  0  0  0  0  0  0
   48.3436    3.5819   20.6223 H   0  0  0  0  0  0  0  0  0  0  0  0
   49.4393   14.5585   14.6214 H   0  0  0  0  0  0  0  0  0  0  0  0
   47.8729    6.0004   17.4864 H   0  0  0  0  0  0  0  0  0  0  0  0
   48.9133    4.5904   17.5841 H   0  0  0  0  0  0  0  0  0  0  0  0
   49.5152    5.3078   15.5206 H   0  0  0  0  0  0  0  0  0  0  0  0
   50.7884    6.0999   16.4377 H   0  0  0  0  0  0  0  0  0  0  0  0
   48.5694    9.6531   19.7199 H   0  0  0  0  0  0  0  0  0  0  0  0
   47.7519   10.1350   18.3034 H   0  0  0  0  0  0  0  0  0  0  0  0
   50.7600   10.6994   18.7772 H   0  0  0  0  0  0  0  0  0  0  0  0
   49.8266   11.3690   17.4841 H   0  0  0  0  0  0  0  0  0  0  0  0
   48.1468   10.5690   16.3439 H   0  0  0  0  0  0  0  0  0  0  0  0
   50.7367    9.1081   20.1821 H   0  0  0  0  0  0  0  0  0  0  0  0
   50.1600   12.9688   19.3774 H   0  0  0  0  0  0  0  0  0  0  0  0
   49.4038   11.8191   20.4697 H   0  0  0  0  0  0  0  0  0  0  0  0
   49.3357    6.5950   13.7209 H   0  0  0  0  0  0  0  0  0  0  0  0
   49.9859    4.2889   19.5371 H   0  0  0  0  0  0  0  0  0  0  0  0
   48.3258   14.4557   20.4550 H   0  0  0  0  0  0  0  0  0  0  0  0
   46.6347   14.0416   20.0930 H   0  0  0  0  0  0  0  0  0  0  0  0
   47.5549   13.0368   21.2006 H   0  0  0  0  0  0  0  0  0  0  0  0
   47.0653   13.9925   17.7400 H   0  0  0  0  0  0  0  0  0  0  0  0
   48.7810   14.3923   17.9646 H   0  0  0  0  0  0  0  0  0  0  0  0
   48.2906   12.9475   17.0555 H   0  0  0  0  0  0  0  0  0  0  0  0
   51.5999    7.5324   21.7930 H   0  0  0  0  0  0  0  0  0  0  0  0
   47.8524   10.5784   13.9749 H   0  0  0  0  0  0  0  0  0  0  0  0
   51.2258    5.0963   21.5003 H   0  0  0  0  0  0  0  0  0  0  0  0
   48.4717    8.6018   12.6081 H   0  0  0  0  0  0  0  0  0  0  0  0
  2  1  1  0
  3  1  1  0
  4  2  2  0
  5  3  2  0
  6  4  1  0
  7  5  1  0
  8  1  1  0
  9  8  1  0
 10 13  1  0
 11  3  1  0
 12  2  1  0
 13  9  1  0
 14  5  1  0
 15  4  1  0
 16 10  1  0
 17 10  1  0
 18 12  2  0
 19 11  2  0
 20 15  2  0
 21 14  2  0
  6  7  1  0
 18 20  1  0
 19 21  1  0
 23 27  2  0
 24 28  1  0
 25 26  1  0
 26 22  2  0
 27 24  1  0
 28 25  1  0
 29 22  1  0
 30 23  1  0
 31 22  1  0
 32 23  1  0
 33 24  2  0
 34 35  1  0
 35 29  2  0
 36 33  1  0
 37 31  2  0
 38 32  2  0
 39 26  1  0
 40 27  1  0
 41 31  1  0
 42 32  1  0
 43 34  1  0
 44 33  1  0
 45 35  1  0
 46 36  1  0
 47 44  2  0
 48 43  2  0
 49 47  1  0
 50 45  2  0
 25 34  2  0
 48 50  1  0
 30 36  2  0
 46 49  2  0
 52 51  1  0
 53 51  1  0
 54 52  2  0
 55 53  2  0
 56 54  1  0
 57 55  1  0
 58 51  1  0
 59 58  1  0
 60 63  1  0
 61 53  1  0
 62 52  1  0
 63 59  1  0
 64 55  1  0
 65 54  1  0
 66 60  1  0
 67 60  1  0
 68 62  2  0
 69 61  2  0
 70 65  2  0
 71 64  2  0
 56 57  1  0
 68 70  1  0
 69 71  1  0
  6 72  1  0
  6 73  1  0
  7 74  1  0
  7 75  1  0
  8 76  1  0
  8 77  1  0
  9 78  1  0
  9 79  1  0
 11 80  1  0
 12 81  1  0
 13 82  1  0
 13 83  1  0
 14 84  1  0
 15 85  1  0
 16 86  1  0
 16 87  1  0
 16 88  1  0
 17 89  1  0
 17 90  1  0
 17 91  1  0
 18 92  1  0
 19 93  1  0
 20 94  1  0
 21 95  1  0
 28 96  1  0
 28 97  1  0
 29 98  1  0
 30 99  1  0
 39100  1  0
 40101  1  0
 41102  1  0
 42103  1  0
 43104  1  0
 44105  1  0
 45106  1  0
 46107  1  0
 47108  1  0
 48109  1  0
 49110  1  0
 50111  1  0
 56112  1  0
 56113  1  0
 57114  1  0
 57115  1  0
 58116  1  0
 58117  1  0
 59118  1  0
 59119  1  0
 61120  1  0
 62121  1  0
 63122  1  0
 63123  1  0
 64124  1  0
 65125  1  0
 66126  1  0
 66127  1  0
 66128  1  0
 67129  1  0
 67130  1  0
 67131  1  0
 68132  1  0
 69133  1  0
 70134  1  0
 71135  1  0
M  END
> <Uni-Dock RESULT> 
ENERGY=   -7.291  LOWER_BOUND=    1.697  UPPER_BOUND=    3.508
INTER + INTRA:          -7.291
INTER:                  -7.291
INTRA:                   0.000
UNBOUND:                 0.000

$$$$

     RDKit          3D

135142  0  0  0  0  0  0  0  0999 V2000
   50.2889    6.3767   18.7529 N   0  0  0  0  0  0  0  0  0  0  0  0
   49.7190    7.6523   18.9905 C   0  0  0  0  0  0  0  0  0  0  0  0
   49.5890    5.1549   18.6002 C   0  0  0  0  0  0  0  0  0  0  0  0
   48.5422    7.8602   19.7480 C   0  0  0  0  0  0  0  0  0  0  0  0
   48.7248    4.6823   19.5974 C   0  0  0  0  0  0  0  0  0  0  0  0
   47.7615    6.7865   20.4794 C   0  0  0  0  0  0  0  0  0  0  0  0
   48.5043    5.5052   20.8332 C   0  0  0  0  0  0  0  0  0  0  0  0
   51.7505    6.2610   18.5182 C   0  0  0  0  0  0  0  0  0  0  0  0
   52.5490    6.7116   19.7462 C   0  0  0  0  0  0  0  0  0  0  0  0
   54.9505    7.0468   18.9820 N   0  0  0  0  0  0  0  0  0  0  0  0
   49.7501    4.3750   17.4395 C   0  0  0  0  0  0  0  0  0  0  0  0
   50.3108    8.8027   18.4144 C   0  0  0  0  0  0  0  0  0  0  0  0
   54.0086    6.2331   19.7736 C   0  0  0  0  0  0  0  0  0  0  0  0
   48.0614    3.4537   19.4379 C   0  0  0  0  0  0  0  0  0  0  0  0
   48.0046    9.1662   19.8695 C   0  0  0  0  0  0  0  0  0  0  0  0
   56.3083    6.8934   19.5213 C   0  0  0  0  0  0  0  0  0  0  0  0
   54.9635    6.6828   17.5651 C   0  0  0  0  0  0  0  0  0  0  0  0
   49.7791   10.0873   18.5608 C   0  0  0  0  0  0  0  0  0  0  0  0
   49.0880    3.1556   17.2826 C   0  0  0  0  0  0  0  0  0  0  0  0
   48.6176   10.2695   19.2875 C   0  0  0  0  0  0  0  0  0  0  0  0
   48.2458    2.6924   18.2862 C   0  0  0  0  0  0  0  0  0  0  0  0
   53.4966    7.3058   17.4000 C   0  0  0  0  0  0  0  0  0  0  0  0
   49.3880    6.3527   21.8147 C   0  0  0  0  0  0  0  0  0  0  0  0
   49.5000    6.4324   19.3629 C   0  0  0  0  0  0  0  0  0  0  0  0
   51.5391    5.8949   17.8488 C   0  0  0  0  0  0  0  0  0  0  0  0
   52.1140    7.1565   17.5792 C   0  0  0  0  0  0  0  0  0  0  0  0
   49.8149    5.8129   20.5943 C   0  0  0  0  0  0  0  0  0  0  0  0
   50.0265    5.8072   18.0677 C   0  0  0  0  0  0  0  0  0  0  0  0
   54.3210    6.1818   17.4609 C   0  0  0  0  0  0  0  0  0  0  0  0
   48.6039    7.5081   21.8101 C   0  0  0  0  0  0  0  0  0  0  0  0
   54.0683    8.6483   17.1429 C   0  0  0  0  0  0  0  0  0  0  0  0
   49.7027    5.7703   23.1440 C   0  0  0  0  0  0  0  0  0  0  0  0
   48.6780    7.6083   19.3676 C   0  0  0  0  0  0  0  0  0  0  0  0
   52.3889    4.7395   17.8840 C   0  0  0  0  0  0  0  0  0  0  0  0
   53.7867    4.9085   17.6882 C   0  0  0  0  0  0  0  0  0  0  0  0
   48.2378    8.1318   20.6127 C   0  0  0  0  0  0  0  0  0  0  0  0
   53.4115    9.6742   17.0625 O   0  0  0  0  0  0  0  0  0  0  0  0
   49.3177    6.1869   24.2212 O   0  0  0  0  0  0  0  0  0  0  0  0
   51.2637    8.2295   17.4701 O   0  0  0  0  0  0  0  0  0  0  0  0
   50.5302    4.6432   20.5451 O   0  0  0  0  0  0  0  0  0  0  0  0
   55.4051    8.6573   17.0048 O   0  0  0  0  0  0  0  0  0  0  0  0
   50.5017    4.6837   23.0760 O   0  0  0  0  0  0  0  0  0  0  0  0
   51.9420    3.4111   18.0990 C   0  0  0  0  0  0  0  0  0  0  0  0
   48.2532    8.3073   18.2091 C   0  0  0  0  0  0  0  0  0  0  0  0
   54.6538    3.8025   17.7172 C   0  0  0  0  0  0  0  0  0  0  0  0
   47.4294    9.2805   20.6645 C   0  0  0  0  0  0  0  0  0  0  0  0
   47.4491    9.4500   18.2731 C   0  0  0  0  0  0  0  0  0  0  0  0
   52.8151    2.3185   18.1242 C   0  0  0  0  0  0  0  0  0  0  0  0
   47.0352    9.9365   19.5025 C   0  0  0  0  0  0  0  0  0  0  0  0
   54.1730    2.5145   17.9330 C   0  0  0  0  0  0  0  0  0  0  0  0
   50.3235    6.5933   19.2145 N   0  0  0  0  0  0  0  0  0  0  0  0
   49.7092    7.5673   20.0732 C   0  0  0  0  0  0  0  0  0  0  0  0
   49.7899    5.4053   18.6094 C   0  0  0  0  0  0  0  0  0  0  0  0
   48.3443    7.9027   20.0152 C   0  0  0  0  0  0  0  0  0  0  0  0
   48.4626    4.9445   18.7824 C   0  0  0  0  0  0  0  0  0  0  0  0
   47.3988    7.1867   19.0998 C   0  0  0  0  0  0  0  0  0  0  0  0
   47.3807    5.7199   19.4876 C   0  0  0  0  0  0  0  0  0  0  0  0
   51.7106    6.9831   18.8122 C   0  0  0  0  0  0  0  0  0  0  0  0
   52.7860    6.2233   19.6132 C   0  0  0  0  0  0  0  0  0  0  0  0
   54.6309    6.7342   17.9782 N   0  0  0  0  0  0  0  0  0  0  0  0
   50.6049    4.5679   17.8018 C   0  0  0  0  0  0  0  0  0  0  0  0
   50.4708    8.2686   21.0400 C   0  0  0  0  0  0  0  0  0  0  0  0
   54.1889    6.7988   19.3812 C   0  0  0  0  0  0  0  0  0  0  0  0
   48.0489    3.6918   18.2551 C   0  0  0  0  0  0  0  0  0  0  0  0
   47.8042    8.9116   20.8468 C   0  0  0  0  0  0  0  0  0  0  0  0
   55.7911    7.6077   17.7762 C   0  0  0  0  0  0  0  0  0  0  0  0
   54.9775    5.3654   17.5826 C   0  0  0  0  0  0  0  0  0  0  0  0
   49.9316    9.2592   21.8694 C   0  0  0  0  0  0  0  0  0  0  0  0
   50.1801    3.3463   17.2617 C   0  0  0  0  0  0  0  0  0  0  0  0
   48.5928    9.5883   21.7665 C   0  0  0  0  0  0  0  0  0  0  0  0
   48.8995    2.8967   17.5038 C   0  0  0  0  0  0  0  0  0  0  0  0
   47.4157    7.2142   21.4302 H   0  0  0  0  0  0  0  0  0  0  0  0
   46.8643    6.5565   19.8891 H   0  0  0  0  0  0  0  0  0  0  0  0
   47.9037    4.9356   21.5533 H   0  0  0  0  0  0  0  0  0  0  0  0
   49.4604    5.7107   21.3301 H   0  0  0  0  0  0  0  0  0  0  0  0
   52.0278    6.8093   17.6146 H   0  0  0  0  0  0  0  0  0  0  0  0
   52.0332    5.2177   18.3243 H   0  0  0  0  0  0  0  0  0  0  0  0
   52.0589    6.3052   20.6423 H   0  0  0  0  0  0  0  0  0  0  0  0
   52.5171    7.8017   19.8582 H   0  0  0  0  0  0  0  0  0  0  0  0
   50.3845    4.7312   16.6315 H   0  0  0  0  0  0  0  0  0  0  0  0
   51.2037    8.7212   17.8010 H   0  0  0  0  0  0  0  0  0  0  0  0
   54.0795    5.1693   19.5139 H   0  0  0  0  0  0  0  0  0  0  0  0
   54.3053    6.3000   20.8295 H   0  0  0  0  0  0  0  0  0  0  0  0
   47.3906    3.0877   20.2117 H   0  0  0  0  0  0  0  0  0  0  0  0
   47.0897    9.3237   20.4390 H   0  0  0  0  0  0  0  0  0  0  0  0
   56.3518    7.2307   20.5634 H   0  0  0  0  0  0  0  0  0  0  0  0
   56.6535    5.8533   19.4785 H   0  0  0  0  0  0  0  0  0  0  0  0
   57.0187    7.5173   18.9671 H   0  0  0  0  0  0  0  0  0  0  0  0
   54.0233    6.9415   17.0762 H   0  0  0  0  0  0  0  0  0  0  0  0
   55.7342    7.2489   17.0283 H   0  0  0  0  0  0  0  0  0  0  0  0
   55.1584    5.6149   17.4107 H   0  0  0  0  0  0  0  0  0  0  0  0
   50.2712   10.9347   18.0928 H   0  0  0  0  0  0  0  0  0  0  0  0
   49.2267    2.5752   16.3749 H   0  0  0  0  0  0  0  0  0  0  0  0
   48.1880   11.2605   19.4016 H   0  0  0  0  0  0  0  0  0  0  0  0
   47.7257    1.7460   18.1692 H   0  0  0  0  0  0  0  0  0  0  0  0
   49.5500    6.2334   17.1803 H   0  0  0  0  0  0  0  0  0  0  0  0
   49.6639    4.7755   18.0408 H   0  0  0  0  0  0  0  0  0  0  0  0
   55.3941    6.2946   17.3189 H   0  0  0  0  0  0  0  0  0  0  0  0
   48.2654    7.9221   22.7594 H   0  0  0  0  0  0  0  0  0  0  0  0
   51.7813    9.0549   17.3572 H   0  0  0  0  0  0  0  0  0  0  0  0
   50.7754    4.3943   21.4597 H   0  0  0  0  0  0  0  0  0  0  0  0
   55.6307    9.5986   16.8495 H   0  0  0  0  0  0  0  0  0  0  0  0
   50.6122    4.4367   24.0221 H   0  0  0  0  0  0  0  0  0  0  0  0
   50.8915    3.1947   18.2709 H   0  0  0  0  0  0  0  0  0  0  0  0
   48.5585    7.9862   17.2173 H   0  0  0  0  0  0  0  0  0  0  0  0
   55.7237    3.9363   17.5680 H   0  0  0  0  0  0  0  0  0  0  0  0
   47.0957    9.6775   21.6218 H   0  0  0  0  0  0  0  0  0  0  0  0
   47.1559    9.9571   17.3572 H   0  0  0  0  0  0  0  0  0  0  0  0
   52.4253    1.3190   18.2990 H   0  0  0  0  0  0  0  0  0  0  0  0
   46.4114   10.8244   19.5596 H   0  0  0  0  0  0  0  0  0  0  0  0
   54.8570    1.6710   17.9530 H   0  0  0  0  0  0  0  0  0  0  0  0
   47.6752    7.3555   18.0517 H   0  0  0  0  0  0  0  0  0  0  0  0
   46.3854    7.5909   19.2184 H   0  0  0  0  0  0  0  0  0  0  0  0
   46.4009    5.3251   19.1899 H   0  0  0  0  0  0  0  0  0  0  0  0
   47.4624    5.5613   20.5707 H   0  0  0  0  0  0  0  0  0  0  0  0
   51.8629    8.0656   18.9317 H   0  0  0  0  0  0  0  0  0  0  0  0
   51.8493    6.8551   17.7311 H   0  0  0  0  0  0  0  0  0  0  0  0
   52.5718    6.2767   20.6865 H   0  0  0  0  0  0  0  0  0  0  0  0
   52.7744    5.1527   19.3876 H   0  0  0  0  0  0  0  0  0  0  0  0
   51.6282    4.8290   17.5591 H   0  0  0  0  0  0  0  0  0  0  0  0
   51.5226    8.0526   21.1883 H   0  0  0  0  0  0  0  0  0  0  0  0
   54.9059    6.2883   20.0372 H   0  0  0  0  0  0  0  0  0  0  0  0
   54.1644    7.8470   19.7095 H   0  0  0  0  0  0  0  0  0  0  0  0
   47.0320    3.3403   18.4217 H   0  0  0  0  0  0  0  0  0  0  0  0
   46.7467    9.1629   20.7850 H   0  0  0  0  0  0  0  0  0  0  0  0
   56.6408    7.3186   18.4048 H   0  0  0  0  0  0  0  0  0  0  0  0
   56.1122    7.5867   16.7282 H   0  0  0  0  0  0  0  0  0  0  0  0
   55.5321    8.6491   18.0002 H   0  0  0  0  0  0  0  0  0  0  0  0
   55.3068    5.3418   16.5372 H   0  0  0  0  0  0  0  0  0  0  0  0
   55.7776    4.9463   18.2033 H   0  0  0  0  0  0  0  0  0  0  0  0
   54.1104    4.7017   17.6422 H   0  0  0  0  0  0  0  0  0  0  0  0
   50.5652    9.7651   22.5934 H   0  0  0  0  0  0  0  0  0  0  0  0
   50.8646    2.7528   16.6618 H   0  0  0  0  0  0  0  0  0  0  0  0
   48.1619   10.3551   22.4033 H   0  0  0  0  0  0  0  0  0  0  0  0
   48.5586    1.9481   17.1015 H   0  0  0  0  0  0  0  0  0  0  0  0
  2  1  1  0
  3  1  1  0
  4  2  2  0
  5  3  2  0
  6  4  1  0
  7  5  1  0
  8  1  1  0
  9  8  1  0
 10 13  1  0
 11  3  1  0
 12  2  1  0
 13  9  1  0
 14  5  1  0
 15  4  1  0
 16 10  1  0
 17 10  1  0
 18 12  2  0
 19 11  2  0
 20 15  2  0
 21 14  2  0
  6  7  1  0
 18 20  1  0
 19 21  1  0
 23 27  2  0
 24 28  1  0
 25 26  1  0
 26 22  2  0
 27 24  1  0
 28 25  1  0
 29 22  1  0
 30 23  1  0
 31 22  1  0
 32 23  1  0
 33 24  2  0
 34 35  1  0
 35 29  2  0
 36 33  1  0
 37 31  2  0
 38 32  2  0
 39 26  1  0
 40 27  1  0
 41 31  1  0
 42 32  1  0
 43 34  1  0
 44 33  1  0
 45 35  1  0
 46 36  1  0
 47 44  2  0
 48 43  2  0
 49 47  1  0
 50 45  2  0
 25 34  2  0
 48 50  1  0
 30 36  2  0
 46 49  2  0
 52 51  1  0
 53 51  1  0
 54 52  2  0
 55 53  2  0
 56 54  1  0
 57 55  1  0
 58 51  1  0
 59 58  1  0
 60 63  1  0
 61 53  1  0
 62 52  1  0
 63 59  1  0
 64 55  1  0
 65 54  1  0
 66 60  1  0
 67 60  1  0
 68 62  2  0
 69 61  2  0
 70 65  2  0
 71 64  2  0
 56 57  1  0
 68 70  1  0
 69 71  1  0
  6 72  1  0
  6 73  1  0
  7 74  1  0
  7 75  1  0
  8 76  1  0
  8 77  1  0
  9 78  1  0
  9 79  1  0
 11 80  1  0
 12 81  1  0
 13 82  1  0
 13 83  1  0
 14 84  1  0
 15 85  1  0
 16 86  1  0
 16 87  1  0
 16 88  1  0
 17 89  1  0
 17 90  1  0
 17 91  1  0
 18 92  1  0
 19 93  1  0
 20 94  1  0
 21 95  1  0
 28 96  1  0
 28 97  1  0
 29 98  1  0
 30 99  1  0
 39100  1  0
 40101  1  0
 41102  1  0
 42103  1  0
 43104  1  0
 44105  1  0
 45106  1  0
 46107  1  0
 47108  1  0
 48109  1  0
 49110  1  0
 50111  1  0
 56112  1  0
 56113  1  0
 57114  1  0
 57115  1  0
 58116  1  0
 58117  1  0
 59118  1  0
 59119  1  0
 61120  1  0
 62121  1  0
 63122  1  0
 63123  1  0
 64124  1  0
 65125  1  0
 66126  1  0
 66127  1  0
 66128  1  0
 67129  1  0
 67130  1  0
 67131  1  0
 68132  1  0
 69133  1  0
 70134  1  0
 71135  1  0
M  END
> <Uni-Dock RESULT> 
ENERGY=   -7.105  LOWER_BOUND=    2.374  UPPER_BOUND=    4.747
INTER + INTRA:          -7.105
INTER:                  -7.105
INTRA:                   0.000
UNBOUND:                 0.000

$$$$

     RDKit          3D

135142  0  0  0  0  0  0  0  0999 V2000
   49.8666    7.8138   20.2526 N   0  0  0  0  0  0  0  0  0  0  0  0
   51.0373    7.0771   19.9443 C   0  0  0  0  0  0  0  0  0  0  0  0
   48.9734    7.5694   21.3241 C   0  0  0  0  0  0  0  0  0  0  0  0
   51.1723    5.6858   20.1629 C   0  0  0  0  0  0  0  0  0  0  0  0
   48.3397    6.3281   21.4739 C   0  0  0  0  0  0  0  0  0  0  0  0
   50.0850    4.7627   20.6759 C   0  0  0  0  0  0  0  0  0  0  0  0
   48.6437    5.2230   20.5047 C   0  0  0  0  0  0  0  0  0  0  0  0
   49.5524    9.0435   19.4819 C   0  0  0  0  0  0  0  0  0  0  0  0
   49.3148    8.7272   18.0013 C   0  0  0  0  0  0  0  0  0  0  0  0
   49.4172   10.9374   16.7492 N   0  0  0  0  0  0  0  0  0  0  0  0
   48.6911    8.5750   22.2678 C   0  0  0  0  0  0  0  0  0  0  0  0
   52.1721    7.7483   19.4272 C   0  0  0  0  0  0  0  0  0  0  0  0
   48.5732    9.8237   17.2217 C   0  0  0  0  0  0  0  0  0  0  0  0
   47.4354    6.1155   22.5284 C   0  0  0  0  0  0  0  0  0  0  0  0
   52.4087    5.0472   19.8926 C   0  0  0  0  0  0  0  0  0  0  0  0
   48.7896   11.5707   15.5818 C   0  0  0  0  0  0  0  0  0  0  0  0
   49.6385   11.9570   17.7748 C   0  0  0  0  0  0  0  0  0  0  0  0
   53.3784    7.0998   19.1465 C   0  0  0  0  0  0  0  0  0  0  0  0
   47.7938    8.3603   23.3159 C   0  0  0  0  0  0  0  0  0  0  0  0
   53.4992    5.7438   19.3852 C   0  0  0  0  0  0  0  0  0  0  0  0
   47.1615    7.1295   23.4432 C   0  0  0  0  0  0  0  0  0  0  0  0
   50.5648   10.9301   18.5840 C   0  0  0  0  0  0  0  0  0  0  0  0
   48.8407    5.0847   18.9541 C   0  0  0  0  0  0  0  0  0  0  0  0
   49.8423    6.8224   20.3709 C   0  0  0  0  0  0  0  0  0  0  0  0
   49.5274    9.3931   20.1918 C   0  0  0  0  0  0  0  0  0  0  0  0
   50.6465    9.8294   19.4486 C   0  0  0  0  0  0  0  0  0  0  0  0
   48.7423    6.2921   19.6581 C   0  0  0  0  0  0  0  0  0  0  0  0
   49.6758    8.1635   21.0916 C   0  0  0  0  0  0  0  0  0  0  0  0
   49.3617   11.6283   18.4749 C   0  0  0  0  0  0  0  0  0  0  0  0
   50.0417    4.3734   18.9883 C   0  0  0  0  0  0  0  0  0  0  0  0
   51.7522   11.3453   17.8011 C   0  0  0  0  0  0  0  0  0  0  0  0
   47.7360    4.4829   18.1649 C   0  0  0  0  0  0  0  0  0  0  0  0
   51.0660    6.0748   20.4158 C   0  0  0  0  0  0  0  0  0  0  0  0
   48.3010   10.1311   20.0950 C   0  0  0  0  0  0  0  0  0  0  0  0
   48.2403   11.2516   19.2225 C   0  0  0  0  0  0  0  0  0  0  0  0
   51.1428    4.8431   19.7121 C   0  0  0  0  0  0  0  0  0  0  0  0
   52.8402   10.7940   17.8529 O   0  0  0  0  0  0  0  0  0  0  0  0
   47.7707    3.4190   17.5741 O   0  0  0  0  0  0  0  0  0  0  0  0
   51.8278    9.1518   19.6263 O   0  0  0  0  0  0  0  0  0  0  0  0
   47.5636    6.9922   19.7087 O   0  0  0  0  0  0  0  0  0  0  0  0
   51.5381   12.4031   17.0003 O   0  0  0  0  0  0  0  0  0  0  0  0
   46.6218    5.2456   18.1369 O   0  0  0  0  0  0  0  0  0  0  0  0
   47.1168    9.8329   20.8158 C   0  0  0  0  0  0  0  0  0  0  0  0
   52.2317    6.4660   21.1224 C   0  0  0  0  0  0  0  0  0  0  0  0
   47.0570   11.9999   19.0974 C   0  0  0  0  0  0  0  0  0  0  0  0
   52.3210    4.0767   19.7302 C   0  0  0  0  0  0  0  0  0  0  0  0
   53.3988    5.6952   21.1326 C   0  0  0  0  0  0  0  0  0  0  0  0
   45.9457   10.5864   20.6834 C   0  0  0  0  0  0  0  0  0  0  0  0
   53.4431    4.4980   20.4368 C   0  0  0  0  0  0  0  0  0  0  0  0
   45.9158   11.6715   19.8230 C   0  0  0  0  0  0  0  0  0  0  0  0
   49.8745    7.4972   19.8515 N   0  0  0  0  0  0  0  0  0  0  0  0
   50.5420    6.3447   19.3134 C   0  0  0  0  0  0  0  0  0  0  0  0
   49.1532    7.6760   21.0803 C   0  0  0  0  0  0  0  0  0  0  0  0
   51.1475    5.3557   20.1096 C   0  0  0  0  0  0  0  0  0  0  0  0
   48.9461    6.6593   22.0433 C   0  0  0  0  0  0  0  0  0  0  0  0
   51.0556    5.3875   21.6047 C   0  0  0  0  0  0  0  0  0  0  0  0
   49.5915    5.2992   21.9930 C   0  0  0  0  0  0  0  0  0  0  0  0
   50.0946    8.7221   19.0214 C   0  0  0  0  0  0  0  0  0  0  0  0
   48.8790    9.0514   18.1330 C   0  0  0  0  0  0  0  0  0  0  0  0
   49.5927   11.4293   17.7160 N   0  0  0  0  0  0  0  0  0  0  0  0
   48.5471    8.9210   21.3967 C   0  0  0  0  0  0  0  0  0  0  0  0
   50.6387    6.1471   17.9139 C   0  0  0  0  0  0  0  0  0  0  0  0
   49.1965   10.1481   17.1084 C   0  0  0  0  0  0  0  0  0  0  0  0
   48.1116    6.8801   23.1718 C   0  0  0  0  0  0  0  0  0  0  0  0
   51.8416    4.2707   19.5246 C   0  0  0  0  0  0  0  0  0  0  0  0
   50.2161   12.2922   16.7076 C   0  0  0  0  0  0  0  0  0  0  0  0
   48.4459   12.1244   18.3094 C   0  0  0  0  0  0  0  0  0  0  0  0
   51.3171    5.0666   17.3374 C   0  0  0  0  0  0  0  0  0  0  0  0
   47.7477    9.1385   22.5273 C   0  0  0  0  0  0  0  0  0  0  0  0
   51.9289    4.1279   18.1470 C   0  0  0  0  0  0  0  0  0  0  0  0
   47.5142    8.1071   23.4119 C   0  0  0  0  0  0  0  0  0  0  0  0
   50.1708    3.8117   20.1331 H   0  0  0  0  0  0  0  0  0  0  0  0
   50.2932    4.5459   21.7323 H   0  0  0  0  0  0  0  0  0  0  0  0
   47.9762    4.3730   20.6935 H   0  0  0  0  0  0  0  0  0  0  0  0
   48.4377    5.5490   19.4778 H   0  0  0  0  0  0  0  0  0  0  0  0
   50.3387    9.7876   19.6297 H   0  0  0  0  0  0  0  0  0  0  0  0
   48.6326    9.5135   19.8550 H   0  0  0  0  0  0  0  0  0  0  0  0
   48.7026    7.8163   17.9389 H   0  0  0  0  0  0  0  0  0  0  0  0
   50.2566    8.4879   17.4938 H   0  0  0  0  0  0  0  0  0  0  0  0
   49.1941    9.5367   22.2012 H   0  0  0  0  0  0  0  0  0  0  0  0
   52.1531    8.8204   19.2532 H   0  0  0  0  0  0  0  0  0  0  0  0
   47.7043   10.1881   17.7842 H   0  0  0  0  0  0  0  0  0  0  0  0
   48.1615    9.3114   16.3411 H   0  0  0  0  0  0  0  0  0  0  0  0
   46.9444    5.1521   22.6445 H   0  0  0  0  0  0  0  0  0  0  0  0
   52.5175    3.9793   20.0766 H   0  0  0  0  0  0  0  0  0  0  0  0
   48.6783   10.8502   14.7631 H   0  0  0  0  0  0  0  0  0  0  0  0
   47.8011   11.9826   15.8182 H   0  0  0  0  0  0  0  0  0  0  0  0
   49.4185   12.3803   15.1944 H   0  0  0  0  0  0  0  0  0  0  0  0
   50.2549   11.5774   18.5908 H   0  0  0  0  0  0  0  0  0  0  0  0
   50.1964   12.8057   17.3612 H   0  0  0  0  0  0  0  0  0  0  0  0
   48.6994   12.3398   18.1916 H   0  0  0  0  0  0  0  0  0  0  0  0
   54.2196    7.6645   18.7557 H   0  0  0  0  0  0  0  0  0  0  0  0
   47.5969    9.1522   24.0330 H   0  0  0  0  0  0  0  0  0  0  0  0
   54.4333    5.2288   19.1807 H   0  0  0  0  0  0  0  0  0  0  0  0
   46.4646    6.9551   24.2578 H   0  0  0  0  0  0  0  0  0  0  0  0
   50.5018    8.3681   21.7787 H   0  0  0  0  0  0  0  0  0  0  0  0
   48.8348    8.0526   21.7822 H   0  0  0  0  0  0  0  0  0  0  0  0
   49.2967   12.4851   17.8069 H   0  0  0  0  0  0  0  0  0  0  0  0
   50.1143    3.4304   18.4474 H   0  0  0  0  0  0  0  0  0  0  0  0
   52.5061    9.4962   19.0071 H   0  0  0  0  0  0  0  0  0  0  0  0
   46.9339    6.5793   19.0829 H   0  0  0  0  0  0  0  0  0  0  0  0
   52.3971   12.5506   16.5516 H   0  0  0  0  0  0  0  0  0  0  0  0
   46.0095    4.7138   17.5797 H   0  0  0  0  0  0  0  0  0  0  0  0
   47.0724    8.9854   21.4939 H   0  0  0  0  0  0  0  0  0  0  0  0
   52.2660    7.4020   21.6726 H   0  0  0  0  0  0  0  0  0  0  0  0
   47.0143   12.8566   18.4272 H   0  0  0  0  0  0  0  0  0  0  0  0
   52.3742    3.1340   19.1883 H   0  0  0  0  0  0  0  0  0  0  0  0
   54.2708    6.0412   21.6822 H   0  0  0  0  0  0  0  0  0  0  0  0
   45.0608   10.3145   21.2530 H   0  0  0  0  0  0  0  0  0  0  0  0
   54.3470    3.8947   20.4395 H   0  0  0  0  0  0  0  0  0  0  0  0
   45.0094   12.2601   19.7139 H   0  0  0  0  0  0  0  0  0  0  0  0
   51.5575    6.2779   22.0027 H   0  0  0  0  0  0  0  0  0  0  0  0
   51.5816    4.5233   22.0301 H   0  0  0  0  0  0  0  0  0  0  0  0
   49.5550    4.8449   22.9915 H   0  0  0  0  0  0  0  0  0  0  0  0
   49.0111    4.6421   21.3324 H   0  0  0  0  0  0  0  0  0  0  0  0
   50.9888    8.6117   18.3908 H   0  0  0  0  0  0  0  0  0  0  0  0
   50.3714    9.5737   19.6559 H   0  0  0  0  0  0  0  0  0  0  0  0
   48.5539    8.1601   17.5847 H   0  0  0  0  0  0  0  0  0  0  0  0
   48.0078    9.3339   18.7317 H   0  0  0  0  0  0  0  0  0  0  0  0
   48.6646    9.7912   20.7618 H   0  0  0  0  0  0  0  0  0  0  0  0
   50.1701    6.8334   17.2181 H   0  0  0  0  0  0  0  0  0  0  0  0
   48.3350   10.2852   16.4419 H   0  0  0  0  0  0  0  0  0  0  0  0
   50.0150    9.7725   16.4792 H   0  0  0  0  0  0  0  0  0  0  0  0
   47.9411    6.0778   23.8879 H   0  0  0  0  0  0  0  0  0  0  0  0
   52.3095    3.5171   20.1557 H   0  0  0  0  0  0  0  0  0  0  0  0
   49.5368   12.5153   15.8773 H   0  0  0  0  0  0  0  0  0  0  0  0
   50.5384   13.2391   17.1559 H   0  0  0  0  0  0  0  0  0  0  0  0
   51.1176   11.8191   16.3009 H   0  0  0  0  0  0  0  0  0  0  0  0
   48.7632   13.0759   18.7517 H   0  0  0  0  0  0  0  0  0  0  0  0
   47.6631   12.3338   17.5713 H   0  0  0  0  0  0  0  0  0  0  0  0
   48.0057   11.5431   19.1243 H   0  0  0  0  0  0  0  0  0  0  0  0
   51.3590    4.9669   16.2558 H   0  0  0  0  0  0  0  0  0  0  0  0
   47.3068   10.1168   22.6981 H   0  0  0  0  0  0  0  0  0  0  0  0
   52.4588    3.2853   17.7129 H   0  0  0  0  0  0  0  0  0  0  0  0
   46.8892    8.2564   24.2865 H   0  0  0  0  0  0  0  0  0  0  0  0
  2  1  1  0
  3  1  1  0
  4  2  2  0
  5  3  2  0
  6  4  1  0
  7  5  1  0
  8  1  1  0
  9  8  1  0
 10 13  1  0
 11  3  1  0
 12  2  1  0
 13  9  1  0
 14  5  1  0
 15  4  1  0
 16 10  1  0
 17 10  1  0
 18 12  2  0
 19 11  2  0
 20 15  2  0
 21 14  2  0
  6  7  1  0
 18 20  1  0
 19 21  1  0
 23 27  2  0
 24 28  1  0
 25 26  1  0
 26 22  2  0
 27 24  1  0
 28 25  1  0
 29 22  1  0
 30 23  1  0
 31 22  1  0
 32 23  1  0
 33 24  2  0
 34 35  1  0
 35 29  2  0
 36 33  1  0
 37 31  2  0
 38 32  2  0
 39 26  1  0
 40 27  1  0
 41 31  1  0
 42 32  1  0
 43 34  1  0
 44 33  1  0
 45 35  1  0
 46 36  1  0
 47 44  2  0
 48 43  2  0
 49 47  1  0
 50 45  2  0
 25 34  2  0
 48 50  1  0
 30 36  2  0
 46 49  2  0
 52 51  1  0
 53 51  1  0
 54 52  2  0
 55 53  2  0
 56 54  1  0
 57 55  1  0
 58 51  1  0
 59 58  1  0
 60 63  1  0
 61 53  1  0
 62 52  1  0
 63 59  1  0
 64 55  1  0
 65 54  1  0
 66 60  1  0
 67 60  1  0
 68 62  2  0
 69 61  2  0
 70 65  2  0
 71 64  2  0
 56 57  1  0
 68 70  1  0
 69 71  1  0
  6 72  1  0
  6 73  1  0
  7 74  1  0
  7 75  1  0
  8 76  1  0
  8 77  1  0
  9 78  1  0
  9 79  1  0
 11 80  1  0
 12 81  1  0
 13 82  1  0
 13 83  1  0
 14 84  1  0
 15 85  1  0
 16 86  1  0
 16 87  1  0
 16 88  1  0
 17 89  1  0
 17 90  1  0
 17 91  1  0
 18 92  1  0
 19 93  1  0
 20 94  1  0
 21 95  1  0
 28 96  1  0
 28 97  1  0
 29 98  1  0
 30 99  1  0
 39100  1  0
 40101  1  0
 41102  1  0
 42103  1  0
 43104  1  0
 44105  1  0
 45106  1  0
 46107  1  0
 47108  1  0
 48109  1  0
 49110  1  0
 50111  1  0
 56112  1  0
 56113  1  0
 57114  1  0
 57115  1  0
 58116  1  0
 58117  1  0
 59118  1  0
 59119  1  0
 61120  1  0
 62121  1  0
 63122  1  0
 63123  1  0
 64124  1  0
 65125  1  0
 66126  1  0
 66127  1  0
 66128  1  0
 67129  1  0
 67130  1  0
 67131  1  0
 68132  1  0
 69133  1  0
 70134  1  0
 71135  1  0
M  END
> <Uni-Dock RESULT> 
ENERGY=   -6.846  LOWER_BOUND=    1.706  UPPER_BOUND=    4.498
INTER + INTRA:          -6.846
INTER:                  -6.846
INTRA:                   0.000
UNBOUND:                 0.000

$$$$

     RDKit          3D

135142  0  0  0  0  0  0  0  0999 V2000
   49.7581    9.3704   21.5496 N   0  0  0  0  0  0  0  0  0  0  0  0
   49.4667    8.1325   22.1748 C   0  0  0  0  0  0  0  0  0  0  0  0
   48.8227   10.3594   21.1588 C   0  0  0  0  0  0  0  0  0  0  0  0
   48.2924    7.3830   21.9279 C   0  0  0  0  0  0  0  0  0  0  0  0
   47.7727   10.0604   20.2798 C   0  0  0  0  0  0  0  0  0  0  0  0
   47.2170    7.7332   20.9188 C   0  0  0  0  0  0  0  0  0  0  0  0
   47.6113    8.6564   19.7740 C   0  0  0  0  0  0  0  0  0  0  0  0
   51.1731    9.7794   21.3615 C   0  0  0  0  0  0  0  0  0  0  0  0
   51.9161    8.8065   20.4395 C   0  0  0  0  0  0  0  0  0  0  0  0
   54.3992    9.2721   20.7233 N   0  0  0  0  0  0  0  0  0  0  0  0
   48.9281   11.6781   21.6400 C   0  0  0  0  0  0  0  0  0  0  0  0
   50.3597    7.6077   23.1406 C   0  0  0  0  0  0  0  0  0  0  0  0
   53.2197    9.3575   19.8417 C   0  0  0  0  0  0  0  0  0  0  0  0
   46.8718   11.0633   19.8828 C   0  0  0  0  0  0  0  0  0  0  0  0
   48.0514    6.1913   22.6568 C   0  0  0  0  0  0  0  0  0  0  0  0
   55.6223    9.2529   19.9098 C   0  0  0  0  0  0  0  0  0  0  0  0
   54.4821   10.3840   21.6705 C   0  0  0  0  0  0  0  0  0  0  0  0
   50.1170    6.4196   23.8363 C   0  0  0  0  0  0  0  0  0  0  0  0
   48.0302   12.6721   21.2457 C   0  0  0  0  0  0  0  0  0  0  0  0
   48.9549    5.7106   23.5972 C   0  0  0  0  0  0  0  0  0  0  0  0
   47.0031   12.3646   20.3618 C   0  0  0  0  0  0  0  0  0  0  0  0
   53.2185    9.7946   22.4601 C   0  0  0  0  0  0  0  0  0  0  0  0
   48.5521    7.5152   19.2495 C   0  0  0  0  0  0  0  0  0  0  0  0
   48.9411    8.8768   21.2557 C   0  0  0  0  0  0  0  0  0  0  0  0
   50.9580   10.4348   21.7502 C   0  0  0  0  0  0  0  0  0  0  0  0
   51.8266    9.6414   22.5318 C   0  0  0  0  0  0  0  0  0  0  0  0
   48.9754    8.7070   19.8524 C   0  0  0  0  0  0  0  0  0  0  0  0
   49.4497   10.1929   21.8513 C   0  0  0  0  0  0  0  0  0  0  0  0
   53.7585   10.7695   21.6207 C   0  0  0  0  0  0  0  0  0  0  0  0
   48.0522    6.4875   20.0516 C   0  0  0  0  0  0  0  0  0  0  0  0
   54.1009    8.9283   23.2764 C   0  0  0  0  0  0  0  0  0  0  0  0
   48.5840    7.2590   17.7871 C   0  0  0  0  0  0  0  0  0  0  0  0
   48.4082    7.8225   22.0697 C   0  0  0  0  0  0  0  0  0  0  0  0
   51.5183   11.4530   20.9090 C   0  0  0  0  0  0  0  0  0  0  0  0
   52.9311   11.6016   20.8582 C   0  0  0  0  0  0  0  0  0  0  0  0
   47.9657    6.6279   21.4408 C   0  0  0  0  0  0  0  0  0  0  0  0
   53.7034    8.0645   24.0419 O   0  0  0  0  0  0  0  0  0  0  0  0
   48.1891    6.2545   17.2240 O   0  0  0  0  0  0  0  0  0  0  0  0
   51.2553    8.7323   23.3881 O   0  0  0  0  0  0  0  0  0  0  0  0
   49.4112    9.7688   19.1010 O   0  0  0  0  0  0  0  0  0  0  0  0
   55.4126    9.1655   23.1048 O   0  0  0  0  0  0  0  0  0  0  0  0
   49.1216    8.2749   17.0779 O   0  0  0  0  0  0  0  0  0  0  0  0
   50.7645   12.3476   20.1076 C   0  0  0  0  0  0  0  0  0  0  0  0
   48.2775    7.8724   23.4810 C   0  0  0  0  0  0  0  0  0  0  0  0
   53.5199   12.5857   20.0452 C   0  0  0  0  0  0  0  0  0  0  0  0
   47.4347    5.5701   22.1989 C   0  0  0  0  0  0  0  0  0  0  0  0
   47.7480    6.8129   24.2250 C   0  0  0  0  0  0  0  0  0  0  0  0
   51.3626   13.3237   19.3037 C   0  0  0  0  0  0  0  0  0  0  0  0
   47.3244    5.6606   23.5829 C   0  0  0  0  0  0  0  0  0  0  0  0
   52.7423   13.4429   19.2726 C   0  0  0  0  0  0  0  0  0  0  0  0
   49.7908    8.9338   21.2860 N   0  0  0  0  0  0  0  0  0  0  0  0
   49.3221    7.5764   21.2531 C   0  0  0  0  0  0  0  0  0  0  0  0
   49.0724   10.1766   21.2445 C   0  0  0  0  0  0  0  0  0  0  0  0
   48.0815    7.1703   21.7773 C   0  0  0  0  0  0  0  0  0  0  0  0
   47.6649   10.2855   21.1396 C   0  0  0  0  0  0  0  0  0  0  0  0
   47.1032    8.1595   22.3331 C   0  0  0  0  0  0  0  0  0  0  0  0
   46.7153    9.1193   21.2238 C   0  0  0  0  0  0  0  0  0  0  0  0
   51.2649    9.0217   21.5251 C   0  0  0  0  0  0  0  0  0  0  0  0
   52.0504    9.3070   20.2301 C   0  0  0  0  0  0  0  0  0  0  0  0
   54.1271   10.0634   21.4355 N   0  0  0  0  0  0  0  0  0  0  0  0
   49.7606   11.4190   21.2671 C   0  0  0  0  0  0  0  0  0  0  0  0
   50.1136    6.5467   20.6873 C   0  0  0  0  0  0  0  0  0  0  0  0
   53.5632    9.1486   20.4290 C   0  0  0  0  0  0  0  0  0  0  0  0
   47.0398   11.5505   20.9738 C   0  0  0  0  0  0  0  0  0  0  0  0
   47.6955    5.8094   21.7694 C   0  0  0  0  0  0  0  0  0  0  0  0
   55.4685    9.6170   21.8247 C   0  0  0  0  0  0  0  0  0  0  0  0
   54.1983   11.4402   20.9358 C   0  0  0  0  0  0  0  0  0  0  0  0
   49.7245    5.2019   20.6710 C   0  0  0  0  0  0  0  0  0  0  0  0
   49.1331   12.6648   21.1309 C   0  0  0  0  0  0  0  0  0  0  0  0
   48.5126    4.8302   21.2225 C   0  0  0  0  0  0  0  0  0  0  0  0
   47.7659   12.7308   20.9662 C   0  0  0  0  0  0  0  0  0  0  0  0
   46.8761    6.7972   20.4558 H   0  0  0  0  0  0  0  0  0  0  0  0
   46.3596    8.1483   21.4655 H   0  0  0  0  0  0  0  0  0  0  0  0
   46.8247    8.6279   19.0097 H   0  0  0  0  0  0  0  0  0  0  0  0
   48.5302    8.3221   19.2769 H   0  0  0  0  0  0  0  0  0  0  0  0
   51.6615    9.8910   22.3326 H   0  0  0  0  0  0  0  0  0  0  0  0
   51.2338   10.7692   20.8894 H   0  0  0  0  0  0  0  0  0  0  0  0
   51.2543    8.5584   19.5976 H   0  0  0  0  0  0  0  0  0  0  0  0
   52.1176    7.8571   20.9493 H   0  0  0  0  0  0  0  0  0  0  0  0
   49.7091   11.9339   22.3519 H   0  0  0  0  0  0  0  0  0  0  0  0
   51.2719    8.1369   23.4007 H   0  0  0  0  0  0  0  0  0  0  0  0
   53.0776   10.3755   19.4575 H   0  0  0  0  0  0  0  0  0  0  0  0
   53.4089    8.7319   18.9584 H   0  0  0  0  0  0  0  0  0  0  0  0
   46.0570   10.8306   19.2011 H   0  0  0  0  0  0  0  0  0  0  0  0
   47.1395    5.6232   22.4784 H   0  0  0  0  0  0  0  0  0  0  0  0
   55.6284    8.3855   19.2396 H   0  0  0  0  0  0  0  0  0  0  0  0
   55.7280   10.1607   19.3035 H   0  0  0  0  0  0  0  0  0  0  0  0
   56.5097    9.1556   20.5455 H   0  0  0  0  0  0  0  0  0  0  0  0
   53.6817   10.3404   22.4105 H   0  0  0  0  0  0  0  0  0  0  0  0
   55.4130   10.3307   22.2476 H   0  0  0  0  0  0  0  0  0  0  0  0
   54.4479   11.3598   21.1720 H   0  0  0  0  0  0  0  0  0  0  0  0
   50.8338    6.0651   24.5710 H   0  0  0  0  0  0  0  0  0  0  0  0
   48.1317   13.6811   21.6353 H   0  0  0  0  0  0  0  0  0  0  0  0
   48.7488    4.7910   24.1371 H   0  0  0  0  0  0  0  0  0  0  0  0
   46.2996   13.1325   20.0533 H   0  0  0  0  0  0  0  0  0  0  0  0
   49.1788   10.3009   22.9054 H   0  0  0  0  0  0  0  0  0  0  0  0
   48.8701   10.9974   21.3894 H   0  0  0  0  0  0  0  0  0  0  0  0
   54.8385   10.8926   21.5657 H   0  0  0  0  0  0  0  0  0  0  0  0
   47.7155    5.5644   19.5809 H   0  0  0  0  0  0  0  0  0  0  0  0
   51.9538    8.1941   23.8175 H   0  0  0  0  0  0  0  0  0  0  0  0
   49.4950    9.4735   18.1712 H   0  0  0  0  0  0  0  0  0  0  0  0
   55.8587    8.5221   23.6947 H   0  0  0  0  0  0  0  0  0  0  0  0
   49.0719    7.9432   16.1529 H   0  0  0  0  0  0  0  0  0  0  0  0
   49.6800   12.2939   20.0770 H   0  0  0  0  0  0  0  0  0  0  0  0
   48.6075    8.7408   24.0440 H   0  0  0  0  0  0  0  0  0  0  0  0
   54.6022   12.6955   20.0082 H   0  0  0  0  0  0  0  0  0  0  0  0
   47.0979    4.6568   21.7113 H   0  0  0  0  0  0  0  0  0  0  0  0
   47.6758    6.8945   25.3067 H   0  0  0  0  0  0  0  0  0  0  0  0
   50.7422   13.9827   18.7018 H   0  0  0  0  0  0  0  0  0  0  0  0
   46.9132    4.8332   24.1548 H   0  0  0  0  0  0  0  0  0  0  0  0
   53.2136   14.1975   18.6493 H   0  0  0  0  0  0  0  0  0  0  0  0
   47.5210    8.6609   23.2148 H   0  0  0  0  0  0  0  0  0  0  0  0
   46.1995    7.6396   22.6758 H   0  0  0  0  0  0  0  0  0  0  0  0
   45.7095    9.4889   21.4614 H   0  0  0  0  0  0  0  0  0  0  0  0
   46.6428    8.6337   20.2420 H   0  0  0  0  0  0  0  0  0  0  0  0
   51.6424    8.0968   21.9850 H   0  0  0  0  0  0  0  0  0  0  0  0
   51.4864    9.7649   22.3017 H   0  0  0  0  0  0  0  0  0  0  0  0
   51.7398    8.6192   19.4356 H   0  0  0  0  0  0  0  0  0  0  0  0
   51.8233   10.3006   19.8323 H   0  0  0  0  0  0  0  0  0  0  0  0
   50.8363   11.4740   21.3851 H   0  0  0  0  0  0  0  0  0  0  0  0
   51.0680    6.7657   20.2226 H   0  0  0  0  0  0  0  0  0  0  0  0
   54.0730    9.2718   19.4646 H   0  0  0  0  0  0  0  0  0  0  0  0
   53.7393    8.1094   20.7391 H   0  0  0  0  0  0  0  0  0  0  0  0
   45.9581   11.6132   20.8667 H   0  0  0  0  0  0  0  0  0  0  0  0
   46.7341    5.5115   22.1844 H   0  0  0  0  0  0  0  0  0  0  0  0
   56.1594    9.5934   20.9745 H   0  0  0  0  0  0  0  0  0  0  0  0
   55.8870   10.2771   22.5933 H   0  0  0  0  0  0  0  0  0  0  0  0
   55.4271    8.6145   22.2663 H   0  0  0  0  0  0  0  0  0  0  0  0
   54.6240   12.1019   21.6991 H   0  0  0  0  0  0  0  0  0  0  0  0
   54.8129   11.5200   20.0319 H   0  0  0  0  0  0  0  0  0  0  0  0
   53.2032   11.8352   20.7130 H   0  0  0  0  0  0  0  0  0  0  0  0
   50.3742    4.4544   20.2231 H   0  0  0  0  0  0  0  0  0  0  0  0
   49.7273   13.5744   21.1463 H   0  0  0  0  0  0  0  0  0  0  0  0
   48.1989    3.7906   21.2170 H   0  0  0  0  0  0  0  0  0  0  0  0
   47.2661   13.6870   20.8490 H   0  0  0  0  0  0  0  0  0  0  0  0
  2  1  1  0
  3  1  1  0
  4  2  2  0
  5  3  2  0
  6  4  1  0
  7  5  1  0
  8  1  1  0
  9  8  1  0
 10 13  1  0
 11  3  1  0
 12  2  1  0
 13  9  1  0
 14  5  1  0
 15  4  1  0
 16 10  1  0
 17 10  1  0
 18 12  2  0
 19 11  2  0
 20 15  2  0
 21 14  2  0
  6  7  1  0
 18 20  1  0
 19 21  1  0
 23 27  2  0
 24 28  1  0
 25 26  1  0
 26 22  2  0
 27 24  1  0
 28 25  1  0
 29 22  1  0
 30 23  1  0
 31 22  1  0
 32 23  1  0
 33 24  2  0
 34 35  1  0
 35 29  2  0
 36 33  1  0
 37 31  2  0
 38 32  2  0
 39 26  1  0
 40 27  1  0
 41 31  1  0
 42 32  1  0
 43 34  1  0
 44 33  1  0
 45 35  1  0
 46 36  1  0
 47 44  2  0
 48 43  2  0
 49 47  1  0
 50 45  2  0
 25 34  2  0
 48 50  1  0
 30 36  2  0
 46 49  2  0
 52 51  1  0
 53 51  1  0
 54 52  2  0
 55 53  2  0
 56 54  1  0
 57 55  1  0
 58 51  1  0
 59 58  1  0
 60 63  1  0
 61 53  1  0
 62 52  1  0
 63 59  1  0
 64 55  1  0
 65 54  1  0
 66 60  1  0
 67 60  1  0
 68 62  2  0
 69 61  2  0
 70 65  2  0
 71 64  2  0
 56 57  1  0
 68 70  1  0
 69 71  1  0
  6 72  1  0
  6 73  1  0
  7 74  1  0
  7 75  1  0
  8 76  1  0
  8 77  1  0
  9 78  1  0
  9 79  1  0
 11 80  1  0
 12 81  1  0
 13 82  1  0
 13 83  1  0
 14 84  1  0
 15 85  1  0
 16 86  1  0
 16 87  1  0
 16 88  1  0
 17 89  1  0
 17 90  1  0
 17 91  1  0
 18 92  1  0
 19 93  1  0
 20 94  1  0
 21 95  1  0
 28 96  1  0
 28 97  1  0
 29 98  1  0
 30 99  1  0
 39100  1  0
 40101  1  0
 41102  1  0
 42103  1  0
 43104  1  0
 44105  1  0
 45106  1  0
 46107  1  0
 47108  1  0
 48109  1  0
 49110  1  0
 50111  1  0
 56112  1  0
 56113  1  0
 57114  1  0
 57115  1  0
 58116  1  0
 58117  1  0
 59118  1  0
 59119  1  0
 61120  1  0
 62121  1  0
 63122  1  0
 63123  1  0
 64124  1  0
 65125  1  0
 66126  1  0
 66127  1  0
 66128  1  0
 67129  1  0
 67130  1  0
 67131  1  0
 68132  1  0
 69133  1  0
 70134  1  0
 71135  1  0
M  END
> <Uni-Dock RESULT> 
ENERGY=   -6.785  LOWER_BOUND=    2.745  UPPER_BOUND=    5.649
INTER + INTRA:          -6.785
INTER:                  -6.785
INTRA:                   0.000
UNBOUND:                 0.000

$$$$
