
     RDKit          3D

135142  0  0  0  0  0  0  0  0999 V2000
   51.6125    5.7084   19.4043 N   0  0  0  0  0  0  0  0  0  0  0  0
   51.6079    5.6209   20.8363 C   0  0  0  0  0  0  0  0  0  0  0  0
   50.5966    6.1432   18.4881 C   0  0  0  0  0  0  0  0  0  0  0  0
   50.8794    6.4909   21.6678 C   0  0  0  0  0  0  0  0  0  0  0  0
   49.3043    6.5749   18.8734 C   0  0  0  0  0  0  0  0  0  0  0  0
   49.9398    7.5133   21.1035 C   0  0  0  0  0  0  0  0  0  0  0  0
   48.8741    6.7886   20.3010 C   0  0  0  0  0  0  0  0  0  0  0  0
   52.9840    5.5253   18.8425 C   0  0  0  0  0  0  0  0  0  0  0  0
   53.1949    4.1392   18.2062 C   0  0  0  0  0  0  0  0  0  0  0  0
   54.8828    2.7813   16.9253 N   0  0  0  0  0  0  0  0  0  0  0  0
   50.8190    6.1168   17.0854 C   0  0  0  0  0  0  0  0  0  0  0  0
   52.3772    4.6342   21.4994 C   0  0  0  0  0  0  0  0  0  0  0  0
   54.6479    3.9900   17.7343 C   0  0  0  0  0  0  0  0  0  0  0  0
   48.3143    6.8755   17.8999 C   0  0  0  0  0  0  0  0  0  0  0  0
   50.9807    6.4057   23.0755 C   0  0  0  0  0  0  0  0  0  0  0  0
   56.2441    2.7986   16.3820 C   0  0  0  0  0  0  0  0  0  0  0  0
   54.6686    1.5486   17.6853 C   0  0  0  0  0  0  0  0  0  0  0  0
   52.4651    4.5435   22.8931 C   0  0  0  0  0  0  0  0  0  0  0  0
   49.8427    6.4407   16.1322 C   0  0  0  0  0  0  0  0  0  0  0  0
   51.7737    5.4421   23.6844 C   0  0  0  0  0  0  0  0  0  0  0  0
   48.5789    6.8079   16.5416 C   0  0  0  0  0  0  0  0  0  0  0  0
   50.2016    6.0428   21.2120 C   0  0  0  0  0  0  0  0  0  0  0  0
   55.6183    4.0461   18.9947 C   0  0  0  0  0  0  0  0  0  0  0  0
   53.3801    4.7400   18.2874 C   0  0  0  0  0  0  0  0  0  0  0  0
   51.2754    6.1893   19.0079 C   0  0  0  0  0  0  0  0  0  0  0  0
   51.2583    5.7213   20.3419 C   0  0  0  0  0  0  0  0  0  0  0  0
   54.6885    5.0559   18.7156 C   0  0  0  0  0  0  0  0  0  0  0  0
   52.3980    5.8715   18.0138 C   0  0  0  0  0  0  0  0  0  0  0  0
   49.1597    6.8593   20.7609 C   0  0  0  0  0  0  0  0  0  0  0  0
   55.2451    2.7084   18.8290 C   0  0  0  0  0  0  0  0  0  0  0  0
   50.1035    5.5814   22.6222 C   0  0  0  0  0  0  0  0  0  0  0  0
   57.0048    4.2944   19.4627 C   0  0  0  0  0  0  0  0  0  0  0  0
   53.0015    3.3700   18.1272 C   0  0  0  0  0  0  0  0  0  0  0  0
   50.2135    7.0565   18.5691 C   0  0  0  0  0  0  0  0  0  0  0  0
   49.1565    7.3724   19.4618 C   0  0  0  0  0  0  0  0  0  0  0  0
   53.9574    2.3595   18.4011 C   0  0  0  0  0  0  0  0  0  0  0  0
   49.2368    5.8915   23.4202 O   0  0  0  0  0  0  0  0  0  0  0  0
   57.8547    3.4478   19.6723 O   0  0  0  0  0  0  0  0  0  0  0  0
   52.3086    4.9551   20.7792 O   0  0  0  0  0  0  0  0  0  0  0  0
   55.0078    6.3866   18.8418 O   0  0  0  0  0  0  0  0  0  0  0  0
   51.0919    4.7350   22.9807 O   0  0  0  0  0  0  0  0  0  0  0  0
   57.2774    5.6033   19.6543 O   0  0  0  0  0  0  0  0  0  0  0  0
   50.1471    7.6458   17.2811 C   0  0  0  0  0  0  0  0  0  0  0  0
   51.7158    2.9465   17.7127 C   0  0  0  0  0  0  0  0  0  0  0  0
   48.1041    8.2131   19.0601 C   0  0  0  0  0  0  0  0  0  0  0  0
   53.6197    1.0043   18.2487 C   0  0  0  0  0  0  0  0  0  0  0  0
   51.3926    1.5946   17.5680 C   0  0  0  0  0  0  0  0  0  0  0  0
   49.0969    8.4859   16.8946 C   0  0  0  0  0  0  0  0  0  0  0  0
   52.3464    0.6228   17.8321 C   0  0  0  0  0  0  0  0  0  0  0  0
   48.0718    8.7670   17.7842 C   0  0  0  0  0  0  0  0  0  0  0  0
   51.4448    5.9669   18.7898 N   0  0  0  0  0  0  0  0  0  0  0  0
   51.8607    6.7453   19.8960 C   0  0  0  0  0  0  0  0  0  0  0  0
   50.1178    5.6260   18.4381 C   0  0  0  0  0  0  0  0  0  0  0  0
   51.1864    6.7768   21.1375 C   0  0  0  0  0  0  0  0  0  0  0  0
   49.2656    4.9714   19.3383 C   0  0  0  0  0  0  0  0  0  0  0  0
   49.9731    5.9459   21.5023 C   0  0  0  0  0  0  0  0  0  0  0  0
   49.7537    4.6563   20.7227 C   0  0  0  0  0  0  0  0  0  0  0  0
   52.4642    5.4131   17.8681 C   0  0  0  0  0  0  0  0  0  0  0  0
   53.4287    4.4612   18.5939 C   0  0  0  0  0  0  0  0  0  0  0  0
   55.4447    3.0013   18.2295 N   0  0  0  0  0  0  0  0  0  0  0  0
   49.6197    5.9375   17.1588 C   0  0  0  0  0  0  0  0  0  0  0  0
   52.9928    7.5854   19.7648 C   0  0  0  0  0  0  0  0  0  0  0  0
   54.3762    3.7899   17.5910 C   0  0  0  0  0  0  0  0  0  0  0  0
   47.9595    4.6235   18.9510 C   0  0  0  0  0  0  0  0  0  0  0  0
   51.6436    7.6400   22.1629 C   0  0  0  0  0  0  0  0  0  0  0  0
   54.9200    1.8498   18.9672 C   0  0  0  0  0  0  0  0  0  0  0  0
   56.3997    2.5463   17.2152 C   0  0  0  0  0  0  0  0  0  0  0  0
   53.4433    8.4175   20.7927 C   0  0  0  0  0  0  0  0  0  0  0  0
   48.3181    5.5989   16.7799 C   0  0  0  0  0  0  0  0  0  0  0  0
   52.7631    8.4479   21.9964 C   0  0  0  0  0  0  0  0  0  0  0  0
   47.4893    4.9370   17.6785 C   0  0  0  0  0  0  0  0  0  0  0  0
   50.4902    8.2594   20.5163 H   0  0  0  0  0  0  0  0  0  0  0  0
   49.4506    8.0608   21.9169 H   0  0  0  0  0  0  0  0  0  0  0  0
   48.5825    5.8276   20.7437 H   0  0  0  0  0  0  0  0  0  0  0  0
   47.9768    7.4210   20.3186 H   0  0  0  0  0  0  0  0  0  0  0  0
   53.2133    6.3236   18.1235 H   0  0  0  0  0  0  0  0  0  0  0  0
   53.7497    5.6845   19.6150 H   0  0  0  0  0  0  0  0  0  0  0  0
   52.9493    3.3507   18.9220 H   0  0  0  0  0  0  0  0  0  0  0  0
   52.5208    3.9838   17.3591 H   0  0  0  0  0  0  0  0  0  0  0  0
   51.7738    5.8286   16.6613 H   0  0  0  0  0  0  0  0  0  0  0  0
   52.9268    3.8877   20.9385 H   0  0  0  0  0  0  0  0  0  0  0  0
   55.3228    4.0131   18.6010 H   0  0  0  0  0  0  0  0  0  0  0  0
   54.8880    4.8672   17.1183 H   0  0  0  0  0  0  0  0  0  0  0  0
   47.3181    7.1840   18.2145 H   0  0  0  0  0  0  0  0  0  0  0  0
   50.4209    7.0937   23.7056 H   0  0  0  0  0  0  0  0  0  0  0  0
   56.3995    3.6873   15.7593 H   0  0  0  0  0  0  0  0  0  0  0  0
   57.0037    2.7925   17.1727 H   0  0  0  0  0  0  0  0  0  0  0  0
   56.4117    1.9312   15.7331 H   0  0  0  0  0  0  0  0  0  0  0  0
   54.8983    0.6717   17.0691 H   0  0  0  0  0  0  0  0  0  0  0  0
   53.6204    1.4406   17.9790 H   0  0  0  0  0  0  0  0  0  0  0  0
   55.2911    1.5057   18.5869 H   0  0  0  0  0  0  0  0  0  0  0  0
   53.0730    3.7681   23.3498 H   0  0  0  0  0  0  0  0  0  0  0  0
   50.0823    6.3867   15.0735 H   0  0  0  0  0  0  0  0  0  0  0  0
   51.8342    5.3854   24.7672 H   0  0  0  0  0  0  0  0  0  0  0  0
   47.8096    7.0505   15.8166 H   0  0  0  0  0  0  0  0  0  0  0  0
   51.9479    5.6300   17.0406 H   0  0  0  0  0  0  0  0  0  0  0  0
   52.9435    6.8077   17.8384 H   0  0  0  0  0  0  0  0  0  0  0  0
   48.3464    7.1084   21.4425 H   0  0  0  0  0  0  0  0  0  0  0  0
   55.9715    1.9245   19.0406 H   0  0  0  0  0  0  0  0  0  0  0  0
   52.1289    4.6650   21.6952 H   0  0  0  0  0  0  0  0  0  0  0  0
   55.8915    6.4444   19.2583 H   0  0  0  0  0  0  0  0  0  0  0  0
   50.8688    4.5208   23.9150 H   0  0  0  0  0  0  0  0  0  0  0  0
   58.2162    5.5878   19.9443 H   0  0  0  0  0  0  0  0  0  0  0  0
   50.9297    7.4760   16.5458 H   0  0  0  0  0  0  0  0  0  0  0  0
   50.9334    3.6704   17.5036 H   0  0  0  0  0  0  0  0  0  0  0  0
   47.2955    8.4526   19.7493 H   0  0  0  0  0  0  0  0  0  0  0  0
   54.3538    0.2266   18.4549 H   0  0  0  0  0  0  0  0  0  0  0  0
   50.3943    1.3062   17.2483 H   0  0  0  0  0  0  0  0  0  0  0  0
   49.0870    8.9191   15.8970 H   0  0  0  0  0  0  0  0  0  0  0  0
   52.1010   -0.4305   17.7213 H   0  0  0  0  0  0  0  0  0  0  0  0
   47.2532    9.4186   17.4904 H   0  0  0  0  0  0  0  0  0  0  0  0
   49.0844    6.5893   21.4328 H   0  0  0  0  0  0  0  0  0  0  0  0
   50.0692    5.6556   22.5581 H   0  0  0  0  0  0  0  0  0  0  0  0
   50.6643    4.0475   20.6757 H   0  0  0  0  0  0  0  0  0  0  0  0
   49.0063    4.0479   21.2468 H   0  0  0  0  0  0  0  0  0  0  0  0
   53.0067    6.2171   17.3577 H   0  0  0  0  0  0  0  0  0  0  0  0
   51.9931    4.8336   17.0612 H   0  0  0  0  0  0  0  0  0  0  0  0
   52.8446    3.7079   19.1338 H   0  0  0  0  0  0  0  0  0  0  0  0
   54.0180    5.0059   19.3404 H   0  0  0  0  0  0  0  0  0  0  0  0
   50.2463    6.4780   16.4532 H   0  0  0  0  0  0  0  0  0  0  0  0
   53.5392    7.6352   18.8280 H   0  0  0  0  0  0  0  0  0  0  0  0
   53.7974    3.1652   16.8993 H   0  0  0  0  0  0  0  0  0  0  0  0
   54.8409    4.5822   16.9925 H   0  0  0  0  0  0  0  0  0  0  0  0
   47.2977    4.1162   19.6494 H   0  0  0  0  0  0  0  0  0  0  0  0
   51.1168    7.6782   23.1154 H   0  0  0  0  0  0  0  0  0  0  0  0
   54.3217    2.1684   19.8312 H   0  0  0  0  0  0  0  0  0  0  0  0
   54.3044    1.1998   18.3320 H   0  0  0  0  0  0  0  0  0  0  0  0
   55.7436    1.2490   19.3772 H   0  0  0  0  0  0  0  0  0  0  0  0
   57.2023    1.9529   17.6668 H   0  0  0  0  0  0  0  0  0  0  0  0
   55.9154    1.9390   16.4384 H   0  0  0  0  0  0  0  0  0  0  0  0
   56.8808    3.4071   16.7306 H   0  0  0  0  0  0  0  0  0  0  0  0
   54.3156    9.0470   20.6406 H   0  0  0  0  0  0  0  0  0  0  0  0
   47.9513    5.8655   15.7942 H   0  0  0  0  0  0  0  0  0  0  0  0
   53.0971    9.0961   22.8023 H   0  0  0  0  0  0  0  0  0  0  0  0
   46.4739    4.6726   17.3907 H   0  0  0  0  0  0  0  0  0  0  0  0
  2  1  1  0
  3  1  1  0
  4  2  2  0
  5  3  2  0
  6  4  1  0
  7  5  1  0
  8  1  1  0
  9  8  1  0
 10 13  1  0
 11  3  1  0
 12  2  1  0
 13  9  1  0
 14  5  1  0
 15  4  1  0
 16 10  1  0
 17 10  1  0
 18 12  2  0
 19 11  2  0
 20 15  2  0
 21 14  2  0
  6  7  1  0
 18 20  1  0
 19 21  1  0
 23 27  2  0
 24 28  1  0
 25 26  1  0
 26 22  2  0
 27 24  1  0
 28 25  1  0
 29 22  1  0
 30 23  1  0
 31 22  1  0
 32 23  1  0
 33 24  2  0
 34 35  1  0
 35 29  2  0
 36 33  1  0
 37 31  2  0
 38 32  2  0
 39 26  1  0
 40 27  1  0
 41 31  1  0
 42 32  1  0
 43 34  1  0
 44 33  1  0
 45 35  1  0
 46 36  1  0
 47 44  2  0
 48 43  2  0
 49 47  1  0
 50 45  2  0
 25 34  2  0
 48 50  1  0
 30 36  2  0
 46 49  2  0
 52 51  1  0
 53 51  1  0
 54 52  2  0
 55 53  2  0
 56 54  1  0
 57 55  1  0
 58 51  1  0
 59 58  1  0
 60 63  1  0
 61 53  1  0
 62 52  1  0
 63 59  1  0
 64 55  1  0
 65 54  1  0
 66 60  1  0
 67 60  1  0
 68 62  2  0
 69 61  2  0
 70 65  2  0
 71 64  2  0
 56 57  1  0
 68 70  1  0
 69 71  1  0
  6 72  1  0
  6 73  1  0
  7 74  1  0
  7 75  1  0
  8 76  1  0
  8 77  1  0
  9 78  1  0
  9 79  1  0
 11 80  1  0
 12 81  1  0
 13 82  1  0
 13 83  1  0
 14 84  1  0
 15 85  1  0
 16 86  1  0
 16 87  1  0
 16 88  1  0
 17 89  1  0
 17 90  1  0
 17 91  1  0
 18 92  1  0
 19 93  1  0
 20 94  1  0
 21 95  1  0
 28 96  1  0
 28 97  1  0
 29 98  1  0
 30 99  1  0
 39100  1  0
 40101  1  0
 41102  1  0
 42103  1  0
 43104  1  0
 44105  1  0
 45106  1  0
 46107  1  0
 47108  1  0
 48109  1  0
 49110  1  0
 50111  1  0
 56112  1  0
 56113  1  0
 57114  1  0
 57115  1  0
 58116  1  0
 58117  1  0
 59118  1  0
 59119  1  0
 61120  1  0
 62121  1  0
 63122  1  0
 63123  1  0
 64124  1  0
 65125  1  0
 66126  1  0
 66127  1  0
 66128  1  0
 67129  1  0
 67130  1  0
 67131  1  0
 68132  1  0
 69133  1  0
 70134  1  0
 71135  1  0
M  END
> <Uni-Dock RESULT> 
ENERGY=   -6.656  LOWER_BOUND=    0.000  UPPER_BOUND=    0.000
INTER + INTRA:          -6.656
INTER:                  -6.656
INTRA:                   0.000
UNBOUND:                 0.000

$$$$

     RDKit          3D

135142  0  0  0  0  0  0  0  0999 V2000
   49.9162    9.3931   15.8306 N   0  0  0  0  0  0  0  0  0  0  0  0
   51.3045    9.3385   16.1884 C   0  0  0  0  0  0  0  0  0  0  0  0
   49.2709    9.2656   14.5547 C   0  0  0  0  0  0  0  0  0  0  0  0
   52.2548    8.5570   15.5064 C   0  0  0  0  0  0  0  0  0  0  0  0
   49.9534    9.0694   13.3298 C   0  0  0  0  0  0  0  0  0  0  0  0
   51.9039    7.8069   14.2570 C   0  0  0  0  0  0  0  0  0  0  0  0
   51.4325    8.8081   13.2175 C   0  0  0  0  0  0  0  0  0  0  0  0
   49.0320    9.3485   17.0332 C   0  0  0  0  0  0  0  0  0  0  0  0
   48.4252   10.7187   17.3867 C   0  0  0  0  0  0  0  0  0  0  0  0
   46.8179   11.8251   18.9761 N   0  0  0  0  0  0  0  0  0  0  0  0
   47.8605    9.3841   14.4351 C   0  0  0  0  0  0  0  0  0  0  0  0
   51.7927   10.0785   17.2925 C   0  0  0  0  0  0  0  0  0  0  0  0
   47.6056   10.6156   18.6805 C   0  0  0  0  0  0  0  0  0  0  0  0
   49.2521    9.0730   12.0943 C   0  0  0  0  0  0  0  0  0  0  0  0
   53.5925    8.4810   15.9579 C   0  0  0  0  0  0  0  0  0  0  0  0
   45.9453   11.5854   20.1293 C   0  0  0  0  0  0  0  0  0  0  0  0
   47.6613   12.9947   19.2280 C   0  0  0  0  0  0  0  0  0  0  0  0
   53.1206   10.0120   17.7293 C   0  0  0  0  0  0  0  0  0  0  0  0
   47.1742    9.3604   13.2123 C   0  0  0  0  0  0  0  0  0  0  0  0
   54.0213    9.1991   17.0664 C   0  0  0  0  0  0  0  0  0  0  0  0
   47.8756    9.2187   12.0343 C   0  0  0  0  0  0  0  0  0  0  0  0
   52.0072    9.1758   14.8554 C   0  0  0  0  0  0  0  0  0  0  0  0
   48.5732   10.2401   19.8872 C   0  0  0  0  0  0  0  0  0  0  0  0
   48.4297   10.0877   17.4484 C   0  0  0  0  0  0  0  0  0  0  0  0
   49.5980    9.0320   15.3107 C   0  0  0  0  0  0  0  0  0  0  0  0
   50.9116    9.3602   15.7173 C   0  0  0  0  0  0  0  0  0  0  0  0
   48.4958    9.4724   18.7181 C   0  0  0  0  0  0  0  0  0  0  0  0
   48.3656    9.2115   16.2044 C   0  0  0  0  0  0  0  0  0  0  0  0
   51.8009    8.6361   13.5820 C   0  0  0  0  0  0  0  0  0  0  0  0
   48.5676   11.6355   19.7904 C   0  0  0  0  0  0  0  0  0  0  0  0
   53.4149    9.5066   15.2022 C   0  0  0  0  0  0  0  0  0  0  0  0
   48.6608    9.6709   21.2552 C   0  0  0  0  0  0  0  0  0  0  0  0
   48.4324   11.5151   17.3550 C   0  0  0  0  0  0  0  0  0  0  0  0
   49.4063    8.4456   14.0101 C   0  0  0  0  0  0  0  0  0  0  0  0
   50.5240    8.2646   13.1546 C   0  0  0  0  0  0  0  0  0  0  0  0
   48.4981   12.2787   18.5477 C   0  0  0  0  0  0  0  0  0  0  0  0
   54.3928    9.3019   14.5052 O   0  0  0  0  0  0  0  0  0  0  0  0
   48.6841   10.3027   22.2960 O   0  0  0  0  0  0  0  0  0  0  0  0
   51.1003    9.8506   16.9843 O   0  0  0  0  0  0  0  0  0  0  0  0
   48.4772    8.0988   18.7561 O   0  0  0  0  0  0  0  0  0  0  0  0
   53.5467   10.0955   16.4096 O   0  0  0  0  0  0  0  0  0  0  0  0
   48.7183    8.3216   21.2695 O   0  0  0  0  0  0  0  0  0  0  0  0
   48.1530    8.0116   13.5087 C   0  0  0  0  0  0  0  0  0  0  0  0
   48.3785   12.2292   16.1338 C   0  0  0  0  0  0  0  0  0  0  0  0
   50.3670    7.6985   11.8776 C   0  0  0  0  0  0  0  0  0  0  0  0
   48.4971   13.6825   18.4915 C   0  0  0  0  0  0  0  0  0  0  0  0
   48.3811   13.6261   16.0924 C   0  0  0  0  0  0  0  0  0  0  0  0
   48.0100    7.4442   12.2376 C   0  0  0  0  0  0  0  0  0  0  0  0
   48.4362   14.3535   17.2722 C   0  0  0  0  0  0  0  0  0  0  0  0
   49.1181    7.2909   11.4192 C   0  0  0  0  0  0  0  0  0  0  0  0
   49.3540    9.2357   15.4678 N   0  0  0  0  0  0  0  0  0  0  0  0
   50.2819    8.2842   15.9538 C   0  0  0  0  0  0  0  0  0  0  0  0
   49.3677    9.8716   14.2044 C   0  0  0  0  0  0  0  0  0  0  0  0
   51.6516    8.2683   15.6064 C   0  0  0  0  0  0  0  0  0  0  0  0
   50.4835   10.5937   13.7588 C   0  0  0  0  0  0  0  0  0  0  0  0
   52.3502    9.2881   14.7303 C   0  0  0  0  0  0  0  0  0  0  0  0
   51.7103   10.6656   14.6214 C   0  0  0  0  0  0  0  0  0  0  0  0
   48.2283    9.6590   16.3334 C   0  0  0  0  0  0  0  0  0  0  0  0
   48.7257   10.3194   17.6294 C   0  0  0  0  0  0  0  0  0  0  0  0
   47.9247   11.3685   19.7709 N   0  0  0  0  0  0  0  0  0  0  0  0
   48.2450    9.7949   13.3584 C   0  0  0  0  0  0  0  0  0  0  0  0
   49.8293    7.2489   16.8070 C   0  0  0  0  0  0  0  0  0  0  0  0
   47.5453   10.8797   18.4335 C   0  0  0  0  0  0  0  0  0  0  0  0
   50.4577   11.2358   12.5082 C   0  0  0  0  0  0  0  0  0  0  0  0
   52.4872    7.2337   16.0933 C   0  0  0  0  0  0  0  0  0  0  0  0
   48.8221   12.5243   19.7059 C   0  0  0  0  0  0  0  0  0  0  0  0
   46.7216   11.7177   20.5315 C   0  0  0  0  0  0  0  0  0  0  0  0
   50.6704    6.2458   17.2950 C   0  0  0  0  0  0  0  0  0  0  0  0
   48.2259   10.4261   12.1119 C   0  0  0  0  0  0  0  0  0  0  0  0
   52.0052    6.2359   16.9334 C   0  0  0  0  0  0  0  0  0  0  0  0
   49.3346   11.1508   11.6898 C   0  0  0  0  0  0  0  0  0  0  0  0
   51.1632    7.0261   14.4719 H   0  0  0  0  0  0  0  0  0  0  0  0
   52.7900    7.2929   13.8681 H   0  0  0  0  0  0  0  0  0  0  0  0
   51.9772    9.7600   13.2601 H   0  0  0  0  0  0  0  0  0  0  0  0
   51.6502    8.3723   12.2336 H   0  0  0  0  0  0  0  0  0  0  0  0
   48.2437    8.5949   16.9016 H   0  0  0  0  0  0  0  0  0  0  0  0
   49.5760    8.9621   17.9069 H   0  0  0  0  0  0  0  0  0  0  0  0
   49.2142   11.4663   17.5001 H   0  0  0  0  0  0  0  0  0  0  0  0
   47.7857   11.0901   16.5810 H   0  0  0  0  0  0  0  0  0  0  0  0
   47.2202    9.5129   15.3000 H   0  0  0  0  0  0  0  0  0  0  0  0
   51.1439   10.7494   17.8428 H   0  0  0  0  0  0  0  0  0  0  0  0
   48.2697   10.3710   19.5209 H   0  0  0  0  0  0  0  0  0  0  0  0
   46.9104    9.7728   18.5662 H   0  0  0  0  0  0  0  0  0  0  0  0
   49.7962    8.9437   11.1596 H   0  0  0  0  0  0  0  0  0  0  0  0
   54.3133    7.8624   15.4274 H   0  0  0  0  0  0  0  0  0  0  0  0
   45.2647   10.7493   19.9307 H   0  0  0  0  0  0  0  0  0  0  0  0
   46.5157   11.3595   21.0380 H   0  0  0  0  0  0  0  0  0  0  0  0
   45.3143   12.4603   20.3241 H   0  0  0  0  0  0  0  0  0  0  0  0
   47.0465   13.8630   19.4915 H   0  0  0  0  0  0  0  0  0  0  0  0
   48.2170   13.2838   18.3312 H   0  0  0  0  0  0  0  0  0  0  0  0
   48.3754   12.8217   20.0418 H   0  0  0  0  0  0  0  0  0  0  0  0
   53.4412   10.5992   18.5846 H   0  0  0  0  0  0  0  0  0  0  0  0
   46.0930    9.4685   13.1973 H   0  0  0  0  0  0  0  0  0  0  0  0
   55.0543    9.1356   17.3952 H   0  0  0  0  0  0  0  0  0  0  0  0
   47.3606    9.2098   11.0798 H   0  0  0  0  0  0  0  0  0  0  0  0
   47.5510    9.6338   15.5993 H   0  0  0  0  0  0  0  0  0  0  0  0
   48.0156    8.2060   16.4712 H   0  0  0  0  0  0  0  0  0  0  0  0
   52.6555    8.4913   12.9211 H   0  0  0  0  0  0  0  0  0  0  0  0
   48.6216   12.2309   20.7011 H   0  0  0  0  0  0  0  0  0  0  0  0
   52.0438   10.0797   17.0978 H   0  0  0  0  0  0  0  0  0  0  0  0
   48.6517    7.8222   19.6785 H   0  0  0  0  0  0  0  0  0  0  0  0
   54.5156   10.2575   16.4697 H   0  0  0  0  0  0  0  0  0  0  0  0
   48.7597    8.1177   22.2299 H   0  0  0  0  0  0  0  0  0  0  0  0
   47.2507    8.0906   14.1102 H   0  0  0  0  0  0  0  0  0  0  0  0
   48.3438   11.7033   15.1841 H   0  0  0  0  0  0  0  0  0  0  0  0
   51.2282    7.5615   11.2251 H   0  0  0  0  0  0  0  0  0  0  0  0
   48.5436   14.2710   19.4067 H   0  0  0  0  0  0  0  0  0  0  0  0
   48.3396   14.1410   15.1359 H   0  0  0  0  0  0  0  0  0  0  0  0
   47.0297    7.1222   11.8938 H   0  0  0  0  0  0  0  0  0  0  0  0
   48.4385   15.4403   17.2465 H   0  0  0  0  0  0  0  0  0  0  0  0
   49.0142    6.8510   10.4309 H   0  0  0  0  0  0  0  0  0  0  0  0
   52.4810    8.8483   13.7312 H   0  0  0  0  0  0  0  0  0  0  0  0
   53.3584    9.4476   15.1381 H   0  0  0  0  0  0  0  0  0  0  0  0
   51.4598   11.0786   15.6056 H   0  0  0  0  0  0  0  0  0  0  0  0
   52.4340   11.3584   14.1747 H   0  0  0  0  0  0  0  0  0  0  0  0
   47.5614    8.8158   16.5464 H   0  0  0  0  0  0  0  0  0  0  0  0
   47.5947   10.3985   15.8229 H   0  0  0  0  0  0  0  0  0  0  0  0
   49.4296   11.1187   17.3729 H   0  0  0  0  0  0  0  0  0  0  0  0
   49.2725    9.5957   18.2448 H   0  0  0  0  0  0  0  0  0  0  0  0
   47.3798    9.2106   13.6625 H   0  0  0  0  0  0  0  0  0  0  0  0
   48.7829    7.1816   17.0883 H   0  0  0  0  0  0  0  0  0  0  0  0
   47.0524   11.6738   17.8589 H   0  0  0  0  0  0  0  0  0  0  0  0
   46.8135   10.0724   18.5544 H   0  0  0  0  0  0  0  0  0  0  0  0
   51.3236   11.7955   12.1618 H   0  0  0  0  0  0  0  0  0  0  0  0
   53.5399    7.2097   15.8148 H   0  0  0  0  0  0  0  0  0  0  0  0
   49.7950   12.2504   19.2766 H   0  0  0  0  0  0  0  0  0  0  0  0
   48.3943   13.3449   19.1155 H   0  0  0  0  0  0  0  0  0  0  0  0
   49.0349   12.9023   20.7155 H   0  0  0  0  0  0  0  0  0  0  0  0
   46.9796   12.0887   21.5296 H   0  0  0  0  0  0  0  0  0  0  0  0
   46.1217   12.4840   20.0220 H   0  0  0  0  0  0  0  0  0  0  0  0
   46.0927   10.8292   20.6802 H   0  0  0  0  0  0  0  0  0  0  0  0
   50.2731    5.4705   17.9442 H   0  0  0  0  0  0  0  0  0  0  0  0
   47.3554   10.3377   11.4703 H   0  0  0  0  0  0  0  0  0  0  0  0
   52.6696    5.4574   17.2988 H   0  0  0  0  0  0  0  0  0  0  0  0
   49.3271   11.6427   10.7194 H   0  0  0  0  0  0  0  0  0  0  0  0
  2  1  1  0
  3  1  1  0
  4  2  2  0
  5  3  2  0
  6  4  1  0
  7  5  1  0
  8  1  1  0
  9  8  1  0
 10 13  1  0
 11  3  1  0
 12  2  1  0
 13  9  1  0
 14  5  1  0
 15  4  1  0
 16 10  1  0
 17 10  1  0
 18 12  2  0
 19 11  2  0
 20 15  2  0
 21 14  2  0
  6  7  1  0
 18 20  1  0
 19 21  1  0
 23 27  2  0
 24 28  1  0
 25 26  1  0
 26 22  2  0
 27 24  1  0
 28 25  1  0
 29 22  1  0
 30 23  1  0
 31 22  1  0
 32 23  1  0
 33 24  2  0
 34 35  1  0
 35 29  2  0
 36 33  1  0
 37 31  2  0
 38 32  2  0
 39 26  1  0
 40 27  1  0
 41 31  1  0
 42 32  1  0
 43 34  1  0
 44 33  1  0
 45 35  1  0
 46 36  1  0
 47 44  2  0
 48 43  2  0
 49 47  1  0
 50 45  2  0
 25 34  2  0
 48 50  1  0
 30 36  2  0
 46 49  2  0
 52 51  1  0
 53 51  1  0
 54 52  2  0
 55 53  2  0
 56 54  1  0
 57 55  1  0
 58 51  1  0
 59 58  1  0
 60 63  1  0
 61 53  1  0
 62 52  1  0
 63 59  1  0
 64 55  1  0
 65 54  1  0
 66 60  1  0
 67 60  1  0
 68 62  2  0
 69 61  2  0
 70 65  2  0
 71 64  2  0
 56 57  1  0
 68 70  1  0
 69 71  1  0
  6 72  1  0
  6 73  1  0
  7 74  1  0
  7 75  1  0
  8 76  1  0
  8 77  1  0
  9 78  1  0
  9 79  1  0
 11 80  1  0
 12 81  1  0
 13 82  1  0
 13 83  1  0
 14 84  1  0
 15 85  1  0
 16 86  1  0
 16 87  1  0
 16 88  1  0
 17 89  1  0
 17 90  1  0
 17 91  1  0
 18 92  1  0
 19 93  1  0
 20 94  1  0
 21 95  1  0
 28 96  1  0
 28 97  1  0
 29 98  1  0
 30 99  1  0
 39100  1  0
 40101  1  0
 41102  1  0
 42103  1  0
 43104  1  0
 44105  1  0
 45106  1  0
 46107  1  0
 47108  1  0
 48109  1  0
 49110  1  0
 50111  1  0
 56112  1  0
 56113  1  0
 57114  1  0
 57115  1  0
 58116  1  0
 58117  1  0
 59118  1  0
 59119  1  0
 61120  1  0
 62121  1  0
 63122  1  0
 63123  1  0
 64124  1  0
 65125  1  0
 66126  1  0
 66127  1  0
 66128  1  0
 67129  1  0
 67130  1  0
 67131  1  0
 68132  1  0
 69133  1  0
 70134  1  0
 71135  1  0
M  END
> <Uni-Dock RESULT> 
ENERGY=   -6.611  LOWER_BOUND=    4.092  UPPER_BOUND=    8.380
INTER + INTRA:          -6.611
INTER:                  -6.611
INTRA:                   0.000
UNBOUND:                 0.000

$$$$

     RDKit          3D

135142  0  0  0  0  0  0  0  0999 V2000
   50.2664    8.6772   15.9535 N   0  0  0  0  0  0  0  0  0  0  0  0
   49.9101    9.6402   16.9555 C   0  0  0  0  0  0  0  0  0  0  0  0
   50.0011    8.6494   14.5431 C   0  0  0  0  0  0  0  0  0  0  0  0
   49.7776   11.0173   16.7005 C   0  0  0  0  0  0  0  0  0  0  0  0
   49.2638    9.6389   13.8487 C   0  0  0  0  0  0  0  0  0  0  0  0
   49.8796   11.5723   15.3118 C   0  0  0  0  0  0  0  0  0  0  0  0
   48.7959   10.9321   14.4628 C   0  0  0  0  0  0  0  0  0  0  0  0
   51.2604    7.6871   16.4653 C   0  0  0  0  0  0  0  0  0  0  0  0
   50.6384    6.3133   16.7753 C   0  0  0  0  0  0  0  0  0  0  0  0
   51.2424    3.9832   17.5099 N   0  0  0  0  0  0  0  0  0  0  0  0
   50.4353    7.5612   13.7400 C   0  0  0  0  0  0  0  0  0  0  0  0
   49.6873    9.2368   18.2943 C   0  0  0  0  0  0  0  0  0  0  0  0
   51.6953    5.3793   17.3809 C   0  0  0  0  0  0  0  0  0  0  0  0
   48.9413    9.4793   12.4744 C   0  0  0  0  0  0  0  0  0  0  0  0
   49.5048   11.9276   17.7475 C   0  0  0  0  0  0  0  0  0  0  0  0
   52.3564    3.1327   17.9393 C   0  0  0  0  0  0  0  0  0  0  0  0
   50.1232    3.8417   18.4427 C   0  0  0  0  0  0  0  0  0  0  0  0
   49.4041   10.1384   19.3265 C   0  0  0  0  0  0  0  0  0  0  0  0
   50.1338    7.4254   12.3771 C   0  0  0  0  0  0  0  0  0  0  0  0
   49.3256   11.4915   19.0536 C   0  0  0  0  0  0  0  0  0  0  0  0
   49.3701    8.3826   11.7444 C   0  0  0  0  0  0  0  0  0  0  0  0
   49.0855   10.6568   16.1915 C   0  0  0  0  0  0  0  0  0  0  0  0
   52.1777    5.9677   18.7789 C   0  0  0  0  0  0  0  0  0  0  0  0
   51.1495    6.6741   16.6729 C   0  0  0  0  0  0  0  0  0  0  0  0
   50.4177    8.8087   15.2739 C   0  0  0  0  0  0  0  0  0  0  0  0
   49.8235    9.4736   16.3711 C   0  0  0  0  0  0  0  0  0  0  0  0
   52.2196    6.7136   17.5940 C   0  0  0  0  0  0  0  0  0  0  0  0
   51.2318    7.5168   15.4070 C   0  0  0  0  0  0  0  0  0  0  0  0
   48.9549   11.2016   14.9103 C   0  0  0  0  0  0  0  0  0  0  0  0
   51.0652    5.1612   19.0401 C   0  0  0  0  0  0  0  0  0  0  0  0
   48.4210   11.4081   17.2895 C   0  0  0  0  0  0  0  0  0  0  0  0
   53.2522    5.9667   19.8029 C   0  0  0  0  0  0  0  0  0  0  0  0
   50.0107    5.8537   16.9490 C   0  0  0  0  0  0  0  0  0  0  0  0
   50.3032    9.4003   13.9666 C   0  0  0  0  0  0  0  0  0  0  0  0
   49.5566   10.5962   13.8047 C   0  0  0  0  0  0  0  0  0  0  0  0
   49.9884    5.0945   18.1461 C   0  0  0  0  0  0  0  0  0  0  0  0
   47.8285   12.4667   17.1785 O   0  0  0  0  0  0  0  0  0  0  0  0
   53.2733    5.2994   20.8214 O   0  0  0  0  0  0  0  0  0  0  0  0
   49.9961    8.9468   17.6258 O   0  0  0  0  0  0  0  0  0  0  0  0
   53.2965    7.5066   17.2775 O   0  0  0  0  0  0  0  0  0  0  0  0
   48.5122   10.7979   18.4900 O   0  0  0  0  0  0  0  0  0  0  0  0
   54.2673    6.8089   19.5126 O   0  0  0  0  0  0  0  0  0  0  0  0
   50.9065    8.8716   12.7973 C   0  0  0  0  0  0  0  0  0  0  0  0
   48.8839    5.7501   16.0982 C   0  0  0  0  0  0  0  0  0  0  0  0
   49.4240   11.1946   12.5397 C   0  0  0  0  0  0  0  0  0  0  0  0
   48.8876    4.2744   18.4449 C   0  0  0  0  0  0  0  0  0  0  0  0
   47.7941    4.9324   16.4094 C   0  0  0  0  0  0  0  0  0  0  0  0
   50.7719    9.4795   11.5442 C   0  0  0  0  0  0  0  0  0  0  0  0
   47.7976    4.1907   17.5815 C   0  0  0  0  0  0  0  0  0  0  0  0
   50.0263   10.6407   11.4144 C   0  0  0  0  0  0  0  0  0  0  0  0
   50.4405    8.4586   15.3254 N   0  0  0  0  0  0  0  0  0  0  0  0
   51.0239    9.5741   15.9719 C   0  0  0  0  0  0  0  0  0  0  0  0
   49.3247    8.4646   14.4561 C   0  0  0  0  0  0  0  0  0  0  0  0
   50.2975   10.7092   16.3972 C   0  0  0  0  0  0  0  0  0  0  0  0
   48.0905    8.9997   14.8504 C   0  0  0  0  0  0  0  0  0  0  0  0
   48.7958   10.8831   16.2955 C   0  0  0  0  0  0  0  0  0  0  0  0
   47.9536    9.6173   16.2121 C   0  0  0  0  0  0  0  0  0  0  0  0
   51.0102    7.1096   15.5511 C   0  0  0  0  0  0  0  0  0  0  0  0
   50.9391    6.7035   17.0321 C   0  0  0  0  0  0  0  0  0  0  0  0
   51.5259    4.8460   18.6237 N   0  0  0  0  0  0  0  0  0  0  0  0
   49.4304    7.9228   13.1610 C   0  0  0  0  0  0  0  0  0  0  0  0
   52.4243    9.5999   16.1790 C   0  0  0  0  0  0  0  0  0  0  0  0
   51.3963    5.2502   17.2126 C   0  0  0  0  0  0  0  0  0  0  0  0
   46.9926    8.9688   13.9725 C   0  0  0  0  0  0  0  0  0  0  0  0
   50.9832   11.8050   16.9758 C   0  0  0  0  0  0  0  0  0  0  0  0
   50.2384    4.8469   19.3221 C   0  0  0  0  0  0  0  0  0  0  0  0
   52.1324    3.5143   18.7050 C   0  0  0  0  0  0  0  0  0  0  0  0
   53.0842   10.6807   16.7693 C   0  0  0  0  0  0  0  0  0  0  0  0
   48.3401    7.9020   12.2873 C   0  0  0  0  0  0  0  0  0  0  0  0
   52.3606   11.7903   17.1662 C   0  0  0  0  0  0  0  0  0  0  0  0
   47.1185    8.4233   12.6977 C   0  0  0  0  0  0  0  0  0  0  0  0
   50.8894   11.4206   14.9098 H   0  0  0  0  0  0  0  0  0  0  0  0
   49.7138   12.6553   15.3289 H   0  0  0  0  0  0  0  0  0  0  0  0
   47.8635   10.7593   15.0154 H   0  0  0  0  0  0  0  0  0  0  0  0
   48.5532   11.6459   13.6646 H   0  0  0  0  0  0  0  0  0  0  0  0
   52.0981    7.5864   15.7618 H   0  0  0  0  0  0  0  0  0  0  0  0
   51.7621    8.0645   17.3678 H   0  0  0  0  0  0  0  0  0  0  0  0
   49.7960    6.4235   17.4628 H   0  0  0  0  0  0  0  0  0  0  0  0
   50.2213    5.8534   15.8750 H   0  0  0  0  0  0  0  0  0  0  0  0
   51.0289    6.7502   14.1453 H   0  0  0  0  0  0  0  0  0  0  0  0
   49.7146    8.1897   18.5714 H   0  0  0  0  0  0  0  0  0  0  0  0
   52.0224    5.7717   18.3536 H   0  0  0  0  0  0  0  0  0  0  0  0
   52.5712    5.3960   16.7181 H   0  0  0  0  0  0  0  0  0  0  0  0
   48.3534   10.2396   11.9617 H   0  0  0  0  0  0  0  0  0  0  0  0
   49.4176   12.9914   17.5369 H   0  0  0  0  0  0  0  0  0  0  0  0
   53.1795    3.1813   17.2170 H   0  0  0  0  0  0  0  0  0  0  0  0
   52.7416    3.4238   18.9237 H   0  0  0  0  0  0  0  0  0  0  0  0
   52.0447    2.0827   17.9852 H   0  0  0  0  0  0  0  0  0  0  0  0
   49.8438    2.7874   18.5515 H   0  0  0  0  0  0  0  0  0  0  0  0
   49.2293    4.3502   18.0699 H   0  0  0  0  0  0  0  0  0  0  0  0
   50.3617    4.2368   19.4373 H   0  0  0  0  0  0  0  0  0  0  0  0
   49.2446    9.7745   20.3371 H   0  0  0  0  0  0  0  0  0  0  0  0
   50.4914    6.5581   11.8285 H   0  0  0  0  0  0  0  0  0  0  0  0
   49.1088   12.2031   19.8447 H   0  0  0  0  0  0  0  0  0  0  0  0
   49.1189    8.2862   10.6937 H   0  0  0  0  0  0  0  0  0  0  0  0
   50.9473    6.8365   14.5920 H   0  0  0  0  0  0  0  0  0  0  0  0
   52.2774    7.7752   15.1955 H   0  0  0  0  0  0  0  0  0  0  0  0
   48.3855   12.1218   14.7795 H   0  0  0  0  0  0  0  0  0  0  0  0
   51.0371    4.5770   19.9592 H   0  0  0  0  0  0  0  0  0  0  0  0
   49.4863    9.4813   18.2662 H   0  0  0  0  0  0  0  0  0  0  0  0
   53.8912    7.5281   18.0545 H   0  0  0  0  0  0  0  0  0  0  0  0
   48.0169   11.4070   19.0835 H   0  0  0  0  0  0  0  0  0  0  0  0
   54.8803    6.6766   20.2692 H   0  0  0  0  0  0  0  0  0  0  0  0
   51.5166    7.9726   12.8386 H   0  0  0  0  0  0  0  0  0  0  0  0
   48.8315    6.3190   15.1744 H   0  0  0  0  0  0  0  0  0  0  0  0
   48.8500   12.1125   12.4210 H   0  0  0  0  0  0  0  0  0  0  0  0
   48.8702    3.6874   19.3621 H   0  0  0  0  0  0  0  0  0  0  0  0
   46.9453    4.8783   15.7324 H   0  0  0  0  0  0  0  0  0  0  0  0
   51.2542    9.0412   10.6734 H   0  0  0  0  0  0  0  0  0  0  0  0
   46.9529    3.5528   17.8289 H   0  0  0  0  0  0  0  0  0  0  0  0
   49.9178   11.1180   10.4441 H   0  0  0  0  0  0  0  0  0  0  0  0
   48.5847   11.5388   15.4387 H   0  0  0  0  0  0  0  0  0  0  0  0
   48.4578   11.4200   17.1931 H   0  0  0  0  0  0  0  0  0  0  0  0
   48.2274    8.8926   16.9879 H   0  0  0  0  0  0  0  0  0  0  0  0
   46.9035    9.8774   16.3942 H   0  0  0  0  0  0  0  0  0  0  0  0
   52.0362    7.0506   15.1705 H   0  0  0  0  0  0  0  0  0  0  0  0
   50.4549    6.3474   14.9857 H   0  0  0  0  0  0  0  0  0  0  0  0
   49.9098    6.8290   17.3854 H   0  0  0  0  0  0  0  0  0  0  0  0
   51.5701    7.3604   17.6418 H   0  0  0  0  0  0  0  0  0  0  0  0
   50.3856    7.5347   12.8153 H   0  0  0  0  0  0  0  0  0  0  0  0
   53.0478    8.7753   15.8476 H   0  0  0  0  0  0  0  0  0  0  0  0
   50.7094    4.5796   16.6814 H   0  0  0  0  0  0  0  0  0  0  0  0
   52.3764    5.1488   16.7318 H   0  0  0  0  0  0  0  0  0  0  0  0
   46.0351    9.3845   14.2779 H   0  0  0  0  0  0  0  0  0  0  0  0
   50.4282   12.6878   17.2905 H   0  0  0  0  0  0  0  0  0  0  0  0
   49.8331    5.8637   19.4104 H   0  0  0  0  0  0  0  0  0  0  0  0
   49.4964    4.2138   18.8185 H   0  0  0  0  0  0  0  0  0  0  0  0
   50.3597    4.4815   20.3512 H   0  0  0  0  0  0  0  0  0  0  0  0
   52.2347    3.1902   19.7465 H   0  0  0  0  0  0  0  0  0  0  0  0
   51.5431    2.7610   18.1645 H   0  0  0  0  0  0  0  0  0  0  0  0
   53.1456    3.5299   18.2805 H   0  0  0  0  0  0  0  0  0  0  0  0
   54.1620   10.6534   16.9024 H   0  0  0  0  0  0  0  0  0  0  0  0
   48.4513    7.4949   11.2877 H   0  0  0  0  0  0  0  0  0  0  0  0
   52.8613   12.6418   17.6195 H   0  0  0  0  0  0  0  0  0  0  0  0
   46.2663    8.4124   12.0214 H   0  0  0  0  0  0  0  0  0  0  0  0
  2  1  1  0
  3  1  1  0
  4  2  2  0
  5  3  2  0
  6  4  1  0
  7  5  1  0
  8  1  1  0
  9  8  1  0
 10 13  1  0
 11  3  1  0
 12  2  1  0
 13  9  1  0
 14  5  1  0
 15  4  1  0
 16 10  1  0
 17 10  1  0
 18 12  2  0
 19 11  2  0
 20 15  2  0
 21 14  2  0
  6  7  1  0
 18 20  1  0
 19 21  1  0
 23 27  2  0
 24 28  1  0
 25 26  1  0
 26 22  2  0
 27 24  1  0
 28 25  1  0
 29 22  1  0
 30 23  1  0
 31 22  1  0
 32 23  1  0
 33 24  2  0
 34 35  1  0
 35 29  2  0
 36 33  1  0
 37 31  2  0
 38 32  2  0
 39 26  1  0
 40 27  1  0
 41 31  1  0
 42 32  1  0
 43 34  1  0
 44 33  1  0
 45 35  1  0
 46 36  1  0
 47 44  2  0
 48 43  2  0
 49 47  1  0
 50 45  2  0
 25 34  2  0
 48 50  1  0
 30 36  2  0
 46 49  2  0
 52 51  1  0
 53 51  1  0
 54 52  2  0
 55 53  2  0
 56 54  1  0
 57 55  1  0
 58 51  1  0
 59 58  1  0
 60 63  1  0
 61 53  1  0
 62 52  1  0
 63 59  1  0
 64 55  1  0
 65 54  1  0
 66 60  1  0
 67 60  1  0
 68 62  2  0
 69 61  2  0
 70 65  2  0
 71 64  2  0
 56 57  1  0
 68 70  1  0
 69 71  1  0
  6 72  1  0
  6 73  1  0
  7 74  1  0
  7 75  1  0
  8 76  1  0
  8 77  1  0
  9 78  1  0
  9 79  1  0
 11 80  1  0
 12 81  1  0
 13 82  1  0
 13 83  1  0
 14 84  1  0
 15 85  1  0
 16 86  1  0
 16 87  1  0
 16 88  1  0
 17 89  1  0
 17 90  1  0
 17 91  1  0
 18 92  1  0
 19 93  1  0
 20 94  1  0
 21 95  1  0
 28 96  1  0
 28 97  1  0
 29 98  1  0
 30 99  1  0
 39100  1  0
 40101  1  0
 41102  1  0
 42103  1  0
 43104  1  0
 44105  1  0
 45106  1  0
 46107  1  0
 47108  1  0
 48109  1  0
 49110  1  0
 50111  1  0
 56112  1  0
 56113  1  0
 57114  1  0
 57115  1  0
 58116  1  0
 58117  1  0
 59118  1  0
 59119  1  0
 61120  1  0
 62121  1  0
 63122  1  0
 63123  1  0
 64124  1  0
 65125  1  0
 66126  1  0
 66127  1  0
 66128  1  0
 67129  1  0
 67130  1  0
 67131  1  0
 68132  1  0
 69133  1  0
 70134  1  0
 71135  1  0
M  END
> <Uni-Dock RESULT> 
ENERGY=   -6.084  LOWER_BOUND=    3.174  UPPER_BOUND=    5.526
INTER + INTRA:          -6.084
INTER:                  -6.084
INTRA:                   0.000
UNBOUND:                 0.000

$$$$

     RDKit          3D

135142  0  0  0  0  0  0  0  0999 V2000
   49.7990    8.5359   19.8897 N   0  0  0  0  0  0  0  0  0  0  0  0
   49.3830    7.1933   20.1776 C   0  0  0  0  0  0  0  0  0  0  0  0
   49.3425    9.7918   20.4140 C   0  0  0  0  0  0  0  0  0  0  0  0
   48.9028    6.7787   21.4331 C   0  0  0  0  0  0  0  0  0  0  0  0
   48.3044    9.9305   21.3668 C   0  0  0  0  0  0  0  0  0  0  0  0
   48.6697    7.7549   22.5464 C   0  0  0  0  0  0  0  0  0  0  0  0
   47.6485    8.7760   22.0777 C   0  0  0  0  0  0  0  0  0  0  0  0
   51.0574    8.5658   19.0861 C   0  0  0  0  0  0  0  0  0  0  0  0
   50.8188    8.9111   17.6048 C   0  0  0  0  0  0  0  0  0  0  0  0
   52.0415    9.3538   15.4501 N   0  0  0  0  0  0  0  0  0  0  0  0
   49.8913   11.0180   19.9526 C   0  0  0  0  0  0  0  0  0  0  0  0
   49.4579    6.1880   19.1833 C   0  0  0  0  0  0  0  0  0  0  0  0
   52.1387    8.8335   16.8250 C   0  0  0  0  0  0  0  0  0  0  0  0
   47.8286   11.2140   21.7468 C   0  0  0  0  0  0  0  0  0  0  0  0
   48.5860    5.4227   21.6786 C   0  0  0  0  0  0  0  0  0  0  0  0
   53.3712    9.3951   14.8347 C   0  0  0  0  0  0  0  0  0  0  0  0
   51.1340    8.5643   14.6157 C   0  0  0  0  0  0  0  0  0  0  0  0
   49.1308    4.8490   19.4250 C   0  0  0  0  0  0  0  0  0  0  0  0
   49.4318   12.2810   20.3536 C   0  0  0  0  0  0  0  0  0  0  0  0
   48.7054    4.4626   20.6825 C   0  0  0  0  0  0  0  0  0  0  0  0
   48.3848   12.3792   21.2445 C   0  0  0  0  0  0  0  0  0  0  0  0
   48.2445    7.3789   21.1606 C   0  0  0  0  0  0  0  0  0  0  0  0
   52.6739    7.3347   16.8452 C   0  0  0  0  0  0  0  0  0  0  0  0
   51.2130    8.8478   18.0973 C   0  0  0  0  0  0  0  0  0  0  0  0
   49.8144    9.0811   20.3420 C   0  0  0  0  0  0  0  0  0  0  0  0
   49.2519    7.7861   20.2682 C   0  0  0  0  0  0  0  0  0  0  0  0
   52.3692    8.0404   18.0161 C   0  0  0  0  0  0  0  0  0  0  0  0
   50.9131    9.5816   19.3976 C   0  0  0  0  0  0  0  0  0  0  0  0
   47.8056    8.2588   22.1549 C   0  0  0  0  0  0  0  0  0  0  0  0
   51.8263    7.4482   15.7384 C   0  0  0  0  0  0  0  0  0  0  0  0
   47.5946    6.0415   21.1414 C   0  0  0  0  0  0  0  0  0  0  0  0
   53.8587    6.4550   16.6853 C   0  0  0  0  0  0  0  0  0  0  0  0
   50.3456    8.9539   16.9648 C   0  0  0  0  0  0  0  0  0  0  0  0
   49.3766    9.9629   21.3922 C   0  0  0  0  0  0  0  0  0  0  0  0
   48.3606    9.5339   22.2853 C   0  0  0  0  0  0  0  0  0  0  0  0
   50.6740    8.2439   15.7825 C   0  0  0  0  0  0  0  0  0  0  0  0
   46.7658    5.6348   21.9363 O   0  0  0  0  0  0  0  0  0  0  0  0
   54.1815    5.8619   15.6719 O   0  0  0  0  0  0  0  0  0  0  0  0
   49.7230    6.9224   19.3124 O   0  0  0  0  0  0  0  0  0  0  0  0
   53.1774    7.9813   19.1261 O   0  0  0  0  0  0  0  0  0  0  0  0
   47.9986    5.2623   20.1159 O   0  0  0  0  0  0  0  0  0  0  0  0
   54.6000    6.3482   17.8092 O   0  0  0  0  0  0  0  0  0  0  0  0
   49.9061   11.2589   21.6167 C   0  0  0  0  0  0  0  0  0  0  0  0
   49.1599    9.7272   16.9448 C   0  0  0  0  0  0  0  0  0  0  0  0
   47.9099   10.3746   23.3178 C   0  0  0  0  0  0  0  0  0  0  0  0
   49.8463    8.3307   14.6506 C   0  0  0  0  0  0  0  0  0  0  0  0
   48.3441    9.8022   15.8125 C   0  0  0  0  0  0  0  0  0  0  0  0
   49.4532   12.0846   22.6517 C   0  0  0  0  0  0  0  0  0  0  0  0
   48.6897    9.1069   14.6631 C   0  0  0  0  0  0  0  0  0  0  0  0
   48.4509   11.6433   23.5013 C   0  0  0  0  0  0  0  0  0  0  0  0
   49.9241    9.1980   20.0257 N   0  0  0  0  0  0  0  0  0  0  0  0
   50.3253    8.1238   20.8550 C   0  0  0  0  0  0  0  0  0  0  0  0
   48.7211    9.9373   20.1107 C   0  0  0  0  0  0  0  0  0  0  0  0
   49.4290    7.2032   21.4434 C   0  0  0  0  0  0  0  0  0  0  0  0
   47.4691    9.3089   20.0613 C   0  0  0  0  0  0  0  0  0  0  0  0
   47.9292    7.1747   21.2302 C   0  0  0  0  0  0  0  0  0  0  0  0
   47.3962    7.8131   19.9546 C   0  0  0  0  0  0  0  0  0  0  0  0
   50.8143    9.6368   18.9255 C   0  0  0  0  0  0  0  0  0  0  0  0
   51.0567    8.5106   17.9076 C   0  0  0  0  0  0  0  0  0  0  0  0
   52.2806    7.9748   15.7762 N   0  0  0  0  0  0  0  0  0  0  0  0
   48.7564   11.3383   20.2445 C   0  0  0  0  0  0  0  0  0  0  0  0
   51.6974    7.9638   21.1653 C   0  0  0  0  0  0  0  0  0  0  0  0
   51.8558    9.0348   16.7074 C   0  0  0  0  0  0  0  0  0  0  0  0
   46.2906   10.0733   20.1233 C   0  0  0  0  0  0  0  0  0  0  0  0
   49.9231    6.2007   22.3132 C   0  0  0  0  0  0  0  0  0  0  0  0
   51.1441    7.3227   15.1213 C   0  0  0  0  0  0  0  0  0  0  0  0
   53.1810    8.5344   14.7643 C   0  0  0  0  0  0  0  0  0  0  0  0
   52.1718    6.9574   22.0103 C   0  0  0  0  0  0  0  0  0  0  0  0
   47.5835   12.0945   20.3153 C   0  0  0  0  0  0  0  0  0  0  0  0
   51.2799    6.0737   22.5901 C   0  0  0  0  0  0  0  0  0  0  0  0
   46.3491   11.4585   20.2505 C   0  0  0  0  0  0  0  0  0  0  0  0
   49.6170    8.2069   22.8667 H   0  0  0  0  0  0  0  0  0  0  0  0
   48.2648    7.2344   23.4215 H   0  0  0  0  0  0  0  0  0  0  0  0
   46.8721    8.3426   21.4342 H   0  0  0  0  0  0  0  0  0  0  0  0
   47.1342    9.1469   22.9740 H   0  0  0  0  0  0  0  0  0  0  0  0
   51.7830    9.2571   19.5360 H   0  0  0  0  0  0  0  0  0  0  0  0
   51.5865    7.6042   19.1486 H   0  0  0  0  0  0  0  0  0  0  0  0
   50.0841    8.2295   17.1688 H   0  0  0  0  0  0  0  0  0  0  0  0
   50.3903    9.9111   17.4937 H   0  0  0  0  0  0  0  0  0  0  0  0
   50.7078   11.0493   19.2406 H   0  0  0  0  0  0  0  0  0  0  0  0
   49.7646    6.4277   18.1721 H   0  0  0  0  0  0  0  0  0  0  0  0
   52.5067    7.7983   16.8223 H   0  0  0  0  0  0  0  0  0  0  0  0
   52.8803    9.4352   17.3679 H   0  0  0  0  0  0  0  0  0  0  0  0
   47.0134   11.3015   22.4640 H   0  0  0  0  0  0  0  0  0  0  0  0
   48.2276    5.1148   22.6586 H   0  0  0  0  0  0  0  0  0  0  0  0
   54.0459   10.0335   15.4168 H   0  0  0  0  0  0  0  0  0  0  0  0
   53.8201    8.3979   14.7557 H   0  0  0  0  0  0  0  0  0  0  0  0
   53.3184    9.8324   13.8309 H   0  0  0  0  0  0  0  0  0  0  0  0
   51.1225    8.9487   13.5893 H   0  0  0  0  0  0  0  0  0  0  0  0
   50.1026    8.6366   14.9729 H   0  0  0  0  0  0  0  0  0  0  0  0
   51.4194    7.5062   14.5815 H   0  0  0  0  0  0  0  0  0  0  0  0
   49.2093    4.1178   18.6260 H   0  0  0  0  0  0  0  0  0  0  0  0
   49.8937   13.1775   19.9488 H   0  0  0  0  0  0  0  0  0  0  0  0
   48.4503    3.4268   20.8856 H   0  0  0  0  0  0  0  0  0  0  0  0
   48.0106   13.3485   21.5558 H   0  0  0  0  0  0  0  0  0  0  0  0
   50.6753   10.6115   19.0961 H   0  0  0  0  0  0  0  0  0  0  0  0
   51.8290    9.6760   19.9951 H   0  0  0  0  0  0  0  0  0  0  0  0
   47.0278    7.9345   22.8462 H   0  0  0  0  0  0  0  0  0  0  0  0
   52.0682    6.9034   14.8265 H   0  0  0  0  0  0  0  0  0  0  0  0
   49.2043    6.0947   19.3506 H   0  0  0  0  0  0  0  0  0  0  0  0
   53.8590    7.2979   18.9642 H   0  0  0  0  0  0  0  0  0  0  0  0
   47.4698    4.4420   20.2425 H   0  0  0  0  0  0  0  0  0  0  0  0
   55.3314    5.7545   17.5294 H   0  0  0  0  0  0  0  0  0  0  0  0
   50.7051   11.6538   20.9940 H   0  0  0  0  0  0  0  0  0  0  0  0
   48.8433   10.2812   17.8238 H   0  0  0  0  0  0  0  0  0  0  0  0
   47.1301   10.0404   24.0007 H   0  0  0  0  0  0  0  0  0  0  0  0
   50.0989    7.7892   13.7400 H   0  0  0  0  0  0  0  0  0  0  0  0
   47.4401   10.4056   15.8338 H   0  0  0  0  0  0  0  0  0  0  0  0
   49.8895   13.0713   22.7897 H   0  0  0  0  0  0  0  0  0  0  0  0
   48.0592    9.1615   13.7792 H   0  0  0  0  0  0  0  0  0  0  0  0
   48.0944   12.2795   24.3070 H   0  0  0  0  0  0  0  0  0  0  0  0
   47.4499    7.6251   22.1111 H   0  0  0  0  0  0  0  0  0  0  0  0
   47.6131    6.1223   21.2040 H   0  0  0  0  0  0  0  0  0  0  0  0
   47.9396    7.4679   19.0672 H   0  0  0  0  0  0  0  0  0  0  0  0
   46.3530    7.5047   19.8129 H   0  0  0  0  0  0  0  0  0  0  0  0
   51.7592   10.0273   19.3202 H   0  0  0  0  0  0  0  0  0  0  0  0
   50.3713   10.4765   18.3708 H   0  0  0  0  0  0  0  0  0  0  0  0
   50.0894    8.1133   17.5810 H   0  0  0  0  0  0  0  0  0  0  0  0
   51.6031    7.6823   18.3731 H   0  0  0  0  0  0  0  0  0  0  0  0
   49.7136   11.8485   20.3228 H   0  0  0  0  0  0  0  0  0  0  0  0
   52.4374    8.6548   20.7737 H   0  0  0  0  0  0  0  0  0  0  0  0
   51.2702    9.7984   16.1805 H   0  0  0  0  0  0  0  0  0  0  0  0
   52.7514    9.5326   17.0974 H   0  0  0  0  0  0  0  0  0  0  0  0
   45.3189    9.5860   20.0857 H   0  0  0  0  0  0  0  0  0  0  0  0
   49.2333    5.4993   22.7807 H   0  0  0  0  0  0  0  0  0  0  0  0
   50.5344    6.7637   15.8435 H   0  0  0  0  0  0  0  0  0  0  0  0
   50.5010    8.0432   14.5994 H   0  0  0  0  0  0  0  0  0  0  0  0
   51.4959    6.5830   14.3888 H   0  0  0  0  0  0  0  0  0  0  0  0
   53.5068    7.7640   14.0567 H   0  0  0  0  0  0  0  0  0  0  0  0
   52.7069    9.3469   14.1971 H   0  0  0  0  0  0  0  0  0  0  0  0
   54.0900    8.9290   15.2387 H   0  0  0  0  0  0  0  0  0  0  0  0
   53.2348    6.8793   22.2204 H   0  0  0  0  0  0  0  0  0  0  0  0
   47.6366   13.1714   20.4361 H   0  0  0  0  0  0  0  0  0  0  0  0
   51.6335    5.2908   23.2558 H   0  0  0  0  0  0  0  0  0  0  0  0
   45.4320   12.0412   20.3076 H   0  0  0  0  0  0  0  0  0  0  0  0
  2  1  1  0
  3  1  1  0
  4  2  2  0
  5  3  2  0
  6  4  1  0
  7  5  1  0
  8  1  1  0
  9  8  1  0
 10 13  1  0
 11  3  1  0
 12  2  1  0
 13  9  1  0
 14  5  1  0
 15  4  1  0
 16 10  1  0
 17 10  1  0
 18 12  2  0
 19 11  2  0
 20 15  2  0
 21 14  2  0
  6  7  1  0
 18 20  1  0
 19 21  1  0
 23 27  2  0
 24 28  1  0
 25 26  1  0
 26 22  2  0
 27 24  1  0
 28 25  1  0
 29 22  1  0
 30 23  1  0
 31 22  1  0
 32 23  1  0
 33 24  2  0
 34 35  1  0
 35 29  2  0
 36 33  1  0
 37 31  2  0
 38 32  2  0
 39 26  1  0
 40 27  1  0
 41 31  1  0
 42 32  1  0
 43 34  1  0
 44 33  1  0
 45 35  1  0
 46 36  1  0
 47 44  2  0
 48 43  2  0
 49 47  1  0
 50 45  2  0
 25 34  2  0
 48 50  1  0
 30 36  2  0
 46 49  2  0
 52 51  1  0
 53 51  1  0
 54 52  2  0
 55 53  2  0
 56 54  1  0
 57 55  1  0
 58 51  1  0
 59 58  1  0
 60 63  1  0
 61 53  1  0
 62 52  1  0
 63 59  1  0
 64 55  1  0
 65 54  1  0
 66 60  1  0
 67 60  1  0
 68 62  2  0
 69 61  2  0
 70 65  2  0
 71 64  2  0
 56 57  1  0
 68 70  1  0
 69 71  1  0
  6 72  1  0
  6 73  1  0
  7 74  1  0
  7 75  1  0
  8 76  1  0
  8 77  1  0
  9 78  1  0
  9 79  1  0
 11 80  1  0
 12 81  1  0
 13 82  1  0
 13 83  1  0
 14 84  1  0
 15 85  1  0
 16 86  1  0
 16 87  1  0
 16 88  1  0
 17 89  1  0
 17 90  1  0
 17 91  1  0
 18 92  1  0
 19 93  1  0
 20 94  1  0
 21 95  1  0
 28 96  1  0
 28 97  1  0
 29 98  1  0
 30 99  1  0
 39100  1  0
 40101  1  0
 41102  1  0
 42103  1  0
 43104  1  0
 44105  1  0
 45106  1  0
 46107  1  0
 47108  1  0
 48109  1  0
 49110  1  0
 50111  1  0
 56112  1  0
 56113  1  0
 57114  1  0
 57115  1  0
 58116  1  0
 58117  1  0
 59118  1  0
 59119  1  0
 61120  1  0
 62121  1  0
 63122  1  0
 63123  1  0
 64124  1  0
 65125  1  0
 66126  1  0
 66127  1  0
 66128  1  0
 67129  1  0
 67130  1  0
 67131  1  0
 68132  1  0
 69133  1  0
 70134  1  0
 71135  1  0
M  END
> <Uni-Dock RESULT> 
ENERGY=   -5.947  LOWER_BOUND=    2.915  UPPER_BOUND=    5.222
INTER + INTRA:          -5.947
INTER:                  -5.947
INTRA:                   0.000
UNBOUND:                 0.000

$$$$

     RDKit          3D

135142  0  0  0  0  0  0  0  0999 V2000
   50.5993    7.1749   17.6413 N   0  0  0  0  0  0  0  0  0  0  0  0
   51.9385    6.6727   17.5281 C   0  0  0  0  0  0  0  0  0  0  0  0
   49.4724    6.6821   18.3813 C   0  0  0  0  0  0  0  0  0  0  0  0
   52.6011    5.9814   18.5586 C   0  0  0  0  0  0  0  0  0  0  0  0
   49.4874    5.5083   19.1731 C   0  0  0  0  0  0  0  0  0  0  0  0
   51.8998    5.6036   19.8283 C   0  0  0  0  0  0  0  0  0  0  0  0
   50.7265    4.7071   19.4752 C   0  0  0  0  0  0  0  0  0  0  0  0
   50.4719    8.5474   17.0665 C   0  0  0  0  0  0  0  0  0  0  0  0
   49.7718    8.5643   15.6954 C   0  0  0  0  0  0  0  0  0  0  0  0
   48.9239   10.1348   13.9210 N   0  0  0  0  0  0  0  0  0  0  0  0
   48.2148    7.3396   18.3198 C   0  0  0  0  0  0  0  0  0  0  0  0
   52.6845    6.8741   16.3416 C   0  0  0  0  0  0  0  0  0  0  0  0
   49.7585    9.9899   15.1265 C   0  0  0  0  0  0  0  0  0  0  0  0
   48.2984    5.0206   19.7787 C   0  0  0  0  0  0  0  0  0  0  0  0
   53.9504    5.5833   18.4163 C   0  0  0  0  0  0  0  0  0  0  0  0
   48.8347   11.5474   13.5400 C   0  0  0  0  0  0  0  0  0  0  0  0
   49.4278    9.3487   12.7936 C   0  0  0  0  0  0  0  0  0  0  0  0
   54.0158    6.4671   16.1983 C   0  0  0  0  0  0  0  0  0  0  0  0
   47.0519    6.8639   18.9430 C   0  0  0  0  0  0  0  0  0  0  0  0
   54.6554    5.8304   17.2458 C   0  0  0  0  0  0  0  0  0  0  0  0
   47.0908    5.6901   19.6642 C   0  0  0  0  0  0  0  0  0  0  0  0
   51.9079    5.3966   18.3451 C   0  0  0  0  0  0  0  0  0  0  0  0
   51.2545   10.4638   14.8608 C   0  0  0  0  0  0  0  0  0  0  0  0
   49.9772    8.8709   16.2108 C   0  0  0  0  0  0  0  0  0  0  0  0
   50.1783    7.1351   18.2098 C   0  0  0  0  0  0  0  0  0  0  0  0
   51.3758    6.5487   17.7397 C   0  0  0  0  0  0  0  0  0  0  0  0
   50.8238    9.9970   16.1092 C   0  0  0  0  0  0  0  0  0  0  0  0
   49.5500    8.3888   17.5909 C   0  0  0  0  0  0  0  0  0  0  0  0
   51.2572    4.8321   19.4467 C   0  0  0  0  0  0  0  0  0  0  0  0
   50.8233    9.8115   13.7011 C   0  0  0  0  0  0  0  0  0  0  0  0
   53.1530    4.7137   17.9040 C   0  0  0  0  0  0  0  0  0  0  0  0
   52.1548   11.6285   14.6704 C   0  0  0  0  0  0  0  0  0  0  0  0
   49.5458    8.2030   15.0218 C   0  0  0  0  0  0  0  0  0  0  0  0
   49.5390    6.5627   19.3655 C   0  0  0  0  0  0  0  0  0  0  0  0
   50.0918    5.4012   19.9651 C   0  0  0  0  0  0  0  0  0  0  0  0
   49.9796    8.6948   13.7649 C   0  0  0  0  0  0  0  0  0  0  0  0
   53.6745    3.7536   18.4429 O   0  0  0  0  0  0  0  0  0  0  0  0
   52.5146   12.0914   13.6031 O   0  0  0  0  0  0  0  0  0  0  0  0
   52.0221    7.1394   16.6838 O   0  0  0  0  0  0  0  0  0  0  0  0
   51.2002   10.6119   17.2793 O   0  0  0  0  0  0  0  0  0  0  0  0
   53.6962    5.2523   16.7919 O   0  0  0  0  0  0  0  0  0  0  0  0
   52.5758   12.1735   15.8322 O   0  0  0  0  0  0  0  0  0  0  0  0
   48.3736    7.0921   19.9754 C   0  0  0  0  0  0  0  0  0  0  0  0
   48.7063    7.0630   15.0137 C   0  0  0  0  0  0  0  0  0  0  0  0
   49.4873    4.8175   21.0920 C   0  0  0  0  0  0  0  0  0  0  0  0
   49.5699    8.0653   12.5777 C   0  0  0  0  0  0  0  0  0  0  0  0
   48.3088    6.4449   13.8250 C   0  0  0  0  0  0  0  0  0  0  0  0
   47.7840    6.5053   21.1006 C   0  0  0  0  0  0  0  0  0  0  0  0
   48.7373    6.9488   12.6059 C   0  0  0  0  0  0  0  0  0  0  0  0
   48.3395    5.3640   21.6575 C   0  0  0  0  0  0  0  0  0  0  0  0
   49.9985    7.2986   17.9516 N   0  0  0  0  0  0  0  0  0  0  0  0
   51.2636    7.5233   18.5446 C   0  0  0  0  0  0  0  0  0  0  0  0
   49.2154    6.1234   18.0333 C   0  0  0  0  0  0  0  0  0  0  0  0
   52.2299    6.5129   18.7504 C   0  0  0  0  0  0  0  0  0  0  0  0
   49.7230    4.8755   17.6458 C   0  0  0  0  0  0  0  0  0  0  0  0
   52.0995    5.0676   18.3150 C   0  0  0  0  0  0  0  0  0  0  0  0
   51.1426    4.7705   17.1684 C   0  0  0  0  0  0  0  0  0  0  0  0
   49.3784    8.3699   17.1371 C   0  0  0  0  0  0  0  0  0  0  0  0
   50.2482    8.7362   15.9236 C   0  0  0  0  0  0  0  0  0  0  0  0
   50.3545   10.2711   13.9334 N   0  0  0  0  0  0  0  0  0  0  0  0
   47.8914    6.1837   18.5079 C   0  0  0  0  0  0  0  0  0  0  0  0
   51.5902    8.8207   19.0081 C   0  0  0  0  0  0  0  0  0  0  0  0
   49.5154    9.7368   15.0205 C   0  0  0  0  0  0  0  0  0  0  0  0
   48.9119    3.7290   17.7152 C   0  0  0  0  0  0  0  0  0  0  0  0
   53.4415    6.8251   19.4137 C   0  0  0  0  0  0  0  0  0  0  0  0
   50.7508    9.2347   12.9772 C   0  0  0  0  0  0  0  0  0  0  0  0
   49.6389   11.3422   13.2345 C   0  0  0  0  0  0  0  0  0  0  0  0
   52.7985    9.1174   19.6437 C   0  0  0  0  0  0  0  0  0  0  0  0
   47.0908    5.0411   18.5847 C   0  0  0  0  0  0  0  0  0  0  0  0
   53.7272    8.1139   19.8509 C   0  0  0  0  0  0  0  0  0  0  0  0
   47.6033    3.8128   18.1832 C   0  0  0  0  0  0  0  0  0  0  0  0
   51.6050    6.5011   20.3869 H   0  0  0  0  0  0  0  0  0  0  0  0
   52.5809    5.0447   20.4796 H   0  0  0  0  0  0  0  0  0  0  0  0
   50.9395    4.0313   18.6370 H   0  0  0  0  0  0  0  0  0  0  0  0
   50.5407    4.0669   20.3476 H   0  0  0  0  0  0  0  0  0  0  0  0
   49.9597    9.2133   17.7744 H   0  0  0  0  0  0  0  0  0  0  0  0
   51.4567    9.0266   16.9713 H   0  0  0  0  0  0  0  0  0  0  0  0
   50.2771    7.8875   15.0018 H   0  0  0  0  0  0  0  0  0  0  0  0
   48.7455    8.1935   15.7684 H   0  0  0  0  0  0  0  0  0  0  0  0
   48.0758    8.2613   17.7671 H   0  0  0  0  0  0  0  0  0  0  0  0
   52.2365    7.3487   15.4768 H   0  0  0  0  0  0  0  0  0  0  0  0
   50.7877   10.3183   14.9267 H   0  0  0  0  0  0  0  0  0  0  0  0
   49.3561   10.6533   15.9041 H   0  0  0  0  0  0  0  0  0  0  0  0
   48.3236    4.1033   20.3655 H   0  0  0  0  0  0  0  0  0  0  0  0
   54.4535    5.0604   19.2268 H   0  0  0  0  0  0  0  0  0  0  0  0
   48.4012   12.1398   14.3542 H   0  0  0  0  0  0  0  0  0  0  0  0
   49.8151   11.9693   13.2885 H   0  0  0  0  0  0  0  0  0  0  0  0
   48.1711   11.6731   12.6767 H   0  0  0  0  0  0  0  0  0  0  0  0
   48.8131    9.5169   11.9018 H   0  0  0  0  0  0  0  0  0  0  0  0
   49.3676    8.2760   12.9993 H   0  0  0  0  0  0  0  0  0  0  0  0
   50.4659    9.6000   12.5458 H   0  0  0  0  0  0  0  0  0  0  0  0
   54.5424    6.6496   15.2663 H   0  0  0  0  0  0  0  0  0  0  0  0
   46.1209    7.4154   18.8424 H   0  0  0  0  0  0  0  0  0  0  0  0
   55.6889    5.5109   17.1500 H   0  0  0  0  0  0  0  0  0  0  0  0
   46.1976    5.3032   20.1426 H   0  0  0  0  0  0  0  0  0  0  0  0
   48.4638    8.2379   17.5172 H   0  0  0  0  0  0  0  0  0  0  0  0
   49.6649    9.1983   18.3233 H   0  0  0  0  0  0  0  0  0  0  0  0
   51.6782    3.9419   19.9140 H   0  0  0  0  0  0  0  0  0  0  0  0
   51.1544   10.1797   12.7307 H   0  0  0  0  0  0  0  0  0  0  0  0
   52.7961    6.5937   16.4413 H   0  0  0  0  0  0  0  0  0  0  0  0
   51.8735   11.2873   17.0596 H   0  0  0  0  0  0  0  0  0  0  0  0
   54.4831    4.6826   16.6344 H   0  0  0  0  0  0  0  0  0  0  0  0
   53.1380   12.9202   15.5288 H   0  0  0  0  0  0  0  0  0  0  0  0
   47.9018    7.9944   19.5942 H   0  0  0  0  0  0  0  0  0  0  0  0
   48.3532    6.6268   15.9437 H   0  0  0  0  0  0  0  0  0  0  0  0
   49.9157    3.9263   21.5484 H   0  0  0  0  0  0  0  0  0  0  0  0
   49.8989    8.4439   11.6109 H   0  0  0  0  0  0  0  0  0  0  0  0
   47.6639    5.5703   13.8572 H   0  0  0  0  0  0  0  0  0  0  0  0
   46.8914    6.9464   21.5383 H   0  0  0  0  0  0  0  0  0  0  0  0
   48.4314    6.4724   11.6778 H   0  0  0  0  0  0  0  0  0  0  0  0
   47.8867    4.9031   22.5314 H   0  0  0  0  0  0  0  0  0  0  0  0
   51.8356    4.4671   19.1973 H   0  0  0  0  0  0  0  0  0  0  0  0
   53.0908    4.7246   17.9864 H   0  0  0  0  0  0  0  0  0  0  0  0
   51.3075    5.4389   16.3152 H   0  0  0  0  0  0  0  0  0  0  0  0
   51.3332    3.7544   16.8017 H   0  0  0  0  0  0  0  0  0  0  0  0
   49.1606    9.2508   17.7516 H   0  0  0  0  0  0  0  0  0  0  0  0
   48.4024    8.0514   16.7438 H   0  0  0  0  0  0  0  0  0  0  0  0
   50.4871    7.8219   15.3693 H   0  0  0  0  0  0  0  0  0  0  0  0
   51.1998    9.1716   16.2496 H   0  0  0  0  0  0  0  0  0  0  0  0
   47.4841    7.1321   18.8502 H   0  0  0  0  0  0  0  0  0  0  0  0
   50.8815    9.6373   18.9117 H   0  0  0  0  0  0  0  0  0  0  0  0
   48.6092    9.2706   14.6140 H   0  0  0  0  0  0  0  0  0  0  0  0
   49.1889   10.5735   15.6493 H   0  0  0  0  0  0  0  0  0  0  0  0
   49.3055    2.7605   17.4154 H   0  0  0  0  0  0  0  0  0  0  0  0
   54.1818    6.0453   19.5878 H   0  0  0  0  0  0  0  0  0  0  0  0
   51.4187    8.4973   13.4421 H   0  0  0  0  0  0  0  0  0  0  0  0
   49.8836    8.7095   12.5564 H   0  0  0  0  0  0  0  0  0  0  0  0
   51.3209    9.6756   12.1478 H   0  0  0  0  0  0  0  0  0  0  0  0
   50.2426   11.7524   12.4175 H   0  0  0  0  0  0  0  0  0  0  0  0
   48.6838   10.9942   12.8180 H   0  0  0  0  0  0  0  0  0  0  0  0
   49.4332   12.1749   13.9211 H   0  0  0  0  0  0  0  0  0  0  0  0
   52.9999   10.1290   19.9849 H   0  0  0  0  0  0  0  0  0  0  0  0
   46.0792    5.1102   18.9706 H   0  0  0  0  0  0  0  0  0  0  0  0
   54.6681    8.3281   20.3510 H   0  0  0  0  0  0  0  0  0  0  0  0
   46.9860    2.9188   18.2427 H   0  0  0  0  0  0  0  0  0  0  0  0
  2  1  1  0
  3  1  1  0
  4  2  2  0
  5  3  2  0
  6  4  1  0
  7  5  1  0
  8  1  1  0
  9  8  1  0
 10 13  1  0
 11  3  1  0
 12  2  1  0
 13  9  1  0
 14  5  1  0
 15  4  1  0
 16 10  1  0
 17 10  1  0
 18 12  2  0
 19 11  2  0
 20 15  2  0
 21 14  2  0
  6  7  1  0
 18 20  1  0
 19 21  1  0
 23 27  2  0
 24 28  1  0
 25 26  1  0
 26 22  2  0
 27 24  1  0
 28 25  1  0
 29 22  1  0
 30 23  1  0
 31 22  1  0
 32 23  1  0
 33 24  2  0
 34 35  1  0
 35 29  2  0
 36 33  1  0
 37 31  2  0
 38 32  2  0
 39 26  1  0
 40 27  1  0
 41 31  1  0
 42 32  1  0
 43 34  1  0
 44 33  1  0
 45 35  1  0
 46 36  1  0
 47 44  2  0
 48 43  2  0
 49 47  1  0
 50 45  2  0
 25 34  2  0
 48 50  1  0
 30 36  2  0
 46 49  2  0
 52 51  1  0
 53 51  1  0
 54 52  2  0
 55 53  2  0
 56 54  1  0
 57 55  1  0
 58 51  1  0
 59 58  1  0
 60 63  1  0
 61 53  1  0
 62 52  1  0
 63 59  1  0
 64 55  1  0
 65 54  1  0
 66 60  1  0
 67 60  1  0
 68 62  2  0
 69 61  2  0
 70 65  2  0
 71 64  2  0
 56 57  1  0
 68 70  1  0
 69 71  1  0
  6 72  1  0
  6 73  1  0
  7 74  1  0
  7 75  1  0
  8 76  1  0
  8 77  1  0
  9 78  1  0
  9 79  1  0
 11 80  1  0
 12 81  1  0
 13 82  1  0
 13 83  1  0
 14 84  1  0
 15 85  1  0
 16 86  1  0
 16 87  1  0
 16 88  1  0
 17 89  1  0
 17 90  1  0
 17 91  1  0
 18 92  1  0
 19 93  1  0
 20 94  1  0
 21 95  1  0
 28 96  1  0
 28 97  1  0
 29 98  1  0
 30 99  1  0
 39100  1  0
 40101  1  0
 41102  1  0
 42103  1  0
 43104  1  0
 44105  1  0
 45106  1  0
 46107  1  0
 47108  1  0
 48109  1  0
 49110  1  0
 50111  1  0
 56112  1  0
 56113  1  0
 57114  1  0
 57115  1  0
 58116  1  0
 58117  1  0
 59118  1  0
 59119  1  0
 61120  1  0
 62121  1  0
 63122  1  0
 63123  1  0
 64124  1  0
 65125  1  0
 66126  1  0
 66127  1  0
 66128  1  0
 67129  1  0
 67130  1  0
 67131  1  0
 68132  1  0
 69133  1  0
 70134  1  0
 71135  1  0
M  END
> <Uni-Dock RESULT> 
ENERGY=   -5.930  LOWER_BOUND=    2.769  UPPER_BOUND=    5.998
INTER + INTRA:          -5.930
INTER:                  -5.930
INTRA:                   0.000
UNBOUND:                 0.000

$$$$

     RDKit          3D

135142  0  0  0  0  0  0  0  0999 V2000
   49.9460    8.4835   18.2109 N   0  0  0  0  0  0  0  0  0  0  0  0
   49.5428    8.3399   16.8415 C   0  0  0  0  0  0  0  0  0  0  0  0
   50.2798    7.4969   19.1986 C   0  0  0  0  0  0  0  0  0  0  0  0
   49.9716    7.2901   16.0090 C   0  0  0  0  0  0  0  0  0  0  0  0
   50.2440    6.0990   18.9762 C   0  0  0  0  0  0  0  0  0  0  0  0
   50.7973    6.1561   16.5372 C   0  0  0  0  0  0  0  0  0  0  0  0
   50.0072    5.4618   17.6321 C   0  0  0  0  0  0  0  0  0  0  0  0
   50.2753    9.9012   18.5456 C   0  0  0  0  0  0  0  0  0  0  0  0
   49.1785   10.5958   19.3732 C   0  0  0  0  0  0  0  0  0  0  0  0
   48.6561   12.7533   20.5590 N   0  0  0  0  0  0  0  0  0  0  0  0
   50.6294    7.8778   20.5216 C   0  0  0  0  0  0  0  0  0  0  0  0
   48.6819    9.2905   16.2414 C   0  0  0  0  0  0  0  0  0  0  0  0
   49.5418   12.0698   19.6003 C   0  0  0  0  0  0  0  0  0  0  0  0
   50.4722    5.1843   20.0389 C   0  0  0  0  0  0  0  0  0  0  0  0
   49.6049    7.2486   14.6441 C   0  0  0  0  0  0  0  0  0  0  0  0
   49.1660   14.0982   20.8416 C   0  0  0  0  0  0  0  0  0  0  0  0
   47.2744   12.8375   20.0828 C   0  0  0  0  0  0  0  0  0  0  0  0
   48.3095    9.2397   14.8933 C   0  0  0  0  0  0  0  0  0  0  0  0
   50.8785    6.9666   21.5582 C   0  0  0  0  0  0  0  0  0  0  0  0
   48.7842    8.2209   14.0881 C   0  0  0  0  0  0  0  0  0  0  0  0
   50.7849    5.6125   21.3189 C   0  0  0  0  0  0  0  0  0  0  0  0
   49.4689    6.8382   16.6503 C   0  0  0  0  0  0  0  0  0  0  0  0
   49.5779   12.8242   18.1993 C   0  0  0  0  0  0  0  0  0  0  0  0
   49.7731   10.5788   19.1540 C   0  0  0  0  0  0  0  0  0  0  0  0
   50.3923    8.0645   18.5676 C   0  0  0  0  0  0  0  0  0  0  0  0
   49.6516    8.0360   17.3637 C   0  0  0  0  0  0  0  0  0  0  0  0
   50.3307   11.6703   18.4520 C   0  0  0  0  0  0  0  0  0  0  0  0
   50.6242    9.3378   19.3887 C   0  0  0  0  0  0  0  0  0  0  0  0
   50.0487    5.6571   17.1239 C   0  0  0  0  0  0  0  0  0  0  0  0
   48.2614   12.8974   18.6659 C   0  0  0  0  0  0  0  0  0  0  0  0
   48.6952    6.7223   15.3857 C   0  0  0  0  0  0  0  0  0  0  0  0
   50.0848   14.0055   17.4571 C   0  0  0  0  0  0  0  0  0  0  0  0
   48.4236   10.6561   19.6219 C   0  0  0  0  0  0  0  0  0  0  0  0
   51.0113    6.8476   19.0238 C   0  0  0  0  0  0  0  0  0  0  0  0
   50.8182    5.6486   18.2895 C   0  0  0  0  0  0  0  0  0  0  0  0
   47.6785   11.8355   19.3698 C   0  0  0  0  0  0  0  0  0  0  0  0
   48.5699    5.7160   14.7106 O   0  0  0  0  0  0  0  0  0  0  0  0
   49.4784   15.0423   17.2565 O   0  0  0  0  0  0  0  0  0  0  0  0
   49.1243    9.2115   16.8928 O   0  0  0  0  0  0  0  0  0  0  0  0
   51.6348   11.5529   18.0345 O   0  0  0  0  0  0  0  0  0  0  0  0
   48.0935    7.8728   15.0165 O   0  0  0  0  0  0  0  0  0  0  0  0
   51.3410   13.8430   16.9885 O   0  0  0  0  0  0  0  0  0  0  0  0
   51.8323    6.7548   20.1761 C   0  0  0  0  0  0  0  0  0  0  0  0
   47.7685    9.6172   20.3260 C   0  0  0  0  0  0  0  0  0  0  0  0
   51.4067    4.4443   18.7128 C   0  0  0  0  0  0  0  0  0  0  0  0
   46.3523   11.9460   19.8203 C   0  0  0  0  0  0  0  0  0  0  0  0
   46.4477    9.7395   20.7659 C   0  0  0  0  0  0  0  0  0  0  0  0
   52.4175    5.5511   20.5844 C   0  0  0  0  0  0  0  0  0  0  0  0
   45.7403   10.9062   20.5167 C   0  0  0  0  0  0  0  0  0  0  0  0
   52.2012    4.3932   19.8539 C   0  0  0  0  0  0  0  0  0  0  0  0
   50.2793    8.3176   18.7887 N   0  0  0  0  0  0  0  0  0  0  0  0
   50.8740    8.3459   17.5049 C   0  0  0  0  0  0  0  0  0  0  0  0
   49.6761    7.2072   19.4244 C   0  0  0  0  0  0  0  0  0  0  0  0
   50.4416    7.5548   16.4168 C   0  0  0  0  0  0  0  0  0  0  0  0
   48.6295    6.4961   18.8212 C   0  0  0  0  0  0  0  0  0  0  0  0
   49.2508    6.6180   16.4270 C   0  0  0  0  0  0  0  0  0  0  0  0
   48.1587    6.8931   17.4519 C   0  0  0  0  0  0  0  0  0  0  0  0
   50.2461    9.5567   19.6004 C   0  0  0  0  0  0  0  0  0  0  0  0
   49.4570   10.6741   18.8989 C   0  0  0  0  0  0  0  0  0  0  0  0
   48.7241   13.0665   19.1582 N   0  0  0  0  0  0  0  0  0  0  0  0
   50.1173    6.7898   20.6944 C   0  0  0  0  0  0  0  0  0  0  0  0
   51.9990    9.1761   17.2813 C   0  0  0  0  0  0  0  0  0  0  0  0
   49.3123   11.8903   19.8229 C   0  0  0  0  0  0  0  0  0  0  0  0
   48.0333    5.4118   19.4890 C   0  0  0  0  0  0  0  0  0  0  0  0
   51.1450    7.6058   15.1887 C   0  0  0  0  0  0  0  0  0  0  0  0
   47.3384   12.8351   18.7437 C   0  0  0  0  0  0  0  0  0  0  0  0
   48.7863   14.2255   20.0531 C   0  0  0  0  0  0  0  0  0  0  0  0
   52.6708    9.2299   16.0575 C   0  0  0  0  0  0  0  0  0  0  0  0
   49.5292    5.7059   21.3516 C   0  0  0  0  0  0  0  0  0  0  0  0
   52.2441    8.4380   15.0071 C   0  0  0  0  0  0  0  0  0  0  0  0
   48.4825    5.0194   20.7470 C   0  0  0  0  0  0  0  0  0  0  0  0
   51.7771    6.5177   16.8744 H   0  0  0  0  0  0  0  0  0  0  0  0
   50.9938    5.4327   15.7380 H   0  0  0  0  0  0  0  0  0  0  0  0
   48.9295    5.4270   17.4277 H   0  0  0  0  0  0  0  0  0  0  0  0
   50.3495    4.4190   17.6597 H   0  0  0  0  0  0  0  0  0  0  0  0
   51.2456    9.9586   19.0575 H   0  0  0  0  0  0  0  0  0  0  0  0
   50.4610   10.4873   17.6342 H   0  0  0  0  0  0  0  0  0  0  0  0
   48.2136   10.5204   18.8655 H   0  0  0  0  0  0  0  0  0  0  0  0
   49.0381   10.1039   20.3398 H   0  0  0  0  0  0  0  0  0  0  0  0
   50.7157    8.9174   20.8154 H   0  0  0  0  0  0  0  0  0  0  0  0
   48.2592   10.1022   16.8214 H   0  0  0  0  0  0  0  0  0  0  0  0
   49.5542   12.6005   18.6384 H   0  0  0  0  0  0  0  0  0  0  0  0
   50.5658   12.1015   19.9966 H   0  0  0  0  0  0  0  0  0  0  0  0
   50.4180    4.1121   19.8548 H   0  0  0  0  0  0  0  0  0  0  0  0
   49.9547    6.4370   14.0095 H   0  0  0  0  0  0  0  0  0  0  0  0
   50.1791   14.0471   21.2571 H   0  0  0  0  0  0  0  0  0  0  0  0
   49.1913   14.7266   19.9434 H   0  0  0  0  0  0  0  0  0  0  0  0
   48.5454   14.5956   21.5958 H   0  0  0  0  0  0  0  0  0  0  0  0
   46.6546   13.3928   20.7961 H   0  0  0  0  0  0  0  0  0  0  0  0
   46.8210   11.8452   20.0029 H   0  0  0  0  0  0  0  0  0  0  0  0
   47.2029   13.3347   19.1081 H   0  0  0  0  0  0  0  0  0  0  0  0
   47.6483    9.9972   14.4835 H   0  0  0  0  0  0  0  0  0  0  0  0
   51.1301    7.3323   22.5502 H   0  0  0  0  0  0  0  0  0  0  0  0
   48.5057    8.1698   13.0397 H   0  0  0  0  0  0  0  0  0  0  0  0
   50.9635    4.8954   22.1127 H   0  0  0  0  0  0  0  0  0  0  0  0
   50.4927    9.0985   20.4533 H   0  0  0  0  0  0  0  0  0  0  0  0
   51.6885    9.5893   19.2940 H   0  0  0  0  0  0  0  0  0  0  0  0
   49.9070    4.7333   16.5630 H   0  0  0  0  0  0  0  0  0  0  0  0
   47.6794   13.7981   18.4737 H   0  0  0  0  0  0  0  0  0  0  0  0
   48.5989    9.0236   16.0901 H   0  0  0  0  0  0  0  0  0  0  0  0
   51.8374   12.3227   17.4651 H   0  0  0  0  0  0  0  0  0  0  0  0
   47.6233    7.6187   14.1901 H   0  0  0  0  0  0  0  0  0  0  0  0
   51.5185   14.7019   16.5451 H   0  0  0  0  0  0  0  0  0  0  0  0
   52.0519    7.6317   20.7802 H   0  0  0  0  0  0  0  0  0  0  0  0
   48.2785    8.6814   20.5363 H   0  0  0  0  0  0  0  0  0  0  0  0
   51.2555    3.5270   18.1455 H   0  0  0  0  0  0  0  0  0  0  0  0
   45.7794   12.8527   19.6310 H   0  0  0  0  0  0  0  0  0  0  0  0
   45.9764    8.9203   21.3032 H   0  0  0  0  0  0  0  0  0  0  0  0
   53.0430    5.5257   21.4739 H   0  0  0  0  0  0  0  0  0  0  0  0
   44.7126   11.0073   20.8565 H   0  0  0  0  0  0  0  0  0  0  0  0
   52.6526    3.4550   20.1655 H   0  0  0  0  0  0  0  0  0  0  0  0
   49.6253    5.5901   16.5355 H   0  0  0  0  0  0  0  0  0  0  0  0
   48.7696    6.6748   15.4404 H   0  0  0  0  0  0  0  0  0  0  0  0
   47.8486    7.9447   17.4461 H   0  0  0  0  0  0  0  0  0  0  0  0
   47.2679    6.3107   17.1859 H   0  0  0  0  0  0  0  0  0  0  0  0
   51.2606    9.8844   19.8542 H   0  0  0  0  0  0  0  0  0  0  0  0
   49.7555    9.3810   20.5685 H   0  0  0  0  0  0  0  0  0  0  0  0
   48.4718   10.2883   18.6148 H   0  0  0  0  0  0  0  0  0  0  0  0
   49.9610   10.9791   17.9746 H   0  0  0  0  0  0  0  0  0  0  0  0
   50.9521    7.2997   21.1696 H   0  0  0  0  0  0  0  0  0  0  0  0
   52.4044    9.7861   18.0825 H   0  0  0  0  0  0  0  0  0  0  0  0
   48.7243   11.6133   20.7067 H   0  0  0  0  0  0  0  0  0  0  0  0
   50.3144   12.1581   20.1778 H   0  0  0  0  0  0  0  0  0  0  0  0
   47.2217    4.8594   19.0209 H   0  0  0  0  0  0  0  0  0  0  0  0
   50.8237    6.9857   14.3528 H   0  0  0  0  0  0  0  0  0  0  0  0
   47.2797   12.0723   17.9559 H   0  0  0  0  0  0  0  0  0  0  0  0
   46.7039   12.5242   19.5838 H   0  0  0  0  0  0  0  0  0  0  0  0
   46.9098   13.7490   18.3096 H   0  0  0  0  0  0  0  0  0  0  0  0
   48.3496   15.1125   19.5811 H   0  0  0  0  0  0  0  0  0  0  0  0
   48.2593   14.0423   20.9994 H   0  0  0  0  0  0  0  0  0  0  0  0
   49.8314   14.4748   20.2825 H   0  0  0  0  0  0  0  0  0  0  0  0
   53.5323    9.8809   15.9378 H   0  0  0  0  0  0  0  0  0  0  0  0
   49.8987    5.3923   22.3223 H   0  0  0  0  0  0  0  0  0  0  0  0
   52.7618    8.4633   14.0519 H   0  0  0  0  0  0  0  0  0  0  0  0
   48.0218    4.1731   21.2522 H   0  0  0  0  0  0  0  0  0  0  0  0
  2  1  1  0
  3  1  1  0
  4  2  2  0
  5  3  2  0
  6  4  1  0
  7  5  1  0
  8  1  1  0
  9  8  1  0
 10 13  1  0
 11  3  1  0
 12  2  1  0
 13  9  1  0
 14  5  1  0
 15  4  1  0
 16 10  1  0
 17 10  1  0
 18 12  2  0
 19 11  2  0
 20 15  2  0
 21 14  2  0
  6  7  1  0
 18 20  1  0
 19 21  1  0
 23 27  2  0
 24 28  1  0
 25 26  1  0
 26 22  2  0
 27 24  1  0
 28 25  1  0
 29 22  1  0
 30 23  1  0
 31 22  1  0
 32 23  1  0
 33 24  2  0
 34 35  1  0
 35 29  2  0
 36 33  1  0
 37 31  2  0
 38 32  2  0
 39 26  1  0
 40 27  1  0
 41 31  1  0
 42 32  1  0
 43 34  1  0
 44 33  1  0
 45 35  1  0
 46 36  1  0
 47 44  2  0
 48 43  2  0
 49 47  1  0
 50 45  2  0
 25 34  2  0
 48 50  1  0
 30 36  2  0
 46 49  2  0
 52 51  1  0
 53 51  1  0
 54 52  2  0
 55 53  2  0
 56 54  1  0
 57 55  1  0
 58 51  1  0
 59 58  1  0
 60 63  1  0
 61 53  1  0
 62 52  1  0
 63 59  1  0
 64 55  1  0
 65 54  1  0
 66 60  1  0
 67 60  1  0
 68 62  2  0
 69 61  2  0
 70 65  2  0
 71 64  2  0
 56 57  1  0
 68 70  1  0
 69 71  1  0
  6 72  1  0
  6 73  1  0
  7 74  1  0
  7 75  1  0
  8 76  1  0
  8 77  1  0
  9 78  1  0
  9 79  1  0
 11 80  1  0
 12 81  1  0
 13 82  1  0
 13 83  1  0
 14 84  1  0
 15 85  1  0
 16 86  1  0
 16 87  1  0
 16 88  1  0
 17 89  1  0
 17 90  1  0
 17 91  1  0
 18 92  1  0
 19 93  1  0
 20 94  1  0
 21 95  1  0
 28 96  1  0
 28 97  1  0
 29 98  1  0
 30 99  1  0
 39100  1  0
 40101  1  0
 41102  1  0
 42103  1  0
 43104  1  0
 44105  1  0
 45106  1  0
 46107  1  0
 47108  1  0
 48109  1  0
 49110  1  0
 50111  1  0
 56112  1  0
 56113  1  0
 57114  1  0
 57115  1  0
 58116  1  0
 58117  1  0
 59118  1  0
 59119  1  0
 61120  1  0
 62121  1  0
 63122  1  0
 63123  1  0
 64124  1  0
 65125  1  0
 66126  1  0
 66127  1  0
 66128  1  0
 67129  1  0
 67130  1  0
 67131  1  0
 68132  1  0
 69133  1  0
 70134  1  0
 71135  1  0
M  END
> <Uni-Dock RESULT> 
ENERGY=   -5.904  LOWER_BOUND=    3.573  UPPER_BOUND=    7.763
INTER + INTRA:          -5.904
INTER:                  -5.904
INTRA:                   0.000
UNBOUND:                 0.000

$$$$

     RDKit          3D

135142  0  0  0  0  0  0  0  0999 V2000
   49.8433    9.4913   20.9174 N   0  0  0  0  0  0  0  0  0  0  0  0
   49.0875    8.4932   21.6181 C   0  0  0  0  0  0  0  0  0  0  0  0
   49.8716   10.9192   21.0618 C   0  0  0  0  0  0  0  0  0  0  0  0
   48.6953    8.6147   22.9636 C   0  0  0  0  0  0  0  0  0  0  0  0
   49.0771   11.6456   21.9815 C   0  0  0  0  0  0  0  0  0  0  0  0
   48.9361    9.8733   23.7413 C   0  0  0  0  0  0  0  0  0  0  0  0
   48.2148   11.0108   23.0407 C   0  0  0  0  0  0  0  0  0  0  0  0
   50.9184    8.8839   20.0775 C   0  0  0  0  0  0  0  0  0  0  0  0
   50.5795    8.8785   18.5756 C   0  0  0  0  0  0  0  0  0  0  0  0
   51.5464    8.2941   16.3267 N   0  0  0  0  0  0  0  0  0  0  0  0
   50.6917   11.7213   20.2241 C   0  0  0  0  0  0  0  0  0  0  0  0
   48.7064    7.2930   20.9707 C   0  0  0  0  0  0  0  0  0  0  0  0
   51.6834    8.1598   17.7875 C   0  0  0  0  0  0  0  0  0  0  0  0
   49.0741   13.0662   21.9812 C   0  0  0  0  0  0  0  0  0  0  0  0
   48.0224    7.5602   23.6227 C   0  0  0  0  0  0  0  0  0  0  0  0
   52.7199    7.7237   15.6587 C   0  0  0  0  0  0  0  0  0  0  0  0
   50.3295    7.6590   15.8180 C   0  0  0  0  0  0  0  0  0  0  0  0
   48.0284    6.2562   21.6217 C   0  0  0  0  0  0  0  0  0  0  0  0
   50.7010   13.1235   20.2491 C   0  0  0  0  0  0  0  0  0  0  0  0
   47.6967    6.3856   22.9577 C   0  0  0  0  0  0  0  0  0  0  0  0
   49.8767   13.7998   21.1225 C   0  0  0  0  0  0  0  0  0  0  0  0
   48.2170    9.3036   22.5576 C   0  0  0  0  0  0  0  0  0  0  0  0
   51.7361    6.6320   18.2306 C   0  0  0  0  0  0  0  0  0  0  0  0
   51.0042    8.8220   19.0429 C   0  0  0  0  0  0  0  0  0  0  0  0
   50.0899   10.1002   21.1829 C   0  0  0  0  0  0  0  0  0  0  0  0
   49.1570    9.0971   21.5325 C   0  0  0  0  0  0  0  0  0  0  0  0
   51.8361    7.6853   19.1485 C   0  0  0  0  0  0  0  0  0  0  0  0
   51.1364    9.9338   20.0753 C   0  0  0  0  0  0  0  0  0  0  0  0
   48.2174   10.5116   23.2619 C   0  0  0  0  0  0  0  0  0  0  0  0
   50.8090    6.7203   17.1870 C   0  0  0  0  0  0  0  0  0  0  0  0
   47.1971    8.3058   22.9766 C   0  0  0  0  0  0  0  0  0  0  0  0
   52.5613    5.3993   18.2816 C   0  0  0  0  0  0  0  0  0  0  0  0
   50.0524    8.9033   17.9782 C   0  0  0  0  0  0  0  0  0  0  0  0
   50.1001   11.3246   21.9397 C   0  0  0  0  0  0  0  0  0  0  0  0
   49.1455   11.5145   22.9725 C   0  0  0  0  0  0  0  0  0  0  0  0
   49.9717    7.8352   17.0495 C   0  0  0  0  0  0  0  0  0  0  0  0
   46.4111    8.4272   23.8994 O   0  0  0  0  0  0  0  0  0  0  0  0
   52.5359    4.4840   17.4787 O   0  0  0  0  0  0  0  0  0  0  0  0
   49.1977    7.9032   20.8583 O   0  0  0  0  0  0  0  0  0  0  0  0
   52.7431    7.6601   20.1807 O   0  0  0  0  0  0  0  0  0  0  0  0
   47.1899    7.1920   22.2141 O   0  0  0  0  0  0  0  0  0  0  0  0
   53.3930    5.3571   19.3449 O   0  0  0  0  0  0  0  0  0  0  0  0
   51.0245   12.3801   21.7350 C   0  0  0  0  0  0  0  0  0  0  0  0
   49.1674    9.9919   17.7881 C   0  0  0  0  0  0  0  0  0  0  0  0
   49.1286   12.7013   23.7257 C   0  0  0  0  0  0  0  0  0  0  0  0
   49.0516    7.8860   15.9890 C   0  0  0  0  0  0  0  0  0  0  0  0
   48.2549   10.0279   16.7302 C   0  0  0  0  0  0  0  0  0  0  0  0
   51.0012   13.5548   22.4951 C   0  0  0  0  0  0  0  0  0  0  0  0
   48.1997    8.9763   15.8276 C   0  0  0  0  0  0  0  0  0  0  0  0
   50.0494   13.7173   23.4894 C   0  0  0  0  0  0  0  0  0  0  0  0
   50.1819   10.0846   20.8408 N   0  0  0  0  0  0  0  0  0  0  0  0
   50.3566    9.2021   21.9331 C   0  0  0  0  0  0  0  0  0  0  0  0
   49.2859   11.1763   20.7618 C   0  0  0  0  0  0  0  0  0  0  0  0
   49.3208    8.8260   22.8178 C   0  0  0  0  0  0  0  0  0  0  0  0
   47.9094   11.0120   20.9698 C   0  0  0  0  0  0  0  0  0  0  0  0
   47.8687    9.2426   22.7020 C   0  0  0  0  0  0  0  0  0  0  0  0
   47.3718    9.6554   21.3230 C   0  0  0  0  0  0  0  0  0  0  0  0
   50.9903    9.8901   19.6144 C   0  0  0  0  0  0  0  0  0  0  0  0
   50.7269    8.5184   18.9722 C   0  0  0  0  0  0  0  0  0  0  0  0
   51.4018    7.0552   17.0405 N   0  0  0  0  0  0  0  0  0  0  0  0
   49.7634   12.4670   20.4649 C   0  0  0  0  0  0  0  0  0  0  0  0
   51.6458    8.6837   22.2049 C   0  0  0  0  0  0  0  0  0  0  0  0
   51.4607    8.4045   17.6297 C   0  0  0  0  0  0  0  0  0  0  0  0
   47.0406   12.1121   20.8600 C   0  0  0  0  0  0  0  0  0  0  0  0
   49.6108    7.9883   23.9223 C   0  0  0  0  0  0  0  0  0  0  0  0
   50.0375    6.6687   16.6731 C   0  0  0  0  0  0  0  0  0  0  0  0
   52.2696    6.9900   15.8612 C   0  0  0  0  0  0  0  0  0  0  0  0
   51.9123    7.8423   23.2879 C   0  0  0  0  0  0  0  0  0  0  0  0
   48.8987   13.5602   20.3658 C   0  0  0  0  0  0  0  0  0  0  0  0
   50.8906    7.4959   24.1531 C   0  0  0  0  0  0  0  0  0  0  0  0
   47.5342   13.3790   20.5604 C   0  0  0  0  0  0  0  0  0  0  0  0
   50.0122   10.0523   23.8603 H   0  0  0  0  0  0  0  0  0  0  0  0
   48.5264    9.7721   24.7525 H   0  0  0  0  0  0  0  0  0  0  0  0
   47.2575   10.7052   22.5994 H   0  0  0  0  0  0  0  0  0  0  0  0
   47.9754   11.7576   23.8091 H   0  0  0  0  0  0  0  0  0  0  0  0
   51.8775    9.3877   20.2593 H   0  0  0  0  0  0  0  0  0  0  0  0
   51.1344    7.8551   20.3991 H   0  0  0  0  0  0  0  0  0  0  0  0
   49.6169    8.3902   18.4045 H   0  0  0  0  0  0  0  0  0  0  0  0
   50.4627    9.8955   18.1907 H   0  0  0  0  0  0  0  0  0  0  0  0
   51.3646   11.2868   19.4941 H   0  0  0  0  0  0  0  0  0  0  0  0
   48.9183    7.1366   19.9197 H   0  0  0  0  0  0  0  0  0  0  0  0
   51.7158    7.1006   18.0777 H   0  0  0  0  0  0  0  0  0  0  0  0
   52.6441    8.6024   18.0841 H   0  0  0  0  0  0  0  0  0  0  0  0
   48.4392   13.6090   22.6803 H   0  0  0  0  0  0  0  0  0  0  0  0
   47.7365    7.6638   24.6673 H   0  0  0  0  0  0  0  0  0  0  0  0
   53.6345    8.2322   15.9851 H   0  0  0  0  0  0  0  0  0  0  0  0
   52.8286    6.6515   15.8607 H   0  0  0  0  0  0  0  0  0  0  0  0
   52.6543    7.8676   14.5740 H   0  0  0  0  0  0  0  0  0  0  0  0
   50.2835    7.7352   14.7255 H   0  0  0  0  0  0  0  0  0  0  0  0
   49.4332    8.1635   16.1902 H   0  0  0  0  0  0  0  0  0  0  0  0
   50.2726    6.5982   16.0895 H   0  0  0  0  0  0  0  0  0  0  0  0
   47.7627    5.3549   21.0774 H   0  0  0  0  0  0  0  0  0  0  0  0
   51.3477   13.6717   19.5693 H   0  0  0  0  0  0  0  0  0  0  0  0
   47.1727    5.5885   23.4766 H   0  0  0  0  0  0  0  0  0  0  0  0
   49.8640   14.8841   21.1462 H   0  0  0  0  0  0  0  0  0  0  0  0
   51.1800   10.8632   19.4902 H   0  0  0  0  0  0  0  0  0  0  0  0
   52.1156    9.8741   20.5677 H   0  0  0  0  0  0  0  0  0  0  0  0
   47.4890   10.6627   24.0586 H   0  0  0  0  0  0  0  0  0  0  0  0
   50.7369    5.9029   16.4704 H   0  0  0  0  0  0  0  0  0  0  0  0
   48.4641    7.3379   21.1714 H   0  0  0  0  0  0  0  0  0  0  0  0
   53.1538    6.7719   20.1969 H   0  0  0  0  0  0  0  0  0  0  0  0
   46.4622    6.6605   22.6097 H   0  0  0  0  0  0  0  0  0  0  0  0
   53.8604    4.5018   19.2192 H   0  0  0  0  0  0  0  0  0  0  0  0
   51.8043   12.3041   20.9812 H   0  0  0  0  0  0  0  0  0  0  0  0
   49.1672   10.8337   18.4745 H   0  0  0  0  0  0  0  0  0  0  0  0
   48.3940   12.8419   24.5174 H   0  0  0  0  0  0  0  0  0  0  0  0
   48.9907    7.0683   15.2722 H   0  0  0  0  0  0  0  0  0  0  0  0
   47.5898   10.8802   16.6159 H   0  0  0  0  0  0  0  0  0  0  0  0
   51.7314   14.3384   22.3060 H   0  0  0  0  0  0  0  0  0  0  0  0
   47.4920    8.9986   15.0026 H   0  0  0  0  0  0  0  0  0  0  0  0
   50.0256   14.6270   24.0834 H   0  0  0  0  0  0  0  0  0  0  0  0
   47.6841   10.0455   23.4299 H   0  0  0  0  0  0  0  0  0  0  0  0
   47.2483    8.3894   23.0109 H   0  0  0  0  0  0  0  0  0  0  0  0
   47.6477    8.9246   20.5538 H   0  0  0  0  0  0  0  0  0  0  0  0
   46.2753    9.6861   21.3358 H   0  0  0  0  0  0  0  0  0  0  0  0
   52.0565   10.0342   19.8229 H   0  0  0  0  0  0  0  0  0  0  0  0
   50.7457   10.6480   18.8564 H   0  0  0  0  0  0  0  0  0  0  0  0
   49.6476    8.3938   18.8317 H   0  0  0  0  0  0  0  0  0  0  0  0
   51.0591    7.7123   19.6364 H   0  0  0  0  0  0  0  0  0  0  0  0
   50.8306   12.6305   20.3354 H   0  0  0  0  0  0  0  0  0  0  0  0
   52.4940    8.9571   21.5850 H   0  0  0  0  0  0  0  0  0  0  0  0
   51.0629    9.1487   16.9285 H   0  0  0  0  0  0  0  0  0  0  0  0
   52.5123    8.6608   17.8039 H   0  0  0  0  0  0  0  0  0  0  0  0
   45.9727   11.9851   21.0221 H   0  0  0  0  0  0  0  0  0  0  0  0
   48.8178    7.7092   24.6149 H   0  0  0  0  0  0  0  0  0  0  0  0
   49.4008    6.5599   17.5611 H   0  0  0  0  0  0  0  0  0  0  0  0
   49.5732    7.3943   15.9927 H   0  0  0  0  0  0  0  0  0  0  0  0
   50.0364    5.6865   16.1804 H   0  0  0  0  0  0  0  0  0  0  0  0
   52.2383    5.9955   15.4027 H   0  0  0  0  0  0  0  0  0  0  0  0
   51.9856    7.7305   15.1010 H   0  0  0  0  0  0  0  0  0  0  0  0
   53.3150    7.1712   16.1462 H   0  0  0  0  0  0  0  0  0  0  0  0
   52.9205    7.4740   23.4558 H   0  0  0  0  0  0  0  0  0  0  0  0
   49.2929   14.5485   20.1533 H   0  0  0  0  0  0  0  0  0  0  0  0
   51.0845    6.8487   25.0044 H   0  0  0  0  0  0  0  0  0  0  0  0
   46.8558   14.2265   20.4871 H   0  0  0  0  0  0  0  0  0  0  0  0
  2  1  1  0
  3  1  1  0
  4  2  2  0
  5  3  2  0
  6  4  1  0
  7  5  1  0
  8  1  1  0
  9  8  1  0
 10 13  1  0
 11  3  1  0
 12  2  1  0
 13  9  1  0
 14  5  1  0
 15  4  1  0
 16 10  1  0
 17 10  1  0
 18 12  2  0
 19 11  2  0
 20 15  2  0
 21 14  2  0
  6  7  1  0
 18 20  1  0
 19 21  1  0
 23 27  2  0
 24 28  1  0
 25 26  1  0
 26 22  2  0
 27 24  1  0
 28 25  1  0
 29 22  1  0
 30 23  1  0
 31 22  1  0
 32 23  1  0
 33 24  2  0
 34 35  1  0
 35 29  2  0
 36 33  1  0
 37 31  2  0
 38 32  2  0
 39 26  1  0
 40 27  1  0
 41 31  1  0
 42 32  1  0
 43 34  1  0
 44 33  1  0
 45 35  1  0
 46 36  1  0
 47 44  2  0
 48 43  2  0
 49 47  1  0
 50 45  2  0
 25 34  2  0
 48 50  1  0
 30 36  2  0
 46 49  2  0
 52 51  1  0
 53 51  1  0
 54 52  2  0
 55 53  2  0
 56 54  1  0
 57 55  1  0
 58 51  1  0
 59 58  1  0
 60 63  1  0
 61 53  1  0
 62 52  1  0
 63 59  1  0
 64 55  1  0
 65 54  1  0
 66 60  1  0
 67 60  1  0
 68 62  2  0
 69 61  2  0
 70 65  2  0
 71 64  2  0
 56 57  1  0
 68 70  1  0
 69 71  1  0
  6 72  1  0
  6 73  1  0
  7 74  1  0
  7 75  1  0
  8 76  1  0
  8 77  1  0
  9 78  1  0
  9 79  1  0
 11 80  1  0
 12 81  1  0
 13 82  1  0
 13 83  1  0
 14 84  1  0
 15 85  1  0
 16 86  1  0
 16 87  1  0
 16 88  1  0
 17 89  1  0
 17 90  1  0
 17 91  1  0
 18 92  1  0
 19 93  1  0
 20 94  1  0
 21 95  1  0
 28 96  1  0
 28 97  1  0
 29 98  1  0
 30 99  1  0
 39100  1  0
 40101  1  0
 41102  1  0
 42103  1  0
 43104  1  0
 44105  1  0
 45106  1  0
 46107  1  0
 47108  1  0
 48109  1  0
 49110  1  0
 50111  1  0
 56112  1  0
 56113  1  0
 57114  1  0
 57115  1  0
 58116  1  0
 58117  1  0
 59118  1  0
 59119  1  0
 61120  1  0
 62121  1  0
 63122  1  0
 63123  1  0
 64124  1  0
 65125  1  0
 66126  1  0
 66127  1  0
 66128  1  0
 67129  1  0
 67130  1  0
 67131  1  0
 68132  1  0
 69133  1  0
 70134  1  0
 71135  1  0
M  END
> <Uni-Dock RESULT> 
ENERGY=   -5.849  LOWER_BOUND=    3.247  UPPER_BOUND=    5.753
INTER + INTRA:          -5.849
INTER:                  -5.849
INTRA:                   0.000
UNBOUND:                 0.000

$$$$

     RDKit          3D

135142  0  0  0  0  0  0  0  0999 V2000
   51.2269    5.9765   18.8844 N   0  0  0  0  0  0  0  0  0  0  0  0
   51.6976    7.2877   18.5416 C   0  0  0  0  0  0  0  0  0  0  0  0
   50.0387    5.2739   18.4905 C   0  0  0  0  0  0  0  0  0  0  0  0
   51.4386    7.9104   17.3071 C   0  0  0  0  0  0  0  0  0  0  0  0
   49.0375    5.8085   17.6439 C   0  0  0  0  0  0  0  0  0  0  0  0
   50.5311    7.2888   16.2889 C   0  0  0  0  0  0  0  0  0  0  0  0
   49.1581    7.1209   16.9147 C   0  0  0  0  0  0  0  0  0  0  0  0
   52.2794    5.1731   19.5751 C   0  0  0  0  0  0  0  0  0  0  0  0
   52.0459    5.0504   21.0920 C   0  0  0  0  0  0  0  0  0  0  0  0
   52.9669    3.9455   23.1571 N   0  0  0  0  0  0  0  0  0  0  0  0
   49.7627    3.9717   18.9861 C   0  0  0  0  0  0  0  0  0  0  0  0
   52.4863    8.0303   19.4534 C   0  0  0  0  0  0  0  0  0  0  0  0
   53.2099    4.2931   21.7462 C   0  0  0  0  0  0  0  0  0  0  0  0
   47.8333    5.0964   17.3969 C   0  0  0  0  0  0  0  0  0  0  0  0
   51.9995    9.1707   16.9967 C   0  0  0  0  0  0  0  0  0  0  0  0
   54.0470    3.0888   23.6553 C   0  0  0  0  0  0  0  0  0  0  0  0
   52.8388    5.1278   24.0108 C   0  0  0  0  0  0  0  0  0  0  0  0
   53.0293    9.2836   19.1489 C   0  0  0  0  0  0  0  0  0  0  0  0
   48.5815    3.2656   18.7153 C   0  0  0  0  0  0  0  0  0  0  0  0
   52.7953    9.8502   17.9096 C   0  0  0  0  0  0  0  0  0  0  0  0
   47.6052    3.8374   17.9283 C   0  0  0  0  0  0  0  0  0  0  0  0
   50.5858    7.8478   17.6771 C   0  0  0  0  0  0  0  0  0  0  0  0
   54.5483    5.1373   21.5754 C   0  0  0  0  0  0  0  0  0  0  0  0
   52.3373    4.8555   20.5638 C   0  0  0  0  0  0  0  0  0  0  0  0
   50.8526    5.5390   18.4714 C   0  0  0  0  0  0  0  0  0  0  0  0
   51.2201    6.9039   18.5041 C   0  0  0  0  0  0  0  0  0  0  0  0
   53.7452    4.7722   20.4873 C   0  0  0  0  0  0  0  0  0  0  0  0
   51.5063    4.4653   19.3486 C   0  0  0  0  0  0  0  0  0  0  0  0
   49.5906    7.4292   16.7884 C   0  0  0  0  0  0  0  0  0  0  0  0
   53.9410    5.5740   22.7572 C   0  0  0  0  0  0  0  0  0  0  0  0
   50.9052    9.3000   17.6602 C   0  0  0  0  0  0  0  0  0  0  0  0
   56.0319    5.0930   21.5697 C   0  0  0  0  0  0  0  0  0  0  0  0
   51.7219    5.3103   21.7723 C   0  0  0  0  0  0  0  0  0  0  0  0
   49.8508    5.1183   17.5272 C   0  0  0  0  0  0  0  0  0  0  0  0
   49.2232    6.0847   16.6987 C   0  0  0  0  0  0  0  0  0  0  0  0
   52.5474    5.6641   22.8693 C   0  0  0  0  0  0  0  0  0  0  0  0
   50.4208   10.1327   16.9145 O   0  0  0  0  0  0  0  0  0  0  0  0
   56.7622    5.3584   22.5074 O   0  0  0  0  0  0  0  0  0  0  0  0
   52.2262    7.2896   19.3528 O   0  0  0  0  0  0  0  0  0  0  0  0
   54.2880    4.3172   19.3096 O   0  0  0  0  0  0  0  0  0  0  0  0
   51.8147    9.6611   18.5899 O   0  0  0  0  0  0  0  0  0  0  0  0
   56.5504    4.7169   20.3806 O   0  0  0  0  0  0  0  0  0  0  0  0
   49.4401    3.7731   17.3477 C   0  0  0  0  0  0  0  0  0  0  0  0
   50.3232    5.4388   21.9495 C   0  0  0  0  0  0  0  0  0  0  0  0
   48.2387    5.7042   15.7704 C   0  0  0  0  0  0  0  0  0  0  0  0
   51.9748    6.1094   24.0725 C   0  0  0  0  0  0  0  0  0  0  0  0
   49.7673    5.8859   23.1512 C   0  0  0  0  0  0  0  0  0  0  0  0
   48.4628    3.4059   16.4161 C   0  0  0  0  0  0  0  0  0  0  0  0
   50.5933    6.2175   24.2149 C   0  0  0  0  0  0  0  0  0  0  0  0
   47.8583    4.3733   15.6288 C   0  0  0  0  0  0  0  0  0  0  0  0
   50.9014    5.3794   18.7842 N   0  0  0  0  0  0  0  0  0  0  0  0
   51.7835    5.9733   17.8506 C   0  0  0  0  0  0  0  0  0  0  0  0
   49.4984    5.5451   18.8562 C   0  0  0  0  0  0  0  0  0  0  0  0
   51.5862    7.2511   17.2803 C   0  0  0  0  0  0  0  0  0  0  0  0
   48.9148    6.8145   18.9711 C   0  0  0  0  0  0  0  0  0  0  0  0
   50.4581    8.2034   17.6213 C   0  0  0  0  0  0  0  0  0  0  0  0
   49.7915    8.0333   18.9798 C   0  0  0  0  0  0  0  0  0  0  0  0
   51.4478    4.4834   19.8303 C   0  0  0  0  0  0  0  0  0  0  0  0
   52.4443    5.2171   20.7425 C   0  0  0  0  0  0  0  0  0  0  0  0
   53.9665    4.8792   22.7165 N   0  0  0  0  0  0  0  0  0  0  0  0
   48.6479    4.4240   18.8174 C   0  0  0  0  0  0  0  0  0  0  0  0
   52.9173    5.2480   17.4112 C   0  0  0  0  0  0  0  0  0  0  0  0
   52.8784    4.3106   21.9017 C   0  0  0  0  0  0  0  0  0  0  0  0
   47.5180    6.9453   19.0656 C   0  0  0  0  0  0  0  0  0  0  0  0
   52.4920    7.7311   16.3032 C   0  0  0  0  0  0  0  0  0  0  0  0
   53.5552    6.0955   23.4214 C   0  0  0  0  0  0  0  0  0  0  0  0
   54.4368    3.8821   23.6822 C   0  0  0  0  0  0  0  0  0  0  0  0
   53.8130    5.7434   16.4602 C   0  0  0  0  0  0  0  0  0  0  0  0
   47.2595    4.5579   18.9019 C   0  0  0  0  0  0  0  0  0  0  0  0
   53.5973    6.9895   15.9006 C   0  0  0  0  0  0  0  0  0  0  0  0
   46.6960    5.8222   19.0301 C   0  0  0  0  0  0  0  0  0  0  0  0
   50.9555    6.3467   15.9191 H   0  0  0  0  0  0  0  0  0  0  0  0
   50.4384    7.9480   15.4185 H   0  0  0  0  0  0  0  0  0  0  0  0
   48.8915    7.9424   17.5920 H   0  0  0  0  0  0  0  0  0  0  0  0
   48.4285    7.1485   16.0947 H   0  0  0  0  0  0  0  0  0  0  0  0
   52.3691    4.1806   19.1126 H   0  0  0  0  0  0  0  0  0  0  0  0
   53.2774    5.5995   19.4001 H   0  0  0  0  0  0  0  0  0  0  0  0
   51.9416    6.0407   21.5422 H   0  0  0  0  0  0  0  0  0  0  0  0
   51.1081    4.5314   21.3092 H   0  0  0  0  0  0  0  0  0  0  0  0
   50.4595    3.4412   19.6244 H   0  0  0  0  0  0  0  0  0  0  0  0
   52.6906    7.6523   20.4481 H   0  0  0  0  0  0  0  0  0  0  0  0
   54.1349    4.8772   21.6449 H   0  0  0  0  0  0  0  0  0  0  0  0
   53.3568    3.3611   21.1836 H   0  0  0  0  0  0  0  0  0  0  0  0
   47.0638    5.5330   16.7615 H   0  0  0  0  0  0  0  0  0  0  0  0
   51.8004    9.6343   16.0329 H   0  0  0  0  0  0  0  0  0  0  0  0
   54.1147    2.1695   23.0622 H   0  0  0  0  0  0  0  0  0  0  0  0
   55.0202    3.5929   23.6254 H   0  0  0  0  0  0  0  0  0  0  0  0
   53.8484    2.7787   24.6878 H   0  0  0  0  0  0  0  0  0  0  0  0
   52.7076    4.8336   25.0585 H   0  0  0  0  0  0  0  0  0  0  0  0
   51.9502    5.7104   23.7510 H   0  0  0  0  0  0  0  0  0  0  0  0
   53.7171    5.7810   23.9464 H   0  0  0  0  0  0  0  0  0  0  0  0
   53.6301    9.8089   19.8853 H   0  0  0  0  0  0  0  0  0  0  0  0
   48.4345    2.2759   19.1394 H   0  0  0  0  0  0  0  0  0  0  0  0
   53.2119   10.8211   17.6583 H   0  0  0  0  0  0  0  0  0  0  0  0
   46.6815    3.3089   17.7189 H   0  0  0  0  0  0  0  0  0  0  0  0
   50.7199    3.8049   19.7405 H   0  0  0  0  0  0  0  0  0  0  0  0
   52.0956    3.8233   18.6813 H   0  0  0  0  0  0  0  0  0  0  0  0
   49.1068    8.1657   16.1469 H   0  0  0  0  0  0  0  0  0  0  0  0
   54.5670    5.8517   23.6045 H   0  0  0  0  0  0  0  0  0  0  0  0
   52.3274    8.2607   19.3028 H   0  0  0  0  0  0  0  0  0  0  0  0
   55.2586    4.4309   19.3635 H   0  0  0  0  0  0  0  0  0  0  0  0
   51.8936   10.6326   18.4534 H   0  0  0  0  0  0  0  0  0  0  0  0
   57.5177    4.7293   20.5535 H   0  0  0  0  0  0  0  0  0  0  0  0
   49.8893    2.9681   17.9242 H   0  0  0  0  0  0  0  0  0  0  0  0
   49.6370    5.2001   21.1420 H   0  0  0  0  0  0  0  0  0  0  0  0
   47.7603    6.4498   15.1368 H   0  0  0  0  0  0  0  0  0  0  0  0
   52.6070    6.3780   24.9177 H   0  0  0  0  0  0  0  0  0  0  0  0
   48.6882    5.9729   23.2509 H   0  0  0  0  0  0  0  0  0  0  0  0
   48.1797    2.3611   16.3093 H   0  0  0  0  0  0  0  0  0  0  0  0
   50.1667    6.5658   25.1522 H   0  0  0  0  0  0  0  0  0  0  0  0
   47.0985    4.0950   14.9034 H   0  0  0  0  0  0  0  0  0  0  0  0
   49.7086    8.1469   16.8190 H   0  0  0  0  0  0  0  0  0  0  0  0
   50.8629    9.2251   17.6020 H   0  0  0  0  0  0  0  0  0  0  0  0
   50.5269    7.9674   19.7902 H   0  0  0  0  0  0  0  0  0  0  0  0
   49.1839    8.9220   19.1904 H   0  0  0  0  0  0  0  0  0  0  0  0
   51.9000    3.5911   19.3825 H   0  0  0  0  0  0  0  0  0  0  0  0
   50.6470    4.0995   20.4784 H   0  0  0  0  0  0  0  0  0  0  0  0
   51.9714    6.1286   21.1241 H   0  0  0  0  0  0  0  0  0  0  0  0
   53.3288    5.5280   20.1747 H   0  0  0  0  0  0  0  0  0  0  0  0
   49.0711    3.4303   18.6913 H   0  0  0  0  0  0  0  0  0  0  0  0
   53.1122    4.2471   17.7836 H   0  0  0  0  0  0  0  0  0  0  0  0
   52.0101    4.0746   22.5295 H   0  0  0  0  0  0  0  0  0  0  0  0
   53.2265    3.3646   21.4704 H   0  0  0  0  0  0  0  0  0  0  0  0
   47.0648    7.9301   19.1540 H   0  0  0  0  0  0  0  0  0  0  0  0
   52.3341    8.7090   15.8503 H   0  0  0  0  0  0  0  0  0  0  0  0
   53.3437    6.9120   22.7182 H   0  0  0  0  0  0  0  0  0  0  0  0
   52.6681    5.9291   24.0462 H   0  0  0  0  0  0  0  0  0  0  0  0
   54.3670    6.4580   24.0672 H   0  0  0  0  0  0  0  0  0  0  0  0
   55.2444    4.2847   24.3035 H   0  0  0  0  0  0  0  0  0  0  0  0
   53.6298    3.5387   24.3437 H   0  0  0  0  0  0  0  0  0  0  0  0
   54.8495    3.0088   23.1587 H   0  0  0  0  0  0  0  0  0  0  0  0
   54.6665    5.1455   16.1531 H   0  0  0  0  0  0  0  0  0  0  0  0
   46.6240    3.6799   18.8519 H   0  0  0  0  0  0  0  0  0  0  0  0
   54.2810    7.3844   15.1540 H   0  0  0  0  0  0  0  0  0  0  0  0
   45.6156    5.9336   19.0940 H   0  0  0  0  0  0  0  0  0  0  0  0
  2  1  1  0
  3  1  1  0
  4  2  2  0
  5  3  2  0
  6  4  1  0
  7  5  1  0
  8  1  1  0
  9  8  1  0
 10 13  1  0
 11  3  1  0
 12  2  1  0
 13  9  1  0
 14  5  1  0
 15  4  1  0
 16 10  1  0
 17 10  1  0
 18 12  2  0
 19 11  2  0
 20 15  2  0
 21 14  2  0
  6  7  1  0
 18 20  1  0
 19 21  1  0
 23 27  2  0
 24 28  1  0
 25 26  1  0
 26 22  2  0
 27 24  1  0
 28 25  1  0
 29 22  1  0
 30 23  1  0
 31 22  1  0
 32 23  1  0
 33 24  2  0
 34 35  1  0
 35 29  2  0
 36 33  1  0
 37 31  2  0
 38 32  2  0
 39 26  1  0
 40 27  1  0
 41 31  1  0
 42 32  1  0
 43 34  1  0
 44 33  1  0
 45 35  1  0
 46 36  1  0
 47 44  2  0
 48 43  2  0
 49 47  1  0
 50 45  2  0
 25 34  2  0
 48 50  1  0
 30 36  2  0
 46 49  2  0
 52 51  1  0
 53 51  1  0
 54 52  2  0
 55 53  2  0
 56 54  1  0
 57 55  1  0
 58 51  1  0
 59 58  1  0
 60 63  1  0
 61 53  1  0
 62 52  1  0
 63 59  1  0
 64 55  1  0
 65 54  1  0
 66 60  1  0
 67 60  1  0
 68 62  2  0
 69 61  2  0
 70 65  2  0
 71 64  2  0
 56 57  1  0
 68 70  1  0
 69 71  1  0
  6 72  1  0
  6 73  1  0
  7 74  1  0
  7 75  1  0
  8 76  1  0
  8 77  1  0
  9 78  1  0
  9 79  1  0
 11 80  1  0
 12 81  1  0
 13 82  1  0
 13 83  1  0
 14 84  1  0
 15 85  1  0
 16 86  1  0
 16 87  1  0
 16 88  1  0
 17 89  1  0
 17 90  1  0
 17 91  1  0
 18 92  1  0
 19 93  1  0
 20 94  1  0
 21 95  1  0
 28 96  1  0
 28 97  1  0
 29 98  1  0
 30 99  1  0
 39100  1  0
 40101  1  0
 41102  1  0
 42103  1  0
 43104  1  0
 44105  1  0
 45106  1  0
 46107  1  0
 47108  1  0
 48109  1  0
 49110  1  0
 50111  1  0
 56112  1  0
 56113  1  0
 57114  1  0
 57115  1  0
 58116  1  0
 58117  1  0
 59118  1  0
 59119  1  0
 61120  1  0
 62121  1  0
 63122  1  0
 63123  1  0
 64124  1  0
 65125  1  0
 66126  1  0
 66127  1  0
 66128  1  0
 67129  1  0
 67130  1  0
 67131  1  0
 68132  1  0
 69133  1  0
 70134  1  0
 71135  1  0
M  END
> <Uni-Dock RESULT> 
ENERGY=   -5.847  LOWER_BOUND=    2.205  UPPER_BOUND=    4.473
INTER + INTRA:          -5.847
INTER:                  -5.847
INTRA:                   0.000
UNBOUND:                 0.000

$$$$

     RDKit          3D

135142  0  0  0  0  0  0  0  0999 V2000
   50.0444    7.9404   16.9118 N   0  0  0  0  0  0  0  0  0  0  0  0
   51.4041    7.8447   16.4638 C   0  0  0  0  0  0  0  0  0  0  0  0
   49.4289    7.5166   18.1373 C   0  0  0  0  0  0  0  0  0  0  0  0
   52.5138    7.8881   17.3272 C   0  0  0  0  0  0  0  0  0  0  0  0
   50.1116    6.8592   19.1893 C   0  0  0  0  0  0  0  0  0  0  0  0
   52.3495    7.9134   18.8168 C   0  0  0  0  0  0  0  0  0  0  0  0
   51.6037    6.6586   19.2346 C   0  0  0  0  0  0  0  0  0  0  0  0
   49.2316    8.8294   16.0291 C   0  0  0  0  0  0  0  0  0  0  0  0
   48.2873    8.0511   15.0947 C   0  0  0  0  0  0  0  0  0  0  0  0
   46.4777    8.3851   13.3779 N   0  0  0  0  0  0  0  0  0  0  0  0
   48.0361    7.6929   18.3536 C   0  0  0  0  0  0  0  0  0  0  0  0
   51.7001    7.7173   15.0850 C   0  0  0  0  0  0  0  0  0  0  0  0
   47.5543    9.0207   14.1572 C   0  0  0  0  0  0  0  0  0  0  0  0
   49.4078    6.3640   20.3196 C   0  0  0  0  0  0  0  0  0  0  0  0
   53.8326    7.8718   16.8174 C   0  0  0  0  0  0  0  0  0  0  0  0
   45.7273    9.4032   12.6368 C   0  0  0  0  0  0  0  0  0  0  0  0
   46.9816    7.3695   12.4518 C   0  0  0  0  0  0  0  0  0  0  0  0
   53.0064    7.6878   14.5840 C   0  0  0  0  0  0  0  0  0  0  0  0
   47.3544    7.2230   19.4856 C   0  0  0  0  0  0  0  0  0  0  0  0
   54.0773    7.7788   15.4537 C   0  0  0  0  0  0  0  0  0  0  0  0
   48.0417    6.5419   20.4670 C   0  0  0  0  0  0  0  0  0  0  0  0
   52.0948    7.0976   17.5871 C   0  0  0  0  0  0  0  0  0  0  0  0
   48.6137    9.7388   13.2110 C   0  0  0  0  0  0  0  0  0  0  0  0
   48.4623    8.5949   15.3696 C   0  0  0  0  0  0  0  0  0  0  0  0
   49.8233    8.0317   17.5787 C   0  0  0  0  0  0  0  0  0  0  0  0
   51.0094    7.6692   16.8999 C   0  0  0  0  0  0  0  0  0  0  0  0
   48.7194    9.7561   14.6076 C   0  0  0  0  0  0  0  0  0  0  0  0
   48.6082    8.6569   16.8843 C   0  0  0  0  0  0  0  0  0  0  0  0
   52.0127    6.9049   18.9697 C   0  0  0  0  0  0  0  0  0  0  0  0
   48.2317    8.5565   12.5688 C   0  0  0  0  0  0  0  0  0  0  0  0
   53.3694    6.6788   16.9458 C   0  0  0  0  0  0  0  0  0  0  0  0
   48.8813   10.9100   12.3392 C   0  0  0  0  0  0  0  0  0  0  0  0
   48.0797    7.3864   14.7069 C   0  0  0  0  0  0  0  0  0  0  0  0
   49.7672    7.8589   19.0067 C   0  0  0  0  0  0  0  0  0  0  0  0
   50.8733    7.2826   19.6838 C   0  0  0  0  0  0  0  0  0  0  0  0
   47.9645    7.3878   13.2939 C   0  0  0  0  0  0  0  0  0  0  0  0
   54.3507    6.2396   17.5187 O   0  0  0  0  0  0  0  0  0  0  0  0
   48.7573   10.9475   11.1284 O   0  0  0  0  0  0  0  0  0  0  0  0
   51.0876    7.9028   15.5506 O   0  0  0  0  0  0  0  0  0  0  0  0
   49.0710   10.8952   15.2913 O   0  0  0  0  0  0  0  0  0  0  0  0
   53.3651    6.8140   15.6028 O   0  0  0  0  0  0  0  0  0  0  0  0
   49.2991   11.9986   13.0208 O   0  0  0  0  0  0  0  0  0  0  0  0
   48.6656    8.2422   19.8129 C   0  0  0  0  0  0  0  0  0  0  0  0
   47.8090    6.1679   15.3751 C   0  0  0  0  0  0  0  0  0  0  0  0
   50.8457    7.0977   21.0770 C   0  0  0  0  0  0  0  0  0  0  0  0
   47.5855    6.2192   12.6125 C   0  0  0  0  0  0  0  0  0  0  0  0
   47.4357    5.0119   14.6842 C   0  0  0  0  0  0  0  0  0  0  0  0
   48.6520    8.0581   21.2000 C   0  0  0  0  0  0  0  0  0  0  0  0
   47.3197    5.0385   13.3023 C   0  0  0  0  0  0  0  0  0  0  0  0
   49.7422    7.4814   21.8326 C   0  0  0  0  0  0  0  0  0  0  0  0
   49.5372    8.0085   17.3706 N   0  0  0  0  0  0  0  0  0  0  0  0
   50.6970    8.8186   17.3378 C   0  0  0  0  0  0  0  0  0  0  0  0
   49.3516    6.8149   18.1066 C   0  0  0  0  0  0  0  0  0  0  0  0
   52.0126    8.3196   17.4681 C   0  0  0  0  0  0  0  0  0  0  0  0
   50.2225    5.7252   17.9685 C   0  0  0  0  0  0  0  0  0  0  0  0
   52.3922    6.8579   17.5915 C   0  0  0  0  0  0  0  0  0  0  0  0
   51.4038    5.8348   17.0483 C   0  0  0  0  0  0  0  0  0  0  0  0
   48.3587    8.3955   16.5601 C   0  0  0  0  0  0  0  0  0  0  0  0
   48.6893    8.4330   15.0592 C   0  0  0  0  0  0  0  0  0  0  0  0
   47.6838    8.9159   12.8045 N   0  0  0  0  0  0  0  0  0  0  0  0
   48.2723    6.6932   19.0022 C   0  0  0  0  0  0  0  0  0  0  0  0
   50.5579   10.2219   17.2109 C   0  0  0  0  0  0  0  0  0  0  0  0
   47.4199    8.6890   14.2364 C   0  0  0  0  0  0  0  0  0  0  0  0
   49.9976    4.5428   18.6954 C   0  0  0  0  0  0  0  0  0  0  0  0
   53.1059    9.2196   17.4892 C   0  0  0  0  0  0  0  0  0  0  0  0
   48.2364    7.7296   12.1467 C   0  0  0  0  0  0  0  0  0  0  0  0
   46.4483    9.3255   12.1308 C   0  0  0  0  0  0  0  0  0  0  0  0
   51.6480   11.0957   17.2141 C   0  0  0  0  0  0  0  0  0  0  0  0
   48.0567    5.5203   19.7304 C   0  0  0  0  0  0  0  0  0  0  0  0
   52.9281   10.5925   17.3577 C   0  0  0  0  0  0  0  0  0  0  0  0
   48.9206    4.4427   19.5720 C   0  0  0  0  0  0  0  0  0  0  0  0
   51.8505    8.8381   19.1335 H   0  0  0  0  0  0  0  0  0  0  0  0
   53.3322    7.9115   19.3015 H   0  0  0  0  0  0  0  0  0  0  0  0
   51.8737    5.7793   18.6359 H   0  0  0  0  0  0  0  0  0  0  0  0
   51.9085    6.4350   20.2654 H   0  0  0  0  0  0  0  0  0  0  0  0
   48.6717    9.5585   16.6306 H   0  0  0  0  0  0  0  0  0  0  0  0
   49.8786    9.4795   15.4231 H   0  0  0  0  0  0  0  0  0  0  0  0
   48.8489    7.3170   14.5117 H   0  0  0  0  0  0  0  0  0  0  0  0
   47.5538    7.4722   15.6630 H   0  0  0  0  0  0  0  0  0  0  0  0
   47.4041    8.2027   17.6358 H   0  0  0  0  0  0  0  0  0  0  0  0
   50.9074    7.6215   14.3526 H   0  0  0  0  0  0  0  0  0  0  0  0
   48.2782    9.5095   13.4907 H   0  0  0  0  0  0  0  0  0  0  0  0
   47.1085    9.8092   14.7787 H   0  0  0  0  0  0  0  0  0  0  0  0
   49.9457    5.8402   21.1087 H   0  0  0  0  0  0  0  0  0  0  0  0
   54.6809    7.9187   17.4969 H   0  0  0  0  0  0  0  0  0  0  0  0
   45.2919   10.1378   13.3242 H   0  0  0  0  0  0  0  0  0  0  0  0
   46.3574    9.9355   11.9145 H   0  0  0  0  0  0  0  0  0  0  0  0
   44.8891    8.9478   12.0968 H   0  0  0  0  0  0  0  0  0  0  0  0
   46.1623    6.9523   11.8551 H   0  0  0  0  0  0  0  0  0  0  0  0
   47.4192    6.5238   12.9902 H   0  0  0  0  0  0  0  0  0  0  0  0
   47.7339    7.7741   11.7643 H   0  0  0  0  0  0  0  0  0  0  0  0
   53.1766    7.5916   13.5158 H   0  0  0  0  0  0  0  0  0  0  0  0
   46.2838    7.3851   19.5775 H   0  0  0  0  0  0  0  0  0  0  0  0
   55.0965    7.7595   15.0793 H   0  0  0  0  0  0  0  0  0  0  0  0
   47.5270    6.1624   21.3430 H   0  0  0  0  0  0  0  0  0  0  0  0
   47.6969    8.1856   17.2786 H   0  0  0  0  0  0  0  0  0  0  0  0
   48.5469    9.6986   17.2249 H   0  0  0  0  0  0  0  0  0  0  0  0
   52.8599    6.4658   19.4964 H   0  0  0  0  0  0  0  0  0  0  0  0
   48.1441    8.5466   11.4829 H   0  0  0  0  0  0  0  0  0  0  0  0
   51.9373    7.5525   15.2175 H   0  0  0  0  0  0  0  0  0  0  0  0
   49.3337   11.5704   14.6333 H   0  0  0  0  0  0  0  0  0  0  0  0
   54.2560    6.4836   15.3465 H   0  0  0  0  0  0  0  0  0  0  0  0
   49.4151   12.6668   12.3096 H   0  0  0  0  0  0  0  0  0  0  0  0
   47.7888    8.7143   19.3765 H   0  0  0  0  0  0  0  0  0  0  0  0
   47.8957    6.0959   16.4554 H   0  0  0  0  0  0  0  0  0  0  0  0
   51.6973    6.6552   21.5918 H   0  0  0  0  0  0  0  0  0  0  0  0
   47.4927    6.2192   11.5273 H   0  0  0  0  0  0  0  0  0  0  0  0
   47.2363    4.0935   15.2306 H   0  0  0  0  0  0  0  0  0  0  0  0
   47.7867    8.3695   21.7806 H   0  0  0  0  0  0  0  0  0  0  0  0
   47.0296    4.1424   12.7593 H   0  0  0  0  0  0  0  0  0  0  0  0
   49.7382    7.3355   22.9095 H   0  0  0  0  0  0  0  0  0  0  0  0
   52.6141    6.6502   18.6481 H   0  0  0  0  0  0  0  0  0  0  0  0
   53.3294    6.7058   17.0377 H   0  0  0  0  0  0  0  0  0  0  0  0
   51.0736    6.0848   16.0332 H   0  0  0  0  0  0  0  0  0  0  0  0
   51.9049    4.8617   16.9754 H   0  0  0  0  0  0  0  0  0  0  0  0
   47.9474    9.3523   16.9015 H   0  0  0  0  0  0  0  0  0  0  0  0
   47.5387    7.6741   16.6869 H   0  0  0  0  0  0  0  0  0  0  0  0
   49.1469    7.4797   14.7727 H   0  0  0  0  0  0  0  0  0  0  0  0
   49.4237    9.2182   14.8464 H   0  0  0  0  0  0  0  0  0  0  0  0
   47.6026    7.5359   19.1571 H   0  0  0  0  0  0  0  0  0  0  0  0
   49.5745   10.6761   17.1392 H   0  0  0  0  0  0  0  0  0  0  0  0
   46.7193    7.8556   14.3715 H   0  0  0  0  0  0  0  0  0  0  0  0
   46.9346    9.5830   14.6451 H   0  0  0  0  0  0  0  0  0  0  0  0
   50.6735    3.6973   18.5890 H   0  0  0  0  0  0  0  0  0  0  0  0
   54.1200    8.8394   17.6052 H   0  0  0  0  0  0  0  0  0  0  0  0
   49.2373    7.4907   12.5300 H   0  0  0  0  0  0  0  0  0  0  0  0
   47.5910    6.8506   12.2732 H   0  0  0  0  0  0  0  0  0  0  0  0
   48.3622    7.9111   11.0703 H   0  0  0  0  0  0  0  0  0  0  0  0
   46.6194    9.4958   11.0621 H   0  0  0  0  0  0  0  0  0  0  0  0
   45.6536    8.5748   12.2387 H   0  0  0  0  0  0  0  0  0  0  0  0
   46.0845   10.2756   12.5454 H   0  0  0  0  0  0  0  0  0  0  0  0
   51.4880   12.1660   17.1177 H   0  0  0  0  0  0  0  0  0  0  0  0
   47.2279    5.4570   20.4278 H   0  0  0  0  0  0  0  0  0  0  0  0
   53.7851   11.2607   17.3699 H   0  0  0  0  0  0  0  0  0  0  0  0
   48.7598    3.5274   20.1378 H   0  0  0  0  0  0  0  0  0  0  0  0
  2  1  1  0
  3  1  1  0
  4  2  2  0
  5  3  2  0
  6  4  1  0
  7  5  1  0
  8  1  1  0
  9  8  1  0
 10 13  1  0
 11  3  1  0
 12  2  1  0
 13  9  1  0
 14  5  1  0
 15  4  1  0
 16 10  1  0
 17 10  1  0
 18 12  2  0
 19 11  2  0
 20 15  2  0
 21 14  2  0
  6  7  1  0
 18 20  1  0
 19 21  1  0
 23 27  2  0
 24 28  1  0
 25 26  1  0
 26 22  2  0
 27 24  1  0
 28 25  1  0
 29 22  1  0
 30 23  1  0
 31 22  1  0
 32 23  1  0
 33 24  2  0
 34 35  1  0
 35 29  2  0
 36 33  1  0
 37 31  2  0
 38 32  2  0
 39 26  1  0
 40 27  1  0
 41 31  1  0
 42 32  1  0
 43 34  1  0
 44 33  1  0
 45 35  1  0
 46 36  1  0
 47 44  2  0
 48 43  2  0
 49 47  1  0
 50 45  2  0
 25 34  2  0
 48 50  1  0
 30 36  2  0
 46 49  2  0
 52 51  1  0
 53 51  1  0
 54 52  2  0
 55 53  2  0
 56 54  1  0
 57 55  1  0
 58 51  1  0
 59 58  1  0
 60 63  1  0
 61 53  1  0
 62 52  1  0
 63 59  1  0
 64 55  1  0
 65 54  1  0
 66 60  1  0
 67 60  1  0
 68 62  2  0
 69 61  2  0
 70 65  2  0
 71 64  2  0
 56 57  1  0
 68 70  1  0
 69 71  1  0
  6 72  1  0
  6 73  1  0
  7 74  1  0
  7 75  1  0
  8 76  1  0
  8 77  1  0
  9 78  1  0
  9 79  1  0
 11 80  1  0
 12 81  1  0
 13 82  1  0
 13 83  1  0
 14 84  1  0
 15 85  1  0
 16 86  1  0
 16 87  1  0
 16 88  1  0
 17 89  1  0
 17 90  1  0
 17 91  1  0
 18 92  1  0
 19 93  1  0
 20 94  1  0
 21 95  1  0
 28 96  1  0
 28 97  1  0
 29 98  1  0
 30 99  1  0
 39100  1  0
 40101  1  0
 41102  1  0
 42103  1  0
 43104  1  0
 44105  1  0
 45106  1  0
 46107  1  0
 47108  1  0
 48109  1  0
 49110  1  0
 50111  1  0
 56112  1  0
 56113  1  0
 57114  1  0
 57115  1  0
 58116  1  0
 58117  1  0
 59118  1  0
 59119  1  0
 61120  1  0
 62121  1  0
 63122  1  0
 63123  1  0
 64124  1  0
 65125  1  0
 66126  1  0
 66127  1  0
 66128  1  0
 67129  1  0
 67130  1  0
 67131  1  0
 68132  1  0
 69133  1  0
 70134  1  0
 71135  1  0
M  END
> <Uni-Dock RESULT> 
ENERGY=   -5.798  LOWER_BOUND=    3.441  UPPER_BOUND=    6.941
INTER + INTRA:          -5.798
INTER:                  -5.798
INTRA:                   0.000
UNBOUND:                 0.000

$$$$
