
     RDKit          3D

135142  0  0  0  0  0  0  0  0999 V2000
   48.6623    9.9027   18.3442 N   0  0  0  0  0  0  0  0  0  0  0  0
   48.2664   11.0535   19.0729 C   0  0  0  0  0  0  0  0  0  0  0  0
   49.4349    8.8545   18.8978 C   0  0  0  0  0  0  0  0  0  0  0  0
   47.7539   10.9919   20.3898 C   0  0  0  0  0  0  0  0  0  0  0  0
   48.9078    8.0716   19.9367 C   0  0  0  0  0  0  0  0  0  0  0  0
   47.5341    9.7249   21.1941 C   0  0  0  0  0  0  0  0  0  0  0  0
   47.5338    8.3887   20.4593 C   0  0  0  0  0  0  0  0  0  0  0  0
   48.6071    9.9619   16.8633 C   0  0  0  0  0  0  0  0  0  0  0  0
   48.0999    8.6420   16.2595 C   0  0  0  0  0  0  0  0  0  0  0  0
   48.9521    9.1904   13.9432 N   0  0  0  0  0  0  0  0  0  0  0  0
   50.7238    8.5555   18.4285 C   0  0  0  0  0  0  0  0  0  0  0  0
   48.4126   12.3393   18.4990 C   0  0  0  0  0  0  0  0  0  0  0  0
   47.8033    8.7615   14.7587 C   0  0  0  0  0  0  0  0  0  0  0  0
   49.6504    7.0097   20.4755 C   0  0  0  0  0  0  0  0  0  0  0  0
   47.4112   12.1902   21.0621 C   0  0  0  0  0  0  0  0  0  0  0  0
   50.0001    8.1670   13.8972 C   0  0  0  0  0  0  0  0  0  0  0  0
   48.5082    9.4959   12.5797 C   0  0  0  0  0  0  0  0  0  0  0  0
   48.0595   13.5113   19.1733 C   0  0  0  0  0  0  0  0  0  0  0  0
   51.4637    7.4988   18.9679 C   0  0  0  0  0  0  0  0  0  0  0  0
   47.5537   13.4359   20.4595 C   0  0  0  0  0  0  0  0  0  0  0  0
   50.9240    6.7230   19.9876 C   0  0  0  0  0  0  0  0  0  0  0  0
   48.8112    8.4031   14.8342 C   0  0  0  0  0  0  0  0  0  0  0  0
   46.7064   10.3344   20.0445 C   0  0  0  0  0  0  0  0  0  0  0  0
   48.8387    9.4702   19.2021 C   0  0  0  0  0  0  0  0  0  0  0  0
   49.7381    9.6013   16.7625 C   0  0  0  0  0  0  0  0  0  0  0  0
   49.1417    8.4529   16.1948 C   0  0  0  0  0  0  0  0  0  0  0  0
   47.7911   10.4237   19.1663 C   0  0  0  0  0  0  0  0  0  0  0  0
   50.0381    9.6024   18.2589 C   0  0  0  0  0  0  0  0  0  0  0  0
   49.0862    9.5037   14.0212 C   0  0  0  0  0  0  0  0  0  0  0  0
   46.6319    9.2834   20.9575 C   0  0  0  0  0  0  0  0  0  0  0  0
   48.1797    7.1880   14.2713 C   0  0  0  0  0  0  0  0  0  0  0  0
   45.6036   11.3154   20.0798 C   0  0  0  0  0  0  0  0  0  0  0  0
   48.7684    8.3982   20.1622 C   0  0  0  0  0  0  0  0  0  0  0  0
   50.0701   10.7078   15.9122 C   0  0  0  0  0  0  0  0  0  0  0  0
   49.7143   10.6434   14.5378 C   0  0  0  0  0  0  0  0  0  0  0  0
   47.6459    8.3248   21.0328 C   0  0  0  0  0  0  0  0  0  0  0  0
   47.8117    6.2337   14.9343 O   0  0  0  0  0  0  0  0  0  0  0  0
   44.4262   11.0532   20.2626 O   0  0  0  0  0  0  0  0  0  0  0  0
   48.9266    7.3812   17.0251 O   0  0  0  0  0  0  0  0  0  0  0  0
   47.7786   11.4449   18.2540 O   0  0  0  0  0  0  0  0  0  0  0  0
   48.0606    7.2067   12.9342 O   0  0  0  0  0  0  0  0  0  0  0  0
   46.0345   12.5898   20.0220 O   0  0  0  0  0  0  0  0  0  0  0  0
   50.7412   11.8840   16.3357 C   0  0  0  0  0  0  0  0  0  0  0  0
   49.7418    7.3767   20.3179 C   0  0  0  0  0  0  0  0  0  0  0  0
   49.9897   11.7202   13.6773 C   0  0  0  0  0  0  0  0  0  0  0  0
   47.5350    7.2957   21.9851 C   0  0  0  0  0  0  0  0  0  0  0  0
   49.6201    6.3575   21.2696 C   0  0  0  0  0  0  0  0  0  0  0  0
   51.0135   12.9456   15.4659 C   0  0  0  0  0  0  0  0  0  0  0  0
   48.5168    6.3180   22.1062 C   0  0  0  0  0  0  0  0  0  0  0  0
   50.6326   12.8650   14.1368 C   0  0  0  0  0  0  0  0  0  0  0  0
   48.5438    9.4278   18.4198 N   0  0  0  0  0  0  0  0  0  0  0  0
   48.7031    8.1422   19.0386 C   0  0  0  0  0  0  0  0  0  0  0  0
   48.1387   10.6907   18.9664 C   0  0  0  0  0  0  0  0  0  0  0  0
   49.0961    7.9670   20.3770 C   0  0  0  0  0  0  0  0  0  0  0  0
   47.7703   10.8931   20.3168 C   0  0  0  0  0  0  0  0  0  0  0  0
   49.2413    9.1306   21.3110 C   0  0  0  0  0  0  0  0  0  0  0  0
   47.9069    9.8492   21.3950 C   0  0  0  0  0  0  0  0  0  0  0  0
   49.0997    9.4481   17.0320 C   0  0  0  0  0  0  0  0  0  0  0  0
   48.0028    9.3791   15.9591 C   0  0  0  0  0  0  0  0  0  0  0  0
   49.1802    9.9616   13.7903 N   0  0  0  0  0  0  0  0  0  0  0  0
   48.0377   11.8438   18.1442 C   0  0  0  0  0  0  0  0  0  0  0  0
   48.4850    6.9542   18.2971 C   0  0  0  0  0  0  0  0  0  0  0  0
   48.4926    8.9208   14.5757 C   0  0  0  0  0  0  0  0  0  0  0  0
   47.2659   12.1461   20.7556 C   0  0  0  0  0  0  0  0  0  0  0  0
   49.3300    6.6755   20.9017 C   0  0  0  0  0  0  0  0  0  0  0  0
   49.0218    9.6879   12.3551 C   0  0  0  0  0  0  0  0  0  0  0  0
   50.6113   10.0504   14.0932 C   0  0  0  0  0  0  0  0  0  0  0  0
   48.6985    5.6759   18.8276 C   0  0  0  0  0  0  0  0  0  0  0  0
   47.5672   13.0861   18.5934 C   0  0  0  0  0  0  0  0  0  0  0  0
   49.1402    5.5367   20.1287 C   0  0  0  0  0  0  0  0  0  0  0  0
   47.1642   13.2347   19.9026 C   0  0  0  0  0  0  0  0  0  0  0  0
   46.5566    9.8103   21.6893 H   0  0  0  0  0  0  0  0  0  0  0  0
   48.2927    9.7028   21.9909 H   0  0  0  0  0  0  0  0  0  0  0  0
   46.8060    8.3836   19.6371 H   0  0  0  0  0  0  0  0  0  0  0  0
   47.2116    7.6030   21.1530 H   0  0  0  0  0  0  0  0  0  0  0  0
   49.5801   10.2499   16.4499 H   0  0  0  0  0  0  0  0  0  0  0  0
   47.8893   10.7290   16.5453 H   0  0  0  0  0  0  0  0  0  0  0  0
   47.1722    8.3484   16.7677 H   0  0  0  0  0  0  0  0  0  0  0  0
   48.8087    7.8262   16.4348 H   0  0  0  0  0  0  0  0  0  0  0  0
   51.1759    9.1585   17.6457 H   0  0  0  0  0  0  0  0  0  0  0  0
   48.8487   12.4560   17.5089 H   0  0  0  0  0  0  0  0  0  0  0  0
   46.9906    9.4918   14.6463 H   0  0  0  0  0  0  0  0  0  0  0  0
   47.4085    7.8033   14.3953 H   0  0  0  0  0  0  0  0  0  0  0  0
   49.2398    6.4025   21.2784 H   0  0  0  0  0  0  0  0  0  0  0  0
   47.0236   12.1470   22.0786 H   0  0  0  0  0  0  0  0  0  0  0  0
   50.8297    8.4975   13.2618 H   0  0  0  0  0  0  0  0  0  0  0  0
   49.6287    7.2140   13.5057 H   0  0  0  0  0  0  0  0  0  0  0  0
   50.4300    7.9931   14.8881 H   0  0  0  0  0  0  0  0  0  0  0  0
   47.7682   10.3043   12.5864 H   0  0  0  0  0  0  0  0  0  0  0  0
   48.0644    8.6247   12.0848 H   0  0  0  0  0  0  0  0  0  0  0  0
   49.3475    9.8490   11.9703 H   0  0  0  0  0  0  0  0  0  0  0  0
   48.1945   14.4771   18.6949 H   0  0  0  0  0  0  0  0  0  0  0  0
   52.4610    7.2886   18.5916 H   0  0  0  0  0  0  0  0  0  0  0  0
   47.2844   14.3389   20.9989 H   0  0  0  0  0  0  0  0  0  0  0  0
   51.4973    5.9029   20.4106 H   0  0  0  0  0  0  0  0  0  0  0  0
   50.7895    8.8241   18.4119 H   0  0  0  0  0  0  0  0  0  0  0  0
   50.5565   10.5095   18.5765 H   0  0  0  0  0  0  0  0  0  0  0  0
   48.8208    9.4725   12.9663 H   0  0  0  0  0  0  0  0  0  0  0  0
   45.7737    9.2227   21.6251 H   0  0  0  0  0  0  0  0  0  0  0  0
   48.4361    6.6779   16.5426 H   0  0  0  0  0  0  0  0  0  0  0  0
   48.6851   11.6815   18.0065 H   0  0  0  0  0  0  0  0  0  0  0  0
   47.6448    6.3467   12.7098 H   0  0  0  0  0  0  0  0  0  0  0  0
   45.2108   13.1149   20.0607 H   0  0  0  0  0  0  0  0  0  0  0  0
   51.0832   12.0070   17.3592 H   0  0  0  0  0  0  0  0  0  0  0  0
   50.6228    7.3315   19.6860 H   0  0  0  0  0  0  0  0  0  0  0  0
   49.7063   11.6742   12.6271 H   0  0  0  0  0  0  0  0  0  0  0  0
   46.6728    7.2460   22.6475 H   0  0  0  0  0  0  0  0  0  0  0  0
   50.3903    5.5938   21.3449 H   0  0  0  0  0  0  0  0  0  0  0  0
   51.5279   13.8305   15.8330 H   0  0  0  0  0  0  0  0  0  0  0  0
   48.4171    5.5286   22.8452 H   0  0  0  0  0  0  0  0  0  0  0  0
   50.8411   13.6867   13.4569 H   0  0  0  0  0  0  0  0  0  0  0  0
   50.0654    9.7794   20.9906 H   0  0  0  0  0  0  0  0  0  0  0  0
   49.5044    8.7700   22.3136 H   0  0  0  0  0  0  0  0  0  0  0  0
   47.0471    9.1669   21.3554 H   0  0  0  0  0  0  0  0  0  0  0  0
   47.8687   10.3366   22.3778 H   0  0  0  0  0  0  0  0  0  0  0  0
   49.8070    8.6185   16.8828 H   0  0  0  0  0  0  0  0  0  0  0  0
   49.7356   10.3289   16.9028 H   0  0  0  0  0  0  0  0  0  0  0  0
   47.2191    8.6832   16.2775 H   0  0  0  0  0  0  0  0  0  0  0  0
   47.4864   10.3394   15.8522 H   0  0  0  0  0  0  0  0  0  0  0  0
   48.3169   11.8290   17.0962 H   0  0  0  0  0  0  0  0  0  0  0  0
   48.1200    6.9956   17.2783 H   0  0  0  0  0  0  0  0  0  0  0  0
   49.0965    8.0069   14.6548 H   0  0  0  0  0  0  0  0  0  0  0  0
   47.5811    8.6302   14.0393 H   0  0  0  0  0  0  0  0  0  0  0  0
   46.9631   12.2793   21.7935 H   0  0  0  0  0  0  0  0  0  0  0  0
   49.6498    6.5553   21.9350 H   0  0  0  0  0  0  0  0  0  0  0  0
   47.9606    9.6756   12.0769 H   0  0  0  0  0  0  0  0  0  0  0  0
   49.4674    8.7266   12.0689 H   0  0  0  0  0  0  0  0  0  0  0  0
   49.4880   10.4786   11.7559 H   0  0  0  0  0  0  0  0  0  0  0  0
   50.7851   10.4191   15.1059 H   0  0  0  0  0  0  0  0  0  0  0  0
   51.1212    9.0858   13.9800 H   0  0  0  0  0  0  0  0  0  0  0  0
   51.1021   10.7734   13.4316 H   0  0  0  0  0  0  0  0  0  0  0  0
   48.5168    4.7969   18.2145 H   0  0  0  0  0  0  0  0  0  0  0  0
   47.5118   13.9240   17.9029 H   0  0  0  0  0  0  0  0  0  0  0  0
   49.3164    4.5518   20.5513 H   0  0  0  0  0  0  0  0  0  0  0  0
   46.7869   14.1862   20.2621 H   0  0  0  0  0  0  0  0  0  0  0  0
  2  1  1  0
  3  1  1  0
  4  2  2  0
  5  3  2  0
  6  4  1  0
  7  5  1  0
  8  1  1  0
  9  8  1  0
 10 13  1  0
 11  3  1  0
 12  2  1  0
 13  9  1  0
 14  5  1  0
 15  4  1  0
 16 10  1  0
 17 10  1  0
 18 12  2  0
 19 11  2  0
 20 15  2  0
 21 14  2  0
  6  7  1  0
 18 20  1  0
 19 21  1  0
 23 27  2  0
 24 28  1  0
 25 26  1  0
 26 22  2  0
 27 24  1  0
 28 25  1  0
 29 22  1  0
 30 23  1  0
 31 22  1  0
 32 23  1  0
 33 24  2  0
 34 35  1  0
 35 29  2  0
 36 33  1  0
 37 31  2  0
 38 32  2  0
 39 26  1  0
 40 27  1  0
 41 31  1  0
 42 32  1  0
 43 34  1  0
 44 33  1  0
 45 35  1  0
 46 36  1  0
 47 44  2  0
 48 43  2  0
 49 47  1  0
 50 45  2  0
 25 34  2  0
 48 50  1  0
 30 36  2  0
 46 49  2  0
 52 51  1  0
 53 51  1  0
 54 52  2  0
 55 53  2  0
 56 54  1  0
 57 55  1  0
 58 51  1  0
 59 58  1  0
 60 63  1  0
 61 53  1  0
 62 52  1  0
 63 59  1  0
 64 55  1  0
 65 54  1  0
 66 60  1  0
 67 60  1  0
 68 62  2  0
 69 61  2  0
 70 65  2  0
 71 64  2  0
 56 57  1  0
 68 70  1  0
 69 71  1  0
  6 72  1  0
  6 73  1  0
  7 74  1  0
  7 75  1  0
  8 76  1  0
  8 77  1  0
  9 78  1  0
  9 79  1  0
 11 80  1  0
 12 81  1  0
 13 82  1  0
 13 83  1  0
 14 84  1  0
 15 85  1  0
 16 86  1  0
 16 87  1  0
 16 88  1  0
 17 89  1  0
 17 90  1  0
 17 91  1  0
 18 92  1  0
 19 93  1  0
 20 94  1  0
 21 95  1  0
 28 96  1  0
 28 97  1  0
 29 98  1  0
 30 99  1  0
 39100  1  0
 40101  1  0
 41102  1  0
 42103  1  0
 43104  1  0
 44105  1  0
 45106  1  0
 46107  1  0
 47108  1  0
 48109  1  0
 49110  1  0
 50111  1  0
 56112  1  0
 56113  1  0
 57114  1  0
 57115  1  0
 58116  1  0
 58117  1  0
 59118  1  0
 59119  1  0
 61120  1  0
 62121  1  0
 63122  1  0
 63123  1  0
 64124  1  0
 65125  1  0
 66126  1  0
 66127  1  0
 66128  1  0
 67129  1  0
 67130  1  0
 67131  1  0
 68132  1  0
 69133  1  0
 70134  1  0
 71135  1  0
M  END
> <Uni-Dock RESULT> 
ENERGY=   -8.050  LOWER_BOUND=    0.000  UPPER_BOUND=    0.000
INTER + INTRA:          -8.050
INTER:                  -8.050
INTRA:                   0.000
UNBOUND:                 0.000

$$$$

     RDKit          3D

135142  0  0  0  0  0  0  0  0999 V2000
   48.7316    7.1787   17.8612 N   0  0  0  0  0  0  0  0  0  0  0  0
   48.2054    5.9676   17.3429 C   0  0  0  0  0  0  0  0  0  0  0  0
   48.2063    7.8355   18.9990 C   0  0  0  0  0  0  0  0  0  0  0  0
   47.8498    4.8704   18.1616 C   0  0  0  0  0  0  0  0  0  0  0  0
   48.2724    7.2152   20.2565 C   0  0  0  0  0  0  0  0  0  0  0  0
   47.9917    4.8111   19.6706 C   0  0  0  0  0  0  0  0  0  0  0  0
   48.8793    5.8430   20.3579 C   0  0  0  0  0  0  0  0  0  0  0  0
   49.6028    7.9939   16.9803 C   0  0  0  0  0  0  0  0  0  0  0  0
   50.7850    8.6011   17.7533 C   0  0  0  0  0  0  0  0  0  0  0  0
   51.2938   10.3018   15.9530 N   0  0  0  0  0  0  0  0  0  0  0  0
   47.6254    9.1110   18.9169 C   0  0  0  0  0  0  0  0  0  0  0  0
   47.9791    5.8325   15.9520 C   0  0  0  0  0  0  0  0  0  0  0  0
   51.8255    9.2396   16.8234 C   0  0  0  0  0  0  0  0  0  0  0  0
   47.7825    7.8668   21.3987 C   0  0  0  0  0  0  0  0  0  0  0  0
   47.3001    3.7073   17.5698 C   0  0  0  0  0  0  0  0  0  0  0  0
   50.9004   11.4879   16.7187 C   0  0  0  0  0  0  0  0  0  0  0  0
   52.2996   10.6771   14.9545 C   0  0  0  0  0  0  0  0  0  0  0  0
   47.4451    4.6730   15.3835 C   0  0  0  0  0  0  0  0  0  0  0  0
   47.1355    9.7580   20.0554 C   0  0  0  0  0  0  0  0  0  0  0  0
   47.1070    3.6046   16.1959 C   0  0  0  0  0  0  0  0  0  0  0  0
   47.2195    9.1376   21.2967 C   0  0  0  0  0  0  0  0  0  0  0  0
   51.1603   10.0300   17.1114 C   0  0  0  0  0  0  0  0  0  0  0  0
   49.0530    4.6667   18.5611 C   0  0  0  0  0  0  0  0  0  0  0  0
   48.2587    6.9809   18.6927 C   0  0  0  0  0  0  0  0  0  0  0  0
   48.9486    8.9724   17.1645 C   0  0  0  0  0  0  0  0  0  0  0  0
   50.1165    9.4220   17.8209 C   0  0  0  0  0  0  0  0  0  0  0  0
   48.7231    5.8747   17.9385 C   0  0  0  0  0  0  0  0  0  0  0  0
   47.8662    8.2850   17.9923 C   0  0  0  0  0  0  0  0  0  0  0  0
   51.0405   10.2056   15.7320 C   0  0  0  0  0  0  0  0  0  0  0  0
   48.9496    4.5440   19.9460 C   0  0  0  0  0  0  0  0  0  0  0  0
   52.3747   10.4829   17.8272 C   0  0  0  0  0  0  0  0  0  0  0  0
   49.5079    3.4693   17.8270 C   0  0  0  0  0  0  0  0  0  0  0  0
   48.1323    6.8423   20.1212 C   0  0  0  0  0  0  0  0  0  0  0  0
   48.8060    9.2057   15.7564 C   0  0  0  0  0  0  0  0  0  0  0  0
   49.8816    9.8115   15.0524 C   0  0  0  0  0  0  0  0  0  0  0  0
   48.4891    5.6063   20.7284 C   0  0  0  0  0  0  0  0  0  0  0  0
   52.5986   10.2688   19.0061 O   0  0  0  0  0  0  0  0  0  0  0  0
   50.3663    2.6888   18.2049 O   0  0  0  0  0  0  0  0  0  0  0  0
   50.1719    9.2633   19.1833 O   0  0  0  0  0  0  0  0  0  0  0  0
   48.9010    5.9520   16.5829 O   0  0  0  0  0  0  0  0  0  0  0  0
   53.2246   11.1882   17.0640 O   0  0  0  0  0  0  0  0  0  0  0  0
   48.7782    3.2237   16.7224 O   0  0  0  0  0  0  0  0  0  0  0  0
   47.6560    8.8793   14.9920 C   0  0  0  0  0  0  0  0  0  0  0  0
   47.6776    7.8578   21.0028 C   0  0  0  0  0  0  0  0  0  0  0  0
   49.7972   10.0262   13.6658 C   0  0  0  0  0  0  0  0  0  0  0  0
   48.3824    5.4262   22.1192 C   0  0  0  0  0  0  0  0  0  0  0  0
   47.5759    7.6663   22.3856 C   0  0  0  0  0  0  0  0  0  0  0  0
   47.5844    9.1043   13.6129 C   0  0  0  0  0  0  0  0  0  0  0  0
   47.9260    6.4483   22.9447 C   0  0  0  0  0  0  0  0  0  0  0  0
   48.6583    9.6736   12.9490 C   0  0  0  0  0  0  0  0  0  0  0  0
   48.9413    7.2663   18.3013 N   0  0  0  0  0  0  0  0  0  0  0  0
   48.9155    7.5794   19.7021 C   0  0  0  0  0  0  0  0  0  0  0  0
   48.4876    6.1071   17.5884 C   0  0  0  0  0  0  0  0  0  0  0  0
   47.9164    7.1268   20.5815 C   0  0  0  0  0  0  0  0  0  0  0  0
   47.9140    4.9687   18.2011 C   0  0  0  0  0  0  0  0  0  0  0  0
   46.8670    6.1508   20.1415 C   0  0  0  0  0  0  0  0  0  0  0  0
   47.5568    4.8863   19.6628 C   0  0  0  0  0  0  0  0  0  0  0  0
   49.3199    8.4532   17.4745 C   0  0  0  0  0  0  0  0  0  0  0  0
   50.7729    8.3855   16.9811 C   0  0  0  0  0  0  0  0  0  0  0  0
   50.9441   10.2013   15.2196 N   0  0  0  0  0  0  0  0  0  0  0  0
   48.6332    6.0129   16.1792 C   0  0  0  0  0  0  0  0  0  0  0  0
   49.9168    8.4032   20.2744 C   0  0  0  0  0  0  0  0  0  0  0  0
   51.3646    9.7389   16.5547 C   0  0  0  0  0  0  0  0  0  0  0  0
   47.5991    3.8115   17.4406 C   0  0  0  0  0  0  0  0  0  0  0  0
   47.8914    7.5484   21.9305 C   0  0  0  0  0  0  0  0  0  0  0  0
   51.9814   11.0688   14.6441 C   0  0  0  0  0  0  0  0  0  0  0  0
   49.6792   10.9409   15.2460 C   0  0  0  0  0  0  0  0  0  0  0  0
   49.8990    8.8018   21.6168 C   0  0  0  0  0  0  0  0  0  0  0  0
   48.2910    4.8769   15.4316 C   0  0  0  0  0  0  0  0  0  0  0  0
   48.8726    8.3878   22.4430 C   0  0  0  0  0  0  0  0  0  0  0  0
   47.7855    3.7637   16.0673 C   0  0  0  0  0  0  0  0  0  0  0  0
   48.4014    3.8243   19.9279 H   0  0  0  0  0  0  0  0  0  0  0  0
   46.9796    4.8565   20.1002 H   0  0  0  0  0  0  0  0  0  0  0  0
   49.8926    5.8455   19.9348 H   0  0  0  0  0  0  0  0  0  0  0  0
   48.9930    5.5661   21.4128 H   0  0  0  0  0  0  0  0  0  0  0  0
   49.0194    8.7626   16.4614 H   0  0  0  0  0  0  0  0  0  0  0  0
   50.0500    7.3594   16.2043 H   0  0  0  0  0  0  0  0  0  0  0  0
   51.2824    7.8090   18.3280 H   0  0  0  0  0  0  0  0  0  0  0  0
   50.4433    9.3360   18.4895 H   0  0  0  0  0  0  0  0  0  0  0  0
   47.5304    9.6093   17.9560 H   0  0  0  0  0  0  0  0  0  0  0  0
   48.1844    6.6600   15.2759 H   0  0  0  0  0  0  0  0  0  0  0  0
   52.2377    8.4359   16.1984 H   0  0  0  0  0  0  0  0  0  0  0  0
   52.6603    9.6181   17.4282 H   0  0  0  0  0  0  0  0  0  0  0  0
   47.8368    7.3862   22.3724 H   0  0  0  0  0  0  0  0  0  0  0  0
   47.0181    2.8637   18.1977 H   0  0  0  0  0  0  0  0  0  0  0  0
   50.5360   12.2733   16.0467 H   0  0  0  0  0  0  0  0  0  0  0  0
   51.7323   11.8965   17.3022 H   0  0  0  0  0  0  0  0  0  0  0  0
   50.0731   11.2655   17.3993 H   0  0  0  0  0  0  0  0  0  0  0  0
   52.5624    9.8166   14.3286 H   0  0  0  0  0  0  0  0  0  0  0  0
   53.2161   11.0620   15.4159 H   0  0  0  0  0  0  0  0  0  0  0  0
   51.9052   11.4435   14.2782 H   0  0  0  0  0  0  0  0  0  0  0  0
   47.2836    4.6164   14.3108 H   0  0  0  0  0  0  0  0  0  0  0  0
   46.6862   10.7433   19.9670 H   0  0  0  0  0  0  0  0  0  0  0  0
   46.6821    2.7012   15.7690 H   0  0  0  0  0  0  0  0  0  0  0  0
   46.8373    9.6366   22.1828 H   0  0  0  0  0  0  0  0  0  0  0  0
   47.4928    9.0450   18.6828 H   0  0  0  0  0  0  0  0  0  0  0  0
   46.9839    8.0392   17.3977 H   0  0  0  0  0  0  0  0  0  0  0  0
   51.8541   10.6676   15.1762 H   0  0  0  0  0  0  0  0  0  0  0  0
   49.2228    3.5999   20.4151 H   0  0  0  0  0  0  0  0  0  0  0  0
   51.0573    9.5346   19.5155 H   0  0  0  0  0  0  0  0  0  0  0  0
   48.2893    6.6007   16.2032 H   0  0  0  0  0  0  0  0  0  0  0  0
   53.9610   11.4263   17.6671 H   0  0  0  0  0  0  0  0  0  0  0  0
   49.1832    2.4146   16.3523 H   0  0  0  0  0  0  0  0  0  0  0  0
   46.7718    8.4463   15.4506 H   0  0  0  0  0  0  0  0  0  0  0  0
   47.4040    8.8432   20.6399 H   0  0  0  0  0  0  0  0  0  0  0  0
   50.6265   10.4800   13.1258 H   0  0  0  0  0  0  0  0  0  0  0  0
   48.6577    4.4776   22.5765 H   0  0  0  0  0  0  0  0  0  0  0  0
   47.2281    8.4785   23.0194 H   0  0  0  0  0  0  0  0  0  0  0  0
   46.6843    8.8364   13.0648 H   0  0  0  0  0  0  0  0  0  0  0  0
   47.8502    6.2953   24.0171 H   0  0  0  0  0  0  0  0  0  0  0  0
   48.6084    9.8501   11.8780 H   0  0  0  0  0  0  0  0  0  0  0  0
   46.2147    6.6036   19.3850 H   0  0  0  0  0  0  0  0  0  0  0  0
   46.2215    5.8931   20.9909 H   0  0  0  0  0  0  0  0  0  0  0  0
   48.4540    4.6381   20.2458 H   0  0  0  0  0  0  0  0  0  0  0  0
   46.8507    4.0601   19.8169 H   0  0  0  0  0  0  0  0  0  0  0  0
   49.1706    9.3856   18.0392 H   0  0  0  0  0  0  0  0  0  0  0  0
   48.6165    8.5629   16.6438 H   0  0  0  0  0  0  0  0  0  0  0  0
   51.4127    7.9819   17.7733 H   0  0  0  0  0  0  0  0  0  0  0  0
   50.8824    7.6745   16.1548 H   0  0  0  0  0  0  0  0  0  0  0  0
   49.0337    6.8283   15.5867 H   0  0  0  0  0  0  0  0  0  0  0  0
   50.7581    8.7447   19.6840 H   0  0  0  0  0  0  0  0  0  0  0  0
   51.1900   10.5044   17.3227 H   0  0  0  0  0  0  0  0  0  0  0  0
   52.4491    9.5761   16.5372 H   0  0  0  0  0  0  0  0  0  0  0  0
   47.1806    2.9334   17.9309 H   0  0  0  0  0  0  0  0  0  0  0  0
   47.1026    7.2031   22.5962 H   0  0  0  0  0  0  0  0  0  0  0  0
   52.9315   10.5283   14.5501 H   0  0  0  0  0  0  0  0  0  0  0  0
   52.1507   11.9661   15.2531 H   0  0  0  0  0  0  0  0  0  0  0  0
   51.7051   11.3840   13.6312 H   0  0  0  0  0  0  0  0  0  0  0  0
   48.8402   10.2920   15.5043 H   0  0  0  0  0  0  0  0  0  0  0  0
   49.7025   11.7800   15.9521 H   0  0  0  0  0  0  0  0  0  0  0  0
   49.4441   11.3397   14.2525 H   0  0  0  0  0  0  0  0  0  0  0  0
   50.6919    9.4360   22.0048 H   0  0  0  0  0  0  0  0  0  0  0  0
   48.4370    4.8756   14.3544 H   0  0  0  0  0  0  0  0  0  0  0  0
   48.8423    8.6945   23.4845 H   0  0  0  0  0  0  0  0  0  0  0  0
   47.5270    2.8732   15.5042 H   0  0  0  0  0  0  0  0  0  0  0  0
  2  1  1  0
  3  1  1  0
  4  2  2  0
  5  3  2  0
  6  4  1  0
  7  5  1  0
  8  1  1  0
  9  8  1  0
 10 13  1  0
 11  3  1  0
 12  2  1  0
 13  9  1  0
 14  5  1  0
 15  4  1  0
 16 10  1  0
 17 10  1  0
 18 12  2  0
 19 11  2  0
 20 15  2  0
 21 14  2  0
  6  7  1  0
 18 20  1  0
 19 21  1  0
 23 27  2  0
 24 28  1  0
 25 26  1  0
 26 22  2  0
 27 24  1  0
 28 25  1  0
 29 22  1  0
 30 23  1  0
 31 22  1  0
 32 23  1  0
 33 24  2  0
 34 35  1  0
 35 29  2  0
 36 33  1  0
 37 31  2  0
 38 32  2  0
 39 26  1  0
 40 27  1  0
 41 31  1  0
 42 32  1  0
 43 34  1  0
 44 33  1  0
 45 35  1  0
 46 36  1  0
 47 44  2  0
 48 43  2  0
 49 47  1  0
 50 45  2  0
 25 34  2  0
 48 50  1  0
 30 36  2  0
 46 49  2  0
 52 51  1  0
 53 51  1  0
 54 52  2  0
 55 53  2  0
 56 54  1  0
 57 55  1  0
 58 51  1  0
 59 58  1  0
 60 63  1  0
 61 53  1  0
 62 52  1  0
 63 59  1  0
 64 55  1  0
 65 54  1  0
 66 60  1  0
 67 60  1  0
 68 62  2  0
 69 61  2  0
 70 65  2  0
 71 64  2  0
 56 57  1  0
 68 70  1  0
 69 71  1  0
  6 72  1  0
  6 73  1  0
  7 74  1  0
  7 75  1  0
  8 76  1  0
  8 77  1  0
  9 78  1  0
  9 79  1  0
 11 80  1  0
 12 81  1  0
 13 82  1  0
 13 83  1  0
 14 84  1  0
 15 85  1  0
 16 86  1  0
 16 87  1  0
 16 88  1  0
 17 89  1  0
 17 90  1  0
 17 91  1  0
 18 92  1  0
 19 93  1  0
 20 94  1  0
 21 95  1  0
 28 96  1  0
 28 97  1  0
 29 98  1  0
 30 99  1  0
 39100  1  0
 40101  1  0
 41102  1  0
 42103  1  0
 43104  1  0
 44105  1  0
 45106  1  0
 46107  1  0
 47108  1  0
 48109  1  0
 49110  1  0
 50111  1  0
 56112  1  0
 56113  1  0
 57114  1  0
 57115  1  0
 58116  1  0
 58117  1  0
 59118  1  0
 59119  1  0
 61120  1  0
 62121  1  0
 63122  1  0
 63123  1  0
 64124  1  0
 65125  1  0
 66126  1  0
 66127  1  0
 66128  1  0
 67129  1  0
 67130  1  0
 67131  1  0
 68132  1  0
 69133  1  0
 70134  1  0
 71135  1  0
M  END
> <Uni-Dock RESULT> 
ENERGY=   -7.778  LOWER_BOUND=    1.995  UPPER_BOUND=    5.100
INTER + INTRA:          -7.778
INTER:                  -7.778
INTRA:                   0.000
UNBOUND:                 0.000

$$$$

     RDKit          3D

135142  0  0  0  0  0  0  0  0999 V2000
   48.7316    7.1787   17.8612 N   0  0  0  0  0  0  0  0  0  0  0  0
   48.2054    5.9677   17.3429 C   0  0  0  0  0  0  0  0  0  0  0  0
   48.2063    7.8355   18.9990 C   0  0  0  0  0  0  0  0  0  0  0  0
   47.8498    4.8704   18.1616 C   0  0  0  0  0  0  0  0  0  0  0  0
   48.2724    7.2152   20.2564 C   0  0  0  0  0  0  0  0  0  0  0  0
   47.9916    4.8111   19.6706 C   0  0  0  0  0  0  0  0  0  0  0  0
   48.8793    5.8430   20.3579 C   0  0  0  0  0  0  0  0  0  0  0  0
   49.6029    7.9939   16.9803 C   0  0  0  0  0  0  0  0  0  0  0  0
   50.7851    8.6011   17.7533 C   0  0  0  0  0  0  0  0  0  0  0  0
   51.2938   10.3018   15.9530 N   0  0  0  0  0  0  0  0  0  0  0  0
   47.6254    9.1110   18.9169 C   0  0  0  0  0  0  0  0  0  0  0  0
   47.9791    5.8326   15.9520 C   0  0  0  0  0  0  0  0  0  0  0  0
   51.8255    9.2396   16.8234 C   0  0  0  0  0  0  0  0  0  0  0  0
   47.7825    7.8668   21.3987 C   0  0  0  0  0  0  0  0  0  0  0  0
   47.3001    3.7073   17.5697 C   0  0  0  0  0  0  0  0  0  0  0  0
   50.9004   11.4879   16.7187 C   0  0  0  0  0  0  0  0  0  0  0  0
   52.2997   10.6771   14.9546 C   0  0  0  0  0  0  0  0  0  0  0  0
   47.4451    4.6731   15.3835 C   0  0  0  0  0  0  0  0  0  0  0  0
   47.1355    9.7580   20.0554 C   0  0  0  0  0  0  0  0  0  0  0  0
   47.1070    3.6046   16.1959 C   0  0  0  0  0  0  0  0  0  0  0  0
   47.2195    9.1376   21.2967 C   0  0  0  0  0  0  0  0  0  0  0  0
   51.1603   10.0300   17.1114 C   0  0  0  0  0  0  0  0  0  0  0  0
   49.0530    4.6667   18.5611 C   0  0  0  0  0  0  0  0  0  0  0  0
   48.2587    6.9809   18.6926 C   0  0  0  0  0  0  0  0  0  0  0  0
   48.9486    8.9724   17.1645 C   0  0  0  0  0  0  0  0  0  0  0  0
   50.1165    9.4220   17.8209 C   0  0  0  0  0  0  0  0  0  0  0  0
   48.7231    5.8747   17.9385 C   0  0  0  0  0  0  0  0  0  0  0  0
   47.8663    8.2851   17.9923 C   0  0  0  0  0  0  0  0  0  0  0  0
   51.0406   10.2056   15.7321 C   0  0  0  0  0  0  0  0  0  0  0  0
   48.9495    4.5439   19.9460 C   0  0  0  0  0  0  0  0  0  0  0  0
   52.3747   10.4829   17.8273 C   0  0  0  0  0  0  0  0  0  0  0  0
   49.5079    3.4693   17.8270 C   0  0  0  0  0  0  0  0  0  0  0  0
   48.1323    6.8422   20.1212 C   0  0  0  0  0  0  0  0  0  0  0  0
   48.8060    9.2057   15.7564 C   0  0  0  0  0  0  0  0  0  0  0  0
   49.8817    9.8115   15.0524 C   0  0  0  0  0  0  0  0  0  0  0  0
   48.4891    5.6063   20.7284 C   0  0  0  0  0  0  0  0  0  0  0  0
   52.5986   10.2687   19.0061 O   0  0  0  0  0  0  0  0  0  0  0  0
   50.3662    2.6888   18.2048 O   0  0  0  0  0  0  0  0  0  0  0  0
   50.1719    9.2632   19.1833 O   0  0  0  0  0  0  0  0  0  0  0  0
   48.9010    5.9520   16.5829 O   0  0  0  0  0  0  0  0  0  0  0  0
   53.2247   11.1881   17.0640 O   0  0  0  0  0  0  0  0  0  0  0  0
   48.7781    3.2237   16.7223 O   0  0  0  0  0  0  0  0  0  0  0  0
   47.6560    8.8794   14.9920 C   0  0  0  0  0  0  0  0  0  0  0  0
   47.6776    7.8578   21.0028 C   0  0  0  0  0  0  0  0  0  0  0  0
   49.7972   10.0263   13.6658 C   0  0  0  0  0  0  0  0  0  0  0  0
   48.3824    5.4261   22.1192 C   0  0  0  0  0  0  0  0  0  0  0  0
   47.5759    7.6663   22.3856 C   0  0  0  0  0  0  0  0  0  0  0  0
   47.5845    9.1044   13.6129 C   0  0  0  0  0  0  0  0  0  0  0  0
   47.9260    6.4482   22.9446 C   0  0  0  0  0  0  0  0  0  0  0  0
   48.6584    9.6736   12.9490 C   0  0  0  0  0  0  0  0  0  0  0  0
   48.9414    7.2663   18.3012 N   0  0  0  0  0  0  0  0  0  0  0  0
   48.9155    7.5794   19.7021 C   0  0  0  0  0  0  0  0  0  0  0  0
   48.4876    6.1071   17.5884 C   0  0  0  0  0  0  0  0  0  0  0  0
   47.9164    7.1268   20.5815 C   0  0  0  0  0  0  0  0  0  0  0  0
   47.9140    4.9687   18.2011 C   0  0  0  0  0  0  0  0  0  0  0  0
   46.8670    6.1508   20.1414 C   0  0  0  0  0  0  0  0  0  0  0  0
   47.5568    4.8863   19.6627 C   0  0  0  0  0  0  0  0  0  0  0  0
   49.3200    8.4532   17.4745 C   0  0  0  0  0  0  0  0  0  0  0  0
   50.7729    8.3855   16.9811 C   0  0  0  0  0  0  0  0  0  0  0  0
   50.9442   10.2013   15.2196 N   0  0  0  0  0  0  0  0  0  0  0  0
   48.6332    6.0129   16.1792 C   0  0  0  0  0  0  0  0  0  0  0  0
   49.9168    8.4031   20.2744 C   0  0  0  0  0  0  0  0  0  0  0  0
   51.3646    9.7389   16.5547 C   0  0  0  0  0  0  0  0  0  0  0  0
   47.5991    3.8115   17.4405 C   0  0  0  0  0  0  0  0  0  0  0  0
   47.8914    7.5484   21.9305 C   0  0  0  0  0  0  0  0  0  0  0  0
   51.9815   11.0689   14.6441 C   0  0  0  0  0  0  0  0  0  0  0  0
   49.6793   10.9409   15.2460 C   0  0  0  0  0  0  0  0  0  0  0  0
   49.8990    8.8017   21.6168 C   0  0  0  0  0  0  0  0  0  0  0  0
   48.2910    4.8769   15.4316 C   0  0  0  0  0  0  0  0  0  0  0  0
   48.8726    8.3878   22.4430 C   0  0  0  0  0  0  0  0  0  0  0  0
   47.7855    3.7638   16.0672 C   0  0  0  0  0  0  0  0  0  0  0  0
   48.4013    3.8243   19.9279 H   0  0  0  0  0  0  0  0  0  0  0  0
   46.9796    4.8565   20.1002 H   0  0  0  0  0  0  0  0  0  0  0  0
   49.8926    5.8455   19.9348 H   0  0  0  0  0  0  0  0  0  0  0  0
   48.9930    5.5661   21.4128 H   0  0  0  0  0  0  0  0  0  0  0  0
   49.0194    8.7626   16.4614 H   0  0  0  0  0  0  0  0  0  0  0  0
   50.0500    7.3594   16.2043 H   0  0  0  0  0  0  0  0  0  0  0  0
   51.2824    7.8090   18.3280 H   0  0  0  0  0  0  0  0  0  0  0  0
   50.4434    9.3360   18.4895 H   0  0  0  0  0  0  0  0  0  0  0  0
   47.5304    9.6093   17.9560 H   0  0  0  0  0  0  0  0  0  0  0  0
   48.1844    6.6601   15.2759 H   0  0  0  0  0  0  0  0  0  0  0  0
   52.2377    8.4359   16.1984 H   0  0  0  0  0  0  0  0  0  0  0  0
   52.6603    9.6181   17.4283 H   0  0  0  0  0  0  0  0  0  0  0  0
   47.8368    7.3862   22.3724 H   0  0  0  0  0  0  0  0  0  0  0  0
   47.0181    2.8638   18.1976 H   0  0  0  0  0  0  0  0  0  0  0  0
   50.5360   12.2733   16.0468 H   0  0  0  0  0  0  0  0  0  0  0  0
   51.7323   11.8965   17.3022 H   0  0  0  0  0  0  0  0  0  0  0  0
   50.0732   11.2655   17.3993 H   0  0  0  0  0  0  0  0  0  0  0  0
   52.5625    9.8166   14.3286 H   0  0  0  0  0  0  0  0  0  0  0  0
   53.2162   11.0620   15.4159 H   0  0  0  0  0  0  0  0  0  0  0  0
   51.9053   11.4435   14.2782 H   0  0  0  0  0  0  0  0  0  0  0  0
   47.2836    4.6164   14.3108 H   0  0  0  0  0  0  0  0  0  0  0  0
   46.6862   10.7433   19.9670 H   0  0  0  0  0  0  0  0  0  0  0  0
   46.6821    2.7013   15.7689 H   0  0  0  0  0  0  0  0  0  0  0  0
   46.8373    9.6365   22.1828 H   0  0  0  0  0  0  0  0  0  0  0  0
   47.4928    9.0450   18.6828 H   0  0  0  0  0  0  0  0  0  0  0  0
   46.9839    8.0393   17.3977 H   0  0  0  0  0  0  0  0  0  0  0  0
   51.8542   10.6676   15.1762 H   0  0  0  0  0  0  0  0  0  0  0  0
   49.2227    3.5999   20.4151 H   0  0  0  0  0  0  0  0  0  0  0  0
   51.0573    9.5346   19.5155 H   0  0  0  0  0  0  0  0  0  0  0  0
   48.2894    6.6008   16.2032 H   0  0  0  0  0  0  0  0  0  0  0  0
   53.9611   11.4263   17.6672 H   0  0  0  0  0  0  0  0  0  0  0  0
   49.1832    2.4146   16.3522 H   0  0  0  0  0  0  0  0  0  0  0  0
   46.7718    8.4464   15.4506 H   0  0  0  0  0  0  0  0  0  0  0  0
   47.4040    8.8432   20.6399 H   0  0  0  0  0  0  0  0  0  0  0  0
   50.6266   10.4800   13.1258 H   0  0  0  0  0  0  0  0  0  0  0  0
   48.6576    4.4776   22.5764 H   0  0  0  0  0  0  0  0  0  0  0  0
   47.2281    8.4784   23.0194 H   0  0  0  0  0  0  0  0  0  0  0  0
   46.6844    8.8364   13.0647 H   0  0  0  0  0  0  0  0  0  0  0  0
   47.8501    6.2952   24.0170 H   0  0  0  0  0  0  0  0  0  0  0  0
   48.6085    9.8501   11.8780 H   0  0  0  0  0  0  0  0  0  0  0  0
   46.2147    6.6036   19.3850 H   0  0  0  0  0  0  0  0  0  0  0  0
   46.2215    5.8931   20.9909 H   0  0  0  0  0  0  0  0  0  0  0  0
   48.4540    4.6381   20.2457 H   0  0  0  0  0  0  0  0  0  0  0  0
   46.8506    4.0601   19.8168 H   0  0  0  0  0  0  0  0  0  0  0  0
   49.1707    9.3856   18.0392 H   0  0  0  0  0  0  0  0  0  0  0  0
   48.6165    8.5629   16.6438 H   0  0  0  0  0  0  0  0  0  0  0  0
   51.4128    7.9819   17.7733 H   0  0  0  0  0  0  0  0  0  0  0  0
   50.8824    7.6745   16.1548 H   0  0  0  0  0  0  0  0  0  0  0  0
   49.0338    6.8283   15.5867 H   0  0  0  0  0  0  0  0  0  0  0  0
   50.7581    8.7447   19.6840 H   0  0  0  0  0  0  0  0  0  0  0  0
   51.1901   10.5044   17.3227 H   0  0  0  0  0  0  0  0  0  0  0  0
   52.4491    9.5761   16.5373 H   0  0  0  0  0  0  0  0  0  0  0  0
   47.1806    2.9334   17.9308 H   0  0  0  0  0  0  0  0  0  0  0  0
   47.1026    7.2031   22.5962 H   0  0  0  0  0  0  0  0  0  0  0  0
   52.9316   10.5283   14.5501 H   0  0  0  0  0  0  0  0  0  0  0  0
   52.1507   11.9661   15.2532 H   0  0  0  0  0  0  0  0  0  0  0  0
   51.7052   11.3840   13.6312 H   0  0  0  0  0  0  0  0  0  0  0  0
   48.8403   10.2921   15.5043 H   0  0  0  0  0  0  0  0  0  0  0  0
   49.7025   11.7800   15.9521 H   0  0  0  0  0  0  0  0  0  0  0  0
   49.4441   11.3397   14.2526 H   0  0  0  0  0  0  0  0  0  0  0  0
   50.6919    9.4359   22.0048 H   0  0  0  0  0  0  0  0  0  0  0  0
   48.4370    4.8757   14.3543 H   0  0  0  0  0  0  0  0  0  0  0  0
   48.8423    8.6945   23.4845 H   0  0  0  0  0  0  0  0  0  0  0  0
   47.5270    2.8733   15.5041 H   0  0  0  0  0  0  0  0  0  0  0  0
  2  1  1  0
  3  1  1  0
  4  2  2  0
  5  3  2  0
  6  4  1  0
  7  5  1  0
  8  1  1  0
  9  8  1  0
 10 13  1  0
 11  3  1  0
 12  2  1  0
 13  9  1  0
 14  5  1  0
 15  4  1  0
 16 10  1  0
 17 10  1  0
 18 12  2  0
 19 11  2  0
 20 15  2  0
 21 14  2  0
  6  7  1  0
 18 20  1  0
 19 21  1  0
 23 27  2  0
 24 28  1  0
 25 26  1  0
 26 22  2  0
 27 24  1  0
 28 25  1  0
 29 22  1  0
 30 23  1  0
 31 22  1  0
 32 23  1  0
 33 24  2  0
 34 35  1  0
 35 29  2  0
 36 33  1  0
 37 31  2  0
 38 32  2  0
 39 26  1  0
 40 27  1  0
 41 31  1  0
 42 32  1  0
 43 34  1  0
 44 33  1  0
 45 35  1  0
 46 36  1  0
 47 44  2  0
 48 43  2  0
 49 47  1  0
 50 45  2  0
 25 34  2  0
 48 50  1  0
 30 36  2  0
 46 49  2  0
 52 51  1  0
 53 51  1  0
 54 52  2  0
 55 53  2  0
 56 54  1  0
 57 55  1  0
 58 51  1  0
 59 58  1  0
 60 63  1  0
 61 53  1  0
 62 52  1  0
 63 59  1  0
 64 55  1  0
 65 54  1  0
 66 60  1  0
 67 60  1  0
 68 62  2  0
 69 61  2  0
 70 65  2  0
 71 64  2  0
 56 57  1  0
 68 70  1  0
 69 71  1  0
  6 72  1  0
  6 73  1  0
  7 74  1  0
  7 75  1  0
  8 76  1  0
  8 77  1  0
  9 78  1  0
  9 79  1  0
 11 80  1  0
 12 81  1  0
 13 82  1  0
 13 83  1  0
 14 84  1  0
 15 85  1  0
 16 86  1  0
 16 87  1  0
 16 88  1  0
 17 89  1  0
 17 90  1  0
 17 91  1  0
 18 92  1  0
 19 93  1  0
 20 94  1  0
 21 95  1  0
 28 96  1  0
 28 97  1  0
 29 98  1  0
 30 99  1  0
 39100  1  0
 40101  1  0
 41102  1  0
 42103  1  0
 43104  1  0
 44105  1  0
 45106  1  0
 46107  1  0
 47108  1  0
 48109  1  0
 49110  1  0
 50111  1  0
 56112  1  0
 56113  1  0
 57114  1  0
 57115  1  0
 58116  1  0
 58117  1  0
 59118  1  0
 59119  1  0
 61120  1  0
 62121  1  0
 63122  1  0
 63123  1  0
 64124  1  0
 65125  1  0
 66126  1  0
 66127  1  0
 66128  1  0
 67129  1  0
 67130  1  0
 67131  1  0
 68132  1  0
 69133  1  0
 70134  1  0
 71135  1  0
M  END
> <Uni-Dock RESULT> 
ENERGY=   -7.778  LOWER_BOUND=    1.995  UPPER_BOUND=    5.100
INTER + INTRA:          -7.778
INTER:                  -7.778
INTRA:                   0.000
UNBOUND:                 0.000

$$$$

     RDKit          3D

135142  0  0  0  0  0  0  0  0999 V2000
   49.0347    7.7279   17.3167 N   0  0  0  0  0  0  0  0  0  0  0  0
   48.3705    6.4745   17.3063 C   0  0  0  0  0  0  0  0  0  0  0  0
   48.5045    8.8883   17.9285 C   0  0  0  0  0  0  0  0  0  0  0  0
   47.7415    5.9274   18.4490 C   0  0  0  0  0  0  0  0  0  0  0  0
   48.3203    8.9227   19.3196 C   0  0  0  0  0  0  0  0  0  0  0  0
   47.6993    6.5646   19.8248 C   0  0  0  0  0  0  0  0  0  0  0  0
   48.6673    7.7031   20.1281 C   0  0  0  0  0  0  0  0  0  0  0  0
   50.1270    7.9464   16.3377 C   0  0  0  0  0  0  0  0  0  0  0  0
   51.3006    8.7221   16.9580 C   0  0  0  0  0  0  0  0  0  0  0  0
   52.2943    9.3266   14.7131 N   0  0  0  0  0  0  0  0  0  0  0  0
   48.1643   10.0294   17.1847 C   0  0  0  0  0  0  0  0  0  0  0  0
   48.2835    5.7300   16.1055 C   0  0  0  0  0  0  0  0  0  0  0  0
   52.5337    8.7455   16.0449 C   0  0  0  0  0  0  0  0  0  0  0  0
   47.8234   10.0771   19.9439 C   0  0  0  0  0  0  0  0  0  0  0  0
   47.0709    4.6842   18.3484 C   0  0  0  0  0  0  0  0  0  0  0  0
   52.0262   10.7656   14.7866 C   0  0  0  0  0  0  0  0  0  0  0  0
   53.4562    9.0902   13.8507 C   0  0  0  0  0  0  0  0  0  0  0  0
   47.6262    4.4993   16.0266 C   0  0  0  0  0  0  0  0  0  0  0  0
   47.6670   11.1780   17.8078 C   0  0  0  0  0  0  0  0  0  0  0  0
   47.0199    3.9728   17.1541 C   0  0  0  0  0  0  0  0  0  0  0  0
   47.5021   11.2030   19.1880 C   0  0  0  0  0  0  0  0  0  0  0  0
   51.9858    9.6411   15.8265 C   0  0  0  0  0  0  0  0  0  0  0  0
   48.8388    5.8140   19.1062 C   0  0  0  0  0  0  0  0  0  0  0  0
   48.4437    7.9890   18.0494 C   0  0  0  0  0  0  0  0  0  0  0  0
   49.6338    8.9580   15.9465 C   0  0  0  0  0  0  0  0  0  0  0  0
   50.7796    9.5421   16.5321 C   0  0  0  0  0  0  0  0  0  0  0  0
   48.7938    6.6186   17.9632 C   0  0  0  0  0  0  0  0  0  0  0  0
   48.3629    8.8482   16.7842 C   0  0  0  0  0  0  0  0  0  0  0  0
   52.0550    9.1645   14.5166 C   0  0  0  0  0  0  0  0  0  0  0  0
   48.5597    6.3622   20.3573 C   0  0  0  0  0  0  0  0  0  0  0  0
   53.1709   10.2513   16.4710 C   0  0  0  0  0  0  0  0  0  0  0  0
   49.1615    4.3737   19.0765 C   0  0  0  0  0  0  0  0  0  0  0  0
   48.1345    8.5459   19.3417 C   0  0  0  0  0  0  0  0  0  0  0  0
   49.6938    8.5208   14.5815 C   0  0  0  0  0  0  0  0  0  0  0  0
   50.9302    8.6173   13.8875 C   0  0  0  0  0  0  0  0  0  0  0  0
   48.2028    7.7069   20.4884 C   0  0  0  0  0  0  0  0  0  0  0  0
   53.2198   10.5902   17.6409 O   0  0  0  0  0  0  0  0  0  0  0  0
   49.8248    3.7778   19.9094 O   0  0  0  0  0  0  0  0  0  0  0  0
   50.6523   10.0322   17.8080 O   0  0  0  0  0  0  0  0  0  0  0  0
   49.1347    6.0368   16.7714 O   0  0  0  0  0  0  0  0  0  0  0  0
   54.2102   10.4301   15.6402 O   0  0  0  0  0  0  0  0  0  0  0  0
   48.5304    3.7160   18.0855 O   0  0  0  0  0  0  0  0  0  0  0  0
   48.5989    7.9929   13.8496 C   0  0  0  0  0  0  0  0  0  0  0  0
   47.7640    9.8951   19.5818 C   0  0  0  0  0  0  0  0  0  0  0  0
   51.0414    8.1681   12.5602 C   0  0  0  0  0  0  0  0  0  0  0  0
   47.9099    8.2076   21.7697 C   0  0  0  0  0  0  0  0  0  0  0  0
   47.4750   10.3817   20.8620 C   0  0  0  0  0  0  0  0  0  0  0  0
   48.7237    7.5548   12.5267 C   0  0  0  0  0  0  0  0  0  0  0  0
   47.5453    9.5366   21.9573 C   0  0  0  0  0  0  0  0  0  0  0  0
   49.9475    7.6380   11.8837 C   0  0  0  0  0  0  0  0  0  0  0  0
   49.2052    7.9891   17.7015 N   0  0  0  0  0  0  0  0  0  0  0  0
   49.0750    8.9200   18.7867 C   0  0  0  0  0  0  0  0  0  0  0  0
   48.6429    6.6833   17.5103 C   0  0  0  0  0  0  0  0  0  0  0  0
   47.9199    9.0322   19.5802 C   0  0  0  0  0  0  0  0  0  0  0  0
   47.8167    6.0258   18.4514 C   0  0  0  0  0  0  0  0  0  0  0  0
   46.7752    8.0744   19.4399 C   0  0  0  0  0  0  0  0  0  0  0  0
   47.2875    6.6706   19.7064 C   0  0  0  0  0  0  0  0  0  0  0  0
   49.8730    8.6089   16.5161 C   0  0  0  0  0  0  0  0  0  0  0  0
   51.3392    8.1738   16.3742 C   0  0  0  0  0  0  0  0  0  0  0  0
   52.0179    8.9314   14.0516 N   0  0  0  0  0  0  0  0  0  0  0  0
   48.9288    5.9289   16.3420 C   0  0  0  0  0  0  0  0  0  0  0  0
   50.1314    9.8105   19.1021 C   0  0  0  0  0  0  0  0  0  0  0  0
   52.1989    9.1053   15.5042 C   0  0  0  0  0  0  0  0  0  0  0  0
   47.3961    4.6856   18.2424 C   0  0  0  0  0  0  0  0  0  0  0  0
   47.8151   10.0342   20.5718 C   0  0  0  0  0  0  0  0  0  0  0  0
   53.2471    9.3217   13.3469 C   0  0  0  0  0  0  0  0  0  0  0  0
   50.9040    9.7206   13.5186 C   0  0  0  0  0  0  0  0  0  0  0  0
   50.0304   10.7884   20.0994 C   0  0  0  0  0  0  0  0  0  0  0  0
   48.4836    4.6161   16.1300 C   0  0  0  0  0  0  0  0  0  0  0  0
   48.8614   10.9127   20.8242 C   0  0  0  0  0  0  0  0  0  0  0  0
   47.7258    3.9847   17.0922 C   0  0  0  0  0  0  0  0  0  0  0  0
   47.9017    5.7761   20.5632 H   0  0  0  0  0  0  0  0  0  0  0  0
   46.6680    6.9062   19.9998 H   0  0  0  0  0  0  0  0  0  0  0  0
   49.7072    7.4065   19.9377 H   0  0  0  0  0  0  0  0  0  0  0  0
   48.6115    7.9401   21.1973 H   0  0  0  0  0  0  0  0  0  0  0  0
   49.7467    8.4387   15.4356 H   0  0  0  0  0  0  0  0  0  0  0  0
   50.5436    6.9821   16.0194 H   0  0  0  0  0  0  0  0  0  0  0  0
   51.5863    8.2439   17.9040 H   0  0  0  0  0  0  0  0  0  0  0  0
   51.0090    9.7455   17.2156 H   0  0  0  0  0  0  0  0  0  0  0  0
   48.2657   10.0289   16.1028 H   0  0  0  0  0  0  0  0  0  0  0  0
   48.7029    6.1216   15.1810 H   0  0  0  0  0  0  0  0  0  0  0  0
   52.8700    7.7063   15.9281 H   0  0  0  0  0  0  0  0  0  0  0  0
   53.3472    9.2765   16.5570 H   0  0  0  0  0  0  0  0  0  0  0  0
   47.6838   10.1032   21.0218 H   0  0  0  0  0  0  0  0  0  0  0  0
   46.5791    4.2638   19.2240 H   0  0  0  0  0  0  0  0  0  0  0  0
   51.8805   11.1792   13.7821 H   0  0  0  0  0  0  0  0  0  0  0  0
   52.8444   11.3134   15.2661 H   0  0  0  0  0  0  0  0  0  0  0  0
   51.1014   10.9703   15.3341 H   0  0  0  0  0  0  0  0  0  0  0  0
   53.6365    8.0157   13.7315 H   0  0  0  0  0  0  0  0  0  0  0  0
   54.3669    9.5518   14.2488 H   0  0  0  0  0  0  0  0  0  0  0  0
   53.2783    9.4880   12.8455 H   0  0  0  0  0  0  0  0  0  0  0  0
   47.5799    3.9656   15.0817 H   0  0  0  0  0  0  0  0  0  0  0  0
   47.4064   12.0479   17.2111 H   0  0  0  0  0  0  0  0  0  0  0  0
   46.4974    3.0223   17.1051 H   0  0  0  0  0  0  0  0  0  0  0  0
   47.1134   12.0929   19.6748 H   0  0  0  0  0  0  0  0  0  0  0  0
   48.0497    9.8755   16.9849 H   0  0  0  0  0  0  0  0  0  0  0  0
   47.5246    8.4434   16.2134 H   0  0  0  0  0  0  0  0  0  0  0  0
   52.9934    9.2299   13.9694 H   0  0  0  0  0  0  0  0  0  0  0  0
   48.6118    5.7237   21.2380 H   0  0  0  0  0  0  0  0  0  0  0  0
   51.5277   10.3369   18.1377 H   0  0  0  0  0  0  0  0  0  0  0  0
   48.6905    6.4913   16.0398 H   0  0  0  0  0  0  0  0  0  0  0  0
   54.9034   10.8469   16.1957 H   0  0  0  0  0  0  0  0  0  0  0  0
   48.8298    2.7916   18.1935 H   0  0  0  0  0  0  0  0  0  0  0  0
   47.6074    7.9147   14.2858 H   0  0  0  0  0  0  0  0  0  0  0  0
   47.7065   10.6195   18.7759 H   0  0  0  0  0  0  0  0  0  0  0  0
   51.9920    8.2320   12.0334 H   0  0  0  0  0  0  0  0  0  0  0  0
   47.9647    7.5595   22.6423 H   0  0  0  0  0  0  0  0  0  0  0  0
   47.2023   11.4259   20.9943 H   0  0  0  0  0  0  0  0  0  0  0  0
   47.8589    7.1539   12.0033 H   0  0  0  0  0  0  0  0  0  0  0  0
   47.3233    9.9097   22.9526 H   0  0  0  0  0  0  0  0  0  0  0  0
   50.0503    7.2989   10.8565 H   0  0  0  0  0  0  0  0  0  0  0  0
   46.3004    8.1851   18.4576 H   0  0  0  0  0  0  0  0  0  0  0  0
   46.0032    8.3086   20.1839 H   0  0  0  0  0  0  0  0  0  0  0  0
   48.0569    6.6343   20.4894 H   0  0  0  0  0  0  0  0  0  0  0  0
   46.4372    6.0870   20.0824 H   0  0  0  0  0  0  0  0  0  0  0  0
   49.8230    9.7067   16.5699 H   0  0  0  0  0  0  0  0  0  0  0  0
   49.2975    8.3886   15.6121 H   0  0  0  0  0  0  0  0  0  0  0  0
   51.8064    8.1242   17.3637 H   0  0  0  0  0  0  0  0  0  0  0  0
   51.4179    7.1526   15.9852 H   0  0  0  0  0  0  0  0  0  0  0  0
   49.5278    6.3292   15.5313 H   0  0  0  0  0  0  0  0  0  0  0  0
   51.0802    9.7511   18.5832 H   0  0  0  0  0  0  0  0  0  0  0  0
   52.0725   10.1536   15.8061 H   0  0  0  0  0  0  0  0  0  0  0  0
   53.2342    8.8453   15.7560 H   0  0  0  0  0  0  0  0  0  0  0  0
   46.7803    4.1843   18.9881 H   0  0  0  0  0  0  0  0  0  0  0  0
   46.9085   10.1202   21.1678 H   0  0  0  0  0  0  0  0  0  0  0  0
   54.0948    8.7075   13.6755 H   0  0  0  0  0  0  0  0  0  0  0  0
   53.4978   10.3773   13.5125 H   0  0  0  0  0  0  0  0  0  0  0  0
   53.1455    9.1541   12.2684 H   0  0  0  0  0  0  0  0  0  0  0  0
   49.9423    9.3547   13.8832 H   0  0  0  0  0  0  0  0  0  0  0  0
   50.9908   10.7849   13.7689 H   0  0  0  0  0  0  0  0  0  0  0  0
   50.8549    9.6315   12.4272 H   0  0  0  0  0  0  0  0  0  0  0  0
   50.8713   11.4474   20.3001 H   0  0  0  0  0  0  0  0  0  0  0  0
   48.7482    4.0981   15.2116 H   0  0  0  0  0  0  0  0  0  0  0  0
   48.7664   11.6709   21.5961 H   0  0  0  0  0  0  0  0  0  0  0  0
   47.3838    2.9653   16.9479 H   0  0  0  0  0  0  0  0  0  0  0  0
  2  1  1  0
  3  1  1  0
  4  2  2  0
  5  3  2  0
  6  4  1  0
  7  5  1  0
  8  1  1  0
  9  8  1  0
 10 13  1  0
 11  3  1  0
 12  2  1  0
 13  9  1  0
 14  5  1  0
 15  4  1  0
 16 10  1  0
 17 10  1  0
 18 12  2  0
 19 11  2  0
 20 15  2  0
 21 14  2  0
  6  7  1  0
 18 20  1  0
 19 21  1  0
 23 27  2  0
 24 28  1  0
 25 26  1  0
 26 22  2  0
 27 24  1  0
 28 25  1  0
 29 22  1  0
 30 23  1  0
 31 22  1  0
 32 23  1  0
 33 24  2  0
 34 35  1  0
 35 29  2  0
 36 33  1  0
 37 31  2  0
 38 32  2  0
 39 26  1  0
 40 27  1  0
 41 31  1  0
 42 32  1  0
 43 34  1  0
 44 33  1  0
 45 35  1  0
 46 36  1  0
 47 44  2  0
 48 43  2  0
 49 47  1  0
 50 45  2  0
 25 34  2  0
 48 50  1  0
 30 36  2  0
 46 49  2  0
 52 51  1  0
 53 51  1  0
 54 52  2  0
 55 53  2  0
 56 54  1  0
 57 55  1  0
 58 51  1  0
 59 58  1  0
 60 63  1  0
 61 53  1  0
 62 52  1  0
 63 59  1  0
 64 55  1  0
 65 54  1  0
 66 60  1  0
 67 60  1  0
 68 62  2  0
 69 61  2  0
 70 65  2  0
 71 64  2  0
 56 57  1  0
 68 70  1  0
 69 71  1  0
  6 72  1  0
  6 73  1  0
  7 74  1  0
  7 75  1  0
  8 76  1  0
  8 77  1  0
  9 78  1  0
  9 79  1  0
 11 80  1  0
 12 81  1  0
 13 82  1  0
 13 83  1  0
 14 84  1  0
 15 85  1  0
 16 86  1  0
 16 87  1  0
 16 88  1  0
 17 89  1  0
 17 90  1  0
 17 91  1  0
 18 92  1  0
 19 93  1  0
 20 94  1  0
 21 95  1  0
 28 96  1  0
 28 97  1  0
 29 98  1  0
 30 99  1  0
 39100  1  0
 40101  1  0
 41102  1  0
 42103  1  0
 43104  1  0
 44105  1  0
 45106  1  0
 46107  1  0
 47108  1  0
 48109  1  0
 49110  1  0
 50111  1  0
 56112  1  0
 56113  1  0
 57114  1  0
 57115  1  0
 58116  1  0
 58117  1  0
 59118  1  0
 59119  1  0
 61120  1  0
 62121  1  0
 63122  1  0
 63123  1  0
 64124  1  0
 65125  1  0
 66126  1  0
 66127  1  0
 66128  1  0
 67129  1  0
 67130  1  0
 67131  1  0
 68132  1  0
 69133  1  0
 70134  1  0
 71135  1  0
M  END
> <Uni-Dock RESULT> 
ENERGY=   -7.446  LOWER_BOUND=    2.075  UPPER_BOUND=    4.956
INTER + INTRA:          -7.446
INTER:                  -7.446
INTRA:                   0.000
UNBOUND:                 0.000

$$$$

     RDKit          3D

135142  0  0  0  0  0  0  0  0999 V2000
   52.4110    4.2111   18.7649 N   0  0  0  0  0  0  0  0  0  0  0  0
   52.7378    2.8439   18.5746 C   0  0  0  0  0  0  0  0  0  0  0  0
   52.5950    4.8956   19.9895 C   0  0  0  0  0  0  0  0  0  0  0  0
   53.9435    2.2689   19.0395 C   0  0  0  0  0  0  0  0  0  0  0  0
   53.8904    5.0874   20.4949 C   0  0  0  0  0  0  0  0  0  0  0  0
   55.0494    3.0055   19.7711 C   0  0  0  0  0  0  0  0  0  0  0  0
   55.0583    4.5298   19.7291 C   0  0  0  0  0  0  0  0  0  0  0  0
   51.4958    4.8517   17.7894 C   0  0  0  0  0  0  0  0  0  0  0  0
   51.9323    6.2881   17.4578 C   0  0  0  0  0  0  0  0  0  0  0  0
   49.6902    6.9098   16.4683 N   0  0  0  0  0  0  0  0  0  0  0  0
   51.5131    5.4102   20.7214 C   0  0  0  0  0  0  0  0  0  0  0  0
   51.8214    1.9810   17.9268 C   0  0  0  0  0  0  0  0  0  0  0  0
   51.1501    6.8790   16.2772 C   0  0  0  0  0  0  0  0  0  0  0  0
   54.0905    5.7902   21.6930 C   0  0  0  0  0  0  0  0  0  0  0  0
   54.1812    0.8876   18.8379 C   0  0  0  0  0  0  0  0  0  0  0  0
   49.2972    7.8600   17.5126 C   0  0  0  0  0  0  0  0  0  0  0  0
   49.0308    7.2686   15.2089 C   0  0  0  0  0  0  0  0  0  0  0  0
   52.0768    0.6217   17.7271 C   0  0  0  0  0  0  0  0  0  0  0  0
   51.7138    6.1080   21.9162 C   0  0  0  0  0  0  0  0  0  0  0  0
   53.2635    0.0734   18.1821 C   0  0  0  0  0  0  0  0  0  0  0  0
   53.0032    6.3024   22.3984 C   0  0  0  0  0  0  0  0  0  0  0  0
   50.6267    7.1840   17.1622 C   0  0  0  0  0  0  0  0  0  0  0  0
   54.6830    2.9865   18.2732 C   0  0  0  0  0  0  0  0  0  0  0  0
   52.9819    4.1951   19.5574 C   0  0  0  0  0  0  0  0  0  0  0  0
   50.7769    5.2442   18.6546 C   0  0  0  0  0  0  0  0  0  0  0  0
   51.2373    6.5102   18.2279 C   0  0  0  0  0  0  0  0  0  0  0  0
   53.3478    3.3450   18.4843 C   0  0  0  0  0  0  0  0  0  0  0  0
   51.5114    4.5490   19.7976 C   0  0  0  0  0  0  0  0  0  0  0  0
   49.5360    6.5998   16.5165 C   0  0  0  0  0  0  0  0  0  0  0  0
   55.6804    3.4848   19.1101 C   0  0  0  0  0  0  0  0  0  0  0  0
   51.1380    8.5058   16.7337 C   0  0  0  0  0  0  0  0  0  0  0  0
   55.1220    2.0775   17.1959 C   0  0  0  0  0  0  0  0  0  0  0  0
   54.0136    4.6900   20.4330 C   0  0  0  0  0  0  0  0  0  0  0  0
   49.6211    4.6735   18.0251 C   0  0  0  0  0  0  0  0  0  0  0  0
   49.0245    5.3661   16.9371 C   0  0  0  0  0  0  0  0  0  0  0  0
   55.3645    4.3201   20.1850 C   0  0  0  0  0  0  0  0  0  0  0  0
   52.1470    9.0290   17.1741 O   0  0  0  0  0  0  0  0  0  0  0  0
   56.1445    2.1954   16.5407 O   0  0  0  0  0  0  0  0  0  0  0  0
   52.2874    7.0622   18.9186 O   0  0  0  0  0  0  0  0  0  0  0  0
   52.4215    2.8706   17.5943 O   0  0  0  0  0  0  0  0  0  0  0  0
   50.3717    9.1132   15.8138 O   0  0  0  0  0  0  0  0  0  0  0  0
   54.3377    0.9894   17.0767 O   0  0  0  0  0  0  0  0  0  0  0  0
   49.0084    3.4524   18.4078 C   0  0  0  0  0  0  0  0  0  0  0  0
   53.7986    5.5422   21.5478 C   0  0  0  0  0  0  0  0  0  0  0  0
   47.9119    4.8253   16.2696 C   0  0  0  0  0  0  0  0  0  0  0  0
   56.4042    4.7798   21.0132 C   0  0  0  0  0  0  0  0  0  0  0  0
   54.8419    5.9932   22.3647 C   0  0  0  0  0  0  0  0  0  0  0  0
   47.8975    2.9292   17.7371 C   0  0  0  0  0  0  0  0  0  0  0  0
   56.1461    5.6097   22.0991 C   0  0  0  0  0  0  0  0  0  0  0  0
   47.3525    3.6142   16.6639 C   0  0  0  0  0  0  0  0  0  0  0  0
   52.7082    4.5922   18.8731 N   0  0  0  0  0  0  0  0  0  0  0  0
   53.4415    5.4412   19.7690 C   0  0  0  0  0  0  0  0  0  0  0  0
   52.8871    3.2112   18.5287 C   0  0  0  0  0  0  0  0  0  0  0  0
   54.0742    4.9779   20.9358 C   0  0  0  0  0  0  0  0  0  0  0  0
   53.9211    2.3908   19.0367 C   0  0  0  0  0  0  0  0  0  0  0  0
   54.1513    3.5160   21.2591 C   0  0  0  0  0  0  0  0  0  0  0  0
   54.8740    2.8104   20.1260 C   0  0  0  0  0  0  0  0  0  0  0  0
   51.4424    5.2380   18.4083 C   0  0  0  0  0  0  0  0  0  0  0  0
   51.5501    5.7758   16.9736 C   0  0  0  0  0  0  0  0  0  0  0  0
   49.1639    6.3058   16.2996 N   0  0  0  0  0  0  0  0  0  0  0  0
   52.0322    2.5760   17.5898 C   0  0  0  0  0  0  0  0  0  0  0  0
   53.5447    6.8326   19.5199 C   0  0  0  0  0  0  0  0  0  0  0  0
   50.5017    6.8405   16.6119 C   0  0  0  0  0  0  0  0  0  0  0  0
   54.1043    1.0667   18.5569 C   0  0  0  0  0  0  0  0  0  0  0  0
   54.6987    5.8780   21.8291 C   0  0  0  0  0  0  0  0  0  0  0  0
   48.4662    7.2165   15.3811 C   0  0  0  0  0  0  0  0  0  0  0  0
   48.3330    6.1195   17.4923 C   0  0  0  0  0  0  0  0  0  0  0  0
   54.1822    7.7178   20.3981 C   0  0  0  0  0  0  0  0  0  0  0  0
   52.2023    1.2573   17.1442 C   0  0  0  0  0  0  0  0  0  0  0  0
   54.7451    7.2413   21.5658 C   0  0  0  0  0  0  0  0  0  0  0  0
   53.2533    0.5028   17.6184 C   0  0  0  0  0  0  0  0  0  0  0  0
   56.0074    2.6748   19.3461 H   0  0  0  0  0  0  0  0  0  0  0  0
   55.0340    2.6695   20.8188 H   0  0  0  0  0  0  0  0  0  0  0  0
   55.0459    4.9024   18.6963 H   0  0  0  0  0  0  0  0  0  0  0  0
   55.9954    4.8908   20.1694 H   0  0  0  0  0  0  0  0  0  0  0  0
   50.4604    4.8142   18.1463 H   0  0  0  0  0  0  0  0  0  0  0  0
   51.5214    4.3063   16.8373 H   0  0  0  0  0  0  0  0  0  0  0  0
   52.9979    6.2871   17.1940 H   0  0  0  0  0  0  0  0  0  0  0  0
   51.8401    6.9431   18.3303 H   0  0  0  0  0  0  0  0  0  0  0  0
   50.4945    5.2554   20.3761 H   0  0  0  0  0  0  0  0  0  0  0  0
   50.8549    2.3524   17.5920 H   0  0  0  0  0  0  0  0  0  0  0  0
   51.3839    6.2675   15.3952 H   0  0  0  0  0  0  0  0  0  0  0  0
   51.5326    7.8861   16.0637 H   0  0  0  0  0  0  0  0  0  0  0  0
   55.0946    5.9403   22.0819 H   0  0  0  0  0  0  0  0  0  0  0  0
   55.1048    0.4400   19.2013 H   0  0  0  0  0  0  0  0  0  0  0  0
   48.2063    7.8857   17.6154 H   0  0  0  0  0  0  0  0  0  0  0  0
   49.6440    8.8762   17.2970 H   0  0  0  0  0  0  0  0  0  0  0  0
   49.6852    7.5592   18.4904 H   0  0  0  0  0  0  0  0  0  0  0  0
   49.2618    6.5340   14.4290 H   0  0  0  0  0  0  0  0  0  0  0  0
   49.3337    8.2593   14.8517 H   0  0  0  0  0  0  0  0  0  0  0  0
   47.9417    7.2624   15.3278 H   0  0  0  0  0  0  0  0  0  0  0  0
   51.3412   -0.0038   17.2294 H   0  0  0  0  0  0  0  0  0  0  0  0
   50.8609    6.4937   22.4678 H   0  0  0  0  0  0  0  0  0  0  0  0
   53.4709   -0.9832   18.0426 H   0  0  0  0  0  0  0  0  0  0  0  0
   53.1623    6.8418   23.3278 H   0  0  0  0  0  0  0  0  0  0  0  0
   51.3624    5.1824   20.6753 H   0  0  0  0  0  0  0  0  0  0  0  0
   51.0325    3.6114   20.0878 H   0  0  0  0  0  0  0  0  0  0  0  0
   49.0662    7.1155   15.6812 H   0  0  0  0  0  0  0  0  0  0  0  0
   56.7162    3.2051   18.9232 H   0  0  0  0  0  0  0  0  0  0  0  0
   52.5711    7.8977   18.4834 H   0  0  0  0  0  0  0  0  0  0  0  0
   51.5549    2.7992   18.0219 H   0  0  0  0  0  0  0  0  0  0  0  0
   50.8216    9.9679   15.6408 H   0  0  0  0  0  0  0  0  0  0  0  0
   54.7467    0.4881   16.3439 H   0  0  0  0  0  0  0  0  0  0  0  0
   49.3729    2.8721   19.2505 H   0  0  0  0  0  0  0  0  0  0  0  0
   52.8069    5.8992   21.8060 H   0  0  0  0  0  0  0  0  0  0  0  0
   47.4628    5.3514   15.4289 H   0  0  0  0  0  0  0  0  0  0  0  0
   57.4355    4.4928   20.8168 H   0  0  0  0  0  0  0  0  0  0  0  0
   54.6258    6.6506   23.2034 H   0  0  0  0  0  0  0  0  0  0  0  0
   47.4604    1.9879   18.0619 H   0  0  0  0  0  0  0  0  0  0  0  0
   56.9591    5.9581   22.7291 H   0  0  0  0  0  0  0  0  0  0  0  0
   46.4900    3.2123   16.1390 H   0  0  0  0  0  0  0  0  0  0  0  0
   53.1504    3.1129   21.4546 H   0  0  0  0  0  0  0  0  0  0  0  0
   54.7279    3.3708   22.1816 H   0  0  0  0  0  0  0  0  0  0  0  0
   55.6848    3.4111   19.6922 H   0  0  0  0  0  0  0  0  0  0  0  0
   55.3474    1.9185   20.5565 H   0  0  0  0  0  0  0  0  0  0  0  0
   51.1518    6.0573   19.0830 H   0  0  0  0  0  0  0  0  0  0  0  0
   50.6101    4.5359   18.5146 H   0  0  0  0  0  0  0  0  0  0  0  0
   52.5385    6.2223   16.8206 H   0  0  0  0  0  0  0  0  0  0  0  0
   51.5012    4.9656   16.2378 H   0  0  0  0  0  0  0  0  0  0  0  0
   51.1843    3.0869   17.1467 H   0  0  0  0  0  0  0  0  0  0  0  0
   53.1409    7.2649   18.6127 H   0  0  0  0  0  0  0  0  0  0  0  0
   50.4561    7.6247   17.3794 H   0  0  0  0  0  0  0  0  0  0  0  0
   50.8971    7.3268   15.7119 H   0  0  0  0  0  0  0  0  0  0  0  0
   54.9204    0.4554   18.9401 H   0  0  0  0  0  0  0  0  0  0  0  0
   55.1706    5.5073   22.7372 H   0  0  0  0  0  0  0  0  0  0  0  0
   49.0296    7.3325   14.4468 H   0  0  0  0  0  0  0  0  0  0  0  0
   48.3169    8.2102   15.8226 H   0  0  0  0  0  0  0  0  0  0  0  0
   47.4872    6.8102   15.1016 H   0  0  0  0  0  0  0  0  0  0  0  0
   48.7204    5.3234   18.1310 H   0  0  0  0  0  0  0  0  0  0  0  0
   48.2494    7.0364   18.0886 H   0  0  0  0  0  0  0  0  0  0  0  0
   47.3216    5.8028   17.2130 H   0  0  0  0  0  0  0  0  0  0  0  0
   54.2320    8.7770   20.1592 H   0  0  0  0  0  0  0  0  0  0  0  0
   51.5101    0.8397   16.4174 H   0  0  0  0  0  0  0  0  0  0  0  0
   55.2369    7.9171   22.2593 H   0  0  0  0  0  0  0  0  0  0  0  0
   53.4049   -0.5148   17.2745 H   0  0  0  0  0  0  0  0  0  0  0  0
  2  1  1  0
  3  1  1  0
  4  2  2  0
  5  3  2  0
  6  4  1  0
  7  5  1  0
  8  1  1  0
  9  8  1  0
 10 13  1  0
 11  3  1  0
 12  2  1  0
 13  9  1  0
 14  5  1  0
 15  4  1  0
 16 10  1  0
 17 10  1  0
 18 12  2  0
 19 11  2  0
 20 15  2  0
 21 14  2  0
  6  7  1  0
 18 20  1  0
 19 21  1  0
 23 27  2  0
 24 28  1  0
 25 26  1  0
 26 22  2  0
 27 24  1  0
 28 25  1  0
 29 22  1  0
 30 23  1  0
 31 22  1  0
 32 23  1  0
 33 24  2  0
 34 35  1  0
 35 29  2  0
 36 33  1  0
 37 31  2  0
 38 32  2  0
 39 26  1  0
 40 27  1  0
 41 31  1  0
 42 32  1  0
 43 34  1  0
 44 33  1  0
 45 35  1  0
 46 36  1  0
 47 44  2  0
 48 43  2  0
 49 47  1  0
 50 45  2  0
 25 34  2  0
 48 50  1  0
 30 36  2  0
 46 49  2  0
 52 51  1  0
 53 51  1  0
 54 52  2  0
 55 53  2  0
 56 54  1  0
 57 55  1  0
 58 51  1  0
 59 58  1  0
 60 63  1  0
 61 53  1  0
 62 52  1  0
 63 59  1  0
 64 55  1  0
 65 54  1  0
 66 60  1  0
 67 60  1  0
 68 62  2  0
 69 61  2  0
 70 65  2  0
 71 64  2  0
 56 57  1  0
 68 70  1  0
 69 71  1  0
  6 72  1  0
  6 73  1  0
  7 74  1  0
  7 75  1  0
  8 76  1  0
  8 77  1  0
  9 78  1  0
  9 79  1  0
 11 80  1  0
 12 81  1  0
 13 82  1  0
 13 83  1  0
 14 84  1  0
 15 85  1  0
 16 86  1  0
 16 87  1  0
 16 88  1  0
 17 89  1  0
 17 90  1  0
 17 91  1  0
 18 92  1  0
 19 93  1  0
 20 94  1  0
 21 95  1  0
 28 96  1  0
 28 97  1  0
 29 98  1  0
 30 99  1  0
 39100  1  0
 40101  1  0
 41102  1  0
 42103  1  0
 43104  1  0
 44105  1  0
 45106  1  0
 46107  1  0
 47108  1  0
 48109  1  0
 49110  1  0
 50111  1  0
 56112  1  0
 56113  1  0
 57114  1  0
 57115  1  0
 58116  1  0
 58117  1  0
 59118  1  0
 59119  1  0
 61120  1  0
 62121  1  0
 63122  1  0
 63123  1  0
 64124  1  0
 65125  1  0
 66126  1  0
 66127  1  0
 66128  1  0
 67129  1  0
 67130  1  0
 67131  1  0
 68132  1  0
 69133  1  0
 70134  1  0
 71135  1  0
M  END
> <Uni-Dock RESULT> 
ENERGY=   -7.396  LOWER_BOUND=    4.349  UPPER_BOUND=    8.150
INTER + INTRA:          -7.396
INTER:                  -7.396
INTRA:                   0.000
UNBOUND:                 0.000

$$$$

     RDKit          3D

135142  0  0  0  0  0  0  0  0999 V2000
   49.7597    7.7858   19.5407 N   0  0  0  0  0  0  0  0  0  0  0  0
   48.9736    7.0680   20.4782 C   0  0  0  0  0  0  0  0  0  0  0  0
   49.2177    8.6840   18.5913 C   0  0  0  0  0  0  0  0  0  0  0  0
   47.9265    7.6628   21.2201 C   0  0  0  0  0  0  0  0  0  0  0  0
   48.5801    9.8573   19.0241 C   0  0  0  0  0  0  0  0  0  0  0  0
   47.5086    9.1191   21.1475 C   0  0  0  0  0  0  0  0  0  0  0  0
   48.4628   10.1173   20.5006 C   0  0  0  0  0  0  0  0  0  0  0  0
   51.1379    7.3069   19.2745 C   0  0  0  0  0  0  0  0  0  0  0  0
   52.1267    8.4744   19.1222 C   0  0  0  0  0  0  0  0  0  0  0  0
   53.8941    7.0414   18.0199 N   0  0  0  0  0  0  0  0  0  0  0  0
   49.3086    8.4478   17.2104 C   0  0  0  0  0  0  0  0  0  0  0  0
   49.1972    5.6842   20.6766 C   0  0  0  0  0  0  0  0  0  0  0  0
   53.5869    8.0037   19.0916 C   0  0  0  0  0  0  0  0  0  0  0  0
   48.0640   10.7721   18.0935 C   0  0  0  0  0  0  0  0  0  0  0  0
   47.1663    6.8698   22.1135 C   0  0  0  0  0  0  0  0  0  0  0  0
   53.8163    7.6598   16.6935 C   0  0  0  0  0  0  0  0  0  0  0  0
   55.2354    6.4844   18.2207 C   0  0  0  0  0  0  0  0  0  0  0  0
   48.4437    4.9187   21.5706 C   0  0  0  0  0  0  0  0  0  0  0  0
   48.7917    9.3589   16.2844 C   0  0  0  0  0  0  0  0  0  0  0  0
   47.4257    5.5151   22.2944 C   0  0  0  0  0  0  0  0  0  0  0  0
   48.1746   10.5235   16.7267 C   0  0  0  0  0  0  0  0  0  0  0  0
   53.2731    8.0641   18.0679 C   0  0  0  0  0  0  0  0  0  0  0  0
   48.7102    8.4587   21.8535 C   0  0  0  0  0  0  0  0  0  0  0  0
   48.9973    8.3846   19.4212 C   0  0  0  0  0  0  0  0  0  0  0  0
   50.9494    7.2815   18.0984 C   0  0  0  0  0  0  0  0  0  0  0  0
   51.8978    8.3291   18.0966 C   0  0  0  0  0  0  0  0  0  0  0  0
   49.1651    7.8055   20.7036 C   0  0  0  0  0  0  0  0  0  0  0  0
   49.4676    7.6401   18.1683 C   0  0  0  0  0  0  0  0  0  0  0  0
   53.7156    6.7410   18.0288 C   0  0  0  0  0  0  0  0  0  0  0  0
   48.1018    9.7090   21.7517 C   0  0  0  0  0  0  0  0  0  0  0  0
   54.2417    9.1839   18.0750 C   0  0  0  0  0  0  0  0  0  0  0  0
   48.8238    7.8914   23.2117 C   0  0  0  0  0  0  0  0  0  0  0  0
   48.3482    9.6668   19.3189 C   0  0  0  0  0  0  0  0  0  0  0  0
   51.4074    5.9256   18.0014 C   0  0  0  0  0  0  0  0  0  0  0  0
   52.8065    5.6770   17.9871 C   0  0  0  0  0  0  0  0  0  0  0  0
   47.9090   10.3142   20.5069 C   0  0  0  0  0  0  0  0  0  0  0  0
   53.9376   10.3557   18.2166 O   0  0  0  0  0  0  0  0  0  0  0  0
   49.0781    8.5217   24.2250 O   0  0  0  0  0  0  0  0  0  0  0  0
   51.4145    9.6140   18.0959 O   0  0  0  0  0  0  0  0  0  0  0  0
   49.8062    6.6075   20.8736 O   0  0  0  0  0  0  0  0  0  0  0  0
   55.5149    8.8029   17.8848 O   0  0  0  0  0  0  0  0  0  0  0  0
   48.4817    6.5902   23.2660 O   0  0  0  0  0  0  0  0  0  0  0  0
   50.5636    4.7884   17.9127 C   0  0  0  0  0  0  0  0  0  0  0  0
   48.1064   10.3649   18.1067 C   0  0  0  0  0  0  0  0  0  0  0  0
   53.2979    4.3613   17.9283 C   0  0  0  0  0  0  0  0  0  0  0  0
   47.2712   11.5667   20.4549 C   0  0  0  0  0  0  0  0  0  0  0  0
   47.4706   11.6113   18.0678 C   0  0  0  0  0  0  0  0  0  0  0  0
   51.0676    3.4847   17.8491 C   0  0  0  0  0  0  0  0  0  0  0  0
   47.0498   12.2121   19.2429 C   0  0  0  0  0  0  0  0  0  0  0  0
   52.4360    3.2714   17.8621 C   0  0  0  0  0  0  0  0  0  0  0  0
   49.8239    8.2748   19.4947 N   0  0  0  0  0  0  0  0  0  0  0  0
   49.4627    9.5842   19.0301 C   0  0  0  0  0  0  0  0  0  0  0  0
   49.1866    7.4033   20.4393 C   0  0  0  0  0  0  0  0  0  0  0  0
   48.1341   10.0297   18.9164 C   0  0  0  0  0  0  0  0  0  0  0  0
   48.0092    7.7264   21.1531 C   0  0  0  0  0  0  0  0  0  0  0  0
   46.9850    9.2064   19.4156 C   0  0  0  0  0  0  0  0  0  0  0  0
   47.1799    8.9590   20.9004 C   0  0  0  0  0  0  0  0  0  0  0  0
   50.9316    7.6840   18.6826 C   0  0  0  0  0  0  0  0  0  0  0  0
   52.2852    7.7414   19.4062 C   0  0  0  0  0  0  0  0  0  0  0  0
   53.8067    6.2283   18.0555 N   0  0  0  0  0  0  0  0  0  0  0  0
   49.7451    6.1373   20.7573 C   0  0  0  0  0  0  0  0  0  0  0  0
   50.4612   10.5079   18.6321 C   0  0  0  0  0  0  0  0  0  0  0  0
   53.5073    7.6069   18.4832 C   0  0  0  0  0  0  0  0  0  0  0  0
   47.5051    6.8603   22.1594 C   0  0  0  0  0  0  0  0  0  0  0  0
   47.8379   11.2952   18.3607 C   0  0  0  0  0  0  0  0  0  0  0  0
   55.2429    6.0957   17.7735 C   0  0  0  0  0  0  0  0  0  0  0  0
   53.0579    5.8279   16.8610 C   0  0  0  0  0  0  0  0  0  0  0  0
   50.1634   11.7689   18.1009 C   0  0  0  0  0  0  0  0  0  0  0  0
   49.2229    5.2743   21.7314 C   0  0  0  0  0  0  0  0  0  0  0  0
   48.8467   12.1565   17.9476 C   0  0  0  0  0  0  0  0  0  0  0  0
   48.1055    5.6441   22.4479 C   0  0  0  0  0  0  0  0  0  0  0  0
   47.3395    9.4685   22.1756 H   0  0  0  0  0  0  0  0  0  0  0  0
   46.5360    9.1592   20.6345 H   0  0  0  0  0  0  0  0  0  0  0  0
   49.4549   10.0855   20.9701 H   0  0  0  0  0  0  0  0  0  0  0  0
   48.0815   11.1317   20.6682 H   0  0  0  0  0  0  0  0  0  0  0  0
   51.1564    6.6430   18.4030 H   0  0  0  0  0  0  0  0  0  0  0  0
   51.5017    6.7191   20.1271 H   0  0  0  0  0  0  0  0  0  0  0  0
   52.0071    9.1586   19.9723 H   0  0  0  0  0  0  0  0  0  0  0  0
   51.9079    9.0666   18.2277 H   0  0  0  0  0  0  0  0  0  0  0  0
   49.7691    7.5361   16.8394 H   0  0  0  0  0  0  0  0  0  0  0  0
   49.9541    5.1584   20.0983 H   0  0  0  0  0  0  0  0  0  0  0  0
   53.7975    7.5377   20.0638 H   0  0  0  0  0  0  0  0  0  0  0  0
   54.2435    8.8812   19.0221 H   0  0  0  0  0  0  0  0  0  0  0  0
   47.5728   11.6817   18.4301 H   0  0  0  0  0  0  0  0  0  0  0  0
   46.3546    7.3226   22.6805 H   0  0  0  0  0  0  0  0  0  0  0  0
   54.0771    6.9322   15.9165 H   0  0  0  0  0  0  0  0  0  0  0  0
   54.4906    8.5176   16.5984 H   0  0  0  0  0  0  0  0  0  0  0  0
   52.7980    7.9901   16.4678 H   0  0  0  0  0  0  0  0  0  0  0  0
   55.2967    5.9619   19.1822 H   0  0  0  0  0  0  0  0  0  0  0  0
   56.0116    7.2576   18.1969 H   0  0  0  0  0  0  0  0  0  0  0  0
   55.4643    5.7412   17.4489 H   0  0  0  0  0  0  0  0  0  0  0  0
   48.6475    3.8580   21.6861 H   0  0  0  0  0  0  0  0  0  0  0  0
   48.8700    9.1528   15.2205 H   0  0  0  0  0  0  0  0  0  0  0  0
   46.8259    4.9304   22.9852 H   0  0  0  0  0  0  0  0  0  0  0  0
   47.7696   11.2322   16.0098 H   0  0  0  0  0  0  0  0  0  0  0  0
   49.2485    8.1794   17.2436 H   0  0  0  0  0  0  0  0  0  0  0  0
   48.8250    6.7601   18.0971 H   0  0  0  0  0  0  0  0  0  0  0  0
   54.7835    6.5313   18.0174 H   0  0  0  0  0  0  0  0  0  0  0  0
   47.7651   10.2087   22.6587 H   0  0  0  0  0  0  0  0  0  0  0  0
   52.1596   10.2512   18.1774 H   0  0  0  0  0  0  0  0  0  0  0  0
   49.7024    6.0588   20.0817 H   0  0  0  0  0  0  0  0  0  0  0  0
   56.0293    9.6383   17.9014 H   0  0  0  0  0  0  0  0  0  0  0  0
   48.5976    6.3594   24.2089 H   0  0  0  0  0  0  0  0  0  0  0  0
   49.4821    4.8831   17.8805 H   0  0  0  0  0  0  0  0  0  0  0  0
   48.4246    9.9657   17.1491 H   0  0  0  0  0  0  0  0  0  0  0  0
   54.3700    4.1717   17.9289 H   0  0  0  0  0  0  0  0  0  0  0  0
   46.9383   12.0559   21.3683 H   0  0  0  0  0  0  0  0  0  0  0  0
   47.3146   12.1087   17.1136 H   0  0  0  0  0  0  0  0  0  0  0  0
   50.3848    2.6408   17.7848 H   0  0  0  0  0  0  0  0  0  0  0  0
   46.5573   13.1795   19.2181 H   0  0  0  0  0  0  0  0  0  0  0  0
   52.8329    2.2610   17.8134 H   0  0  0  0  0  0  0  0  0  0  0  0
   46.8904    8.2843   18.8295 H   0  0  0  0  0  0  0  0  0  0  0  0
   46.0464    9.7579   19.2764 H   0  0  0  0  0  0  0  0  0  0  0  0
   47.6262    9.8147   21.4247 H   0  0  0  0  0  0  0  0  0  0  0  0
   46.1812    8.8185   21.3339 H   0  0  0  0  0  0  0  0  0  0  0  0
   51.0169    8.1927   17.7107 H   0  0  0  0  0  0  0  0  0  0  0  0
   50.6716    6.6613   18.3938 H   0  0  0  0  0  0  0  0  0  0  0  0
   52.3785    8.6943   19.9384 H   0  0  0  0  0  0  0  0  0  0  0  0
   52.3505    6.9829   20.1940 H   0  0  0  0  0  0  0  0  0  0  0  0
   50.6319    5.7588   20.2605 H   0  0  0  0  0  0  0  0  0  0  0  0
   51.5121   10.2713   18.7451 H   0  0  0  0  0  0  0  0  0  0  0  0
   53.4307    8.2898   17.6265 H   0  0  0  0  0  0  0  0  0  0  0  0
   54.3504    7.9727   19.0817 H   0  0  0  0  0  0  0  0  0  0  0  0
   46.6108    7.1346   22.7177 H   0  0  0  0  0  0  0  0  0  0  0  0
   46.8039   11.6207   18.2636 H   0  0  0  0  0  0  0  0  0  0  0  0
   55.8370    6.3278   18.6663 H   0  0  0  0  0  0  0  0  0  0  0  0
   55.5645    6.7584   16.9600 H   0  0  0  0  0  0  0  0  0  0  0  0
   55.4904    5.0637   17.4989 H   0  0  0  0  0  0  0  0  0  0  0  0
   51.9891    5.7439   17.0668 H   0  0  0  0  0  0  0  0  0  0  0  0
   53.1994    6.5267   16.0275 H   0  0  0  0  0  0  0  0  0  0  0  0
   53.3692    4.8320   16.5256 H   0  0  0  0  0  0  0  0  0  0  0  0
   50.9684   12.4389   17.8100 H   0  0  0  0  0  0  0  0  0  0  0  0
   49.7093    4.3215   21.9250 H   0  0  0  0  0  0  0  0  0  0  0  0
   48.6007   13.1289   17.5309 H   0  0  0  0  0  0  0  0  0  0  0  0
   47.6966    4.9924   23.2128 H   0  0  0  0  0  0  0  0  0  0  0  0
  2  1  1  0
  3  1  1  0
  4  2  2  0
  5  3  2  0
  6  4  1  0
  7  5  1  0
  8  1  1  0
  9  8  1  0
 10 13  1  0
 11  3  1  0
 12  2  1  0
 13  9  1  0
 14  5  1  0
 15  4  1  0
 16 10  1  0
 17 10  1  0
 18 12  2  0
 19 11  2  0
 20 15  2  0
 21 14  2  0
  6  7  1  0
 18 20  1  0
 19 21  1  0
 23 27  2  0
 24 28  1  0
 25 26  1  0
 26 22  2  0
 27 24  1  0
 28 25  1  0
 29 22  1  0
 30 23  1  0
 31 22  1  0
 32 23  1  0
 33 24  2  0
 34 35  1  0
 35 29  2  0
 36 33  1  0
 37 31  2  0
 38 32  2  0
 39 26  1  0
 40 27  1  0
 41 31  1  0
 42 32  1  0
 43 34  1  0
 44 33  1  0
 45 35  1  0
 46 36  1  0
 47 44  2  0
 48 43  2  0
 49 47  1  0
 50 45  2  0
 25 34  2  0
 48 50  1  0
 30 36  2  0
 46 49  2  0
 52 51  1  0
 53 51  1  0
 54 52  2  0
 55 53  2  0
 56 54  1  0
 57 55  1  0
 58 51  1  0
 59 58  1  0
 60 63  1  0
 61 53  1  0
 62 52  1  0
 63 59  1  0
 64 55  1  0
 65 54  1  0
 66 60  1  0
 67 60  1  0
 68 62  2  0
 69 61  2  0
 70 65  2  0
 71 64  2  0
 56 57  1  0
 68 70  1  0
 69 71  1  0
  6 72  1  0
  6 73  1  0
  7 74  1  0
  7 75  1  0
  8 76  1  0
  8 77  1  0
  9 78  1  0
  9 79  1  0
 11 80  1  0
 12 81  1  0
 13 82  1  0
 13 83  1  0
 14 84  1  0
 15 85  1  0
 16 86  1  0
 16 87  1  0
 16 88  1  0
 17 89  1  0
 17 90  1  0
 17 91  1  0
 18 92  1  0
 19 93  1  0
 20 94  1  0
 21 95  1  0
 28 96  1  0
 28 97  1  0
 29 98  1  0
 30 99  1  0
 39100  1  0
 40101  1  0
 41102  1  0
 42103  1  0
 43104  1  0
 44105  1  0
 45106  1  0
 46107  1  0
 47108  1  0
 48109  1  0
 49110  1  0
 50111  1  0
 56112  1  0
 56113  1  0
 57114  1  0
 57115  1  0
 58116  1  0
 58117  1  0
 59118  1  0
 59119  1  0
 61120  1  0
 62121  1  0
 63122  1  0
 63123  1  0
 64124  1  0
 65125  1  0
 66126  1  0
 66127  1  0
 66128  1  0
 67129  1  0
 67130  1  0
 67131  1  0
 68132  1  0
 69133  1  0
 70134  1  0
 71135  1  0
M  END
> <Uni-Dock RESULT> 
ENERGY=   -7.040  LOWER_BOUND=    2.542  UPPER_BOUND=    5.684
INTER + INTRA:          -7.040
INTER:                  -7.040
INTRA:                   0.000
UNBOUND:                 0.000

$$$$

     RDKit          3D

135142  0  0  0  0  0  0  0  0999 V2000
   42.4615   13.5094   11.3685 N   0  0  0  0  0  0  0  0  0  0  0  0
   42.8746   14.2317   12.5174 C   0  0  0  0  0  0  0  0  0  0  0  0
   41.6150   12.3769   11.4198 C   0  0  0  0  0  0  0  0  0  0  0  0
   41.9893   14.5896   13.5609 C   0  0  0  0  0  0  0  0  0  0  0  0
   40.2912   12.5136   11.8661 C   0  0  0  0  0  0  0  0  0  0  0  0
   40.5038   14.2860   13.6026 C   0  0  0  0  0  0  0  0  0  0  0  0
   39.8111   13.8679   12.3100 C   0  0  0  0  0  0  0  0  0  0  0  0
   43.2330   13.6923   10.1152 C   0  0  0  0  0  0  0  0  0  0  0  0
   42.3142   13.7428    8.8835 C   0  0  0  0  0  0  0  0  0  0  0  0
   44.2041   13.3150    7.2593 N   0  0  0  0  0  0  0  0  0  0  0  0
   42.0536   11.1043   11.0207 C   0  0  0  0  0  0  0  0  0  0  0  0
   44.2342   14.5933   12.6747 C   0  0  0  0  0  0  0  0  0  0  0  0
   43.0613   14.1734    7.6141 C   0  0  0  0  0  0  0  0  0  0  0  0
   39.4310   11.4052   11.8944 C   0  0  0  0  0  0  0  0  0  0  0  0
   42.4866   15.2832   14.6908 C   0  0  0  0  0  0  0  0  0  0  0  0
   43.7724   11.9791    6.8388 C   0  0  0  0  0  0  0  0  0  0  0  0
   44.9796   13.9386    6.1826 C   0  0  0  0  0  0  0  0  0  0  0  0
   44.7060   15.2872   13.7922 C   0  0  0  0  0  0  0  0  0  0  0  0
   41.1962   10.0003   11.0517 C   0  0  0  0  0  0  0  0  0  0  0  0
   43.8275   15.6363   14.8032 C   0  0  0  0  0  0  0  0  0  0  0  0
   39.8835   10.1528   11.4834 C   0  0  0  0  0  0  0  0  0  0  0  0
   43.0831   13.1012    7.6218 C   0  0  0  0  0  0  0  0  0  0  0  0
   41.2822   15.3591   12.8147 C   0  0  0  0  0  0  0  0  0  0  0  0
   41.7475   13.1279   11.9151 C   0  0  0  0  0  0  0  0  0  0  0  0
   43.3838   12.5177    9.9845 C   0  0  0  0  0  0  0  0  0  0  0  0
   42.5526   12.7094    8.8578 C   0  0  0  0  0  0  0  0  0  0  0  0
   42.1648   14.4449   12.2307 C   0  0  0  0  0  0  0  0  0  0  0  0
   42.7360   12.1269   11.3099 C   0  0  0  0  0  0  0  0  0  0  0  0
   44.4596   13.2951    7.4970 C   0  0  0  0  0  0  0  0  0  0  0  0
   39.9635   14.9884   13.0739 C   0  0  0  0  0  0  0  0  0  0  0  0
   42.1846   13.3018    6.4622 C   0  0  0  0  0  0  0  0  0  0  0  0
   41.6670   16.7318   13.1985 C   0  0  0  0  0  0  0  0  0  0  0  0
   40.3899   12.7424   12.2051 C   0  0  0  0  0  0  0  0  0  0  0  0
   44.8032   12.6633    9.8372 C   0  0  0  0  0  0  0  0  0  0  0  0
   45.3204   13.0746    8.5790 C   0  0  0  0  0  0  0  0  0  0  0  0
   39.5107   13.6981   12.7859 C   0  0  0  0  0  0  0  0  0  0  0  0
   40.9678   13.2575    6.5190 O   0  0  0  0  0  0  0  0  0  0  0  0
   40.9644   17.7230   13.0870 O   0  0  0  0  0  0  0  0  0  0  0  0
   41.2108   12.4687    9.0189 O   0  0  0  0  0  0  0  0  0  0  0  0
   43.4298   14.8860   11.9471 O   0  0  0  0  0  0  0  0  0  0  0  0
   42.8300   13.5190    5.3053 O   0  0  0  0  0  0  0  0  0  0  0  0
   42.8557   16.7856   13.8287 O   0  0  0  0  0  0  0  0  0  0  0  0
   45.7544   12.4225   10.8621 C   0  0  0  0  0  0  0  0  0  0  0  0
   39.8329   11.4617   11.9506 C   0  0  0  0  0  0  0  0  0  0  0  0
   46.7020   13.2632    8.4015 C   0  0  0  0  0  0  0  0  0  0  0  0
   38.1772   13.3661   13.0855 C   0  0  0  0  0  0  0  0  0  0  0  0
   38.5038   11.1435   12.2531 C   0  0  0  0  0  0  0  0  0  0  0  0
   47.1275   12.6093   10.6687 C   0  0  0  0  0  0  0  0  0  0  0  0
   37.6753   12.0957   12.8238 C   0  0  0  0  0  0  0  0  0  0  0  0
   47.6006   13.0350    9.4386 C   0  0  0  0  0  0  0  0  0  0  0  0
   42.0058   13.4461   11.1852 N   0  0  0  0  0  0  0  0  0  0  0  0
   40.7282   12.7964   11.1028 C   0  0  0  0  0  0  0  0  0  0  0  0
   42.5961   14.2302   12.2314 C   0  0  0  0  0  0  0  0  0  0  0  0
   40.0515   12.2683   12.2162 C   0  0  0  0  0  0  0  0  0  0  0  0
   41.9531   14.5447   13.4512 C   0  0  0  0  0  0  0  0  0  0  0  0
   40.5566   12.4753   13.6124 C   0  0  0  0  0  0  0  0  0  0  0  0
   40.6292   13.9675   13.8812 C   0  0  0  0  0  0  0  0  0  0  0  0
   42.9086   13.0385   10.0653 C   0  0  0  0  0  0  0  0  0  0  0  0
   43.0175   14.1166    8.9768 C   0  0  0  0  0  0  0  0  0  0  0  0
   44.9715   13.3869    7.5352 N   0  0  0  0  0  0  0  0  0  0  0  0
   43.8904   14.7939   12.0800 C   0  0  0  0  0  0  0  0  0  0  0  0
   40.0821   12.6344    9.8519 C   0  0  0  0  0  0  0  0  0  0  0  0
   43.5153   13.6008    7.6167 C   0  0  0  0  0  0  0  0  0  0  0  0
   42.5558   15.4258   14.3878 C   0  0  0  0  0  0  0  0  0  0  0  0
   38.8420   11.5539   12.0587 C   0  0  0  0  0  0  0  0  0  0  0  0
   45.4204   13.5445    6.1447 C   0  0  0  0  0  0  0  0  0  0  0  0
   45.3792   12.0615    8.0096 C   0  0  0  0  0  0  0  0  0  0  0  0
   38.8732   11.9433    9.7034 C   0  0  0  0  0  0  0  0  0  0  0  0
   44.4910   15.6388   13.0243 C   0  0  0  0  0  0  0  0  0  0  0  0
   38.2604   11.3852   10.8082 C   0  0  0  0  0  0  0  0  0  0  0  0
   43.8140   15.9696   14.1780 C   0  0  0  0  0  0  0  0  0  0  0  0
   39.9890   15.1905   13.9555 H   0  0  0  0  0  0  0  0  0  0  0  0
   40.3456   13.5116   14.3682 H   0  0  0  0  0  0  0  0  0  0  0  0
   39.9711   14.6058   11.5128 H   0  0  0  0  0  0  0  0  0  0  0  0
   38.7285   13.8384   12.4818 H   0  0  0  0  0  0  0  0  0  0  0  0
   44.0020   12.9179   10.0165 H   0  0  0  0  0  0  0  0  0  0  0  0
   43.7568   14.6566   10.1347 H   0  0  0  0  0  0  0  0  0  0  0  0
   41.5088   14.4658    9.0665 H   0  0  0  0  0  0  0  0  0  0  0  0
   41.8205   12.7801    8.7160 H   0  0  0  0  0  0  0  0  0  0  0  0
   43.0801   10.9547   10.6974 H   0  0  0  0  0  0  0  0  0  0  0  0
   44.9730   14.3019   11.9309 H   0  0  0  0  0  0  0  0  0  0  0  0
   43.4201   15.1980    7.7813 H   0  0  0  0  0  0  0  0  0  0  0  0
   42.3475   14.2293    6.7813 H   0  0  0  0  0  0  0  0  0  0  0  0
   38.4052   11.5132   12.2379 H   0  0  0  0  0  0  0  0  0  0  0  0
   41.8095   15.5535   15.4994 H   0  0  0  0  0  0  0  0  0  0  0  0
   44.6375   11.3701    6.5527 H   0  0  0  0  0  0  0  0  0  0  0  0
   43.0848   12.0171    5.9872 H   0  0  0  0  0  0  0  0  0  0  0  0
   43.2837   11.4430    7.6578 H   0  0  0  0  0  0  0  0  0  0  0  0
   45.3655   14.9142    6.4996 H   0  0  0  0  0  0  0  0  0  0  0  0
   44.3841   14.0808    5.2736 H   0  0  0  0  0  0  0  0  0  0  0  0
   45.8528   13.3266    5.9312 H   0  0  0  0  0  0  0  0  0  0  0  0
   45.7596   15.5389   13.8727 H   0  0  0  0  0  0  0  0  0  0  0  0
   41.5590    9.0241   10.7420 H   0  0  0  0  0  0  0  0  0  0  0  0
   44.1820   16.1668   15.6817 H   0  0  0  0  0  0  0  0  0  0  0  0
   39.2156    9.2964   11.5112 H   0  0  0  0  0  0  0  0  0  0  0  0
   42.2978   11.1395   11.1467 H   0  0  0  0  0  0  0  0  0  0  0  0
   43.4744   11.9411   12.0927 H   0  0  0  0  0  0  0  0  0  0  0  0
   44.8738   13.6101    6.5412 H   0  0  0  0  0  0  0  0  0  0  0  0
   39.2867   15.7172   13.5175 H   0  0  0  0  0  0  0  0  0  0  0  0
   40.7267   12.7129    8.1980 H   0  0  0  0  0  0  0  0  0  0  0  0
   44.0519   14.1431   11.9580 H   0  0  0  0  0  0  0  0  0  0  0  0
   42.1173   13.6189    4.6383 H   0  0  0  0  0  0  0  0  0  0  0  0
   42.9718   17.7365   14.0235 H   0  0  0  0  0  0  0  0  0  0  0  0
   45.4552   12.0710   11.8452 H   0  0  0  0  0  0  0  0  0  0  0  0
   40.4154   10.6715   11.4882 H   0  0  0  0  0  0  0  0  0  0  0  0
   47.0958   13.5893    7.4403 H   0  0  0  0  0  0  0  0  0  0  0  0
   37.5105   14.1029   13.5295 H   0  0  0  0  0  0  0  0  0  0  0  0
   38.1226   10.1494   12.0324 H   0  0  0  0  0  0  0  0  0  0  0  0
   47.8221   12.4157   11.4828 H   0  0  0  0  0  0  0  0  0  0  0  0
   36.6431   11.8540   13.0591 H   0  0  0  0  0  0  0  0  0  0  0  0
   48.6659   13.1821    9.2830 H   0  0  0  0  0  0  0  0  0  0  0  0
   41.5146   11.9606   13.7542 H   0  0  0  0  0  0  0  0  0  0  0  0
   39.8568   12.0276   14.3295 H   0  0  0  0  0  0  0  0  0  0  0  0
   39.8131   14.5304   13.4085 H   0  0  0  0  0  0  0  0  0  0  0  0
   40.5100   14.1024   14.9640 H   0  0  0  0  0  0  0  0  0  0  0  0
   42.5662   12.0965    9.6113 H   0  0  0  0  0  0  0  0  0  0  0  0
   43.8906   12.7672   10.4641 H   0  0  0  0  0  0  0  0  0  0  0  0
   42.0369   14.5772    8.8149 H   0  0  0  0  0  0  0  0  0  0  0  0
   43.6575   14.9460    9.2974 H   0  0  0  0  0  0  0  0  0  0  0  0
   44.5002   14.6065   11.2029 H   0  0  0  0  0  0  0  0  0  0  0  0
   40.5018   13.0652    8.9512 H   0  0  0  0  0  0  0  0  0  0  0  0
   42.9560   12.7084    7.3055 H   0  0  0  0  0  0  0  0  0  0  0  0
   43.2421   14.3877    6.9031 H   0  0  0  0  0  0  0  0  0  0  0  0
   42.0371   15.6779   15.3119 H   0  0  0  0  0  0  0  0  0  0  0  0
   38.3370   11.1362   12.9277 H   0  0  0  0  0  0  0  0  0  0  0  0
   45.1876   14.5502    5.7731 H   0  0  0  0  0  0  0  0  0  0  0  0
   44.9527   12.8101    5.4765 H   0  0  0  0  0  0  0  0  0  0  0  0
   46.5087   13.4345    6.0738 H   0  0  0  0  0  0  0  0  0  0  0  0
   45.2231   11.9545    9.0847 H   0  0  0  0  0  0  0  0  0  0  0  0
   44.8440   11.2531    7.4965 H   0  0  0  0  0  0  0  0  0  0  0  0
   46.4535   11.9092    7.8545 H   0  0  0  0  0  0  0  0  0  0  0  0
   38.4206   11.8471    8.7199 H   0  0  0  0  0  0  0  0  0  0  0  0
   45.4844   16.0386   12.8363 H   0  0  0  0  0  0  0  0  0  0  0  0
   37.3261   10.8408   10.7072 H   0  0  0  0  0  0  0  0  0  0  0  0
   44.2606   16.6314   14.9125 H   0  0  0  0  0  0  0  0  0  0  0  0
  2  1  1  0
  3  1  1  0
  4  2  2  0
  5  3  2  0
  6  4  1  0
  7  5  1  0
  8  1  1  0
  9  8  1  0
 10 13  1  0
 11  3  1  0
 12  2  1  0
 13  9  1  0
 14  5  1  0
 15  4  1  0
 16 10  1  0
 17 10  1  0
 18 12  2  0
 19 11  2  0
 20 15  2  0
 21 14  2  0
  6  7  1  0
 18 20  1  0
 19 21  1  0
 23 27  2  0
 24 28  1  0
 25 26  1  0
 26 22  2  0
 27 24  1  0
 28 25  1  0
 29 22  1  0
 30 23  1  0
 31 22  1  0
 32 23  1  0
 33 24  2  0
 34 35  1  0
 35 29  2  0
 36 33  1  0
 37 31  2  0
 38 32  2  0
 39 26  1  0
 40 27  1  0
 41 31  1  0
 42 32  1  0
 43 34  1  0
 44 33  1  0
 45 35  1  0
 46 36  1  0
 47 44  2  0
 48 43  2  0
 49 47  1  0
 50 45  2  0
 25 34  2  0
 48 50  1  0
 30 36  2  0
 46 49  2  0
 52 51  1  0
 53 51  1  0
 54 52  2  0
 55 53  2  0
 56 54  1  0
 57 55  1  0
 58 51  1  0
 59 58  1  0
 60 63  1  0
 61 53  1  0
 62 52  1  0
 63 59  1  0
 64 55  1  0
 65 54  1  0
 66 60  1  0
 67 60  1  0
 68 62  2  0
 69 61  2  0
 70 65  2  0
 71 64  2  0
 56 57  1  0
 68 70  1  0
 69 71  1  0
  6 72  1  0
  6 73  1  0
  7 74  1  0
  7 75  1  0
  8 76  1  0
  8 77  1  0
  9 78  1  0
  9 79  1  0
 11 80  1  0
 12 81  1  0
 13 82  1  0
 13 83  1  0
 14 84  1  0
 15 85  1  0
 16 86  1  0
 16 87  1  0
 16 88  1  0
 17 89  1  0
 17 90  1  0
 17 91  1  0
 18 92  1  0
 19 93  1  0
 20 94  1  0
 21 95  1  0
 28 96  1  0
 28 97  1  0
 29 98  1  0
 30 99  1  0
 39100  1  0
 40101  1  0
 41102  1  0
 42103  1  0
 43104  1  0
 44105  1  0
 45106  1  0
 46107  1  0
 47108  1  0
 48109  1  0
 49110  1  0
 50111  1  0
 56112  1  0
 56113  1  0
 57114  1  0
 57115  1  0
 58116  1  0
 58117  1  0
 59118  1  0
 59119  1  0
 61120  1  0
 62121  1  0
 63122  1  0
 63123  1  0
 64124  1  0
 65125  1  0
 66126  1  0
 66127  1  0
 66128  1  0
 67129  1  0
 67130  1  0
 67131  1  0
 68132  1  0
 69133  1  0
 70134  1  0
 71135  1  0
M  END
> <Uni-Dock RESULT> 
ENERGY=   -6.869  LOWER_BOUND=    8.568  UPPER_BOUND=   10.712
INTER + INTRA:          -6.869
INTER:                  -6.869
INTRA:                   0.000
UNBOUND:                 0.000

$$$$

     RDKit          3D

135142  0  0  0  0  0  0  0  0999 V2000
   51.2235    5.2660   17.9799 N   0  0  0  0  0  0  0  0  0  0  0  0
   50.1119    4.5790   17.4280 C   0  0  0  0  0  0  0  0  0  0  0  0
   51.8302    6.3888   17.3690 C   0  0  0  0  0  0  0  0  0  0  0  0
   48.9884    5.2444   16.8843 C   0  0  0  0  0  0  0  0  0  0  0  0
   51.1058    7.5824   17.2248 C   0  0  0  0  0  0  0  0  0  0  0  0
   48.7933    6.7476   16.8283 C   0  0  0  0  0  0  0  0  0  0  0  0
   49.6803    7.6284   17.7016 C   0  0  0  0  0  0  0  0  0  0  0  0
   52.0251    4.5746   19.0186 C   0  0  0  0  0  0  0  0  0  0  0  0
   52.4567    5.5360   20.1381 C   0  0  0  0  0  0  0  0  0  0  0  0
   54.2453    3.9742   21.0063 N   0  0  0  0  0  0  0  0  0  0  0  0
   53.1558    6.3561   16.9076 C   0  0  0  0  0  0  0  0  0  0  0  0
   50.1122    3.1645   17.3700 C   0  0  0  0  0  0  0  0  0  0  0  0
   53.0714    4.8000   21.3361 C   0  0  0  0  0  0  0  0  0  0  0  0
   51.7038    8.7132   16.6479 C   0  0  0  0  0  0  0  0  0  0  0  0
   47.9327    4.4863   16.3225 C   0  0  0  0  0  0  0  0  0  0  0  0
   55.3958    4.7937   20.6156 C   0  0  0  0  0  0  0  0  0  0  0  0
   54.6076    3.1419   22.1577 C   0  0  0  0  0  0  0  0  0  0  0  0
   49.0566    2.4316   16.8210 C   0  0  0  0  0  0  0  0  0  0  0  0
   53.7496    7.4828   16.3308 C   0  0  0  0  0  0  0  0  0  0  0  0
   47.9606    3.0956   16.2977 C   0  0  0  0  0  0  0  0  0  0  0  0
   53.0247    8.6626   16.2064 C   0  0  0  0  0  0  0  0  0  0  0  0
   53.8930    5.0783   20.7055 C   0  0  0  0  0  0  0  0  0  0  0  0
   48.6439    5.7642   18.0068 C   0  0  0  0  0  0  0  0  0  0  0  0
   51.0023    6.0132   17.3909 C   0  0  0  0  0  0  0  0  0  0  0  0
   53.0408    4.7690   18.4271 C   0  0  0  0  0  0  0  0  0  0  0  0
   53.3268    5.5988   19.5346 C   0  0  0  0  0  0  0  0  0  0  0  0
   49.9238    5.2210   17.8568 C   0  0  0  0  0  0  0  0  0  0  0  0
   52.3897    5.3946   17.1967 C   0  0  0  0  0  0  0  0  0  0  0  0
   54.1911    3.7166   20.7763 C   0  0  0  0  0  0  0  0  0  0  0  0
   48.4183    7.1095   17.7189 C   0  0  0  0  0  0  0  0  0  0  0  0
   54.1733    5.9727   21.8516 C   0  0  0  0  0  0  0  0  0  0  0  0
   47.4740    4.9822   18.4534 C   0  0  0  0  0  0  0  0  0  0  0  0
   50.7595    7.3975   17.0735 C   0  0  0  0  0  0  0  0  0  0  0  0
   53.4005    3.3815   18.4836 C   0  0  0  0  0  0  0  0  0  0  0  0
   53.9611    2.8700   19.6851 C   0  0  0  0  0  0  0  0  0  0  0  0
   49.4507    7.9261   17.2498 C   0  0  0  0  0  0  0  0  0  0  0  0
   53.8439    7.1450   21.9061 O   0  0  0  0  0  0  0  0  0  0  0  0
   46.5902    5.3861   19.1913 O   0  0  0  0  0  0  0  0  0  0  0  0
   53.0529    6.9376   19.4036 O   0  0  0  0  0  0  0  0  0  0  0  0
   50.0951    3.9093   18.2109 O   0  0  0  0  0  0  0  0  0  0  0  0
   54.8581    5.3848   22.8455 O   0  0  0  0  0  0  0  0  0  0  0  0
   47.3871    3.7804   17.8524 O   0  0  0  0  0  0  0  0  0  0  0  0
   53.2440    2.4585   17.4174 C   0  0  0  0  0  0  0  0  0  0  0  0
   51.7368    8.3085   16.5937 C   0  0  0  0  0  0  0  0  0  0  0  0
   54.2954    1.5091   19.7948 C   0  0  0  0  0  0  0  0  0  0  0  0
   49.1679    9.2716   16.9533 C   0  0  0  0  0  0  0  0  0  0  0  0
   51.4430    9.6457   16.3023 C   0  0  0  0  0  0  0  0  0  0  0  0
   53.5865    1.1074   17.5398 C   0  0  0  0  0  0  0  0  0  0  0  0
   50.1565   10.1276   16.4795 C   0  0  0  0  0  0  0  0  0  0  0  0
   54.1078    0.6319   18.7316 C   0  0  0  0  0  0  0  0  0  0  0  0
   51.2553    5.7342   18.1384 N   0  0  0  0  0  0  0  0  0  0  0  0
   51.4539    7.1448   17.9603 C   0  0  0  0  0  0  0  0  0  0  0  0
   50.2046    4.8682   17.6871 C   0  0  0  0  0  0  0  0  0  0  0  0
   51.0240    7.8530   16.8245 C   0  0  0  0  0  0  0  0  0  0  0  0
   49.0770    5.3002   16.9507 C   0  0  0  0  0  0  0  0  0  0  0  0
   50.1870    7.2026   15.7643 C   0  0  0  0  0  0  0  0  0  0  0  0
   48.9082    6.6949   16.4054 C   0  0  0  0  0  0  0  0  0  0  0  0
   52.4663    5.0718   18.7131 C   0  0  0  0  0  0  0  0  0  0  0  0
   52.3070    4.7512   20.2068 C   0  0  0  0  0  0  0  0  0  0  0  0
   54.2374    3.1982   20.7457 N   0  0  0  0  0  0  0  0  0  0  0  0
   50.2129    3.4839   18.0024 C   0  0  0  0  0  0  0  0  0  0  0  0
   52.1334    7.9062   18.9438 C   0  0  0  0  0  0  0  0  0  0  0  0
   53.6310    4.5255   20.9547 C   0  0  0  0  0  0  0  0  0  0  0  0
   48.0193    4.4039   16.6429 C   0  0  0  0  0  0  0  0  0  0  0  0
   51.3344    9.2225   16.6625 C   0  0  0  0  0  0  0  0  0  0  0  0
   55.0509    2.8333   21.9140 C   0  0  0  0  0  0  0  0  0  0  0  0
   55.0847    3.1416   19.5513 C   0  0  0  0  0  0  0  0  0  0  0  0
   52.4208    9.2679   18.7878 C   0  0  0  0  0  0  0  0  0  0  0  0
   49.1778    2.5990   17.6676 C   0  0  0  0  0  0  0  0  0  0  0  0
   52.0361    9.9239   17.6350 C   0  0  0  0  0  0  0  0  0  0  0  0
   48.0672    3.0642   16.9976 C   0  0  0  0  0  0  0  0  0  0  0  0
   47.7555    6.9597   17.1213 H   0  0  0  0  0  0  0  0  0  0  0  0
   48.8955    7.0557   15.7768 H   0  0  0  0  0  0  0  0  0  0  0  0
   49.6249    7.3313   18.7573 H   0  0  0  0  0  0  0  0  0  0  0  0
   49.3089    8.6592   17.6578 H   0  0  0  0  0  0  0  0  0  0  0  0
   52.8837    4.0630   18.5694 H   0  0  0  0  0  0  0  0  0  0  0  0
   51.4180    3.8023   19.5082 H   0  0  0  0  0  0  0  0  0  0  0  0
   51.5782    6.0903   20.4932 H   0  0  0  0  0  0  0  0  0  0  0  0
   53.1570    6.2908   19.7659 H   0  0  0  0  0  0  0  0  0  0  0  0
   53.7376    5.4409   16.9758 H   0  0  0  0  0  0  0  0  0  0  0  0
   50.9700    2.5972   17.7253 H   0  0  0  0  0  0  0  0  0  0  0  0
   52.2873    4.1570   21.7583 H   0  0  0  0  0  0  0  0  0  0  0  0
   53.3216    5.5325   22.1151 H   0  0  0  0  0  0  0  0  0  0  0  0
   51.1423    9.6378   16.5393 H   0  0  0  0  0  0  0  0  0  0  0  0
   47.0698    4.9954   15.8961 H   0  0  0  0  0  0  0  0  0  0  0  0
   56.2635    4.1585   20.4038 H   0  0  0  0  0  0  0  0  0  0  0  0
   55.6777    5.5076   21.3969 H   0  0  0  0  0  0  0  0  0  0  0  0
   55.1949    5.3472   19.6935 H   0  0  0  0  0  0  0  0  0  0  0  0
   53.7809    2.4750   22.4277 H   0  0  0  0  0  0  0  0  0  0  0  0
   54.8684    3.7430   23.0362 H   0  0  0  0  0  0  0  0  0  0  0  0
   55.4595    2.4971   21.9152 H   0  0  0  0  0  0  0  0  0  0  0  0
   49.1028    1.3467   16.7929 H   0  0  0  0  0  0  0  0  0  0  0  0
   54.7757    7.4328   15.9771 H   0  0  0  0  0  0  0  0  0  0  0  0
   47.1377    2.5394   15.8591 H   0  0  0  0  0  0  0  0  0  0  0  0
   53.4824    9.5390   15.7562 H   0  0  0  0  0  0  0  0  0  0  0  0
   53.1216    6.1028   16.8009 H   0  0  0  0  0  0  0  0  0  0  0  0
   52.2749    4.6787   16.3801 H   0  0  0  0  0  0  0  0  0  0  0  0
   54.6208    3.3070   21.6883 H   0  0  0  0  0  0  0  0  0  0  0  0
   47.4181    7.5187   17.8535 H   0  0  0  0  0  0  0  0  0  0  0  0
   53.2143    7.3967   20.2587 H   0  0  0  0  0  0  0  0  0  0  0  0
   50.8258    3.5209   17.7066 H   0  0  0  0  0  0  0  0  0  0  0  0
   54.9779    6.0910   23.5162 H   0  0  0  0  0  0  0  0  0  0  0  0
   46.5774    3.3881   18.2348 H   0  0  0  0  0  0  0  0  0  0  0  0
   52.8574    2.7662   16.4502 H   0  0  0  0  0  0  0  0  0  0  0  0
   52.7694    8.0082   16.4485 H   0  0  0  0  0  0  0  0  0  0  0  0
   54.7142    1.1162   20.7198 H   0  0  0  0  0  0  0  0  0  0  0  0
   48.1641    9.6689   17.0911 H   0  0  0  0  0  0  0  0  0  0  0  0
   52.2290   10.3057   15.9432 H   0  0  0  0  0  0  0  0  0  0  0  0
   53.4475    0.4333   16.6979 H   0  0  0  0  0  0  0  0  0  0  0  0
   49.9239   11.1645   16.2561 H   0  0  0  0  0  0  0  0  0  0  0  0
   54.3751   -0.4165   18.8323 H   0  0  0  0  0  0  0  0  0  0  0  0
   50.7578    6.4187   15.2519 H   0  0  0  0  0  0  0  0  0  0  0  0
   49.9207    7.9414   14.9977 H   0  0  0  0  0  0  0  0  0  0  0  0
   48.5324    7.3554   17.1984 H   0  0  0  0  0  0  0  0  0  0  0  0
   48.1401    6.6866   15.6213 H   0  0  0  0  0  0  0  0  0  0  0  0
   53.3592    5.6983   18.5688 H   0  0  0  0  0  0  0  0  0  0  0  0
   52.7073    4.1768   18.1319 H   0  0  0  0  0  0  0  0  0  0  0  0
   51.7833    5.5734   20.7064 H   0  0  0  0  0  0  0  0  0  0  0  0
   51.6589    3.8818   20.3627 H   0  0  0  0  0  0  0  0  0  0  0  0
   51.0341    3.0213   18.5391 H   0  0  0  0  0  0  0  0  0  0  0  0
   52.4438    7.4546   19.8779 H   0  0  0  0  0  0  0  0  0  0  0  0
   54.3439    5.3345   20.7462 H   0  0  0  0  0  0  0  0  0  0  0  0
   53.3719    4.6226   22.0160 H   0  0  0  0  0  0  0  0  0  0  0  0
   47.1459    4.7575   16.0963 H   0  0  0  0  0  0  0  0  0  0  0  0
   51.0093    9.7545   15.7704 H   0  0  0  0  0  0  0  0  0  0  0  0
   54.4354    2.8038   22.8218 H   0  0  0  0  0  0  0  0  0  0  0  0
   55.8761    3.5384   22.0762 H   0  0  0  0  0  0  0  0  0  0  0  0
   55.4716    1.8281   21.7947 H   0  0  0  0  0  0  0  0  0  0  0  0
   54.4961    3.2368   18.6368 H   0  0  0  0  0  0  0  0  0  0  0  0
   55.8576    3.9199   19.5521 H   0  0  0  0  0  0  0  0  0  0  0  0
   55.5832    2.1683   19.4769 H   0  0  0  0  0  0  0  0  0  0  0  0
   52.9462    9.8048   19.5735 H   0  0  0  0  0  0  0  0  0  0  0  0
   49.2513    1.5514   17.9485 H   0  0  0  0  0  0  0  0  0  0  0  0
   52.2581   10.9782   17.4975 H   0  0  0  0  0  0  0  0  0  0  0  0
   47.2530    2.3944   16.7419 H   0  0  0  0  0  0  0  0  0  0  0  0
  2  1  1  0
  3  1  1  0
  4  2  2  0
  5  3  2  0
  6  4  1  0
  7  5  1  0
  8  1  1  0
  9  8  1  0
 10 13  1  0
 11  3  1  0
 12  2  1  0
 13  9  1  0
 14  5  1  0
 15  4  1  0
 16 10  1  0
 17 10  1  0
 18 12  2  0
 19 11  2  0
 20 15  2  0
 21 14  2  0
  6  7  1  0
 18 20  1  0
 19 21  1  0
 23 27  2  0
 24 28  1  0
 25 26  1  0
 26 22  2  0
 27 24  1  0
 28 25  1  0
 29 22  1  0
 30 23  1  0
 31 22  1  0
 32 23  1  0
 33 24  2  0
 34 35  1  0
 35 29  2  0
 36 33  1  0
 37 31  2  0
 38 32  2  0
 39 26  1  0
 40 27  1  0
 41 31  1  0
 42 32  1  0
 43 34  1  0
 44 33  1  0
 45 35  1  0
 46 36  1  0
 47 44  2  0
 48 43  2  0
 49 47  1  0
 50 45  2  0
 25 34  2  0
 48 50  1  0
 30 36  2  0
 46 49  2  0
 52 51  1  0
 53 51  1  0
 54 52  2  0
 55 53  2  0
 56 54  1  0
 57 55  1  0
 58 51  1  0
 59 58  1  0
 60 63  1  0
 61 53  1  0
 62 52  1  0
 63 59  1  0
 64 55  1  0
 65 54  1  0
 66 60  1  0
 67 60  1  0
 68 62  2  0
 69 61  2  0
 70 65  2  0
 71 64  2  0
 56 57  1  0
 68 70  1  0
 69 71  1  0
  6 72  1  0
  6 73  1  0
  7 74  1  0
  7 75  1  0
  8 76  1  0
  8 77  1  0
  9 78  1  0
  9 79  1  0
 11 80  1  0
 12 81  1  0
 13 82  1  0
 13 83  1  0
 14 84  1  0
 15 85  1  0
 16 86  1  0
 16 87  1  0
 16 88  1  0
 17 89  1  0
 17 90  1  0
 17 91  1  0
 18 92  1  0
 19 93  1  0
 20 94  1  0
 21 95  1  0
 28 96  1  0
 28 97  1  0
 29 98  1  0
 30 99  1  0
 39100  1  0
 40101  1  0
 41102  1  0
 42103  1  0
 43104  1  0
 44105  1  0
 45106  1  0
 46107  1  0
 47108  1  0
 48109  1  0
 49110  1  0
 50111  1  0
 56112  1  0
 56113  1  0
 57114  1  0
 57115  1  0
 58116  1  0
 58117  1  0
 59118  1  0
 59119  1  0
 61120  1  0
 62121  1  0
 63122  1  0
 63123  1  0
 64124  1  0
 65125  1  0
 66126  1  0
 66127  1  0
 66128  1  0
 67129  1  0
 67130  1  0
 67131  1  0
 68132  1  0
 69133  1  0
 70134  1  0
 71135  1  0
M  END
> <Uni-Dock RESULT> 
ENERGY=   -6.786  LOWER_BOUND=    3.785  UPPER_BOUND=    7.845
INTER + INTRA:          -6.786
INTER:                  -6.786
INTRA:                   0.000
UNBOUND:                 0.000

$$$$

     RDKit          3D

135142  0  0  0  0  0  0  0  0999 V2000
   49.6232   10.0464   21.5408 N   0  0  0  0  0  0  0  0  0  0  0  0
   48.4904   10.7705   21.0887 C   0  0  0  0  0  0  0  0  0  0  0  0
   49.5386    8.8166   22.2354 C   0  0  0  0  0  0  0  0  0  0  0  0
   47.3929   10.1568   20.4409 C   0  0  0  0  0  0  0  0  0  0  0  0
   49.0150    7.6848   21.5912 C   0  0  0  0  0  0  0  0  0  0  0  0
   47.2699    8.6796   20.1193 C   0  0  0  0  0  0  0  0  0  0  0  0
   48.5260    7.8168   20.1753 C   0  0  0  0  0  0  0  0  0  0  0  0
   50.9163   10.7657   21.6409 C   0  0  0  0  0  0  0  0  0  0  0  0
   52.0923    9.8895   21.1793 C   0  0  0  0  0  0  0  0  0  0  0  0
   53.8281   11.3645   22.2764 N   0  0  0  0  0  0  0  0  0  0  0  0
   49.9795    8.6820   23.5615 C   0  0  0  0  0  0  0  0  0  0  0  0
   48.4067   12.1657   21.3134 C   0  0  0  0  0  0  0  0  0  0  0  0
   53.3966   10.6863   21.0425 C   0  0  0  0  0  0  0  0  0  0  0  0
   48.9523    6.4513   22.2574 C   0  0  0  0  0  0  0  0  0  0  0  0
   46.2842   10.9453   20.0484 C   0  0  0  0  0  0  0  0  0  0  0  0
   54.2411   10.4087   23.3078 C   0  0  0  0  0  0  0  0  0  0  0  0
   54.9392   12.2746   21.9815 C   0  0  0  0  0  0  0  0  0  0  0  0
   47.3089   12.9305   20.9099 C   0  0  0  0  0  0  0  0  0  0  0  0
   49.9141    7.4530   24.2250 C   0  0  0  0  0  0  0  0  0  0  0  0
   46.2444   12.3178   20.2717 C   0  0  0  0  0  0  0  0  0  0  0  0
   49.4055    6.3369   23.5704 C   0  0  0  0  0  0  0  0  0  0  0  0
   53.4046   10.2717   22.0315 C   0  0  0  0  0  0  0  0  0  0  0  0
   48.0867    9.7883   19.4252 C   0  0  0  0  0  0  0  0  0  0  0  0
   49.0416    9.2656   21.6203 C   0  0  0  0  0  0  0  0  0  0  0  0
   51.0713   10.4207   22.7707 C   0  0  0  0  0  0  0  0  0  0  0  0
   52.1456    9.6867   22.2192 C   0  0  0  0  0  0  0  0  0  0  0  0
   48.7328   10.1956   20.5966 C   0  0  0  0  0  0  0  0  0  0  0  0
   49.7162    9.7333   22.9132 C   0  0  0  0  0  0  0  0  0  0  0  0
   53.6058   11.6009   22.4064 C   0  0  0  0  0  0  0  0  0  0  0  0
   47.7571    8.4464   19.2400 C   0  0  0  0  0  0  0  0  0  0  0  0
   54.5078    9.4781   21.4436 C   0  0  0  0  0  0  0  0  0  0  0  0
   47.7072   10.7144   18.3398 C   0  0  0  0  0  0  0  0  0  0  0  0
   48.6792    7.8836   21.4340 C   0  0  0  0  0  0  0  0  0  0  0  0
   51.2980   11.7686   23.2062 C   0  0  0  0  0  0  0  0  0  0  0  0
   52.5782   12.3482   22.9945 C   0  0  0  0  0  0  0  0  0  0  0  0
   48.0359    7.4961   20.2260 C   0  0  0  0  0  0  0  0  0  0  0  0
   54.3818    8.3521   20.9941 O   0  0  0  0  0  0  0  0  0  0  0  0
   47.7646   10.4699   17.1459 O   0  0  0  0  0  0  0  0  0  0  0  0
   51.9108    8.3718   21.9025 O   0  0  0  0  0  0  0  0  0  0  0  0
   49.0828   11.5159   20.6948 O   0  0  0  0  0  0  0  0  0  0  0  0
   55.6969   10.1008   21.4647 O   0  0  0  0  0  0  0  0  0  0  0  0
   47.1458   11.8510   18.7937 O   0  0  0  0  0  0  0  0  0  0  0  0
   50.3329   12.5875   23.8473 C   0  0  0  0  0  0  0  0  0  0  0  0
   48.9186    6.8437   22.3703 C   0  0  0  0  0  0  0  0  0  0  0  0
   52.8323   13.6774   23.3744 C   0  0  0  0  0  0  0  0  0  0  0  0
   47.6647    6.1583   20.0009 C   0  0  0  0  0  0  0  0  0  0  0  0
   48.5444    5.5156   22.1346 C   0  0  0  0  0  0  0  0  0  0  0  0
   50.6024   13.9075   24.2249 C   0  0  0  0  0  0  0  0  0  0  0  0
   47.9142    5.1725   20.9498 C   0  0  0  0  0  0  0  0  0  0  0  0
   51.8518   14.4540   23.9832 C   0  0  0  0  0  0  0  0  0  0  0  0
   49.7809    9.5960   21.4078 N   0  0  0  0  0  0  0  0  0  0  0  0
   49.7984    8.1624   21.4822 C   0  0  0  0  0  0  0  0  0  0  0  0
   48.7599   10.5023   20.9672 C   0  0  0  0  0  0  0  0  0  0  0  0
   48.6551    7.3829   21.7310 C   0  0  0  0  0  0  0  0  0  0  0  0
   47.5010   10.1003   20.4633 C   0  0  0  0  0  0  0  0  0  0  0  0
   47.2876    7.9938   21.7958 C   0  0  0  0  0  0  0  0  0  0  0  0
   47.0033    8.6780   20.4710 C   0  0  0  0  0  0  0  0  0  0  0  0
   50.9562   10.2020   22.1055 C   0  0  0  0  0  0  0  0  0  0  0  0
   52.0345   10.6874   21.1253 C   0  0  0  0  0  0  0  0  0  0  0  0
   53.5959   12.1071   22.5308 N   0  0  0  0  0  0  0  0  0  0  0  0
   48.9778   11.9052   20.9700 C   0  0  0  0  0  0  0  0  0  0  0  0
   51.0121    7.4480   21.3244 C   0  0  0  0  0  0  0  0  0  0  0  0
   53.4278   10.8685   21.7494 C   0  0  0  0  0  0  0  0  0  0  0  0
   46.5888   11.0520   19.9351 C   0  0  0  0  0  0  0  0  0  0  0  0
   48.7525    5.9816   21.8893 C   0  0  0  0  0  0  0  0  0  0  0  0
   55.0077   12.5153   22.5186 C   0  0  0  0  0  0  0  0  0  0  0  0
   53.1637   11.9640   23.9238 C   0  0  0  0  0  0  0  0  0  0  0  0
   51.1001    6.0571   21.4620 C   0  0  0  0  0  0  0  0  0  0  0  0
   48.0583   12.8407   20.4742 C   0  0  0  0  0  0  0  0  0  0  0  0
   49.9695    5.3235   21.7637 C   0  0  0  0  0  0  0  0  0  0  0  0
   46.8632   12.4113   19.9393 C   0  0  0  0  0  0  0  0  0  0  0  0
   46.8758    8.5932   19.0970 H   0  0  0  0  0  0  0  0  0  0  0  0
   46.5070    8.2571   20.7904 H   0  0  0  0  0  0  0  0  0  0  0  0
   49.3211    8.2246   19.5370 H   0  0  0  0  0  0  0  0  0  0  0  0
   48.2926    6.8247   19.7706 H   0  0  0  0  0  0  0  0  0  0  0  0
   51.0695   11.1489   22.6560 H   0  0  0  0  0  0  0  0  0  0  0  0
   50.9139   11.6359   20.9719 H   0  0  0  0  0  0  0  0  0  0  0  0
   51.8535    9.4561   20.1994 H   0  0  0  0  0  0  0  0  0  0  0  0
   52.2441    9.0403   21.8536 H   0  0  0  0  0  0  0  0  0  0  0  0
   50.3633    9.5431   24.1017 H   0  0  0  0  0  0  0  0  0  0  0  0
   49.1956   12.6868   21.8519 H   0  0  0  0  0  0  0  0  0  0  0  0
   53.2365   11.4373   20.2571 H   0  0  0  0  0  0  0  0  0  0  0  0
   54.1861   10.0181   20.6732 H   0  0  0  0  0  0  0  0  0  0  0  0
   48.5490    5.5749   21.7562 H   0  0  0  0  0  0  0  0  0  0  0  0
   45.4344   10.4750   19.5564 H   0  0  0  0  0  0  0  0  0  0  0  0
   54.5847   10.9379   24.2040 H   0  0  0  0  0  0  0  0  0  0  0  0
   55.0512    9.7564   22.9647 H   0  0  0  0  0  0  0  0  0  0  0  0
   53.4026    9.7838   23.6294 H   0  0  0  0  0  0  0  0  0  0  0  0
   54.6318   13.0376   21.2572 H   0  0  0  0  0  0  0  0  0  0  0  0
   55.8104   11.7459   21.5785 H   0  0  0  0  0  0  0  0  0  0  0  0
   55.2486   12.8116   22.8850 H   0  0  0  0  0  0  0  0  0  0  0  0
   47.2858   13.9982   21.1087 H   0  0  0  0  0  0  0  0  0  0  0  0
   50.2573    7.3736   25.2528 H   0  0  0  0  0  0  0  0  0  0  0  0
   45.3806   12.8980   19.9615 H   0  0  0  0  0  0  0  0  0  0  0  0
   49.3509    5.3812   24.0840 H   0  0  0  0  0  0  0  0  0  0  0  0
   49.8672    8.9251   23.6327 H   0  0  0  0  0  0  0  0  0  0  0  0
   48.9798   10.3689   23.4094 H   0  0  0  0  0  0  0  0  0  0  0  0
   54.5796   12.0616   22.2518 H   0  0  0  0  0  0  0  0  0  0  0  0
   47.2655    8.1451   18.3162 H   0  0  0  0  0  0  0  0  0  0  0  0
   52.6991    7.9903   21.4543 H   0  0  0  0  0  0  0  0  0  0  0  0
   49.1177   11.7829   21.6256 H   0  0  0  0  0  0  0  0  0  0  0  0
   56.3204    9.4594   21.0614 H   0  0  0  0  0  0  0  0  0  0  0  0
   46.9451   12.3519   17.9786 H   0  0  0  0  0  0  0  0  0  0  0  0
   49.3390   12.2181   24.0827 H   0  0  0  0  0  0  0  0  0  0  0  0
   49.4244    7.0331   23.3115 H   0  0  0  0  0  0  0  0  0  0  0  0
   53.8101   14.1239   23.2012 H   0  0  0  0  0  0  0  0  0  0  0  0
   47.1731    5.8695   19.0738 H   0  0  0  0  0  0  0  0  0  0  0  0
   48.7562    4.7540   22.8811 H   0  0  0  0  0  0  0  0  0  0  0  0
   49.8324   14.5013   24.7117 H   0  0  0  0  0  0  0  0  0  0  0  0
   47.6232    4.1434   20.7617 H   0  0  0  0  0  0  0  0  0  0  0  0
   52.0664   15.4788   24.2739 H   0  0  0  0  0  0  0  0  0  0  0  0
   47.2081    8.6661   22.6586 H   0  0  0  0  0  0  0  0  0  0  0  0
   46.5375    7.2072   21.9476 H   0  0  0  0  0  0  0  0  0  0  0  0
   47.4207    8.1391   19.6097 H   0  0  0  0  0  0  0  0  0  0  0  0
   45.9137    8.6749   20.3381 H   0  0  0  0  0  0  0  0  0  0  0  0
   51.4025    9.4860   22.8117 H   0  0  0  0  0  0  0  0  0  0  0  0
   50.6183   11.0071   22.7647 H   0  0  0  0  0  0  0  0  0  0  0  0
   52.1336    9.9716   20.3022 H   0  0  0  0  0  0  0  0  0  0  0  0
   51.7401   11.6232   20.6375 H   0  0  0  0  0  0  0  0  0  0  0  0
   49.8911   12.3445   21.3565 H   0  0  0  0  0  0  0  0  0  0  0  0
   51.9296    7.9633   21.0682 H   0  0  0  0  0  0  0  0  0  0  0  0
   53.7184    9.9814   22.3279 H   0  0  0  0  0  0  0  0  0  0  0  0
   54.1138   10.9047   20.8944 H   0  0  0  0  0  0  0  0  0  0  0  0
   45.6330   10.7244   19.5280 H   0  0  0  0  0  0  0  0  0  0  0  0
   47.8616    5.3923   22.0979 H   0  0  0  0  0  0  0  0  0  0  0  0
   55.3516   12.6933   21.4921 H   0  0  0  0  0  0  0  0  0  0  0  0
   55.6578   11.7590   22.9769 H   0  0  0  0  0  0  0  0  0  0  0  0
   55.1425   13.4609   23.0566 H   0  0  0  0  0  0  0  0  0  0  0  0
   52.0829   11.8288   23.9968 H   0  0  0  0  0  0  0  0  0  0  0  0
   53.6560   11.1234   24.4280 H   0  0  0  0  0  0  0  0  0  0  0  0
   53.3824   12.8756   24.4918 H   0  0  0  0  0  0  0  0  0  0  0  0
   52.0572    5.5586   21.3319 H   0  0  0  0  0  0  0  0  0  0  0  0
   48.2977   13.9007   20.5038 H   0  0  0  0  0  0  0  0  0  0  0  0
   50.0240    4.2450   21.8799 H   0  0  0  0  0  0  0  0  0  0  0  0
   46.1467   13.1220   19.5412 H   0  0  0  0  0  0  0  0  0  0  0  0
  2  1  1  0
  3  1  1  0
  4  2  2  0
  5  3  2  0
  6  4  1  0
  7  5  1  0
  8  1  1  0
  9  8  1  0
 10 13  1  0
 11  3  1  0
 12  2  1  0
 13  9  1  0
 14  5  1  0
 15  4  1  0
 16 10  1  0
 17 10  1  0
 18 12  2  0
 19 11  2  0
 20 15  2  0
 21 14  2  0
  6  7  1  0
 18 20  1  0
 19 21  1  0
 23 27  2  0
 24 28  1  0
 25 26  1  0
 26 22  2  0
 27 24  1  0
 28 25  1  0
 29 22  1  0
 30 23  1  0
 31 22  1  0
 32 23  1  0
 33 24  2  0
 34 35  1  0
 35 29  2  0
 36 33  1  0
 37 31  2  0
 38 32  2  0
 39 26  1  0
 40 27  1  0
 41 31  1  0
 42 32  1  0
 43 34  1  0
 44 33  1  0
 45 35  1  0
 46 36  1  0
 47 44  2  0
 48 43  2  0
 49 47  1  0
 50 45  2  0
 25 34  2  0
 48 50  1  0
 30 36  2  0
 46 49  2  0
 52 51  1  0
 53 51  1  0
 54 52  2  0
 55 53  2  0
 56 54  1  0
 57 55  1  0
 58 51  1  0
 59 58  1  0
 60 63  1  0
 61 53  1  0
 62 52  1  0
 63 59  1  0
 64 55  1  0
 65 54  1  0
 66 60  1  0
 67 60  1  0
 68 62  2  0
 69 61  2  0
 70 65  2  0
 71 64  2  0
 56 57  1  0
 68 70  1  0
 69 71  1  0
  6 72  1  0
  6 73  1  0
  7 74  1  0
  7 75  1  0
  8 76  1  0
  8 77  1  0
  9 78  1  0
  9 79  1  0
 11 80  1  0
 12 81  1  0
 13 82  1  0
 13 83  1  0
 14 84  1  0
 15 85  1  0
 16 86  1  0
 16 87  1  0
 16 88  1  0
 17 89  1  0
 17 90  1  0
 17 91  1  0
 18 92  1  0
 19 93  1  0
 20 94  1  0
 21 95  1  0
 28 96  1  0
 28 97  1  0
 29 98  1  0
 30 99  1  0
 39100  1  0
 40101  1  0
 41102  1  0
 42103  1  0
 43104  1  0
 44105  1  0
 45106  1  0
 46107  1  0
 47108  1  0
 48109  1  0
 49110  1  0
 50111  1  0
 56112  1  0
 56113  1  0
 57114  1  0
 57115  1  0
 58116  1  0
 58117  1  0
 59118  1  0
 59119  1  0
 61120  1  0
 62121  1  0
 63122  1  0
 63123  1  0
 64124  1  0
 65125  1  0
 66126  1  0
 66127  1  0
 66128  1  0
 67129  1  0
 67130  1  0
 67131  1  0
 68132  1  0
 69133  1  0
 70134  1  0
 71135  1  0
M  END
> <Uni-Dock RESULT> 
ENERGY=   -6.732  LOWER_BOUND=    3.314  UPPER_BOUND=    5.816
INTER + INTRA:          -6.732
INTER:                  -6.732
INTRA:                   0.000
UNBOUND:                 0.000

$$$$
