
     RDKit          3D

135142  0  0  0  0  0  0  0  0999 V2000
   50.1652    6.1918   17.9271 N   0  0  0  0  0  0  0  0  0  0  0  0
   49.9397    4.7951   17.8188 C   0  0  0  0  0  0  0  0  0  0  0  0
   49.6928    6.9690   19.0097 C   0  0  0  0  0  0  0  0  0  0  0  0
   48.6766    4.2022   18.0528 C   0  0  0  0  0  0  0  0  0  0  0  0
   48.3102    7.1320   19.1957 C   0  0  0  0  0  0  0  0  0  0  0  0
   47.4042    4.9446   18.4172 C   0  0  0  0  0  0  0  0  0  0  0  0
   47.3659    6.4585   18.2385 C   0  0  0  0  0  0  0  0  0  0  0  0
   51.2517    6.7840   17.1171 C   0  0  0  0  0  0  0  0  0  0  0  0
   50.8640    8.1553   16.5379 C   0  0  0  0  0  0  0  0  0  0  0  0
   51.6048    9.9170   14.9038 N   0  0  0  0  0  0  0  0  0  0  0  0
   50.5655    7.5939   19.9147 C   0  0  0  0  0  0  0  0  0  0  0  0
   51.0125    3.9267   17.5076 C   0  0  0  0  0  0  0  0  0  0  0  0
   51.9748    8.6845   15.6208 C   0  0  0  0  0  0  0  0  0  0  0  0
   47.8228    7.9119   20.2554 C   0  0  0  0  0  0  0  0  0  0  0  0
   48.5390    2.7959   17.9602 C   0  0  0  0  0  0  0  0  0  0  0  0
   52.6201   10.2377   13.8969 C   0  0  0  0  0  0  0  0  0  0  0  0
   51.4296   11.0557   15.8076 C   0  0  0  0  0  0  0  0  0  0  0  0
   50.8555    2.5416   17.4110 C   0  0  0  0  0  0  0  0  0  0  0  0
   50.0772    8.3677   20.9707 C   0  0  0  0  0  0  0  0  0  0  0  0
   49.6136    1.9743   17.6367 C   0  0  0  0  0  0  0  0  0  0  0  0
   48.7057    8.5285   21.1389 C   0  0  0  0  0  0  0  0  0  0  0  0
   53.1312    7.4391   15.5059 C   0  0  0  0  0  0  0  0  0  0  0  0
   48.1558    4.8809   18.0057 C   0  0  0  0  0  0  0  0  0  0  0  0
   49.6952    6.6441   18.7459 C   0  0  0  0  0  0  0  0  0  0  0  0
   51.3752    7.9359   17.1370 C   0  0  0  0  0  0  0  0  0  0  0  0
   52.5540    7.2528   16.7689 C   0  0  0  0  0  0  0  0  0  0  0  0
   49.1557    5.8301   17.7258 C   0  0  0  0  0  0  0  0  0  0  0  0
   50.7867    7.6956   18.5186 C   0  0  0  0  0  0  0  0  0  0  0  0
   52.5356    8.3236   14.6020 C   0  0  0  0  0  0  0  0  0  0  0  0
   47.6865    4.7316   19.3120 C   0  0  0  0  0  0  0  0  0  0  0  0
   54.3613    6.6995   15.1419 C   0  0  0  0  0  0  0  0  0  0  0  0
   47.6026    4.0407   16.9153 C   0  0  0  0  0  0  0  0  0  0  0  0
   49.2028    6.4783   20.0892 C   0  0  0  0  0  0  0  0  0  0  0  0
   50.7583    8.8261   16.2031 C   0  0  0  0  0  0  0  0  0  0  0  0
   51.3626    9.0155   14.9332 C   0  0  0  0  0  0  0  0  0  0  0  0
   48.1965    5.5129   20.3515 C   0  0  0  0  0  0  0  0  0  0  0  0
   54.9275    5.9016   15.8713 O   0  0  0  0  0  0  0  0  0  0  0  0
   47.9465    4.1100   15.7466 O   0  0  0  0  0  0  0  0  0  0  0  0
   53.1110    6.4049   17.6985 O   0  0  0  0  0  0  0  0  0  0  0  0
   49.6249    5.9748   16.4456 O   0  0  0  0  0  0  0  0  0  0  0  0
   54.8262    6.9788   13.9126 O   0  0  0  0  0  0  0  0  0  0  0  0
   46.6623    3.1685   17.3167 O   0  0  0  0  0  0  0  0  0  0  0  0
   49.5578    9.5325   16.4568 C   0  0  0  0  0  0  0  0  0  0  0  0
   49.6648    7.2250   21.2030 C   0  0  0  0  0  0  0  0  0  0  0  0
   50.7845    9.8889   13.9966 C   0  0  0  0  0  0  0  0  0  0  0  0
   47.7029    5.3269   21.6544 C   0  0  0  0  0  0  0  0  0  0  0  0
   49.1664    7.0311   22.4948 C   0  0  0  0  0  0  0  0  0  0  0  0
   48.9928   10.3961   15.5145 C   0  0  0  0  0  0  0  0  0  0  0  0
   48.1842    6.0802   22.7207 C   0  0  0  0  0  0  0  0  0  0  0  0
   49.6087   10.5770   14.2850 C   0  0  0  0  0  0  0  0  0  0  0  0
   49.2450    7.0472   17.4212 N   0  0  0  0  0  0  0  0  0  0  0  0
   48.7102    5.7976   17.0132 C   0  0  0  0  0  0  0  0  0  0  0  0
   49.2292    7.5297   18.7567 C   0  0  0  0  0  0  0  0  0  0  0  0
   48.8430    4.6096   17.7716 C   0  0  0  0  0  0  0  0  0  0  0  0
   49.8977    6.8339   19.7758 C   0  0  0  0  0  0  0  0  0  0  0  0
   49.5875    4.4724   19.0857 C   0  0  0  0  0  0  0  0  0  0  0  0
   50.6006    5.5479   19.4497 C   0  0  0  0  0  0  0  0  0  0  0  0
   49.5143    8.1034   16.4124 C   0  0  0  0  0  0  0  0  0  0  0  0
   50.5914    7.6921   15.3956 C   0  0  0  0  0  0  0  0  0  0  0  0
   52.4891    8.9757   16.4352 N   0  0  0  0  0  0  0  0  0  0  0  0
   48.5470    8.7107   19.1019 C   0  0  0  0  0  0  0  0  0  0  0  0
   47.9716    5.6989   15.8086 C   0  0  0  0  0  0  0  0  0  0  0  0
   52.0051    7.6562   15.9913 C   0  0  0  0  0  0  0  0  0  0  0  0
   49.9005    7.3279   21.0916 C   0  0  0  0  0  0  0  0  0  0  0  0
   48.2381    3.4113   17.3142 C   0  0  0  0  0  0  0  0  0  0  0  0
   53.6072    8.8126   17.3683 C   0  0  0  0  0  0  0  0  0  0  0  0
   52.9028    9.8140   15.3083 C   0  0  0  0  0  0  0  0  0  0  0  0
   47.3950    4.5049   15.3645 C   0  0  0  0  0  0  0  0  0  0  0  0
   48.5485    9.1978   20.4113 C   0  0  0  0  0  0  0  0  0  0  0  0
   47.5269    3.3561   16.1216 C   0  0  0  0  0  0  0  0  0  0  0  0
   49.2306    8.5076   21.4060 C   0  0  0  0  0  0  0  0  0  0  0  0
   46.5930    4.5345   17.7992 H   0  0  0  0  0  0  0  0  0  0  0  0
   47.1649    4.6974   19.4612 H   0  0  0  0  0  0  0  0  0  0  0  0
   46.3425    6.8105   18.4201 H   0  0  0  0  0  0  0  0  0  0  0  0
   47.6056    6.7465   17.2075 H   0  0  0  0  0  0  0  0  0  0  0  0
   51.4664    6.1453   16.2505 H   0  0  0  0  0  0  0  0  0  0  0  0
   52.1813    6.8516   17.6960 H   0  0  0  0  0  0  0  0  0  0  0  0
   49.9275    8.0604   15.9737 H   0  0  0  0  0  0  0  0  0  0  0  0
   50.6814    8.8679   17.3479 H   0  0  0  0  0  0  0  0  0  0  0  0
   51.6392    7.4629   19.8208 H   0  0  0  0  0  0  0  0  0  0  0  0
   52.0166    4.3179   17.3699 H   0  0  0  0  0  0  0  0  0  0  0  0
   52.8947    8.8352   16.2013 H   0  0  0  0  0  0  0  0  0  0  0  0
   52.1924    7.9046   14.8793 H   0  0  0  0  0  0  0  0  0  0  0  0
   46.7523    8.0386   20.3978 H   0  0  0  0  0  0  0  0  0  0  0  0
   47.5700    2.3346   18.1454 H   0  0  0  0  0  0  0  0  0  0  0  0
   52.3265   11.1226   13.3209 H   0  0  0  0  0  0  0  0  0  0  0  0
   53.6019   10.4270   14.3459 H   0  0  0  0  0  0  0  0  0  0  0  0
   52.7215    9.4185   13.1759 H   0  0  0  0  0  0  0  0  0  0  0  0
   52.3271   11.2496   16.4058 H   0  0  0  0  0  0  0  0  0  0  0  0
   51.1945   11.9637   15.2402 H   0  0  0  0  0  0  0  0  0  0  0  0
   50.5843   10.8998   16.4849 H   0  0  0  0  0  0  0  0  0  0  0  0
   51.7094    1.9131   17.1748 H   0  0  0  0  0  0  0  0  0  0  0  0
   50.7696    8.8364   21.6642 H   0  0  0  0  0  0  0  0  0  0  0  0
   49.4801    0.8985   17.5717 H   0  0  0  0  0  0  0  0  0  0  0  0
   48.3233    9.1278   21.9606 H   0  0  0  0  0  0  0  0  0  0  0  0
   50.4135    8.6602   18.8868 H   0  0  0  0  0  0  0  0  0  0  0  0
   51.6164    7.4550   19.1969 H   0  0  0  0  0  0  0  0  0  0  0  0
   52.9841    8.4723   13.6216 H   0  0  0  0  0  0  0  0  0  0  0  0
   46.9153    3.9943   19.5261 H   0  0  0  0  0  0  0  0  0  0  0  0
   53.8859    5.9515   17.3025 H   0  0  0  0  0  0  0  0  0  0  0  0
   49.1604    5.3645   15.8358 H   0  0  0  0  0  0  0  0  0  0  0  0
   55.6253    6.4187   13.8192 H   0  0  0  0  0  0  0  0  0  0  0  0
   46.4025    2.6946   16.4989 H   0  0  0  0  0  0  0  0  0  0  0  0
   49.0273    9.4075   17.3973 H   0  0  0  0  0  0  0  0  0  0  0  0
   50.4388    7.9805   21.0867 H   0  0  0  0  0  0  0  0  0  0  0  0
   51.2470   10.0372   13.0229 H   0  0  0  0  0  0  0  0  0  0  0  0
   46.9328    4.5831   21.8521 H   0  0  0  0  0  0  0  0  0  0  0  0
   49.5532    7.6238   23.3199 H   0  0  0  0  0  0  0  0  0  0  0  0
   48.0683   10.9192   15.7446 H   0  0  0  0  0  0  0  0  0  0  0  0
   47.7943    5.9220   23.7226 H   0  0  0  0  0  0  0  0  0  0  0  0
   49.1724   11.2452   13.5476 H   0  0  0  0  0  0  0  0  0  0  0  0
   48.8401    4.3800   19.8858 H   0  0  0  0  0  0  0  0  0  0  0  0
   50.1406    3.5230   19.0571 H   0  0  0  0  0  0  0  0  0  0  0  0
   51.1766    5.2104   20.3209 H   0  0  0  0  0  0  0  0  0  0  0  0
   51.3311    5.7031   18.6483 H   0  0  0  0  0  0  0  0  0  0  0  0
   48.5876    8.3784   15.8945 H   0  0  0  0  0  0  0  0  0  0  0  0
   49.8553    9.0340   16.8841 H   0  0  0  0  0  0  0  0  0  0  0  0
   50.3769    6.7059   14.9703 H   0  0  0  0  0  0  0  0  0  0  0  0
   50.5588    8.3900   14.5512 H   0  0  0  0  0  0  0  0  0  0  0  0
   47.9866    9.2568   18.3478 H   0  0  0  0  0  0  0  0  0  0  0  0
   47.8002    6.5722   15.1871 H   0  0  0  0  0  0  0  0  0  0  0  0
   52.6983    7.2232   15.2579 H   0  0  0  0  0  0  0  0  0  0  0  0
   51.9897    6.9614   16.8381 H   0  0  0  0  0  0  0  0  0  0  0  0
   50.4224    6.7896   21.8787 H   0  0  0  0  0  0  0  0  0  0  0  0
   48.3286    2.5007   17.9046 H   0  0  0  0  0  0  0  0  0  0  0  0
   53.9596    9.7874   17.7233 H   0  0  0  0  0  0  0  0  0  0  0  0
   54.4520    8.2840   16.9121 H   0  0  0  0  0  0  0  0  0  0  0  0
   53.2883    8.2560   18.2566 H   0  0  0  0  0  0  0  0  0  0  0  0
   52.0667   10.0127   14.6314 H   0  0  0  0  0  0  0  0  0  0  0  0
   53.7152    9.3587   14.7308 H   0  0  0  0  0  0  0  0  0  0  0  0
   53.2438   10.7925   15.6658 H   0  0  0  0  0  0  0  0  0  0  0  0
   46.8339    4.4864   14.4343 H   0  0  0  0  0  0  0  0  0  0  0  0
   48.0131   10.1124   20.6498 H   0  0  0  0  0  0  0  0  0  0  0  0
   47.0763    2.4242   15.7935 H   0  0  0  0  0  0  0  0  0  0  0  0
   49.2345    8.8820   22.4259 H   0  0  0  0  0  0  0  0  0  0  0  0
  2  1  1  0
  3  1  1  0
  4  2  2  0
  5  3  2  0
  6  4  1  0
  7  5  1  0
  8  1  1  0
  9  8  1  0
 10 13  1  0
 11  3  1  0
 12  2  1  0
 13  9  1  0
 14  5  1  0
 15  4  1  0
 16 10  1  0
 17 10  1  0
 18 12  2  0
 19 11  2  0
 20 15  2  0
 21 14  2  0
  6  7  1  0
 18 20  1  0
 19 21  1  0
 23 27  2  0
 24 28  1  0
 25 26  1  0
 26 22  2  0
 27 24  1  0
 28 25  1  0
 29 22  1  0
 30 23  1  0
 31 22  1  0
 32 23  1  0
 33 24  2  0
 34 35  1  0
 35 29  2  0
 36 33  1  0
 37 31  2  0
 38 32  2  0
 39 26  1  0
 40 27  1  0
 41 31  1  0
 42 32  1  0
 43 34  1  0
 44 33  1  0
 45 35  1  0
 46 36  1  0
 47 44  2  0
 48 43  2  0
 49 47  1  0
 50 45  2  0
 25 34  2  0
 48 50  1  0
 30 36  2  0
 46 49  2  0
 52 51  1  0
 53 51  1  0
 54 52  2  0
 55 53  2  0
 56 54  1  0
 57 55  1  0
 58 51  1  0
 59 58  1  0
 60 63  1  0
 61 53  1  0
 62 52  1  0
 63 59  1  0
 64 55  1  0
 65 54  1  0
 66 60  1  0
 67 60  1  0
 68 62  2  0
 69 61  2  0
 70 65  2  0
 71 64  2  0
 56 57  1  0
 68 70  1  0
 69 71  1  0
  6 72  1  0
  6 73  1  0
  7 74  1  0
  7 75  1  0
  8 76  1  0
  8 77  1  0
  9 78  1  0
  9 79  1  0
 11 80  1  0
 12 81  1  0
 13 82  1  0
 13 83  1  0
 14 84  1  0
 15 85  1  0
 16 86  1  0
 16 87  1  0
 16 88  1  0
 17 89  1  0
 17 90  1  0
 17 91  1  0
 18 92  1  0
 19 93  1  0
 20 94  1  0
 21 95  1  0
 28 96  1  0
 28 97  1  0
 29 98  1  0
 30 99  1  0
 39100  1  0
 40101  1  0
 41102  1  0
 42103  1  0
 43104  1  0
 44105  1  0
 45106  1  0
 46107  1  0
 47108  1  0
 48109  1  0
 49110  1  0
 50111  1  0
 56112  1  0
 56113  1  0
 57114  1  0
 57115  1  0
 58116  1  0
 58117  1  0
 59118  1  0
 59119  1  0
 61120  1  0
 62121  1  0
 63122  1  0
 63123  1  0
 64124  1  0
 65125  1  0
 66126  1  0
 66127  1  0
 66128  1  0
 67129  1  0
 67130  1  0
 67131  1  0
 68132  1  0
 69133  1  0
 70134  1  0
 71135  1  0
M  END
> <Uni-Dock RESULT> 
ENERGY=   -6.889  LOWER_BOUND=    0.000  UPPER_BOUND=    0.000
INTER + INTRA:          -6.889
INTER:                  -6.889
INTRA:                   0.000
UNBOUND:                 0.000

$$$$

     RDKit          3D

135142  0  0  0  0  0  0  0  0999 V2000
   48.9324    8.9582   20.0425 N   0  0  0  0  0  0  0  0  0  0  0  0
   48.2437   10.1627   20.3398 C   0  0  0  0  0  0  0  0  0  0  0  0
   48.9548    7.8455   20.9147 C   0  0  0  0  0  0  0  0  0  0  0  0
   48.3262   10.8018   21.5994 C   0  0  0  0  0  0  0  0  0  0  0  0
   49.5908    7.9543   22.1622 C   0  0  0  0  0  0  0  0  0  0  0  0
   49.1561   10.3296   22.7789 C   0  0  0  0  0  0  0  0  0  0  0  0
   50.2221    9.2654   22.5418 C   0  0  0  0  0  0  0  0  0  0  0  0
   49.2951    8.6963   18.6328 C   0  0  0  0  0  0  0  0  0  0  0  0
   50.6897    8.0611   18.4997 C   0  0  0  0  0  0  0  0  0  0  0  0
   52.4566    7.4519   16.8174 N   0  0  0  0  0  0  0  0  0  0  0  0
   48.3600    6.6202   20.5742 C   0  0  0  0  0  0  0  0  0  0  0  0
   47.3966   10.7515   19.3716 C   0  0  0  0  0  0  0  0  0  0  0  0
   51.0695    7.9040   17.0211 C   0  0  0  0  0  0  0  0  0  0  0  0
   49.6363    6.8565   23.0348 C   0  0  0  0  0  0  0  0  0  0  0  0
   47.5802   11.9828   21.8317 C   0  0  0  0  0  0  0  0  0  0  0  0
   52.8089    7.5325   15.3973 C   0  0  0  0  0  0  0  0  0  0  0  0
   52.6745    6.0877   17.3030 C   0  0  0  0  0  0  0  0  0  0  0  0
   46.6754   11.9232   19.6157 C   0  0  0  0  0  0  0  0  0  0  0  0
   48.4045    5.5295   21.4463 C   0  0  0  0  0  0  0  0  0  0  0  0
   46.7690   12.5420   20.8500 C   0  0  0  0  0  0  0  0  0  0  0  0
   49.0452    5.6475   22.6755 C   0  0  0  0  0  0  0  0  0  0  0  0
   49.8264    8.6518   16.1282 C   0  0  0  0  0  0  0  0  0  0  0  0
   49.0210   10.4305   21.9363 C   0  0  0  0  0  0  0  0  0  0  0  0
   48.9187    8.2500   20.8133 C   0  0  0  0  0  0  0  0  0  0  0  0
   49.9362    7.7586   18.4044 C   0  0  0  0  0  0  0  0  0  0  0  0
   49.1894    8.2099   17.2953 C   0  0  0  0  0  0  0  0  0  0  0  0
   49.3117    9.6063   20.8341 C   0  0  0  0  0  0  0  0  0  0  0  0
   49.1965    7.2931   19.6489 C   0  0  0  0  0  0  0  0  0  0  0  0
   51.2225    8.6342   16.0588 C   0  0  0  0  0  0  0  0  0  0  0  0
   48.3286    9.9081   23.0303 C   0  0  0  0  0  0  0  0  0  0  0  0
   49.0179    9.1320   14.9844 C   0  0  0  0  0  0  0  0  0  0  0  0
   49.4484   11.8512   21.9352 C   0  0  0  0  0  0  0  0  0  0  0  0
   48.2038    7.7248   21.9480 C   0  0  0  0  0  0  0  0  0  0  0  0
   51.3646    7.7592   18.3367 C   0  0  0  0  0  0  0  0  0  0  0  0
   51.9952    8.1958   17.1428 C   0  0  0  0  0  0  0  0  0  0  0  0
   47.9171    8.5735   23.0484 C   0  0  0  0  0  0  0  0  0  0  0  0
   47.7989    9.1904   14.9777 O   0  0  0  0  0  0  0  0  0  0  0  0
   50.0640   12.3874   21.0283 O   0  0  0  0  0  0  0  0  0  0  0  0
   47.8180    8.1938   17.4064 O   0  0  0  0  0  0  0  0  0  0  0  0
   49.9849   10.1171   19.7544 O   0  0  0  0  0  0  0  0  0  0  0  0
   49.7442    9.5098   13.9190 O   0  0  0  0  0  0  0  0  0  0  0  0
   49.1006   12.5306   23.0414 O   0  0  0  0  0  0  0  0  0  0  0  0
   52.2081    7.3612   19.4020 C   0  0  0  0  0  0  0  0  0  0  0  0
   47.7468    6.3860   22.0493 C   0  0  0  0  0  0  0  0  0  0  0  0
   53.3968    8.2015   17.0429 C   0  0  0  0  0  0  0  0  0  0  0  0
   47.2157    8.0876   24.1655 C   0  0  0  0  0  0  0  0  0  0  0  0
   47.0498    5.9139   23.1656 C   0  0  0  0  0  0  0  0  0  0  0  0
   53.6010    7.3745   19.2892 C   0  0  0  0  0  0  0  0  0  0  0  0
   46.7835    6.7664   24.2250 C   0  0  0  0  0  0  0  0  0  0  0  0
   54.1954    7.7915   18.1074 C   0  0  0  0  0  0  0  0  0  0  0  0
   50.2133    8.8138   20.4582 N   0  0  0  0  0  0  0  0  0  0  0  0
   49.9500   10.1539   20.8441 C   0  0  0  0  0  0  0  0  0  0  0  0
   49.6791    7.6708   21.1099 C   0  0  0  0  0  0  0  0  0  0  0  0
   48.6763   10.6063   21.2648 C   0  0  0  0  0  0  0  0  0  0  0  0
   48.2928    7.4570   21.1556 C   0  0  0  0  0  0  0  0  0  0  0  0
   47.4138    9.7689   21.3345 C   0  0  0  0  0  0  0  0  0  0  0  0
   47.3715    8.4709   20.5412 C   0  0  0  0  0  0  0  0  0  0  0  0
   51.3734    8.5087   19.5824 C   0  0  0  0  0  0  0  0  0  0  0  0
   51.2504    9.1489   18.1902 C   0  0  0  0  0  0  0  0  0  0  0  0
   50.4946    7.0794   16.9756 N   0  0  0  0  0  0  0  0  0  0  0  0
   50.5137    6.7224   21.7288 C   0  0  0  0  0  0  0  0  0  0  0  0
   50.9950   11.1099   20.8540 C   0  0  0  0  0  0  0  0  0  0  0  0
   50.1866    8.4818   17.3081 C   0  0  0  0  0  0  0  0  0  0  0  0
   47.7693    6.3119   21.7800 C   0  0  0  0  0  0  0  0  0  0  0  0
   48.5088   11.9524   21.6784 C   0  0  0  0  0  0  0  0  0  0  0  0
   49.2794    6.3895   16.5340 C   0  0  0  0  0  0  0  0  0  0  0  0
   51.5261    6.9762   15.9416 C   0  0  0  0  0  0  0  0  0  0  0  0
   50.8085   12.4380   21.2501 C   0  0  0  0  0  0  0  0  0  0  0  0
   49.9905    5.5866   22.3519 C   0  0  0  0  0  0  0  0  0  0  0  0
   49.5602   12.8608   21.6663 C   0  0  0  0  0  0  0  0  0  0  0  0
   48.6166    5.3792   22.3727 C   0  0  0  0  0  0  0  0  0  0  0  0
   49.6741   11.2069   23.1916 H   0  0  0  0  0  0  0  0  0  0  0  0
   48.4597    9.9779   23.5532 H   0  0  0  0  0  0  0  0  0  0  0  0
   50.8083    9.1407   23.4610 H   0  0  0  0  0  0  0  0  0  0  0  0
   50.9354    9.5778   21.7691 H   0  0  0  0  0  0  0  0  0  0  0  0
   49.3441    9.6404   18.0750 H   0  0  0  0  0  0  0  0  0  0  0  0
   48.5342    8.0786   18.1396 H   0  0  0  0  0  0  0  0  0  0  0  0
   51.4277    8.6932   19.0096 H   0  0  0  0  0  0  0  0  0  0  0  0
   50.7069    7.0842   18.9924 H   0  0  0  0  0  0  0  0  0  0  0  0
   47.8316    6.5099   19.6322 H   0  0  0  0  0  0  0  0  0  0  0  0
   47.2512   10.2778   18.4048 H   0  0  0  0  0  0  0  0  0  0  0  0
   50.3634    7.2231   16.5271 H   0  0  0  0  0  0  0  0  0  0  0  0
   50.9511    8.8848   16.5422 H   0  0  0  0  0  0  0  0  0  0  0  0
   50.1302    6.9413   23.9998 H   0  0  0  0  0  0  0  0  0  0  0  0
   47.6359   12.4749   22.8017 H   0  0  0  0  0  0  0  0  0  0  0  0
   53.8565    7.2502   15.2429 H   0  0  0  0  0  0  0  0  0  0  0  0
   52.1803    6.8823   14.7781 H   0  0  0  0  0  0  0  0  0  0  0  0
   52.7083    8.5609   15.0320 H   0  0  0  0  0  0  0  0  0  0  0  0
   51.9947    5.3686   16.8322 H   0  0  0  0  0  0  0  0  0  0  0  0
   53.7034    5.7680   17.1009 H   0  0  0  0  0  0  0  0  0  0  0  0
   52.5510    6.0272   18.3886 H   0  0  0  0  0  0  0  0  0  0  0  0
   46.0328   12.3365   18.8437 H   0  0  0  0  0  0  0  0  0  0  0  0
   47.9313    4.5925   21.1665 H   0  0  0  0  0  0  0  0  0  0  0  0
   46.2080   13.4491   21.0547 H   0  0  0  0  0  0  0  0  0  0  0  0
   49.0792    4.8016   23.3565 H   0  0  0  0  0  0  0  0  0  0  0  0
   49.7371    6.4229   20.0437 H   0  0  0  0  0  0  0  0  0  0  0  0
   48.2298    6.8822   19.3278 H   0  0  0  0  0  0  0  0  0  0  0  0
   51.7193    8.9739   15.1521 H   0  0  0  0  0  0  0  0  0  0  0  0
   48.1021   10.5490   23.8802 H   0  0  0  0  0  0  0  0  0  0  0  0
   47.4212    8.5829   16.5977 H   0  0  0  0  0  0  0  0  0  0  0  0
   50.2104   11.0593   19.9013 H   0  0  0  0  0  0  0  0  0  0  0  0
   49.0799    9.8011   13.2597 H   0  0  0  0  0  0  0  0  0  0  0  0
   49.4446   13.4361   22.8910 H   0  0  0  0  0  0  0  0  0  0  0  0
   51.7897    7.0464   20.3546 H   0  0  0  0  0  0  0  0  0  0  0  0
   47.9216    5.6738   21.2459 H   0  0  0  0  0  0  0  0  0  0  0  0
   53.8825    8.5341   16.1278 H   0  0  0  0  0  0  0  0  0  0  0  0
   46.9949    8.7427   25.0066 H   0  0  0  0  0  0  0  0  0  0  0  0
   46.7146    4.8803   23.1984 H   0  0  0  0  0  0  0  0  0  0  0  0
   54.2157    7.0641   20.1300 H   0  0  0  0  0  0  0  0  0  0  0  0
   46.2396    6.4071   25.0945 H   0  0  0  0  0  0  0  0  0  0  0  0
   55.2779    7.8064   18.0151 H   0  0  0  0  0  0  0  0  0  0  0  0
   47.2061    9.5638   22.3937 H   0  0  0  0  0  0  0  0  0  0  0  0
   46.5841   10.3862   20.9624 H   0  0  0  0  0  0  0  0  0  0  0  0
   46.3433    8.0870   20.5464 H   0  0  0  0  0  0  0  0  0  0  0  0
   47.6268    8.6321   19.4882 H   0  0  0  0  0  0  0  0  0  0  0  0
   52.3062    8.8241   20.0650 H   0  0  0  0  0  0  0  0  0  0  0  0
   51.4910    7.4281   19.4307 H   0  0  0  0  0  0  0  0  0  0  0  0
   51.0096   10.2147   18.2654 H   0  0  0  0  0  0  0  0  0  0  0  0
   52.2281    9.1024   17.6972 H   0  0  0  0  0  0  0  0  0  0  0  0
   51.5898    6.8726   21.7471 H   0  0  0  0  0  0  0  0  0  0  0  0
   52.0064   10.8326   20.5739 H   0  0  0  0  0  0  0  0  0  0  0  0
   50.0532    9.0704   16.3907 H   0  0  0  0  0  0  0  0  0  0  0  0
   49.2320    8.5366   17.8427 H   0  0  0  0  0  0  0  0  0  0  0  0
   46.6953    6.1461   21.8106 H   0  0  0  0  0  0  0  0  0  0  0  0
   47.5320   12.2966   22.0152 H   0  0  0  0  0  0  0  0  0  0  0  0
   49.4923    5.3390   16.3068 H   0  0  0  0  0  0  0  0  0  0  0  0
   48.8410    6.8545   15.6436 H   0  0  0  0  0  0  0  0  0  0  0  0
   48.5272    6.3881   17.3308 H   0  0  0  0  0  0  0  0  0  0  0  0
   52.4690    7.4203   16.2738 H   0  0  0  0  0  0  0  0  0  0  0  0
   51.2245    7.4623   15.0071 H   0  0  0  0  0  0  0  0  0  0  0  0
   51.7451    5.9241   15.7250 H   0  0  0  0  0  0  0  0  0  0  0  0
   51.6468   13.1291   21.2432 H   0  0  0  0  0  0  0  0  0  0  0  0
   50.6584    4.8705   22.8223 H   0  0  0  0  0  0  0  0  0  0  0  0
   49.4033   13.8868   21.9856 H   0  0  0  0  0  0  0  0  0  0  0  0
   48.2048    4.4978   22.8563 H   0  0  0  0  0  0  0  0  0  0  0  0
  2  1  1  0
  3  1  1  0
  4  2  2  0
  5  3  2  0
  6  4  1  0
  7  5  1  0
  8  1  1  0
  9  8  1  0
 10 13  1  0
 11  3  1  0
 12  2  1  0
 13  9  1  0
 14  5  1  0
 15  4  1  0
 16 10  1  0
 17 10  1  0
 18 12  2  0
 19 11  2  0
 20 15  2  0
 21 14  2  0
  6  7  1  0
 18 20  1  0
 19 21  1  0
 23 27  2  0
 24 28  1  0
 25 26  1  0
 26 22  2  0
 27 24  1  0
 28 25  1  0
 29 22  1  0
 30 23  1  0
 31 22  1  0
 32 23  1  0
 33 24  2  0
 34 35  1  0
 35 29  2  0
 36 33  1  0
 37 31  2  0
 38 32  2  0
 39 26  1  0
 40 27  1  0
 41 31  1  0
 42 32  1  0
 43 34  1  0
 44 33  1  0
 45 35  1  0
 46 36  1  0
 47 44  2  0
 48 43  2  0
 49 47  1  0
 50 45  2  0
 25 34  2  0
 48 50  1  0
 30 36  2  0
 46 49  2  0
 52 51  1  0
 53 51  1  0
 54 52  2  0
 55 53  2  0
 56 54  1  0
 57 55  1  0
 58 51  1  0
 59 58  1  0
 60 63  1  0
 61 53  1  0
 62 52  1  0
 63 59  1  0
 64 55  1  0
 65 54  1  0
 66 60  1  0
 67 60  1  0
 68 62  2  0
 69 61  2  0
 70 65  2  0
 71 64  2  0
 56 57  1  0
 68 70  1  0
 69 71  1  0
  6 72  1  0
  6 73  1  0
  7 74  1  0
  7 75  1  0
  8 76  1  0
  8 77  1  0
  9 78  1  0
  9 79  1  0
 11 80  1  0
 12 81  1  0
 13 82  1  0
 13 83  1  0
 14 84  1  0
 15 85  1  0
 16 86  1  0
 16 87  1  0
 16 88  1  0
 17 89  1  0
 17 90  1  0
 17 91  1  0
 18 92  1  0
 19 93  1  0
 20 94  1  0
 21 95  1  0
 28 96  1  0
 28 97  1  0
 29 98  1  0
 30 99  1  0
 39100  1  0
 40101  1  0
 41102  1  0
 42103  1  0
 43104  1  0
 44105  1  0
 45106  1  0
 46107  1  0
 47108  1  0
 48109  1  0
 49110  1  0
 50111  1  0
 56112  1  0
 56113  1  0
 57114  1  0
 57115  1  0
 58116  1  0
 58117  1  0
 59118  1  0
 59119  1  0
 61120  1  0
 62121  1  0
 63122  1  0
 63123  1  0
 64124  1  0
 65125  1  0
 66126  1  0
 66127  1  0
 66128  1  0
 67129  1  0
 67130  1  0
 67131  1  0
 68132  1  0
 69133  1  0
 70134  1  0
 71135  1  0
M  END
> <Uni-Dock RESULT> 
ENERGY=   -6.706  LOWER_BOUND=    2.462  UPPER_BOUND=    5.633
INTER + INTRA:          -6.706
INTER:                  -6.706
INTRA:                   0.000
UNBOUND:                 0.000

$$$$

     RDKit          3D

135142  0  0  0  0  0  0  0  0999 V2000
   49.4214    8.4056   18.2040 N   0  0  0  0  0  0  0  0  0  0  0  0
   49.1453    8.7739   16.8618 C   0  0  0  0  0  0  0  0  0  0  0  0
   48.9208    9.1166   19.3189 C   0  0  0  0  0  0  0  0  0  0  0  0
   49.2337   10.1082   16.3996 C   0  0  0  0  0  0  0  0  0  0  0  0
   49.3432   10.4366   19.5467 C   0  0  0  0  0  0  0  0  0  0  0  0
   49.6489   11.3075   17.2317 C   0  0  0  0  0  0  0  0  0  0  0  0
   50.3123   11.0639   18.5829 C   0  0  0  0  0  0  0  0  0  0  0  0
   49.8981    7.0294   18.4617 C   0  0  0  0  0  0  0  0  0  0  0  0
   50.9948    6.9863   19.5394 C   0  0  0  0  0  0  0  0  0  0  0  0
   52.6980    5.4697   20.5988 N   0  0  0  0  0  0  0  0  0  0  0  0
   48.0084    8.5438   20.2192 C   0  0  0  0  0  0  0  0  0  0  0  0
   48.7195    7.7959   15.9323 C   0  0  0  0  0  0  0  0  0  0  0  0
   51.5343    5.5586   19.6999 C   0  0  0  0  0  0  0  0  0  0  0  0
   48.8690   11.1530   20.6561 C   0  0  0  0  0  0  0  0  0  0  0  0
   48.9073   10.4024   15.0535 C   0  0  0  0  0  0  0  0  0  0  0  0
   53.2835    4.1280   20.5331 C   0  0  0  0  0  0  0  0  0  0  0  0
   52.3560    5.7913   21.9858 C   0  0  0  0  0  0  0  0  0  0  0  0
   48.4109    8.1036   14.6047 C   0  0  0  0  0  0  0  0  0  0  0  0
   47.5358    9.2606   21.3215 C   0  0  0  0  0  0  0  0  0  0  0  0
   48.5067    9.4116   14.1634 C   0  0  0  0  0  0  0  0  0  0  0  0
   47.9686   10.5643   21.5409 C   0  0  0  0  0  0  0  0  0  0  0  0
   50.7837    4.6268   18.4875 C   0  0  0  0  0  0  0  0  0  0  0  0
   49.6956   10.4759   17.0206 C   0  0  0  0  0  0  0  0  0  0  0  0
   49.0417    9.0667   18.9213 C   0  0  0  0  0  0  0  0  0  0  0  0
   50.2096    6.7586   19.5443 C   0  0  0  0  0  0  0  0  0  0  0  0
   49.8528    5.6360   18.7671 C   0  0  0  0  0  0  0  0  0  0  0  0
   49.8641    9.3177   17.8011 C   0  0  0  0  0  0  0  0  0  0  0  0
   49.1631    7.8281   19.8156 C   0  0  0  0  0  0  0  0  0  0  0  0
   52.0817    4.7293   18.9962 C   0  0  0  0  0  0  0  0  0  0  0  0
   48.6980   11.3956   17.3494 C   0  0  0  0  0  0  0  0  0  0  0  0
   50.3852    3.4664   17.6585 C   0  0  0  0  0  0  0  0  0  0  0  0
   50.5754   10.7182   15.8509 C   0  0  0  0  0  0  0  0  0  0  0  0
   48.0157   10.0232   19.2480 C   0  0  0  0  0  0  0  0  0  0  0  0
   51.5436    6.8693   20.0477 C   0  0  0  0  0  0  0  0  0  0  0  0
   52.4710    5.8322   19.7685 C   0  0  0  0  0  0  0  0  0  0  0  0
   47.8596   11.1834   18.4461 C   0  0  0  0  0  0  0  0  0  0  0  0
   49.2775    3.3165   17.1688 O   0  0  0  0  0  0  0  0  0  0  0  0
   51.4760    9.9748   15.4972 O   0  0  0  0  0  0  0  0  0  0  0  0
   48.5594    5.5731   18.3020 O   0  0  0  0  0  0  0  0  0  0  0  0
   50.8376    8.4081   17.4774 O   0  0  0  0  0  0  0  0  0  0  0  0
   51.3604    2.5596   17.4787 O   0  0  0  0  0  0  0  0  0  0  0  0
   50.3042   11.8537   15.1851 O   0  0  0  0  0  0  0  0  0  0  0  0
   52.0152    7.9678   20.8062 C   0  0  0  0  0  0  0  0  0  0  0  0
   47.1200    9.8868   20.3393 C   0  0  0  0  0  0  0  0  0  0  0  0
   53.7871    5.9085   20.2550 C   0  0  0  0  0  0  0  0  0  0  0  0
   46.8624   12.1296   18.7396 C   0  0  0  0  0  0  0  0  0  0  0  0
   46.1317   10.8345   20.6214 C   0  0  0  0  0  0  0  0  0  0  0  0
   53.3279    8.0314   21.2814 C   0  0  0  0  0  0  0  0  0  0  0  0
   46.0025   11.9574   19.8199 C   0  0  0  0  0  0  0  0  0  0  0  0
   54.2132    6.9991   21.0086 C   0  0  0  0  0  0  0  0  0  0  0  0
   50.4904    8.9537   18.8294 N   0  0  0  0  0  0  0  0  0  0  0  0
   50.6399    9.4801   17.5200 C   0  0  0  0  0  0  0  0  0  0  0  0
   49.5001    9.3750   19.7559 C   0  0  0  0  0  0  0  0  0  0  0  0
   49.5459    9.7965   16.6791 C   0  0  0  0  0  0  0  0  0  0  0  0
   48.1362    9.2193   19.4641 C   0  0  0  0  0  0  0  0  0  0  0  0
   48.0804    9.5962   17.0137 C   0  0  0  0  0  0  0  0  0  0  0  0
   47.7287    8.6369   18.1416 C   0  0  0  0  0  0  0  0  0  0  0  0
   51.6036    8.1956   19.4553 C   0  0  0  0  0  0  0  0  0  0  0  0
   51.9350    6.8973   18.7017 C   0  0  0  0  0  0  0  0  0  0  0  0
   50.7286    5.3320   20.2586 N   0  0  0  0  0  0  0  0  0  0  0  0
   49.8489    9.9598   20.9870 C   0  0  0  0  0  0  0  0  0  0  0  0
   51.9315    9.7476   17.0038 C   0  0  0  0  0  0  0  0  0  0  0  0
   50.8667    5.8087   18.8708 C   0  0  0  0  0  0  0  0  0  0  0  0
   47.1596    9.6148   20.3941 C   0  0  0  0  0  0  0  0  0  0  0  0
   49.7817   10.3628   15.4005 C   0  0  0  0  0  0  0  0  0  0  0  0
   49.4405    4.6547   20.4309 C   0  0  0  0  0  0  0  0  0  0  0  0
   51.8173    4.4295   20.6378 C   0  0  0  0  0  0  0  0  0  0  0  0
   52.1465   10.2919   15.7338 C   0  0  0  0  0  0  0  0  0  0  0  0
   48.8760   10.3553   21.9083 C   0  0  0  0  0  0  0  0  0  0  0  0
   51.0667   10.6030   14.9291 C   0  0  0  0  0  0  0  0  0  0  0  0
   47.5298   10.1775   21.6130 C   0  0  0  0  0  0  0  0  0  0  0  0
   50.3599   11.8951   16.6338 H   0  0  0  0  0  0  0  0  0  0  0  0
   48.7579   11.9353   17.3740 H   0  0  0  0  0  0  0  0  0  0  0  0
   50.6626   12.0236   18.9834 H   0  0  0  0  0  0  0  0  0  0  0  0
   51.2052   10.4345   18.4833 H   0  0  0  0  0  0  0  0  0  0  0  0
   50.3561    6.6136   17.5549 H   0  0  0  0  0  0  0  0  0  0  0  0
   49.0637    6.3673   18.7247 H   0  0  0  0  0  0  0  0  0  0  0  0
   51.8103    7.6639   19.2561 H   0  0  0  0  0  0  0  0  0  0  0  0
   50.5977    7.3419   20.4949 H   0  0  0  0  0  0  0  0  0  0  0  0
   47.6352    7.5374   20.0562 H   0  0  0  0  0  0  0  0  0  0  0  0
   48.5813    6.7638   16.2421 H   0  0  0  0  0  0  0  0  0  0  0  0
   50.7293    4.8941   20.0413 H   0  0  0  0  0  0  0  0  0  0  0  0
   51.8369    5.2046   18.7057 H   0  0  0  0  0  0  0  0  0  0  0  0
   49.1977   12.1744   20.8324 H   0  0  0  0  0  0  0  0  0  0  0  0
   48.9681   11.4290   14.6949 H   0  0  0  0  0  0  0  0  0  0  0  0
   54.1826    4.0682   21.1568 H   0  0  0  0  0  0  0  0  0  0  0  0
   52.5810    3.3540   20.8633 H   0  0  0  0  0  0  0  0  0  0  0  0
   53.6001    3.8943   19.5102 H   0  0  0  0  0  0  0  0  0  0  0  0
   51.5584    5.1476   22.3739 H   0  0  0  0  0  0  0  0  0  0  0  0
   53.2327    5.6773   22.6338 H   0  0  0  0  0  0  0  0  0  0  0  0
   52.0438    6.8352   22.0870 H   0  0  0  0  0  0  0  0  0  0  0  0
   48.0826    7.3203   13.9276 H   0  0  0  0  0  0  0  0  0  0  0  0
   46.8242    8.8012   22.0019 H   0  0  0  0  0  0  0  0  0  0  0  0
   48.2628    9.6649   13.1358 H   0  0  0  0  0  0  0  0  0  0  0  0
   47.6008   11.1247   22.3961 H   0  0  0  0  0  0  0  0  0  0  0  0
   49.3029    8.1666   20.8506 H   0  0  0  0  0  0  0  0  0  0  0  0
   48.1805    7.3374   19.8268 H   0  0  0  0  0  0  0  0  0  0  0  0
   52.8054    3.9450   18.7830 H   0  0  0  0  0  0  0  0  0  0  0  0
   48.5679   12.2890   16.7418 H   0  0  0  0  0  0  0  0  0  0  0  0
   48.4565    4.7809   17.7321 H   0  0  0  0  0  0  0  0  0  0  0  0
   51.3433    8.7069   16.6931 H   0  0  0  0  0  0  0  0  0  0  0  0
   50.9520    1.8680   16.9167 H   0  0  0  0  0  0  0  0  0  0  0  0
   50.9557   11.8700   14.4528 H   0  0  0  0  0  0  0  0  0  0  0  0
   51.3651    8.8104   21.0279 H   0  0  0  0  0  0  0  0  0  0  0  0
   47.1705    9.0230   20.9986 H   0  0  0  0  0  0  0  0  0  0  0  0
   54.4994    5.1135   20.0437 H   0  0  0  0  0  0  0  0  0  0  0  0
   46.7438   13.0170   18.1201 H   0  0  0  0  0  0  0  0  0  0  0  0
   45.4640   10.6867   21.4665 H   0  0  0  0  0  0  0  0  0  0  0  0
   53.6542    8.8927   21.8584 H   0  0  0  0  0  0  0  0  0  0  0  0
   45.2346   12.6966   20.0315 H   0  0  0  0  0  0  0  0  0  0  0  0
   55.2356    7.0446   21.3733 H   0  0  0  0  0  0  0  0  0  0  0  0
   47.6454   10.5844   17.2173 H   0  0  0  0  0  0  0  0  0  0  0  0
   47.5831    9.2102   16.1128 H   0  0  0  0  0  0  0  0  0  0  0  0
   46.6450    8.4631   18.1325 H   0  0  0  0  0  0  0  0  0  0  0  0
   48.1918    7.6550   17.9964 H   0  0  0  0  0  0  0  0  0  0  0  0
   52.4960    8.8280   19.5341 H   0  0  0  0  0  0  0  0  0  0  0  0
   51.3692    7.9161   20.4906 H   0  0  0  0  0  0  0  0  0  0  0  0
   52.0627    7.0843   17.6301 H   0  0  0  0  0  0  0  0  0  0  0  0
   52.9049    6.5276   19.0534 H   0  0  0  0  0  0  0  0  0  0  0  0
   50.8935   10.1314   21.2324 H   0  0  0  0  0  0  0  0  0  0  0  0
   52.8193    9.5604   17.5997 H   0  0  0  0  0  0  0  0  0  0  0  0
   51.0934    4.9691   18.2003 H   0  0  0  0  0  0  0  0  0  0  0  0
   49.9142    6.2233   18.5231 H   0  0  0  0  0  0  0  0  0  0  0  0
   46.1037    9.4895   20.1679 H   0  0  0  0  0  0  0  0  0  0  0  0
   48.9396   10.6190   14.7593 H   0  0  0  0  0  0  0  0  0  0  0  0
   49.3170    4.3168   21.4658 H   0  0  0  0  0  0  0  0  0  0  0  0
   49.3383    3.7872   19.7689 H   0  0  0  0  0  0  0  0  0  0  0  0
   48.6136    5.3446   20.2292 H   0  0  0  0  0  0  0  0  0  0  0  0
   52.7875    4.9326   20.5881 H   0  0  0  0  0  0  0  0  0  0  0  0
   51.8562    3.5384   20.0013 H   0  0  0  0  0  0  0  0  0  0  0  0
   51.6972    4.1026   21.6772 H   0  0  0  0  0  0  0  0  0  0  0  0
   53.1592   10.4818   15.3891 H   0  0  0  0  0  0  0  0  0  0  0  0
   49.1738   10.8045   22.8515 H   0  0  0  0  0  0  0  0  0  0  0  0
   51.2186   11.0351   13.9445 H   0  0  0  0  0  0  0  0  0  0  0  0
   46.7694   10.4838   22.3259 H   0  0  0  0  0  0  0  0  0  0  0  0
  2  1  1  0
  3  1  1  0
  4  2  2  0
  5  3  2  0
  6  4  1  0
  7  5  1  0
  8  1  1  0
  9  8  1  0
 10 13  1  0
 11  3  1  0
 12  2  1  0
 13  9  1  0
 14  5  1  0
 15  4  1  0
 16 10  1  0
 17 10  1  0
 18 12  2  0
 19 11  2  0
 20 15  2  0
 21 14  2  0
  6  7  1  0
 18 20  1  0
 19 21  1  0
 23 27  2  0
 24 28  1  0
 25 26  1  0
 26 22  2  0
 27 24  1  0
 28 25  1  0
 29 22  1  0
 30 23  1  0
 31 22  1  0
 32 23  1  0
 33 24  2  0
 34 35  1  0
 35 29  2  0
 36 33  1  0
 37 31  2  0
 38 32  2  0
 39 26  1  0
 40 27  1  0
 41 31  1  0
 42 32  1  0
 43 34  1  0
 44 33  1  0
 45 35  1  0
 46 36  1  0
 47 44  2  0
 48 43  2  0
 49 47  1  0
 50 45  2  0
 25 34  2  0
 48 50  1  0
 30 36  2  0
 46 49  2  0
 52 51  1  0
 53 51  1  0
 54 52  2  0
 55 53  2  0
 56 54  1  0
 57 55  1  0
 58 51  1  0
 59 58  1  0
 60 63  1  0
 61 53  1  0
 62 52  1  0
 63 59  1  0
 64 55  1  0
 65 54  1  0
 66 60  1  0
 67 60  1  0
 68 62  2  0
 69 61  2  0
 70 65  2  0
 71 64  2  0
 56 57  1  0
 68 70  1  0
 69 71  1  0
  6 72  1  0
  6 73  1  0
  7 74  1  0
  7 75  1  0
  8 76  1  0
  8 77  1  0
  9 78  1  0
  9 79  1  0
 11 80  1  0
 12 81  1  0
 13 82  1  0
 13 83  1  0
 14 84  1  0
 15 85  1  0
 16 86  1  0
 16 87  1  0
 16 88  1  0
 17 89  1  0
 17 90  1  0
 17 91  1  0
 18 92  1  0
 19 93  1  0
 20 94  1  0
 21 95  1  0
 28 96  1  0
 28 97  1  0
 29 98  1  0
 30 99  1  0
 39100  1  0
 40101  1  0
 41102  1  0
 42103  1  0
 43104  1  0
 44105  1  0
 45106  1  0
 46107  1  0
 47108  1  0
 48109  1  0
 49110  1  0
 50111  1  0
 56112  1  0
 56113  1  0
 57114  1  0
 57115  1  0
 58116  1  0
 58117  1  0
 59118  1  0
 59119  1  0
 61120  1  0
 62121  1  0
 63122  1  0
 63123  1  0
 64124  1  0
 65125  1  0
 66126  1  0
 66127  1  0
 66128  1  0
 67129  1  0
 67130  1  0
 67131  1  0
 68132  1  0
 69133  1  0
 70134  1  0
 71135  1  0
M  END
> <Uni-Dock RESULT> 
ENERGY=   -6.246  LOWER_BOUND=    2.123  UPPER_BOUND=    5.527
INTER + INTRA:          -6.246
INTER:                  -6.246
INTRA:                   0.000
UNBOUND:                 0.000

$$$$

     RDKit          3D

135142  0  0  0  0  0  0  0  0999 V2000
   50.0260    7.9960   18.9250 N   0  0  0  0  0  0  0  0  0  0  0  0
   50.3228    6.9477   19.8340 C   0  0  0  0  0  0  0  0  0  0  0  0
   49.2333    9.1153   19.2686 C   0  0  0  0  0  0  0  0  0  0  0  0
   49.3420    6.3477   20.6585 C   0  0  0  0  0  0  0  0  0  0  0  0
   47.8745    8.9355   19.5751 C   0  0  0  0  0  0  0  0  0  0  0  0
   47.8664    6.7013   20.6794 C   0  0  0  0  0  0  0  0  0  0  0  0
   47.3019    7.5453   19.5418 C   0  0  0  0  0  0  0  0  0  0  0  0
   50.8824    8.1393   17.7277 C   0  0  0  0  0  0  0  0  0  0  0  0
   50.0712    8.5056   16.4731 C   0  0  0  0  0  0  0  0  0  0  0  0
   50.2447    8.7256   13.9742 N   0  0  0  0  0  0  0  0  0  0  0  0
   49.7601   10.4160   19.3122 C   0  0  0  0  0  0  0  0  0  0  0  0
   51.6539    6.4898   19.9768 C   0  0  0  0  0  0  0  0  0  0  0  0
   50.9801    8.5404   15.2370 C   0  0  0  0  0  0  0  0  0  0  0  0
   47.0684   10.0360   19.9037 C   0  0  0  0  0  0  0  0  0  0  0  0
   49.7229    5.3306   21.5671 C   0  0  0  0  0  0  0  0  0  0  0  0
   51.1454    8.5337   12.8343 C   0  0  0  0  0  0  0  0  0  0  0  0
   49.6120   10.0432   13.8865 C   0  0  0  0  0  0  0  0  0  0  0  0
   52.0094    5.4778   20.8722 C   0  0  0  0  0  0  0  0  0  0  0  0
   48.9557   11.5096   19.6425 C   0  0  0  0  0  0  0  0  0  0  0  0
   51.0398    4.8950   21.6693 C   0  0  0  0  0  0  0  0  0  0  0  0
   47.6092   11.3193   19.9355 C   0  0  0  0  0  0  0  0  0  0  0  0
   52.5103    8.0008   15.7559 C   0  0  0  0  0  0  0  0  0  0  0  0
   48.6176    6.5979   20.2754 C   0  0  0  0  0  0  0  0  0  0  0  0
   49.3700    8.7209   19.2992 C   0  0  0  0  0  0  0  0  0  0  0  0
   50.5843    8.9365   16.9416 C   0  0  0  0  0  0  0  0  0  0  0  0
   51.9518    8.5908   16.8974 C   0  0  0  0  0  0  0  0  0  0  0  0
   49.2290    7.3174   19.2326 C   0  0  0  0  0  0  0  0  0  0  0  0
   50.0265    9.5711   18.2060 C   0  0  0  0  0  0  0  0  0  0  0  0
   51.7020    7.7620   14.6406 C   0  0  0  0  0  0  0  0  0  0  0  0
   48.1435    7.2745   21.4008 C   0  0  0  0  0  0  0  0  0  0  0  0
   53.9455    7.6366   15.7421 C   0  0  0  0  0  0  0  0  0  0  0  0
   48.4782    5.1240   20.1793 C   0  0  0  0  0  0  0  0  0  0  0  0
   48.8777    9.4058   20.4666 C   0  0  0  0  0  0  0  0  0  0  0  0
   49.7563    8.6740   15.8055 C   0  0  0  0  0  0  0  0  0  0  0  0
   50.3393    8.0895   14.6514 C   0  0  0  0  0  0  0  0  0  0  0  0
   48.2672    8.6616   21.5092 C   0  0  0  0  0  0  0  0  0  0  0  0
   54.7076    7.8006   16.6811 O   0  0  0  0  0  0  0  0  0  0  0  0
   48.8546    4.4542   19.2314 O   0  0  0  0  0  0  0  0  0  0  0  0
   52.7094    8.8596   18.0142 O   0  0  0  0  0  0  0  0  0  0  0  0
   49.7029    6.6561   18.1289 O   0  0  0  0  0  0  0  0  0  0  0  0
   54.3638    7.0969   14.5850 O   0  0  0  0  0  0  0  0  0  0  0  0
   47.8863    4.5574   21.2445 O   0  0  0  0  0  0  0  0  0  0  0  0
   48.3681    8.9483   15.7571 C   0  0  0  0  0  0  0  0  0  0  0  0
   48.9640   10.8081   20.6611 C   0  0  0  0  0  0  0  0  0  0  0  0
   49.5535    7.8257   13.5168 C   0  0  0  0  0  0  0  0  0  0  0  0
   47.7838    9.3047   22.6617 C   0  0  0  0  0  0  0  0  0  0  0  0
   48.4796   11.4369   21.8120 C   0  0  0  0  0  0  0  0  0  0  0  0
   47.5984    8.6782   14.6224 C   0  0  0  0  0  0  0  0  0  0  0  0
   47.8891   10.6838   22.8140 C   0  0  0  0  0  0  0  0  0  0  0  0
   48.1925    8.1199   13.5002 C   0  0  0  0  0  0  0  0  0  0  0  0
   48.8983    7.9194   18.1789 N   0  0  0  0  0  0  0  0  0  0  0  0
   48.8751    6.6636   18.8394 C   0  0  0  0  0  0  0  0  0  0  0  0
   48.6186    9.1621   18.8068 C   0  0  0  0  0  0  0  0  0  0  0  0
   49.3708    6.4648   20.1504 C   0  0  0  0  0  0  0  0  0  0  0  0
   49.4194    9.6257   19.8620 C   0  0  0  0  0  0  0  0  0  0  0  0
   50.0223    7.5196   21.0239 C   0  0  0  0  0  0  0  0  0  0  0  0
   50.5563    8.7757   20.3510 C   0  0  0  0  0  0  0  0  0  0  0  0
   48.8414    7.9784   16.6959 C   0  0  0  0  0  0  0  0  0  0  0  0
   50.0620    7.3240   16.0288 C   0  0  0  0  0  0  0  0  0  0  0  0
   51.2987    9.4537   15.5144 N   0  0  0  0  0  0  0  0  0  0  0  0
   47.5373    9.9637   18.3976 C   0  0  0  0  0  0  0  0  0  0  0  0
   48.3058    5.5344   18.2013 C   0  0  0  0  0  0  0  0  0  0  0  0
   51.3503    8.1428   16.1860 C   0  0  0  0  0  0  0  0  0  0  0  0
   49.1544   10.8676   20.4642 C   0  0  0  0  0  0  0  0  0  0  0  0
   49.2674    5.1866   20.7558 C   0  0  0  0  0  0  0  0  0  0  0  0
   52.3338   10.3374   16.0578 C   0  0  0  0  0  0  0  0  0  0  0  0
   51.4624    9.3322   14.0645 C   0  0  0  0  0  0  0  0  0  0  0  0
   48.2263    4.2767   18.8073 C   0  0  0  0  0  0  0  0  0  0  0  0
   47.2740   11.1963   19.0003 C   0  0  0  0  0  0  0  0  0  0  0  0
   48.7073    4.1022   20.0912 C   0  0  0  0  0  0  0  0  0  0  0  0
   48.0871   11.6505   20.0316 C   0  0  0  0  0  0  0  0  0  0  0  0
   47.3002    5.7591   20.6826 H   0  0  0  0  0  0  0  0  0  0  0  0
   47.6596    7.2000   21.6368 H   0  0  0  0  0  0  0  0  0  0  0  0
   46.2104    7.5928   19.6441 H   0  0  0  0  0  0  0  0  0  0  0  0
   47.4937    7.0822   18.5659 H   0  0  0  0  0  0  0  0  0  0  0  0
   51.3706    7.1835   17.4974 H   0  0  0  0  0  0  0  0  0  0  0  0
   51.6840    8.8677   17.9028 H   0  0  0  0  0  0  0  0  0  0  0  0
   49.2720    7.7676   16.3282 H   0  0  0  0  0  0  0  0  0  0  0  0
   49.5904    9.4793   16.6069 H   0  0  0  0  0  0  0  0  0  0  0  0
   50.8135   10.5882   19.1131 H   0  0  0  0  0  0  0  0  0  0  0  0
   52.4588    6.9487   19.4095 H   0  0  0  0  0  0  0  0  0  0  0  0
   51.7429    9.3209   15.3594 H   0  0  0  0  0  0  0  0  0  0  0  0
   51.5129    7.5815   15.1900 H   0  0  0  0  0  0  0  0  0  0  0  0
   46.0163    9.8960   20.1394 H   0  0  0  0  0  0  0  0  0  0  0  0
   48.9724    4.8701   22.2082 H   0  0  0  0  0  0  0  0  0  0  0  0
   50.5955    8.6155   11.8898 H   0  0  0  0  0  0  0  0  0  0  0  0
   51.9611    9.2658   12.8245 H   0  0  0  0  0  0  0  0  0  0  0  0
   51.5825    7.5288   12.8522 H   0  0  0  0  0  0  0  0  0  0  0  0
   50.3372   10.8574   13.9970 H   0  0  0  0  0  0  0  0  0  0  0  0
   49.1077   10.1636   12.9207 H   0  0  0  0  0  0  0  0  0  0  0  0
   48.8335   10.1623   14.6464 H   0  0  0  0  0  0  0  0  0  0  0  0
   53.0456    5.1620   20.9518 H   0  0  0  0  0  0  0  0  0  0  0  0
   49.3851   12.5069   19.6778 H   0  0  0  0  0  0  0  0  0  0  0  0
   51.3044    4.1124   22.3743 H   0  0  0  0  0  0  0  0  0  0  0  0
   46.9820   12.1678   20.1949 H   0  0  0  0  0  0  0  0  0  0  0  0
   49.3087   10.3415   17.8954 H   0  0  0  0  0  0  0  0  0  0  0  0
   50.8383   10.1395   18.6796 H   0  0  0  0  0  0  0  0  0  0  0  0
   52.1344    7.3068   13.7517 H   0  0  0  0  0  0  0  0  0  0  0  0
   47.6739    6.7149   22.2074 H   0  0  0  0  0  0  0  0  0  0  0  0
   53.6205    8.5217   17.8786 H   0  0  0  0  0  0  0  0  0  0  0  0
   49.5306    5.6942   18.2014 H   0  0  0  0  0  0  0  0  0  0  0  0
   55.3147    6.9088   14.7313 H   0  0  0  0  0  0  0  0  0  0  0  0
   47.8704    3.5998   21.0354 H   0  0  0  0  0  0  0  0  0  0  0  0
   47.8535    9.3663   16.6186 H   0  0  0  0  0  0  0  0  0  0  0  0
   49.4229   11.4488   19.9112 H   0  0  0  0  0  0  0  0  0  0  0  0
   49.9987    7.3793   12.6300 H   0  0  0  0  0  0  0  0  0  0  0  0
   47.3188    8.7298   23.4609 H   0  0  0  0  0  0  0  0  0  0  0  0
   48.5709   12.5147   21.9203 H   0  0  0  0  0  0  0  0  0  0  0  0
   46.5345    8.9003   14.6238 H   0  0  0  0  0  0  0  0  0  0  0  0
   47.5131   11.1655   23.7127 H   0  0  0  0  0  0  0  0  0  0  0  0
   47.5984    7.9054   12.6162 H   0  0  0  0  0  0  0  0  0  0  0  0
   49.3039    7.7952   21.8082 H   0  0  0  0  0  0  0  0  0  0  0  0
   50.8788    7.0509   21.5287 H   0  0  0  0  0  0  0  0  0  0  0  0
   51.1531    9.3400   21.0790 H   0  0  0  0  0  0  0  0  0  0  0  0
   51.2366    8.5348   19.5270 H   0  0  0  0  0  0  0  0  0  0  0  0
   47.9159    7.5155   16.3331 H   0  0  0  0  0  0  0  0  0  0  0  0
   48.7938    9.0139   16.3351 H   0  0  0  0  0  0  0  0  0  0  0  0
   50.2442    6.3230   16.4340 H   0  0  0  0  0  0  0  0  0  0  0  0
   49.8406    7.1752   14.9658 H   0  0  0  0  0  0  0  0  0  0  0  0
   46.8724    9.6211   17.6093 H   0  0  0  0  0  0  0  0  0  0  0  0
   47.8771    5.6136   17.2073 H   0  0  0  0  0  0  0  0  0  0  0  0
   52.2014    7.5571   15.8137 H   0  0  0  0  0  0  0  0  0  0  0  0
   51.5257    8.2807   17.2586 H   0  0  0  0  0  0  0  0  0  0  0  0
   49.7784   11.2268   21.2787 H   0  0  0  0  0  0  0  0  0  0  0  0
   49.6363    5.0372   21.7695 H   0  0  0  0  0  0  0  0  0  0  0  0
   52.2891   11.3232   15.5819 H   0  0  0  0  0  0  0  0  0  0  0  0
   53.3412    9.9295   15.9157 H   0  0  0  0  0  0  0  0  0  0  0  0
   52.1742   10.5027   17.1291 H   0  0  0  0  0  0  0  0  0  0  0  0
   50.6595    8.7358   13.6215 H   0  0  0  0  0  0  0  0  0  0  0  0
   52.4218    8.8773   13.7936 H   0  0  0  0  0  0  0  0  0  0  0  0
   51.4055   10.3189   13.5903 H   0  0  0  0  0  0  0  0  0  0  0  0
   47.7746    3.4449   18.2739 H   0  0  0  0  0  0  0  0  0  0  0  0
   46.4319   11.7948   18.6644 H   0  0  0  0  0  0  0  0  0  0  0  0
   48.6433    3.1334   20.5776 H   0  0  0  0  0  0  0  0  0  0  0  0
   47.8863   12.6081   20.5038 H   0  0  0  0  0  0  0  0  0  0  0  0
  2  1  1  0
  3  1  1  0
  4  2  2  0
  5  3  2  0
  6  4  1  0
  7  5  1  0
  8  1  1  0
  9  8  1  0
 10 13  1  0
 11  3  1  0
 12  2  1  0
 13  9  1  0
 14  5  1  0
 15  4  1  0
 16 10  1  0
 17 10  1  0
 18 12  2  0
 19 11  2  0
 20 15  2  0
 21 14  2  0
  6  7  1  0
 18 20  1  0
 19 21  1  0
 23 27  2  0
 24 28  1  0
 25 26  1  0
 26 22  2  0
 27 24  1  0
 28 25  1  0
 29 22  1  0
 30 23  1  0
 31 22  1  0
 32 23  1  0
 33 24  2  0
 34 35  1  0
 35 29  2  0
 36 33  1  0
 37 31  2  0
 38 32  2  0
 39 26  1  0
 40 27  1  0
 41 31  1  0
 42 32  1  0
 43 34  1  0
 44 33  1  0
 45 35  1  0
 46 36  1  0
 47 44  2  0
 48 43  2  0
 49 47  1  0
 50 45  2  0
 25 34  2  0
 48 50  1  0
 30 36  2  0
 46 49  2  0
 52 51  1  0
 53 51  1  0
 54 52  2  0
 55 53  2  0
 56 54  1  0
 57 55  1  0
 58 51  1  0
 59 58  1  0
 60 63  1  0
 61 53  1  0
 62 52  1  0
 63 59  1  0
 64 55  1  0
 65 54  1  0
 66 60  1  0
 67 60  1  0
 68 62  2  0
 69 61  2  0
 70 65  2  0
 71 64  2  0
 56 57  1  0
 68 70  1  0
 69 71  1  0
  6 72  1  0
  6 73  1  0
  7 74  1  0
  7 75  1  0
  8 76  1  0
  8 77  1  0
  9 78  1  0
  9 79  1  0
 11 80  1  0
 12 81  1  0
 13 82  1  0
 13 83  1  0
 14 84  1  0
 15 85  1  0
 16 86  1  0
 16 87  1  0
 16 88  1  0
 17 89  1  0
 17 90  1  0
 17 91  1  0
 18 92  1  0
 19 93  1  0
 20 94  1  0
 21 95  1  0
 28 96  1  0
 28 97  1  0
 29 98  1  0
 30 99  1  0
 39100  1  0
 40101  1  0
 41102  1  0
 42103  1  0
 43104  1  0
 44105  1  0
 45106  1  0
 46107  1  0
 47108  1  0
 48109  1  0
 49110  1  0
 50111  1  0
 56112  1  0
 56113  1  0
 57114  1  0
 57115  1  0
 58116  1  0
 58117  1  0
 59118  1  0
 59119  1  0
 61120  1  0
 62121  1  0
 63122  1  0
 63123  1  0
 64124  1  0
 65125  1  0
 66126  1  0
 66127  1  0
 66128  1  0
 67129  1  0
 67130  1  0
 67131  1  0
 68132  1  0
 69133  1  0
 70134  1  0
 71135  1  0
M  END
> <Uni-Dock RESULT> 
ENERGY=   -6.233  LOWER_BOUND=    1.614  UPPER_BOUND=    2.804
INTER + INTRA:          -6.233
INTER:                  -6.233
INTRA:                   0.000
UNBOUND:                 0.000

$$$$

     RDKit          3D

135142  0  0  0  0  0  0  0  0999 V2000
   50.6729    9.8669   12.0492 N   0  0  0  0  0  0  0  0  0  0  0  0
   50.1962   11.0630   11.4532 C   0  0  0  0  0  0  0  0  0  0  0  0
   49.8186    8.8866   12.6045 C   0  0  0  0  0  0  0  0  0  0  0  0
   49.1998   11.8718   12.0487 C   0  0  0  0  0  0  0  0  0  0  0  0
   49.0493    9.1980   13.7376 C   0  0  0  0  0  0  0  0  0  0  0  0
   48.5281   11.6094   13.3840 C   0  0  0  0  0  0  0  0  0  0  0  0
   49.1477   10.5799   14.3228 C   0  0  0  0  0  0  0  0  0  0  0  0
   52.0507    9.4339   11.7300 C   0  0  0  0  0  0  0  0  0  0  0  0
   52.7789    8.8601   12.9574 C   0  0  0  0  0  0  0  0  0  0  0  0
   55.0382    8.1197   13.7760 N   0  0  0  0  0  0  0  0  0  0  0  0
   49.7119    7.5968   12.0602 C   0  0  0  0  0  0  0  0  0  0  0  0
   50.6867   11.4689   10.1896 C   0  0  0  0  0  0  0  0  0  0  0  0
   54.2348    8.5224   12.6088 C   0  0  0  0  0  0  0  0  0  0  0  0
   48.2071    8.2337   14.3118 C   0  0  0  0  0  0  0  0  0  0  0  0
   48.7499   13.0329   11.3746 C   0  0  0  0  0  0  0  0  0  0  0  0
   56.4525    8.0236   13.4046 C   0  0  0  0  0  0  0  0  0  0  0  0
   54.5910    6.8480   14.3478 C   0  0  0  0  0  0  0  0  0  0  0  0
   50.2375   12.6237    9.5437 C   0  0  0  0  0  0  0  0  0  0  0  0
   48.8704    6.6395   12.6324 C   0  0  0  0  0  0  0  0  0  0  0  0
   49.2665   13.4095   10.1393 C   0  0  0  0  0  0  0  0  0  0  0  0
   48.1202    6.9577   13.7599 C   0  0  0  0  0  0  0  0  0  0  0  0
   54.4838    9.0751   11.0170 C   0  0  0  0  0  0  0  0  0  0  0  0
   49.2062   11.5869   12.8568 C   0  0  0  0  0  0  0  0  0  0  0  0
   49.9279    9.2710   12.4800 C   0  0  0  0  0  0  0  0  0  0  0  0
   52.4697    8.5085   12.2872 C   0  0  0  0  0  0  0  0  0  0  0  0
   53.1183    8.7643   11.0602 C   0  0  0  0  0  0  0  0  0  0  0  0
   50.2281   10.6360   12.6825 C   0  0  0  0  0  0  0  0  0  0  0  0
   50.9850    8.1796   12.2799 C   0  0  0  0  0  0  0  0  0  0  0  0
   55.2159    9.1211   12.2069 C   0  0  0  0  0  0  0  0  0  0  0  0
   47.8700   11.1836   12.8261 C   0  0  0  0  0  0  0  0  0  0  0  0
   55.1355    9.3515    9.7164 C   0  0  0  0  0  0  0  0  0  0  0  0
   49.5482   13.0144   13.0717 C   0  0  0  0  0  0  0  0  0  0  0  0
   48.5451    8.8693   12.4492 C   0  0  0  0  0  0  0  0  0  0  0  0
   53.2177    8.5745   13.5043 C   0  0  0  0  0  0  0  0  0  0  0  0
   54.6030    8.8760   13.4433 C   0  0  0  0  0  0  0  0  0  0  0  0
   47.5290    9.8443   12.6235 C   0  0  0  0  0  0  0  0  0  0  0  0
   54.5589    9.3447    8.6408 O   0  0  0  0  0  0  0  0  0  0  0  0
   50.6858   13.4529   13.1220 O   0  0  0  0  0  0  0  0  0  0  0  0
   52.3586    8.6920    9.9152 O   0  0  0  0  0  0  0  0  0  0  0  0
   51.5415   11.0288   12.7044 O   0  0  0  0  0  0  0  0  0  0  0  0
   56.4495    9.6175    9.8064 O   0  0  0  0  0  0  0  0  0  0  0  0
   48.4817   13.8196   13.2142 O   0  0  0  0  0  0  0  0  0  0  0  0
   52.6591    8.3705   14.7891 C   0  0  0  0  0  0  0  0  0  0  0  0
   48.1093    7.5349   12.2466 C   0  0  0  0  0  0  0  0  0  0  0  0
   55.3665    8.9412   14.6211 C   0  0  0  0  0  0  0  0  0  0  0  0
   46.1719    9.4798   12.5917 C   0  0  0  0  0  0  0  0  0  0  0  0
   46.7563    7.1841   12.2167 C   0  0  0  0  0  0  0  0  0  0  0  0
   53.4304    8.4410   15.9524 C   0  0  0  0  0  0  0  0  0  0  0  0
   45.7862    8.1584   12.3891 C   0  0  0  0  0  0  0  0  0  0  0  0
   54.7858    8.7229   15.8677 C   0  0  0  0  0  0  0  0  0  0  0  0
   50.9151    9.8477   13.3816 N   0  0  0  0  0  0  0  0  0  0  0  0
   50.5792   11.2124   13.1843 C   0  0  0  0  0  0  0  0  0  0  0  0
   49.9813    8.7783   13.3496 C   0  0  0  0  0  0  0  0  0  0  0  0
   49.6414   11.6509   12.2187 C   0  0  0  0  0  0  0  0  0  0  0  0
   49.2527    8.5006   12.1827 C   0  0  0  0  0  0  0  0  0  0  0  0
   48.8924   10.7662   11.2409 C   0  0  0  0  0  0  0  0  0  0  0  0
   49.4396    9.3715   10.9740 C   0  0  0  0  0  0  0  0  0  0  0  0
   52.2083    9.4867   14.0165 C   0  0  0  0  0  0  0  0  0  0  0  0
   53.4222    9.9232   13.1804 C   0  0  0  0  0  0  0  0  0  0  0  0
   53.9189    7.6704   12.1765 N   0  0  0  0  0  0  0  0  0  0  0  0
   49.7549    7.9683   14.4773 C   0  0  0  0  0  0  0  0  0  0  0  0
   51.1654   12.2140   13.9963 C   0  0  0  0  0  0  0  0  0  0  0  0
   53.6139    9.0871   11.9079 C   0  0  0  0  0  0  0  0  0  0  0  0
   48.3477    7.4260   12.1473 C   0  0  0  0  0  0  0  0  0  0  0  0
   49.3282   13.0303   12.1175 C   0  0  0  0  0  0  0  0  0  0  0  0
   53.6518    6.8641   10.9823 C   0  0  0  0  0  0  0  0  0  0  0  0
   55.3070    7.4808   12.6018 C   0  0  0  0  0  0  0  0  0  0  0  0
   50.8566   13.5722   13.8722 C   0  0  0  0  0  0  0  0  0  0  0  0
   48.8521    6.9026   14.4406 C   0  0  0  0  0  0  0  0  0  0  0  0
   49.9322   13.9823   12.9300 C   0  0  0  0  0  0  0  0  0  0  0  0
   48.1517    6.6285   13.2721 C   0  0  0  0  0  0  0  0  0  0  0  0
   48.5018   12.5607   13.9340 H   0  0  0  0  0  0  0  0  0  0  0  0
   47.4846   11.3310   13.1798 H   0  0  0  0  0  0  0  0  0  0  0  0
   48.6181   10.6128   15.2833 H   0  0  0  0  0  0  0  0  0  0  0  0
   50.1943   10.8205   14.5469 H   0  0  0  0  0  0  0  0  0  0  0  0
   52.6497   10.2941   11.4042 H   0  0  0  0  0  0  0  0  0  0  0  0
   52.0546    8.7157   10.9005 H   0  0  0  0  0  0  0  0  0  0  0  0
   52.7508    9.5938   13.7730 H   0  0  0  0  0  0  0  0  0  0  0  0
   52.2654    7.9621   13.3139 H   0  0  0  0  0  0  0  0  0  0  0  0
   50.2669    7.3313   11.1656 H   0  0  0  0  0  0  0  0  0  0  0  0
   51.4136   10.8605    9.6588 H   0  0  0  0  0  0  0  0  0  0  0  0
   54.2598    7.7444   11.8341 H   0  0  0  0  0  0  0  0  0  0  0  0
   54.6878    9.4210   12.1699 H   0  0  0  0  0  0  0  0  0  0  0  0
   47.6130    8.4754   15.1898 H   0  0  0  0  0  0  0  0  0  0  0  0
   47.9787   13.6553   11.8264 H   0  0  0  0  0  0  0  0  0  0  0  0
   57.0655    7.7780   14.2792 H   0  0  0  0  0  0  0  0  0  0  0  0
   56.6269    7.2629   12.6350 H   0  0  0  0  0  0  0  0  0  0  0  0
   56.8197    8.9858   13.0295 H   0  0  0  0  0  0  0  0  0  0  0  0
   54.6049    6.0368   13.6112 H   0  0  0  0  0  0  0  0  0  0  0  0
   55.2329    6.5578   15.1877 H   0  0  0  0  0  0  0  0  0  0  0  0
   53.5803    6.9302   14.7592 H   0  0  0  0  0  0  0  0  0  0  0  0
   50.6391   12.8934    8.5712 H   0  0  0  0  0  0  0  0  0  0  0  0
   48.7969    5.6496   12.1910 H   0  0  0  0  0  0  0  0  0  0  0  0
   48.9038   14.3056    9.6444 H   0  0  0  0  0  0  0  0  0  0  0  0
   47.4632    6.2159   14.2054 H   0  0  0  0  0  0  0  0  0  0  0  0
   50.8193    7.4010   13.0359 H   0  0  0  0  0  0  0  0  0  0  0  0
   50.7594    7.6788   11.3287 H   0  0  0  0  0  0  0  0  0  0  0  0
   56.2774    9.3591   12.1754 H   0  0  0  0  0  0  0  0  0  0  0  0
   47.0815   11.9220   12.9579 H   0  0  0  0  0  0  0  0  0  0  0  0
   52.9084    8.9456    9.1431 H   0  0  0  0  0  0  0  0  0  0  0  0
   51.6118   11.9927   12.8660 H   0  0  0  0  0  0  0  0  0  0  0  0
   56.7309    9.7807    8.8817 H   0  0  0  0  0  0  0  0  0  0  0  0
   48.8645   14.7128   13.3431 H   0  0  0  0  0  0  0  0  0  0  0  0
   51.5977    8.1675   14.9081 H   0  0  0  0  0  0  0  0  0  0  0  0
   48.8257    6.7296   12.0995 H   0  0  0  0  0  0  0  0  0  0  0  0
   56.4293    9.1704   14.5766 H   0  0  0  0  0  0  0  0  0  0  0  0
   45.3951   10.2314   12.7228 H   0  0  0  0  0  0  0  0  0  0  0  0
   46.4679    6.1486   12.0544 H   0  0  0  0  0  0  0  0  0  0  0  0
   52.9652    8.2810   16.9215 H   0  0  0  0  0  0  0  0  0  0  0  0
   44.7326    7.8935   12.3641 H   0  0  0  0  0  0  0  0  0  0  0  0
   55.3897    8.7815   16.7691 H   0  0  0  0  0  0  0  0  0  0  0  0
   47.8503   10.6973   11.5824 H   0  0  0  0  0  0  0  0  0  0  0  0
   48.8748   11.2827   10.2709 H   0  0  0  0  0  0  0  0  0  0  0  0
   48.9027    8.9388   10.1201 H   0  0  0  0  0  0  0  0  0  0  0  0
   50.4950    9.4003   10.6821 H   0  0  0  0  0  0  0  0  0  0  0  0
   52.2679    9.9134   15.0250 H   0  0  0  0  0  0  0  0  0  0  0  0
   52.2945    8.4031   14.1681 H   0  0  0  0  0  0  0  0  0  0  0  0
   53.3417   10.9752   12.8866 H   0  0  0  0  0  0  0  0  0  0  0  0
   54.3186    9.8608   13.8077 H   0  0  0  0  0  0  0  0  0  0  0  0
   50.2722    8.1756   15.4102 H   0  0  0  0  0  0  0  0  0  0  0  0
   51.8708   11.9542   14.7792 H   0  0  0  0  0  0  0  0  0  0  0  0
   54.4044    9.5370   11.2925 H   0  0  0  0  0  0  0  0  0  0  0  0
   52.6931    9.1645   11.3195 H   0  0  0  0  0  0  0  0  0  0  0  0
   47.7873    7.2100   11.2412 H   0  0  0  0  0  0  0  0  0  0  0  0
   48.5965   13.3660   11.3841 H   0  0  0  0  0  0  0  0  0  0  0  0
   53.8527    5.8050   11.1782 H   0  0  0  0  0  0  0  0  0  0  0  0
   54.2600    7.1795   10.1267 H   0  0  0  0  0  0  0  0  0  0  0  0
   52.5951    6.9324   10.7009 H   0  0  0  0  0  0  0  0  0  0  0  0
   55.5146    8.0148   13.5337 H   0  0  0  0  0  0  0  0  0  0  0  0
   56.0216    7.8181   11.8427 H   0  0  0  0  0  0  0  0  0  0  0  0
   55.5014    6.4219   12.8082 H   0  0  0  0  0  0  0  0  0  0  0  0
   51.3325   14.2987   14.5250 H   0  0  0  0  0  0  0  0  0  0  0  0
   48.6966    6.2934   15.3265 H   0  0  0  0  0  0  0  0  0  0  0  0
   49.6758   15.0326   12.8292 H   0  0  0  0  0  0  0  0  0  0  0  0
   47.4482    5.8013   13.2385 H   0  0  0  0  0  0  0  0  0  0  0  0
  2  1  1  0
  3  1  1  0
  4  2  2  0
  5  3  2  0
  6  4  1  0
  7  5  1  0
  8  1  1  0
  9  8  1  0
 10 13  1  0
 11  3  1  0
 12  2  1  0
 13  9  1  0
 14  5  1  0
 15  4  1  0
 16 10  1  0
 17 10  1  0
 18 12  2  0
 19 11  2  0
 20 15  2  0
 21 14  2  0
  6  7  1  0
 18 20  1  0
 19 21  1  0
 23 27  2  0
 24 28  1  0
 25 26  1  0
 26 22  2  0
 27 24  1  0
 28 25  1  0
 29 22  1  0
 30 23  1  0
 31 22  1  0
 32 23  1  0
 33 24  2  0
 34 35  1  0
 35 29  2  0
 36 33  1  0
 37 31  2  0
 38 32  2  0
 39 26  1  0
 40 27  1  0
 41 31  1  0
 42 32  1  0
 43 34  1  0
 44 33  1  0
 45 35  1  0
 46 36  1  0
 47 44  2  0
 48 43  2  0
 49 47  1  0
 50 45  2  0
 25 34  2  0
 48 50  1  0
 30 36  2  0
 46 49  2  0
 52 51  1  0
 53 51  1  0
 54 52  2  0
 55 53  2  0
 56 54  1  0
 57 55  1  0
 58 51  1  0
 59 58  1  0
 60 63  1  0
 61 53  1  0
 62 52  1  0
 63 59  1  0
 64 55  1  0
 65 54  1  0
 66 60  1  0
 67 60  1  0
 68 62  2  0
 69 61  2  0
 70 65  2  0
 71 64  2  0
 56 57  1  0
 68 70  1  0
 69 71  1  0
  6 72  1  0
  6 73  1  0
  7 74  1  0
  7 75  1  0
  8 76  1  0
  8 77  1  0
  9 78  1  0
  9 79  1  0
 11 80  1  0
 12 81  1  0
 13 82  1  0
 13 83  1  0
 14 84  1  0
 15 85  1  0
 16 86  1  0
 16 87  1  0
 16 88  1  0
 17 89  1  0
 17 90  1  0
 17 91  1  0
 18 92  1  0
 19 93  1  0
 20 94  1  0
 21 95  1  0
 28 96  1  0
 28 97  1  0
 29 98  1  0
 30 99  1  0
 39100  1  0
 40101  1  0
 41102  1  0
 42103  1  0
 43104  1  0
 44105  1  0
 45106  1  0
 46107  1  0
 47108  1  0
 48109  1  0
 49110  1  0
 50111  1  0
 56112  1  0
 56113  1  0
 57114  1  0
 57115  1  0
 58116  1  0
 58117  1  0
 59118  1  0
 59119  1  0
 61120  1  0
 62121  1  0
 63122  1  0
 63123  1  0
 64124  1  0
 65125  1  0
 66126  1  0
 66127  1  0
 66128  1  0
 67129  1  0
 67130  1  0
 67131  1  0
 68132  1  0
 69133  1  0
 70134  1  0
 71135  1  0
M  END
> <Uni-Dock RESULT> 
ENERGY=   -5.821  LOWER_BOUND=    4.746  UPPER_BOUND=    7.704
INTER + INTRA:          -5.821
INTER:                  -5.821
INTRA:                   0.000
UNBOUND:                 0.000

$$$$

     RDKit          3D

135142  0  0  0  0  0  0  0  0999 V2000
   49.5031    7.5129   16.8248 N   0  0  0  0  0  0  0  0  0  0  0  0
   48.7619    6.9903   17.9161 C   0  0  0  0  0  0  0  0  0  0  0  0
   50.9156    7.5743   16.8089 C   0  0  0  0  0  0  0  0  0  0  0  0
   49.0378    7.3286   19.2619 C   0  0  0  0  0  0  0  0  0  0  0  0
   51.5842    8.4077   17.7206 C   0  0  0  0  0  0  0  0  0  0  0  0
   50.1146    8.2900   19.7300 C   0  0  0  0  0  0  0  0  0  0  0  0
   50.7721    9.2056   18.7032 C   0  0  0  0  0  0  0  0  0  0  0  0
   48.8254    7.6221   15.5147 C   0  0  0  0  0  0  0  0  0  0  0  0
   49.2011    8.9156   14.7718 C   0  0  0  0  0  0  0  0  0  0  0  0
   48.5866   10.3311   12.7865 N   0  0  0  0  0  0  0  0  0  0  0  0
   51.6837    6.8261   15.9025 C   0  0  0  0  0  0  0  0  0  0  0  0
   47.7249    6.0560   17.6850 C   0  0  0  0  0  0  0  0  0  0  0  0
   48.3980    9.0399   13.4700 C   0  0  0  0  0  0  0  0  0  0  0  0
   52.9847    8.4933   17.7101 C   0  0  0  0  0  0  0  0  0  0  0  0
   48.2764    6.7374   20.2991 C   0  0  0  0  0  0  0  0  0  0  0  0
   47.6339   10.4590   11.6804 C   0  0  0  0  0  0  0  0  0  0  0  0
   49.9514   10.5010   12.2840 C   0  0  0  0  0  0  0  0  0  0  0  0
   46.9774    5.4902   18.7212 C   0  0  0  0  0  0  0  0  0  0  0  0
   53.0782    6.9113   15.8963 C   0  0  0  0  0  0  0  0  0  0  0  0
   47.2533    5.8335   20.0331 C   0  0  0  0  0  0  0  0  0  0  0  0
   53.7281    7.7471   16.7986 C   0  0  0  0  0  0  0  0  0  0  0  0
   47.2943    7.7424   13.4657 C   0  0  0  0  0  0  0  0  0  0  0  0
   49.5177    8.0322   19.1683 C   0  0  0  0  0  0  0  0  0  0  0  0
   50.5365    7.5588   16.9856 C   0  0  0  0  0  0  0  0  0  0  0  0
   49.4013    8.1325   14.6485 C   0  0  0  0  0  0  0  0  0  0  0  0
   48.3821    7.2621   14.2068 C   0  0  0  0  0  0  0  0  0  0  0  0
   49.4737    8.0694   17.7627 C   0  0  0  0  0  0  0  0  0  0  0  0
   50.5586    7.5616   15.4532 C   0  0  0  0  0  0  0  0  0  0  0  0
   47.2247    9.1025   13.1503 C   0  0  0  0  0  0  0  0  0  0  0  0
   50.6250    7.4787   19.8138 C   0  0  0  0  0  0  0  0  0  0  0  0
   46.2327    6.8084   13.0260 C   0  0  0  0  0  0  0  0  0  0  0  0
   48.3897    8.5790   19.9619 C   0  0  0  0  0  0  0  0  0  0  0  0
   51.6718    6.9894   17.6647 C   0  0  0  0  0  0  0  0  0  0  0  0
   49.3176    9.5264   14.3399 C   0  0  0  0  0  0  0  0  0  0  0  0
   48.2175    9.9955   13.5761 C   0  0  0  0  0  0  0  0  0  0  0  0
   51.6955    6.9580   19.0831 C   0  0  0  0  0  0  0  0  0  0  0  0
   46.2180    5.6140   13.2760 O   0  0  0  0  0  0  0  0  0  0  0  0
   47.3897    9.0878   19.4825 O   0  0  0  0  0  0  0  0  0  0  0  0
   48.5032    5.9300   14.5291 O   0  0  0  0  0  0  0  0  0  0  0  0
   48.3849    8.6052   17.1246 O   0  0  0  0  0  0  0  0  0  0  0  0
   45.2556    7.3870   12.3078 O   0  0  0  0  0  0  0  0  0  0  0  0
   48.5515    8.4734   21.2918 O   0  0  0  0  0  0  0  0  0  0  0  0
   50.2650   10.4895   14.7632 C   0  0  0  0  0  0  0  0  0  0  0  0
   52.7985    6.4368   17.0037 C   0  0  0  0  0  0  0  0  0  0  0  0
   48.1106   11.3583   13.2505 C   0  0  0  0  0  0  0  0  0  0  0  0
   52.7886    6.4026   19.7703 C   0  0  0  0  0  0  0  0  0  0  0  0
   53.8802    5.8868   17.6980 C   0  0  0  0  0  0  0  0  0  0  0  0
   50.1444   11.8423   14.4340 C   0  0  0  0  0  0  0  0  0  0  0  0
   53.8749    5.8694   19.0835 C   0  0  0  0  0  0  0  0  0  0  0  0
   49.0683   12.2761   13.6740 C   0  0  0  0  0  0  0  0  0  0  0  0
   49.8368    8.8255   16.8253 N   0  0  0  0  0  0  0  0  0  0  0  0
   49.0317    8.7474   17.9914 C   0  0  0  0  0  0  0  0  0  0  0  0
   51.1527    8.3019   16.7216 C   0  0  0  0  0  0  0  0  0  0  0  0
   48.9740    7.6022   18.8216 C   0  0  0  0  0  0  0  0  0  0  0  0
   51.3888    6.9270   16.8750 C   0  0  0  0  0  0  0  0  0  0  0  0
   49.7108    6.2973   18.5888 C   0  0  0  0  0  0  0  0  0  0  0  0
   50.2394    6.0139   17.1902 C   0  0  0  0  0  0  0  0  0  0  0  0
   49.5004    9.7998   15.7560 C   0  0  0  0  0  0  0  0  0  0  0  0
   48.1396    9.5147   15.1001 C   0  0  0  0  0  0  0  0  0  0  0  0
   49.0336    8.3939   13.0326 N   0  0  0  0  0  0  0  0  0  0  0  0
   52.2560    9.1364   16.4657 C   0  0  0  0  0  0  0  0  0  0  0  0
   48.2573    9.8617   18.3974 C   0  0  0  0  0  0  0  0  0  0  0  0
   48.1478    8.2690   14.2040 C   0  0  0  0  0  0  0  0  0  0  0  0
   52.6892    6.4095   16.7471 C   0  0  0  0  0  0  0  0  0  0  0  0
   48.1786    7.6233   19.9955 C   0  0  0  0  0  0  0  0  0  0  0  0
   49.3368    7.0674   12.4886 C   0  0  0  0  0  0  0  0  0  0  0  0
   48.4446    9.2346   11.9886 C   0  0  0  0  0  0  0  0  0  0  0  0
   47.4657    9.8597   19.5501 C   0  0  0  0  0  0  0  0  0  0  0  0
   53.5482    8.6198   16.3423 C   0  0  0  0  0  0  0  0  0  0  0  0
   47.4276    8.7362   20.3542 C   0  0  0  0  0  0  0  0  0  0  0  0
   53.7636    7.2537   16.4783 C   0  0  0  0  0  0  0  0  0  0  0  0
   49.6666    8.9431   20.4923 H   0  0  0  0  0  0  0  0  0  0  0  0
   50.8901    7.6970   20.2350 H   0  0  0  0  0  0  0  0  0  0  0  0
   51.4222    9.9170   19.2281 H   0  0  0  0  0  0  0  0  0  0  0  0
   50.0279    9.8120   18.1721 H   0  0  0  0  0  0  0  0  0  0  0  0
   47.7377    7.6658   15.6560 H   0  0  0  0  0  0  0  0  0  0  0  0
   49.0268    6.7405   14.8934 H   0  0  0  0  0  0  0  0  0  0  0  0
   48.9994    9.7786   15.4189 H   0  0  0  0  0  0  0  0  0  0  0  0
   50.2722    8.9237   14.5484 H   0  0  0  0  0  0  0  0  0  0  0  0
   51.2023    6.1470   15.2055 H   0  0  0  0  0  0  0  0  0  0  0  0
   47.5022    5.7171   16.6771 H   0  0  0  0  0  0  0  0  0  0  0  0
   48.6469    8.2065   12.7995 H   0  0  0  0  0  0  0  0  0  0  0  0
   47.3352    8.9349   13.7246 H   0  0  0  0  0  0  0  0  0  0  0  0
   53.5013    9.1398   18.4154 H   0  0  0  0  0  0  0  0  0  0  0  0
   48.4892    6.9901   21.3369 H   0  0  0  0  0  0  0  0  0  0  0  0
   47.7295   11.4394   11.2000 H   0  0  0  0  0  0  0  0  0  0  0  0
   47.7789    9.6845   10.9185 H   0  0  0  0  0  0  0  0  0  0  0  0
   46.6036   10.3937   12.0484 H   0  0  0  0  0  0  0  0  0  0  0  0
   50.2439    9.6936   11.6031 H   0  0  0  0  0  0  0  0  0  0  0  0
   50.0474   11.4520   11.7473 H   0  0  0  0  0  0  0  0  0  0  0  0
   50.6746   10.5467   13.1040 H   0  0  0  0  0  0  0  0  0  0  0  0
   46.1937    4.7724   18.4966 H   0  0  0  0  0  0  0  0  0  0  0  0
   53.6541    6.3181   15.1915 H   0  0  0  0  0  0  0  0  0  0  0  0
   46.6843    5.3953   20.8478 H   0  0  0  0  0  0  0  0  0  0  0  0
   54.8126    7.8134   16.7974 H   0  0  0  0  0  0  0  0  0  0  0  0
   51.4702    8.0783   15.1258 H   0  0  0  0  0  0  0  0  0  0  0  0
   50.7101    6.5234   15.1282 H   0  0  0  0  0  0  0  0  0  0  0  0
   46.3824    9.4772   12.5719 H   0  0  0  0  0  0  0  0  0  0  0  0
   50.6548    7.4483   20.9012 H   0  0  0  0  0  0  0  0  0  0  0  0
   47.7086    5.4460   14.2172 H   0  0  0  0  0  0  0  0  0  0  0  0
   47.7299    8.9343   17.7749 H   0  0  0  0  0  0  0  0  0  0  0  0
   44.6380    6.6549   12.0989 H   0  0  0  0  0  0  0  0  0  0  0  0
   47.7378    8.8685   21.6697 H   0  0  0  0  0  0  0  0  0  0  0  0
   51.1140   10.2015   15.3781 H   0  0  0  0  0  0  0  0  0  0  0  0
   52.8549    6.4175   15.9175 H   0  0  0  0  0  0  0  0  0  0  0  0
   47.2690   11.7200   12.6633 H   0  0  0  0  0  0  0  0  0  0  0  0
   52.8017    6.3777   20.8587 H   0  0  0  0  0  0  0  0  0  0  0  0
   54.7214    5.4704   17.1495 H   0  0  0  0  0  0  0  0  0  0  0  0
   50.8908   12.5528   14.7796 H   0  0  0  0  0  0  0  0  0  0  0  0
   54.7109    5.4408   19.6296 H   0  0  0  0  0  0  0  0  0  0  0  0
   48.9682   13.3272   13.4173 H   0  0  0  0  0  0  0  0  0  0  0  0
   50.5336    6.2432   19.3149 H   0  0  0  0  0  0  0  0  0  0  0  0
   49.0200    5.4774   18.8305 H   0  0  0  0  0  0  0  0  0  0  0  0
   50.5737    4.9695   17.1437 H   0  0  0  0  0  0  0  0  0  0  0  0
   49.4536    6.1119   16.4334 H   0  0  0  0  0  0  0  0  0  0  0  0
   49.5246   10.8218   16.1527 H   0  0  0  0  0  0  0  0  0  0  0  0
   50.2511    9.7949   14.9553 H   0  0  0  0  0  0  0  0  0  0  0  0
   47.3568    9.3849   15.8550 H   0  0  0  0  0  0  0  0  0  0  0  0
   47.8426   10.3935   14.5165 H   0  0  0  0  0  0  0  0  0  0  0  0
   52.1183   10.2108   16.3783 H   0  0  0  0  0  0  0  0  0  0  0  0
   48.2722   10.7869   17.8299 H   0  0  0  0  0  0  0  0  0  0  0  0
   47.1217    8.0445   13.8834 H   0  0  0  0  0  0  0  0  0  0  0  0
   48.4634    7.4202   14.8204 H   0  0  0  0  0  0  0  0  0  0  0  0
   52.8694    5.3436   16.8621 H   0  0  0  0  0  0  0  0  0  0  0  0
   48.1451    6.7471   20.6414 H   0  0  0  0  0  0  0  0  0  0  0  0
   50.0142    7.1470   11.6312 H   0  0  0  0  0  0  0  0  0  0  0  0
   48.4332    6.5363   12.1679 H   0  0  0  0  0  0  0  0  0  0  0  0
   49.8529    6.4544   13.2358 H   0  0  0  0  0  0  0  0  0  0  0  0
   48.2744   10.2541   12.3468 H   0  0  0  0  0  0  0  0  0  0  0  0
   47.4932    8.8329   11.6223 H   0  0  0  0  0  0  0  0  0  0  0  0
   49.1297    9.3217   11.1373 H   0  0  0  0  0  0  0  0  0  0  0  0
   46.8948   10.7445   19.8179 H   0  0  0  0  0  0  0  0  0  0  0  0
   54.3821    9.2874   16.1446 H   0  0  0  0  0  0  0  0  0  0  0  0
   46.8248    8.7240   21.2573 H   0  0  0  0  0  0  0  0  0  0  0  0
   54.7666    6.8471   16.3837 H   0  0  0  0  0  0  0  0  0  0  0  0
  2  1  1  0
  3  1  1  0
  4  2  2  0
  5  3  2  0
  6  4  1  0
  7  5  1  0
  8  1  1  0
  9  8  1  0
 10 13  1  0
 11  3  1  0
 12  2  1  0
 13  9  1  0
 14  5  1  0
 15  4  1  0
 16 10  1  0
 17 10  1  0
 18 12  2  0
 19 11  2  0
 20 15  2  0
 21 14  2  0
  6  7  1  0
 18 20  1  0
 19 21  1  0
 23 27  2  0
 24 28  1  0
 25 26  1  0
 26 22  2  0
 27 24  1  0
 28 25  1  0
 29 22  1  0
 30 23  1  0
 31 22  1  0
 32 23  1  0
 33 24  2  0
 34 35  1  0
 35 29  2  0
 36 33  1  0
 37 31  2  0
 38 32  2  0
 39 26  1  0
 40 27  1  0
 41 31  1  0
 42 32  1  0
 43 34  1  0
 44 33  1  0
 45 35  1  0
 46 36  1  0
 47 44  2  0
 48 43  2  0
 49 47  1  0
 50 45  2  0
 25 34  2  0
 48 50  1  0
 30 36  2  0
 46 49  2  0
 52 51  1  0
 53 51  1  0
 54 52  2  0
 55 53  2  0
 56 54  1  0
 57 55  1  0
 58 51  1  0
 59 58  1  0
 60 63  1  0
 61 53  1  0
 62 52  1  0
 63 59  1  0
 64 55  1  0
 65 54  1  0
 66 60  1  0
 67 60  1  0
 68 62  2  0
 69 61  2  0
 70 65  2  0
 71 64  2  0
 56 57  1  0
 68 70  1  0
 69 71  1  0
  6 72  1  0
  6 73  1  0
  7 74  1  0
  7 75  1  0
  8 76  1  0
  8 77  1  0
  9 78  1  0
  9 79  1  0
 11 80  1  0
 12 81  1  0
 13 82  1  0
 13 83  1  0
 14 84  1  0
 15 85  1  0
 16 86  1  0
 16 87  1  0
 16 88  1  0
 17 89  1  0
 17 90  1  0
 17 91  1  0
 18 92  1  0
 19 93  1  0
 20 94  1  0
 21 95  1  0
 28 96  1  0
 28 97  1  0
 29 98  1  0
 30 99  1  0
 39100  1  0
 40101  1  0
 41102  1  0
 42103  1  0
 43104  1  0
 44105  1  0
 45106  1  0
 46107  1  0
 47108  1  0
 48109  1  0
 49110  1  0
 50111  1  0
 56112  1  0
 56113  1  0
 57114  1  0
 57115  1  0
 58116  1  0
 58117  1  0
 59118  1  0
 59119  1  0
 61120  1  0
 62121  1  0
 63122  1  0
 63123  1  0
 64124  1  0
 65125  1  0
 66126  1  0
 66127  1  0
 66128  1  0
 67129  1  0
 67130  1  0
 67131  1  0
 68132  1  0
 69133  1  0
 70134  1  0
 71135  1  0
M  END
> <Uni-Dock RESULT> 
ENERGY=   -5.693  LOWER_BOUND=    2.139  UPPER_BOUND=    4.797
INTER + INTRA:          -5.693
INTER:                  -5.693
INTRA:                   0.000
UNBOUND:                 0.000

$$$$

     RDKit          3D

135142  0  0  0  0  0  0  0  0999 V2000
   50.0502    8.7787   19.3302 N   0  0  0  0  0  0  0  0  0  0  0  0
   50.5815    7.6805   18.6056 C   0  0  0  0  0  0  0  0  0  0  0  0
   49.1838    8.6274   20.4372 C   0  0  0  0  0  0  0  0  0  0  0  0
   49.7916    6.5831   18.1889 C   0  0  0  0  0  0  0  0  0  0  0  0
   47.9060    8.0759   20.2480 C   0  0  0  0  0  0  0  0  0  0  0  0
   48.2999    6.4275   18.4207 C   0  0  0  0  0  0  0  0  0  0  0  0
   47.4993    7.6468   18.8652 C   0  0  0  0  0  0  0  0  0  0  0  0
   50.7227   10.0891   19.1956 C   0  0  0  0  0  0  0  0  0  0  0  0
   49.7195   11.2535   19.1314 C   0  0  0  0  0  0  0  0  0  0  0  0
   49.5427   13.7156   18.6523 N   0  0  0  0  0  0  0  0  0  0  0  0
   49.5571    9.0155   21.7338 C   0  0  0  0  0  0  0  0  0  0  0  0
   51.9640    7.6300   18.3090 C   0  0  0  0  0  0  0  0  0  0  0  0
   50.4513   12.5800   18.8862 C   0  0  0  0  0  0  0  0  0  0  0  0
   47.0266    7.9317   21.3319 C   0  0  0  0  0  0  0  0  0  0  0  0
   50.4020    5.5068   17.5004 C   0  0  0  0  0  0  0  0  0  0  0  0
   50.3050   14.8888   18.2167 C   0  0  0  0  0  0  0  0  0  0  0  0
   48.7551   14.0523   19.8399 C   0  0  0  0  0  0  0  0  0  0  0  0
   52.5471    6.5636   17.6197 C   0  0  0  0  0  0  0  0  0  0  0  0
   48.6803    8.8682   22.8117 C   0  0  0  0  0  0  0  0  0  0  0  0
   51.7627    5.4987   17.2126 C   0  0  0  0  0  0  0  0  0  0  0  0
   47.4141    8.3287   22.6096 C   0  0  0  0  0  0  0  0  0  0  0  0
   52.0877   12.1811   18.6324 C   0  0  0  0  0  0  0  0  0  0  0  0
   48.9998    6.9013   18.2653 C   0  0  0  0  0  0  0  0  0  0  0  0
   49.3682    8.5142   20.0789 C   0  0  0  0  0  0  0  0  0  0  0  0
   50.2351   11.0032   19.7145 C   0  0  0  0  0  0  0  0  0  0  0  0
   51.6163   11.1661   19.4753 C   0  0  0  0  0  0  0  0  0  0  0  0
   49.3839    8.1806   18.7068 C   0  0  0  0  0  0  0  0  0  0  0  0
   49.7749    9.8833   20.6347 C   0  0  0  0  0  0  0  0  0  0  0  0
   51.1757   13.0518   18.0288 C   0  0  0  0  0  0  0  0  0  0  0  0
   48.5992    5.9380   19.1930 C   0  0  0  0  0  0  0  0  0  0  0  0
   53.5418   12.3208   18.3894 C   0  0  0  0  0  0  0  0  0  0  0  0
   49.0213    6.5772   16.8177 C   0  0  0  0  0  0  0  0  0  0  0  0
   48.9541    7.5102   21.0250 C   0  0  0  0  0  0  0  0  0  0  0  0
   49.3037   11.8842   19.0808 C   0  0  0  0  0  0  0  0  0  0  0  0
   49.7970   12.9164   18.2414 C   0  0  0  0  0  0  0  0  0  0  0  0
   48.5739    6.2247   20.5598 C   0  0  0  0  0  0  0  0  0  0  0  0
   54.3942   11.5906   18.8683 O   0  0  0  0  0  0  0  0  0  0  0  0
   49.3477    7.3583   15.9390 O   0  0  0  0  0  0  0  0  0  0  0  0
   52.4751   10.2941   20.1043 O   0  0  0  0  0  0  0  0  0  0  0  0
   49.7851    9.1273   17.7998 O   0  0  0  0  0  0  0  0  0  0  0  0
   53.8673   13.3422   17.5794 O   0  0  0  0  0  0  0  0  0  0  0  0
   48.6416    5.3205   16.5302 O   0  0  0  0  0  0  0  0  0  0  0  0
   47.8985   11.7870   19.2240 C   0  0  0  0  0  0  0  0  0  0  0  0
   48.9013    7.7134   22.4277 C   0  0  0  0  0  0  0  0  0  0  0  0
   48.9076   13.8024   17.6102 C   0  0  0  0  0  0  0  0  0  0  0  0
   48.1716    5.2252   21.4625 C   0  0  0  0  0  0  0  0  0  0  0  0
   48.4995    6.7114   23.3161 C   0  0  0  0  0  0  0  0  0  0  0  0
   47.0256   12.6738   18.5879 C   0  0  0  0  0  0  0  0  0  0  0  0
   48.1346    5.4652   22.8325 C   0  0  0  0  0  0  0  0  0  0  0  0
   47.5309   13.6844   17.7835 C   0  0  0  0  0  0  0  0  0  0  0  0
   48.8523    9.2918   18.9613 N   0  0  0  0  0  0  0  0  0  0  0  0
   49.0606    8.3246   17.9438 C   0  0  0  0  0  0  0  0  0  0  0  0
   48.5135    8.9831   20.3053 C   0  0  0  0  0  0  0  0  0  0  0  0
   49.7409    7.1021   18.1602 C   0  0  0  0  0  0  0  0  0  0  0  0
   49.3842    8.2285   21.1065 C   0  0  0  0  0  0  0  0  0  0  0  0
   50.3725    6.6549   19.4644 C   0  0  0  0  0  0  0  0  0  0  0  0
   50.6657    7.7137   20.5174 C   0  0  0  0  0  0  0  0  0  0  0  0
   48.5983   10.7089   18.5963 C   0  0  0  0  0  0  0  0  0  0  0  0
   49.7905   11.3589   17.8755 C   0  0  0  0  0  0  0  0  0  0  0  0
   50.6946   12.6100   19.8621 N   0  0  0  0  0  0  0  0  0  0  0  0
   47.3026    9.4177   20.8748 C   0  0  0  0  0  0  0  0  0  0  0  0
   48.5489    8.5409   16.6409 C   0  0  0  0  0  0  0  0  0  0  0  0
   50.9843   11.6291   18.8009 C   0  0  0  0  0  0  0  0  0  0  0  0
   49.0565    7.9462   22.4437 C   0  0  0  0  0  0  0  0  0  0  0  0
   49.8656    6.1688   17.0998 C   0  0  0  0  0  0  0  0  0  0  0  0
   51.6813   12.4908   20.9391 C   0  0  0  0  0  0  0  0  0  0  0  0
   50.6831   13.9818   19.3506 C   0  0  0  0  0  0  0  0  0  0  0  0
   48.6949    7.6161   15.6022 C   0  0  0  0  0  0  0  0  0  0  0  0
   46.9777    9.1328   22.2033 C   0  0  0  0  0  0  0  0  0  0  0  0
   49.3544    6.4236   15.8330 C   0  0  0  0  0  0  0  0  0  0  0  0
   47.8587    8.4004   22.9898 C   0  0  0  0  0  0  0  0  0  0  0  0
   47.8523    6.0845   17.4773 H   0  0  0  0  0  0  0  0  0  0  0  0
   48.1618    5.6181   19.1513 H   0  0  0  0  0  0  0  0  0  0  0  0
   46.4321    7.3920   18.8564 H   0  0  0  0  0  0  0  0  0  0  0  0
   47.6162    8.4810   18.1623 H   0  0  0  0  0  0  0  0  0  0  0  0
   51.2848   10.1289   18.2536 H   0  0  0  0  0  0  0  0  0  0  0  0
   51.4500   10.2422   20.0027 H   0  0  0  0  0  0  0  0  0  0  0  0
   48.9995   11.0694   18.3240 H   0  0  0  0  0  0  0  0  0  0  0  0
   49.1501   11.3114   20.0640 H   0  0  0  0  0  0  0  0  0  0  0  0
   50.5487    9.4152   21.9227 H   0  0  0  0  0  0  0  0  0  0  0  0
   52.6302    8.4176   18.6496 H   0  0  0  0  0  0  0  0  0  0  0  0
   51.1275   12.7912   19.7253 H   0  0  0  0  0  0  0  0  0  0  0  0
   51.0813   12.4516   17.9963 H   0  0  0  0  0  0  0  0  0  0  0  0
   46.0370    7.5060   21.1841 H   0  0  0  0  0  0  0  0  0  0  0  0
   49.7991    4.6571   17.1831 H   0  0  0  0  0  0  0  0  0  0  0  0
   49.6323   15.7230   17.9874 H   0  0  0  0  0  0  0  0  0  0  0  0
   51.0221   15.2210   18.9763 H   0  0  0  0  0  0  0  0  0  0  0  0
   50.8546   14.6715   17.2937 H   0  0  0  0  0  0  0  0  0  0  0  0
   49.3889   14.2780   20.7050 H   0  0  0  0  0  0  0  0  0  0  0  0
   48.1200   14.9243   19.6451 H   0  0  0  0  0  0  0  0  0  0  0  0
   48.0726   13.2401   20.1084 H   0  0  0  0  0  0  0  0  0  0  0  0
   53.6146    6.5652   17.4188 H   0  0  0  0  0  0  0  0  0  0  0  0
   48.9918    9.1680   23.8083 H   0  0  0  0  0  0  0  0  0  0  0  0
   52.2052    4.6604   16.6824 H   0  0  0  0  0  0  0  0  0  0  0  0
   46.7313    8.2109   23.4464 H   0  0  0  0  0  0  0  0  0  0  0  0
   48.9384   10.2725   21.2297 H   0  0  0  0  0  0  0  0  0  0  0  0
   50.5694    9.7114   21.3734 H   0  0  0  0  0  0  0  0  0  0  0  0
   51.5399   13.8430   17.3763 H   0  0  0  0  0  0  0  0  0  0  0  0
   48.3057    4.9482   18.8488 H   0  0  0  0  0  0  0  0  0  0  0  0
   53.3942   10.4748   19.8122 H   0  0  0  0  0  0  0  0  0  0  0  0
   49.7366    8.7745   16.8870 H   0  0  0  0  0  0  0  0  0  0  0  0
   54.8444   13.3012   17.5130 H   0  0  0  0  0  0  0  0  0  0  0  0
   48.7102    5.2610   15.5542 H   0  0  0  0  0  0  0  0  0  0  0  0
   47.4542   10.9991   19.8270 H   0  0  0  0  0  0  0  0  0  0  0  0
   49.1821    8.6693   22.8646 H   0  0  0  0  0  0  0  0  0  0  0  0
   49.2836   14.5958   16.9676 H   0  0  0  0  0  0  0  0  0  0  0  0
   47.8834    4.2391   21.1019 H   0  0  0  0  0  0  0  0  0  0  0  0
   48.4781    6.9106   24.3845 H   0  0  0  0  0  0  0  0  0  0  0  0
   45.9522   12.5659   18.7198 H   0  0  0  0  0  0  0  0  0  0  0  0
   47.8242    4.6808   23.5174 H   0  0  0  0  0  0  0  0  0  0  0  0
   46.8568   14.3751   17.2844 H   0  0  0  0  0  0  0  0  0  0  0  0
   49.7340    5.8706   19.8940 H   0  0  0  0  0  0  0  0  0  0  0  0
   51.3355    6.1832   19.2232 H   0  0  0  0  0  0  0  0  0  0  0  0
   51.2817    7.2653   21.3074 H   0  0  0  0  0  0  0  0  0  0  0  0
   51.2574    8.5391   20.1070 H   0  0  0  0  0  0  0  0  0  0  0  0
   47.6939   10.7859   17.9810 H   0  0  0  0  0  0  0  0  0  0  0  0
   48.3845   11.3213   19.4817 H   0  0  0  0  0  0  0  0  0  0  0  0
   50.1385   10.7345   17.0457 H   0  0  0  0  0  0  0  0  0  0  0  0
   49.4527   12.2954   17.4173 H   0  0  0  0  0  0  0  0  0  0  0  0
   46.5860    9.9721   20.2747 H   0  0  0  0  0  0  0  0  0  0  0  0
   47.9894    9.4404   16.4044 H   0  0  0  0  0  0  0  0  0  0  0  0
   51.8426   11.9594   18.2008 H   0  0  0  0  0  0  0  0  0  0  0  0
   51.2792   10.6734   19.2479 H   0  0  0  0  0  0  0  0  0  0  0  0
   49.7343    7.3650   23.0639 H   0  0  0  0  0  0  0  0  0  0  0  0
   50.3769    5.2225   17.2701 H   0  0  0  0  0  0  0  0  0  0  0  0
   51.4614   13.1998   21.7449 H   0  0  0  0  0  0  0  0  0  0  0  0
   52.7025   12.6741   20.5856 H   0  0  0  0  0  0  0  0  0  0  0  0
   51.6430   11.4913   21.3864 H   0  0  0  0  0  0  0  0  0  0  0  0
   49.9046   14.1185   18.5944 H   0  0  0  0  0  0  0  0  0  0  0  0
   51.6458   14.2675   18.9122 H   0  0  0  0  0  0  0  0  0  0  0  0
   50.4512   14.6875   20.1568 H   0  0  0  0  0  0  0  0  0  0  0  0
   48.2780    7.8307   14.6221 H   0  0  0  0  0  0  0  0  0  0  0  0
   46.0356    9.4808   22.6174 H   0  0  0  0  0  0  0  0  0  0  0  0
   49.4667    5.6923   15.0381 H   0  0  0  0  0  0  0  0  0  0  0  0
   47.6104    8.1758   24.0234 H   0  0  0  0  0  0  0  0  0  0  0  0
  2  1  1  0
  3  1  1  0
  4  2  2  0
  5  3  2  0
  6  4  1  0
  7  5  1  0
  8  1  1  0
  9  8  1  0
 10 13  1  0
 11  3  1  0
 12  2  1  0
 13  9  1  0
 14  5  1  0
 15  4  1  0
 16 10  1  0
 17 10  1  0
 18 12  2  0
 19 11  2  0
 20 15  2  0
 21 14  2  0
  6  7  1  0
 18 20  1  0
 19 21  1  0
 23 27  2  0
 24 28  1  0
 25 26  1  0
 26 22  2  0
 27 24  1  0
 28 25  1  0
 29 22  1  0
 30 23  1  0
 31 22  1  0
 32 23  1  0
 33 24  2  0
 34 35  1  0
 35 29  2  0
 36 33  1  0
 37 31  2  0
 38 32  2  0
 39 26  1  0
 40 27  1  0
 41 31  1  0
 42 32  1  0
 43 34  1  0
 44 33  1  0
 45 35  1  0
 46 36  1  0
 47 44  2  0
 48 43  2  0
 49 47  1  0
 50 45  2  0
 25 34  2  0
 48 50  1  0
 30 36  2  0
 46 49  2  0
 52 51  1  0
 53 51  1  0
 54 52  2  0
 55 53  2  0
 56 54  1  0
 57 55  1  0
 58 51  1  0
 59 58  1  0
 60 63  1  0
 61 53  1  0
 62 52  1  0
 63 59  1  0
 64 55  1  0
 65 54  1  0
 66 60  1  0
 67 60  1  0
 68 62  2  0
 69 61  2  0
 70 65  2  0
 71 64  2  0
 56 57  1  0
 68 70  1  0
 69 71  1  0
  6 72  1  0
  6 73  1  0
  7 74  1  0
  7 75  1  0
  8 76  1  0
  8 77  1  0
  9 78  1  0
  9 79  1  0
 11 80  1  0
 12 81  1  0
 13 82  1  0
 13 83  1  0
 14 84  1  0
 15 85  1  0
 16 86  1  0
 16 87  1  0
 16 88  1  0
 17 89  1  0
 17 90  1  0
 17 91  1  0
 18 92  1  0
 19 93  1  0
 20 94  1  0
 21 95  1  0
 28 96  1  0
 28 97  1  0
 29 98  1  0
 30 99  1  0
 39100  1  0
 40101  1  0
 41102  1  0
 42103  1  0
 43104  1  0
 44105  1  0
 45106  1  0
 46107  1  0
 47108  1  0
 48109  1  0
 49110  1  0
 50111  1  0
 56112  1  0
 56113  1  0
 57114  1  0
 57115  1  0
 58116  1  0
 58117  1  0
 59118  1  0
 59119  1  0
 61120  1  0
 62121  1  0
 63122  1  0
 63123  1  0
 64124  1  0
 65125  1  0
 66126  1  0
 66127  1  0
 66128  1  0
 67129  1  0
 67130  1  0
 67131  1  0
 68132  1  0
 69133  1  0
 70134  1  0
 71135  1  0
M  END
> <Uni-Dock RESULT> 
ENERGY=   -5.668  LOWER_BOUND=    2.661  UPPER_BOUND=    3.822
INTER + INTRA:          -5.668
INTER:                  -5.668
INTRA:                   0.000
UNBOUND:                 0.000

$$$$

     RDKit          3D

135142  0  0  0  0  0  0  0  0999 V2000
   49.8622    7.7276   16.7011 N   0  0  0  0  0  0  0  0  0  0  0  0
   49.3004    7.8577   15.4046 C   0  0  0  0  0  0  0  0  0  0  0  0
   49.7881    8.7443   17.6809 C   0  0  0  0  0  0  0  0  0  0  0  0
   49.4649    9.0173   14.6109 C   0  0  0  0  0  0  0  0  0  0  0  0
   50.4508    9.9640   17.4668 C   0  0  0  0  0  0  0  0  0  0  0  0
   50.2622   10.2492   14.9981 C   0  0  0  0  0  0  0  0  0  0  0  0
   51.2142   10.1588   16.1858 C   0  0  0  0  0  0  0  0  0  0  0  0
   50.1756    6.3666   17.1879 C   0  0  0  0  0  0  0  0  0  0  0  0
   51.4985    6.3197   17.9715 C   0  0  0  0  0  0  0  0  0  0  0  0
   53.1705    4.7342   18.9781 N   0  0  0  0  0  0  0  0  0  0  0  0
   49.0701    8.5764   18.8756 C   0  0  0  0  0  0  0  0  0  0  0  0
   48.5008    6.8191   14.8718 C   0  0  0  0  0  0  0  0  0  0  0  0
   51.8381    4.8761   18.3662 C   0  0  0  0  0  0  0  0  0  0  0  0
   50.4011   10.9791   18.4342 C   0  0  0  0  0  0  0  0  0  0  0  0
   48.8428    9.0864   13.3407 C   0  0  0  0  0  0  0  0  0  0  0  0
   53.5073    3.3159   19.1278 C   0  0  0  0  0  0  0  0  0  0  0  0
   53.2602    5.4022   20.2780 C   0  0  0  0  0  0  0  0  0  0  0  0
   47.9026    6.9012   13.6117 C   0  0  0  0  0  0  0  0  0  0  0  0
   49.0201    9.5900   19.8359 C   0  0  0  0  0  0  0  0  0  0  0  0
   48.0757    8.0386   12.8426 C   0  0  0  0  0  0  0  0  0  0  0  0
   49.6881   10.7902   19.6158 C   0  0  0  0  0  0  0  0  0  0  0  0
   50.6614    3.8910   17.6269 C   0  0  0  0  0  0  0  0  0  0  0  0
   50.1247    9.4010   15.0002 C   0  0  0  0  0  0  0  0  0  0  0  0
   49.7905    8.5883   17.2924 C   0  0  0  0  0  0  0  0  0  0  0  0
   50.7174    6.2681   18.2074 C   0  0  0  0  0  0  0  0  0  0  0  0
   50.0018    5.1088   17.8394 C   0  0  0  0  0  0  0  0  0  0  0  0
   50.3158    8.4220   15.9922 C   0  0  0  0  0  0  0  0  0  0  0  0
   49.9546    7.5661   18.4224 C   0  0  0  0  0  0  0  0  0  0  0  0
   52.0477    3.8223   17.7932 C   0  0  0  0  0  0  0  0  0  0  0  0
   49.4011   10.5575   15.2966 C   0  0  0  0  0  0  0  0  0  0  0  0
   49.8867    2.6934   17.2290 C   0  0  0  0  0  0  0  0  0  0  0  0
   50.6903    9.2039   13.6429 C   0  0  0  0  0  0  0  0  0  0  0  0
   49.0448    9.7856   17.5837 C   0  0  0  0  0  0  0  0  0  0  0  0
   52.1378    6.1986   18.3587 C   0  0  0  0  0  0  0  0  0  0  0  0
   52.7899    4.9550   18.1543 C   0  0  0  0  0  0  0  0  0  0  0  0
   48.8602   10.7595   16.5684 C   0  0  0  0  0  0  0  0  0  0  0  0
   48.6795    2.6808   17.0507 O   0  0  0  0  0  0  0  0  0  0  0  0
   51.3417    8.2309   13.2998 O   0  0  0  0  0  0  0  0  0  0  0  0
   48.6374    5.2233   17.7032 O   0  0  0  0  0  0  0  0  0  0  0  0
   51.0194    7.2812   15.7034 O   0  0  0  0  0  0  0  0  0  0  0  0
   50.6304    1.5850   17.0747 O   0  0  0  0  0  0  0  0  0  0  0  0
   50.4283   10.2068   12.7875 O   0  0  0  0  0  0  0  0  0  0  0  0
   52.9541    7.3071   18.6897 C   0  0  0  0  0  0  0  0  0  0  0  0
   48.4595   10.0708   18.8438 C   0  0  0  0  0  0  0  0  0  0  0  0
   54.1835    4.8529   18.3024 C   0  0  0  0  0  0  0  0  0  0  0  0
   48.1315   11.9339   16.8247 C   0  0  0  0  0  0  0  0  0  0  0  0
   47.7365   11.2424   19.0870 C   0  0  0  0  0  0  0  0  0  0  0  0
   54.3395    7.1912   18.8311 C   0  0  0  0  0  0  0  0  0  0  0  0
   47.5720   12.1751   18.0756 C   0  0  0  0  0  0  0  0  0  0  0  0
   54.9540    5.9624   18.6408 C   0  0  0  0  0  0  0  0  0  0  0  0
   51.1288    8.1570   16.9146 N   0  0  0  0  0  0  0  0  0  0  0  0
   51.0051    8.3556   15.5148 C   0  0  0  0  0  0  0  0  0  0  0  0
   50.4945    8.9605   17.8987 C   0  0  0  0  0  0  0  0  0  0  0  0
   49.7888    8.7122   14.8843 C   0  0  0  0  0  0  0  0  0  0  0  0
   49.0947    9.0374   17.9648 C   0  0  0  0  0  0  0  0  0  0  0  0
   48.4510    8.8984   15.5740 C   0  0  0  0  0  0  0  0  0  0  0  0
   48.2687    8.2910   16.9573 C   0  0  0  0  0  0  0  0  0  0  0  0
   52.2396    7.3295   17.4507 C   0  0  0  0  0  0  0  0  0  0  0  0
   52.1590    5.8627   16.9976 C   0  0  0  0  0  0  0  0  0  0  0  0
   51.1840    4.9453   19.1277 N   0  0  0  0  0  0  0  0  0  0  0  0
   51.2408    9.7025   18.8324 C   0  0  0  0  0  0  0  0  0  0  0  0
   52.1394    8.2323   14.6756 C   0  0  0  0  0  0  0  0  0  0  0  0
   51.0211    5.0824   17.6693 C   0  0  0  0  0  0  0  0  0  0  0  0
   48.4704    9.8141   18.9558 C   0  0  0  0  0  0  0  0  0  0  0  0
   49.7614    8.9373   13.4844 C   0  0  0  0  0  0  0  0  0  0  0  0
   49.9001    4.6048   19.7465 C   0  0  0  0  0  0  0  0  0  0  0  0
   52.1843    3.9336   19.4736 C   0  0  0  0  0  0  0  0  0  0  0  0
   52.0910    8.4424   13.2940 C   0  0  0  0  0  0  0  0  0  0  0  0
   50.6178   10.4765   19.8144 C   0  0  0  0  0  0  0  0  0  0  0  0
   50.8970    8.7986   12.6957 C   0  0  0  0  0  0  0  0  0  0  0  0
   49.2306   10.5279   19.8788 C   0  0  0  0  0  0  0  0  0  0  0  0
   50.8705   10.5365   14.1289 H   0  0  0  0  0  0  0  0  0  0  0  0
   49.5465   11.0656   15.1695 H   0  0  0  0  0  0  0  0  0  0  0  0
   51.7993   11.0854   16.2418 H   0  0  0  0  0  0  0  0  0  0  0  0
   51.9429    9.3493   16.0547 H   0  0  0  0  0  0  0  0  0  0  0  0
   50.3090    5.6842   16.3385 H   0  0  0  0  0  0  0  0  0  0  0  0
   49.3500    5.9642   17.7881 H   0  0  0  0  0  0  0  0  0  0  0  0
   52.3030    6.7367   17.3525 H   0  0  0  0  0  0  0  0  0  0  0  0
   51.4267    6.9419   18.8687 H   0  0  0  0  0  0  0  0  0  0  0  0
   48.5189    7.6593   19.0602 H   0  0  0  0  0  0  0  0  0  0  0  0
   48.2945    5.9268   15.4562 H   0  0  0  0  0  0  0  0  0  0  0  0
   51.0608    4.4816   19.0342 H   0  0  0  0  0  0  0  0  0  0  0  0
   51.8098    4.2672   17.4530 H   0  0  0  0  0  0  0  0  0  0  0  0
   50.9157   11.9224   18.2682 H   0  0  0  0  0  0  0  0  0  0  0  0
   48.9617    9.9795   12.7288 H   0  0  0  0  0  0  0  0  0  0  0  0
   54.5194    3.1999   19.5317 H   0  0  0  0  0  0  0  0  0  0  0  0
   52.8081    2.7929   19.7904 H   0  0  0  0  0  0  0  0  0  0  0  0
   53.5030    2.8129   18.1540 H   0  0  0  0  0  0  0  0  0  0  0  0
   52.5055    5.0358   20.9832 H   0  0  0  0  0  0  0  0  0  0  0  0
   54.2492    5.2443   20.7235 H   0  0  0  0  0  0  0  0  0  0  0  0
   53.1480    6.4861   20.1771 H   0  0  0  0  0  0  0  0  0  0  0  0
   47.2921    6.0808   13.2456 H   0  0  0  0  0  0  0  0  0  0  0  0
   48.4525    9.4425   20.7504 H   0  0  0  0  0  0  0  0  0  0  0  0
   47.6102    8.1176   11.8646 H   0  0  0  0  0  0  0  0  0  0  0  0
   49.6489   11.5810   20.3599 H   0  0  0  0  0  0  0  0  0  0  0  0
   50.4127    8.0758   19.2801 H   0  0  0  0  0  0  0  0  0  0  0  0
   48.9472    7.3061   18.7745 H   0  0  0  0  0  0  0  0  0  0  0  0
   52.5616    2.8767   17.6318 H   0  0  0  0  0  0  0  0  0  0  0  0
   49.2521   11.3117   14.5262 H   0  0  0  0  0  0  0  0  0  0  0  0
   48.2686    4.3695   17.3905 H   0  0  0  0  0  0  0  0  0  0  0  0
   51.3391    7.2969   14.7773 H   0  0  0  0  0  0  0  0  0  0  0  0
   49.9879    0.8930   16.8113 H   0  0  0  0  0  0  0  0  0  0  0  0
   50.8576    9.9329   11.9499 H   0  0  0  0  0  0  0  0  0  0  0  0
   52.5213    8.2947   18.8281 H   0  0  0  0  0  0  0  0  0  0  0  0
   48.5508    9.3725   19.6729 H   0  0  0  0  0  0  0  0  0  0  0  0
   54.6855    3.9000   18.1480 H   0  0  0  0  0  0  0  0  0  0  0  0
   47.9894   12.6774   16.0421 H   0  0  0  0  0  0  0  0  0  0  0  0
   47.3015   11.4175   20.0678 H   0  0  0  0  0  0  0  0  0  0  0  0
   54.9335    8.0656   19.0836 H   0  0  0  0  0  0  0  0  0  0  0  0
   47.0087   13.0866   18.2566 H   0  0  0  0  0  0  0  0  0  0  0  0
   56.0311    5.8671   18.7469 H   0  0  0  0  0  0  0  0  0  0  0  0
   48.2405    9.9761   15.6108 H   0  0  0  0  0  0  0  0  0  0  0  0
   47.6807    8.4464   14.9335 H   0  0  0  0  0  0  0  0  0  0  0  0
   47.2078    8.3506   17.2323 H   0  0  0  0  0  0  0  0  0  0  0  0
   48.5224    7.2255   16.9677 H   0  0  0  0  0  0  0  0  0  0  0  0
   53.2063    7.7626   17.1672 H   0  0  0  0  0  0  0  0  0  0  0  0
   52.2476    7.3275   18.5483 H   0  0  0  0  0  0  0  0  0  0  0  0
   52.0258    5.7912   15.9129 H   0  0  0  0  0  0  0  0  0  0  0  0
   53.1197    5.3792   17.2084 H   0  0  0  0  0  0  0  0  0  0  0  0
   52.3267    9.6981   18.7893 H   0  0  0  0  0  0  0  0  0  0  0  0
   53.1140    7.9912   15.0882 H   0  0  0  0  0  0  0  0  0  0  0  0
   50.9324    4.0931   17.2011 H   0  0  0  0  0  0  0  0  0  0  0  0
   50.0849    5.6060   17.4470 H   0  0  0  0  0  0  0  0  0  0  0  0
   47.3859    9.8690   19.0078 H   0  0  0  0  0  0  0  0  0  0  0  0
   48.8287    9.2252   13.0015 H   0  0  0  0  0  0  0  0  0  0  0  0
   50.0047    4.5236   20.8341 H   0  0  0  0  0  0  0  0  0  0  0  0
   49.4961    3.6595   19.3660 H   0  0  0  0  0  0  0  0  0  0  0  0
   49.1638    5.3954   19.5640 H   0  0  0  0  0  0  0  0  0  0  0  0
   53.1714    4.2001   19.0847 H   0  0  0  0  0  0  0  0  0  0  0  0
   51.9179    2.9416   19.0920 H   0  0  0  0  0  0  0  0  0  0  0  0
   52.2950    3.8632   20.5619 H   0  0  0  0  0  0  0  0  0  0  0  0
   52.9932    8.3392   12.6975 H   0  0  0  0  0  0  0  0  0  0  0  0
   51.2188   11.0397   20.5227 H   0  0  0  0  0  0  0  0  0  0  0  0
   50.8470    8.9742   11.6253 H   0  0  0  0  0  0  0  0  0  0  0  0
   48.7412   11.1287   20.6403 H   0  0  0  0  0  0  0  0  0  0  0  0
  2  1  1  0
  3  1  1  0
  4  2  2  0
  5  3  2  0
  6  4  1  0
  7  5  1  0
  8  1  1  0
  9  8  1  0
 10 13  1  0
 11  3  1  0
 12  2  1  0
 13  9  1  0
 14  5  1  0
 15  4  1  0
 16 10  1  0
 17 10  1  0
 18 12  2  0
 19 11  2  0
 20 15  2  0
 21 14  2  0
  6  7  1  0
 18 20  1  0
 19 21  1  0
 23 27  2  0
 24 28  1  0
 25 26  1  0
 26 22  2  0
 27 24  1  0
 28 25  1  0
 29 22  1  0
 30 23  1  0
 31 22  1  0
 32 23  1  0
 33 24  2  0
 34 35  1  0
 35 29  2  0
 36 33  1  0
 37 31  2  0
 38 32  2  0
 39 26  1  0
 40 27  1  0
 41 31  1  0
 42 32  1  0
 43 34  1  0
 44 33  1  0
 45 35  1  0
 46 36  1  0
 47 44  2  0
 48 43  2  0
 49 47  1  0
 50 45  2  0
 25 34  2  0
 48 50  1  0
 30 36  2  0
 46 49  2  0
 52 51  1  0
 53 51  1  0
 54 52  2  0
 55 53  2  0
 56 54  1  0
 57 55  1  0
 58 51  1  0
 59 58  1  0
 60 63  1  0
 61 53  1  0
 62 52  1  0
 63 59  1  0
 64 55  1  0
 65 54  1  0
 66 60  1  0
 67 60  1  0
 68 62  2  0
 69 61  2  0
 70 65  2  0
 71 64  2  0
 56 57  1  0
 68 70  1  0
 69 71  1  0
  6 72  1  0
  6 73  1  0
  7 74  1  0
  7 75  1  0
  8 76  1  0
  8 77  1  0
  9 78  1  0
  9 79  1  0
 11 80  1  0
 12 81  1  0
 13 82  1  0
 13 83  1  0
 14 84  1  0
 15 85  1  0
 16 86  1  0
 16 87  1  0
 16 88  1  0
 17 89  1  0
 17 90  1  0
 17 91  1  0
 18 92  1  0
 19 93  1  0
 20 94  1  0
 21 95  1  0
 28 96  1  0
 28 97  1  0
 29 98  1  0
 30 99  1  0
 39100  1  0
 40101  1  0
 41102  1  0
 42103  1  0
 43104  1  0
 44105  1  0
 45106  1  0
 46107  1  0
 47108  1  0
 48109  1  0
 49110  1  0
 50111  1  0
 56112  1  0
 56113  1  0
 57114  1  0
 57115  1  0
 58116  1  0
 58117  1  0
 59118  1  0
 59119  1  0
 61120  1  0
 62121  1  0
 63122  1  0
 63123  1  0
 64124  1  0
 65125  1  0
 66126  1  0
 66127  1  0
 66128  1  0
 67129  1  0
 67130  1  0
 67131  1  0
 68132  1  0
 69133  1  0
 70134  1  0
 71135  1  0
M  END
> <Uni-Dock RESULT> 
ENERGY=   -5.573  LOWER_BOUND=    1.968  UPPER_BOUND=    5.339
INTER + INTRA:          -5.573
INTER:                  -5.573
INTRA:                   0.000
UNBOUND:                 0.000

$$$$

     RDKit          3D

135142  0  0  0  0  0  0  0  0999 V2000
   49.2672   10.7693   12.8573 N   0  0  0  0  0  0  0  0  0  0  0  0
   48.4248    9.6275   12.8568 C   0  0  0  0  0  0  0  0  0  0  0  0
   50.5525   10.7815   12.2683 C   0  0  0  0  0  0  0  0  0  0  0  0
   48.8897    8.3320   13.1840 C   0  0  0  0  0  0  0  0  0  0  0  0
   51.5695    9.9750   12.8051 C   0  0  0  0  0  0  0  0  0  0  0  0
   50.3063    7.9782   13.5979 C   0  0  0  0  0  0  0  0  0  0  0  0
   51.2548    9.1056   13.9911 C   0  0  0  0  0  0  0  0  0  0  0  0
   48.6480   12.0881   13.1121 C   0  0  0  0  0  0  0  0  0  0  0  0
   49.5301   12.9829   13.9995 C   0  0  0  0  0  0  0  0  0  0  0  0
   49.5237   15.1333   15.3028 N   0  0  0  0  0  0  0  0  0  0  0  0
   50.8542   11.5819   11.1550 C   0  0  0  0  0  0  0  0  0  0  0  0
   47.0676    9.7490   12.4758 C   0  0  0  0  0  0  0  0  0  0  0  0
   48.8064   14.2963   14.3255 C   0  0  0  0  0  0  0  0  0  0  0  0
   52.8553    9.9850   12.2435 C   0  0  0  0  0  0  0  0  0  0  0  0
   47.9957    7.2354   13.1258 C   0  0  0  0  0  0  0  0  0  0  0  0
   48.6781   16.2542   15.7222 C   0  0  0  0  0  0  0  0  0  0  0  0
   50.7915   15.6422   14.7757 C   0  0  0  0  0  0  0  0  0  0  0  0
   46.1974    8.6565   12.4336 C   0  0  0  0  0  0  0  0  0  0  0  0
   52.1348   11.5877   10.5962 C   0  0  0  0  0  0  0  0  0  0  0  0
   46.6630    7.3952   12.7614 C   0  0  0  0  0  0  0  0  0  0  0  0
   53.1357   10.7910   11.1426 C   0  0  0  0  0  0  0  0  0  0  0  0
   47.2371   14.1483   13.6798 C   0  0  0  0  0  0  0  0  0  0  0  0
   49.6304    8.5084   13.5771 C   0  0  0  0  0  0  0  0  0  0  0  0
   50.2165   10.6073   12.4469 C   0  0  0  0  0  0  0  0  0  0  0  0
   49.3488   13.0064   13.2027 C   0  0  0  0  0  0  0  0  0  0  0  0
   48.0260   13.3447   12.8461 C   0  0  0  0  0  0  0  0  0  0  0  0
   49.5386    9.9080   13.4695 C   0  0  0  0  0  0  0  0  0  0  0  0
   50.1617   12.1280   12.2645 C   0  0  0  0  0  0  0  0  0  0  0  0
   47.7737   14.6306   14.8772 C   0  0  0  0  0  0  0  0  0  0  0  0
   50.3988    7.7904   12.6589 C   0  0  0  0  0  0  0  0  0  0  0  0
   45.8479   14.4770   13.2865 C   0  0  0  0  0  0  0  0  0  0  0  0
   48.9115    7.7977   14.6630 C   0  0  0  0  0  0  0  0  0  0  0  0
   51.0044    9.8538   11.5057 C   0  0  0  0  0  0  0  0  0  0  0  0
   49.8883   13.4863   14.4370 C   0  0  0  0  0  0  0  0  0  0  0  0
   49.0824   14.3111   15.2640 C   0  0  0  0  0  0  0  0  0  0  0  0
   51.0813    8.4423   11.6292 C   0  0  0  0  0  0  0  0  0  0  0  0
   45.3079   14.0808   12.2664 O   0  0  0  0  0  0  0  0  0  0  0  0
   48.2267    8.3444   15.5122 O   0  0  0  0  0  0  0  0  0  0  0  0
   47.5483   12.8586   11.6507 O   0  0  0  0  0  0  0  0  0  0  0  0
   48.7790   10.6163   14.3646 O   0  0  0  0  0  0  0  0  0  0  0  0
   45.2032   15.2692   14.1594 O   0  0  0  0  0  0  0  0  0  0  0  0
   49.0737    6.4637   14.6482 O   0  0  0  0  0  0  0  0  0  0  0  0
   51.1882   13.1784   14.9061 C   0  0  0  0  0  0  0  0  0  0  0  0
   51.7260   10.4322   10.4304 C   0  0  0  0  0  0  0  0  0  0  0  0
   49.5864   14.8042   16.4794 C   0  0  0  0  0  0  0  0  0  0  0  0
   51.8384    7.6829   10.7205 C   0  0  0  0  0  0  0  0  0  0  0  0
   52.4756    9.6665    9.5324 C   0  0  0  0  0  0  0  0  0  0  0  0
   51.6753   13.6739   16.1186 C   0  0  0  0  0  0  0  0  0  0  0  0
   52.5314    8.2896    9.6776 C   0  0  0  0  0  0  0  0  0  0  0  0
   50.8749   14.4903   16.9039 C   0  0  0  0  0  0  0  0  0  0  0  0
   50.1571   10.9291   13.8657 N   0  0  0  0  0  0  0  0  0  0  0  0
   49.4622    9.7687   14.2954 C   0  0  0  0  0  0  0  0  0  0  0  0
   51.0879   10.9566   12.7936 C   0  0  0  0  0  0  0  0  0  0  0  0
   48.9347    8.8032   13.4045 C   0  0  0  0  0  0  0  0  0  0  0  0
   50.6851   10.6318   11.4890 C   0  0  0  0  0  0  0  0  0  0  0  0
   48.9905    8.8665   11.8903 C   0  0  0  0  0  0  0  0  0  0  0  0
   49.2644   10.2149   11.2402 C   0  0  0  0  0  0  0  0  0  0  0  0
   50.2445   12.1137   14.7573 C   0  0  0  0  0  0  0  0  0  0  0  0
   48.8711   12.7399   15.0484 C   0  0  0  0  0  0  0  0  0  0  0  0
   49.0594   14.6451   13.4162 N   0  0  0  0  0  0  0  0  0  0  0  0
   52.4351   11.3054   13.0007 C   0  0  0  0  0  0  0  0  0  0  0  0
   49.2955    9.5103   15.6781 C   0  0  0  0  0  0  0  0  0  0  0  0
   48.2717   13.4743   13.8418 C   0  0  0  0  0  0  0  0  0  0  0  0
   51.6036   10.6843   10.4266 C   0  0  0  0  0  0  0  0  0  0  0  0
   48.2936    7.6474   13.9183 C   0  0  0  0  0  0  0  0  0  0  0  0
   48.7037   15.0179   12.0443 C   0  0  0  0  0  0  0  0  0  0  0  0
   48.8627   15.7900   14.3073 C   0  0  0  0  0  0  0  0  0  0  0  0
   48.6463    8.3725   16.1673 C   0  0  0  0  0  0  0  0  0  0  0  0
   53.3469   11.3534   11.9433 C   0  0  0  0  0  0  0  0  0  0  0  0
   48.1448    7.4356   15.2837 C   0  0  0  0  0  0  0  0  0  0  0  0
   52.9287   11.0473   10.6539 C   0  0  0  0  0  0  0  0  0  0  0  0
   50.2398    7.3065   14.4655 H   0  0  0  0  0  0  0  0  0  0  0  0
   50.7544    7.3974   12.7794 H   0  0  0  0  0  0  0  0  0  0  0  0
   52.1810    8.6679   14.3844 H   0  0  0  0  0  0  0  0  0  0  0  0
   50.8393    9.7136   14.8043 H   0  0  0  0  0  0  0  0  0  0  0  0
   47.7057   11.9620   13.6608 H   0  0  0  0  0  0  0  0  0  0  0  0
   48.3987   12.5936   12.1707 H   0  0  0  0  0  0  0  0  0  0  0  0
   49.7720   12.4495   14.9276 H   0  0  0  0  0  0  0  0  0  0  0  0
   50.4770   13.1970   13.4947 H   0  0  0  0  0  0  0  0  0  0  0  0
   50.0843   12.1930   10.6939 H   0  0  0  0  0  0  0  0  0  0  0  0
   46.6665   10.7087   12.1625 H   0  0  0  0  0  0  0  0  0  0  0  0
   48.6188   14.8562   13.3996 H   0  0  0  0  0  0  0  0  0  0  0  0
   47.8247   14.0390   14.7445 H   0  0  0  0  0  0  0  0  0  0  0  0
   53.6423    9.3614   12.6607 H   0  0  0  0  0  0  0  0  0  0  0  0
   48.3507    6.2354   13.3710 H   0  0  0  0  0  0  0  0  0  0  0  0
   49.1822   16.8518   16.4902 H   0  0  0  0  0  0  0  0  0  0  0  0
   48.4200   16.9129   14.8850 H   0  0  0  0  0  0  0  0  0  0  0  0
   47.7488   15.8891   16.1743 H   0  0  0  0  0  0  0  0  0  0  0  0
   50.6539   16.2152   13.8517 H   0  0  0  0  0  0  0  0  0  0  0  0
   51.2800   16.2920   15.5111 H   0  0  0  0  0  0  0  0  0  0  0  0
   51.4970   14.8285   14.5812 H   0  0  0  0  0  0  0  0  0  0  0  0
   45.1640    8.7965   12.1297 H   0  0  0  0  0  0  0  0  0  0  0  0
   52.3451   12.2088    9.7300 H   0  0  0  0  0  0  0  0  0  0  0  0
   45.9985    6.5369   12.7256 H   0  0  0  0  0  0  0  0  0  0  0  0
   54.1317   10.7918   10.7085 H   0  0  0  0  0  0  0  0  0  0  0  0
   51.1911   12.5098   12.2696 H   0  0  0  0  0  0  0  0  0  0  0  0
   49.8119   12.3203   11.2412 H   0  0  0  0  0  0  0  0  0  0  0  0
   47.1638   15.2576   15.5247 H   0  0  0  0  0  0  0  0  0  0  0  0
   50.4653    6.7074   12.7426 H   0  0  0  0  0  0  0  0  0  0  0  0
   46.6065   13.1143   11.5483 H   0  0  0  0  0  0  0  0  0  0  0  0
   48.3762   10.0171   15.0271 H   0  0  0  0  0  0  0  0  0  0  0  0
   44.3121   15.3905   13.7692 H   0  0  0  0  0  0  0  0  0  0  0  0
   48.5458    6.1442   15.4099 H   0  0  0  0  0  0  0  0  0  0  0  0
   51.8448   12.5258   14.3363 H   0  0  0  0  0  0  0  0  0  0  0  0
   51.7139   11.5071   10.2637 H   0  0  0  0  0  0  0  0  0  0  0  0
   48.9709   15.4383   17.1143 H   0  0  0  0  0  0  0  0  0  0  0  0
   51.8925    6.5997   10.8167 H   0  0  0  0  0  0  0  0  0  0  0  0
   53.0099   10.1523    8.7198 H   0  0  0  0  0  0  0  0  0  0  0  0
   52.6781   13.4132   16.4469 H   0  0  0  0  0  0  0  0  0  0  0  0
   53.1097    7.6879    8.9815 H   0  0  0  0  0  0  0  0  0  0  0  0
   51.2476   14.8762   17.8487 H   0  0  0  0  0  0  0  0  0  0  0  0
   49.7349    8.1328   11.5518 H   0  0  0  0  0  0  0  0  0  0  0  0
   48.0167    8.5303   11.5072 H   0  0  0  0  0  0  0  0  0  0  0  0
   49.0883   10.1287   10.1603 H   0  0  0  0  0  0  0  0  0  0  0  0
   48.5712   10.9842   11.5973 H   0  0  0  0  0  0  0  0  0  0  0  0
   50.7472   11.8467   15.6946 H   0  0  0  0  0  0  0  0  0  0  0  0
   50.8716   12.9016   14.3206 H   0  0  0  0  0  0  0  0  0  0  0  0
   48.1523   11.9809   15.3754 H   0  0  0  0  0  0  0  0  0  0  0  0
   48.9745   13.4304   15.8932 H   0  0  0  0  0  0  0  0  0  0  0  0
   52.7931   11.5266   14.0025 H   0  0  0  0  0  0  0  0  0  0  0  0
   49.6985   10.1881   16.4240 H   0  0  0  0  0  0  0  0  0  0  0  0
   47.2404   13.7726   14.0728 H   0  0  0  0  0  0  0  0  0  0  0  0
   48.2001   12.7548   13.0188 H   0  0  0  0  0  0  0  0  0  0  0  0
   51.2886   10.4364    9.4161 H   0  0  0  0  0  0  0  0  0  0  0  0
   47.9001    6.8980   13.2331 H   0  0  0  0  0  0  0  0  0  0  0  0
   49.3008   15.8731   11.7090 H   0  0  0  0  0  0  0  0  0  0  0  0
   47.6431   15.2773   11.9487 H   0  0  0  0  0  0  0  0  0  0  0  0
   48.9236   14.1963   11.3535 H   0  0  0  0  0  0  0  0  0  0  0  0
   49.1891   15.5625   15.3263 H   0  0  0  0  0  0  0  0  0  0  0  0
   47.8156   16.1111   14.3426 H   0  0  0  0  0  0  0  0  0  0  0  0
   49.4703   16.6401   13.9759 H   0  0  0  0  0  0  0  0  0  0  0  0
   48.5504    8.2212   17.2389 H   0  0  0  0  0  0  0  0  0  0  0  0
   54.3815   11.6258   12.1319 H   0  0  0  0  0  0  0  0  0  0  0  0
   47.6468    6.5427   15.6498 H   0  0  0  0  0  0  0  0  0  0  0  0
   53.6340   11.0827    9.8283 H   0  0  0  0  0  0  0  0  0  0  0  0
  2  1  1  0
  3  1  1  0
  4  2  2  0
  5  3  2  0
  6  4  1  0
  7  5  1  0
  8  1  1  0
  9  8  1  0
 10 13  1  0
 11  3  1  0
 12  2  1  0
 13  9  1  0
 14  5  1  0
 15  4  1  0
 16 10  1  0
 17 10  1  0
 18 12  2  0
 19 11  2  0
 20 15  2  0
 21 14  2  0
  6  7  1  0
 18 20  1  0
 19 21  1  0
 23 27  2  0
 24 28  1  0
 25 26  1  0
 26 22  2  0
 27 24  1  0
 28 25  1  0
 29 22  1  0
 30 23  1  0
 31 22  1  0
 32 23  1  0
 33 24  2  0
 34 35  1  0
 35 29  2  0
 36 33  1  0
 37 31  2  0
 38 32  2  0
 39 26  1  0
 40 27  1  0
 41 31  1  0
 42 32  1  0
 43 34  1  0
 44 33  1  0
 45 35  1  0
 46 36  1  0
 47 44  2  0
 48 43  2  0
 49 47  1  0
 50 45  2  0
 25 34  2  0
 48 50  1  0
 30 36  2  0
 46 49  2  0
 52 51  1  0
 53 51  1  0
 54 52  2  0
 55 53  2  0
 56 54  1  0
 57 55  1  0
 58 51  1  0
 59 58  1  0
 60 63  1  0
 61 53  1  0
 62 52  1  0
 63 59  1  0
 64 55  1  0
 65 54  1  0
 66 60  1  0
 67 60  1  0
 68 62  2  0
 69 61  2  0
 70 65  2  0
 71 64  2  0
 56 57  1  0
 68 70  1  0
 69 71  1  0
  6 72  1  0
  6 73  1  0
  7 74  1  0
  7 75  1  0
  8 76  1  0
  8 77  1  0
  9 78  1  0
  9 79  1  0
 11 80  1  0
 12 81  1  0
 13 82  1  0
 13 83  1  0
 14 84  1  0
 15 85  1  0
 16 86  1  0
 16 87  1  0
 16 88  1  0
 17 89  1  0
 17 90  1  0
 17 91  1  0
 18 92  1  0
 19 93  1  0
 20 94  1  0
 21 95  1  0
 28 96  1  0
 28 97  1  0
 29 98  1  0
 30 99  1  0
 39100  1  0
 40101  1  0
 41102  1  0
 42103  1  0
 43104  1  0
 44105  1  0
 45106  1  0
 46107  1  0
 47108  1  0
 48109  1  0
 49110  1  0
 50111  1  0
 56112  1  0
 56113  1  0
 57114  1  0
 57115  1  0
 58116  1  0
 58117  1  0
 59118  1  0
 59119  1  0
 61120  1  0
 62121  1  0
 63122  1  0
 63123  1  0
 64124  1  0
 65125  1  0
 66126  1  0
 66127  1  0
 66128  1  0
 67129  1  0
 67130  1  0
 67131  1  0
 68132  1  0
 69133  1  0
 70134  1  0
 71135  1  0
M  END
> <Uni-Dock RESULT> 
ENERGY=   -5.531  LOWER_BOUND=    4.007  UPPER_BOUND=    8.068
INTER + INTRA:          -5.531
INTER:                  -5.531
INTRA:                   0.000
UNBOUND:                 0.000

$$$$
