
     RDKit          3D

135142  0  0  0  0  0  0  0  0999 V2000
   49.7733    6.0424   17.4685 N   0  0  0  0  0  0  0  0  0  0  0  0
   49.6056    7.1211   18.4002 C   0  0  0  0  0  0  0  0  0  0  0  0
   50.3233    4.7265   17.6423 C   0  0  0  0  0  0  0  0  0  0  0  0
   49.9466    7.0531   19.7723 C   0  0  0  0  0  0  0  0  0  0  0  0
   51.3359    4.4205   18.5701 C   0  0  0  0  0  0  0  0  0  0  0  0
   50.6656    5.8915   20.4055 C   0  0  0  0  0  0  0  0  0  0  0  0
   51.8363    5.4369   19.5534 C   0  0  0  0  0  0  0  0  0  0  0  0
   49.5385    6.3618   16.0239 C   0  0  0  0  0  0  0  0  0  0  0  0
   48.0513    6.2579   15.6348 C   0  0  0  0  0  0  0  0  0  0  0  0
   48.3301    7.5439   13.4818 N   0  0  0  0  0  0  0  0  0  0  0  0
   49.8697    3.6439   16.8492 C   0  0  0  0  0  0  0  0  0  0  0  0
   49.0297    8.3534   17.9939 C   0  0  0  0  0  0  0  0  0  0  0  0
   47.8507    6.3038   14.1137 C   0  0  0  0  0  0  0  0  0  0  0  0
   51.8988    3.1247   18.6336 C   0  0  0  0  0  0  0  0  0  0  0  0
   49.6499    8.1262   20.6543 C   0  0  0  0  0  0  0  0  0  0  0  0
   48.3837    7.3746   12.0255 C   0  0  0  0  0  0  0  0  0  0  0  0
   47.4694    8.6869   13.8046 C   0  0  0  0  0  0  0  0  0  0  0  0
   48.7634    9.4181   18.8667 C   0  0  0  0  0  0  0  0  0  0  0  0
   50.4174    2.3582   16.9262 C   0  0  0  0  0  0  0  0  0  0  0  0
   49.0628    9.2998   20.2066 C   0  0  0  0  0  0  0  0  0  0  0  0
   51.4454    2.1006   17.8131 C   0  0  0  0  0  0  0  0  0  0  0  0
   49.4620    5.5284   20.4582 C   0  0  0  0  0  0  0  0  0  0  0  0
   47.7028    5.5664   14.5753 C   0  0  0  0  0  0  0  0  0  0  0  0
   48.9307    7.1639   15.9790 C   0  0  0  0  0  0  0  0  0  0  0  0
   50.0536    6.5343   18.3076 C   0  0  0  0  0  0  0  0  0  0  0  0
   49.1647    6.3782   19.3938 C   0  0  0  0  0  0  0  0  0  0  0  0
   48.3949    5.8755   15.7590 C   0  0  0  0  0  0  0  0  0  0  0  0
   49.7286    7.5552   17.2281 C   0  0  0  0  0  0  0  0  0  0  0  0
   50.6511    4.7941   20.4373 C   0  0  0  0  0  0  0  0  0  0  0  0
   47.5121    6.5591   13.6105 C   0  0  0  0  0  0  0  0  0  0  0  0
   48.5127    5.3482   21.5801 C   0  0  0  0  0  0  0  0  0  0  0  0
   47.1325    4.2293   14.2589 C   0  0  0  0  0  0  0  0  0  0  0  0
   48.7118    8.1800   14.9839 C   0  0  0  0  0  0  0  0  0  0  0  0
   51.2468    5.7499   18.2663 C   0  0  0  0  0  0  0  0  0  0  0  0
   51.5357    4.8832   19.3534 C   0  0  0  0  0  0  0  0  0  0  0  0
   47.9951    7.8556   13.8023 C   0  0  0  0  0  0  0  0  0  0  0  0
   47.2975    5.3362   21.5372 O   0  0  0  0  0  0  0  0  0  0  0  0
   46.4901    3.9386   13.2659 O   0  0  0  0  0  0  0  0  0  0  0  0
   47.9899    7.0812   19.4063 O   0  0  0  0  0  0  0  0  0  0  0  0
   48.5398    4.9353   16.7432 O   0  0  0  0  0  0  0  0  0  0  0  0
   49.1629    5.1745   22.7483 O   0  0  0  0  0  0  0  0  0  0  0  0
   47.4013    3.3004   15.2002 O   0  0  0  0  0  0  0  0  0  0  0  0
   52.1727    5.7702   17.1949 C   0  0  0  0  0  0  0  0  0  0  0  0
   49.1617    9.5199   15.1016 C   0  0  0  0  0  0  0  0  0  0  0  0
   52.7054    4.1044   19.3492 C   0  0  0  0  0  0  0  0  0  0  0  0
   47.7578    8.8296   12.8176 C   0  0  0  0  0  0  0  0  0  0  0  0
   48.9175   10.4807   14.1161 C   0  0  0  0  0  0  0  0  0  0  0  0
   53.3312    4.9874   17.2038 C   0  0  0  0  0  0  0  0  0  0  0  0
   48.2127   10.1350   12.9727 C   0  0  0  0  0  0  0  0  0  0  0  0
   53.5991    4.1568   18.2828 C   0  0  0  0  0  0  0  0  0  0  0  0
   49.4227    5.6976   17.4881 N   0  0  0  0  0  0  0  0  0  0  0  0
   49.0551    6.6578   18.4627 C   0  0  0  0  0  0  0  0  0  0  0  0
   50.2253    4.5460   17.6702 C   0  0  0  0  0  0  0  0  0  0  0  0
   49.8478    6.9952   19.5832 C   0  0  0  0  0  0  0  0  0  0  0  0
   51.5069    4.6198   18.2308 C   0  0  0  0  0  0  0  0  0  0  0  0
   51.2237    6.4379   19.8869 C   0  0  0  0  0  0  0  0  0  0  0  0
   52.0385    5.9426   18.7012 C   0  0  0  0  0  0  0  0  0  0  0  0
   48.9756    5.8878   16.0841 C   0  0  0  0  0  0  0  0  0  0  0  0
   49.5715    7.1672   15.4806 C   0  0  0  0  0  0  0  0  0  0  0  0
   47.8352    7.2896   13.6406 N   0  0  0  0  0  0  0  0  0  0  0  0
   49.7468    3.2830   17.2736 C   0  0  0  0  0  0  0  0  0  0  0  0
   47.7984    7.3030   18.3595 C   0  0  0  0  0  0  0  0  0  0  0  0
   49.2684    7.3083   13.9838 C   0  0  0  0  0  0  0  0  0  0  0  0
   52.2896    3.4581   18.3643 C   0  0  0  0  0  0  0  0  0  0  0  0
   49.3595    7.9235   20.5372 C   0  0  0  0  0  0  0  0  0  0  0  0
   47.6738    7.2481   12.1833 C   0  0  0  0  0  0  0  0  0  0  0  0
   47.1275    8.4553   14.1768 C   0  0  0  0  0  0  0  0  0  0  0  0
   47.3399    8.2320   19.2971 C   0  0  0  0  0  0  0  0  0  0  0  0
   50.5242    2.1314   17.4128 C   0  0  0  0  0  0  0  0  0  0  0  0
   48.1225    8.5421   20.3928 C   0  0  0  0  0  0  0  0  0  0  0  0
   51.8008    2.2208   17.9534 C   0  0  0  0  0  0  0  0  0  0  0  0
   49.9494    5.0876   20.6176 H   0  0  0  0  0  0  0  0  0  0  0  0
   51.0770    6.2022   21.3750 H   0  0  0  0  0  0  0  0  0  0  0  0
   52.3414    6.2595   19.0320 H   0  0  0  0  0  0  0  0  0  0  0  0
   52.5879    4.9809   20.2102 H   0  0  0  0  0  0  0  0  0  0  0  0
   49.9496    7.3481   15.7748 H   0  0  0  0  0  0  0  0  0  0  0  0
   50.1295    5.6981   15.3764 H   0  0  0  0  0  0  0  0  0  0  0  0
   47.6246    5.3187   16.0036 H   0  0  0  0  0  0  0  0  0  0  0  0
   47.4543    7.0344   16.1194 H   0  0  0  0  0  0  0  0  0  0  0  0
   49.0570    3.7718   16.1457 H   0  0  0  0  0  0  0  0  0  0  0  0
   48.7520    8.5416   16.9638 H   0  0  0  0  0  0  0  0  0  0  0  0
   46.7890    6.1376   13.8836 H   0  0  0  0  0  0  0  0  0  0  0  0
   48.3943    5.4472   13.6911 H   0  0  0  0  0  0  0  0  0  0  0  0
   52.6920    2.9077   19.3445 H   0  0  0  0  0  0  0  0  0  0  0  0
   49.9007    8.0494   21.7111 H   0  0  0  0  0  0  0  0  0  0  0  0
   48.7609    8.2837   11.5434 H   0  0  0  0  0  0  0  0  0  0  0  0
   49.0775    6.5702   11.7562 H   0  0  0  0  0  0  0  0  0  0  0  0
   47.4012    7.1409   11.5997 H   0  0  0  0  0  0  0  0  0  0  0  0
   47.8477    9.5968   13.3243 H   0  0  0  0  0  0  0  0  0  0  0  0
   47.4644    8.8917   14.8795 H   0  0  0  0  0  0  0  0  0  0  0  0
   46.4349    8.5305   13.4750 H   0  0  0  0  0  0  0  0  0  0  0  0
   48.3141   10.3309   18.4833 H   0  0  0  0  0  0  0  0  0  0  0  0
   50.0325    1.5655   16.2896 H   0  0  0  0  0  0  0  0  0  0  0  0
   48.8554   10.1119   20.8964 H   0  0  0  0  0  0  0  0  0  0  0  0
   51.8839    1.1089   17.8796 H   0  0  0  0  0  0  0  0  0  0  0  0
   49.1908    8.3851   17.7089 H   0  0  0  0  0  0  0  0  0  0  0  0
   50.6762    8.0036   16.9017 H   0  0  0  0  0  0  0  0  0  0  0  0
   50.8757    4.1239   21.2658 H   0  0  0  0  0  0  0  0  0  0  0  0
   46.9672    6.3159   12.6976 H   0  0  0  0  0  0  0  0  0  0  0  0
   47.5569    6.9063   18.5487 H   0  0  0  0  0  0  0  0  0  0  0  0
   48.2195    4.0709   16.4117 H   0  0  0  0  0  0  0  0  0  0  0  0
   48.4334    5.1031   23.3991 H   0  0  0  0  0  0  0  0  0  0  0  0
   46.9685    2.4913   14.8435 H   0  0  0  0  0  0  0  0  0  0  0  0
   51.9990    6.3902   16.3188 H   0  0  0  0  0  0  0  0  0  0  0  0
   49.7137    9.8507   15.9786 H   0  0  0  0  0  0  0  0  0  0  0  0
   52.9277    3.4408   20.1827 H   0  0  0  0  0  0  0  0  0  0  0  0
   47.2030    8.5779   11.9140 H   0  0  0  0  0  0  0  0  0  0  0  0
   49.2769   11.4983   14.2488 H   0  0  0  0  0  0  0  0  0  0  0  0
   54.0202    5.0277   16.3635 H   0  0  0  0  0  0  0  0  0  0  0  0
   48.0179   10.8779   12.2048 H   0  0  0  0  0  0  0  0  0  0  0  0
   54.4970    3.5468   18.2941 H   0  0  0  0  0  0  0  0  0  0  0  0
   51.1130    5.6438   20.6379 H   0  0  0  0  0  0  0  0  0  0  0  0
   51.8149    7.2371   20.3547 H   0  0  0  0  0  0  0  0  0  0  0  0
   52.0470    6.6645   17.8754 H   0  0  0  0  0  0  0  0  0  0  0  0
   53.0842    5.8281   19.0174 H   0  0  0  0  0  0  0  0  0  0  0  0
   47.8826    5.8763   16.0199 H   0  0  0  0  0  0  0  0  0  0  0  0
   49.3013    5.0555   15.4454 H   0  0  0  0  0  0  0  0  0  0  0  0
   50.6622    7.1485   15.6070 H   0  0  0  0  0  0  0  0  0  0  0  0
   49.2254    8.0568   16.0181 H   0  0  0  0  0  0  0  0  0  0  0  0
   48.7424    3.1893   16.8697 H   0  0  0  0  0  0  0  0  0  0  0  0
   47.1197    7.0633   17.5465 H   0  0  0  0  0  0  0  0  0  0  0  0
   49.7668    6.4727   13.4719 H   0  0  0  0  0  0  0  0  0  0  0  0
   49.7418    8.2254   13.6105 H   0  0  0  0  0  0  0  0  0  0  0  0
   53.2864    3.5148   18.7974 H   0  0  0  0  0  0  0  0  0  0  0  0
   49.9625    8.1722   21.4092 H   0  0  0  0  0  0  0  0  0  0  0  0
   48.1597    6.3591   11.7665 H   0  0  0  0  0  0  0  0  0  0  0  0
   46.6147    7.1803   11.9145 H   0  0  0  0  0  0  0  0  0  0  0  0
   48.0991    8.1331   11.6982 H   0  0  0  0  0  0  0  0  0  0  0  0
   47.1253    8.4485   15.2706 H   0  0  0  0  0  0  0  0  0  0  0  0
   46.0734    8.4365   13.8748 H   0  0  0  0  0  0  0  0  0  0  0  0
   47.5654    9.3993   13.8352 H   0  0  0  0  0  0  0  0  0  0  0  0
   46.3641    8.6934   19.1729 H   0  0  0  0  0  0  0  0  0  0  0  0
   50.1279    1.1685   17.1020 H   0  0  0  0  0  0  0  0  0  0  0  0
   47.7760    9.2529   21.1366 H   0  0  0  0  0  0  0  0  0  0  0  0
   52.4109    1.3289   18.0656 H   0  0  0  0  0  0  0  0  0  0  0  0
  2  1  1  0
  3  1  1  0
  4  2  2  0
  5  3  2  0
  6  4  1  0
  7  5  1  0
  8  1  1  0
  9  8  1  0
 10 13  1  0
 11  3  1  0
 12  2  1  0
 13  9  1  0
 14  5  1  0
 15  4  1  0
 16 10  1  0
 17 10  1  0
 18 12  2  0
 19 11  2  0
 20 15  2  0
 21 14  2  0
  6  7  1  0
 18 20  1  0
 19 21  1  0
 23 27  2  0
 24 28  1  0
 25 26  1  0
 26 22  2  0
 27 24  1  0
 28 25  1  0
 29 22  1  0
 30 23  1  0
 31 22  1  0
 32 23  1  0
 33 24  2  0
 34 35  1  0
 35 29  2  0
 36 33  1  0
 37 31  2  0
 38 32  2  0
 39 26  1  0
 40 27  1  0
 41 31  1  0
 42 32  1  0
 43 34  1  0
 44 33  1  0
 45 35  1  0
 46 36  1  0
 47 44  2  0
 48 43  2  0
 49 47  1  0
 50 45  2  0
 25 34  2  0
 48 50  1  0
 30 36  2  0
 46 49  2  0
 52 51  1  0
 53 51  1  0
 54 52  2  0
 55 53  2  0
 56 54  1  0
 57 55  1  0
 58 51  1  0
 59 58  1  0
 60 63  1  0
 61 53  1  0
 62 52  1  0
 63 59  1  0
 64 55  1  0
 65 54  1  0
 66 60  1  0
 67 60  1  0
 68 62  2  0
 69 61  2  0
 70 65  2  0
 71 64  2  0
 56 57  1  0
 68 70  1  0
 69 71  1  0
  6 72  1  0
  6 73  1  0
  7 74  1  0
  7 75  1  0
  8 76  1  0
  8 77  1  0
  9 78  1  0
  9 79  1  0
 11 80  1  0
 12 81  1  0
 13 82  1  0
 13 83  1  0
 14 84  1  0
 15 85  1  0
 16 86  1  0
 16 87  1  0
 16 88  1  0
 17 89  1  0
 17 90  1  0
 17 91  1  0
 18 92  1  0
 19 93  1  0
 20 94  1  0
 21 95  1  0
 28 96  1  0
 28 97  1  0
 29 98  1  0
 30 99  1  0
 39100  1  0
 40101  1  0
 41102  1  0
 42103  1  0
 43104  1  0
 44105  1  0
 45106  1  0
 46107  1  0
 47108  1  0
 48109  1  0
 49110  1  0
 50111  1  0
 56112  1  0
 56113  1  0
 57114  1  0
 57115  1  0
 58116  1  0
 58117  1  0
 59118  1  0
 59119  1  0
 61120  1  0
 62121  1  0
 63122  1  0
 63123  1  0
 64124  1  0
 65125  1  0
 66126  1  0
 66127  1  0
 66128  1  0
 67129  1  0
 67130  1  0
 67131  1  0
 68132  1  0
 69133  1  0
 70134  1  0
 71135  1  0
M  END
> <Uni-Dock RESULT> 
ENERGY=   -8.418  LOWER_BOUND=    0.000  UPPER_BOUND=    0.000
INTER + INTRA:          -8.418
INTER:                  -8.418
INTRA:                   0.000
UNBOUND:                 0.000

$$$$

     RDKit          3D

135142  0  0  0  0  0  0  0  0999 V2000
   45.9840   12.6890   10.7342 N   0  0  0  0  0  0  0  0  0  0  0  0
   45.6923   13.5186   11.8684 C   0  0  0  0  0  0  0  0  0  0  0  0
   45.1557   12.2705    9.6373 C   0  0  0  0  0  0  0  0  0  0  0  0
   44.4462   14.1495   12.0986 C   0  0  0  0  0  0  0  0  0  0  0  0
   43.7646   12.0847    9.7367 C   0  0  0  0  0  0  0  0  0  0  0  0
   43.2164   13.9166   11.2616 C   0  0  0  0  0  0  0  0  0  0  0  0
   43.0100   12.4389   10.9839 C   0  0  0  0  0  0  0  0  0  0  0  0
   47.2886   11.9533   10.7596 C   0  0  0  0  0  0  0  0  0  0  0  0
   48.4556   12.8110   10.2339 C   0  0  0  0  0  0  0  0  0  0  0  0
   50.2407   11.3131   11.2018 N   0  0  0  0  0  0  0  0  0  0  0  0
   45.7222   11.9990    8.3675 C   0  0  0  0  0  0  0  0  0  0  0  0
   46.6859   13.7977   12.8432 C   0  0  0  0  0  0  0  0  0  0  0  0
   49.7206   11.9754    9.9943 C   0  0  0  0  0  0  0  0  0  0  0  0
   43.0160   11.5864    8.6453 C   0  0  0  0  0  0  0  0  0  0  0  0
   44.2685   15.0433   13.1880 C   0  0  0  0  0  0  0  0  0  0  0  0
   51.2431   10.3088   10.8289 C   0  0  0  0  0  0  0  0  0  0  0  0
   50.8416   12.2738   12.1330 C   0  0  0  0  0  0  0  0  0  0  0  0
   46.4942   14.6619   13.9307 C   0  0  0  0  0  0  0  0  0  0  0  0
   44.9756   11.5218    7.2841 C   0  0  0  0  0  0  0  0  0  0  0  0
   45.2836   15.2987   14.0975 C   0  0  0  0  0  0  0  0  0  0  0  0
   43.6188   11.3021    7.4273 C   0  0  0  0  0  0  0  0  0  0  0  0
   43.8106   14.8254   10.6257 C   0  0  0  0  0  0  0  0  0  0  0  0
   49.2640   12.3217    9.3233 C   0  0  0  0  0  0  0  0  0  0  0  0
   47.9143   12.4536   11.3705 C   0  0  0  0  0  0  0  0  0  0  0  0
   45.3257   13.0684   11.4030 C   0  0  0  0  0  0  0  0  0  0  0  0
   45.0175   14.4318   11.2019 C   0  0  0  0  0  0  0  0  0  0  0  0
   48.0482   12.5989    9.9718 C   0  0  0  0  0  0  0  0  0  0  0  0
   46.6080   12.7010   12.1338 C   0  0  0  0  0  0  0  0  0  0  0  0
   42.8982   13.8504   10.2129 C   0  0  0  0  0  0  0  0  0  0  0  0
   50.3714   11.9254   10.0778 C   0  0  0  0  0  0  0  0  0  0  0  0
   43.5060   16.2554   10.3921 C   0  0  0  0  0  0  0  0  0  0  0  0
   49.4771   12.4259    7.8547 C   0  0  0  0  0  0  0  0  0  0  0  0
   49.0679   12.0608   12.1357 C   0  0  0  0  0  0  0  0  0  0  0  0
   44.4121   12.0725   10.9401 C   0  0  0  0  0  0  0  0  0  0  0  0
   43.1888   12.4857   10.3492 C   0  0  0  0  0  0  0  0  0  0  0  0
   50.2929   11.8021   11.4668 C   0  0  0  0  0  0  0  0  0  0  0  0
   44.2755   17.1420   10.0747 O   0  0  0  0  0  0  0  0  0  0  0  0
   50.5260   12.2371    7.2654 O   0  0  0  0  0  0  0  0  0  0  0  0
   45.9188   15.3878   11.5871 O   0  0  0  0  0  0  0  0  0  0  0  0
   46.9688   13.0471    9.2592 O   0  0  0  0  0  0  0  0  0  0  0  0
   42.1937   16.5111   10.5660 O   0  0  0  0  0  0  0  0  0  0  0  0
   48.3570   12.7538    7.1769 O   0  0  0  0  0  0  0  0  0  0  0  0
   44.6492   10.6788   11.0228 C   0  0  0  0  0  0  0  0  0  0  0  0
   49.0766   11.9180   13.5467 C   0  0  0  0  0  0  0  0  0  0  0  0
   42.2635   11.5322    9.8916 C   0  0  0  0  0  0  0  0  0  0  0  0
   51.4384   11.4263   12.1888 C   0  0  0  0  0  0  0  0  0  0  0  0
   50.2232   11.5458   14.2543 C   0  0  0  0  0  0  0  0  0  0  0  0
   43.7199    9.7419   10.5605 C   0  0  0  0  0  0  0  0  0  0  0  0
   51.4067   11.3010   13.5739 C   0  0  0  0  0  0  0  0  0  0  0  0
   42.5254   10.1689    9.9978 C   0  0  0  0  0  0  0  0  0  0  0  0
   46.0878   12.9352   10.3209 N   0  0  0  0  0  0  0  0  0  0  0  0
   45.8533   13.9328   11.2991 C   0  0  0  0  0  0  0  0  0  0  0  0
   45.1449   12.3465    9.4447 C   0  0  0  0  0  0  0  0  0  0  0  0
   44.6310   14.0955   11.9897 C   0  0  0  0  0  0  0  0  0  0  0  0
   43.9675   11.7526    9.9173 C   0  0  0  0  0  0  0  0  0  0  0  0
   43.4125   13.2071   11.8421 C   0  0  0  0  0  0  0  0  0  0  0  0
   43.6596   11.7765   11.3865 C   0  0  0  0  0  0  0  0  0  0  0  0
   47.4560   12.3744   10.1767 C   0  0  0  0  0  0  0  0  0  0  0  0
   47.8947   11.6463   11.4548 C   0  0  0  0  0  0  0  0  0  0  0  0
   50.3541   11.7667   10.8609 N   0  0  0  0  0  0  0  0  0  0  0  0
   45.3820   12.3359    8.0572 C   0  0  0  0  0  0  0  0  0  0  0  0
   46.8746   14.8699   11.5910 C   0  0  0  0  0  0  0  0  0  0  0  0
   49.2305   10.9122   11.2847 C   0  0  0  0  0  0  0  0  0  0  0  0
   43.0699   11.1463    9.0191 C   0  0  0  0  0  0  0  0  0  0  0  0
   44.4766   15.1677   12.9045 C   0  0  0  0  0  0  0  0  0  0  0  0
   51.5236   10.9353   10.5572 C   0  0  0  0  0  0  0  0  0  0  0  0
   50.7094   12.7532   11.8846 C   0  0  0  0  0  0  0  0  0  0  0  0
   46.7143   15.9090   12.5112 C   0  0  0  0  0  0  0  0  0  0  0  0
   44.4863   11.7382    7.1683 C   0  0  0  0  0  0  0  0  0  0  0  0
   45.5090   16.0609   13.1694 C   0  0  0  0  0  0  0  0  0  0  0  0
   43.3312   11.1364    7.6516 C   0  0  0  0  0  0  0  0  0  0  0  0
   43.2732   14.5227   10.3486 H   0  0  0  0  0  0  0  0  0  0  0  0
   42.3312   14.2660   11.8095 H   0  0  0  0  0  0  0  0  0  0  0  0
   43.3168   11.7922   11.8153 H   0  0  0  0  0  0  0  0  0  0  0  0
   41.9378   12.2599   10.8339 H   0  0  0  0  0  0  0  0  0  0  0  0
   47.4957   11.5693   11.7663 H   0  0  0  0  0  0  0  0  0  0  0  0
   47.2259   11.0270   10.1705 H   0  0  0  0  0  0  0  0  0  0  0  0
   48.1821   13.2889    9.2868 H   0  0  0  0  0  0  0  0  0  0  0  0
   48.6742   13.6458   10.9044 H   0  0  0  0  0  0  0  0  0  0  0  0
   46.7756   12.1644    8.1814 H   0  0  0  0  0  0  0  0  0  0  0  0
   47.6725   13.3527   12.7963 H   0  0  0  0  0  0  0  0  0  0  0  0
   50.4929   12.6105    9.5383 H   0  0  0  0  0  0  0  0  0  0  0  0
   49.4664   11.2141    9.2435 H   0  0  0  0  0  0  0  0  0  0  0  0
   41.9443   11.4326    8.7424 H   0  0  0  0  0  0  0  0  0  0  0  0
   43.3093   15.5360   13.3390 H   0  0  0  0  0  0  0  0  0  0  0  0
   51.6226    9.7917   11.7174 H   0  0  0  0  0  0  0  0  0  0  0  0
   50.7978    9.5390   10.1886 H   0  0  0  0  0  0  0  0  0  0  0  0
   52.0937   10.7509   10.2976 H   0  0  0  0  0  0  0  0  0  0  0  0
   51.2193   11.7571   13.0230 H   0  0  0  0  0  0  0  0  0  0  0  0
   50.1027   12.9961   12.4933 H   0  0  0  0  0  0  0  0  0  0  0  0
   51.6739   12.8246   11.6779 H   0  0  0  0  0  0  0  0  0  0  0  0
   47.3053   14.8321   14.6344 H   0  0  0  0  0  0  0  0  0  0  0  0
   45.4641   11.3263    6.3328 H   0  0  0  0  0  0  0  0  0  0  0  0
   45.1220   15.9768   14.9297 H   0  0  0  0  0  0  0  0  0  0  0  0
   43.0279   10.9266    6.5967 H   0  0  0  0  0  0  0  0  0  0  0  0
   46.8082   13.4935   12.8693 H   0  0  0  0  0  0  0  0  0  0  0  0
   46.3968   11.8145   12.7460 H   0  0  0  0  0  0  0  0  0  0  0  0
   41.9605   14.1611    9.7544 H   0  0  0  0  0  0  0  0  0  0  0  0
   51.3146   11.7195    9.5703 H   0  0  0  0  0  0  0  0  0  0  0  0
   46.7716   15.1397   11.1810 H   0  0  0  0  0  0  0  0  0  0  0  0
   47.1713   12.9953    8.3022 H   0  0  0  0  0  0  0  0  0  0  0  0
   42.1353   17.4783   10.4180 H   0  0  0  0  0  0  0  0  0  0  0  0
   48.6623   12.7754    6.2411 H   0  0  0  0  0  0  0  0  0  0  0  0
   45.5774   10.2942   11.4384 H   0  0  0  0  0  0  0  0  0  0  0  0
   48.1800   12.1030   14.1343 H   0  0  0  0  0  0  0  0  0  0  0  0
   41.3253   11.8486    9.4397 H   0  0  0  0  0  0  0  0  0  0  0  0
   52.3784   11.2331   11.6722 H   0  0  0  0  0  0  0  0  0  0  0  0
   50.1868   11.4522   15.3369 H   0  0  0  0  0  0  0  0  0  0  0  0
   43.9352    8.6790   10.6395 H   0  0  0  0  0  0  0  0  0  0  0  0
   52.3014   11.0138   14.1186 H   0  0  0  0  0  0  0  0  0  0  0  0
   41.8009    9.4453    9.6371 H   0  0  0  0  0  0  0  0  0  0  0  0
   42.7025   13.7089   11.1707 H   0  0  0  0  0  0  0  0  0  0  0  0
   42.9254   13.1377   12.8246 H   0  0  0  0  0  0  0  0  0  0  0  0
   44.4675   11.2966   11.9523 H   0  0  0  0  0  0  0  0  0  0  0  0
   42.7556   11.1845   11.5832 H   0  0  0  0  0  0  0  0  0  0  0  0
   48.1669   13.1550    9.8865 H   0  0  0  0  0  0  0  0  0  0  0  0
   47.5019   11.6386    9.3622 H   0  0  0  0  0  0  0  0  0  0  0  0
   47.1307   10.9053   11.7251 H   0  0  0  0  0  0  0  0  0  0  0  0
   47.9524   12.3366   12.3035 H   0  0  0  0  0  0  0  0  0  0  0  0
   46.2685   12.8211    7.6580 H   0  0  0  0  0  0  0  0  0  0  0  0
   47.8260   14.8302   11.0693 H   0  0  0  0  0  0  0  0  0  0  0  0
   49.0760   10.1287   10.5292 H   0  0  0  0  0  0  0  0  0  0  0  0
   49.4729   10.3941   12.2215 H   0  0  0  0  0  0  0  0  0  0  0  0
   42.1562   10.6825    9.3857 H   0  0  0  0  0  0  0  0  0  0  0  0
   43.5299   15.3037   13.4253 H   0  0  0  0  0  0  0  0  0  0  0  0
   51.2913   10.2183    9.7621 H   0  0  0  0  0  0  0  0  0  0  0  0
   52.3503   11.5520   10.1900 H   0  0  0  0  0  0  0  0  0  0  0  0
   51.8694   10.3777   11.4342 H   0  0  0  0  0  0  0  0  0  0  0  0
   49.8963   13.4669   12.0458 H   0  0  0  0  0  0  0  0  0  0  0  0
   51.5712   13.3490   11.5604 H   0  0  0  0  0  0  0  0  0  0  0  0
   50.9572   12.2850   12.8431 H   0  0  0  0  0  0  0  0  0  0  0  0
   47.5291   16.6044   12.6932 H   0  0  0  0  0  0  0  0  0  0  0  0
   44.6926   11.7483    6.1014 H   0  0  0  0  0  0  0  0  0  0  0  0
   45.3641   16.8699   13.8786 H   0  0  0  0  0  0  0  0  0  0  0  0
   42.6293   10.6704    6.9656 H   0  0  0  0  0  0  0  0  0  0  0  0
  2  1  1  0
  3  1  1  0
  4  2  2  0
  5  3  2  0
  6  4  1  0
  7  5  1  0
  8  1  1  0
  9  8  1  0
 10 13  1  0
 11  3  1  0
 12  2  1  0
 13  9  1  0
 14  5  1  0
 15  4  1  0
 16 10  1  0
 17 10  1  0
 18 12  2  0
 19 11  2  0
 20 15  2  0
 21 14  2  0
  6  7  1  0
 18 20  1  0
 19 21  1  0
 23 27  2  0
 24 28  1  0
 25 26  1  0
 26 22  2  0
 27 24  1  0
 28 25  1  0
 29 22  1  0
 30 23  1  0
 31 22  1  0
 32 23  1  0
 33 24  2  0
 34 35  1  0
 35 29  2  0
 36 33  1  0
 37 31  2  0
 38 32  2  0
 39 26  1  0
 40 27  1  0
 41 31  1  0
 42 32  1  0
 43 34  1  0
 44 33  1  0
 45 35  1  0
 46 36  1  0
 47 44  2  0
 48 43  2  0
 49 47  1  0
 50 45  2  0
 25 34  2  0
 48 50  1  0
 30 36  2  0
 46 49  2  0
 52 51  1  0
 53 51  1  0
 54 52  2  0
 55 53  2  0
 56 54  1  0
 57 55  1  0
 58 51  1  0
 59 58  1  0
 60 63  1  0
 61 53  1  0
 62 52  1  0
 63 59  1  0
 64 55  1  0
 65 54  1  0
 66 60  1  0
 67 60  1  0
 68 62  2  0
 69 61  2  0
 70 65  2  0
 71 64  2  0
 56 57  1  0
 68 70  1  0
 69 71  1  0
  6 72  1  0
  6 73  1  0
  7 74  1  0
  7 75  1  0
  8 76  1  0
  8 77  1  0
  9 78  1  0
  9 79  1  0
 11 80  1  0
 12 81  1  0
 13 82  1  0
 13 83  1  0
 14 84  1  0
 15 85  1  0
 16 86  1  0
 16 87  1  0
 16 88  1  0
 17 89  1  0
 17 90  1  0
 17 91  1  0
 18 92  1  0
 19 93  1  0
 20 94  1  0
 21 95  1  0
 28 96  1  0
 28 97  1  0
 29 98  1  0
 30 99  1  0
 39100  1  0
 40101  1  0
 41102  1  0
 42103  1  0
 43104  1  0
 44105  1  0
 45106  1  0
 46107  1  0
 47108  1  0
 48109  1  0
 49110  1  0
 50111  1  0
 56112  1  0
 56113  1  0
 57114  1  0
 57115  1  0
 58116  1  0
 58117  1  0
 59118  1  0
 59119  1  0
 61120  1  0
 62121  1  0
 63122  1  0
 63123  1  0
 64124  1  0
 65125  1  0
 66126  1  0
 66127  1  0
 66128  1  0
 67129  1  0
 67130  1  0
 67131  1  0
 68132  1  0
 69133  1  0
 70134  1  0
 71135  1  0
M  END
> <Uni-Dock RESULT> 
ENERGY=   -7.141  LOWER_BOUND=    7.599  UPPER_BOUND=   11.228
INTER + INTRA:          -7.141
INTER:                  -7.141
INTRA:                   0.000
UNBOUND:                 0.000

$$$$

     RDKit          3D

135142  0  0  0  0  0  0  0  0999 V2000
   48.8687    9.0292   15.1396 N   0  0  0  0  0  0  0  0  0  0  0  0
   49.7004   10.0522   14.5728 C   0  0  0  0  0  0  0  0  0  0  0  0
   48.4177    7.7769   14.5986 C   0  0  0  0  0  0  0  0  0  0  0  0
   50.2993    9.9780   13.2924 C   0  0  0  0  0  0  0  0  0  0  0  0
   48.1950    7.5543   13.2272 C   0  0  0  0  0  0  0  0  0  0  0  0
   50.0254    8.8828   12.2961 C   0  0  0  0  0  0  0  0  0  0  0  0
   48.5401    8.5875   12.1957 C   0  0  0  0  0  0  0  0  0  0  0  0
   48.1690    9.3671   16.4202 C   0  0  0  0  0  0  0  0  0  0  0  0
   49.0532    9.1128   17.6561 C   0  0  0  0  0  0  0  0  0  0  0  0
   47.6133   10.4904   19.2041 N   0  0  0  0  0  0  0  0  0  0  0  0
   48.1499    6.6770   15.4504 C   0  0  0  0  0  0  0  0  0  0  0  0
   50.0154   11.2262   15.3064 C   0  0  0  0  0  0  0  0  0  0  0  0
   48.2500    9.1853   18.9622 C   0  0  0  0  0  0  0  0  0  0  0  0
   47.6665    6.3270   12.7644 C   0  0  0  0  0  0  0  0  0  0  0  0
   51.1980   10.9830   12.8453 C   0  0  0  0  0  0  0  0  0  0  0  0
   46.6333   10.3750   20.2897 C   0  0  0  0  0  0  0  0  0  0  0  0
   48.5986   11.5207   19.5492 C   0  0  0  0  0  0  0  0  0  0  0  0
   50.8840   12.2264   14.8468 C   0  0  0  0  0  0  0  0  0  0  0  0
   47.6427    5.4576   14.9871 C   0  0  0  0  0  0  0  0  0  0  0  0
   51.4892   12.0987   13.6154 C   0  0  0  0  0  0  0  0  0  0  0  0
   47.3875    5.2862   13.6398 C   0  0  0  0  0  0  0  0  0  0  0  0
   50.9441    8.3879   12.9993 C   0  0  0  0  0  0  0  0  0  0  0  0
   48.5777    8.4217   18.6652 C   0  0  0  0  0  0  0  0  0  0  0  0
   48.6916   10.0985   16.8749 C   0  0  0  0  0  0  0  0  0  0  0  0
   49.2361    9.5216   14.3352 C   0  0  0  0  0  0  0  0  0  0  0  0
   50.5887    9.2337   14.0490 C   0  0  0  0  0  0  0  0  0  0  0  0
   48.8277    8.7667   17.3258 C   0  0  0  0  0  0  0  0  0  0  0  0
   48.9105   10.5348   15.4217 C   0  0  0  0  0  0  0  0  0  0  0  0
   49.9408    7.7900   12.2314 C   0  0  0  0  0  0  0  0  0  0  0  0
   48.2185    9.4179   19.5769 C   0  0  0  0  0  0  0  0  0  0  0  0
   52.3630    8.0683   12.7224 C   0  0  0  0  0  0  0  0  0  0  0  0
   48.6741    7.0408   19.2104 C   0  0  0  0  0  0  0  0  0  0  0  0
   48.3375   11.1159   17.8290 C   0  0  0  0  0  0  0  0  0  0  0  0
   48.2116    8.8750   13.5782 C   0  0  0  0  0  0  0  0  0  0  0  0
   48.5859    8.0108   12.5155 C   0  0  0  0  0  0  0  0  0  0  0  0
   48.1059   10.7528   19.1816 C   0  0  0  0  0  0  0  0  0  0  0  0
   53.2673    7.9241   13.5227 O   0  0  0  0  0  0  0  0  0  0  0  0
   48.5084    6.7133   20.3716 O   0  0  0  0  0  0  0  0  0  0  0  0
   51.5724    9.8024   14.8128 O   0  0  0  0  0  0  0  0  0  0  0  0
   49.2397    7.8169   16.4304 O   0  0  0  0  0  0  0  0  0  0  0  0
   52.5846    7.9297   11.3998 O   0  0  0  0  0  0  0  0  0  0  0  0
   48.9651    6.1173   18.2703 O   0  0  0  0  0  0  0  0  0  0  0  0
   46.8256    9.0316   13.8235 C   0  0  0  0  0  0  0  0  0  0  0  0
   48.2080   12.4926   17.5138 C   0  0  0  0  0  0  0  0  0  0  0  0
   47.6034    7.3659   11.7450 C   0  0  0  0  0  0  0  0  0  0  0  0
   47.7682   11.7260   20.1373 C   0  0  0  0  0  0  0  0  0  0  0  0
   47.8736   13.4520   18.4738 C   0  0  0  0  0  0  0  0  0  0  0  0
   45.8596    8.3811   13.0497 C   0  0  0  0  0  0  0  0  0  0  0  0
   47.6548   13.0678   19.7885 C   0  0  0  0  0  0  0  0  0  0  0  0
   46.2488    7.5508   12.0082 C   0  0  0  0  0  0  0  0  0  0  0  0
   49.1138    8.6474   15.3304 N   0  0  0  0  0  0  0  0  0  0  0  0
   50.1135    9.5294   14.8513 C   0  0  0  0  0  0  0  0  0  0  0  0
   48.4915    7.5859   14.6308 C   0  0  0  0  0  0  0  0  0  0  0  0
   50.2494    9.9157   13.4986 C   0  0  0  0  0  0  0  0  0  0  0  0
   47.8703    7.7821   13.3907 C   0  0  0  0  0  0  0  0  0  0  0  0
   49.3268    9.5037   12.3695 C   0  0  0  0  0  0  0  0  0  0  0  0
   47.8994    9.1395   12.7502 C   0  0  0  0  0  0  0  0  0  0  0  0
   48.5890    8.8324   16.7079 C   0  0  0  0  0  0  0  0  0  0  0  0
   47.8850   10.1884   16.8560 C   0  0  0  0  0  0  0  0  0  0  0  0
   48.0667   10.1781   19.3824 N   0  0  0  0  0  0  0  0  0  0  0  0
   48.4746    6.2913   15.1833 C   0  0  0  0  0  0  0  0  0  0  0  0
   51.0807   10.0354   15.7540 C   0  0  0  0  0  0  0  0  0  0  0  0
   47.1859   10.3433   18.2123 C   0  0  0  0  0  0  0  0  0  0  0  0
   47.2315    6.7099   12.7409 C   0  0  0  0  0  0  0  0  0  0  0  0
   51.3253   10.7535   13.1103 C   0  0  0  0  0  0  0  0  0  0  0  0
   47.2646   10.1662   20.6103 C   0  0  0  0  0  0  0  0  0  0  0  0
   49.0719   11.2410   19.4667 C   0  0  0  0  0  0  0  0  0  0  0  0
   52.1236   10.8776   15.3596 C   0  0  0  0  0  0  0  0  0  0  0  0
   47.8446    5.2283   14.5329 C   0  0  0  0  0  0  0  0  0  0  0  0
   52.2487   11.2365   14.0312 C   0  0  0  0  0  0  0  0  0  0  0  0
   47.2162    5.4402   13.3122 C   0  0  0  0  0  0  0  0  0  0  0  0
   50.6243    7.9985   12.5482 H   0  0  0  0  0  0  0  0  0  0  0  0
   50.3556    9.2055   11.2998 H   0  0  0  0  0  0  0  0  0  0  0  0
   47.9096    9.4771   12.3171 H   0  0  0  0  0  0  0  0  0  0  0  0
   48.3306    8.1960   11.1922 H   0  0  0  0  0  0  0  0  0  0  0  0
   47.8000   10.4002   16.3976 H   0  0  0  0  0  0  0  0  0  0  0  0
   47.2359    8.7937   16.5183 H   0  0  0  0  0  0  0  0  0  0  0  0
   49.5147    8.1209   17.5981 H   0  0  0  0  0  0  0  0  0  0  0  0
   49.8998    9.8029   17.6930 H   0  0  0  0  0  0  0  0  0  0  0  0
   48.3423    6.7373   16.5139 H   0  0  0  0  0  0  0  0  0  0  0  0
   49.5969   11.4157   16.2874 H   0  0  0  0  0  0  0  0  0  0  0  0
   48.9017    8.9108   19.8034 H   0  0  0  0  0  0  0  0  0  0  0  0
   47.4752    8.4078   18.9075 H   0  0  0  0  0  0  0  0  0  0  0  0
   47.4845    6.1758   11.7034 H   0  0  0  0  0  0  0  0  0  0  0  0
   51.6658   10.9002   11.8655 H   0  0  0  0  0  0  0  0  0  0  0  0
   46.1349   11.3351   20.4654 H   0  0  0  0  0  0  0  0  0  0  0  0
   45.8457    9.6609   20.0238 H   0  0  0  0  0  0  0  0  0  0  0  0
   47.0934   10.0484   21.2293 H   0  0  0  0  0  0  0  0  0  0  0  0
   48.1005   12.4817   19.7228 H   0  0  0  0  0  0  0  0  0  0  0  0
   49.3038   11.6890   18.7296 H   0  0  0  0  0  0  0  0  0  0  0  0
   49.1675   11.2622   20.4507 H   0  0  0  0  0  0  0  0  0  0  0  0
   51.0827   13.0961   15.4683 H   0  0  0  0  0  0  0  0  0  0  0  0
   47.4518    4.6483   15.6874 H   0  0  0  0  0  0  0  0  0  0  0  0
   52.1703   12.8604   13.2489 H   0  0  0  0  0  0  0  0  0  0  0  0
   46.9885    4.3472   13.2669 H   0  0  0  0  0  0  0  0  0  0  0  0
   49.7148   11.2845   15.4266 H   0  0  0  0  0  0  0  0  0  0  0  0
   48.0242   11.0950   15.0959 H   0  0  0  0  0  0  0  0  0  0  0  0
   50.2217    7.1222   11.4182 H   0  0  0  0  0  0  0  0  0  0  0  0
   48.0337    9.1458   20.6167 H   0  0  0  0  0  0  0  0  0  0  0  0
   51.3439    9.6087   15.7423 H   0  0  0  0  0  0  0  0  0  0  0  0
   49.1847    6.9337   16.8505 H   0  0  0  0  0  0  0  0  0  0  0  0
   53.5484    7.7575   11.3538 H   0  0  0  0  0  0  0  0  0  0  0  0
   48.9863    5.2774   18.7835 H   0  0  0  0  0  0  0  0  0  0  0  0
   46.4703    9.6566   14.6391 H   0  0  0  0  0  0  0  0  0  0  0  0
   48.3740   12.8537   16.5012 H   0  0  0  0  0  0  0  0  0  0  0  0
   47.8899    6.7044   10.9297 H   0  0  0  0  0  0  0  0  0  0  0  0
   47.5959   11.4441   21.1758 H   0  0  0  0  0  0  0  0  0  0  0  0
   47.7891   14.4981   18.1898 H   0  0  0  0  0  0  0  0  0  0  0  0
   44.8037    8.5240   13.2667 H   0  0  0  0  0  0  0  0  0  0  0  0
   47.3970   13.8092   20.5392 H   0  0  0  0  0  0  0  0  0  0  0  0
   45.5024    7.0432   11.4049 H   0  0  0  0  0  0  0  0  0  0  0  0
   49.8029    8.6785   11.8225 H   0  0  0  0  0  0  0  0  0  0  0  0
   49.2532   10.3476   11.6698 H   0  0  0  0  0  0  0  0  0  0  0  0
   47.4468    9.8843   13.4164 H   0  0  0  0  0  0  0  0  0  0  0  0
   47.2848    9.1307   11.8398 H   0  0  0  0  0  0  0  0  0  0  0  0
   49.3859    8.7028   17.4475 H   0  0  0  0  0  0  0  0  0  0  0  0
   47.8473    8.0620   16.9593 H   0  0  0  0  0  0  0  0  0  0  0  0
   47.1260   10.2857   16.0684 H   0  0  0  0  0  0  0  0  0  0  0  0
   48.5843   11.0167   16.6986 H   0  0  0  0  0  0  0  0  0  0  0  0
   48.9800    6.1007   16.1261 H   0  0  0  0  0  0  0  0  0  0  0  0
   51.0621    9.7488   16.8012 H   0  0  0  0  0  0  0  0  0  0  0  0
   46.3916    9.5846   18.2561 H   0  0  0  0  0  0  0  0  0  0  0  0
   46.6833   11.3186   18.2434 H   0  0  0  0  0  0  0  0  0  0  0  0
   46.7464    6.8620   11.7786 H   0  0  0  0  0  0  0  0  0  0  0  0
   51.4403   11.0388   12.0657 H   0  0  0  0  0  0  0  0  0  0  0  0
   46.5342    9.3499   20.5861 H   0  0  0  0  0  0  0  0  0  0  0  0
   47.9001    9.9909   21.4843 H   0  0  0  0  0  0  0  0  0  0  0  0
   46.7248   11.1078   20.7568 H   0  0  0  0  0  0  0  0  0  0  0  0
   49.7646   11.1988   18.6212 H   0  0  0  0  0  0  0  0  0  0  0  0
   49.6878   11.1161   20.3654 H   0  0  0  0  0  0  0  0  0  0  0  0
   48.6194   12.2380   19.4968 H   0  0  0  0  0  0  0  0  0  0  0  0
   52.8425   11.2326   16.0928 H   0  0  0  0  0  0  0  0  0  0  0  0
   47.8505    4.2382   14.9805 H   0  0  0  0  0  0  0  0  0  0  0  0
   53.0599   11.8805   13.7063 H   0  0  0  0  0  0  0  0  0  0  0  0
   46.7249    4.6177   12.7999 H   0  0  0  0  0  0  0  0  0  0  0  0
  2  1  1  0
  3  1  1  0
  4  2  2  0
  5  3  2  0
  6  4  1  0
  7  5  1  0
  8  1  1  0
  9  8  1  0
 10 13  1  0
 11  3  1  0
 12  2  1  0
 13  9  1  0
 14  5  1  0
 15  4  1  0
 16 10  1  0
 17 10  1  0
 18 12  2  0
 19 11  2  0
 20 15  2  0
 21 14  2  0
  6  7  1  0
 18 20  1  0
 19 21  1  0
 23 27  2  0
 24 28  1  0
 25 26  1  0
 26 22  2  0
 27 24  1  0
 28 25  1  0
 29 22  1  0
 30 23  1  0
 31 22  1  0
 32 23  1  0
 33 24  2  0
 34 35  1  0
 35 29  2  0
 36 33  1  0
 37 31  2  0
 38 32  2  0
 39 26  1  0
 40 27  1  0
 41 31  1  0
 42 32  1  0
 43 34  1  0
 44 33  1  0
 45 35  1  0
 46 36  1  0
 47 44  2  0
 48 43  2  0
 49 47  1  0
 50 45  2  0
 25 34  2  0
 48 50  1  0
 30 36  2  0
 46 49  2  0
 52 51  1  0
 53 51  1  0
 54 52  2  0
 55 53  2  0
 56 54  1  0
 57 55  1  0
 58 51  1  0
 59 58  1  0
 60 63  1  0
 61 53  1  0
 62 52  1  0
 63 59  1  0
 64 55  1  0
 65 54  1  0
 66 60  1  0
 67 60  1  0
 68 62  2  0
 69 61  2  0
 70 65  2  0
 71 64  2  0
 56 57  1  0
 68 70  1  0
 69 71  1  0
  6 72  1  0
  6 73  1  0
  7 74  1  0
  7 75  1  0
  8 76  1  0
  8 77  1  0
  9 78  1  0
  9 79  1  0
 11 80  1  0
 12 81  1  0
 13 82  1  0
 13 83  1  0
 14 84  1  0
 15 85  1  0
 16 86  1  0
 16 87  1  0
 16 88  1  0
 17 89  1  0
 17 90  1  0
 17 91  1  0
 18 92  1  0
 19 93  1  0
 20 94  1  0
 21 95  1  0
 28 96  1  0
 28 97  1  0
 29 98  1  0
 30 99  1  0
 39100  1  0
 40101  1  0
 41102  1  0
 42103  1  0
 43104  1  0
 44105  1  0
 45106  1  0
 46107  1  0
 47108  1  0
 48109  1  0
 49110  1  0
 50111  1  0
 56112  1  0
 56113  1  0
 57114  1  0
 57115  1  0
 58116  1  0
 58117  1  0
 59118  1  0
 59119  1  0
 61120  1  0
 62121  1  0
 63122  1  0
 63123  1  0
 64124  1  0
 65125  1  0
 66126  1  0
 66127  1  0
 66128  1  0
 67129  1  0
 67130  1  0
 67131  1  0
 68132  1  0
 69133  1  0
 70134  1  0
 71135  1  0
M  END
> <Uni-Dock RESULT> 
ENERGY=   -7.062  LOWER_BOUND=    2.870  UPPER_BOUND=    6.709
INTER + INTRA:          -7.062
INTER:                  -7.062
INTRA:                   0.000
UNBOUND:                 0.000

$$$$

     RDKit          3D

135142  0  0  0  0  0  0  0  0999 V2000
   49.1259    7.5450   17.8451 N   0  0  0  0  0  0  0  0  0  0  0  0
   48.7317    6.1732   17.9947 C   0  0  0  0  0  0  0  0  0  0  0  0
   49.4731    8.5361   18.8257 C   0  0  0  0  0  0  0  0  0  0  0  0
   48.6482    5.4957   19.2347 C   0  0  0  0  0  0  0  0  0  0  0  0
   48.9405    8.5654   20.1277 C   0  0  0  0  0  0  0  0  0  0  0  0
   48.8198    6.1636   20.5733 C   0  0  0  0  0  0  0  0  0  0  0  0
   48.0516    7.4708   20.6398 C   0  0  0  0  0  0  0  0  0  0  0  0
   48.9690    8.1425   16.4805 C   0  0  0  0  0  0  0  0  0  0  0  0
   50.1819    7.8593   15.5735 C   0  0  0  0  0  0  0  0  0  0  0  0
   48.9690    8.4607   13.4442 N   0  0  0  0  0  0  0  0  0  0  0  0
   50.3839    9.5746   18.5115 C   0  0  0  0  0  0  0  0  0  0  0  0
   48.4287    5.3732   16.8617 C   0  0  0  0  0  0  0  0  0  0  0  0
   50.1492    8.7012   14.2905 C   0  0  0  0  0  0  0  0  0  0  0  0
   49.2534    9.6173   21.0196 C   0  0  0  0  0  0  0  0  0  0  0  0
   48.3555    4.1069   19.2918 C   0  0  0  0  0  0  0  0  0  0  0  0
   48.8650    9.5078   12.4219 C   0  0  0  0  0  0  0  0  0  0  0  0
   49.0272    7.1494   12.7895 C   0  0  0  0  0  0  0  0  0  0  0  0
   48.1154    4.0081   16.9289 C   0  0  0  0  0  0  0  0  0  0  0  0
   50.7046   10.6051   19.4025 C   0  0  0  0  0  0  0  0  0  0  0  0
   48.0913    3.3677   18.1489 C   0  0  0  0  0  0  0  0  0  0  0  0
   50.1269   10.6339   20.6575 C   0  0  0  0  0  0  0  0  0  0  0  0
   50.0051    5.8905   20.2511 C   0  0  0  0  0  0  0  0  0  0  0  0
   50.7502    8.8454   14.9204 C   0  0  0  0  0  0  0  0  0  0  0  0
   48.9830    7.3909   15.8099 C   0  0  0  0  0  0  0  0  0  0  0  0
   48.7050    6.8030   18.3900 C   0  0  0  0  0  0  0  0  0  0  0  0
   49.6298    5.8702   18.9086 C   0  0  0  0  0  0  0  0  0  0  0  0
   50.1432    8.1748   15.9962 C   0  0  0  0  0  0  0  0  0  0  0  0
   48.2501    6.6668   16.9451 C   0  0  0  0  0  0  0  0  0  0  0  0
   49.4771    6.8712   21.0955 C   0  0  0  0  0  0  0  0  0  0  0  0
   50.2166    8.7101   13.6360 C   0  0  0  0  0  0  0  0  0  0  0  0
   50.9964    4.9273   20.7819 C   0  0  0  0  0  0  0  0  0  0  0  0
   51.9561    9.7085   15.0394 C   0  0  0  0  0  0  0  0  0  0  0  0
   48.4550    7.2475   14.4790 C   0  0  0  0  0  0  0  0  0  0  0  0
   48.2007    7.8316   19.2435 C   0  0  0  0  0  0  0  0  0  0  0  0
   48.5952    7.8456   20.6075 C   0  0  0  0  0  0  0  0  0  0  0  0
   49.0909    7.9173   13.4010 C   0  0  0  0  0  0  0  0  0  0  0  0
   51.9751    4.4747   20.2195 O   0  0  0  0  0  0  0  0  0  0  0  0
   52.5333   10.2673   14.1241 O   0  0  0  0  0  0  0  0  0  0  0  0
   50.1637    4.9214   18.0785 O   0  0  0  0  0  0  0  0  0  0  0  0
   50.6851    8.2446   17.2513 O   0  0  0  0  0  0  0  0  0  0  0  0
   50.7039    4.5721   22.0492 O   0  0  0  0  0  0  0  0  0  0  0  0
   52.3870    9.8473   16.3108 O   0  0  0  0  0  0  0  0  0  0  0  0
   47.3273    8.8606   18.8148 C   0  0  0  0  0  0  0  0  0  0  0  0
   47.3224    6.4589   14.1523 C   0  0  0  0  0  0  0  0  0  0  0  0
   48.1106    8.8378   21.4767 C   0  0  0  0  0  0  0  0  0  0  0  0
   48.6035    7.7881   12.0893 C   0  0  0  0  0  0  0  0  0  0  0  0
   46.8482    6.3363   12.8431 C   0  0  0  0  0  0  0  0  0  0  0  0
   46.8555    9.8429   19.6911 C   0  0  0  0  0  0  0  0  0  0  0  0
   47.4912    7.0011   11.8095 C   0  0  0  0  0  0  0  0  0  0  0  0
   47.2448    9.8293   21.0230 C   0  0  0  0  0  0  0  0  0  0  0  0
   49.6115    7.6225   17.8644 N   0  0  0  0  0  0  0  0  0  0  0  0
   49.4520    6.2228   18.0136 C   0  0  0  0  0  0  0  0  0  0  0  0
   49.6605    8.5999   18.8870 C   0  0  0  0  0  0  0  0  0  0  0  0
   48.7407    5.6132   19.0719 C   0  0  0  0  0  0  0  0  0  0  0  0
   48.6492    8.7134   19.8496 C   0  0  0  0  0  0  0  0  0  0  0  0
   47.9947    6.3472   20.1677 C   0  0  0  0  0  0  0  0  0  0  0  0
   47.4996    7.7479   19.8389 C   0  0  0  0  0  0  0  0  0  0  0  0
   49.7052    8.1958   16.4969 C   0  0  0  0  0  0  0  0  0  0  0  0
   48.4115    7.9580   15.7058 C   0  0  0  0  0  0  0  0  0  0  0  0
   49.5329    8.3327   13.4658 N   0  0  0  0  0  0  0  0  0  0  0  0
   50.7404    9.5005   18.9507 C   0  0  0  0  0  0  0  0  0  0  0  0
   50.0728    5.3523   17.0845 C   0  0  0  0  0  0  0  0  0  0  0  0
   48.4081    8.6800   14.3527 C   0  0  0  0  0  0  0  0  0  0  0  0
   48.7148    9.7200   20.8307 C   0  0  0  0  0  0  0  0  0  0  0  0
   48.6945    4.1993   19.1668 C   0  0  0  0  0  0  0  0  0  0  0  0
   49.5267    9.2087   12.2894 C   0  0  0  0  0  0  0  0  0  0  0  0
   49.4782    6.9339   13.0327 C   0  0  0  0  0  0  0  0  0  0  0  0
   50.0006    3.9601   17.1795 C   0  0  0  0  0  0  0  0  0  0  0  0
   50.8050   10.4946   19.9291 C   0  0  0  0  0  0  0  0  0  0  0  0
   49.3106    3.3802   18.2269 C   0  0  0  0  0  0  0  0  0  0  0  0
   49.7864   10.6082   20.8669 C   0  0  0  0  0  0  0  0  0  0  0  0
   49.8890    6.2806   20.7911 H   0  0  0  0  0  0  0  0  0  0  0  0
   48.4139    5.5135   21.3596 H   0  0  0  0  0  0  0  0  0  0  0  0
   47.1072    7.4503   20.0818 H   0  0  0  0  0  0  0  0  0  0  0  0
   47.7867    7.6654   21.6867 H   0  0  0  0  0  0  0  0  0  0  0  0
   48.0342    7.8044   16.0161 H   0  0  0  0  0  0  0  0  0  0  0  0
   48.8114    9.2288   16.5457 H   0  0  0  0  0  0  0  0  0  0  0  0
   51.1148    8.0848   16.1018 H   0  0  0  0  0  0  0  0  0  0  0  0
   50.2604    6.7973   15.3281 H   0  0  0  0  0  0  0  0  0  0  0  0
   50.8848    9.6039   17.5523 H   0  0  0  0  0  0  0  0  0  0  0  0
   48.4286    5.7815   15.8583 H   0  0  0  0  0  0  0  0  0  0  0  0
   51.0742    8.5306   13.7221 H   0  0  0  0  0  0  0  0  0  0  0  0
   50.1673    9.7565   14.5971 H   0  0  0  0  0  0  0  0  0  0  0  0
   48.8212    9.6350   22.0169 H   0  0  0  0  0  0  0  0  0  0  0  0
   48.3150    3.5967   20.2529 H   0  0  0  0  0  0  0  0  0  0  0  0
   47.9771    9.3536   11.7983 H   0  0  0  0  0  0  0  0  0  0  0  0
   48.7488   10.4923   12.8889 H   0  0  0  0  0  0  0  0  0  0  0  0
   49.7445    9.5367   11.7684 H   0  0  0  0  0  0  0  0  0  0  0  0
   48.1380    6.9940   12.1674 H   0  0  0  0  0  0  0  0  0  0  0  0
   49.0294    6.3370   13.5226 H   0  0  0  0  0  0  0  0  0  0  0  0
   49.9136    7.0455   12.1518 H   0  0  0  0  0  0  0  0  0  0  0  0
   47.9002    3.4581   16.0161 H   0  0  0  0  0  0  0  0  0  0  0  0
   51.4078   11.3794   19.1060 H   0  0  0  0  0  0  0  0  0  0  0  0
   47.8584    2.3096   18.2168 H   0  0  0  0  0  0  0  0  0  0  0  0
   50.3622   11.4308   21.3573 H   0  0  0  0  0  0  0  0  0  0  0  0
   48.2494    5.5953   16.6982 H   0  0  0  0  0  0  0  0  0  0  0  0
   47.1906    6.9517   16.9042 H   0  0  0  0  0  0  0  0  0  0  0  0
   49.7798    6.8901   22.1415 H   0  0  0  0  0  0  0  0  0  0  0  0
   50.6965    9.2260   12.8035 H   0  0  0  0  0  0  0  0  0  0  0  0
   50.5198    5.4019   17.3065 H   0  0  0  0  0  0  0  0  0  0  0  0
   51.4119    8.9015   17.2516 H   0  0  0  0  0  0  0  0  0  0  0  0
   51.4034    3.9195   22.2631 H   0  0  0  0  0  0  0  0  0  0  0  0
   53.1691   10.4379   16.2167 H   0  0  0  0  0  0  0  0  0  0  0  0
   47.0079    8.9256   17.7776 H   0  0  0  0  0  0  0  0  0  0  0  0
   46.7817    5.9097   14.9199 H   0  0  0  0  0  0  0  0  0  0  0  0
   48.4118    8.8481   22.5225 H   0  0  0  0  0  0  0  0  0  0  0  0
   49.0973    8.3000   11.2635 H   0  0  0  0  0  0  0  0  0  0  0  0
   45.9786    5.7173   12.6362 H   0  0  0  0  0  0  0  0  0  0  0  0
   46.1862   10.6187   19.3274 H   0  0  0  0  0  0  0  0  0  0  0  0
   47.1286    6.9076   10.7900 H   0  0  0  0  0  0  0  0  0  0  0  0
   46.8816   10.5900   21.7071 H   0  0  0  0  0  0  0  0  0  0  0  0
   48.6308    6.3629   21.0632 H   0  0  0  0  0  0  0  0  0  0  0  0
   47.1034    5.7571   20.4217 H   0  0  0  0  0  0  0  0  0  0  0  0
   46.9797    7.7862   18.8738 H   0  0  0  0  0  0  0  0  0  0  0  0
   46.7612    8.0457   20.5956 H   0  0  0  0  0  0  0  0  0  0  0  0
   50.5830    7.8053   15.9717 H   0  0  0  0  0  0  0  0  0  0  0  0
   49.8604    9.2828   16.5297 H   0  0  0  0  0  0  0  0  0  0  0  0
   47.5600    8.3286   16.2919 H   0  0  0  0  0  0  0  0  0  0  0  0
   48.2280    6.8879   15.5596 H   0  0  0  0  0  0  0  0  0  0  0  0
   51.5579    9.4134   18.2401 H   0  0  0  0  0  0  0  0  0  0  0  0
   50.6691    5.7497   16.2687 H   0  0  0  0  0  0  0  0  0  0  0  0
   48.4404    9.7589   14.5608 H   0  0  0  0  0  0  0  0  0  0  0  0
   47.4501    8.4908   13.8516 H   0  0  0  0  0  0  0  0  0  0  0  0
   47.9282    9.8105   21.5774 H   0  0  0  0  0  0  0  0  0  0  0  0
   48.1603    3.7286   19.9907 H   0  0  0  0  0  0  0  0  0  0  0  0
   49.6108   10.2589   12.5900 H   0  0  0  0  0  0  0  0  0  0  0  0
   50.3878    8.9977   11.6471 H   0  0  0  0  0  0  0  0  0  0  0  0
   48.6139    9.0918   11.6957 H   0  0  0  0  0  0  0  0  0  0  0  0
   49.6041    6.2522   13.8788 H   0  0  0  0  0  0  0  0  0  0  0  0
   50.3029    6.7129   12.3444 H   0  0  0  0  0  0  0  0  0  0  0  0
   48.5365    6.6927   12.5281 H   0  0  0  0  0  0  0  0  0  0  0  0
   50.5009    3.3382   16.4424 H   0  0  0  0  0  0  0  0  0  0  0  0
   51.6527   11.1739   19.9572 H   0  0  0  0  0  0  0  0  0  0  0  0
   49.2548    2.3003   18.3219 H   0  0  0  0  0  0  0  0  0  0  0  0
   49.8305   11.3786   21.6316 H   0  0  0  0  0  0  0  0  0  0  0  0
  2  1  1  0
  3  1  1  0
  4  2  2  0
  5  3  2  0
  6  4  1  0
  7  5  1  0
  8  1  1  0
  9  8  1  0
 10 13  1  0
 11  3  1  0
 12  2  1  0
 13  9  1  0
 14  5  1  0
 15  4  1  0
 16 10  1  0
 17 10  1  0
 18 12  2  0
 19 11  2  0
 20 15  2  0
 21 14  2  0
  6  7  1  0
 18 20  1  0
 19 21  1  0
 23 27  2  0
 24 28  1  0
 25 26  1  0
 26 22  2  0
 27 24  1  0
 28 25  1  0
 29 22  1  0
 30 23  1  0
 31 22  1  0
 32 23  1  0
 33 24  2  0
 34 35  1  0
 35 29  2  0
 36 33  1  0
 37 31  2  0
 38 32  2  0
 39 26  1  0
 40 27  1  0
 41 31  1  0
 42 32  1  0
 43 34  1  0
 44 33  1  0
 45 35  1  0
 46 36  1  0
 47 44  2  0
 48 43  2  0
 49 47  1  0
 50 45  2  0
 25 34  2  0
 48 50  1  0
 30 36  2  0
 46 49  2  0
 52 51  1  0
 53 51  1  0
 54 52  2  0
 55 53  2  0
 56 54  1  0
 57 55  1  0
 58 51  1  0
 59 58  1  0
 60 63  1  0
 61 53  1  0
 62 52  1  0
 63 59  1  0
 64 55  1  0
 65 54  1  0
 66 60  1  0
 67 60  1  0
 68 62  2  0
 69 61  2  0
 70 65  2  0
 71 64  2  0
 56 57  1  0
 68 70  1  0
 69 71  1  0
  6 72  1  0
  6 73  1  0
  7 74  1  0
  7 75  1  0
  8 76  1  0
  8 77  1  0
  9 78  1  0
  9 79  1  0
 11 80  1  0
 12 81  1  0
 13 82  1  0
 13 83  1  0
 14 84  1  0
 15 85  1  0
 16 86  1  0
 16 87  1  0
 16 88  1  0
 17 89  1  0
 17 90  1  0
 17 91  1  0
 18 92  1  0
 19 93  1  0
 20 94  1  0
 21 95  1  0
 28 96  1  0
 28 97  1  0
 29 98  1  0
 30 99  1  0
 39100  1  0
 40101  1  0
 41102  1  0
 42103  1  0
 43104  1  0
 44105  1  0
 45106  1  0
 46107  1  0
 47108  1  0
 48109  1  0
 49110  1  0
 50111  1  0
 56112  1  0
 56113  1  0
 57114  1  0
 57115  1  0
 58116  1  0
 58117  1  0
 59118  1  0
 59119  1  0
 61120  1  0
 62121  1  0
 63122  1  0
 63123  1  0
 64124  1  0
 65125  1  0
 66126  1  0
 66127  1  0
 66128  1  0
 67129  1  0
 67130  1  0
 67131  1  0
 68132  1  0
 69133  1  0
 70134  1  0
 71135  1  0
M  END
> <Uni-Dock RESULT> 
ENERGY=   -7.046  LOWER_BOUND=    1.815  UPPER_BOUND=    4.700
INTER + INTRA:          -7.046
INTER:                  -7.046
INTRA:                   0.000
UNBOUND:                 0.000

$$$$

     RDKit          3D

135142  0  0  0  0  0  0  0  0999 V2000
   50.3655    7.5825   18.2840 N   0  0  0  0  0  0  0  0  0  0  0  0
   49.6887    6.7362   19.2249 C   0  0  0  0  0  0  0  0  0  0  0  0
   51.4562    7.3103   17.3892 C   0  0  0  0  0  0  0  0  0  0  0  0
   49.9793    5.3648   19.4204 C   0  0  0  0  0  0  0  0  0  0  0  0
   52.4659    6.3669   17.6543 C   0  0  0  0  0  0  0  0  0  0  0  0
   51.1339    4.6474   18.7728 C   0  0  0  0  0  0  0  0  0  0  0  0
   52.4082    5.4678   18.8538 C   0  0  0  0  0  0  0  0  0  0  0  0
   50.0549    9.0463   18.3547 C   0  0  0  0  0  0  0  0  0  0  0  0
   48.7976    9.4185   17.5457 C   0  0  0  0  0  0  0  0  0  0  0  0
   48.5170   11.6659   18.6580 N   0  0  0  0  0  0  0  0  0  0  0  0
   51.5801    8.0150   16.1665 C   0  0  0  0  0  0  0  0  0  0  0  0
   48.6210    7.2337   20.0174 C   0  0  0  0  0  0  0  0  0  0  0  0
   48.6462   10.9375   17.3853 C   0  0  0  0  0  0  0  0  0  0  0  0
   53.5621    6.2062   16.7755 C   0  0  0  0  0  0  0  0  0  0  0  0
   49.1923    4.5669   20.2930 C   0  0  0  0  0  0  0  0  0  0  0  0
   48.6884   13.1051   18.4301 C   0  0  0  0  0  0  0  0  0  0  0  0
   47.2154   11.4281   19.2911 C   0  0  0  0  0  0  0  0  0  0  0  0
   47.8651    6.4445   20.8961 C   0  0  0  0  0  0  0  0  0  0  0  0
   52.6578    7.8415   15.2906 C   0  0  0  0  0  0  0  0  0  0  0  0
   48.1431    5.1010   21.0255 C   0  0  0  0  0  0  0  0  0  0  0  0
   53.6600    6.9426   15.6026 C   0  0  0  0  0  0  0  0  0  0  0  0
   50.2339    4.5605   17.8977 C   0  0  0  0  0  0  0  0  0  0  0  0
   48.8419   10.4195   16.6983 C   0  0  0  0  0  0  0  0  0  0  0  0
   49.1467    9.1499   18.7780 C   0  0  0  0  0  0  0  0  0  0  0  0
   50.3600    6.7855   18.9079 C   0  0  0  0  0  0  0  0  0  0  0  0
   49.6106    5.6859   18.4349 C   0  0  0  0  0  0  0  0  0  0  0  0
   49.2750    9.2669   17.3762 C   0  0  0  0  0  0  0  0  0  0  0  0
   49.6335    7.9390   19.5823 C   0  0  0  0  0  0  0  0  0  0  0  0
   51.6278    4.5307   17.7992 C   0  0  0  0  0  0  0  0  0  0  0  0
   48.2439   11.4572   17.4181 C   0  0  0  0  0  0  0  0  0  0  0  0
   49.4412    3.4231   17.3780 C   0  0  0  0  0  0  0  0  0  0  0  0
   48.9652   10.6286   15.2305 C   0  0  0  0  0  0  0  0  0  0  0  0
   48.5138   10.2196   19.5033 C   0  0  0  0  0  0  0  0  0  0  0  0
   51.7813    6.7721   18.7655 C   0  0  0  0  0  0  0  0  0  0  0  0
   52.4043    5.6228   18.2112 C   0  0  0  0  0  0  0  0  0  0  0  0
   48.0660   11.3688   18.8006 C   0  0  0  0  0  0  0  0  0  0  0  0
   48.3713    3.4587   16.8008 O   0  0  0  0  0  0  0  0  0  0  0  0
   48.5617   11.5928   14.6055 O   0  0  0  0  0  0  0  0  0  0  0  0
   48.2442    5.7217   18.5119 O   0  0  0  0  0  0  0  0  0  0  0  0
   49.8076    8.2137   16.6828 O   0  0  0  0  0  0  0  0  0  0  0  0
   50.0610    2.2483   17.6090 O   0  0  0  0  0  0  0  0  0  0  0  0
   49.6037    9.6196   14.6016 O   0  0  0  0  0  0  0  0  0  0  0  0
   52.6258    7.8467   19.1368 C   0  0  0  0  0  0  0  0  0  0  0  0
   48.2888   10.2082   20.9036 C   0  0  0  0  0  0  0  0  0  0  0  0
   53.8011    5.5728   18.0655 C   0  0  0  0  0  0  0  0  0  0  0  0
   47.4358   12.4246   19.4809 C   0  0  0  0  0  0  0  0  0  0  0  0
   47.6587   11.2637   21.5690 C   0  0  0  0  0  0  0  0  0  0  0  0
   54.0142    7.7832   18.9833 C   0  0  0  0  0  0  0  0  0  0  0  0
   47.2301   12.3734   20.8558 C   0  0  0  0  0  0  0  0  0  0  0  0
   54.6019    6.6446   18.4506 C   0  0  0  0  0  0  0  0  0  0  0  0
   50.2138    7.5345   17.8183 N   0  0  0  0  0  0  0  0  0  0  0  0
   49.4133    6.6352   18.5649 C   0  0  0  0  0  0  0  0  0  0  0  0
   51.4520    7.2680   17.1864 C   0  0  0  0  0  0  0  0  0  0  0  0
   49.9244    5.5483   19.3100 C   0  0  0  0  0  0  0  0  0  0  0  0
   52.5358    6.7215   17.8856 C   0  0  0  0  0  0  0  0  0  0  0  0
   51.3918    5.2095   19.4773 C   0  0  0  0  0  0  0  0  0  0  0  0
   52.3800    6.3576   19.3337 C   0  0  0  0  0  0  0  0  0  0  0  0
   49.7736    8.9467   17.6794 C   0  0  0  0  0  0  0  0  0  0  0  0
   49.7286    9.6504   19.0428 C   0  0  0  0  0  0  0  0  0  0  0  0
   48.1912   11.4854   18.2151 N   0  0  0  0  0  0  0  0  0  0  0  0
   51.6249    7.5632   15.8209 C   0  0  0  0  0  0  0  0  0  0  0  0
   48.0046    6.7816   18.5446 C   0  0  0  0  0  0  0  0  0  0  0  0
   49.4416   11.1521   18.9206 C   0  0  0  0  0  0  0  0  0  0  0  0
   53.7626    6.5025   17.2320 C   0  0  0  0  0  0  0  0  0  0  0  0
   49.0325    4.6665   19.9710 C   0  0  0  0  0  0  0  0  0  0  0  0
   48.1130   12.9342   18.0004 C   0  0  0  0  0  0  0  0  0  0  0  0
   47.0081   11.0373   18.9545 C   0  0  0  0  0  0  0  0  0  0  0  0
   47.1392    5.9162   19.2190 C   0  0  0  0  0  0  0  0  0  0  0  0
   52.8420    7.3394   15.1742 C   0  0  0  0  0  0  0  0  0  0  0  0
   47.6548    4.8519   19.9335 C   0  0  0  0  0  0  0  0  0  0  0  0
   53.9148    6.8140   15.8836 C   0  0  0  0  0  0  0  0  0  0  0  0
   50.8647    4.3700   17.7457 H   0  0  0  0  0  0  0  0  0  0  0  0
   51.3243    3.7069   19.3067 H   0  0  0  0  0  0  0  0  0  0  0  0
   52.4913    6.0538   19.7775 H   0  0  0  0  0  0  0  0  0  0  0  0
   53.2644    4.7816   18.8462 H   0  0  0  0  0  0  0  0  0  0  0  0
   49.9706    9.3730   19.3987 H   0  0  0  0  0  0  0  0  0  0  0  0
   50.9059    9.6436   17.9967 H   0  0  0  0  0  0  0  0  0  0  0  0
   48.8426    8.9760   16.5445 H   0  0  0  0  0  0  0  0  0  0  0  0
   47.8942    8.9923   17.9890 H   0  0  0  0  0  0  0  0  0  0  0  0
   50.8229    8.7220   15.8527 H   0  0  0  0  0  0  0  0  0  0  0  0
   48.3201    8.2738   19.9817 H   0  0  0  0  0  0  0  0  0  0  0  0
   47.7897   11.1486   16.7299 H   0  0  0  0  0  0  0  0  0  0  0  0
   49.5374   11.2954   16.8509 H   0  0  0  0  0  0  0  0  0  0  0  0
   54.3430    5.4848   17.0021 H   0  0  0  0  0  0  0  0  0  0  0  0
   49.4170    3.5086   20.4164 H   0  0  0  0  0  0  0  0  0  0  0  0
   48.6170   13.6580   19.3736 H   0  0  0  0  0  0  0  0  0  0  0  0
   49.6837   13.3149   18.0223 H   0  0  0  0  0  0  0  0  0  0  0  0
   47.9394   13.5063   17.7378 H   0  0  0  0  0  0  0  0  0  0  0  0
   47.1446   11.9793   20.2361 H   0  0  0  0  0  0  0  0  0  0  0  0
   47.0826   10.3722   19.5460 H   0  0  0  0  0  0  0  0  0  0  0  0
   46.3816   11.7393   18.6500 H   0  0  0  0  0  0  0  0  0  0  0  0
   47.0567    6.8950   21.4666 H   0  0  0  0  0  0  0  0  0  0  0  0
   52.7035    8.4129   14.3669 H   0  0  0  0  0  0  0  0  0  0  0  0
   47.5620    4.4751   21.6954 H   0  0  0  0  0  0  0  0  0  0  0  0
   54.5052    6.8019   14.9349 H   0  0  0  0  0  0  0  0  0  0  0  0
   48.7580    7.5211   20.0998 H   0  0  0  0  0  0  0  0  0  0  0  0
   50.2758    8.3040   20.3945 H   0  0  0  0  0  0  0  0  0  0  0  0
   52.1110    3.6540   17.3702 H   0  0  0  0  0  0  0  0  0  0  0  0
   47.9022   12.3457   16.8859 H   0  0  0  0  0  0  0  0  0  0  0  0
   47.9683    6.5610   18.0958 H   0  0  0  0  0  0  0  0  0  0  0  0
   49.9342    8.4756   15.7473 H   0  0  0  0  0  0  0  0  0  0  0  0
   49.4273    1.5902   17.2537 H   0  0  0  0  0  0  0  0  0  0  0  0
   49.6057    9.9104   13.6610 H   0  0  0  0  0  0  0  0  0  0  0  0
   52.2124    8.7672   19.5417 H   0  0  0  0  0  0  0  0  0  0  0  0
   48.5973    9.3622   21.5139 H   0  0  0  0  0  0  0  0  0  0  0  0
   54.2790    4.6915   17.6417 H   0  0  0  0  0  0  0  0  0  0  0  0
   47.0890   13.3032   18.9373 H   0  0  0  0  0  0  0  0  0  0  0  0
   47.5021   11.2120   22.6437 H   0  0  0  0  0  0  0  0  0  0  0  0
   54.6322    8.6276   19.2788 H   0  0  0  0  0  0  0  0  0  0  0  0
   46.7378   13.1954   21.3671 H   0  0  0  0  0  0  0  0  0  0  0  0
   55.6794    6.5908   18.3290 H   0  0  0  0  0  0  0  0  0  0  0  0
   51.6376    4.3988   18.7780 H   0  0  0  0  0  0  0  0  0  0  0  0
   51.5312    4.8080   20.4905 H   0  0  0  0  0  0  0  0  0  0  0  0
   52.0793    7.2367   19.9166 H   0  0  0  0  0  0  0  0  0  0  0  0
   53.3495    6.0388   19.7399 H   0  0  0  0  0  0  0  0  0  0  0  0
   48.8126    9.0042   17.1578 H   0  0  0  0  0  0  0  0  0  0  0  0
   50.4673    9.5208   17.0500 H   0  0  0  0  0  0  0  0  0  0  0  0
   50.6995    9.5286   19.5410 H   0  0  0  0  0  0  0  0  0  0  0  0
   48.9935    9.1816   19.7061 H   0  0  0  0  0  0  0  0  0  0  0  0
   50.7910    7.9535   15.2438 H   0  0  0  0  0  0  0  0  0  0  0  0
   47.5397    7.5701   17.9606 H   0  0  0  0  0  0  0  0  0  0  0  0
   50.2858   11.6003   18.3775 H   0  0  0  0  0  0  0  0  0  0  0  0
   49.4483   11.5977   19.9236 H   0  0  0  0  0  0  0  0  0  0  0  0
   54.6059    6.0803   17.7751 H   0  0  0  0  0  0  0  0  0  0  0  0
   49.4243    3.8195   20.5321 H   0  0  0  0  0  0  0  0  0  0  0  0
   48.9679   13.2836   17.4110 H   0  0  0  0  0  0  0  0  0  0  0  0
   47.2145   13.1916   17.4303 H   0  0  0  0  0  0  0  0  0  0  0  0
   48.0956   13.4886   18.9448 H   0  0  0  0  0  0  0  0  0  0  0  0
   46.9750    9.9463   19.0251 H   0  0  0  0  0  0  0  0  0  0  0  0
   46.0923   11.3315   18.4277 H   0  0  0  0  0  0  0  0  0  0  0  0
   46.9700   11.4532   19.9670 H   0  0  0  0  0  0  0  0  0  0  0  0
   46.0651    6.0707   19.1652 H   0  0  0  0  0  0  0  0  0  0  0  0
   52.9462    7.5727   14.1181 H   0  0  0  0  0  0  0  0  0  0  0  0
   46.9957    4.1635   20.4533 H   0  0  0  0  0  0  0  0  0  0  0  0
   54.8645    6.6362   15.3867 H   0  0  0  0  0  0  0  0  0  0  0  0
  2  1  1  0
  3  1  1  0
  4  2  2  0
  5  3  2  0
  6  4  1  0
  7  5  1  0
  8  1  1  0
  9  8  1  0
 10 13  1  0
 11  3  1  0
 12  2  1  0
 13  9  1  0
 14  5  1  0
 15  4  1  0
 16 10  1  0
 17 10  1  0
 18 12  2  0
 19 11  2  0
 20 15  2  0
 21 14  2  0
  6  7  1  0
 18 20  1  0
 19 21  1  0
 23 27  2  0
 24 28  1  0
 25 26  1  0
 26 22  2  0
 27 24  1  0
 28 25  1  0
 29 22  1  0
 30 23  1  0
 31 22  1  0
 32 23  1  0
 33 24  2  0
 34 35  1  0
 35 29  2  0
 36 33  1  0
 37 31  2  0
 38 32  2  0
 39 26  1  0
 40 27  1  0
 41 31  1  0
 42 32  1  0
 43 34  1  0
 44 33  1  0
 45 35  1  0
 46 36  1  0
 47 44  2  0
 48 43  2  0
 49 47  1  0
 50 45  2  0
 25 34  2  0
 48 50  1  0
 30 36  2  0
 46 49  2  0
 52 51  1  0
 53 51  1  0
 54 52  2  0
 55 53  2  0
 56 54  1  0
 57 55  1  0
 58 51  1  0
 59 58  1  0
 60 63  1  0
 61 53  1  0
 62 52  1  0
 63 59  1  0
 64 55  1  0
 65 54  1  0
 66 60  1  0
 67 60  1  0
 68 62  2  0
 69 61  2  0
 70 65  2  0
 71 64  2  0
 56 57  1  0
 68 70  1  0
 69 71  1  0
  6 72  1  0
  6 73  1  0
  7 74  1  0
  7 75  1  0
  8 76  1  0
  8 77  1  0
  9 78  1  0
  9 79  1  0
 11 80  1  0
 12 81  1  0
 13 82  1  0
 13 83  1  0
 14 84  1  0
 15 85  1  0
 16 86  1  0
 16 87  1  0
 16 88  1  0
 17 89  1  0
 17 90  1  0
 17 91  1  0
 18 92  1  0
 19 93  1  0
 20 94  1  0
 21 95  1  0
 28 96  1  0
 28 97  1  0
 29 98  1  0
 30 99  1  0
 39100  1  0
 40101  1  0
 41102  1  0
 42103  1  0
 43104  1  0
 44105  1  0
 45106  1  0
 46107  1  0
 47108  1  0
 48109  1  0
 49110  1  0
 50111  1  0
 56112  1  0
 56113  1  0
 57114  1  0
 57115  1  0
 58116  1  0
 58117  1  0
 59118  1  0
 59119  1  0
 61120  1  0
 62121  1  0
 63122  1  0
 63123  1  0
 64124  1  0
 65125  1  0
 66126  1  0
 66127  1  0
 66128  1  0
 67129  1  0
 67130  1  0
 67131  1  0
 68132  1  0
 69133  1  0
 70134  1  0
 71135  1  0
M  END
> <Uni-Dock RESULT> 
ENERGY=   -7.016  LOWER_BOUND=    2.299  UPPER_BOUND=    4.529
INTER + INTRA:          -7.016
INTER:                  -7.016
INTRA:                   0.000
UNBOUND:                 0.000

$$$$

     RDKit          3D

135142  0  0  0  0  0  0  0  0999 V2000
   49.5356    8.3755   18.3269 N   0  0  0  0  0  0  0  0  0  0  0  0
   48.8159    7.1887   17.9622 C   0  0  0  0  0  0  0  0  0  0  0  0
   49.4924    9.1716   19.5222 C   0  0  0  0  0  0  0  0  0  0  0  0
   47.8923    6.5231   18.8033 C   0  0  0  0  0  0  0  0  0  0  0  0
   48.3446    9.3144   20.3233 C   0  0  0  0  0  0  0  0  0  0  0  0
   47.4323    7.0529   20.1356 C   0  0  0  0  0  0  0  0  0  0  0  0
   47.0942    8.5302   20.0546 C   0  0  0  0  0  0  0  0  0  0  0  0
   50.3201    9.0444   17.2401 C   0  0  0  0  0  0  0  0  0  0  0  0
   51.7248    8.4344   17.0707 C   0  0  0  0  0  0  0  0  0  0  0  0
   52.1039    9.4637   14.7982 N   0  0  0  0  0  0  0  0  0  0  0  0
   50.6356    9.8881   19.9542 C   0  0  0  0  0  0  0  0  0  0  0  0
   49.0250    6.5663   16.7034 C   0  0  0  0  0  0  0  0  0  0  0  0
   52.6194    9.2938   16.1666 C   0  0  0  0  0  0  0  0  0  0  0  0
   48.3384   10.1823   21.4398 C   0  0  0  0  0  0  0  0  0  0  0  0
   47.3010    5.2924   18.4120 C   0  0  0  0  0  0  0  0  0  0  0  0
   52.8436   10.5300   14.1141 C   0  0  0  0  0  0  0  0  0  0  0  0
   52.2095    8.2252   14.0195 C   0  0  0  0  0  0  0  0  0  0  0  0
   48.4174    5.3639   16.3145 C   0  0  0  0  0  0  0  0  0  0  0  0
   50.6311   10.7334   21.0697 C   0  0  0  0  0  0  0  0  0  0  0  0
   47.5608    4.7160   17.1779 C   0  0  0  0  0  0  0  0  0  0  0  0
   49.4738   10.8914   21.8082 C   0  0  0  0  0  0  0  0  0  0  0  0
   48.4884    6.4386   20.4366 C   0  0  0  0  0  0  0  0  0  0  0  0
   52.7751    9.2203   17.0321 C   0  0  0  0  0  0  0  0  0  0  0  0
   50.5316    8.3518   16.5398 C   0  0  0  0  0  0  0  0  0  0  0  0
   48.7207    7.7801   18.4035 C   0  0  0  0  0  0  0  0  0  0  0  0
   48.9418    6.5873   19.1267 C   0  0  0  0  0  0  0  0  0  0  0  0
   51.5307    8.7299   17.4640 C   0  0  0  0  0  0  0  0  0  0  0  0
   49.1414    7.8473   16.9435 C   0  0  0  0  0  0  0  0  0  0  0  0
   47.8259    7.5013   21.0573 C   0  0  0  0  0  0  0  0  0  0  0  0
   53.0432    9.3066   15.6634 C   0  0  0  0  0  0  0  0  0  0  0  0
   48.7482    5.1958   21.1984 C   0  0  0  0  0  0  0  0  0  0  0  0
   53.8668    9.6620   17.9411 C   0  0  0  0  0  0  0  0  0  0  0  0
   50.8285    8.4305   15.1339 C   0  0  0  0  0  0  0  0  0  0  0  0
   48.0832    8.8806   19.0540 C   0  0  0  0  0  0  0  0  0  0  0  0
   47.6314    8.7191   20.3905 C   0  0  0  0  0  0  0  0  0  0  0  0
   52.0968    8.9113   14.7153 C   0  0  0  0  0  0  0  0  0  0  0  0
   49.7334    4.4843   21.1557 O   0  0  0  0  0  0  0  0  0  0  0  0
   54.9709   10.0492   17.6032 O   0  0  0  0  0  0  0  0  0  0  0  0
   49.6084    5.5525   18.5273 O   0  0  0  0  0  0  0  0  0  0  0  0
   51.2701    8.5799   18.7994 O   0  0  0  0  0  0  0  0  0  0  0  0
   47.7195    4.9002   22.0183 O   0  0  0  0  0  0  0  0  0  0  0  0
   53.5255    9.6113   19.2458 O   0  0  0  0  0  0  0  0  0  0  0  0
   47.8749   10.1453   18.4520 C   0  0  0  0  0  0  0  0  0  0  0  0
   49.9291    8.0449   14.1073 C   0  0  0  0  0  0  0  0  0  0  0  0
   46.9921    9.7783   21.0569 C   0  0  0  0  0  0  0  0  0  0  0  0
   52.4184    8.9902   13.3496 C   0  0  0  0  0  0  0  0  0  0  0  0
   50.2613    8.1258   12.7519 C   0  0  0  0  0  0  0  0  0  0  0  0
   47.2394   11.1909   19.1288 C   0  0  0  0  0  0  0  0  0  0  0  0
   51.5091    8.5980   12.3727 C   0  0  0  0  0  0  0  0  0  0  0  0
   46.7950   11.0060   20.4304 C   0  0  0  0  0  0  0  0  0  0  0  0
   49.9278    8.2979   18.6139 N   0  0  0  0  0  0  0  0  0  0  0  0
   49.3877    7.0119   18.3665 C   0  0  0  0  0  0  0  0  0  0  0  0
   49.6214    9.1718   19.6844 C   0  0  0  0  0  0  0  0  0  0  0  0
   48.0849    6.6124   18.7416 C   0  0  0  0  0  0  0  0  0  0  0  0
   48.3052    9.5560   19.9709 C   0  0  0  0  0  0  0  0  0  0  0  0
   47.0501    7.4986   19.4047 C   0  0  0  0  0  0  0  0  0  0  0  0
   47.1729    8.9954   19.1600 C   0  0  0  0  0  0  0  0  0  0  0  0
   50.9067    8.8662   17.6516 C   0  0  0  0  0  0  0  0  0  0  0  0
   50.2709    9.0717   16.2696 C   0  0  0  0  0  0  0  0  0  0  0  0
   52.5084    9.1665   15.0862 N   0  0  0  0  0  0  0  0  0  0  0  0
   50.6534    9.6903   20.4891 C   0  0  0  0  0  0  0  0  0  0  0  0
   50.1974    6.0284   17.7472 C   0  0  0  0  0  0  0  0  0  0  0  0
   51.1999    9.8108   15.2985 C   0  0  0  0  0  0  0  0  0  0  0  0
   48.0421   10.4541   21.0218 C   0  0  0  0  0  0  0  0  0  0  0  0
   47.6618    5.2799   18.5058 C   0  0  0  0  0  0  0  0  0  0  0  0
   53.3719   10.0459   14.2912 C   0  0  0  0  0  0  0  0  0  0  0  0
   52.3792    7.8713   14.4132 C   0  0  0  0  0  0  0  0  0  0  0  0
   49.7586    4.7245   17.5024 C   0  0  0  0  0  0  0  0  0  0  0  0
   50.3882   10.5770   21.5347 C   0  0  0  0  0  0  0  0  0  0  0  0
   48.4859    4.3470   17.8857 C   0  0  0  0  0  0  0  0  0  0  0  0
   49.0801   10.9644   21.7969 C   0  0  0  0  0  0  0  0  0  0  0  0
   48.1844    6.8244   20.9013 H   0  0  0  0  0  0  0  0  0  0  0  0
   46.5150    6.5308   20.4383 H   0  0  0  0  0  0  0  0  0  0  0  0
   46.6551    8.8249   19.0934 H   0  0  0  0  0  0  0  0  0  0  0  0
   46.3410    8.7568   20.8198 H   0  0  0  0  0  0  0  0  0  0  0  0
   49.7611    9.0307   16.2961 H   0  0  0  0  0  0  0  0  0  0  0  0
   50.4145   10.1226   17.4338 H   0  0  0  0  0  0  0  0  0  0  0  0
   52.2198    8.3392   18.0434 H   0  0  0  0  0  0  0  0  0  0  0  0
   51.6750    7.4106   16.6916 H   0  0  0  0  0  0  0  0  0  0  0  0
   51.5792    9.7977   19.4315 H   0  0  0  0  0  0  0  0  0  0  0  0
   49.6859    6.9929   15.9585 H   0  0  0  0  0  0  0  0  0  0  0  0
   53.6319    8.8670   16.1485 H   0  0  0  0  0  0  0  0  0  0  0  0
   52.7098   10.2789   16.6456 H   0  0  0  0  0  0  0  0  0  0  0  0
   47.4389   10.2947   22.0398 H   0  0  0  0  0  0  0  0  0  0  0  0
   46.6078    4.7831   19.0797 H   0  0  0  0  0  0  0  0  0  0  0  0
   52.4548   10.6827   13.1009 H   0  0  0  0  0  0  0  0  0  0  0  0
   52.7206   11.4833   14.6403 H   0  0  0  0  0  0  0  0  0  0  0  0
   53.9149   10.3101   14.0426 H   0  0  0  0  0  0  0  0  0  0  0  0
   51.8185    8.3770   13.0067 H   0  0  0  0  0  0  0  0  0  0  0  0
   51.6072    7.4245   14.4595 H   0  0  0  0  0  0  0  0  0  0  0  0
   53.2462    7.8763   13.9376 H   0  0  0  0  0  0  0  0  0  0  0  0
   48.6310    4.9433   15.3350 H   0  0  0  0  0  0  0  0  0  0  0  0
   51.5375   11.2625   21.3531 H   0  0  0  0  0  0  0  0  0  0  0  0
   47.0887    3.7804   16.8948 H   0  0  0  0  0  0  0  0  0  0  0  0
   49.4541   11.5485   22.6730 H   0  0  0  0  0  0  0  0  0  0  0  0
   49.0273    6.8391   16.5197 H   0  0  0  0  0  0  0  0  0  0  0  0
   48.3920    8.4479   16.4113 H   0  0  0  0  0  0  0  0  0  0  0  0
   47.4815    7.3851   22.0839 H   0  0  0  0  0  0  0  0  0  0  0  0
   54.0135    9.6801   15.3340 H   0  0  0  0  0  0  0  0  0  0  0  0
   50.4382    5.9285   18.1755 H   0  0  0  0  0  0  0  0  0  0  0  0
   52.0005    8.9787   19.3163 H   0  0  0  0  0  0  0  0  0  0  0  0
   47.9996    4.0553   22.4288 H   0  0  0  0  0  0  0  0  0  0  0  0
   54.3372    9.9336   19.7002 H   0  0  0  0  0  0  0  0  0  0  0  0
   48.2208   10.3460   17.4409 H   0  0  0  0  0  0  0  0  0  0  0  0
   48.9393    7.6611   14.3444 H   0  0  0  0  0  0  0  0  0  0  0  0
   46.6446    9.6545   22.0808 H   0  0  0  0  0  0  0  0  0  0  0  0
   53.3950    9.3553   13.0322 H   0  0  0  0  0  0  0  0  0  0  0  0
   49.5429    7.8152   11.9972 H   0  0  0  0  0  0  0  0  0  0  0  0
   47.0965   12.1494   18.6357 H   0  0  0  0  0  0  0  0  0  0  0  0
   51.7735    8.6608   11.3211 H   0  0  0  0  0  0  0  0  0  0  0  0
   46.3015   11.8149   20.9602 H   0  0  0  0  0  0  0  0  0  0  0  0
   47.0538    7.2819   20.4816 H   0  0  0  0  0  0  0  0  0  0  0  0
   46.0619    7.2045   19.0251 H   0  0  0  0  0  0  0  0  0  0  0  0
   47.3131    9.2301   18.0978 H   0  0  0  0  0  0  0  0  0  0  0  0
   46.2321    9.4779   19.4578 H   0  0  0  0  0  0  0  0  0  0  0  0
   51.8058    8.2435   17.5992 H   0  0  0  0  0  0  0  0  0  0  0  0
   51.2674    9.8495   17.9829 H   0  0  0  0  0  0  0  0  0  0  0  0
   49.3538    9.6651   16.3820 H   0  0  0  0  0  0  0  0  0  0  0  0
   49.9557    8.1176   15.8332 H   0  0  0  0  0  0  0  0  0  0  0  0
   51.6805    9.3816   20.3141 H   0  0  0  0  0  0  0  0  0  0  0  0
   51.2226    6.2525   17.4684 H   0  0  0  0  0  0  0  0  0  0  0  0
   51.3626   10.8177   15.7085 H   0  0  0  0  0  0  0  0  0  0  0  0
   50.6783    9.9473   14.3425 H   0  0  0  0  0  0  0  0  0  0  0  0
   47.0200   10.7550   21.2435 H   0  0  0  0  0  0  0  0  0  0  0  0
   46.6639    4.9665   18.8089 H   0  0  0  0  0  0  0  0  0  0  0  0
   53.5168   11.0060   14.7987 H   0  0  0  0  0  0  0  0  0  0  0  0
   54.3660    9.6034   14.1701 H   0  0  0  0  0  0  0  0  0  0  0  0
   52.9553   10.2407   13.2972 H   0  0  0  0  0  0  0  0  0  0  0  0
   51.8421    7.1520   15.0383 H   0  0  0  0  0  0  0  0  0  0  0  0
   53.3679    7.4323   14.2331 H   0  0  0  0  0  0  0  0  0  0  0  0
   51.8602    7.9534   13.4522 H   0  0  0  0  0  0  0  0  0  0  0  0
   50.4234    4.0071   17.0292 H   0  0  0  0  0  0  0  0  0  0  0  0
   51.2040   10.9585   22.1426 H   0  0  0  0  0  0  0  0  0  0  0  0
   48.1338    3.3347   17.7135 H   0  0  0  0  0  0  0  0  0  0  0  0
   48.8662   11.6532   22.6094 H   0  0  0  0  0  0  0  0  0  0  0  0
  2  1  1  0
  3  1  1  0
  4  2  2  0
  5  3  2  0
  6  4  1  0
  7  5  1  0
  8  1  1  0
  9  8  1  0
 10 13  1  0
 11  3  1  0
 12  2  1  0
 13  9  1  0
 14  5  1  0
 15  4  1  0
 16 10  1  0
 17 10  1  0
 18 12  2  0
 19 11  2  0
 20 15  2  0
 21 14  2  0
  6  7  1  0
 18 20  1  0
 19 21  1  0
 23 27  2  0
 24 28  1  0
 25 26  1  0
 26 22  2  0
 27 24  1  0
 28 25  1  0
 29 22  1  0
 30 23  1  0
 31 22  1  0
 32 23  1  0
 33 24  2  0
 34 35  1  0
 35 29  2  0
 36 33  1  0
 37 31  2  0
 38 32  2  0
 39 26  1  0
 40 27  1  0
 41 31  1  0
 42 32  1  0
 43 34  1  0
 44 33  1  0
 45 35  1  0
 46 36  1  0
 47 44  2  0
 48 43  2  0
 49 47  1  0
 50 45  2  0
 25 34  2  0
 48 50  1  0
 30 36  2  0
 46 49  2  0
 52 51  1  0
 53 51  1  0
 54 52  2  0
 55 53  2  0
 56 54  1  0
 57 55  1  0
 58 51  1  0
 59 58  1  0
 60 63  1  0
 61 53  1  0
 62 52  1  0
 63 59  1  0
 64 55  1  0
 65 54  1  0
 66 60  1  0
 67 60  1  0
 68 62  2  0
 69 61  2  0
 70 65  2  0
 71 64  2  0
 56 57  1  0
 68 70  1  0
 69 71  1  0
  6 72  1  0
  6 73  1  0
  7 74  1  0
  7 75  1  0
  8 76  1  0
  8 77  1  0
  9 78  1  0
  9 79  1  0
 11 80  1  0
 12 81  1  0
 13 82  1  0
 13 83  1  0
 14 84  1  0
 15 85  1  0
 16 86  1  0
 16 87  1  0
 16 88  1  0
 17 89  1  0
 17 90  1  0
 17 91  1  0
 18 92  1  0
 19 93  1  0
 20 94  1  0
 21 95  1  0
 28 96  1  0
 28 97  1  0
 29 98  1  0
 30 99  1  0
 39100  1  0
 40101  1  0
 41102  1  0
 42103  1  0
 43104  1  0
 44105  1  0
 45106  1  0
 46107  1  0
 47108  1  0
 48109  1  0
 49110  1  0
 50111  1  0
 56112  1  0
 56113  1  0
 57114  1  0
 57115  1  0
 58116  1  0
 58117  1  0
 59118  1  0
 59119  1  0
 61120  1  0
 62121  1  0
 63122  1  0
 63123  1  0
 64124  1  0
 65125  1  0
 66126  1  0
 66127  1  0
 66128  1  0
 67129  1  0
 67130  1  0
 67131  1  0
 68132  1  0
 69133  1  0
 70134  1  0
 71135  1  0
M  END
> <Uni-Dock RESULT> 
ENERGY=   -6.965  LOWER_BOUND=    2.465  UPPER_BOUND=    5.533
INTER + INTRA:          -6.965
INTER:                  -6.965
INTRA:                   0.000
UNBOUND:                 0.000

$$$$

     RDKit          3D

135142  0  0  0  0  0  0  0  0999 V2000
   50.2792    7.1278   16.9764 N   0  0  0  0  0  0  0  0  0  0  0  0
   51.6137    6.6574   16.7369 C   0  0  0  0  0  0  0  0  0  0  0  0
   49.2930    6.7115   17.9347 C   0  0  0  0  0  0  0  0  0  0  0  0
   52.2525    5.6450   17.4922 C   0  0  0  0  0  0  0  0  0  0  0  0
   49.1921    5.3984   18.4300 C   0  0  0  0  0  0  0  0  0  0  0  0
   51.5666    4.8252   18.5527 C   0  0  0  0  0  0  0  0  0  0  0  0
   50.2045    4.3466   18.0847 C   0  0  0  0  0  0  0  0  0  0  0  0
   49.7053    8.0636   15.9571 C   0  0  0  0  0  0  0  0  0  0  0  0
   50.1003    9.5297   16.2191 C   0  0  0  0  0  0  0  0  0  0  0  0
   49.4626   10.3124   13.9066 N   0  0  0  0  0  0  0  0  0  0  0  0
   48.3333    7.6292   18.4283 C   0  0  0  0  0  0  0  0  0  0  0  0
   52.4164    7.2286   15.7146 C   0  0  0  0  0  0  0  0  0  0  0  0
   49.2900   10.5064   15.3556 C   0  0  0  0  0  0  0  0  0  0  0  0
   48.1449    5.0280   19.3053 C   0  0  0  0  0  0  0  0  0  0  0  0
   53.6137    5.3099   17.2636 C   0  0  0  0  0  0  0  0  0  0  0  0
   48.4360   11.0637   13.1759 C   0  0  0  0  0  0  0  0  0  0  0  0
   50.7901   10.7419   13.4546 C   0  0  0  0  0  0  0  0  0  0  0  0
   53.7523    6.8738   15.4787 C   0  0  0  0  0  0  0  0  0  0  0  0
   47.3080    7.2633   19.3079 C   0  0  0  0  0  0  0  0  0  0  0  0
   54.3590    5.9187   16.2654 C   0  0  0  0  0  0  0  0  0  0  0  0
   47.2055    5.9541   19.7382 C   0  0  0  0  0  0  0  0  0  0  0  0
   51.9351    5.8443   19.1921 C   0  0  0  0  0  0  0  0  0  0  0  0
   49.1756   10.4608   16.2295 C   0  0  0  0  0  0  0  0  0  0  0  0
   50.4721    8.5134   15.4833 C   0  0  0  0  0  0  0  0  0  0  0  0
   50.9741    6.3927   17.0098 C   0  0  0  0  0  0  0  0  0  0  0  0
   51.9603    6.5737   18.0043 C   0  0  0  0  0  0  0  0  0  0  0  0
   49.7725    9.2152   16.4899 C   0  0  0  0  0  0  0  0  0  0  0  0
   51.1115    7.1354   15.6897 C   0  0  0  0  0  0  0  0  0  0  0  0
   50.8974    4.9352   19.4161 C   0  0  0  0  0  0  0  0  0  0  0  0
   49.3022   11.0326   14.9607 C   0  0  0  0  0  0  0  0  0  0  0  0
   52.9563    6.0593   20.2425 C   0  0  0  0  0  0  0  0  0  0  0  0
   48.4022   11.2481   17.2270 C   0  0  0  0  0  0  0  0  0  0  0  0
   50.6083    9.1226   14.1867 C   0  0  0  0  0  0  0  0  0  0  0  0
   49.8902    5.4963   17.2592 C   0  0  0  0  0  0  0  0  0  0  0  0
   49.8722    4.7636   18.4754 C   0  0  0  0  0  0  0  0  0  0  0  0
   50.0144   10.3893   13.9459 C   0  0  0  0  0  0  0  0  0  0  0  0
   53.4942    7.1026   20.5604 O   0  0  0  0  0  0  0  0  0  0  0  0
   47.9106   12.3482   17.0494 O   0  0  0  0  0  0  0  0  0  0  0  0
   52.9663    7.4785   17.7955 O   0  0  0  0  0  0  0  0  0  0  0  0
   49.7125    8.6659   17.7423 O   0  0  0  0  0  0  0  0  0  0  0  0
   53.2575    4.9077   20.8755 O   0  0  0  0  0  0  0  0  0  0  0  0
   48.2648   10.6167   18.4117 O   0  0  0  0  0  0  0  0  0  0  0  0
   48.8097    5.2906   16.3672 C   0  0  0  0  0  0  0  0  0  0  0  0
   51.3180    8.5421   13.1047 C   0  0  0  0  0  0  0  0  0  0  0  0
   48.8256    3.8664   18.7486 C   0  0  0  0  0  0  0  0  0  0  0  0
   50.1390   11.0128   12.6928 C   0  0  0  0  0  0  0  0  0  0  0  0
   51.4370    9.1732   11.8631 C   0  0  0  0  0  0  0  0  0  0  0  0
   47.7738    4.3963   16.6541 C   0  0  0  0  0  0  0  0  0  0  0  0
   50.8476   10.4117   11.6575 C   0  0  0  0  0  0  0  0  0  0  0  0
   47.7837    3.6817   17.8437 C   0  0  0  0  0  0  0  0  0  0  0  0
   50.2377    7.4475   17.3483 N   0  0  0  0  0  0  0  0  0  0  0  0
   51.6175    7.1341   17.2795 C   0  0  0  0  0  0  0  0  0  0  0  0
   49.2419    6.7977   18.1161 C   0  0  0  0  0  0  0  0  0  0  0  0
   52.1462    5.8350   17.4539 C   0  0  0  0  0  0  0  0  0  0  0  0
   49.0297    5.4155   18.0332 C   0  0  0  0  0  0  0  0  0  0  0  0
   51.3320    4.5772   17.6796 C   0  0  0  0  0  0  0  0  0  0  0  0
   49.9068    4.5797   17.1467 C   0  0  0  0  0  0  0  0  0  0  0  0
   49.7067    8.5531   16.5099 C   0  0  0  0  0  0  0  0  0  0  0  0
   49.8667    8.2421   15.0153 C   0  0  0  0  0  0  0  0  0  0  0  0
   49.6317   10.6691   14.3297 N   0  0  0  0  0  0  0  0  0  0  0  0
   48.4229    7.5431   18.9852 C   0  0  0  0  0  0  0  0  0  0  0  0
   52.5544    8.1756   17.0701 C   0  0  0  0  0  0  0  0  0  0  0  0
   49.1798    9.2818   14.1211 C   0  0  0  0  0  0  0  0  0  0  0  0
   48.0070    4.8094   18.7861 C   0  0  0  0  0  0  0  0  0  0  0  0
   53.5500    5.6373   17.4306 C   0  0  0  0  0  0  0  0  0  0  0  0
   48.7868   11.5879   13.5594 C   0  0  0  0  0  0  0  0  0  0  0  0
   51.0327   10.8538   13.9421 C   0  0  0  0  0  0  0  0  0  0  0  0
   53.9345    7.9616   17.0287 C   0  0  0  0  0  0  0  0  0  0  0  0
   47.4127    6.9374   19.7350 C   0  0  0  0  0  0  0  0  0  0  0  0
   54.4355    6.6870   17.2125 C   0  0  0  0  0  0  0  0  0  0  0  0
   47.2005    5.5685   19.6298 C   0  0  0  0  0  0  0  0  0  0  0  0
   51.5243    5.3965   19.4887 H   0  0  0  0  0  0  0  0  0  0  0  0
   52.1651    3.9293   18.7647 H   0  0  0  0  0  0  0  0  0  0  0  0
   50.1682    4.1157   17.0128 H   0  0  0  0  0  0  0  0  0  0  0  0
   49.9650    3.4129   18.6092 H   0  0  0  0  0  0  0  0  0  0  0  0
   49.9841    7.7488   14.9437 H   0  0  0  0  0  0  0  0  0  0  0  0
   48.6090    7.9837   15.9273 H   0  0  0  0  0  0  0  0  0  0  0  0
   49.9321    9.7886   17.2703 H   0  0  0  0  0  0  0  0  0  0  0  0
   51.1709    9.6899   16.0695 H   0  0  0  0  0  0  0  0  0  0  0  0
   48.3650    8.6735   18.1449 H   0  0  0  0  0  0  0  0  0  0  0  0
   52.0340    7.9925   15.0485 H   0  0  0  0  0  0  0  0  0  0  0  0
   49.5430   11.5371   15.6409 H   0  0  0  0  0  0  0  0  0  0  0  0
   48.2318   10.3662   15.6174 H   0  0  0  0  0  0  0  0  0  0  0  0
   48.0705    4.0055   19.6667 H   0  0  0  0  0  0  0  0  0  0  0  0
   54.0958    4.5426   17.8673 H   0  0  0  0  0  0  0  0  0  0  0  0
   48.5388   10.9101   12.0957 H   0  0  0  0  0  0  0  0  0  0  0  0
   47.4344   10.7102   13.4454 H   0  0  0  0  0  0  0  0  0  0  0  0
   48.4888   12.1397   13.3775 H   0  0  0  0  0  0  0  0  0  0  0  0
   50.8941   10.5862   12.3744 H   0  0  0  0  0  0  0  0  0  0  0  0
   51.5822   10.1500   13.9233 H   0  0  0  0  0  0  0  0  0  0  0  0
   50.9755   11.8020   13.6670 H   0  0  0  0  0  0  0  0  0  0  0  0
   54.3069    7.3600   14.6800 H   0  0  0  0  0  0  0  0  0  0  0  0
   46.5958    8.0094   19.6513 H   0  0  0  0  0  0  0  0  0  0  0  0
   55.3948    5.6388   16.1006 H   0  0  0  0  0  0  0  0  0  0  0  0
   46.4114    5.6547   20.4163 H   0  0  0  0  0  0  0  0  0  0  0  0
   52.1857    7.2425   15.4806 H   0  0  0  0  0  0  0  0  0  0  0  0
   50.7494    6.4684   14.8963 H   0  0  0  0  0  0  0  0  0  0  0  0
   50.8754    4.3740   20.3492 H   0  0  0  0  0  0  0  0  0  0  0  0
   48.8441   12.0031   14.7666 H   0  0  0  0  0  0  0  0  0  0  0  0
   52.5328    8.3185   17.5503 H   0  0  0  0  0  0  0  0  0  0  0  0
   49.1118    9.2022   18.3002 H   0  0  0  0  0  0  0  0  0  0  0  0
   53.9549    5.1790   21.5085 H   0  0  0  0  0  0  0  0  0  0  0  0
   47.7366   11.2551   18.9435 H   0  0  0  0  0  0  0  0  0  0  0  0
   48.7466    5.8397   15.4309 H   0  0  0  0  0  0  0  0  0  0  0  0
   51.8064    7.5757   13.2090 H   0  0  0  0  0  0  0  0  0  0  0  0
   48.8121    3.3039   19.6802 H   0  0  0  0  0  0  0  0  0  0  0  0
   49.6858   11.9875   12.5132 H   0  0  0  0  0  0  0  0  0  0  0  0
   51.9944    8.6944   11.0617 H   0  0  0  0  0  0  0  0  0  0  0  0
   46.9594    4.2636   15.9460 H   0  0  0  0  0  0  0  0  0  0  0  0
   50.9388   10.9078   10.6957 H   0  0  0  0  0  0  0  0  0  0  0  0
   46.9815    2.9866   18.0711 H   0  0  0  0  0  0  0  0  0  0  0  0
   51.3418    4.3517   18.7546 H   0  0  0  0  0  0  0  0  0  0  0  0
   51.8475    3.7476   17.1764 H   0  0  0  0  0  0  0  0  0  0  0  0
   49.8535    4.9385   16.1116 H   0  0  0  0  0  0  0  0  0  0  0  0
   49.5363    3.5457   17.1309 H   0  0  0  0  0  0  0  0  0  0  0  0
   50.1742    9.5052   16.7815 H   0  0  0  0  0  0  0  0  0  0  0  0
   48.6337    8.7087   16.6873 H   0  0  0  0  0  0  0  0  0  0  0  0
   49.4193    7.2619   14.8035 H   0  0  0  0  0  0  0  0  0  0  0  0
   50.9233    8.1519   14.7407 H   0  0  0  0  0  0  0  0  0  0  0  0
   48.5882    8.6111   19.0981 H   0  0  0  0  0  0  0  0  0  0  0  0
   52.2227    9.2045   16.9680 H   0  0  0  0  0  0  0  0  0  0  0  0
   48.1015    9.2250   14.3273 H   0  0  0  0  0  0  0  0  0  0  0  0
   49.3093    8.9884   13.0714 H   0  0  0  0  0  0  0  0  0  0  0  0
   47.8399    3.7360   18.7204 H   0  0  0  0  0  0  0  0  0  0  0  0
   53.9592    4.6393   17.5809 H   0  0  0  0  0  0  0  0  0  0  0  0
   47.7387   11.4963   13.8652 H   0  0  0  0  0  0  0  0  0  0  0  0
   49.0770   12.6268   13.7461 H   0  0  0  0  0  0  0  0  0  0  0  0
   48.8498   11.3980   12.4826 H   0  0  0  0  0  0  0  0  0  0  0  0
   51.7009   10.2716   14.5832 H   0  0  0  0  0  0  0  0  0  0  0  0
   51.3314   11.9012   14.0706 H   0  0  0  0  0  0  0  0  0  0  0  0
   51.2153   10.5704   12.9000 H   0  0  0  0  0  0  0  0  0  0  0  0
   54.6099    8.7980   16.8709 H   0  0  0  0  0  0  0  0  0  0  0  0
   46.7981    7.5367   20.4012 H   0  0  0  0  0  0  0  0  0  0  0  0
   55.5056    6.5055   17.1949 H   0  0  0  0  0  0  0  0  0  0  0  0
   46.4170    5.0903   20.2110 H   0  0  0  0  0  0  0  0  0  0  0  0
  2  1  1  0
  3  1  1  0
  4  2  2  0
  5  3  2  0
  6  4  1  0
  7  5  1  0
  8  1  1  0
  9  8  1  0
 10 13  1  0
 11  3  1  0
 12  2  1  0
 13  9  1  0
 14  5  1  0
 15  4  1  0
 16 10  1  0
 17 10  1  0
 18 12  2  0
 19 11  2  0
 20 15  2  0
 21 14  2  0
  6  7  1  0
 18 20  1  0
 19 21  1  0
 23 27  2  0
 24 28  1  0
 25 26  1  0
 26 22  2  0
 27 24  1  0
 28 25  1  0
 29 22  1  0
 30 23  1  0
 31 22  1  0
 32 23  1  0
 33 24  2  0
 34 35  1  0
 35 29  2  0
 36 33  1  0
 37 31  2  0
 38 32  2  0
 39 26  1  0
 40 27  1  0
 41 31  1  0
 42 32  1  0
 43 34  1  0
 44 33  1  0
 45 35  1  0
 46 36  1  0
 47 44  2  0
 48 43  2  0
 49 47  1  0
 50 45  2  0
 25 34  2  0
 48 50  1  0
 30 36  2  0
 46 49  2  0
 52 51  1  0
 53 51  1  0
 54 52  2  0
 55 53  2  0
 56 54  1  0
 57 55  1  0
 58 51  1  0
 59 58  1  0
 60 63  1  0
 61 53  1  0
 62 52  1  0
 63 59  1  0
 64 55  1  0
 65 54  1  0
 66 60  1  0
 67 60  1  0
 68 62  2  0
 69 61  2  0
 70 65  2  0
 71 64  2  0
 56 57  1  0
 68 70  1  0
 69 71  1  0
  6 72  1  0
  6 73  1  0
  7 74  1  0
  7 75  1  0
  8 76  1  0
  8 77  1  0
  9 78  1  0
  9 79  1  0
 11 80  1  0
 12 81  1  0
 13 82  1  0
 13 83  1  0
 14 84  1  0
 15 85  1  0
 16 86  1  0
 16 87  1  0
 16 88  1  0
 17 89  1  0
 17 90  1  0
 17 91  1  0
 18 92  1  0
 19 93  1  0
 20 94  1  0
 21 95  1  0
 28 96  1  0
 28 97  1  0
 29 98  1  0
 30 99  1  0
 39100  1  0
 40101  1  0
 41102  1  0
 42103  1  0
 43104  1  0
 44105  1  0
 45106  1  0
 46107  1  0
 47108  1  0
 48109  1  0
 49110  1  0
 50111  1  0
 56112  1  0
 56113  1  0
 57114  1  0
 57115  1  0
 58116  1  0
 58117  1  0
 59118  1  0
 59119  1  0
 61120  1  0
 62121  1  0
 63122  1  0
 63123  1  0
 64124  1  0
 65125  1  0
 66126  1  0
 66127  1  0
 66128  1  0
 67129  1  0
 67130  1  0
 67131  1  0
 68132  1  0
 69133  1  0
 70134  1  0
 71135  1  0
M  END
> <Uni-Dock RESULT> 
ENERGY=   -6.863  LOWER_BOUND=    2.242  UPPER_BOUND=    4.415
INTER + INTRA:          -6.863
INTER:                  -6.863
INTRA:                   0.000
UNBOUND:                 0.000

$$$$

     RDKit          3D

135142  0  0  0  0  0  0  0  0999 V2000
   49.0618    9.6263   18.8213 N   0  0  0  0  0  0  0  0  0  0  0  0
   48.4159    8.3954   19.1784 C   0  0  0  0  0  0  0  0  0  0  0  0
   49.2716   10.8314   19.5750 C   0  0  0  0  0  0  0  0  0  0  0  0
   47.8637    8.1223   20.4528 C   0  0  0  0  0  0  0  0  0  0  0  0
   48.3974   11.2854   20.5796 C   0  0  0  0  0  0  0  0  0  0  0  0
   47.7499    9.1392   21.5574 C   0  0  0  0  0  0  0  0  0  0  0  0
   47.2272   10.4647   21.0350 C   0  0  0  0  0  0  0  0  0  0  0  0
   49.4101    9.8056   17.3755 C   0  0  0  0  0  0  0  0  0  0  0  0
   50.7680    9.1720   17.0168 C   0  0  0  0  0  0  0  0  0  0  0  0
   50.3438    9.2138   14.5297 N   0  0  0  0  0  0  0  0  0  0  0  0
   50.3958   11.6552   19.3211 C   0  0  0  0  0  0  0  0  0  0  0  0
   48.3241    7.3239   18.2516 C   0  0  0  0  0  0  0  0  0  0  0  0
   51.2510    9.5982   15.6235 C   0  0  0  0  0  0  0  0  0  0  0  0
   48.6110   12.5250   21.2259 C   0  0  0  0  0  0  0  0  0  0  0  0
   47.3374    6.8400   20.7629 C   0  0  0  0  0  0  0  0  0  0  0  0
   50.7186    9.9179   13.2984 C   0  0  0  0  0  0  0  0  0  0  0  0
   50.3675    7.7675   14.2864 C   0  0  0  0  0  0  0  0  0  0  0  0
   47.7794    6.0687   18.5584 C   0  0  0  0  0  0  0  0  0  0  0  0
   50.6133   12.8736   19.9745 C   0  0  0  0  0  0  0  0  0  0  0  0
   47.2952    5.8203   19.8244 C   0  0  0  0  0  0  0  0  0  0  0  0
   49.7101   13.3168   20.9218 C   0  0  0  0  0  0  0  0  0  0  0  0
   48.9140    8.6898   21.7196 C   0  0  0  0  0  0  0  0  0  0  0  0
   51.6590    9.8733   16.3560 C   0  0  0  0  0  0  0  0  0  0  0  0
   49.4911    8.8911   16.9608 C   0  0  0  0  0  0  0  0  0  0  0  0
   48.3823    9.1138   19.3692 C   0  0  0  0  0  0  0  0  0  0  0  0
   48.9461    8.3047   20.3802 C   0  0  0  0  0  0  0  0  0  0  0  0
   50.6623    9.6001   17.3087 C   0  0  0  0  0  0  0  0  0  0  0  0
   48.3496    8.5945   17.9401 C   0  0  0  0  0  0  0  0  0  0  0  0
   48.3370    9.9146   22.0669 C   0  0  0  0  0  0  0  0  0  0  0  0
   51.5056    9.4084   15.0472 C   0  0  0  0  0  0  0  0  0  0  0  0
   49.5318    7.8500   22.7710 C   0  0  0  0  0  0  0  0  0  0  0  0
   52.9059   10.6343   16.6375 C   0  0  0  0  0  0  0  0  0  0  0  0
   49.3553    8.4044   15.6134 C   0  0  0  0  0  0  0  0  0  0  0  0
   47.8332   10.3850   19.7203 C   0  0  0  0  0  0  0  0  0  0  0  0
   47.8118   10.7689   21.0873 C   0  0  0  0  0  0  0  0  0  0  0  0
   50.3797    8.6738   14.6684 C   0  0  0  0  0  0  0  0  0  0  0  0
   50.5406    7.1754   22.6929 O   0  0  0  0  0  0  0  0  0  0  0  0
   53.8091   10.8507   15.8497 O   0  0  0  0  0  0  0  0  0  0  0  0
   49.5298    7.1141   20.0396 O   0  0  0  0  0  0  0  0  0  0  0  0
   50.8208    9.9933   18.6102 O   0  0  0  0  0  0  0  0  0  0  0  0
   48.8291    7.9086   23.9201 O   0  0  0  0  0  0  0  0  0  0  0  0
   52.9668   11.1068   17.9001 O   0  0  0  0  0  0  0  0  0  0  0  0
   47.3079   11.3081   18.7836 C   0  0  0  0  0  0  0  0  0  0  0  0
   48.2500    7.6473   15.1479 C   0  0  0  0  0  0  0  0  0  0  0  0
   47.2705   12.0084   21.4684 C   0  0  0  0  0  0  0  0  0  0  0  0
   50.2789    8.2031   13.3482 C   0  0  0  0  0  0  0  0  0  0  0  0
   48.1621    7.1825   13.8325 C   0  0  0  0  0  0  0  0  0  0  0  0
   46.7750   12.5393   19.1778 C   0  0  0  0  0  0  0  0  0  0  0  0
   49.1794    7.4597   12.9316 C   0  0  0  0  0  0  0  0  0  0  0  0
   46.7534   12.8878   20.5209 C   0  0  0  0  0  0  0  0  0  0  0  0
   49.5267    9.6671   18.9773 N   0  0  0  0  0  0  0  0  0  0  0  0
   49.0975    8.3909   19.4175 C   0  0  0  0  0  0  0  0  0  0  0  0
   49.4412   10.8953   19.6756 C   0  0  0  0  0  0  0  0  0  0  0  0
   48.0178    8.1789   20.3047 C   0  0  0  0  0  0  0  0  0  0  0  0
   48.2285   11.3676   20.1939 C   0  0  0  0  0  0  0  0  0  0  0  0
   47.1211    9.2602   20.8727 C   0  0  0  0  0  0  0  0  0  0  0  0
   46.9860   10.5365   20.0555 C   0  0  0  0  0  0  0  0  0  0  0  0
   50.1080    9.8025   17.6167 C   0  0  0  0  0  0  0  0  0  0  0  0
   49.0784    9.4459   16.5355 C   0  0  0  0  0  0  0  0  0  0  0  0
   50.8473    9.0533   14.7656 N   0  0  0  0  0  0  0  0  0  0  0  0
   50.5919   11.6857   19.8560 C   0  0  0  0  0  0  0  0  0  0  0  0
   49.8049    7.2387   18.9953 C   0  0  0  0  0  0  0  0  0  0  0  0
   49.5891    9.7350   15.1185 C   0  0  0  0  0  0  0  0  0  0  0  0
   48.1756   12.6100   20.8523 C   0  0  0  0  0  0  0  0  0  0  0  0
   47.7087    6.8641   20.7360 C   0  0  0  0  0  0  0  0  0  0  0  0
   51.3300    9.5413   13.4694 C   0  0  0  0  0  0  0  0  0  0  0  0
   50.6856    7.5980   14.7095 C   0  0  0  0  0  0  0  0  0  0  0  0
   49.4748    5.9467   19.4127 C   0  0  0  0  0  0  0  0  0  0  0  0
   50.5367   12.9156   20.5149 C   0  0  0  0  0  0  0  0  0  0  0  0
   48.4235    5.7581   20.2893 C   0  0  0  0  0  0  0  0  0  0  0  0
   49.3243   13.3812   21.0081 C   0  0  0  0  0  0  0  0  0  0  0  0
   48.7138    9.2297   22.0742 H   0  0  0  0  0  0  0  0  0  0  0  0
   47.0301    8.7842   22.3068 H   0  0  0  0  0  0  0  0  0  0  0  0
   46.4957   10.3560   20.2247 H   0  0  0  0  0  0  0  0  0  0  0  0
   46.7069   10.9797   21.8525 H   0  0  0  0  0  0  0  0  0  0  0  0
   48.6071    9.4212   16.7343 H   0  0  0  0  0  0  0  0  0  0  0  0
   49.4258   10.8718   17.1071 H   0  0  0  0  0  0  0  0  0  0  0  0
   51.5319    9.4681   17.7442 H   0  0  0  0  0  0  0  0  0  0  0  0
   50.7343    8.0821   17.0892 H   0  0  0  0  0  0  0  0  0  0  0  0
   51.1507   11.3605   18.6034 H   0  0  0  0  0  0  0  0  0  0  0  0
   48.6836    7.4170   17.2340 H   0  0  0  0  0  0  0  0  0  0  0  0
   52.2584    9.1946   15.4506 H   0  0  0  0  0  0  0  0  0  0  0  0
   51.3570   10.6920   15.6399 H   0  0  0  0  0  0  0  0  0  0  0  0
   47.9177   12.8703   21.9887 H   0  0  0  0  0  0  0  0  0  0  0  0
   46.9347    6.6406   21.7548 H   0  0  0  0  0  0  0  0  0  0  0  0
   50.0369    9.6580   12.4807 H   0  0  0  0  0  0  0  0  0  0  0  0
   50.6396   11.0023   13.4352 H   0  0  0  0  0  0  0  0  0  0  0  0
   51.7414    9.6828   12.9825 H   0  0  0  0  0  0  0  0  0  0  0  0
   49.6839    7.5070   13.4699 H   0  0  0  0  0  0  0  0  0  0  0  0
   50.0202    7.2098   15.1614 H   0  0  0  0  0  0  0  0  0  0  0  0
   51.3699    7.4101   14.0208 H   0  0  0  0  0  0  0  0  0  0  0  0
   47.7486    5.2931   17.7971 H   0  0  0  0  0  0  0  0  0  0  0  0
   51.4922   13.4675   19.7365 H   0  0  0  0  0  0  0  0  0  0  0  0
   46.8779    4.8513   20.0798 H   0  0  0  0  0  0  0  0  0  0  0  0
   49.8632   14.2632   21.4328 H   0  0  0  0  0  0  0  0  0  0  0  0
   48.2400    7.5014   17.9878 H   0  0  0  0  0  0  0  0  0  0  0  0
   47.4112    8.9381   17.4853 H   0  0  0  0  0  0  0  0  0  0  0  0
   48.3222   10.2167   23.1131 H   0  0  0  0  0  0  0  0  0  0  0  0
   52.2860    9.6162   14.3141 H   0  0  0  0  0  0  0  0  0  0  0  0
   50.1700    7.3158   19.3303 H   0  0  0  0  0  0  0  0  0  0  0  0
   51.6160   10.5611   18.6800 H   0  0  0  0  0  0  0  0  0  0  0  0
   49.3161    7.2945   24.5088 H   0  0  0  0  0  0  0  0  0  0  0  0
   53.8304   11.5792   17.9188 H   0  0  0  0  0  0  0  0  0  0  0  0
   47.3185   11.0897   17.7186 H   0  0  0  0  0  0  0  0  0  0  0  0
   47.4256    7.3936   15.8106 H   0  0  0  0  0  0  0  0  0  0  0  0
   47.2529   12.3025   22.5161 H   0  0  0  0  0  0  0  0  0  0  0  0
   51.0697    8.4078   12.6268 H   0  0  0  0  0  0  0  0  0  0  0  0
   47.2985    6.6013   13.5185 H   0  0  0  0  0  0  0  0  0  0  0  0
   46.3805   13.2242   18.4312 H   0  0  0  0  0  0  0  0  0  0  0  0
   49.1176    7.0991   11.9089 H   0  0  0  0  0  0  0  0  0  0  0  0
   46.3410   13.8428   20.8318 H   0  0  0  0  0  0  0  0  0  0  0  0
   47.4634    9.4884   21.8913 H   0  0  0  0  0  0  0  0  0  0  0  0
   46.1083    8.8441   20.9640 H   0  0  0  0  0  0  0  0  0  0  0  0
   46.7823   10.3300   18.9977 H   0  0  0  0  0  0  0  0  0  0  0  0
   46.1211   11.1019   20.4282 H   0  0  0  0  0  0  0  0  0  0  0  0
   51.0215    9.2061   17.5237 H   0  0  0  0  0  0  0  0  0  0  0  0
   50.4279   10.8350   17.4203 H   0  0  0  0  0  0  0  0  0  0  0  0
   48.1688   10.0394   16.6975 H   0  0  0  0  0  0  0  0  0  0  0  0
   48.7676    8.3985   16.6150 H   0  0  0  0  0  0  0  0  0  0  0  0
   51.5533   11.3282   19.4973 H   0  0  0  0  0  0  0  0  0  0  0  0
   50.6701    7.3292   18.3454 H   0  0  0  0  0  0  0  0  0  0  0  0
   49.7409   10.8212   15.0439 H   0  0  0  0  0  0  0  0  0  0  0  0
   48.7998    9.4835   14.3984 H   0  0  0  0  0  0  0  0  0  0  0  0
   47.2334   12.9789   21.2531 H   0  0  0  0  0  0  0  0  0  0  0  0
   46.8872    6.7012   21.4321 H   0  0  0  0  0  0  0  0  0  0  0  0
   51.4990   10.6233   13.5031 H   0  0  0  0  0  0  0  0  0  0  0  0
   52.2919    9.0826   13.2187 H   0  0  0  0  0  0  0  0  0  0  0  0
   50.6224    9.3277   12.6613 H   0  0  0  0  0  0  0  0  0  0  0  0
   50.4441    7.1882   15.6945 H   0  0  0  0  0  0  0  0  0  0  0  0
   51.6248    7.1191   14.4077 H   0  0  0  0  0  0  0  0  0  0  0  0
   49.9040    7.2946   14.0048 H   0  0  0  0  0  0  0  0  0  0  0  0
   50.0550    5.0974   19.0627 H   0  0  0  0  0  0  0  0  0  0  0  0
   51.4416   13.5032   20.6436 H   0  0  0  0  0  0  0  0  0  0  0  0
   48.1614    4.7621   20.6325 H   0  0  0  0  0  0  0  0  0  0  0  0
   49.2740   14.3367   21.5227 H   0  0  0  0  0  0  0  0  0  0  0  0
  2  1  1  0
  3  1  1  0
  4  2  2  0
  5  3  2  0
  6  4  1  0
  7  5  1  0
  8  1  1  0
  9  8  1  0
 10 13  1  0
 11  3  1  0
 12  2  1  0
 13  9  1  0
 14  5  1  0
 15  4  1  0
 16 10  1  0
 17 10  1  0
 18 12  2  0
 19 11  2  0
 20 15  2  0
 21 14  2  0
  6  7  1  0
 18 20  1  0
 19 21  1  0
 23 27  2  0
 24 28  1  0
 25 26  1  0
 26 22  2  0
 27 24  1  0
 28 25  1  0
 29 22  1  0
 30 23  1  0
 31 22  1  0
 32 23  1  0
 33 24  2  0
 34 35  1  0
 35 29  2  0
 36 33  1  0
 37 31  2  0
 38 32  2  0
 39 26  1  0
 40 27  1  0
 41 31  1  0
 42 32  1  0
 43 34  1  0
 44 33  1  0
 45 35  1  0
 46 36  1  0
 47 44  2  0
 48 43  2  0
 49 47  1  0
 50 45  2  0
 25 34  2  0
 48 50  1  0
 30 36  2  0
 46 49  2  0
 52 51  1  0
 53 51  1  0
 54 52  2  0
 55 53  2  0
 56 54  1  0
 57 55  1  0
 58 51  1  0
 59 58  1  0
 60 63  1  0
 61 53  1  0
 62 52  1  0
 63 59  1  0
 64 55  1  0
 65 54  1  0
 66 60  1  0
 67 60  1  0
 68 62  2  0
 69 61  2  0
 70 65  2  0
 71 64  2  0
 56 57  1  0
 68 70  1  0
 69 71  1  0
  6 72  1  0
  6 73  1  0
  7 74  1  0
  7 75  1  0
  8 76  1  0
  8 77  1  0
  9 78  1  0
  9 79  1  0
 11 80  1  0
 12 81  1  0
 13 82  1  0
 13 83  1  0
 14 84  1  0
 15 85  1  0
 16 86  1  0
 16 87  1  0
 16 88  1  0
 17 89  1  0
 17 90  1  0
 17 91  1  0
 18 92  1  0
 19 93  1  0
 20 94  1  0
 21 95  1  0
 28 96  1  0
 28 97  1  0
 29 98  1  0
 30 99  1  0
 39100  1  0
 40101  1  0
 41102  1  0
 42103  1  0
 43104  1  0
 44105  1  0
 45106  1  0
 46107  1  0
 47108  1  0
 48109  1  0
 49110  1  0
 50111  1  0
 56112  1  0
 56113  1  0
 57114  1  0
 57115  1  0
 58116  1  0
 58117  1  0
 59118  1  0
 59119  1  0
 61120  1  0
 62121  1  0
 63122  1  0
 63123  1  0
 64124  1  0
 65125  1  0
 66126  1  0
 66127  1  0
 66128  1  0
 67129  1  0
 67130  1  0
 67131  1  0
 68132  1  0
 69133  1  0
 70134  1  0
 71135  1  0
M  END
> <Uni-Dock RESULT> 
ENERGY=   -6.829  LOWER_BOUND=    2.716  UPPER_BOUND=    5.981
INTER + INTRA:          -6.829
INTER:                  -6.829
INTRA:                   0.000
UNBOUND:                 0.000

$$$$

     RDKit          3D

135142  0  0  0  0  0  0  0  0999 V2000
   49.8356    9.6020   19.9341 N   0  0  0  0  0  0  0  0  0  0  0  0
   49.2530    8.2942   20.0328 C   0  0  0  0  0  0  0  0  0  0  0  0
   49.3400   10.8860   20.3465 C   0  0  0  0  0  0  0  0  0  0  0  0
   48.0036    8.0188   20.6385 C   0  0  0  0  0  0  0  0  0  0  0  0
   47.9736   11.2191   20.3854 C   0  0  0  0  0  0  0  0  0  0  0  0
   47.0531    9.0786   21.1290 C   0  0  0  0  0  0  0  0  0  0  0  0
   46.9066   10.1994   20.1163 C   0  0  0  0  0  0  0  0  0  0  0  0
   51.0679    9.7250   19.0913 C   0  0  0  0  0  0  0  0  0  0  0  0
   52.3503    9.3850   19.8747 C   0  0  0  0  0  0  0  0  0  0  0  0
   53.7668    9.1066   17.8052 N   0  0  0  0  0  0  0  0  0  0  0  0
   50.2342   11.9163   20.7286 C   0  0  0  0  0  0  0  0  0  0  0  0
   49.9391    7.1509   19.5453 C   0  0  0  0  0  0  0  0  0  0  0  0
   53.6170    9.7825   19.1043 C   0  0  0  0  0  0  0  0  0  0  0  0
   47.5515   12.5277   20.7159 C   0  0  0  0  0  0  0  0  0  0  0  0
   47.5441    6.6839   20.7943 C   0  0  0  0  0  0  0  0  0  0  0  0
   54.8156    9.7638   17.0176 C   0  0  0  0  0  0  0  0  0  0  0  0
   54.1000    7.6872   17.9658 C   0  0  0  0  0  0  0  0  0  0  0  0
   49.4661    5.8378   19.6805 C   0  0  0  0  0  0  0  0  0  0  0  0
   49.8121   13.2059   21.0715 C   0  0  0  0  0  0  0  0  0  0  0  0
   48.2685    5.6010   20.3199 C   0  0  0  0  0  0  0  0  0  0  0  0
   48.4658   13.5168   21.0525 C   0  0  0  0  0  0  0  0  0  0  0  0
   47.8173    8.9202   22.1160 C   0  0  0  0  0  0  0  0  0  0  0  0
   53.3724   10.2073   19.8381 C   0  0  0  0  0  0  0  0  0  0  0  0
   51.5065    8.8190   19.0501 C   0  0  0  0  0  0  0  0  0  0  0  0
   49.0234    9.0005   19.9886 C   0  0  0  0  0  0  0  0  0  0  0  0
   48.8078    8.4338   21.2640 C   0  0  0  0  0  0  0  0  0  0  0  0
   52.0288    9.8026   19.9190 C   0  0  0  0  0  0  0  0  0  0  0  0
   50.0434    8.3612   19.0591 C   0  0  0  0  0  0  0  0  0  0  0  0
   47.0398   10.0091   21.7117 C   0  0  0  0  0  0  0  0  0  0  0  0
   54.2175    9.6043   18.9027 C   0  0  0  0  0  0  0  0  0  0  0  0
   47.6154    8.3395   23.4630 C   0  0  0  0  0  0  0  0  0  0  0  0
   53.9895   11.2524   20.6984 C   0  0  0  0  0  0  0  0  0  0  0  0
   52.3930    8.1953   18.1035 C   0  0  0  0  0  0  0  0  0  0  0  0
   48.2583   10.1410   19.5952 C   0  0  0  0  0  0  0  0  0  0  0  0
   47.2566   10.6312   20.4742 C   0  0  0  0  0  0  0  0  0  0  0  0
   53.7514    8.6034   18.0473 C   0  0  0  0  0  0  0  0  0  0  0  0
   48.4585    7.9061   24.2247 O   0  0  0  0  0  0  0  0  0  0  0  0
   55.1580   11.5957   20.6860 O   0  0  0  0  0  0  0  0  0  0  0  0
   49.5820    7.3802   21.6701 O   0  0  0  0  0  0  0  0  0  0  0  0
   51.1998   10.3365   20.8684 O   0  0  0  0  0  0  0  0  0  0  0  0
   46.3116    8.3407   23.8061 O   0  0  0  0  0  0  0  0  0  0  0  0
   53.1097   11.8378   21.5377 O   0  0  0  0  0  0  0  0  0  0  0  0
   48.4383   10.8338   18.3733 C   0  0  0  0  0  0  0  0  0  0  0  0
   52.0041    7.1695   17.2047 C   0  0  0  0  0  0  0  0  0  0  0  0
   46.4796   11.7455   20.1145 C   0  0  0  0  0  0  0  0  0  0  0  0
   54.6425    8.0056   17.1399 C   0  0  0  0  0  0  0  0  0  0  0  0
   52.9003    6.5808   16.3079 C   0  0  0  0  0  0  0  0  0  0  0  0
   47.6590   11.9430   18.0303 C   0  0  0  0  0  0  0  0  0  0  0  0
   54.2225    6.9987   16.2768 C   0  0  0  0  0  0  0  0  0  0  0  0
   46.6773   12.3967   18.8999 C   0  0  0  0  0  0  0  0  0  0  0  0
   50.0553    9.7606   20.3449 N   0  0  0  0  0  0  0  0  0  0  0  0
   49.5742    8.4652   20.6567 C   0  0  0  0  0  0  0  0  0  0  0  0
   49.3848   10.9953   20.5169 C   0  0  0  0  0  0  0  0  0  0  0  0
   48.2105    8.0953   20.6223 C   0  0  0  0  0  0  0  0  0  0  0  0
   48.1120   11.2260   19.9794 C   0  0  0  0  0  0  0  0  0  0  0  0
   47.0664    8.9925   20.1956 C   0  0  0  0  0  0  0  0  0  0  0  0
   47.4060   10.1267   19.2398 C   0  0  0  0  0  0  0  0  0  0  0  0
   51.3991    9.9013   19.7272 C   0  0  0  0  0  0  0  0  0  0  0  0
   51.4500    9.2258   18.3497 C   0  0  0  0  0  0  0  0  0  0  0  0
   53.9790    9.0858   18.3431 N   0  0  0  0  0  0  0  0  0  0  0  0
   50.0003   12.0382   21.2345 C   0  0  0  0  0  0  0  0  0  0  0  0
   50.4893    7.4696   21.0780 C   0  0  0  0  0  0  0  0  0  0  0  0
   52.7669    9.4944   17.6109 C   0  0  0  0  0  0  0  0  0  0  0  0
   47.4910   12.4783   20.1412 C   0  0  0  0  0  0  0  0  0  0  0  0
   47.8253    6.7888   21.0159 C   0  0  0  0  0  0  0  0  0  0  0  0
   55.1719    9.5520   17.6284 C   0  0  0  0  0  0  0  0  0  0  0  0
   54.0511    7.6326   18.5168 C   0  0  0  0  0  0  0  0  0  0  0  0
   50.0964    6.1792   21.4426 C   0  0  0  0  0  0  0  0  0  0  0  0
   49.3787   13.2778   21.3979 C   0  0  0  0  0  0  0  0  0  0  0  0
   48.7579    5.8373   21.4143 C   0  0  0  0  0  0  0  0  0  0  0  0
   48.1241   13.4998   20.8442 C   0  0  0  0  0  0  0  0  0  0  0  0
   47.3736    9.4305   22.1178 H   0  0  0  0  0  0  0  0  0  0  0  0
   46.0563    8.6388   21.2661 H   0  0  0  0  0  0  0  0  0  0  0  0
   46.9572    9.8560   19.0756 H   0  0  0  0  0  0  0  0  0  0  0  0
   45.9162   10.6548   20.2426 H   0  0  0  0  0  0  0  0  0  0  0  0
   50.9784    9.1131   18.1849 H   0  0  0  0  0  0  0  0  0  0  0  0
   51.1562   10.7386   18.6744 H   0  0  0  0  0  0  0  0  0  0  0  0
   52.3611    9.9101   20.8362 H   0  0  0  0  0  0  0  0  0  0  0  0
   52.3873    8.3267   20.1446 H   0  0  0  0  0  0  0  0  0  0  0  0
   51.3004   11.7366   20.7807 H   0  0  0  0  0  0  0  0  0  0  0  0
   50.8914    7.2311   19.0352 H   0  0  0  0  0  0  0  0  0  0  0  0
   54.4970    9.6032   19.7376 H   0  0  0  0  0  0  0  0  0  0  0  0
   53.5695   10.8690   18.9450 H   0  0  0  0  0  0  0  0  0  0  0  0
   46.4928   12.7743   20.7258 H   0  0  0  0  0  0  0  0  0  0  0  0
   46.5897    6.4885   21.2808 H   0  0  0  0  0  0  0  0  0  0  0  0
   54.9223    9.2843   16.0379 H   0  0  0  0  0  0  0  0  0  0  0  0
   54.5537   10.8101   16.8238 H   0  0  0  0  0  0  0  0  0  0  0  0
   55.7886    9.7385   17.5216 H   0  0  0  0  0  0  0  0  0  0  0  0
   54.2046    7.2068   16.9860 H   0  0  0  0  0  0  0  0  0  0  0  0
   53.3027    7.1463   18.4845 H   0  0  0  0  0  0  0  0  0  0  0  0
   55.0360    7.5431   18.5194 H   0  0  0  0  0  0  0  0  0  0  0  0
   50.0509    5.0102   19.2866 H   0  0  0  0  0  0  0  0  0  0  0  0
   50.5437   13.9593   21.3529 H   0  0  0  0  0  0  0  0  0  0  0  0
   47.8927    4.5897   20.4396 H   0  0  0  0  0  0  0  0  0  0  0  0
   48.1243   14.5152   21.3108 H   0  0  0  0  0  0  0  0  0  0  0  0
   50.0438    7.2804   19.2617 H   0  0  0  0  0  0  0  0  0  0  0  0
   49.6538    8.4418   18.0358 H   0  0  0  0  0  0  0  0  0  0  0  0
   46.2733   10.3927   22.3836 H   0  0  0  0  0  0  0  0  0  0  0  0
   55.2612    9.9164   18.8499 H   0  0  0  0  0  0  0  0  0  0  0  0
   50.5098    7.6569   21.5427 H   0  0  0  0  0  0  0  0  0  0  0  0
   51.6610   11.0732   21.3204 H   0  0  0  0  0  0  0  0  0  0  0  0
   46.3140    7.9079   24.6856 H   0  0  0  0  0  0  0  0  0  0  0  0
   53.6648   12.4928   22.0195 H   0  0  0  0  0  0  0  0  0  0  0  0
   49.2062   10.5288   17.6666 H   0  0  0  0  0  0  0  0  0  0  0  0
   50.9824    6.7966   17.1880 H   0  0  0  0  0  0  0  0  0  0  0  0
   45.7109   12.1207   20.7875 H   0  0  0  0  0  0  0  0  0  0  0  0
   55.6859    8.3181   17.1030 H   0  0  0  0  0  0  0  0  0  0  0  0
   52.5610    5.7937   15.6389 H   0  0  0  0  0  0  0  0  0  0  0  0
   47.8249   12.4512   17.0835 H   0  0  0  0  0  0  0  0  0  0  0  0
   54.9238    6.5432   15.5838 H   0  0  0  0  0  0  0  0  0  0  0  0
   46.0700   13.2577   18.6382 H   0  0  0  0  0  0  0  0  0  0  0  0
   46.5816    9.3825   21.1009 H   0  0  0  0  0  0  0  0  0  0  0  0
   46.3229    8.3683   19.6811 H   0  0  0  0  0  0  0  0  0  0  0  0
   48.0148    9.7855   18.3936 H   0  0  0  0  0  0  0  0  0  0  0  0
   46.4727   10.5132   18.8083 H   0  0  0  0  0  0  0  0  0  0  0  0
   52.1764    9.5208   20.3979 H   0  0  0  0  0  0  0  0  0  0  0  0
   51.6580   10.9574   19.5711 H   0  0  0  0  0  0  0  0  0  0  0  0
   50.6279    9.6105   17.7316 H   0  0  0  0  0  0  0  0  0  0  0  0
   51.2801    8.1467   18.4316 H   0  0  0  0  0  0  0  0  0  0  0  0
   50.9715   11.8764   21.6943 H   0  0  0  0  0  0  0  0  0  0  0  0
   51.5479    7.6945   21.1668 H   0  0  0  0  0  0  0  0  0  0  0  0
   52.8160   10.5757   17.4187 H   0  0  0  0  0  0  0  0  0  0  0  0
   52.7283    9.0076   16.6280 H   0  0  0  0  0  0  0  0  0  0  0  0
   46.5031   12.6591   19.7218 H   0  0  0  0  0  0  0  0  0  0  0  0
   46.7732    6.5076   21.0051 H   0  0  0  0  0  0  0  0  0  0  0  0
   55.1587   10.6427   17.5259 H   0  0  0  0  0  0  0  0  0  0  0  0
   56.0790    9.3018   18.1879 H   0  0  0  0  0  0  0  0  0  0  0  0
   55.2488    9.1125   16.6282 H   0  0  0  0  0  0  0  0  0  0  0  0
   53.2380    7.2689   19.1517 H   0  0  0  0  0  0  0  0  0  0  0  0
   54.9795    7.3532   19.0293 H   0  0  0  0  0  0  0  0  0  0  0  0
   54.0126    7.0986   17.5614 H   0  0  0  0  0  0  0  0  0  0  0  0
   50.8398    5.4551   21.7644 H   0  0  0  0  0  0  0  0  0  0  0  0
   49.8752   14.0638   21.9604 H   0  0  0  0  0  0  0  0  0  0  0  0
   48.4348    4.8428   21.7057 H   0  0  0  0  0  0  0  0  0  0  0  0
   47.6339   14.4614   20.9682 H   0  0  0  0  0  0  0  0  0  0  0  0
  2  1  1  0
  3  1  1  0
  4  2  2  0
  5  3  2  0
  6  4  1  0
  7  5  1  0
  8  1  1  0
  9  8  1  0
 10 13  1  0
 11  3  1  0
 12  2  1  0
 13  9  1  0
 14  5  1  0
 15  4  1  0
 16 10  1  0
 17 10  1  0
 18 12  2  0
 19 11  2  0
 20 15  2  0
 21 14  2  0
  6  7  1  0
 18 20  1  0
 19 21  1  0
 23 27  2  0
 24 28  1  0
 25 26  1  0
 26 22  2  0
 27 24  1  0
 28 25  1  0
 29 22  1  0
 30 23  1  0
 31 22  1  0
 32 23  1  0
 33 24  2  0
 34 35  1  0
 35 29  2  0
 36 33  1  0
 37 31  2  0
 38 32  2  0
 39 26  1  0
 40 27  1  0
 41 31  1  0
 42 32  1  0
 43 34  1  0
 44 33  1  0
 45 35  1  0
 46 36  1  0
 47 44  2  0
 48 43  2  0
 49 47  1  0
 50 45  2  0
 25 34  2  0
 48 50  1  0
 30 36  2  0
 46 49  2  0
 52 51  1  0
 53 51  1  0
 54 52  2  0
 55 53  2  0
 56 54  1  0
 57 55  1  0
 58 51  1  0
 59 58  1  0
 60 63  1  0
 61 53  1  0
 62 52  1  0
 63 59  1  0
 64 55  1  0
 65 54  1  0
 66 60  1  0
 67 60  1  0
 68 62  2  0
 69 61  2  0
 70 65  2  0
 71 64  2  0
 56 57  1  0
 68 70  1  0
 69 71  1  0
  6 72  1  0
  6 73  1  0
  7 74  1  0
  7 75  1  0
  8 76  1  0
  8 77  1  0
  9 78  1  0
  9 79  1  0
 11 80  1  0
 12 81  1  0
 13 82  1  0
 13 83  1  0
 14 84  1  0
 15 85  1  0
 16 86  1  0
 16 87  1  0
 16 88  1  0
 17 89  1  0
 17 90  1  0
 17 91  1  0
 18 92  1  0
 19 93  1  0
 20 94  1  0
 21 95  1  0
 28 96  1  0
 28 97  1  0
 29 98  1  0
 30 99  1  0
 39100  1  0
 40101  1  0
 41102  1  0
 42103  1  0
 43104  1  0
 44105  1  0
 45106  1  0
 46107  1  0
 47108  1  0
 48109  1  0
 49110  1  0
 50111  1  0
 56112  1  0
 56113  1  0
 57114  1  0
 57115  1  0
 58116  1  0
 58117  1  0
 59118  1  0
 59119  1  0
 61120  1  0
 62121  1  0
 63122  1  0
 63123  1  0
 64124  1  0
 65125  1  0
 66126  1  0
 66127  1  0
 66128  1  0
 67129  1  0
 67130  1  0
 67131  1  0
 68132  1  0
 69133  1  0
 70134  1  0
 71135  1  0
M  END
> <Uni-Dock RESULT> 
ENERGY=   -6.499  LOWER_BOUND=    3.908  UPPER_BOUND=    7.179
INTER + INTRA:          -6.499
INTER:                  -6.499
INTRA:                   0.000
UNBOUND:                 0.000

$$$$
