
     RDKit          3D

135142  0  0  0  0  0  0  0  0999 V2000
   48.6178    9.6167   18.9284 N   0  0  0  0  0  0  0  0  0  0  0  0
   48.3430   10.9274   19.4421 C   0  0  0  0  0  0  0  0  0  0  0  0
   48.7230    8.3525   19.5985 C   0  0  0  0  0  0  0  0  0  0  0  0
   47.5098   11.1703   20.5484 C   0  0  0  0  0  0  0  0  0  0  0  0
   48.5687    8.1717   20.9938 C   0  0  0  0  0  0  0  0  0  0  0  0
   46.9438   10.0469   21.3624 C   0  0  0  0  0  0  0  0  0  0  0  0
   48.0973    9.2454   21.9407 C   0  0  0  0  0  0  0  0  0  0  0  0
   48.5175    9.5760   17.4400 C   0  0  0  0  0  0  0  0  0  0  0  0
   49.8899    9.5120   16.7419 C   0  0  0  0  0  0  0  0  0  0  0  0
   50.9457    9.1439   14.4868 N   0  0  0  0  0  0  0  0  0  0  0  0
   49.0518    7.1718   18.8804 C   0  0  0  0  0  0  0  0  0  0  0  0
   48.8989   12.0715   18.8220 C   0  0  0  0  0  0  0  0  0  0  0  0
   49.7031    9.4375   15.2199 C   0  0  0  0  0  0  0  0  0  0  0  0
   48.8266    6.9138   21.6004 C   0  0  0  0  0  0  0  0  0  0  0  0
   47.2072   12.4902   20.9533 C   0  0  0  0  0  0  0  0  0  0  0  0
   50.6544    8.9567   13.0625 C   0  0  0  0  0  0  0  0  0  0  0  0
   51.9583   10.1866   14.6543 C   0  0  0  0  0  0  0  0  0  0  0  0
   48.6083   13.3773   19.2336 C   0  0  0  0  0  0  0  0  0  0  0  0
   49.2769    5.9268   19.4833 C   0  0  0  0  0  0  0  0  0  0  0  0
   47.7473   13.5879   20.2953 C   0  0  0  0  0  0  0  0  0  0  0  0
   49.1806    5.8009   20.8531 C   0  0  0  0  0  0  0  0  0  0  0  0
   48.5782    7.8817   21.6638 C   0  0  0  0  0  0  0  0  0  0  0  0
   49.4351    8.5160   15.5414 C   0  0  0  0  0  0  0  0  0  0  0  0
   50.4058    9.6493   17.4881 C   0  0  0  0  0  0  0  0  0  0  0  0
   49.5137    9.3309   19.9295 C   0  0  0  0  0  0  0  0  0  0  0  0
   49.6381    8.2545   20.8356 C   0  0  0  0  0  0  0  0  0  0  0  0
   49.7470    8.5422   16.9060 C   0  0  0  0  0  0  0  0  0  0  0  0
   50.6786    9.6577   18.9942 C   0  0  0  0  0  0  0  0  0  0  0  0
   47.3652    8.5670   21.5886 C   0  0  0  0  0  0  0  0  0  0  0  0
   49.8242    9.5864   14.7323 C   0  0  0  0  0  0  0  0  0  0  0  0
   48.6716    6.7872   22.6502 C   0  0  0  0  0  0  0  0  0  0  0  0
   48.7089    7.4075   14.8682 C   0  0  0  0  0  0  0  0  0  0  0  0
   50.8439   10.7225   16.6422 C   0  0  0  0  0  0  0  0  0  0  0  0
   48.2942   10.0822   19.9099 C   0  0  0  0  0  0  0  0  0  0  0  0
   47.2150    9.6657   20.7340 C   0  0  0  0  0  0  0  0  0  0  0  0
   50.5293   10.6738   15.2585 C   0  0  0  0  0  0  0  0  0  0  0  0
   47.7848    5.9985   22.9240 O   0  0  0  0  0  0  0  0  0  0  0  0
   48.4652    7.3250   13.6795 O   0  0  0  0  0  0  0  0  0  0  0  0
   50.7991    7.5304   20.8828 O   0  0  0  0  0  0  0  0  0  0  0  0
   49.4467    7.4861   17.7264 O   0  0  0  0  0  0  0  0  0  0  0  0
   49.8222    6.8233   23.3478 O   0  0  0  0  0  0  0  0  0  0  0  0
   48.3006    6.4465   15.7200 O   0  0  0  0  0  0  0  0  0  0  0  0
   48.0768   11.2339   19.1153 C   0  0  0  0  0  0  0  0  0  0  0  0
   51.5822   11.8528   17.0806 C   0  0  0  0  0  0  0  0  0  0  0  0
   45.9901   10.3531   20.7078 C   0  0  0  0  0  0  0  0  0  0  0  0
   50.9222   11.7114   14.3968 C   0  0  0  0  0  0  0  0  0  0  0  0
   51.9702   12.8774   16.2110 C   0  0  0  0  0  0  0  0  0  0  0  0
   46.8549   11.9133   19.1029 C   0  0  0  0  0  0  0  0  0  0  0  0
   51.6379   12.8078   14.8682 C   0  0  0  0  0  0  0  0  0  0  0  0
   45.8077   11.4671   19.8928 C   0  0  0  0  0  0  0  0  0  0  0  0
   48.3771    9.3140   18.6835 N   0  0  0  0  0  0  0  0  0  0  0  0
   48.1253   10.6223   19.1605 C   0  0  0  0  0  0  0  0  0  0  0  0
   48.0879    8.1111   19.3719 C   0  0  0  0  0  0  0  0  0  0  0  0
   48.2472   10.9951   20.5197 C   0  0  0  0  0  0  0  0  0  0  0  0
   48.6558    7.8435   20.6252 C   0  0  0  0  0  0  0  0  0  0  0  0
   48.7470   10.1022   21.6398 C   0  0  0  0  0  0  0  0  0  0  0  0
   49.5543    8.8691   21.2545 C   0  0  0  0  0  0  0  0  0  0  0  0
   48.8450    9.1105   17.2941 C   0  0  0  0  0  0  0  0  0  0  0  0
   50.2417    9.7113   17.0761 C   0  0  0  0  0  0  0  0  0  0  0  0
   52.1025    9.8794   15.3947 N   0  0  0  0  0  0  0  0  0  0  0  0
   47.2194    7.1542   18.8177 C   0  0  0  0  0  0  0  0  0  0  0  0
   47.6791   11.6237   18.2649 C   0  0  0  0  0  0  0  0  0  0  0  0
   50.7122    9.4590   15.6364 C   0  0  0  0  0  0  0  0  0  0  0  0
   48.3755    6.6380   21.2886 C   0  0  0  0  0  0  0  0  0  0  0  0
   47.8876   12.3050   20.9242 C   0  0  0  0  0  0  0  0  0  0  0  0
   52.2564   11.3353   15.4303 C   0  0  0  0  0  0  0  0  0  0  0  0
   52.5687    9.3663   14.1027 C   0  0  0  0  0  0  0  0  0  0  0  0
   47.3473   12.9176   18.6775 C   0  0  0  0  0  0  0  0  0  0  0  0
   46.9372    5.9587   19.4813 C   0  0  0  0  0  0  0  0  0  0  0  0
   47.4453   13.2583   20.0141 C   0  0  0  0  0  0  0  0  0  0  0  0
   47.5203    5.6988   20.7162 C   0  0  0  0  0  0  0  0  0  0  0  0
   46.2575    9.4414   20.7590 H   0  0  0  0  0  0  0  0  0  0  0  0
   46.3495   10.4496   22.1926 H   0  0  0  0  0  0  0  0  0  0  0  0
   47.7270    8.7757   22.8613 H   0  0  0  0  0  0  0  0  0  0  0  0
   48.9487    9.8729   22.2341 H   0  0  0  0  0  0  0  0  0  0  0  0
   47.9652   10.4454   17.0547 H   0  0  0  0  0  0  0  0  0  0  0  0
   47.8814    8.7364   17.1286 H   0  0  0  0  0  0  0  0  0  0  0  0
   50.4888   10.3893   17.0005 H   0  0  0  0  0  0  0  0  0  0  0  0
   50.4727    8.6511   17.0818 H   0  0  0  0  0  0  0  0  0  0  0  0
   49.1637    7.1694   17.8025 H   0  0  0  0  0  0  0  0  0  0  0  0
   49.5981   11.9720   18.0018 H   0  0  0  0  0  0  0  0  0  0  0  0
   48.9839    8.6340   15.0103 H   0  0  0  0  0  0  0  0  0  0  0  0
   49.2523   10.3725   14.8595 H   0  0  0  0  0  0  0  0  0  0  0  0
   48.7336    6.7991   22.6787 H   0  0  0  0  0  0  0  0  0  0  0  0
   46.5507   12.6644   21.8033 H   0  0  0  0  0  0  0  0  0  0  0  0
   50.2336    9.8598   12.6055 H   0  0  0  0  0  0  0  0  0  0  0  0
   49.9446    8.1332   12.9178 H   0  0  0  0  0  0  0  0  0  0  0  0
   51.5633    8.6832   12.5154 H   0  0  0  0  0  0  0  0  0  0  0  0
   51.5848   11.1754   14.3691 H   0  0  0  0  0  0  0  0  0  0  0  0
   52.3124   10.2285   15.6882 H   0  0  0  0  0  0  0  0  0  0  0  0
   52.8427    9.9659   14.0452 H   0  0  0  0  0  0  0  0  0  0  0  0
   49.0614   14.2215   18.7213 H   0  0  0  0  0  0  0  0  0  0  0  0
   49.5406    5.0688   18.8713 H   0  0  0  0  0  0  0  0  0  0  0  0
   47.5116   14.5953   20.6237 H   0  0  0  0  0  0  0  0  0  0  0  0
   49.3679    4.8469   21.3373 H   0  0  0  0  0  0  0  0  0  0  0  0
   51.5213    8.9726   19.1451 H   0  0  0  0  0  0  0  0  0  0  0  0
   51.0462   10.6267   19.3409 H   0  0  0  0  0  0  0  0  0  0  0  0
   46.5392    8.2509   22.2234 H   0  0  0  0  0  0  0  0  0  0  0  0
   49.5846    9.5612   13.6700 H   0  0  0  0  0  0  0  0  0  0  0  0
   51.4909    8.1283   21.2144 H   0  0  0  0  0  0  0  0  0  0  0  0
   48.9153    6.8362   17.2229 H   0  0  0  0  0  0  0  0  0  0  0  0
   49.7353    6.0774   23.9781 H   0  0  0  0  0  0  0  0  0  0  0  0
   47.8305    5.8132   15.1323 H   0  0  0  0  0  0  0  0  0  0  0  0
   48.8645   11.6333   18.4850 H   0  0  0  0  0  0  0  0  0  0  0  0
   51.8867   11.9639   18.1174 H   0  0  0  0  0  0  0  0  0  0  0  0
   45.1596   10.0242   21.3294 H   0  0  0  0  0  0  0  0  0  0  0  0
   50.6761   11.6701   13.3374 H   0  0  0  0  0  0  0  0  0  0  0  0
   52.5340   13.7266   16.5902 H   0  0  0  0  0  0  0  0  0  0  0  0
   46.7278   12.7865   18.4681 H   0  0  0  0  0  0  0  0  0  0  0  0
   51.9364   13.5993   14.1867 H   0  0  0  0  0  0  0  0  0  0  0  0
   44.8539   11.9869   19.8828 H   0  0  0  0  0  0  0  0  0  0  0  0
   47.8808    9.8102   22.2495 H   0  0  0  0  0  0  0  0  0  0  0  0
   49.3981   10.7112   22.2831 H   0  0  0  0  0  0  0  0  0  0  0  0
   50.3806    9.1182   20.5773 H   0  0  0  0  0  0  0  0  0  0  0  0
   50.0158    8.4520   22.1577 H   0  0  0  0  0  0  0  0  0  0  0  0
   48.9281    8.0394   17.0597 H   0  0  0  0  0  0  0  0  0  0  0  0
   48.1238    9.5031   16.5695 H   0  0  0  0  0  0  0  0  0  0  0  0
   50.9498    9.2528   17.7828 H   0  0  0  0  0  0  0  0  0  0  0  0
   50.2293   10.7869   17.2893 H   0  0  0  0  0  0  0  0  0  0  0  0
   46.7328    7.3506   17.8661 H   0  0  0  0  0  0  0  0  0  0  0  0
   47.5393   11.4050   17.2112 H   0  0  0  0  0  0  0  0  0  0  0  0
   50.6380    8.3789   15.4525 H   0  0  0  0  0  0  0  0  0  0  0  0
   50.0297    9.9475   14.9287 H   0  0  0  0  0  0  0  0  0  0  0  0
   48.8181    6.4302   22.2590 H   0  0  0  0  0  0  0  0  0  0  0  0
   47.9606   12.5867   21.9740 H   0  0  0  0  0  0  0  0  0  0  0  0
   52.0243   11.7378   16.4217 H   0  0  0  0  0  0  0  0  0  0  0  0
   53.2973   11.6144   15.2302 H   0  0  0  0  0  0  0  0  0  0  0  0
   51.6196   11.8349   14.6920 H   0  0  0  0  0  0  0  0  0  0  0  0
   53.6170    9.6356   13.9377 H   0  0  0  0  0  0  0  0  0  0  0  0
   51.9748    9.7543   13.2675 H   0  0  0  0  0  0  0  0  0  0  0  0
   52.5220    8.2725   14.0824 H   0  0  0  0  0  0  0  0  0  0  0  0
   46.9972   13.6465   17.9511 H   0  0  0  0  0  0  0  0  0  0  0  0
   46.2577    5.2375   19.0358 H   0  0  0  0  0  0  0  0  0  0  0  0
   47.1763   14.2537   20.3503 H   0  0  0  0  0  0  0  0  0  0  0  0
   47.3028    4.7711   21.2382 H   0  0  0  0  0  0  0  0  0  0  0  0
  2  1  1  0
  3  1  1  0
  4  2  2  0
  5  3  2  0
  6  4  1  0
  7  5  1  0
  8  1  1  0
  9  8  1  0
 10 13  1  0
 11  3  1  0
 12  2  1  0
 13  9  1  0
 14  5  1  0
 15  4  1  0
 16 10  1  0
 17 10  1  0
 18 12  2  0
 19 11  2  0
 20 15  2  0
 21 14  2  0
  6  7  1  0
 18 20  1  0
 19 21  1  0
 23 27  2  0
 24 28  1  0
 25 26  1  0
 26 22  2  0
 27 24  1  0
 28 25  1  0
 29 22  1  0
 30 23  1  0
 31 22  1  0
 32 23  1  0
 33 24  2  0
 34 35  1  0
 35 29  2  0
 36 33  1  0
 37 31  2  0
 38 32  2  0
 39 26  1  0
 40 27  1  0
 41 31  1  0
 42 32  1  0
 43 34  1  0
 44 33  1  0
 45 35  1  0
 46 36  1  0
 47 44  2  0
 48 43  2  0
 49 47  1  0
 50 45  2  0
 25 34  2  0
 48 50  1  0
 30 36  2  0
 46 49  2  0
 52 51  1  0
 53 51  1  0
 54 52  2  0
 55 53  2  0
 56 54  1  0
 57 55  1  0
 58 51  1  0
 59 58  1  0
 60 63  1  0
 61 53  1  0
 62 52  1  0
 63 59  1  0
 64 55  1  0
 65 54  1  0
 66 60  1  0
 67 60  1  0
 68 62  2  0
 69 61  2  0
 70 65  2  0
 71 64  2  0
 56 57  1  0
 68 70  1  0
 69 71  1  0
  6 72  1  0
  6 73  1  0
  7 74  1  0
  7 75  1  0
  8 76  1  0
  8 77  1  0
  9 78  1  0
  9 79  1  0
 11 80  1  0
 12 81  1  0
 13 82  1  0
 13 83  1  0
 14 84  1  0
 15 85  1  0
 16 86  1  0
 16 87  1  0
 16 88  1  0
 17 89  1  0
 17 90  1  0
 17 91  1  0
 18 92  1  0
 19 93  1  0
 20 94  1  0
 21 95  1  0
 28 96  1  0
 28 97  1  0
 29 98  1  0
 30 99  1  0
 39100  1  0
 40101  1  0
 41102  1  0
 42103  1  0
 43104  1  0
 44105  1  0
 45106  1  0
 46107  1  0
 47108  1  0
 48109  1  0
 49110  1  0
 50111  1  0
 56112  1  0
 56113  1  0
 57114  1  0
 57115  1  0
 58116  1  0
 58117  1  0
 59118  1  0
 59119  1  0
 61120  1  0
 62121  1  0
 63122  1  0
 63123  1  0
 64124  1  0
 65125  1  0
 66126  1  0
 66127  1  0
 66128  1  0
 67129  1  0
 67130  1  0
 67131  1  0
 68132  1  0
 69133  1  0
 70134  1  0
 71135  1  0
M  END
> <Uni-Dock RESULT> 
ENERGY=   -7.327  LOWER_BOUND=    0.000  UPPER_BOUND=    0.000
INTER + INTRA:          -7.327
INTER:                  -7.327
INTRA:                   0.000
UNBOUND:                 0.000

$$$$

     RDKit          3D

135142  0  0  0  0  0  0  0  0999 V2000
   48.6178    9.6169   18.9283 N   0  0  0  0  0  0  0  0  0  0  0  0
   48.3430   10.9276   19.4421 C   0  0  0  0  0  0  0  0  0  0  0  0
   48.7229    8.3527   19.5982 C   0  0  0  0  0  0  0  0  0  0  0  0
   47.5098   11.1704   20.5483 C   0  0  0  0  0  0  0  0  0  0  0  0
   48.5686    8.1717   20.9935 C   0  0  0  0  0  0  0  0  0  0  0  0
   46.9437   10.0469   21.3622 C   0  0  0  0  0  0  0  0  0  0  0  0
   48.0972    9.2454   21.9405 C   0  0  0  0  0  0  0  0  0  0  0  0
   48.5175    9.5763   17.4398 C   0  0  0  0  0  0  0  0  0  0  0  0
   49.8899    9.5124   16.7418 C   0  0  0  0  0  0  0  0  0  0  0  0
   50.9458    9.1444   14.4866 N   0  0  0  0  0  0  0  0  0  0  0  0
   49.0518    7.1720   18.8801 C   0  0  0  0  0  0  0  0  0  0  0  0
   48.8989   12.0717   18.8220 C   0  0  0  0  0  0  0  0  0  0  0  0
   49.7031    9.4380   15.2197 C   0  0  0  0  0  0  0  0  0  0  0  0
   48.8265    6.9138   21.6000 C   0  0  0  0  0  0  0  0  0  0  0  0
   47.2072   12.4902   20.9534 C   0  0  0  0  0  0  0  0  0  0  0  0
   50.6545    8.9573   13.0624 C   0  0  0  0  0  0  0  0  0  0  0  0
   51.9583   10.1871   14.6543 C   0  0  0  0  0  0  0  0  0  0  0  0
   48.6083   13.3775   19.2338 C   0  0  0  0  0  0  0  0  0  0  0  0
   49.2768    5.9269   19.4828 C   0  0  0  0  0  0  0  0  0  0  0  0
   47.7473   13.5880   20.2955 C   0  0  0  0  0  0  0  0  0  0  0  0
   49.1805    5.8009   20.8526 C   0  0  0  0  0  0  0  0  0  0  0  0
   48.5781    7.8817   21.6635 C   0  0  0  0  0  0  0  0  0  0  0  0
   49.4351    8.5165   15.5412 C   0  0  0  0  0  0  0  0  0  0  0  0
   50.4058    9.6496   17.4880 C   0  0  0  0  0  0  0  0  0  0  0  0
   49.5136    9.3310   19.9294 C   0  0  0  0  0  0  0  0  0  0  0  0
   49.6380    8.2545   20.8354 C   0  0  0  0  0  0  0  0  0  0  0  0
   49.7470    8.5426   16.9058 C   0  0  0  0  0  0  0  0  0  0  0  0
   50.6786    9.6579   18.9941 C   0  0  0  0  0  0  0  0  0  0  0  0
   47.3651    8.5670   21.5883 C   0  0  0  0  0  0  0  0  0  0  0  0
   49.8243    9.5869   14.7322 C   0  0  0  0  0  0  0  0  0  0  0  0
   48.6714    6.7871   22.6498 C   0  0  0  0  0  0  0  0  0  0  0  0
   48.7089    7.4081   14.8679 C   0  0  0  0  0  0  0  0  0  0  0  0
   50.8440   10.7229   16.6422 C   0  0  0  0  0  0  0  0  0  0  0  0
   48.2941   10.0823   19.9098 C   0  0  0  0  0  0  0  0  0  0  0  0
   47.2150    9.6658   20.7339 C   0  0  0  0  0  0  0  0  0  0  0  0
   50.5294   10.6743   15.2584 C   0  0  0  0  0  0  0  0  0  0  0  0
   47.7846    5.9984   22.9235 O   0  0  0  0  0  0  0  0  0  0  0  0
   48.4652    7.3256   13.6791 O   0  0  0  0  0  0  0  0  0  0  0  0
   50.7990    7.5304   20.8825 O   0  0  0  0  0  0  0  0  0  0  0  0
   49.4466    7.4864   17.7261 O   0  0  0  0  0  0  0  0  0  0  0  0
   49.8220    6.8231   23.3474 O   0  0  0  0  0  0  0  0  0  0  0  0
   48.3006    6.4470   15.7196 O   0  0  0  0  0  0  0  0  0  0  0  0
   48.0768   11.2341   19.1152 C   0  0  0  0  0  0  0  0  0  0  0  0
   51.5822   11.8532   17.0807 C   0  0  0  0  0  0  0  0  0  0  0  0
   45.9901   10.3532   20.7076 C   0  0  0  0  0  0  0  0  0  0  0  0
   50.9223   11.7120   14.3968 C   0  0  0  0  0  0  0  0  0  0  0  0
   51.9702   12.8778   16.2112 C   0  0  0  0  0  0  0  0  0  0  0  0
   46.8549   11.9135   19.1029 C   0  0  0  0  0  0  0  0  0  0  0  0
   51.6380   12.8083   14.8684 C   0  0  0  0  0  0  0  0  0  0  0  0
   45.8077   11.4672   19.8928 C   0  0  0  0  0  0  0  0  0  0  0  0
   48.3771    9.3143   18.6833 N   0  0  0  0  0  0  0  0  0  0  0  0
   48.1253   10.6224   19.1604 C   0  0  0  0  0  0  0  0  0  0  0  0
   48.0879    8.1113   19.3716 C   0  0  0  0  0  0  0  0  0  0  0  0
   48.2472   10.9952   20.5196 C   0  0  0  0  0  0  0  0  0  0  0  0
   48.6557    7.8435   20.6249 C   0  0  0  0  0  0  0  0  0  0  0  0
   48.7469   10.1021   21.6397 C   0  0  0  0  0  0  0  0  0  0  0  0
   49.5542    8.8691   21.2543 C   0  0  0  0  0  0  0  0  0  0  0  0
   48.8450    9.1108   17.2939 C   0  0  0  0  0  0  0  0  0  0  0  0
   50.2417    9.7117   17.0760 C   0  0  0  0  0  0  0  0  0  0  0  0
   52.1026    9.8798   15.3946 N   0  0  0  0  0  0  0  0  0  0  0  0
   47.2193    7.1545   18.8173 C   0  0  0  0  0  0  0  0  0  0  0  0
   47.6791   11.6240   18.2649 C   0  0  0  0  0  0  0  0  0  0  0  0
   50.7122    9.4595   15.6362 C   0  0  0  0  0  0  0  0  0  0  0  0
   48.3753    6.6380   21.2882 C   0  0  0  0  0  0  0  0  0  0  0  0
   47.8875   12.3050   20.9243 C   0  0  0  0  0  0  0  0  0  0  0  0
   52.2565   11.3358   15.4304 C   0  0  0  0  0  0  0  0  0  0  0  0
   52.5688    9.3668   14.1027 C   0  0  0  0  0  0  0  0  0  0  0  0
   47.3473   12.9179   18.6776 C   0  0  0  0  0  0  0  0  0  0  0  0
   46.9371    5.9589   19.4808 C   0  0  0  0  0  0  0  0  0  0  0  0
   47.4453   13.2585   20.0142 C   0  0  0  0  0  0  0  0  0  0  0  0
   47.5201    5.6989   20.7157 C   0  0  0  0  0  0  0  0  0  0  0  0
   46.2575    9.4415   20.7588 H   0  0  0  0  0  0  0  0  0  0  0  0
   46.3494   10.4496   22.1925 H   0  0  0  0  0  0  0  0  0  0  0  0
   47.7269    8.7756   22.8611 H   0  0  0  0  0  0  0  0  0  0  0  0
   48.9486    9.8728   22.2339 H   0  0  0  0  0  0  0  0  0  0  0  0
   47.9652   10.4458   17.0546 H   0  0  0  0  0  0  0  0  0  0  0  0
   47.8813    8.7367   17.1284 H   0  0  0  0  0  0  0  0  0  0  0  0
   50.4888   10.3896   17.0004 H   0  0  0  0  0  0  0  0  0  0  0  0
   50.4727    8.6514   17.0816 H   0  0  0  0  0  0  0  0  0  0  0  0
   49.1636    7.1696   17.8022 H   0  0  0  0  0  0  0  0  0  0  0  0
   49.5981   11.9723   18.0018 H   0  0  0  0  0  0  0  0  0  0  0  0
   48.9840    8.6345   15.0101 H   0  0  0  0  0  0  0  0  0  0  0  0
   49.2523   10.3730   14.8594 H   0  0  0  0  0  0  0  0  0  0  0  0
   48.7334    6.7989   22.6784 H   0  0  0  0  0  0  0  0  0  0  0  0
   46.5506   12.6644   21.8033 H   0  0  0  0  0  0  0  0  0  0  0  0
   50.2337    9.8605   12.6054 H   0  0  0  0  0  0  0  0  0  0  0  0
   49.9447    8.1339   12.9176 H   0  0  0  0  0  0  0  0  0  0  0  0
   51.5634    8.6839   12.5152 H   0  0  0  0  0  0  0  0  0  0  0  0
   51.5849   11.1760   14.3691 H   0  0  0  0  0  0  0  0  0  0  0  0
   52.3125   10.2289   15.6882 H   0  0  0  0  0  0  0  0  0  0  0  0
   52.8428    9.9664   14.0452 H   0  0  0  0  0  0  0  0  0  0  0  0
   49.0614   14.2217   18.7215 H   0  0  0  0  0  0  0  0  0  0  0  0
   49.5405    5.0690   18.8707 H   0  0  0  0  0  0  0  0  0  0  0  0
   47.5116   14.5953   20.6239 H   0  0  0  0  0  0  0  0  0  0  0  0
   49.3677    4.8469   21.3368 H   0  0  0  0  0  0  0  0  0  0  0  0
   51.5212    8.9727   19.1450 H   0  0  0  0  0  0  0  0  0  0  0  0
   51.0462   10.6269   19.3409 H   0  0  0  0  0  0  0  0  0  0  0  0
   46.5391    8.2509   22.2231 H   0  0  0  0  0  0  0  0  0  0  0  0
   49.5847    9.5619   13.6698 H   0  0  0  0  0  0  0  0  0  0  0  0
   51.4908    8.1282   21.2141 H   0  0  0  0  0  0  0  0  0  0  0  0
   48.9153    6.8365   17.2225 H   0  0  0  0  0  0  0  0  0  0  0  0
   49.7351    6.0772   23.9777 H   0  0  0  0  0  0  0  0  0  0  0  0
   47.8304    5.8138   15.1318 H   0  0  0  0  0  0  0  0  0  0  0  0
   48.8646   11.6336   18.4850 H   0  0  0  0  0  0  0  0  0  0  0  0
   51.8868   11.9641   18.1175 H   0  0  0  0  0  0  0  0  0  0  0  0
   45.1595   10.0242   21.3292 H   0  0  0  0  0  0  0  0  0  0  0  0
   50.6762   11.6707   13.3374 H   0  0  0  0  0  0  0  0  0  0  0  0
   52.5341   13.7269   16.5905 H   0  0  0  0  0  0  0  0  0  0  0  0
   46.7278   12.7867   18.4682 H   0  0  0  0  0  0  0  0  0  0  0  0
   51.9365   13.5998   14.1870 H   0  0  0  0  0  0  0  0  0  0  0  0
   44.8539   11.9871   19.8828 H   0  0  0  0  0  0  0  0  0  0  0  0
   47.8807    9.8101   22.2494 H   0  0  0  0  0  0  0  0  0  0  0  0
   49.3980   10.7111   22.2831 H   0  0  0  0  0  0  0  0  0  0  0  0
   50.3806    9.1182   20.5771 H   0  0  0  0  0  0  0  0  0  0  0  0
   50.0157    8.4520   22.1575 H   0  0  0  0  0  0  0  0  0  0  0  0
   48.9281    8.0397   17.0594 H   0  0  0  0  0  0  0  0  0  0  0  0
   48.1238    9.5035   16.5693 H   0  0  0  0  0  0  0  0  0  0  0  0
   50.9498    9.2530   17.7827 H   0  0  0  0  0  0  0  0  0  0  0  0
   50.2293   10.7872   17.2893 H   0  0  0  0  0  0  0  0  0  0  0  0
   46.7327    7.3509   17.8657 H   0  0  0  0  0  0  0  0  0  0  0  0
   47.5393   11.4054   17.2111 H   0  0  0  0  0  0  0  0  0  0  0  0
   50.6381    8.3794   15.4523 H   0  0  0  0  0  0  0  0  0  0  0  0
   50.0298    9.9480   14.9286 H   0  0  0  0  0  0  0  0  0  0  0  0
   48.8179    6.4302   22.2585 H   0  0  0  0  0  0  0  0  0  0  0  0
   47.9605   12.5867   21.9741 H   0  0  0  0  0  0  0  0  0  0  0  0
   52.0243   11.7381   16.4218 H   0  0  0  0  0  0  0  0  0  0  0  0
   53.2973   11.6148   15.2303 H   0  0  0  0  0  0  0  0  0  0  0  0
   51.6197   11.8354   14.6921 H   0  0  0  0  0  0  0  0  0  0  0  0
   53.6171    9.6362   13.9377 H   0  0  0  0  0  0  0  0  0  0  0  0
   51.9749    9.7549   13.2675 H   0  0  0  0  0  0  0  0  0  0  0  0
   52.5220    8.2731   14.0822 H   0  0  0  0  0  0  0  0  0  0  0  0
   46.9972   13.6468   17.9513 H   0  0  0  0  0  0  0  0  0  0  0  0
   46.2576    5.2377   19.0352 H   0  0  0  0  0  0  0  0  0  0  0  0
   47.1763   14.2538   20.3505 H   0  0  0  0  0  0  0  0  0  0  0  0
   47.3027    4.7712   21.2376 H   0  0  0  0  0  0  0  0  0  0  0  0
  2  1  1  0
  3  1  1  0
  4  2  2  0
  5  3  2  0
  6  4  1  0
  7  5  1  0
  8  1  1  0
  9  8  1  0
 10 13  1  0
 11  3  1  0
 12  2  1  0
 13  9  1  0
 14  5  1  0
 15  4  1  0
 16 10  1  0
 17 10  1  0
 18 12  2  0
 19 11  2  0
 20 15  2  0
 21 14  2  0
  6  7  1  0
 18 20  1  0
 19 21  1  0
 23 27  2  0
 24 28  1  0
 25 26  1  0
 26 22  2  0
 27 24  1  0
 28 25  1  0
 29 22  1  0
 30 23  1  0
 31 22  1  0
 32 23  1  0
 33 24  2  0
 34 35  1  0
 35 29  2  0
 36 33  1  0
 37 31  2  0
 38 32  2  0
 39 26  1  0
 40 27  1  0
 41 31  1  0
 42 32  1  0
 43 34  1  0
 44 33  1  0
 45 35  1  0
 46 36  1  0
 47 44  2  0
 48 43  2  0
 49 47  1  0
 50 45  2  0
 25 34  2  0
 48 50  1  0
 30 36  2  0
 46 49  2  0
 52 51  1  0
 53 51  1  0
 54 52  2  0
 55 53  2  0
 56 54  1  0
 57 55  1  0
 58 51  1  0
 59 58  1  0
 60 63  1  0
 61 53  1  0
 62 52  1  0
 63 59  1  0
 64 55  1  0
 65 54  1  0
 66 60  1  0
 67 60  1  0
 68 62  2  0
 69 61  2  0
 70 65  2  0
 71 64  2  0
 56 57  1  0
 68 70  1  0
 69 71  1  0
  6 72  1  0
  6 73  1  0
  7 74  1  0
  7 75  1  0
  8 76  1  0
  8 77  1  0
  9 78  1  0
  9 79  1  0
 11 80  1  0
 12 81  1  0
 13 82  1  0
 13 83  1  0
 14 84  1  0
 15 85  1  0
 16 86  1  0
 16 87  1  0
 16 88  1  0
 17 89  1  0
 17 90  1  0
 17 91  1  0
 18 92  1  0
 19 93  1  0
 20 94  1  0
 21 95  1  0
 28 96  1  0
 28 97  1  0
 29 98  1  0
 30 99  1  0
 39100  1  0
 40101  1  0
 41102  1  0
 42103  1  0
 43104  1  0
 44105  1  0
 45106  1  0
 46107  1  0
 47108  1  0
 48109  1  0
 49110  1  0
 50111  1  0
 56112  1  0
 56113  1  0
 57114  1  0
 57115  1  0
 58116  1  0
 58117  1  0
 59118  1  0
 59119  1  0
 61120  1  0
 62121  1  0
 63122  1  0
 63123  1  0
 64124  1  0
 65125  1  0
 66126  1  0
 66127  1  0
 66128  1  0
 67129  1  0
 67130  1  0
 67131  1  0
 68132  1  0
 69133  1  0
 70134  1  0
 71135  1  0
M  END
> <Uni-Dock RESULT> 
ENERGY=   -7.327  LOWER_BOUND=    0.000  UPPER_BOUND=    0.000
INTER + INTRA:          -7.327
INTER:                  -7.327
INTRA:                   0.000
UNBOUND:                 0.000

$$$$

     RDKit          3D

135142  0  0  0  0  0  0  0  0999 V2000
   49.2153    7.0070   17.8550 N   0  0  0  0  0  0  0  0  0  0  0  0
   48.4652    5.8175   17.5719 C   0  0  0  0  0  0  0  0  0  0  0  0
   49.1954    7.8758   18.9964 C   0  0  0  0  0  0  0  0  0  0  0  0
   48.0453    4.9093   18.5597 C   0  0  0  0  0  0  0  0  0  0  0  0
   48.3588    7.6961   20.1238 C   0  0  0  0  0  0  0  0  0  0  0  0
   48.2442    5.1925   20.0175 C   0  0  0  0  0  0  0  0  0  0  0  0
   47.5072    6.4754   20.3615 C   0  0  0  0  0  0  0  0  0  0  0  0
   50.3535    7.1797   16.9053 C   0  0  0  0  0  0  0  0  0  0  0  0
   50.1030    8.2772   15.8530 C   0  0  0  0  0  0  0  0  0  0  0  0
   51.2703    9.5933   14.0525 N   0  0  0  0  0  0  0  0  0  0  0  0
   50.0078    9.0403   19.0406 C   0  0  0  0  0  0  0  0  0  0  0  0
   48.1248    5.4849   16.2392 C   0  0  0  0  0  0  0  0  0  0  0  0
   51.3280    8.4187   14.9384 C   0  0  0  0  0  0  0  0  0  0  0  0
   48.2953    8.6756   21.1501 C   0  0  0  0  0  0  0  0  0  0  0  0
   47.3849    3.7097   18.2093 C   0  0  0  0  0  0  0  0  0  0  0  0
   52.5307    9.7278   13.3165 C   0  0  0  0  0  0  0  0  0  0  0  0
   50.1498    9.5359   13.1135 C   0  0  0  0  0  0  0  0  0  0  0  0
   47.4587    4.3026   15.8962 C   0  0  0  0  0  0  0  0  0  0  0  0
   49.9603    9.9885   20.0715 C   0  0  0  0  0  0  0  0  0  0  0  0
   47.0997    3.4043   16.8846 C   0  0  0  0  0  0  0  0  0  0  0  0
   49.0866    9.8140   21.1239 C   0  0  0  0  0  0  0  0  0  0  0  0
   47.9931    7.8111   20.7453 C   0  0  0  0  0  0  0  0  0  0  0  0
   51.6278    8.8369   15.8099 C   0  0  0  0  0  0  0  0  0  0  0  0
   49.2211    8.4312   16.0539 C   0  0  0  0  0  0  0  0  0  0  0  0
   48.1099    7.6865   18.3052 C   0  0  0  0  0  0  0  0  0  0  0  0
   47.8332    8.4024   19.4910 C   0  0  0  0  0  0  0  0  0  0  0  0
   50.4645    8.8389   16.5890 C   0  0  0  0  0  0  0  0  0  0  0  0
   47.9860    8.3983   16.9574 C   0  0  0  0  0  0  0  0  0  0  0  0
   48.4516    6.4967   20.8390 C   0  0  0  0  0  0  0  0  0  0  0  0
   51.5472    8.4676   14.4650 C   0  0  0  0  0  0  0  0  0  0  0  0
   47.6840    8.5067   22.0103 C   0  0  0  0  0  0  0  0  0  0  0  0
   52.9751    9.2119   16.3135 C   0  0  0  0  0  0  0  0  0  0  0  0
   49.1380    8.0992   14.6603 C   0  0  0  0  0  0  0  0  0  0  0  0
   48.5051    6.3130   18.4017 C   0  0  0  0  0  0  0  0  0  0  0  0
   48.6968    5.7399   19.6870 C   0  0  0  0  0  0  0  0  0  0  0  0
   50.3257    8.1139   13.8824 C   0  0  0  0  0  0  0  0  0  0  0  0
   48.3134    8.4087   23.0484 O   0  0  0  0  0  0  0  0  0  0  0  0
   53.9971    9.2717   15.6569 O   0  0  0  0  0  0  0  0  0  0  0  0
   47.4401    9.7121   19.4238 O   0  0  0  0  0  0  0  0  0  0  0  0
   50.4810    9.2581   17.8938 O   0  0  0  0  0  0  0  0  0  0  0  0
   46.5195    9.1794   21.9534 O   0  0  0  0  0  0  0  0  0  0  0  0
   52.9911    9.4845   17.6331 O   0  0  0  0  0  0  0  0  0  0  0  0
   48.7237    5.4635   17.2901 C   0  0  0  0  0  0  0  0  0  0  0  0
   47.9429    7.7509   13.9782 C   0  0  0  0  0  0  0  0  0  0  0  0
   49.1261    4.4087   19.8182 C   0  0  0  0  0  0  0  0  0  0  0  0
   50.2940    7.7780   12.5187 C   0  0  0  0  0  0  0  0  0  0  0  0
   47.9250    7.4219   12.6188 C   0  0  0  0  0  0  0  0  0  0  0  0
   49.1447    4.1381   17.4341 C   0  0  0  0  0  0  0  0  0  0  0  0
   49.1020    7.4332   11.8889 C   0  0  0  0  0  0  0  0  0  0  0  0
   49.3549    3.6130   18.6990 C   0  0  0  0  0  0  0  0  0  0  0  0
   49.6509    7.0887   17.9696 N   0  0  0  0  0  0  0  0  0  0  0  0
   48.9150    5.9223   17.6526 C   0  0  0  0  0  0  0  0  0  0  0  0
   49.8157    7.6381   19.2640 C   0  0  0  0  0  0  0  0  0  0  0  0
   47.7207    5.5486   18.3124 C   0  0  0  0  0  0  0  0  0  0  0  0
   48.7079    8.0410   20.0225 C   0  0  0  0  0  0  0  0  0  0  0  0
   47.0034    6.3648   19.3713 C   0  0  0  0  0  0  0  0  0  0  0  0
   47.3286    7.8504   19.4599 C   0  0  0  0  0  0  0  0  0  0  0  0
   50.4637    7.7564   16.9284 C   0  0  0  0  0  0  0  0  0  0  0  0
   49.5832    8.3327   15.8096 C   0  0  0  0  0  0  0  0  0  0  0  0
   49.6647    9.7466   13.7329 N   0  0  0  0  0  0  0  0  0  0  0  0
   51.0961    7.7903   19.8249 C   0  0  0  0  0  0  0  0  0  0  0  0
   49.3969    5.0345   16.6607 C   0  0  0  0  0  0  0  0  0  0  0  0
   50.4506    9.0438   14.7609 C   0  0  0  0  0  0  0  0  0  0  0  0
   48.8867    8.6021   21.2973 C   0  0  0  0  0  0  0  0  0  0  0  0
   47.0971    4.3167   17.9930 C   0  0  0  0  0  0  0  0  0  0  0  0
   48.9545    8.8208   12.8478 C   0  0  0  0  0  0  0  0  0  0  0  0
   50.5359   10.6176   12.9378 C   0  0  0  0  0  0  0  0  0  0  0  0
   48.7583    3.8320   16.3436 C   0  0  0  0  0  0  0  0  0  0  0  0
   51.2717    8.3429   21.0950 C   0  0  0  0  0  0  0  0  0  0  0  0
   47.6069    3.4677   17.0173 C   0  0  0  0  0  0  0  0  0  0  0  0
   50.1653    8.7536   21.8296 C   0  0  0  0  0  0  0  0  0  0  0  0
   49.3125    5.2302   20.2606 H   0  0  0  0  0  0  0  0  0  0  0  0
   47.8211    4.3767   20.6177 H   0  0  0  0  0  0  0  0  0  0  0  0
   47.2509    6.4178   21.4274 H   0  0  0  0  0  0  0  0  0  0  0  0
   46.5584    6.5812   19.8202 H   0  0  0  0  0  0  0  0  0  0  0  0
   50.5845    6.2382   16.3860 H   0  0  0  0  0  0  0  0  0  0  0  0
   51.2806    7.3755   17.4610 H   0  0  0  0  0  0  0  0  0  0  0  0
   49.2193    8.0365   15.2561 H   0  0  0  0  0  0  0  0  0  0  0  0
   49.8837    9.2404   16.3227 H   0  0  0  0  0  0  0  0  0  0  0  0
   50.7166    9.2743   18.2550 H   0  0  0  0  0  0  0  0  0  0  0  0
   48.3570    6.1580   15.4240 H   0  0  0  0  0  0  0  0  0  0  0  0
   52.2144    8.5168   15.5798 H   0  0  0  0  0  0  0  0  0  0  0  0
   51.4570    7.4978   14.3530 H   0  0  0  0  0  0  0  0  0  0  0  0
   47.6237    8.5373   21.9953 H   0  0  0  0  0  0  0  0  0  0  0  0
   47.0767    3.0093   18.9827 H   0  0  0  0  0  0  0  0  0  0  0  0
   52.7249    8.8640   12.6701 H   0  0  0  0  0  0  0  0  0  0  0  0
   53.3736    9.8371   14.0096 H   0  0  0  0  0  0  0  0  0  0  0  0
   52.5204   10.6298   12.6950 H   0  0  0  0  0  0  0  0  0  0  0  0
   50.1592    8.6200   12.5139 H   0  0  0  0  0  0  0  0  0  0  0  0
   49.1928    9.6037   13.6384 H   0  0  0  0  0  0  0  0  0  0  0  0
   50.1760   10.3928   12.4300 H   0  0  0  0  0  0  0  0  0  0  0  0
   47.2224    4.0948   14.8563 H   0  0  0  0  0  0  0  0  0  0  0  0
   50.6012   10.8648   20.0308 H   0  0  0  0  0  0  0  0  0  0  0  0
   46.5845    2.4827   16.6325 H   0  0  0  0  0  0  0  0  0  0  0  0
   49.0259   10.5476   21.9225 H   0  0  0  0  0  0  0  0  0  0  0  0
   47.6828    9.4449   17.0806 H   0  0  0  0  0  0  0  0  0  0  0  0
   47.1324    7.9198   16.4710 H   0  0  0  0  0  0  0  0  0  0  0  0
   48.5943    6.0556   21.8239 H   0  0  0  0  0  0  0  0  0  0  0  0
   52.4530    8.4716   13.8598 H   0  0  0  0  0  0  0  0  0  0  0  0
   46.5663    9.7226   18.9968 H   0  0  0  0  0  0  0  0  0  0  0  0
   51.4084    9.4203   18.1617 H   0  0  0  0  0  0  0  0  0  0  0  0
   46.4239    9.5551   22.8540 H   0  0  0  0  0  0  0  0  0  0  0  0
   53.9374    9.6896   17.8065 H   0  0  0  0  0  0  0  0  0  0  0  0
   48.5652    5.8186   16.2771 H   0  0  0  0  0  0  0  0  0  0  0  0
   46.9834    7.7350   14.4873 H   0  0  0  0  0  0  0  0  0  0  0  0
   49.2861    3.9753   20.8037 H   0  0  0  0  0  0  0  0  0  0  0  0
   51.2080    7.7885   11.9279 H   0  0  0  0  0  0  0  0  0  0  0  0
   46.9862    7.1594   12.1363 H   0  0  0  0  0  0  0  0  0  0  0  0
   49.3122    3.5248   16.5524 H   0  0  0  0  0  0  0  0  0  0  0  0
   49.0958    7.1796   10.8327 H   0  0  0  0  0  0  0  0  0  0  0  0
   49.6881    2.5858   18.8172 H   0  0  0  0  0  0  0  0  0  0  0  0
   47.1769    5.8823   20.3431 H   0  0  0  0  0  0  0  0  0  0  0  0
   45.9250    6.2944   19.1692 H   0  0  0  0  0  0  0  0  0  0  0  0
   47.2436    8.3451   18.4845 H   0  0  0  0  0  0  0  0  0  0  0  0
   46.5928    8.3352   20.1126 H   0  0  0  0  0  0  0  0  0  0  0  0
   51.0241    8.6035   17.3496 H   0  0  0  0  0  0  0  0  0  0  0  0
   51.2288    7.0829   16.5277 H   0  0  0  0  0  0  0  0  0  0  0  0
   48.8654    9.0462   16.2419 H   0  0  0  0  0  0  0  0  0  0  0  0
   48.9962    7.5345   15.3398 H   0  0  0  0  0  0  0  0  0  0  0  0
   51.9714    7.4507   19.2778 H   0  0  0  0  0  0  0  0  0  0  0  0
   50.3196    5.2431   16.1288 H   0  0  0  0  0  0  0  0  0  0  0  0
   51.0674    9.7810   15.2920 H   0  0  0  0  0  0  0  0  0  0  0  0
   51.1422    8.3272   14.2991 H   0  0  0  0  0  0  0  0  0  0  0  0
   48.0276    8.9164   21.8835 H   0  0  0  0  0  0  0  0  0  0  0  0
   46.1892    4.0178   18.5156 H   0  0  0  0  0  0  0  0  0  0  0  0
   48.2115    8.2334   13.3969 H   0  0  0  0  0  0  0  0  0  0  0  0
   48.3946    9.3748   12.0857 H   0  0  0  0  0  0  0  0  0  0  0  0
   49.6378    8.1324   12.3383 H   0  0  0  0  0  0  0  0  0  0  0  0
   49.9506   11.1785   12.2020 H   0  0  0  0  0  0  0  0  0  0  0  0
   51.3099   10.0515   12.4073 H   0  0  0  0  0  0  0  0  0  0  0  0
   51.0259   11.3599   13.5764 H   0  0  0  0  0  0  0  0  0  0  0  0
   49.1767    3.1790   15.5821 H   0  0  0  0  0  0  0  0  0  0  0  0
   52.2707    8.4443   21.5098 H   0  0  0  0  0  0  0  0  0  0  0  0
   47.1099    2.5303   16.7923 H   0  0  0  0  0  0  0  0  0  0  0  0
   50.2956    9.1825   22.8192 H   0  0  0  0  0  0  0  0  0  0  0  0
  2  1  1  0
  3  1  1  0
  4  2  2  0
  5  3  2  0
  6  4  1  0
  7  5  1  0
  8  1  1  0
  9  8  1  0
 10 13  1  0
 11  3  1  0
 12  2  1  0
 13  9  1  0
 14  5  1  0
 15  4  1  0
 16 10  1  0
 17 10  1  0
 18 12  2  0
 19 11  2  0
 20 15  2  0
 21 14  2  0
  6  7  1  0
 18 20  1  0
 19 21  1  0
 23 27  2  0
 24 28  1  0
 25 26  1  0
 26 22  2  0
 27 24  1  0
 28 25  1  0
 29 22  1  0
 30 23  1  0
 31 22  1  0
 32 23  1  0
 33 24  2  0
 34 35  1  0
 35 29  2  0
 36 33  1  0
 37 31  2  0
 38 32  2  0
 39 26  1  0
 40 27  1  0
 41 31  1  0
 42 32  1  0
 43 34  1  0
 44 33  1  0
 45 35  1  0
 46 36  1  0
 47 44  2  0
 48 43  2  0
 49 47  1  0
 50 45  2  0
 25 34  2  0
 48 50  1  0
 30 36  2  0
 46 49  2  0
 52 51  1  0
 53 51  1  0
 54 52  2  0
 55 53  2  0
 56 54  1  0
 57 55  1  0
 58 51  1  0
 59 58  1  0
 60 63  1  0
 61 53  1  0
 62 52  1  0
 63 59  1  0
 64 55  1  0
 65 54  1  0
 66 60  1  0
 67 60  1  0
 68 62  2  0
 69 61  2  0
 70 65  2  0
 71 64  2  0
 56 57  1  0
 68 70  1  0
 69 71  1  0
  6 72  1  0
  6 73  1  0
  7 74  1  0
  7 75  1  0
  8 76  1  0
  8 77  1  0
  9 78  1  0
  9 79  1  0
 11 80  1  0
 12 81  1  0
 13 82  1  0
 13 83  1  0
 14 84  1  0
 15 85  1  0
 16 86  1  0
 16 87  1  0
 16 88  1  0
 17 89  1  0
 17 90  1  0
 17 91  1  0
 18 92  1  0
 19 93  1  0
 20 94  1  0
 21 95  1  0
 28 96  1  0
 28 97  1  0
 29 98  1  0
 30 99  1  0
 39100  1  0
 40101  1  0
 41102  1  0
 42103  1  0
 43104  1  0
 44105  1  0
 45106  1  0
 46107  1  0
 47108  1  0
 48109  1  0
 49110  1  0
 50111  1  0
 56112  1  0
 56113  1  0
 57114  1  0
 57115  1  0
 58116  1  0
 58117  1  0
 59118  1  0
 59119  1  0
 61120  1  0
 62121  1  0
 63122  1  0
 63123  1  0
 64124  1  0
 65125  1  0
 66126  1  0
 66127  1  0
 66128  1  0
 67129  1  0
 67130  1  0
 67131  1  0
 68132  1  0
 69133  1  0
 70134  1  0
 71135  1  0
M  END
> <Uni-Dock RESULT> 
ENERGY=   -7.307  LOWER_BOUND=    2.161  UPPER_BOUND=    4.908
INTER + INTRA:          -7.307
INTER:                  -7.307
INTRA:                   0.000
UNBOUND:                 0.000

$$$$

     RDKit          3D

135142  0  0  0  0  0  0  0  0999 V2000
   49.7261    9.6923   21.2062 N   0  0  0  0  0  0  0  0  0  0  0  0
   48.5436   10.4297   20.8663 C   0  0  0  0  0  0  0  0  0  0  0  0
   49.8951    8.3197   21.5878 C   0  0  0  0  0  0  0  0  0  0  0  0
   47.4307    9.8610   20.2221 C   0  0  0  0  0  0  0  0  0  0  0  0
   48.8370    7.3878   21.7110 C   0  0  0  0  0  0  0  0  0  0  0  0
   47.3488    8.3885   19.9571 C   0  0  0  0  0  0  0  0  0  0  0  0
   47.4161    7.6577   21.2871 C   0  0  0  0  0  0  0  0  0  0  0  0
   50.9653   10.4415   20.8456 C   0  0  0  0  0  0  0  0  0  0  0  0
   51.6846   11.0464   22.0669 C   0  0  0  0  0  0  0  0  0  0  0  0
   53.8307   12.1781   22.7373 N   0  0  0  0  0  0  0  0  0  0  0  0
   51.1768    7.8099   21.9274 C   0  0  0  0  0  0  0  0  0  0  0  0
   48.4536   11.8123   21.1538 C   0  0  0  0  0  0  0  0  0  0  0  0
   52.9636   11.7684   21.6201 C   0  0  0  0  0  0  0  0  0  0  0  0
   49.0669    6.0858   22.2295 C   0  0  0  0  0  0  0  0  0  0  0  0
   46.3303   10.6588   19.8344 C   0  0  0  0  0  0  0  0  0  0  0  0
   55.0845   12.7339   22.2202 C   0  0  0  0  0  0  0  0  0  0  0  0
   53.1861   13.1464   23.6247 C   0  0  0  0  0  0  0  0  0  0  0  0
   47.3566   12.5975   20.7806 C   0  0  0  0  0  0  0  0  0  0  0  0
   51.3999    6.5137   22.4115 C   0  0  0  0  0  0  0  0  0  0  0  0
   46.2964   12.0207   20.1053 C   0  0  0  0  0  0  0  0  0  0  0  0
   50.3364    5.6523   22.5799 C   0  0  0  0  0  0  0  0  0  0  0  0
   48.4499    6.7914   21.8773 C   0  0  0  0  0  0  0  0  0  0  0  0
   53.1968   10.7875   21.5319 C   0  0  0  0  0  0  0  0  0  0  0  0
   51.0344   10.8615   22.6873 C   0  0  0  0  0  0  0  0  0  0  0  0
   49.1347    9.1020   22.2963 C   0  0  0  0  0  0  0  0  0  0  0  0
   49.0054    7.7593   22.7156 C   0  0  0  0  0  0  0  0  0  0  0  0
   52.0843   10.1365   22.0785 C   0  0  0  0  0  0  0  0  0  0  0  0
   49.8125   10.1116   23.2235 C   0  0  0  0  0  0  0  0  0  0  0  0
   48.0296    7.1438   20.5944 C   0  0  0  0  0  0  0  0  0  0  0  0
   53.2905   12.1778   21.6318 C   0  0  0  0  0  0  0  0  0  0  0  0
   48.2623    5.3844   22.2830 C   0  0  0  0  0  0  0  0  0  0  0  0
   54.3171   10.0967   20.8411 C   0  0  0  0  0  0  0  0  0  0  0  0
   51.1607   12.2840   22.8281 C   0  0  0  0  0  0  0  0  0  0  0  0
   48.6309    9.4770   21.0087 C   0  0  0  0  0  0  0  0  0  0  0  0
   48.1019    8.4715   20.1564 C   0  0  0  0  0  0  0  0  0  0  0  0
   52.3014   12.9263   22.2782 C   0  0  0  0  0  0  0  0  0  0  0  0
   48.4108    4.4111   21.5659 O   0  0  0  0  0  0  0  0  0  0  0  0
   55.3220   10.6208   20.3997 O   0  0  0  0  0  0  0  0  0  0  0  0
   49.4666    7.3797   23.9475 O   0  0  0  0  0  0  0  0  0  0  0  0
   51.9804    8.7699   22.0655 O   0  0  0  0  0  0  0  0  0  0  0  0
   47.7596    5.2727   23.5267 O   0  0  0  0  0  0  0  0  0  0  0  0
   54.1252    8.7688   20.7165 O   0  0  0  0  0  0  0  0  0  0  0  0
   48.6188   10.8019   20.5094 C   0  0  0  0  0  0  0  0  0  0  0  0
   50.2222   13.1216   23.4857 C   0  0  0  0  0  0  0  0  0  0  0  0
   47.6391    8.7968   18.8705 C   0  0  0  0  0  0  0  0  0  0  0  0
   52.4571   14.3190   22.3764 C   0  0  0  0  0  0  0  0  0  0  0  0
   50.3914   14.5069   23.5793 C   0  0  0  0  0  0  0  0  0  0  0  0
   48.1493   11.1137   19.2299 C   0  0  0  0  0  0  0  0  0  0  0  0
   51.5087   15.1065   23.0221 C   0  0  0  0  0  0  0  0  0  0  0  0
   47.6676   10.1091   18.4063 C   0  0  0  0  0  0  0  0  0  0  0  0
   50.0789    9.5280   20.9652 N   0  0  0  0  0  0  0  0  0  0  0  0
   48.9299   10.2878   20.6415 C   0  0  0  0  0  0  0  0  0  0  0  0
   50.1670    8.1150   20.9577 C   0  0  0  0  0  0  0  0  0  0  0  0
   47.6115    9.8841   20.9583 C   0  0  0  0  0  0  0  0  0  0  0  0
   49.3319    7.3363   21.7708 C   0  0  0  0  0  0  0  0  0  0  0  0
   47.2327    8.6526   21.7594 C   0  0  0  0  0  0  0  0  0  0  0  0
   48.3081    8.0183   22.6323 C   0  0  0  0  0  0  0  0  0  0  0  0
   51.3735   10.2069   21.1972 C   0  0  0  0  0  0  0  0  0  0  0  0
   51.3254   11.1008   22.4453 C   0  0  0  0  0  0  0  0  0  0  0  0
   52.7616   12.5255   23.9372 N   0  0  0  0  0  0  0  0  0  0  0  0
   51.0927    7.4548   20.1304 C   0  0  0  0  0  0  0  0  0  0  0  0
   49.0671   11.4978   19.9195 C   0  0  0  0  0  0  0  0  0  0  0  0
   52.6891   11.7676   22.6768 C   0  0  0  0  0  0  0  0  0  0  0  0
   49.4429    5.9365   21.7678 C   0  0  0  0  0  0  0  0  0  0  0  0
   46.5126   10.6622   20.5161 C   0  0  0  0  0  0  0  0  0  0  0  0
   51.9246   13.7270   23.9113 C   0  0  0  0  0  0  0  0  0  0  0  0
   54.1503   12.8986   24.2238 C   0  0  0  0  0  0  0  0  0  0  0  0
   47.9728   12.2643   19.5079 C   0  0  0  0  0  0  0  0  0  0  0  0
   51.1977    6.0626   20.1243 C   0  0  0  0  0  0  0  0  0  0  0  0
   46.6892   11.8415   19.8014 C   0  0  0  0  0  0  0  0  0  0  0  0
   50.3746    5.3033   20.9480 C   0  0  0  0  0  0  0  0  0  0  0  0
   48.1316    8.0791   19.2548 H   0  0  0  0  0  0  0  0  0  0  0  0
   46.3919    8.1481   19.4762 H   0  0  0  0  0  0  0  0  0  0  0  0
   46.8939    6.7017   21.1503 H   0  0  0  0  0  0  0  0  0  0  0  0
   46.8890    8.1860   22.0918 H   0  0  0  0  0  0  0  0  0  0  0  0
   50.7488   11.2466   20.1284 H   0  0  0  0  0  0  0  0  0  0  0  0
   51.6438    9.7936   20.2741 H   0  0  0  0  0  0  0  0  0  0  0  0
   51.0254   11.7459   22.5878 H   0  0  0  0  0  0  0  0  0  0  0  0
   51.9361   10.2789   22.8046 H   0  0  0  0  0  0  0  0  0  0  0  0
   52.0737    8.4122   21.8428 H   0  0  0  0  0  0  0  0  0  0  0  0
   49.2398   12.3165   21.7008 H   0  0  0  0  0  0  0  0  0  0  0  0
   53.5314   11.0781   20.9814 H   0  0  0  0  0  0  0  0  0  0  0  0
   52.6978   12.6344   20.9982 H   0  0  0  0  0  0  0  0  0  0  0  0
   48.2371    5.3913   22.3472 H   0  0  0  0  0  0  0  0  0  0  0  0
   45.4810   10.2084   19.3250 H   0  0  0  0  0  0  0  0  0  0  0  0
   54.9185   13.6321   21.6142 H   0  0  0  0  0  0  0  0  0  0  0  0
   55.6109   11.9943   21.6048 H   0  0  0  0  0  0  0  0  0  0  0  0
   55.7607   12.9915   23.0427 H   0  0  0  0  0  0  0  0  0  0  0  0
   52.8343   14.0316   23.0851 H   0  0  0  0  0  0  0  0  0  0  0  0
   52.3402   12.6953   24.1510 H   0  0  0  0  0  0  0  0  0  0  0  0
   53.8817   13.4754   24.4056 H   0  0  0  0  0  0  0  0  0  0  0  0
   47.3387   13.6561   21.0247 H   0  0  0  0  0  0  0  0  0  0  0  0
   52.4074    6.1970   22.6661 H   0  0  0  0  0  0  0  0  0  0  0  0
   45.4403   12.6183   19.8082 H   0  0  0  0  0  0  0  0  0  0  0  0
   50.4902    4.6501   22.9692 H   0  0  0  0  0  0  0  0  0  0  0  0
   50.1412    9.6428   24.1587 H   0  0  0  0  0  0  0  0  0  0  0  0
   49.0109   10.7912   23.5232 H   0  0  0  0  0  0  0  0  0  0  0  0
   47.6198    6.3743   19.9424 H   0  0  0  0  0  0  0  0  0  0  0  0
   54.1595   12.6814   21.2100 H   0  0  0  0  0  0  0  0  0  0  0  0
   48.9121    7.8307   24.6073 H   0  0  0  0  0  0  0  0  0  0  0  0
   52.7183    8.4020   21.5379 H   0  0  0  0  0  0  0  0  0  0  0  0
   47.6543    4.3057   23.6488 H   0  0  0  0  0  0  0  0  0  0  0  0
   54.9279    8.4725   20.2313 H   0  0  0  0  0  0  0  0  0  0  0  0
   48.9749   11.6292   21.1144 H   0  0  0  0  0  0  0  0  0  0  0  0
   49.3311   12.7153   23.9555 H   0  0  0  0  0  0  0  0  0  0  0  0
   47.2471    8.0230   18.2132 H   0  0  0  0  0  0  0  0  0  0  0  0
   53.3322   14.8065   21.9508 H   0  0  0  0  0  0  0  0  0  0  0  0
   49.6460   15.1112   24.0913 H   0  0  0  0  0  0  0  0  0  0  0  0
   48.1697   12.1434   18.8822 H   0  0  0  0  0  0  0  0  0  0  0  0
   51.6473   16.1817   23.0916 H   0  0  0  0  0  0  0  0  0  0  0  0
   47.3074   10.3441   17.4087 H   0  0  0  0  0  0  0  0  0  0  0  0
   46.8268    7.9081   21.0606 H   0  0  0  0  0  0  0  0  0  0  0  0
   46.4123    8.9361   22.4342 H   0  0  0  0  0  0  0  0  0  0  0  0
   48.7906    8.7560   23.2853 H   0  0  0  0  0  0  0  0  0  0  0  0
   47.8367    7.2847   23.2973 H   0  0  0  0  0  0  0  0  0  0  0  0
   52.1761    9.4755   21.3702 H   0  0  0  0  0  0  0  0  0  0  0  0
   51.6912   10.7711   20.3139 H   0  0  0  0  0  0  0  0  0  0  0  0
   51.0586   10.4897   23.3209 H   0  0  0  0  0  0  0  0  0  0  0  0
   50.5434   11.8618   22.3368 H   0  0  0  0  0  0  0  0  0  0  0  0
   51.7263    8.0290   19.4598 H   0  0  0  0  0  0  0  0  0  0  0  0
   50.0459   11.8590   19.6208 H   0  0  0  0  0  0  0  0  0  0  0  0
   53.4427   10.9693   22.7067 H   0  0  0  0  0  0  0  0  0  0  0  0
   52.9419   12.4088   21.8224 H   0  0  0  0  0  0  0  0  0  0  0  0
   48.7968    5.3338   22.4003 H   0  0  0  0  0  0  0  0  0  0  0  0
   45.4963   10.3410   20.7410 H   0  0  0  0  0  0  0  0  0  0  0  0
   50.8641   13.4735   23.8128 H   0  0  0  0  0  0  0  0  0  0  0  0
   52.0148   14.2756   24.8558 H   0  0  0  0  0  0  0  0  0  0  0  0
   52.2001   14.4032   23.0945 H   0  0  0  0  0  0  0  0  0  0  0  0
   54.2176   13.4219   25.1831 H   0  0  0  0  0  0  0  0  0  0  0  0
   54.5716   13.5448   23.4454 H   0  0  0  0  0  0  0  0  0  0  0  0
   54.7792   12.0067   24.3116 H   0  0  0  0  0  0  0  0  0  0  0  0
   48.1320   13.1799   18.9442 H   0  0  0  0  0  0  0  0  0  0  0  0
   51.9163    5.5749   19.4715 H   0  0  0  0  0  0  0  0  0  0  0  0
   45.8308   12.4182   19.4747 H   0  0  0  0  0  0  0  0  0  0  0  0
   50.4503    4.2195   20.9461 H   0  0  0  0  0  0  0  0  0  0  0  0
  2  1  1  0
  3  1  1  0
  4  2  2  0
  5  3  2  0
  6  4  1  0
  7  5  1  0
  8  1  1  0
  9  8  1  0
 10 13  1  0
 11  3  1  0
 12  2  1  0
 13  9  1  0
 14  5  1  0
 15  4  1  0
 16 10  1  0
 17 10  1  0
 18 12  2  0
 19 11  2  0
 20 15  2  0
 21 14  2  0
  6  7  1  0
 18 20  1  0
 19 21  1  0
 23 27  2  0
 24 28  1  0
 25 26  1  0
 26 22  2  0
 27 24  1  0
 28 25  1  0
 29 22  1  0
 30 23  1  0
 31 22  1  0
 32 23  1  0
 33 24  2  0
 34 35  1  0
 35 29  2  0
 36 33  1  0
 37 31  2  0
 38 32  2  0
 39 26  1  0
 40 27  1  0
 41 31  1  0
 42 32  1  0
 43 34  1  0
 44 33  1  0
 45 35  1  0
 46 36  1  0
 47 44  2  0
 48 43  2  0
 49 47  1  0
 50 45  2  0
 25 34  2  0
 48 50  1  0
 30 36  2  0
 46 49  2  0
 52 51  1  0
 53 51  1  0
 54 52  2  0
 55 53  2  0
 56 54  1  0
 57 55  1  0
 58 51  1  0
 59 58  1  0
 60 63  1  0
 61 53  1  0
 62 52  1  0
 63 59  1  0
 64 55  1  0
 65 54  1  0
 66 60  1  0
 67 60  1  0
 68 62  2  0
 69 61  2  0
 70 65  2  0
 71 64  2  0
 56 57  1  0
 68 70  1  0
 69 71  1  0
  6 72  1  0
  6 73  1  0
  7 74  1  0
  7 75  1  0
  8 76  1  0
  8 77  1  0
  9 78  1  0
  9 79  1  0
 11 80  1  0
 12 81  1  0
 13 82  1  0
 13 83  1  0
 14 84  1  0
 15 85  1  0
 16 86  1  0
 16 87  1  0
 16 88  1  0
 17 89  1  0
 17 90  1  0
 17 91  1  0
 18 92  1  0
 19 93  1  0
 20 94  1  0
 21 95  1  0
 28 96  1  0
 28 97  1  0
 29 98  1  0
 30 99  1  0
 39100  1  0
 40101  1  0
 41102  1  0
 42103  1  0
 43104  1  0
 44105  1  0
 45106  1  0
 46107  1  0
 47108  1  0
 48109  1  0
 49110  1  0
 50111  1  0
 56112  1  0
 56113  1  0
 57114  1  0
 57115  1  0
 58116  1  0
 58117  1  0
 59118  1  0
 59119  1  0
 61120  1  0
 62121  1  0
 63122  1  0
 63123  1  0
 64124  1  0
 65125  1  0
 66126  1  0
 66127  1  0
 66128  1  0
 67129  1  0
 67130  1  0
 67131  1  0
 68132  1  0
 69133  1  0
 70134  1  0
 71135  1  0
M  END
> <Uni-Dock RESULT> 
ENERGY=   -7.026  LOWER_BOUND=    3.091  UPPER_BOUND=    5.098
INTER + INTRA:          -7.026
INTER:                  -7.026
INTRA:                   0.000
UNBOUND:                 0.000

$$$$

     RDKit          3D

135142  0  0  0  0  0  0  0  0999 V2000
   49.6062    8.5277   20.6845 N   0  0  0  0  0  0  0  0  0  0  0  0
   48.9028    7.4936   21.3868 C   0  0  0  0  0  0  0  0  0  0  0  0
   49.2056    9.8601   20.3348 C   0  0  0  0  0  0  0  0  0  0  0  0
   47.9730    7.7432   22.4117 C   0  0  0  0  0  0  0  0  0  0  0  0
   47.9433   10.4222   20.6415 C   0  0  0  0  0  0  0  0  0  0  0  0
   47.5484    9.1375   22.7595 C   0  0  0  0  0  0  0  0  0  0  0  0
   46.9170    9.7671   21.5298 C   0  0  0  0  0  0  0  0  0  0  0  0
   51.0574    8.2093   20.5438 C   0  0  0  0  0  0  0  0  0  0  0  0
   51.4457    7.7698   19.1187 C   0  0  0  0  0  0  0  0  0  0  0  0
   53.4512    7.2922   17.6744 N   0  0  0  0  0  0  0  0  0  0  0  0
   50.0659   10.7074   19.5865 C   0  0  0  0  0  0  0  0  0  0  0  0
   49.1401    6.1319   21.0836 C   0  0  0  0  0  0  0  0  0  0  0  0
   52.9543    7.4948   19.0456 C   0  0  0  0  0  0  0  0  0  0  0  0
   47.5695   11.6968   20.1389 C   0  0  0  0  0  0  0  0  0  0  0  0
   47.3774    6.6793   23.1265 C   0  0  0  0  0  0  0  0  0  0  0  0
   54.9120    7.1723   17.6839 C   0  0  0  0  0  0  0  0  0  0  0  0
   52.8602    6.1199   17.0287 C   0  0  0  0  0  0  0  0  0  0  0  0
   48.5384    5.0801   21.7842 C   0  0  0  0  0  0  0  0  0  0  0  0
   49.7000   11.9767   19.1181 C   0  0  0  0  0  0  0  0  0  0  0  0
   47.6639    5.3552   22.8197 C   0  0  0  0  0  0  0  0  0  0  0  0
   48.4384   12.4671   19.3812 C   0  0  0  0  0  0  0  0  0  0  0  0
   47.3614   10.8631   20.6530 C   0  0  0  0  0  0  0  0  0  0  0  0
   52.8949    8.5040   19.0924 C   0  0  0  0  0  0  0  0  0  0  0  0
   50.5950    7.7109   18.7800 C   0  0  0  0  0  0  0  0  0  0  0  0
   48.5189    8.8418   19.9063 C   0  0  0  0  0  0  0  0  0  0  0  0
   47.8500   10.0539   19.6260 C   0  0  0  0  0  0  0  0  0  0  0  0
   51.5201    8.7550   19.0097 C   0  0  0  0  0  0  0  0  0  0  0  0
   49.0970    8.0238   18.7507 C   0  0  0  0  0  0  0  0  0  0  0  0
   47.5492   10.4849   21.9828 C   0  0  0  0  0  0  0  0  0  0  0  0
   53.3634    7.2022   18.8984 C   0  0  0  0  0  0  0  0  0  0  0  0
   46.6261   12.1199   20.4093 C   0  0  0  0  0  0  0  0  0  0  0  0
   53.9216    9.5419   19.3719 C   0  0  0  0  0  0  0  0  0  0  0  0
   51.0877    6.3855   18.5347 C   0  0  0  0  0  0  0  0  0  0  0  0
   48.6413    8.4174   21.2690 C   0  0  0  0  0  0  0  0  0  0  0  0
   48.1698    9.2711   22.3015 C   0  0  0  0  0  0  0  0  0  0  0  0
   52.4860    6.1515   18.6109 C   0  0  0  0  0  0  0  0  0  0  0  0
   46.7163   13.1373   21.0729 O   0  0  0  0  0  0  0  0  0  0  0  0
   55.1257    9.3728   19.4008 O   0  0  0  0  0  0  0  0  0  0  0  0
   47.7081   10.4735   18.3306 O   0  0  0  0  0  0  0  0  0  0  0  0
   51.0190   10.0255   19.1251 O   0  0  0  0  0  0  0  0  0  0  0  0
   45.7080   11.9950   19.4330 O   0  0  0  0  0  0  0  0  0  0  0  0
   53.3938   10.7565   19.6209 O   0  0  0  0  0  0  0  0  0  0  0  0
   49.2080    7.1849   21.6752 C   0  0  0  0  0  0  0  0  0  0  0  0
   50.2781    5.2644   18.2144 C   0  0  0  0  0  0  0  0  0  0  0  0
   48.3129    8.9062   23.6505 C   0  0  0  0  0  0  0  0  0  0  0  0
   53.0107    4.8661   18.3963 C   0  0  0  0  0  0  0  0  0  0  0  0
   50.8141    3.9904   17.9997 C   0  0  0  0  0  0  0  0  0  0  0  0
   49.3388    6.8304   23.0212 C   0  0  0  0  0  0  0  0  0  0  0  0
   52.1815    3.7905   18.0930 C   0  0  0  0  0  0  0  0  0  0  0  0
   48.8993    7.6958   24.0100 C   0  0  0  0  0  0  0  0  0  0  0  0
   49.9539    8.8054   20.7919 N   0  0  0  0  0  0  0  0  0  0  0  0
   49.2811    7.7589   21.4661 C   0  0  0  0  0  0  0  0  0  0  0  0
   49.6069   10.1773   20.8360 C   0  0  0  0  0  0  0  0  0  0  0  0
   47.8800    7.7277   21.6591 C   0  0  0  0  0  0  0  0  0  0  0  0
   48.3447   10.6156   20.4121 C   0  0  0  0  0  0  0  0  0  0  0  0
   46.8889    8.7345   21.1060 C   0  0  0  0  0  0  0  0  0  0  0  0
   47.3405    9.6039   19.9394 C   0  0  0  0  0  0  0  0  0  0  0  0
   51.2235    8.5321   20.0818 C   0  0  0  0  0  0  0  0  0  0  0  0
   51.0105    7.5859   18.8908 C   0  0  0  0  0  0  0  0  0  0  0  0
   52.1861    6.5634   16.9183 N   0  0  0  0  0  0  0  0  0  0  0  0
   50.5187   11.1367   21.3107 C   0  0  0  0  0  0  0  0  0  0  0  0
   50.0239    6.6951   22.0324 C   0  0  0  0  0  0  0  0  0  0  0  0
   52.3377    7.3448   18.1570 C   0  0  0  0  0  0  0  0  0  0  0  0
   48.0203   11.9815   20.4433 C   0  0  0  0  0  0  0  0  0  0  0  0
   47.2990    6.6864   22.4252 C   0  0  0  0  0  0  0  0  0  0  0  0
   51.8180    5.1707   17.1820 C   0  0  0  0  0  0  0  0  0  0  0  0
   53.4270    6.6057   16.1385 C   0  0  0  0  0  0  0  0  0  0  0  0
   49.4326    5.6643   22.7689 C   0  0  0  0  0  0  0  0  0  0  0  0
   50.1924   12.4937   21.3465 C   0  0  0  0  0  0  0  0  0  0  0  0
   48.0648    5.6632   22.9722 C   0  0  0  0  0  0  0  0  0  0  0  0
   48.9430   12.9165   20.9075 C   0  0  0  0  0  0  0  0  0  0  0  0
   48.3958    9.7120   23.1514 H   0  0  0  0  0  0  0  0  0  0  0  0
   46.7985    9.1108   23.5605 H   0  0  0  0  0  0  0  0  0  0  0  0
   46.2137   10.5294   21.8895 H   0  0  0  0  0  0  0  0  0  0  0  0
   46.3260    9.0541   20.9406 H   0  0  0  0  0  0  0  0  0  0  0  0
   51.3627    7.4245   21.2511 H   0  0  0  0  0  0  0  0  0  0  0  0
   51.6637    9.0663   20.8672 H   0  0  0  0  0  0  0  0  0  0  0  0
   50.8899    6.8728   18.8332 H   0  0  0  0  0  0  0  0  0  0  0  0
   51.1754    8.5279   18.3779 H   0  0  0  0  0  0  0  0  0  0  0  0
   51.0720   10.4083   19.3171 H   0  0  0  0  0  0  0  0  0  0  0  0
   49.7954    5.8522   20.2689 H   0  0  0  0  0  0  0  0  0  0  0  0
   53.4736    8.3633   19.4730 H   0  0  0  0  0  0  0  0  0  0  0  0
   53.2008    6.6311   19.6786 H   0  0  0  0  0  0  0  0  0  0  0  0
   46.5833   12.1016   20.3581 H   0  0  0  0  0  0  0  0  0  0  0  0
   46.6692    6.8866   23.9260 H   0  0  0  0  0  0  0  0  0  0  0  0
   55.2510    6.3068   18.2651 H   0  0  0  0  0  0  0  0  0  0  0  0
   55.3714    8.0739   18.1068 H   0  0  0  0  0  0  0  0  0  0  0  0
   55.2980    7.0764   16.6632 H   0  0  0  0  0  0  0  0  0  0  0  0
   53.0073    5.2068   17.6146 H   0  0  0  0  0  0  0  0  0  0  0  0
   51.7889    6.2617   16.8604 H   0  0  0  0  0  0  0  0  0  0  0  0
   53.2996    5.9644   16.0364 H   0  0  0  0  0  0  0  0  0  0  0  0
   48.7567    4.0513   21.5114 H   0  0  0  0  0  0  0  0  0  0  0  0
   50.4060   12.5635   18.5373 H   0  0  0  0  0  0  0  0  0  0  0  0
   47.1919    4.5492   23.3727 H   0  0  0  0  0  0  0  0  0  0  0  0
   48.1336   13.4419   19.0117 H   0  0  0  0  0  0  0  0  0  0  0  0
   48.9157    8.5079   17.7837 H   0  0  0  0  0  0  0  0  0  0  0  0
   48.4872    7.1173   18.7235 H   0  0  0  0  0  0  0  0  0  0  0  0
   47.1839   11.1368   22.7744 H   0  0  0  0  0  0  0  0  0  0  0  0
   54.4341    7.0106   18.9584 H   0  0  0  0  0  0  0  0  0  0  0  0
   47.1207    9.8355   17.8903 H   0  0  0  0  0  0  0  0  0  0  0  0
   51.7472   10.6309   19.3727 H   0  0  0  0  0  0  0  0  0  0  0  0
   45.2789   12.8760   19.4033 H   0  0  0  0  0  0  0  0  0  0  0  0
   54.1860   11.3105   19.8023 H   0  0  0  0  0  0  0  0  0  0  0  0
   49.5599    6.4649   20.9437 H   0  0  0  0  0  0  0  0  0  0  0  0
   49.2004    5.3538   18.1128 H   0  0  0  0  0  0  0  0  0  0  0  0
   47.9638    9.5679   24.4410 H   0  0  0  0  0  0  0  0  0  0  0  0
   54.0833    4.6919   18.4585 H   0  0  0  0  0  0  0  0  0  0  0  0
   50.1564    3.1587   17.7578 H   0  0  0  0  0  0  0  0  0  0  0  0
   49.7913    5.8789   23.2886 H   0  0  0  0  0  0  0  0  0  0  0  0
   52.6051    2.8042   17.9268 H   0  0  0  0  0  0  0  0  0  0  0  0
   49.0040    7.4288   25.0578 H   0  0  0  0  0  0  0  0  0  0  0  0
   46.5511    9.3668   21.9387 H   0  0  0  0  0  0  0  0  0  0  0  0
   46.0102    8.1751   20.7544 H   0  0  0  0  0  0  0  0  0  0  0  0
   47.7602    9.0039   19.1225 H   0  0  0  0  0  0  0  0  0  0  0  0
   46.4663   10.1178   19.5220 H   0  0  0  0  0  0  0  0  0  0  0  0
   51.6514    9.4576   19.6701 H   0  0  0  0  0  0  0  0  0  0  0  0
   51.9875    8.1475   20.7657 H   0  0  0  0  0  0  0  0  0  0  0  0
   50.2801    8.0309   18.1982 H   0  0  0  0  0  0  0  0  0  0  0  0
   50.5870    6.6343   19.2334 H   0  0  0  0  0  0  0  0  0  0  0  0
   51.4903   10.8234   21.6833 H   0  0  0  0  0  0  0  0  0  0  0  0
   51.1052    6.6640   21.9454 H   0  0  0  0  0  0  0  0  0  0  0  0
   52.7526    8.3285   17.8996 H   0  0  0  0  0  0  0  0  0  0  0  0
   53.0574    6.8655   18.8334 H   0  0  0  0  0  0  0  0  0  0  0  0
   47.0425   12.3206   20.1121 H   0  0  0  0  0  0  0  0  0  0  0  0
   46.2227    6.6731   22.5926 H   0  0  0  0  0  0  0  0  0  0  0  0
   50.8373    5.1006   17.6636 H   0  0  0  0  0  0  0  0  0  0  0  0
   51.7302    4.6142   16.2418 H   0  0  0  0  0  0  0  0  0  0  0  0
   52.5551    4.6625   17.8135 H   0  0  0  0  0  0  0  0  0  0  0  0
   53.3061    6.0656   15.1939 H   0  0  0  0  0  0  0  0  0  0  0  0
   54.2705    6.1674   16.6837 H   0  0  0  0  0  0  0  0  0  0  0  0
   53.6828    7.6375   15.8760 H   0  0  0  0  0  0  0  0  0  0  0  0
   50.0498    4.8770   23.1939 H   0  0  0  0  0  0  0  0  0  0  0  0
   50.9115   13.2156   21.7236 H   0  0  0  0  0  0  0  0  0  0  0  0
   47.5949    4.8782   23.5547 H   0  0  0  0  0  0  0  0  0  0  0  0
   48.6827   13.9709   20.9348 H   0  0  0  0  0  0  0  0  0  0  0  0
  2  1  1  0
  3  1  1  0
  4  2  2  0
  5  3  2  0
  6  4  1  0
  7  5  1  0
  8  1  1  0
  9  8  1  0
 10 13  1  0
 11  3  1  0
 12  2  1  0
 13  9  1  0
 14  5  1  0
 15  4  1  0
 16 10  1  0
 17 10  1  0
 18 12  2  0
 19 11  2  0
 20 15  2  0
 21 14  2  0
  6  7  1  0
 18 20  1  0
 19 21  1  0
 23 27  2  0
 24 28  1  0
 25 26  1  0
 26 22  2  0
 27 24  1  0
 28 25  1  0
 29 22  1  0
 30 23  1  0
 31 22  1  0
 32 23  1  0
 33 24  2  0
 34 35  1  0
 35 29  2  0
 36 33  1  0
 37 31  2  0
 38 32  2  0
 39 26  1  0
 40 27  1  0
 41 31  1  0
 42 32  1  0
 43 34  1  0
 44 33  1  0
 45 35  1  0
 46 36  1  0
 47 44  2  0
 48 43  2  0
 49 47  1  0
 50 45  2  0
 25 34  2  0
 48 50  1  0
 30 36  2  0
 46 49  2  0
 52 51  1  0
 53 51  1  0
 54 52  2  0
 55 53  2  0
 56 54  1  0
 57 55  1  0
 58 51  1  0
 59 58  1  0
 60 63  1  0
 61 53  1  0
 62 52  1  0
 63 59  1  0
 64 55  1  0
 65 54  1  0
 66 60  1  0
 67 60  1  0
 68 62  2  0
 69 61  2  0
 70 65  2  0
 71 64  2  0
 56 57  1  0
 68 70  1  0
 69 71  1  0
  6 72  1  0
  6 73  1  0
  7 74  1  0
  7 75  1  0
  8 76  1  0
  8 77  1  0
  9 78  1  0
  9 79  1  0
 11 80  1  0
 12 81  1  0
 13 82  1  0
 13 83  1  0
 14 84  1  0
 15 85  1  0
 16 86  1  0
 16 87  1  0
 16 88  1  0
 17 89  1  0
 17 90  1  0
 17 91  1  0
 18 92  1  0
 19 93  1  0
 20 94  1  0
 21 95  1  0
 28 96  1  0
 28 97  1  0
 29 98  1  0
 30 99  1  0
 39100  1  0
 40101  1  0
 41102  1  0
 42103  1  0
 43104  1  0
 44105  1  0
 45106  1  0
 46107  1  0
 47108  1  0
 48109  1  0
 49110  1  0
 50111  1  0
 56112  1  0
 56113  1  0
 57114  1  0
 57115  1  0
 58116  1  0
 58117  1  0
 59118  1  0
 59119  1  0
 61120  1  0
 62121  1  0
 63122  1  0
 63123  1  0
 64124  1  0
 65125  1  0
 66126  1  0
 66127  1  0
 66128  1  0
 67129  1  0
 67130  1  0
 67131  1  0
 68132  1  0
 69133  1  0
 70134  1  0
 71135  1  0
M  END
> <Uni-Dock RESULT> 
ENERGY=   -6.969  LOWER_BOUND=    2.662  UPPER_BOUND=    5.403
INTER + INTRA:          -6.969
INTER:                  -6.969
INTRA:                   0.000
UNBOUND:                 0.000

$$$$

     RDKit          3D

135142  0  0  0  0  0  0  0  0999 V2000
   49.0266    9.6136   15.0522 N   0  0  0  0  0  0  0  0  0  0  0  0
   48.6473    8.7366   13.9824 C   0  0  0  0  0  0  0  0  0  0  0  0
   49.9591   10.7034   15.0823 C   0  0  0  0  0  0  0  0  0  0  0  0
   48.6035    9.1294   12.6330 C   0  0  0  0  0  0  0  0  0  0  0  0
   50.7308   11.1265   13.9739 C   0  0  0  0  0  0  0  0  0  0  0  0
   49.0835   10.4799   12.1960 C   0  0  0  0  0  0  0  0  0  0  0  0
   50.5502   10.6112   12.5691 C   0  0  0  0  0  0  0  0  0  0  0  0
   48.0976    9.4986   16.2145 C   0  0  0  0  0  0  0  0  0  0  0  0
   48.7044    8.7240   17.4005 C   0  0  0  0  0  0  0  0  0  0  0  0
   48.2825    8.1604   19.8173 N   0  0  0  0  0  0  0  0  0  0  0  0
   50.2100   11.4152   16.2858 C   0  0  0  0  0  0  0  0  0  0  0  0
   48.2659    7.4007   14.2516 C   0  0  0  0  0  0  0  0  0  0  0  0
   47.7057    8.6789   18.5657 C   0  0  0  0  0  0  0  0  0  0  0  0
   51.7343   12.1208   14.1191 C   0  0  0  0  0  0  0  0  0  0  0  0
   48.1372    8.2449   11.6342 C   0  0  0  0  0  0  0  0  0  0  0  0
   47.3069    8.2785   20.9048 C   0  0  0  0  0  0  0  0  0  0  0  0
   48.7295    6.7724   19.6987 C   0  0  0  0  0  0  0  0  0  0  0  0
   47.8172    6.5224   13.2584 C   0  0  0  0  0  0  0  0  0  0  0  0
   51.1828   12.4158   16.4144 C   0  0  0  0  0  0  0  0  0  0  0  0
   47.7392    6.9510   11.9458 C   0  0  0  0  0  0  0  0  0  0  0  0
   51.9614   12.7587   15.3291 C   0  0  0  0  0  0  0  0  0  0  0  0
   51.2364   11.4545   13.5617 C   0  0  0  0  0  0  0  0  0  0  0  0
   48.0386    9.6347   18.5700 C   0  0  0  0  0  0  0  0  0  0  0  0
   49.4637    8.4354   16.9740 C   0  0  0  0  0  0  0  0  0  0  0  0
   50.3651    9.5097   14.7624 C   0  0  0  0  0  0  0  0  0  0  0  0
   51.3808   10.4647   14.5352 C   0  0  0  0  0  0  0  0  0  0  0  0
   49.0533    9.6319   17.6053 C   0  0  0  0  0  0  0  0  0  0  0  0
   50.5395    8.4876   15.8864 C   0  0  0  0  0  0  0  0  0  0  0  0
   50.0640   11.5204   12.8082 C   0  0  0  0  0  0  0  0  0  0  0  0
   47.4531    8.4237   18.9473 C   0  0  0  0  0  0  0  0  0  0  0  0
   52.2833   12.4521   13.2641 C   0  0  0  0  0  0  0  0  0  0  0  0
   47.5267   10.8559   19.2452 C   0  0  0  0  0  0  0  0  0  0  0  0
   48.8910    7.1908   17.4011 C   0  0  0  0  0  0  0  0  0  0  0  0
   49.1962    9.5316   13.9345 C   0  0  0  0  0  0  0  0  0  0  0  0
   49.0517   10.5676   12.9738 C   0  0  0  0  0  0  0  0  0  0  0  0
   47.8714    7.2113   18.3890 C   0  0  0  0  0  0  0  0  0  0  0  0
   52.0923   13.6211   12.9806 O   0  0  0  0  0  0  0  0  0  0  0  0
   46.6850   10.8933   20.1223 O   0  0  0  0  0  0  0  0  0  0  0  0
   52.5135   10.4552   15.3042 O   0  0  0  0  0  0  0  0  0  0  0  0
   49.7043   10.7851   17.2521 O   0  0  0  0  0  0  0  0  0  0  0  0
   53.5101   11.9023   13.1963 O   0  0  0  0  0  0  0  0  0  0  0  0
   48.0832   11.9917   18.7804 O   0  0  0  0  0  0  0  0  0  0  0  0
   48.1510    8.5786   14.0009 C   0  0  0  0  0  0  0  0  0  0  0  0
   49.2662    5.9130   16.9098 C   0  0  0  0  0  0  0  0  0  0  0  0
   47.8985   10.6447   12.1751 C   0  0  0  0  0  0  0  0  0  0  0  0
   47.2699    6.0185   18.8236 C   0  0  0  0  0  0  0  0  0  0  0  0
   48.6613    4.7326   17.3539 C   0  0  0  0  0  0  0  0  0  0  0  0
   47.0111    8.6627   13.1957 C   0  0  0  0  0  0  0  0  0  0  0  0
   47.6605    4.7855   18.3100 C   0  0  0  0  0  0  0  0  0  0  0  0
   46.8805    9.7018   12.2886 C   0  0  0  0  0  0  0  0  0  0  0  0
   48.8203    9.9614   15.2668 N   0  0  0  0  0  0  0  0  0  0  0  0
   48.4371    9.0692   14.2375 C   0  0  0  0  0  0  0  0  0  0  0  0
   49.4561   11.2132   15.0842 C   0  0  0  0  0  0  0  0  0  0  0  0
   49.1840    8.8778   13.0513 C   0  0  0  0  0  0  0  0  0  0  0  0
   50.6985   11.3037   14.4415 C   0  0  0  0  0  0  0  0  0  0  0  0
   50.5290    9.5084   12.7423 C   0  0  0  0  0  0  0  0  0  0  0  0
   51.3397   10.0536   13.9110 C   0  0  0  0  0  0  0  0  0  0  0  0
   48.4199    9.6923   16.6661 C   0  0  0  0  0  0  0  0  0  0  0  0
   49.0811    8.4153   17.2058 C   0  0  0  0  0  0  0  0  0  0  0  0
   49.3800    7.0524   19.2966 N   0  0  0  0  0  0  0  0  0  0  0  0
   48.8553   12.4001   15.5395 C   0  0  0  0  0  0  0  0  0  0  0  0
   47.2226    8.3501   14.3459 C   0  0  0  0  0  0  0  0  0  0  0  0
   48.6709    8.1786   18.6665 C   0  0  0  0  0  0  0  0  0  0  0  0
   51.3270   12.5495   14.2839 C   0  0  0  0  0  0  0  0  0  0  0  0
   48.6799    8.0321   12.0319 C   0  0  0  0  0  0  0  0  0  0  0  0
   48.9774    5.7602   18.7372 C   0  0  0  0  0  0  0  0  0  0  0  0
   49.1491    7.0558   20.7445 C   0  0  0  0  0  0  0  0  0  0  0  0
   46.7491    7.5038   13.3389 C   0  0  0  0  0  0  0  0  0  0  0  0
   49.4788   13.6387   15.3768 C   0  0  0  0  0  0  0  0  0  0  0  0
   47.4773    7.3490   12.1735 C   0  0  0  0  0  0  0  0  0  0  0  0
   50.7187   13.7121   14.7523 C   0  0  0  0  0  0  0  0  0  0  0  0
   48.4566   11.2696   12.6262 H   0  0  0  0  0  0  0  0  0  0  0  0
   48.9921   10.5742   11.1063 H   0  0  0  0  0  0  0  0  0  0  0  0
   50.9939   11.3261   11.8639 H   0  0  0  0  0  0  0  0  0  0  0  0
   51.1068    9.6728   12.4500 H   0  0  0  0  0  0  0  0  0  0  0  0
   47.1536    9.0158   15.9229 H   0  0  0  0  0  0  0  0  0  0  0  0
   47.7639   10.4967   16.5295 H   0  0  0  0  0  0  0  0  0  0  0  0
   48.9664    7.7073   17.0959 H   0  0  0  0  0  0  0  0  0  0  0  0
   49.6408    9.1773   17.7383 H   0  0  0  0  0  0  0  0  0  0  0  0
   49.6607   11.2109   17.1973 H   0  0  0  0  0  0  0  0  0  0  0  0
   48.3277    6.9987   15.2546 H   0  0  0  0  0  0  0  0  0  0  0  0
   47.3583    9.7050   18.7481 H   0  0  0  0  0  0  0  0  0  0  0  0
   46.8255    8.0906   18.2718 H   0  0  0  0  0  0  0  0  0  0  0  0
   52.3405   12.4130   13.2637 H   0  0  0  0  0  0  0  0  0  0  0  0
   48.0962    8.5658   10.5954 H   0  0  0  0  0  0  0  0  0  0  0  0
   46.4035    7.6876   20.7143 H   0  0  0  0  0  0  0  0  0  0  0  0
   47.0115    9.3251   21.0476 H   0  0  0  0  0  0  0  0  0  0  0  0
   47.7439    7.9468   21.8530 H   0  0  0  0  0  0  0  0  0  0  0  0
   47.9294    6.1080   19.3566 H   0  0  0  0  0  0  0  0  0  0  0  0
   49.5753    6.6889   19.0105 H   0  0  0  0  0  0  0  0  0  0  0  0
   49.0933    6.4013   20.6641 H   0  0  0  0  0  0  0  0  0  0  0  0
   47.5348    5.5063   13.5196 H   0  0  0  0  0  0  0  0  0  0  0  0
   51.3302   12.9076   17.3718 H   0  0  0  0  0  0  0  0  0  0  0  0
   47.3911    6.2811   11.1659 H   0  0  0  0  0  0  0  0  0  0  0  0
   52.7306   13.5205   15.4163 H   0  0  0  0  0  0  0  0  0  0  0  0
   51.4885    8.6297   16.4170 H   0  0  0  0  0  0  0  0  0  0  0  0
   50.6523    7.5299   15.3722 H   0  0  0  0  0  0  0  0  0  0  0  0
   49.9547   12.3116   12.0686 H   0  0  0  0  0  0  0  0  0  0  0  0
   46.6673    8.4281   19.7017 H   0  0  0  0  0  0  0  0  0  0  0  0
   52.9880    9.6319   15.0969 H   0  0  0  0  0  0  0  0  0  0  0  0
   49.2642   11.5427   17.6886 H   0  0  0  0  0  0  0  0  0  0  0  0
   54.0902   12.6568   12.9611 H   0  0  0  0  0  0  0  0  0  0  0  0
   47.6319   12.6913   19.3042 H   0  0  0  0  0  0  0  0  0  0  0  0
   48.2047    7.7388   14.6859 H   0  0  0  0  0  0  0  0  0  0  0  0
   50.0525    5.7988   16.1691 H   0  0  0  0  0  0  0  0  0  0  0  0
   47.7829   11.4474   11.4493 H   0  0  0  0  0  0  0  0  0  0  0  0
   46.4870    6.0403   19.5793 H   0  0  0  0  0  0  0  0  0  0  0  0
   48.9790    3.7745   16.9490 H   0  0  0  0  0  0  0  0  0  0  0  0
   46.2269    7.9157   13.2884 H   0  0  0  0  0  0  0  0  0  0  0  0
   47.1867    3.8730   18.6602 H   0  0  0  0  0  0  0  0  0  0  0  0
   45.9943    9.7762   11.6647 H   0  0  0  0  0  0  0  0  0  0  0  0
   50.3671   10.2976   11.9951 H   0  0  0  0  0  0  0  0  0  0  0  0
   51.1525    8.7399   12.2633 H   0  0  0  0  0  0  0  0  0  0  0  0
   51.4490    9.3123   14.7123 H   0  0  0  0  0  0  0  0  0  0  0  0
   52.3552   10.2779   13.5630 H   0  0  0  0  0  0  0  0  0  0  0  0
   48.7360   10.5097   17.3301 H   0  0  0  0  0  0  0  0  0  0  0  0
   47.3302    9.6514   16.7676 H   0  0  0  0  0  0  0  0  0  0  0  0
   50.1751    8.5158   17.1400 H   0  0  0  0  0  0  0  0  0  0  0  0
   48.8019    7.5535   16.5879 H   0  0  0  0  0  0  0  0  0  0  0  0
   47.8744   12.3668   16.0060 H   0  0  0  0  0  0  0  0  0  0  0  0
   46.5849    8.4639   15.2167 H   0  0  0  0  0  0  0  0  0  0  0  0
   48.9064    9.0945   19.2249 H   0  0  0  0  0  0  0  0  0  0  0  0
   47.5840    8.0393   18.7320 H   0  0  0  0  0  0  0  0  0  0  0  0
   52.2913   12.6184   13.7878 H   0  0  0  0  0  0  0  0  0  0  0  0
   49.2437    7.9008   11.1091 H   0  0  0  0  0  0  0  0  0  0  0  0
   49.2422    5.6833   17.6776 H   0  0  0  0  0  0  0  0  0  0  0  0
   49.5101    4.9442   19.2389 H   0  0  0  0  0  0  0  0  0  0  0  0
   47.9015    5.5831   18.8427 H   0  0  0  0  0  0  0  0  0  0  0  0
   49.7112    6.2487   21.2253 H   0  0  0  0  0  0  0  0  0  0  0  0
   48.0883    6.9356   20.9921 H   0  0  0  0  0  0  0  0  0  0  0  0
   49.5050    7.9906   21.1898 H   0  0  0  0  0  0  0  0  0  0  0  0
   45.8031    6.9838   13.4663 H   0  0  0  0  0  0  0  0  0  0  0  0
   48.9917   14.5428   15.7313 H   0  0  0  0  0  0  0  0  0  0  0  0
   47.1141    6.7079   11.3777 H   0  0  0  0  0  0  0  0  0  0  0  0
   51.2078   14.6732   14.6211 H   0  0  0  0  0  0  0  0  0  0  0  0
  2  1  1  0
  3  1  1  0
  4  2  2  0
  5  3  2  0
  6  4  1  0
  7  5  1  0
  8  1  1  0
  9  8  1  0
 10 13  1  0
 11  3  1  0
 12  2  1  0
 13  9  1  0
 14  5  1  0
 15  4  1  0
 16 10  1  0
 17 10  1  0
 18 12  2  0
 19 11  2  0
 20 15  2  0
 21 14  2  0
  6  7  1  0
 18 20  1  0
 19 21  1  0
 23 27  2  0
 24 28  1  0
 25 26  1  0
 26 22  2  0
 27 24  1  0
 28 25  1  0
 29 22  1  0
 30 23  1  0
 31 22  1  0
 32 23  1  0
 33 24  2  0
 34 35  1  0
 35 29  2  0
 36 33  1  0
 37 31  2  0
 38 32  2  0
 39 26  1  0
 40 27  1  0
 41 31  1  0
 42 32  1  0
 43 34  1  0
 44 33  1  0
 45 35  1  0
 46 36  1  0
 47 44  2  0
 48 43  2  0
 49 47  1  0
 50 45  2  0
 25 34  2  0
 48 50  1  0
 30 36  2  0
 46 49  2  0
 52 51  1  0
 53 51  1  0
 54 52  2  0
 55 53  2  0
 56 54  1  0
 57 55  1  0
 58 51  1  0
 59 58  1  0
 60 63  1  0
 61 53  1  0
 62 52  1  0
 63 59  1  0
 64 55  1  0
 65 54  1  0
 66 60  1  0
 67 60  1  0
 68 62  2  0
 69 61  2  0
 70 65  2  0
 71 64  2  0
 56 57  1  0
 68 70  1  0
 69 71  1  0
  6 72  1  0
  6 73  1  0
  7 74  1  0
  7 75  1  0
  8 76  1  0
  8 77  1  0
  9 78  1  0
  9 79  1  0
 11 80  1  0
 12 81  1  0
 13 82  1  0
 13 83  1  0
 14 84  1  0
 15 85  1  0
 16 86  1  0
 16 87  1  0
 16 88  1  0
 17 89  1  0
 17 90  1  0
 17 91  1  0
 18 92  1  0
 19 93  1  0
 20 94  1  0
 21 95  1  0
 28 96  1  0
 28 97  1  0
 29 98  1  0
 30 99  1  0
 39100  1  0
 40101  1  0
 41102  1  0
 42103  1  0
 43104  1  0
 44105  1  0
 45106  1  0
 46107  1  0
 47108  1  0
 48109  1  0
 49110  1  0
 50111  1  0
 56112  1  0
 56113  1  0
 57114  1  0
 57115  1  0
 58116  1  0
 58117  1  0
 59118  1  0
 59119  1  0
 61120  1  0
 62121  1  0
 63122  1  0
 63123  1  0
 64124  1  0
 65125  1  0
 66126  1  0
 66127  1  0
 66128  1  0
 67129  1  0
 67130  1  0
 67131  1  0
 68132  1  0
 69133  1  0
 70134  1  0
 71135  1  0
M  END
> <Uni-Dock RESULT> 
ENERGY=   -6.779  LOWER_BOUND=    2.285  UPPER_BOUND=    7.365
INTER + INTRA:          -6.779
INTER:                  -6.779
INTRA:                   0.000
UNBOUND:                 0.000

$$$$

     RDKit          3D

135142  0  0  0  0  0  0  0  0999 V2000
   49.6216    8.4448   15.5145 N   0  0  0  0  0  0  0  0  0  0  0  0
   49.1202    7.9511   14.2646 C   0  0  0  0  0  0  0  0  0  0  0  0
   50.7609    9.2663   15.8064 C   0  0  0  0  0  0  0  0  0  0  0  0
   49.2293    8.6529   13.0511 C   0  0  0  0  0  0  0  0  0  0  0  0
   51.6600    9.7621   14.8321 C   0  0  0  0  0  0  0  0  0  0  0  0
   50.0058    9.9306   12.9540 C   0  0  0  0  0  0  0  0  0  0  0  0
   51.4461    9.6471   13.3447 C   0  0  0  0  0  0  0  0  0  0  0  0
   48.6315    8.2622   16.6161 C   0  0  0  0  0  0  0  0  0  0  0  0
   48.9995    7.1152   17.5773 C   0  0  0  0  0  0  0  0  0  0  0  0
   48.3455    6.0997   19.7857 N   0  0  0  0  0  0  0  0  0  0  0  0
   51.0953    9.5999   17.1461 C   0  0  0  0  0  0  0  0  0  0  0  0
   48.4515    6.7055   14.2022 C   0  0  0  0  0  0  0  0  0  0  0  0
   47.9560    7.0133   18.6987 C   0  0  0  0  0  0  0  0  0  0  0  0
   52.8426   10.4505   15.2124 C   0  0  0  0  0  0  0  0  0  0  0  0
   48.6376    8.1541   11.8683 C   0  0  0  0  0  0  0  0  0  0  0  0
   47.3631    6.1657   20.8714 C   0  0  0  0  0  0  0  0  0  0  0  0
   48.4940    4.7165   19.3328 C   0  0  0  0  0  0  0  0  0  0  0  0
   47.8782    6.2075   13.0264 C   0  0  0  0  0  0  0  0  0  0  0  0
   52.2501   10.3049   17.5117 C   0  0  0  0  0  0  0  0  0  0  0  0
   47.9595    6.9419   11.8573 C   0  0  0  0  0  0  0  0  0  0  0  0
   53.1377   10.7176   16.5406 C   0  0  0  0  0  0  0  0  0  0  0  0
   52.2439   10.0604   14.5109 C   0  0  0  0  0  0  0  0  0  0  0  0
   48.4830    7.8446   18.9342 C   0  0  0  0  0  0  0  0  0  0  0  0
   49.7011    6.7780   17.0918 C   0  0  0  0  0  0  0  0  0  0  0  0
   50.9208    8.1239   15.2053 C   0  0  0  0  0  0  0  0  0  0  0  0
   52.1258    8.8608   15.2146 C   0  0  0  0  0  0  0  0  0  0  0  0
   49.5218    7.8501   17.9956 C   0  0  0  0  0  0  0  0  0  0  0  0
   50.8175    6.8514   16.0471 C   0  0  0  0  0  0  0  0  0  0  0  0
   51.1519   10.5569   13.7984 C   0  0  0  0  0  0  0  0  0  0  0  0
   47.6360    6.7360   19.0075 C   0  0  0  0  0  0  0  0  0  0  0  0
   53.4920   10.8476   14.4622 C   0  0  0  0  0  0  0  0  0  0  0  0
   48.2075    8.9519   19.8868 C   0  0  0  0  0  0  0  0  0  0  0  0
   48.8571    5.6230   17.2051 C   0  0  0  0  0  0  0  0  0  0  0  0
   49.8267    8.5956   14.4100 C   0  0  0  0  0  0  0  0  0  0  0  0
   49.9538    9.8359   13.7299 C   0  0  0  0  0  0  0  0  0  0  0  0
   47.8160    5.6298   18.1707 C   0  0  0  0  0  0  0  0  0  0  0  0
   53.5674   12.0632   14.4714 O   0  0  0  0  0  0  0  0  0  0  0  0
   47.3493    8.9622   20.7485 O   0  0  0  0  0  0  0  0  0  0  0  0
   53.1902    8.4227   15.9559 O   0  0  0  0  0  0  0  0  0  0  0  0
   50.4193    8.8840   17.9315 O   0  0  0  0  0  0  0  0  0  0  0  0
   54.5764   10.0761   14.2603 O   0  0  0  0  0  0  0  0  0  0  0  0
   49.0147   10.0164   19.7105 O   0  0  0  0  0  0  0  0  0  0  0  0
   48.6014    7.9051   14.2452 C   0  0  0  0  0  0  0  0  0  0  0  0
   48.9778    4.4483   16.4175 C   0  0  0  0  0  0  0  0  0  0  0  0
   48.8852   10.3496   12.9763 C   0  0  0  0  0  0  0  0  0  0  0  0
   46.9543    4.5283   18.3038 C   0  0  0  0  0  0  0  0  0  0  0  0
   48.1149    3.3570   16.5630 C   0  0  0  0  0  0  0  0  0  0  0  0
   47.5477    8.4241   13.4870 C   0  0  0  0  0  0  0  0  0  0  0  0
   47.1008    3.3979   17.5054 C   0  0  0  0  0  0  0  0  0  0  0  0
   47.6862    9.6516   12.8595 C   0  0  0  0  0  0  0  0  0  0  0  0
   49.4830    8.7680   15.8075 N   0  0  0  0  0  0  0  0  0  0  0  0
   48.9725    8.2511   14.5932 C   0  0  0  0  0  0  0  0  0  0  0  0
   50.3778    9.8580   15.9330 C   0  0  0  0  0  0  0  0  0  0  0  0
   49.7213    8.1890   13.3945 C   0  0  0  0  0  0  0  0  0  0  0  0
   51.6423    9.8259   15.3289 C   0  0  0  0  0  0  0  0  0  0  0  0
   51.1832    8.5666   13.2450 C   0  0  0  0  0  0  0  0  0  0  0  0
   52.0305    8.6287   14.5094 C   0  0  0  0  0  0  0  0  0  0  0  0
   48.9641    8.2682   17.1005 C   0  0  0  0  0  0  0  0  0  0  0  0
   49.3117    6.7872   17.3126 C   0  0  0  0  0  0  0  0  0  0  0  0
   49.2087    4.9355   19.0093 N   0  0  0  0  0  0  0  0  0  0  0  0
   50.0195   11.0044   16.6642 C   0  0  0  0  0  0  0  0  0  0  0  0
   47.6294    7.8090   14.5264 C   0  0  0  0  0  0  0  0  0  0  0  0
   48.7870    6.3056   18.6730 C   0  0  0  0  0  0  0  0  0  0  0  0
   52.5274   10.9059   15.4772 C   0  0  0  0  0  0  0  0  0  0  0  0
   49.1021    7.7401   12.2014 C   0  0  0  0  0  0  0  0  0  0  0  0
   48.5707    3.9326   18.1537 C   0  0  0  0  0  0  0  0  0  0  0  0
   48.9104    4.6452   20.4151 C   0  0  0  0  0  0  0  0  0  0  0  0
   47.0393    7.3500   13.3450 C   0  0  0  0  0  0  0  0  0  0  0  0
   50.8985   12.0798   16.8057 C   0  0  0  0  0  0  0  0  0  0  0  0
   47.7766    7.3216   12.1754 C   0  0  0  0  0  0  0  0  0  0  0  0
   52.1559   12.0277   16.2151 C   0  0  0  0  0  0  0  0  0  0  0  0
   49.5392   10.7126   13.5644 H   0  0  0  0  0  0  0  0  0  0  0  0
   49.9919   10.2986   11.9200 H   0  0  0  0  0  0  0  0  0  0  0  0
   52.0664   10.3947   12.8333 H   0  0  0  0  0  0  0  0  0  0  0  0
   51.7968    8.6658   13.0001 H   0  0  0  0  0  0  0  0  0  0  0  0
   47.6228    8.0798   16.2180 H   0  0  0  0  0  0  0  0  0  0  0  0
   48.5010    9.2049   17.1647 H   0  0  0  0  0  0  0  0  0  0  0  0
   49.0555    6.1680   17.0344 H   0  0  0  0  0  0  0  0  0  0  0  0
   49.9922    7.2603   18.0130 H   0  0  0  0  0  0  0  0  0  0  0  0
   50.4696    9.3096   17.9819 H   0  0  0  0  0  0  0  0  0  0  0  0
   48.3757    6.0733   15.0774 H   0  0  0  0  0  0  0  0  0  0  0  0
   47.8248    8.0170   19.1255 H   0  0  0  0  0  0  0  0  0  0  0  0
   46.9873    6.7177   18.2726 H   0  0  0  0  0  0  0  0  0  0  0  0
   53.5395   10.7982   14.4521 H   0  0  0  0  0  0  0  0  0  0  0  0
   48.7184    8.7135   10.9386 H   0  0  0  0  0  0  0  0  0  0  0  0
   46.3659    5.8481   20.5451 H   0  0  0  0  0  0  0  0  0  0  0  0
   47.2890    7.1868   21.2647 H   0  0  0  0  0  0  0  0  0  0  0  0
   47.6711    5.5314   21.7098 H   0  0  0  0  0  0  0  0  0  0  0  0
   47.5899    4.3429   18.8412 H   0  0  0  0  0  0  0  0  0  0  0  0
   49.3369    4.6167   18.6431 H   0  0  0  0  0  0  0  0  0  0  0  0
   48.7215    4.0568   20.1784 H   0  0  0  0  0  0  0  0  0  0  0  0
   47.3742    5.2450   13.0337 H   0  0  0  0  0  0  0  0  0  0  0  0
   52.4493   10.5111   18.5596 H   0  0  0  0  0  0  0  0  0  0  0  0
   47.5176    6.5686   10.9388 H   0  0  0  0  0  0  0  0  0  0  0  0
   54.0452   11.2507   16.8084 H   0  0  0  0  0  0  0  0  0  0  0  0
   51.7469    6.6534   16.5943 H   0  0  0  0  0  0  0  0  0  0  0  0
   50.7510    6.0423   15.3156 H   0  0  0  0  0  0  0  0  0  0  0  0
   51.2503   11.5054   13.2733 H   0  0  0  0  0  0  0  0  0  0  0  0
   46.8316    6.7322   19.7420 H   0  0  0  0  0  0  0  0  0  0  0  0
   53.4897    7.5892   15.5539 H   0  0  0  0  0  0  0  0  0  0  0  0
   50.1279    9.5934   18.5398 H   0  0  0  0  0  0  0  0  0  0  0  0
   55.3143   10.7200   14.2141 H   0  0  0  0  0  0  0  0  0  0  0  0
   48.6956   10.6525   20.3895 H   0  0  0  0  0  0  0  0  0  0  0  0
   48.4412    6.9358   14.7057 H   0  0  0  0  0  0  0  0  0  0  0  0
   49.7587    4.3448   15.6696 H   0  0  0  0  0  0  0  0  0  0  0  0
   48.9792   11.3070   12.4673 H   0  0  0  0  0  0  0  0  0  0  0  0
   46.1564    4.5399   19.0439 H   0  0  0  0  0  0  0  0  0  0  0  0
   48.2428    2.4769   15.9369 H   0  0  0  0  0  0  0  0  0  0  0  0
   46.6194    7.8655   13.3972 H   0  0  0  0  0  0  0  0  0  0  0  0
   46.4273    2.5540   17.6246 H   0  0  0  0  0  0  0  0  0  0  0  0
   46.8687   10.0630   12.2743 H   0  0  0  0  0  0  0  0  0  0  0  0
   51.2302    9.5264   12.7121 H   0  0  0  0  0  0  0  0  0  0  0  0
   51.6535    7.8171   12.5925 H   0  0  0  0  0  0  0  0  0  0  0  0
   51.9395    7.7129   15.1065 H   0  0  0  0  0  0  0  0  0  0  0  0
   53.0868    8.7027   14.2241 H   0  0  0  0  0  0  0  0  0  0  0  0
   49.4119    8.8156   17.9425 H   0  0  0  0  0  0  0  0  0  0  0  0
   47.8867    8.4425   17.1913 H   0  0  0  0  0  0  0  0  0  0  0  0
   50.4041    6.6598   17.2708 H   0  0  0  0  0  0  0  0  0  0  0  0
   48.8883    6.1788   16.5045 H   0  0  0  0  0  0  0  0  0  0  0  0
   49.0313   11.0756   17.1107 H   0  0  0  0  0  0  0  0  0  0  0  0
   46.9868    7.8488   15.4001 H   0  0  0  0  0  0  0  0  0  0  0  0
   49.1823    6.9888   19.4365 H   0  0  0  0  0  0  0  0  0  0  0  0
   47.6934    6.3947   18.7050 H   0  0  0  0  0  0  0  0  0  0  0  0
   53.5083   10.8790   15.0106 H   0  0  0  0  0  0  0  0  0  0  0  0
   49.6715    7.7122   11.2731 H   0  0  0  0  0  0  0  0  0  0  0  0
   48.8667    4.0537   17.1066 H   0  0  0  0  0  0  0  0  0  0  0  0
   48.8924    2.9250   18.4411 H   0  0  0  0  0  0  0  0  0  0  0  0
   47.4777    3.9741   18.2154 H   0  0  0  0  0  0  0  0  0  0  0  0
   49.2638    3.6445   20.6845 H   0  0  0  0  0  0  0  0  0  0  0  0
   47.8371    4.7035   20.6284 H   0  0  0  0  0  0  0  0  0  0  0  0
   49.4330    5.3469   21.0733 H   0  0  0  0  0  0  0  0  0  0  0  0
   45.9995    7.0334   13.3444 H   0  0  0  0  0  0  0  0  0  0  0  0
   50.5965   12.9576   17.3702 H   0  0  0  0  0  0  0  0  0  0  0  0
   47.3269    6.9827   11.2485 H   0  0  0  0  0  0  0  0  0  0  0  0
   52.8434   12.8623   16.3202 H   0  0  0  0  0  0  0  0  0  0  0  0
  2  1  1  0
  3  1  1  0
  4  2  2  0
  5  3  2  0
  6  4  1  0
  7  5  1  0
  8  1  1  0
  9  8  1  0
 10 13  1  0
 11  3  1  0
 12  2  1  0
 13  9  1  0
 14  5  1  0
 15  4  1  0
 16 10  1  0
 17 10  1  0
 18 12  2  0
 19 11  2  0
 20 15  2  0
 21 14  2  0
  6  7  1  0
 18 20  1  0
 19 21  1  0
 23 27  2  0
 24 28  1  0
 25 26  1  0
 26 22  2  0
 27 24  1  0
 28 25  1  0
 29 22  1  0
 30 23  1  0
 31 22  1  0
 32 23  1  0
 33 24  2  0
 34 35  1  0
 35 29  2  0
 36 33  1  0
 37 31  2  0
 38 32  2  0
 39 26  1  0
 40 27  1  0
 41 31  1  0
 42 32  1  0
 43 34  1  0
 44 33  1  0
 45 35  1  0
 46 36  1  0
 47 44  2  0
 48 43  2  0
 49 47  1  0
 50 45  2  0
 25 34  2  0
 48 50  1  0
 30 36  2  0
 46 49  2  0
 52 51  1  0
 53 51  1  0
 54 52  2  0
 55 53  2  0
 56 54  1  0
 57 55  1  0
 58 51  1  0
 59 58  1  0
 60 63  1  0
 61 53  1  0
 62 52  1  0
 63 59  1  0
 64 55  1  0
 65 54  1  0
 66 60  1  0
 67 60  1  0
 68 62  2  0
 69 61  2  0
 70 65  2  0
 71 64  2  0
 56 57  1  0
 68 70  1  0
 69 71  1  0
  6 72  1  0
  6 73  1  0
  7 74  1  0
  7 75  1  0
  8 76  1  0
  8 77  1  0
  9 78  1  0
  9 79  1  0
 11 80  1  0
 12 81  1  0
 13 82  1  0
 13 83  1  0
 14 84  1  0
 15 85  1  0
 16 86  1  0
 16 87  1  0
 16 88  1  0
 17 89  1  0
 17 90  1  0
 17 91  1  0
 18 92  1  0
 19 93  1  0
 20 94  1  0
 21 95  1  0
 28 96  1  0
 28 97  1  0
 29 98  1  0
 30 99  1  0
 39100  1  0
 40101  1  0
 41102  1  0
 42103  1  0
 43104  1  0
 44105  1  0
 45106  1  0
 46107  1  0
 47108  1  0
 48109  1  0
 49110  1  0
 50111  1  0
 56112  1  0
 56113  1  0
 57114  1  0
 57115  1  0
 58116  1  0
 58117  1  0
 59118  1  0
 59119  1  0
 61120  1  0
 62121  1  0
 63122  1  0
 63123  1  0
 64124  1  0
 65125  1  0
 66126  1  0
 66127  1  0
 66128  1  0
 67129  1  0
 67130  1  0
 67131  1  0
 68132  1  0
 69133  1  0
 70134  1  0
 71135  1  0
M  END
> <Uni-Dock RESULT> 
ENERGY=   -6.747  LOWER_BOUND=    2.254  UPPER_BOUND=    7.188
INTER + INTRA:          -6.747
INTER:                  -6.747
INTRA:                   0.000
UNBOUND:                 0.000

$$$$

     RDKit          3D

135142  0  0  0  0  0  0  0  0999 V2000
   49.6959   11.5258   18.3463 N   0  0  0  0  0  0  0  0  0  0  0  0
   48.4699   11.1707   19.0009 C   0  0  0  0  0  0  0  0  0  0  0  0
   50.0409   12.6817   17.5698 C   0  0  0  0  0  0  0  0  0  0  0  0
   47.5868   12.1106   19.5612 C   0  0  0  0  0  0  0  0  0  0  0  0
   49.1557   13.7498   17.2889 C   0  0  0  0  0  0  0  0  0  0  0  0
   47.8054   13.5837   19.3965 C   0  0  0  0  0  0  0  0  0  0  0  0
   47.7925   13.9072   17.9123 C   0  0  0  0  0  0  0  0  0  0  0  0
   50.8259   10.6540   18.7824 C   0  0  0  0  0  0  0  0  0  0  0  0
   51.2305    9.6113   17.7224 C   0  0  0  0  0  0  0  0  0  0  0  0
   53.0159    7.9165   17.1967 N   0  0  0  0  0  0  0  0  0  0  0  0
   51.3236   12.8018   16.9714 C   0  0  0  0  0  0  0  0  0  0  0  0
   48.0964    9.8125   19.1355 C   0  0  0  0  0  0  0  0  0  0  0  0
   52.4173    8.7794   18.2288 C   0  0  0  0  0  0  0  0  0  0  0  0
   49.5262   14.7903   16.3964 C   0  0  0  0  0  0  0  0  0  0  0  0
   46.4376   11.6939   20.2705 C   0  0  0  0  0  0  0  0  0  0  0  0
   54.2181    7.2649   17.7245 C   0  0  0  0  0  0  0  0  0  0  0  0
   52.0826    6.9074   16.6957 C   0  0  0  0  0  0  0  0  0  0  0  0
   46.9504    9.4031   19.8270 C   0  0  0  0  0  0  0  0  0  0  0  0
   51.6919   13.8473   16.1138 C   0  0  0  0  0  0  0  0  0  0  0  0
   46.1247   10.3476   20.4092 C   0  0  0  0  0  0  0  0  0  0  0  0
   50.7822   14.8383   15.8109 C   0  0  0  0  0  0  0  0  0  0  0  0
   48.8576   14.3491   16.9971 C   0  0  0  0  0  0  0  0  0  0  0  0
   52.8290    9.6768   18.0061 C   0  0  0  0  0  0  0  0  0  0  0  0
   50.5345    9.7591   17.1431 C   0  0  0  0  0  0  0  0  0  0  0  0
   49.0551   11.9193   17.1970 C   0  0  0  0  0  0  0  0  0  0  0  0
   49.0989   13.1000   16.4229 C   0  0  0  0  0  0  0  0  0  0  0  0
   51.7763   10.3804   17.4087 C   0  0  0  0  0  0  0  0  0  0  0  0
   49.3943   10.5816   16.5379 C   0  0  0  0  0  0  0  0  0  0  0  0
   48.5860   14.4440   18.3623 C   0  0  0  0  0  0  0  0  0  0  0  0
   52.6618    8.3219   18.3032 C   0  0  0  0  0  0  0  0  0  0  0  0
   48.8581   15.6063   16.2231 C   0  0  0  0  0  0  0  0  0  0  0  0
   54.1460   10.2725   18.3527 C   0  0  0  0  0  0  0  0  0  0  0  0
   50.3871    8.3563   17.4073 C   0  0  0  0  0  0  0  0  0  0  0  0
   48.6991   12.0116   18.5815 C   0  0  0  0  0  0  0  0  0  0  0  0
   48.4923   13.2942   19.1555 C   0  0  0  0  0  0  0  0  0  0  0  0
   51.4692    7.6558   18.0025 C   0  0  0  0  0  0  0  0  0  0  0  0
   49.2835   16.6800   16.6101 O   0  0  0  0  0  0  0  0  0  0  0  0
   55.1000    9.6834   18.8240 O   0  0  0  0  0  0  0  0  0  0  0  0
   49.4229   13.0355   15.0942 O   0  0  0  0  0  0  0  0  0  0  0  0
   51.9159   11.6921   17.0369 O   0  0  0  0  0  0  0  0  0  0  0  0
   48.1962   15.4900   15.0569 O   0  0  0  0  0  0  0  0  0  0  0  0
   54.2106   11.5959   18.1071 O   0  0  0  0  0  0  0  0  0  0  0  0
   48.5332   10.8985   19.4408 C   0  0  0  0  0  0  0  0  0  0  0  0
   49.2264    7.5927   17.1166 C   0  0  0  0  0  0  0  0  0  0  0  0
   48.1846   13.4243   20.5201 C   0  0  0  0  0  0  0  0  0  0  0  0
   51.3622    6.2861   18.2957 C   0  0  0  0  0  0  0  0  0  0  0  0
   49.1344    6.2283   17.4106 C   0  0  0  0  0  0  0  0  0  0  0  0
   48.2205   11.0410   20.7960 C   0  0  0  0  0  0  0  0  0  0  0  0
   50.2025    5.5748   18.0028 C   0  0  0  0  0  0  0  0  0  0  0  0
   48.0551   12.3053   21.3382 C   0  0  0  0  0  0  0  0  0  0  0  0
   50.1049   11.6695   18.4932 N   0  0  0  0  0  0  0  0  0  0  0  0
   48.9051   11.2820   19.1355 C   0  0  0  0  0  0  0  0  0  0  0  0
   50.4386   12.9830   18.0836 C   0  0  0  0  0  0  0  0  0  0  0  0
   47.6446   11.8568   18.8488 C   0  0  0  0  0  0  0  0  0  0  0  0
   49.6366   13.6781   17.1678 C   0  0  0  0  0  0  0  0  0  0  0  0
   47.3673   12.8850   17.7682 C   0  0  0  0  0  0  0  0  0  0  0  0
   48.3885   13.0253   16.6466 C   0  0  0  0  0  0  0  0  0  0  0  0
   51.2093   10.6962   18.3392 C   0  0  0  0  0  0  0  0  0  0  0  0
   50.8131    9.5362   17.4137 C   0  0  0  0  0  0  0  0  0  0  0  0
   51.7298    7.4991   16.2612 N   0  0  0  0  0  0  0  0  0  0  0  0
   51.5821   13.6270   18.5882 C   0  0  0  0  0  0  0  0  0  0  0  0
   48.9390   10.3042   20.1587 C   0  0  0  0  0  0  0  0  0  0  0  0
   51.9869    8.5598   17.2497 C   0  0  0  0  0  0  0  0  0  0  0  0
   49.9894   14.9732   16.7554 C   0  0  0  0  0  0  0  0  0  0  0  0
   46.5087   11.4726   19.6042 C   0  0  0  0  0  0  0  0  0  0  0  0
   50.7101    6.5515   16.7163 C   0  0  0  0  0  0  0  0  0  0  0  0
   52.9706    6.7793   15.9575 C   0  0  0  0  0  0  0  0  0  0  0  0
   47.8048    9.9220   20.8811 C   0  0  0  0  0  0  0  0  0  0  0  0
   51.9283   14.9170   18.1816 C   0  0  0  0  0  0  0  0  0  0  0  0
   46.5851   10.5135   20.6077 C   0  0  0  0  0  0  0  0  0  0  0  0
   51.1329   15.5885   17.2601 C   0  0  0  0  0  0  0  0  0  0  0  0
   48.7294   13.8947   19.8977 H   0  0  0  0  0  0  0  0  0  0  0  0
   46.9914   14.1386   19.8804 H   0  0  0  0  0  0  0  0  0  0  0  0
   47.4728   14.9533   17.8186 H   0  0  0  0  0  0  0  0  0  0  0  0
   47.0631   13.3092   17.3512 H   0  0  0  0  0  0  0  0  0  0  0  0
   50.5858   10.1307   19.7194 H   0  0  0  0  0  0  0  0  0  0  0  0
   51.6872   11.2713   19.0719 H   0  0  0  0  0  0  0  0  0  0  0  0
   50.3867    8.9547   17.4942 H   0  0  0  0  0  0  0  0  0  0  0  0
   51.4948   10.0864   16.7733 H   0  0  0  0  0  0  0  0  0  0  0  0
   52.1036   12.0678   17.1364 H   0  0  0  0  0  0  0  0  0  0  0  0
   48.6882    9.0280   18.6817 H   0  0  0  0  0  0  0  0  0  0  0  0
   53.1888    9.4776   18.5809 H   0  0  0  0  0  0  0  0  0  0  0  0
   52.1039    8.1841   19.0975 H   0  0  0  0  0  0  0  0  0  0  0  0
   48.8225   15.5882   16.1666 H   0  0  0  0  0  0  0  0  0  0  0  0
   45.7692   12.4312   20.7103 H   0  0  0  0  0  0  0  0  0  0  0  0
   53.9936    6.6140   18.5775 H   0  0  0  0  0  0  0  0  0  0  0  0
   54.9544    8.0122   18.0444 H   0  0  0  0  0  0  0  0  0  0  0  0
   54.7032    6.6631   16.9482 H   0  0  0  0  0  0  0  0  0  0  0  0
   51.6694    6.2904   17.5002 H   0  0  0  0  0  0  0  0  0  0  0  0
   51.2573    7.3719   16.1486 H   0  0  0  0  0  0  0  0  0  0  0  0
   52.5805    6.2452   15.9777 H   0  0  0  0  0  0  0  0  0  0  0  0
   46.7103    8.3461   19.9020 H   0  0  0  0  0  0  0  0  0  0  0  0
   52.6874   13.8658   15.6794 H   0  0  0  0  0  0  0  0  0  0  0  0
   45.2339   10.0440   20.9501 H   0  0  0  0  0  0  0  0  0  0  0  0
   51.0464   15.6467   15.1354 H   0  0  0  0  0  0  0  0  0  0  0  0
   49.6509   10.7073   15.4793 H   0  0  0  0  0  0  0  0  0  0  0  0
   48.4497   10.0321   16.5289 H   0  0  0  0  0  0  0  0  0  0  0  0
   48.4229   15.4264   18.8018 H   0  0  0  0  0  0  0  0  0  0  0  0
   53.4842    7.7756   18.7635 H   0  0  0  0  0  0  0  0  0  0  0  0
   48.7028   12.5543   14.6515 H   0  0  0  0  0  0  0  0  0  0  0  0
   52.7794   12.0217   17.3594 H   0  0  0  0  0  0  0  0  0  0  0  0
   48.2437   16.3903   14.6718 H   0  0  0  0  0  0  0  0  0  0  0  0
   55.1180   11.8332   18.4033 H   0  0  0  0  0  0  0  0  0  0  0  0
   48.6413    9.8852   19.0680 H   0  0  0  0  0  0  0  0  0  0  0  0
   48.3581    8.0395   16.6409 H   0  0  0  0  0  0  0  0  0  0  0  0
   48.0403   14.4085   20.9616 H   0  0  0  0  0  0  0  0  0  0  0  0
   52.1939    5.7547   18.7543 H   0  0  0  0  0  0  0  0  0  0  0  0
   48.2249    5.6818   17.1720 H   0  0  0  0  0  0  0  0  0  0  0  0
   48.1143   10.1590   21.4224 H   0  0  0  0  0  0  0  0  0  0  0  0
   50.1387    4.5152   18.2333 H   0  0  0  0  0  0  0  0  0  0  0  0
   47.8183   12.4227   22.3919 H   0  0  0  0  0  0  0  0  0  0  0  0
   47.2108   13.8555   18.2591 H   0  0  0  0  0  0  0  0  0  0  0  0
   46.4155   12.6135   17.2894 H   0  0  0  0  0  0  0  0  0  0  0  0
   48.6277   12.0571   16.1896 H   0  0  0  0  0  0  0  0  0  0  0  0
   47.9553   13.6401   15.8486 H   0  0  0  0  0  0  0  0  0  0  0  0
   52.0907   11.1698   17.8831 H   0  0  0  0  0  0  0  0  0  0  0  0
   51.5565   10.3307   19.3114 H   0  0  0  0  0  0  0  0  0  0  0  0
   50.5248    9.9371   16.4301 H   0  0  0  0  0  0  0  0  0  0  0  0
   49.9366    9.0134   17.8147 H   0  0  0  0  0  0  0  0  0  0  0  0
   52.2017   13.1294   19.3294 H   0  0  0  0  0  0  0  0  0  0  0  0
   49.8740    9.8363   20.4497 H   0  0  0  0  0  0  0  0  0  0  0  0
   52.8544    9.1443   16.9155 H   0  0  0  0  0  0  0  0  0  0  0  0
   52.2530    8.1278   18.2232 H   0  0  0  0  0  0  0  0  0  0  0  0
   49.3685   15.5103   16.0435 H   0  0  0  0  0  0  0  0  0  0  0  0
   45.5417   11.9302   19.3987 H   0  0  0  0  0  0  0  0  0  0  0  0
   49.7385    7.0398   16.8427 H   0  0  0  0  0  0  0  0  0  0  0  0
   50.5557    5.7673   15.9664 H   0  0  0  0  0  0  0  0  0  0  0  0
   50.9864    6.0719   17.6618 H   0  0  0  0  0  0  0  0  0  0  0  0
   52.7961    6.0199   15.1884 H   0  0  0  0  0  0  0  0  0  0  0  0
   53.3880    6.2872   16.8432 H   0  0  0  0  0  0  0  0  0  0  0  0
   53.7243    7.4632   15.5536 H   0  0  0  0  0  0  0  0  0  0  0  0
   47.8870    9.1749   21.6664 H   0  0  0  0  0  0  0  0  0  0  0  0
   52.8133   15.3964   18.5906 H   0  0  0  0  0  0  0  0  0  0  0  0
   45.7003   10.2378   21.1709 H   0  0  0  0  0  0  0  0  0  0  0  0
   51.3962   16.5932   16.9414 H   0  0  0  0  0  0  0  0  0  0  0  0
  2  1  1  0
  3  1  1  0
  4  2  2  0
  5  3  2  0
  6  4  1  0
  7  5  1  0
  8  1  1  0
  9  8  1  0
 10 13  1  0
 11  3  1  0
 12  2  1  0
 13  9  1  0
 14  5  1  0
 15  4  1  0
 16 10  1  0
 17 10  1  0
 18 12  2  0
 19 11  2  0
 20 15  2  0
 21 14  2  0
  6  7  1  0
 18 20  1  0
 19 21  1  0
 23 27  2  0
 24 28  1  0
 25 26  1  0
 26 22  2  0
 27 24  1  0
 28 25  1  0
 29 22  1  0
 30 23  1  0
 31 22  1  0
 32 23  1  0
 33 24  2  0
 34 35  1  0
 35 29  2  0
 36 33  1  0
 37 31  2  0
 38 32  2  0
 39 26  1  0
 40 27  1  0
 41 31  1  0
 42 32  1  0
 43 34  1  0
 44 33  1  0
 45 35  1  0
 46 36  1  0
 47 44  2  0
 48 43  2  0
 49 47  1  0
 50 45  2  0
 25 34  2  0
 48 50  1  0
 30 36  2  0
 46 49  2  0
 52 51  1  0
 53 51  1  0
 54 52  2  0
 55 53  2  0
 56 54  1  0
 57 55  1  0
 58 51  1  0
 59 58  1  0
 60 63  1  0
 61 53  1  0
 62 52  1  0
 63 59  1  0
 64 55  1  0
 65 54  1  0
 66 60  1  0
 67 60  1  0
 68 62  2  0
 69 61  2  0
 70 65  2  0
 71 64  2  0
 56 57  1  0
 68 70  1  0
 69 71  1  0
  6 72  1  0
  6 73  1  0
  7 74  1  0
  7 75  1  0
  8 76  1  0
  8 77  1  0
  9 78  1  0
  9 79  1  0
 11 80  1  0
 12 81  1  0
 13 82  1  0
 13 83  1  0
 14 84  1  0
 15 85  1  0
 16 86  1  0
 16 87  1  0
 16 88  1  0
 17 89  1  0
 17 90  1  0
 17 91  1  0
 18 92  1  0
 19 93  1  0
 20 94  1  0
 21 95  1  0
 28 96  1  0
 28 97  1  0
 29 98  1  0
 30 99  1  0
 39100  1  0
 40101  1  0
 41102  1  0
 42103  1  0
 43104  1  0
 44105  1  0
 45106  1  0
 46107  1  0
 47108  1  0
 48109  1  0
 49110  1  0
 50111  1  0
 56112  1  0
 56113  1  0
 57114  1  0
 57115  1  0
 58116  1  0
 58117  1  0
 59118  1  0
 59119  1  0
 61120  1  0
 62121  1  0
 63122  1  0
 63123  1  0
 64124  1  0
 65125  1  0
 66126  1  0
 66127  1  0
 66128  1  0
 67129  1  0
 67130  1  0
 67131  1  0
 68132  1  0
 69133  1  0
 70134  1  0
 71135  1  0
M  END
> <Uni-Dock RESULT> 
ENERGY=   -6.368  LOWER_BOUND=    2.693  UPPER_BOUND=    5.824
INTER + INTRA:          -6.368
INTER:                  -6.368
INTRA:                   0.000
UNBOUND:                 0.000

$$$$

     RDKit          3D

135142  0  0  0  0  0  0  0  0999 V2000
   49.8194    7.2590   19.5571 N   0  0  0  0  0  0  0  0  0  0  0  0
   49.2249    7.5475   20.8302 C   0  0  0  0  0  0  0  0  0  0  0  0
   50.8973    6.3799   19.2058 C   0  0  0  0  0  0  0  0  0  0  0  0
   49.1180    6.6068   21.8698 C   0  0  0  0  0  0  0  0  0  0  0  0
   51.6199    5.5907   20.1322 C   0  0  0  0  0  0  0  0  0  0  0  0
   49.7456    5.2503   21.7642 C   0  0  0  0  0  0  0  0  0  0  0  0
   51.2433    5.4279   21.5824 C   0  0  0  0  0  0  0  0  0  0  0  0
   48.9906    7.7808   18.4311 C   0  0  0  0  0  0  0  0  0  0  0  0
   49.5833    9.0444   17.7777 C   0  0  0  0  0  0  0  0  0  0  0  0
   49.3016   10.5581   15.7863 N   0  0  0  0  0  0  0  0  0  0  0  0
   51.3535    6.2857   17.8638 C   0  0  0  0  0  0  0  0  0  0  0  0
   48.6817    8.8272   21.0943 C   0  0  0  0  0  0  0  0  0  0  0  0
   48.6960    9.4985   16.6100 C   0  0  0  0  0  0  0  0  0  0  0  0
   52.7644    4.8535   19.7277 C   0  0  0  0  0  0  0  0  0  0  0  0
   48.4429    6.9248   23.0701 C   0  0  0  0  0  0  0  0  0  0  0  0
   48.4535   10.8343   14.6232 C   0  0  0  0  0  0  0  0  0  0  0  0
   49.5329   11.7922   16.5373 C   0  0  0  0  0  0  0  0  0  0  0  0
   48.0254    9.1437   22.2894 C   0  0  0  0  0  0  0  0  0  0  0  0
   52.4671    5.5328   17.4673 C   0  0  0  0  0  0  0  0  0  0  0  0
   47.8931    8.1837   23.2761 C   0  0  0  0  0  0  0  0  0  0  0  0
   53.1871    4.8263   18.4074 C   0  0  0  0  0  0  0  0  0  0  0  0
   52.1287    5.1641   20.4362 C   0  0  0  0  0  0  0  0  0  0  0  0
   49.1614    8.6737   16.2530 C   0  0  0  0  0  0  0  0  0  0  0  0
   50.2524    9.1877   18.3888 C   0  0  0  0  0  0  0  0  0  0  0  0
   51.0981    7.3486   20.0503 C   0  0  0  0  0  0  0  0  0  0  0  0
   52.2158    6.4865   19.9980 C   0  0  0  0  0  0  0  0  0  0  0  0
   50.0753    8.3509   17.2633 C   0  0  0  0  0  0  0  0  0  0  0  0
   51.2237    8.7680   19.4949 C   0  0  0  0  0  0  0  0  0  0  0  0
   50.9155    4.6718   20.9182 C   0  0  0  0  0  0  0  0  0  0  0  0
   48.4444    9.8697   16.3388 C   0  0  0  0  0  0  0  0  0  0  0  0
   53.2770    4.2362   20.4336 C   0  0  0  0  0  0  0  0  0  0  0  0
   48.8916    7.8244   15.0634 C   0  0  0  0  0  0  0  0  0  0  0  0
   49.5478   10.4365   18.4458 C   0  0  0  0  0  0  0  0  0  0  0  0
   49.8755    6.8639   20.6180 C   0  0  0  0  0  0  0  0  0  0  0  0
   49.7960    5.5056   21.0253 C   0  0  0  0  0  0  0  0  0  0  0  0
   48.6335   10.7531   17.4066 C   0  0  0  0  0  0  0  0  0  0  0  0
   53.2308    3.0477   20.1712 O   0  0  0  0  0  0  0  0  0  0  0  0
   48.1453    8.0941   14.1417 O   0  0  0  0  0  0  0  0  0  0  0  0
   53.3993    6.9314   19.4728 O   0  0  0  0  0  0  0  0  0  0  0  0
   50.8508    7.2231   17.1894 O   0  0  0  0  0  0  0  0  0  0  0  0
   54.4015    4.8116   20.8986 O   0  0  0  0  0  0  0  0  0  0  0  0
   49.5614    6.6553   15.0835 O   0  0  0  0  0  0  0  0  0  0  0  0
   48.7147    7.6519   20.8095 C   0  0  0  0  0  0  0  0  0  0  0  0
   49.6910   11.4038   19.4748 C   0  0  0  0  0  0  0  0  0  0  0  0
   48.5993    4.9854   21.5459 C   0  0  0  0  0  0  0  0  0  0  0  0
   47.9085   11.9561   17.4312 C   0  0  0  0  0  0  0  0  0  0  0  0
   48.9652   12.5994   19.4852 C   0  0  0  0  0  0  0  0  0  0  0  0
   47.5316    7.1238   21.3349 C   0  0  0  0  0  0  0  0  0  0  0  0
   48.0714   12.8749   18.4637 C   0  0  0  0  0  0  0  0  0  0  0  0
   47.4710    5.7873   21.6948 C   0  0  0  0  0  0  0  0  0  0  0  0
   49.6850    7.0213   19.1898 N   0  0  0  0  0  0  0  0  0  0  0  0
   49.0880    7.3405   20.4324 C   0  0  0  0  0  0  0  0  0  0  0  0
   50.4746    5.8777   18.9194 C   0  0  0  0  0  0  0  0  0  0  0  0
   49.6914    7.0665   21.6823 C   0  0  0  0  0  0  0  0  0  0  0  0
   51.6551    5.6314   19.6339 C   0  0  0  0  0  0  0  0  0  0  0  0
   51.0799    6.4898   21.8860 C   0  0  0  0  0  0  0  0  0  0  0  0
   52.0610    6.5811   20.7243 C   0  0  0  0  0  0  0  0  0  0  0  0
   49.3762    7.8321   17.9906 C   0  0  0  0  0  0  0  0  0  0  0  0
   49.8931    9.2713   18.1351 C   0  0  0  0  0  0  0  0  0  0  0  0
   50.1785   11.4262   16.8730 N   0  0  0  0  0  0  0  0  0  0  0  0
   50.0928    4.9558   17.9287 C   0  0  0  0  0  0  0  0  0  0  0  0
   47.7975    7.9217   20.4641 C   0  0  0  0  0  0  0  0  0  0  0  0
   49.5848   10.0788   16.8659 C   0  0  0  0  0  0  0  0  0  0  0  0
   52.4389    4.5033   19.3426 C   0  0  0  0  0  0  0  0  0  0  0  0
   48.9827    7.3374   22.8794 C   0  0  0  0  0  0  0  0  0  0  0  0
   49.5470   12.3059   17.8589 C   0  0  0  0  0  0  0  0  0  0  0  0
   50.0801   12.0293   15.5402 C   0  0  0  0  0  0  0  0  0  0  0  0
   47.1202    8.2011   21.6547 C   0  0  0  0  0  0  0  0  0  0  0  0
   50.8703    3.8315   17.6442 C   0  0  0  0  0  0  0  0  0  0  0  0
   47.7122    7.9016   22.8680 C   0  0  0  0  0  0  0  0  0  0  0  0
   52.0474    3.6083   18.3493 C   0  0  0  0  0  0  0  0  0  0  0  0
   49.2790    4.6713   20.9587 H   0  0  0  0  0  0  0  0  0  0  0  0
   49.5721    4.6854   22.6891 H   0  0  0  0  0  0  0  0  0  0  0  0
   51.7203    4.5218   21.9784 H   0  0  0  0  0  0  0  0  0  0  0  0
   51.6470    6.2685   22.1612 H   0  0  0  0  0  0  0  0  0  0  0  0
   47.9651    8.0014   18.7611 H   0  0  0  0  0  0  0  0  0  0  0  0
   48.8326    6.9919   17.6832 H   0  0  0  0  0  0  0  0  0  0  0  0
   49.6689    9.8481   18.5139 H   0  0  0  0  0  0  0  0  0  0  0  0
   50.6012    8.8697   17.4176 H   0  0  0  0  0  0  0  0  0  0  0  0
   50.8638    6.8136   17.0540 H   0  0  0  0  0  0  0  0  0  0  0  0
   48.7741    9.6278   20.3717 H   0  0  0  0  0  0  0  0  0  0  0  0
   48.5167    8.6258   15.9674 H   0  0  0  0  0  0  0  0  0  0  0  0
   47.7180    9.8185   16.9953 H   0  0  0  0  0  0  0  0  0  0  0  0
   53.3277    4.2762   20.4585 H   0  0  0  0  0  0  0  0  0  0  0  0
   48.3561    6.1834   23.8616 H   0  0  0  0  0  0  0  0  0  0  0  0
   47.4615   11.1994   14.9135 H   0  0  0  0  0  0  0  0  0  0  0  0
   48.3249    9.9308   14.0149 H   0  0  0  0  0  0  0  0  0  0  0  0
   48.9211   11.5823   13.9736 H   0  0  0  0  0  0  0  0  0  0  0  0
   48.6188   12.1668   17.0091 H   0  0  0  0  0  0  0  0  0  0  0  0
   50.2935   11.6461   17.3095 H   0  0  0  0  0  0  0  0  0  0  0  0
   49.9242   12.5763   15.8784 H   0  0  0  0  0  0  0  0  0  0  0  0
   47.6247   10.1423   22.4406 H   0  0  0  0  0  0  0  0  0  0  0  0
   52.7679    5.5199   16.4235 H   0  0  0  0  0  0  0  0  0  0  0  0
   47.3847    8.4149   24.2069 H   0  0  0  0  0  0  0  0  0  0  0  0
   54.0621    4.2510   18.1192 H   0  0  0  0  0  0  0  0  0  0  0  0
   52.2266    8.9568   19.0940 H   0  0  0  0  0  0  0  0  0  0  0  0
   51.1520    9.4143   20.3732 H   0  0  0  0  0  0  0  0  0  0  0  0
   50.8553    3.6320   21.2347 H   0  0  0  0  0  0  0  0  0  0  0  0
   47.7375   10.1208   15.5490 H   0  0  0  0  0  0  0  0  0  0  0  0
   53.7308    7.6231   20.0708 H   0  0  0  0  0  0  0  0  0  0  0  0
   50.5642    6.6927   16.4182 H   0  0  0  0  0  0  0  0  0  0  0  0
   55.0604    4.0861   20.8758 H   0  0  0  0  0  0  0  0  0  0  0  0
   49.2633    6.2138   14.2566 H   0  0  0  0  0  0  0  0  0  0  0  0
   48.7083    8.7066   20.5544 H   0  0  0  0  0  0  0  0  0  0  0  0
   50.3838   11.2571   20.2985 H   0  0  0  0  0  0  0  0  0  0  0  0
   48.5358    3.9407   21.8444 H   0  0  0  0  0  0  0  0  0  0  0  0
   47.2071   12.1925   16.6333 H   0  0  0  0  0  0  0  0  0  0  0  0
   49.1052   13.3122   20.2946 H   0  0  0  0  0  0  0  0  0  0  0  0
   46.6599    7.7624   21.4535 H   0  0  0  0  0  0  0  0  0  0  0  0
   47.5048   13.8016   18.4645 H   0  0  0  0  0  0  0  0  0  0  0  0
   46.5526    5.3695   22.0977 H   0  0  0  0  0  0  0  0  0  0  0  0
   50.9669    5.4437   22.2026 H   0  0  0  0  0  0  0  0  0  0  0  0
   51.5420    7.0283   22.7258 H   0  0  0  0  0  0  0  0  0  0  0  0
   52.1339    7.6028   20.3315 H   0  0  0  0  0  0  0  0  0  0  0  0
   53.0631    6.3217   21.0863 H   0  0  0  0  0  0  0  0  0  0  0  0
   49.8638    7.4156   17.0974 H   0  0  0  0  0  0  0  0  0  0  0  0
   48.3052    7.8135   17.7623 H   0  0  0  0  0  0  0  0  0  0  0  0
   50.9799    9.2524   18.3071 H   0  0  0  0  0  0  0  0  0  0  0  0
   49.4396    9.7510   19.0107 H   0  0  0  0  0  0  0  0  0  0  0  0
   49.1626    5.0983   17.3852 H   0  0  0  0  0  0  0  0  0  0  0  0
   47.2627    8.1386   19.5451 H   0  0  0  0  0  0  0  0  0  0  0  0
   49.9976    9.5209   16.0149 H   0  0  0  0  0  0  0  0  0  0  0  0
   48.4993   10.1330   16.7115 H   0  0  0  0  0  0  0  0  0  0  0  0
   53.3552    4.3145   19.8954 H   0  0  0  0  0  0  0  0  0  0  0  0
   49.4377    7.1068   23.8419 H   0  0  0  0  0  0  0  0  0  0  0  0
   49.7027   11.9402   18.8790 H   0  0  0  0  0  0  0  0  0  0  0  0
   49.9998   13.3035   17.8262 H   0  0  0  0  0  0  0  0  0  0  0  0
   48.4704   12.4124   17.6859 H   0  0  0  0  0  0  0  0  0  0  0  0
   50.5614   13.0125   15.5266 H   0  0  0  0  0  0  0  0  0  0  0  0
   49.0393   12.1476   15.2181 H   0  0  0  0  0  0  0  0  0  0  0  0
   50.6044   11.4164   14.7997 H   0  0  0  0  0  0  0  0  0  0  0  0
   46.1246    8.6364   21.6242 H   0  0  0  0  0  0  0  0  0  0  0  0
   50.5511    3.1299   16.8785 H   0  0  0  0  0  0  0  0  0  0  0  0
   47.1917    8.0986   23.7988 H   0  0  0  0  0  0  0  0  0  0  0  0
   52.6554    2.7341   18.1338 H   0  0  0  0  0  0  0  0  0  0  0  0
  2  1  1  0
  3  1  1  0
  4  2  2  0
  5  3  2  0
  6  4  1  0
  7  5  1  0
  8  1  1  0
  9  8  1  0
 10 13  1  0
 11  3  1  0
 12  2  1  0
 13  9  1  0
 14  5  1  0
 15  4  1  0
 16 10  1  0
 17 10  1  0
 18 12  2  0
 19 11  2  0
 20 15  2  0
 21 14  2  0
  6  7  1  0
 18 20  1  0
 19 21  1  0
 23 27  2  0
 24 28  1  0
 25 26  1  0
 26 22  2  0
 27 24  1  0
 28 25  1  0
 29 22  1  0
 30 23  1  0
 31 22  1  0
 32 23  1  0
 33 24  2  0
 34 35  1  0
 35 29  2  0
 36 33  1  0
 37 31  2  0
 38 32  2  0
 39 26  1  0
 40 27  1  0
 41 31  1  0
 42 32  1  0
 43 34  1  0
 44 33  1  0
 45 35  1  0
 46 36  1  0
 47 44  2  0
 48 43  2  0
 49 47  1  0
 50 45  2  0
 25 34  2  0
 48 50  1  0
 30 36  2  0
 46 49  2  0
 52 51  1  0
 53 51  1  0
 54 52  2  0
 55 53  2  0
 56 54  1  0
 57 55  1  0
 58 51  1  0
 59 58  1  0
 60 63  1  0
 61 53  1  0
 62 52  1  0
 63 59  1  0
 64 55  1  0
 65 54  1  0
 66 60  1  0
 67 60  1  0
 68 62  2  0
 69 61  2  0
 70 65  2  0
 71 64  2  0
 56 57  1  0
 68 70  1  0
 69 71  1  0
  6 72  1  0
  6 73  1  0
  7 74  1  0
  7 75  1  0
  8 76  1  0
  8 77  1  0
  9 78  1  0
  9 79  1  0
 11 80  1  0
 12 81  1  0
 13 82  1  0
 13 83  1  0
 14 84  1  0
 15 85  1  0
 16 86  1  0
 16 87  1  0
 16 88  1  0
 17 89  1  0
 17 90  1  0
 17 91  1  0
 18 92  1  0
 19 93  1  0
 20 94  1  0
 21 95  1  0
 28 96  1  0
 28 97  1  0
 29 98  1  0
 30 99  1  0
 39100  1  0
 40101  1  0
 41102  1  0
 42103  1  0
 43104  1  0
 44105  1  0
 45106  1  0
 46107  1  0
 47108  1  0
 48109  1  0
 49110  1  0
 50111  1  0
 56112  1  0
 56113  1  0
 57114  1  0
 57115  1  0
 58116  1  0
 58117  1  0
 59118  1  0
 59119  1  0
 61120  1  0
 62121  1  0
 63122  1  0
 63123  1  0
 64124  1  0
 65125  1  0
 66126  1  0
 66127  1  0
 66128  1  0
 67129  1  0
 67130  1  0
 67131  1  0
 68132  1  0
 69133  1  0
 70134  1  0
 71135  1  0
M  END
> <Uni-Dock RESULT> 
ENERGY=   -6.341  LOWER_BOUND=    2.080  UPPER_BOUND=    4.012
INTER + INTRA:          -6.341
INTER:                  -6.341
INTRA:                   0.000
UNBOUND:                 0.000

$$$$
