
     RDKit          3D

135142  0  0  0  0  0  0  0  0999 V2000
   50.1416    8.0208   19.0298 N   0  0  0  0  0  0  0  0  0  0  0  0
   49.6640    6.8231   19.6176 C   0  0  0  0  0  0  0  0  0  0  0  0
   50.9332    8.1746   17.8631 C   0  0  0  0  0  0  0  0  0  0  0  0
   48.9945    5.8375   18.8815 C   0  0  0  0  0  0  0  0  0  0  0  0
   50.9831    7.2445   16.8010 C   0  0  0  0  0  0  0  0  0  0  0  0
   48.8052    6.0054   17.4031 C   0  0  0  0  0  0  0  0  0  0  0  0
   50.1551    5.9814   16.7025 C   0  0  0  0  0  0  0  0  0  0  0  0
   49.5197    9.2352   19.6192 C   0  0  0  0  0  0  0  0  0  0  0  0
   48.4924    9.8625   18.6696 C   0  0  0  0  0  0  0  0  0  0  0  0
   47.1633   11.3692   20.3224 N   0  0  0  0  0  0  0  0  0  0  0  0
   51.7814    9.3049   17.7544 C   0  0  0  0  0  0  0  0  0  0  0  0
   49.8505    6.6041   20.9966 C   0  0  0  0  0  0  0  0  0  0  0  0
   47.9857   11.2436   19.1162 C   0  0  0  0  0  0  0  0  0  0  0  0
   51.8654    7.4638   15.7138 C   0  0  0  0  0  0  0  0  0  0  0  0
   48.5066    4.6842   19.5225 C   0  0  0  0  0  0  0  0  0  0  0  0
   46.1088   10.3680   20.4340 C   0  0  0  0  0  0  0  0  0  0  0  0
   47.9165   11.5151   21.5593 C   0  0  0  0  0  0  0  0  0  0  0  0
   49.3676    5.4566   21.6298 C   0  0  0  0  0  0  0  0  0  0  0  0
   52.6285    9.5199   16.6642 C   0  0  0  0  0  0  0  0  0  0  0  0
   48.6895    4.4967   20.8902 C   0  0  0  0  0  0  0  0  0  0  0  0
   52.6724    8.5932   15.6388 C   0  0  0  0  0  0  0  0  0  0  0  0
   47.6175    9.3263   21.0720 C   0  0  0  0  0  0  0  0  0  0  0  0
   50.0303    4.8701   17.4899 C   0  0  0  0  0  0  0  0  0  0  0  0
   49.8879    7.2982   17.7662 C   0  0  0  0  0  0  0  0  0  0  0  0
   48.4626    9.2923   18.7677 C   0  0  0  0  0  0  0  0  0  0  0  0
   48.1610    8.6300   19.9785 C   0  0  0  0  0  0  0  0  0  0  0  0
   49.3519    6.0791   17.2949 C   0  0  0  0  0  0  0  0  0  0  0  0
   49.0944    8.5840   17.5640 C   0  0  0  0  0  0  0  0  0  0  0  0
   47.3235   10.6861   20.9503 C   0  0  0  0  0  0  0  0  0  0  0  0
   51.2700    4.8806   18.1403 C   0  0  0  0  0  0  0  0  0  0  0  0
   47.3531    8.6159   22.3460 C   0  0  0  0  0  0  0  0  0  0  0  0
   49.5182    3.5455   17.0549 C   0  0  0  0  0  0  0  0  0  0  0  0
   51.1565    7.3020   18.4267 C   0  0  0  0  0  0  0  0  0  0  0  0
   48.1096   10.6813   18.6377 C   0  0  0  0  0  0  0  0  0  0  0  0
   47.5484   11.3639   19.7489 C   0  0  0  0  0  0  0  0  0  0  0  0
   51.8398    6.0731   18.6052 C   0  0  0  0  0  0  0  0  0  0  0  0
   47.5671    7.4290   22.5328 O   0  0  0  0  0  0  0  0  0  0  0  0
   50.0700    2.4729   17.2189 O   0  0  0  0  0  0  0  0  0  0  0  0
   48.3954    7.2808   20.0633 O   0  0  0  0  0  0  0  0  0  0  0  0
   48.1450    6.1344   16.6399 O   0  0  0  0  0  0  0  0  0  0  0  0
   46.8532    9.3974   23.3167 O   0  0  0  0  0  0  0  0  0  0  0  0
   48.3260    3.6125   16.4285 O   0  0  0  0  0  0  0  0  0  0  0  0
   48.2716   11.4372   17.4498 C   0  0  0  0  0  0  0  0  0  0  0  0
   51.7853    8.4677   18.9268 C   0  0  0  0  0  0  0  0  0  0  0  0
   47.2025   12.7235   19.6546 C   0  0  0  0  0  0  0  0  0  0  0  0
   53.0857    6.0411   19.2531 C   0  0  0  0  0  0  0  0  0  0  0  0
   53.0237    8.4216   19.5728 C   0  0  0  0  0  0  0  0  0  0  0  0
   47.9182   12.7879   17.3661 C   0  0  0  0  0  0  0  0  0  0  0  0
   53.6746    7.2075   19.7354 C   0  0  0  0  0  0  0  0  0  0  0  0
   47.3863   13.4329   18.4715 C   0  0  0  0  0  0  0  0  0  0  0  0
   49.5375    7.9792   18.3080 N   0  0  0  0  0  0  0  0  0  0  0  0
   49.2409    6.8125   19.0514 C   0  0  0  0  0  0  0  0  0  0  0  0
   50.0530    7.9714   16.9874 C   0  0  0  0  0  0  0  0  0  0  0  0
   50.2731    5.9328   19.4138 C   0  0  0  0  0  0  0  0  0  0  0  0
   51.0743    7.0895   16.5634 C   0  0  0  0  0  0  0  0  0  0  0  0
   51.6737    6.2227   18.9517 C   0  0  0  0  0  0  0  0  0  0  0  0
   51.7786    6.0691   17.4373 C   0  0  0  0  0  0  0  0  0  0  0  0
   48.9684    9.2456   18.8313 C   0  0  0  0  0  0  0  0  0  0  0  0
   49.3643    9.4837   20.2983 C   0  0  0  0  0  0  0  0  0  0  0  0
   47.6019   11.2688   20.6798 N   0  0  0  0  0  0  0  0  0  0  0  0
   49.5133    8.8452   16.0136 C   0  0  0  0  0  0  0  0  0  0  0  0
   47.9328    6.5157   19.4673 C   0  0  0  0  0  0  0  0  0  0  0  0
   49.0255   10.8999   20.7801 C   0  0  0  0  0  0  0  0  0  0  0  0
   51.5054    7.1162   15.2150 C   0  0  0  0  0  0  0  0  0  0  0  0
   49.9964    4.7994   20.1949 C   0  0  0  0  0  0  0  0  0  0  0  0
   46.7619   10.4510   21.5629 C   0  0  0  0  0  0  0  0  0  0  0  0
   47.4369   12.6851   21.0243 C   0  0  0  0  0  0  0  0  0  0  0  0
   47.6612    5.3838   20.2398 C   0  0  0  0  0  0  0  0  0  0  0  0
   49.9620    8.8688   14.6905 C   0  0  0  0  0  0  0  0  0  0  0  0
   48.6940    4.5308   20.6103 C   0  0  0  0  0  0  0  0  0  0  0  0
   50.9608    8.0001   14.2882 C   0  0  0  0  0  0  0  0  0  0  0  0
   48.2453    6.9259   17.1913 H   0  0  0  0  0  0  0  0  0  0  0  0
   48.1933    5.1811   17.0148 H   0  0  0  0  0  0  0  0  0  0  0  0
   49.9478    5.7938   15.6408 H   0  0  0  0  0  0  0  0  0  0  0  0
   50.7666    5.1411   17.0589 H   0  0  0  0  0  0  0  0  0  0  0  0
   48.9978    8.9875   20.5507 H   0  0  0  0  0  0  0  0  0  0  0  0
   50.2848    9.9633   19.9120 H   0  0  0  0  0  0  0  0  0  0  0  0
   48.9329    9.9929   17.6741 H   0  0  0  0  0  0  0  0  0  0  0  0
   47.6505    9.1737   18.5258 H   0  0  0  0  0  0  0  0  0  0  0  0
   51.8317   10.0388   18.5539 H   0  0  0  0  0  0  0  0  0  0  0  0
   50.3997    7.3340   21.5870 H   0  0  0  0  0  0  0  0  0  0  0  0
   48.8351   11.9381   19.1725 H   0  0  0  0  0  0  0  0  0  0  0  0
   47.3733   11.6289   18.2879 H   0  0  0  0  0  0  0  0  0  0  0  0
   51.9190    6.7379   14.9026 H   0  0  0  0  0  0  0  0  0  0  0  0
   47.9855    3.9189   18.9517 H   0  0  0  0  0  0  0  0  0  0  0  0
   45.4135   10.6342   21.2373 H   0  0  0  0  0  0  0  0  0  0  0  0
   46.5032    9.3689   20.6493 H   0  0  0  0  0  0  0  0  0  0  0  0
   45.5170   10.3200   19.5137 H   0  0  0  0  0  0  0  0  0  0  0  0
   48.4410   10.6044   21.8535 H   0  0  0  0  0  0  0  0  0  0  0  0
   48.6500   12.3225   21.4743 H   0  0  0  0  0  0  0  0  0  0  0  0
   47.2471   11.7926   22.3803 H   0  0  0  0  0  0  0  0  0  0  0  0
   49.5296    5.3134   22.6936 H   0  0  0  0  0  0  0  0  0  0  0  0
   53.2631   10.4007   16.6330 H   0  0  0  0  0  0  0  0  0  0  0  0
   48.3132    3.5999   21.3736 H   0  0  0  0  0  0  0  0  0  0  0  0
   53.3347    8.7385   14.7916 H   0  0  0  0  0  0  0  0  0  0  0  0
   49.8060    9.2683   17.0801 H   0  0  0  0  0  0  0  0  0  0  0  0
   48.2958    8.4399   16.8237 H   0  0  0  0  0  0  0  0  0  0  0  0
   46.8952   11.2231   21.7955 H   0  0  0  0  0  0  0  0  0  0  0  0
   51.7962    3.9378   18.2915 H   0  0  0  0  0  0  0  0  0  0  0  0
   48.1816    6.9534   20.9618 H   0  0  0  0  0  0  0  0  0  0  0  0
   47.8825    5.2176   16.4129 H   0  0  0  0  0  0  0  0  0  0  0  0
   46.7449    8.7959   24.0838 H   0  0  0  0  0  0  0  0  0  0  0  0
   48.1332    2.6682   16.2218 H   0  0  0  0  0  0  0  0  0  0  0  0
   48.6690   10.9804   16.5457 H   0  0  0  0  0  0  0  0  0  0  0  0
   51.3123    9.4413   18.8285 H   0  0  0  0  0  0  0  0  0  0  0  0
   46.7714   13.2445   20.5083 H   0  0  0  0  0  0  0  0  0  0  0  0
   53.6111    5.0988   19.3935 H   0  0  0  0  0  0  0  0  0  0  0  0
   53.4717    9.3358   19.9508 H   0  0  0  0  0  0  0  0  0  0  0  0
   48.0569   13.3280   16.4329 H   0  0  0  0  0  0  0  0  0  0  0  0
   54.6382    7.1660   20.2379 H   0  0  0  0  0  0  0  0  0  0  0  0
   47.1058   14.4816   18.4114 H   0  0  0  0  0  0  0  0  0  0  0  0
   51.9817    7.2236   19.2782 H   0  0  0  0  0  0  0  0  0  0  0  0
   52.3707    5.5208   19.4267 H   0  0  0  0  0  0  0  0  0  0  0  0
   51.4141    5.0739   17.1440 H   0  0  0  0  0  0  0  0  0  0  0  0
   52.8492    6.1016   17.1924 H   0  0  0  0  0  0  0  0  0  0  0  0
   47.8794    9.2636   18.7005 H   0  0  0  0  0  0  0  0  0  0  0  0
   49.3712   10.0994   18.2696 H   0  0  0  0  0  0  0  0  0  0  0  0
   48.8968    8.7456   20.9593 H   0  0  0  0  0  0  0  0  0  0  0  0
   50.4480    9.3410   20.4047 H   0  0  0  0  0  0  0  0  0  0  0  0
   48.6914    9.5120   16.2627 H   0  0  0  0  0  0  0  0  0  0  0  0
   47.1086    7.1584   19.1761 H   0  0  0  0  0  0  0  0  0  0  0  0
   49.6155   11.6002   20.1741 H   0  0  0  0  0  0  0  0  0  0  0  0
   49.3786   11.0123   21.8138 H   0  0  0  0  0  0  0  0  0  0  0  0
   52.2833    6.4303   14.8798 H   0  0  0  0  0  0  0  0  0  0  0  0
   50.7964    4.1217   20.4821 H   0  0  0  0  0  0  0  0  0  0  0  0
   47.1045   10.4788   22.6034 H   0  0  0  0  0  0  0  0  0  0  0  0
   45.7241   10.8003   21.5370 H   0  0  0  0  0  0  0  0  0  0  0  0
   46.7405    9.4091   21.2280 H   0  0  0  0  0  0  0  0  0  0  0  0
   48.0220   13.3175   20.3463 H   0  0  0  0  0  0  0  0  0  0  0  0
   47.7490   12.9003   22.0517 H   0  0  0  0  0  0  0  0  0  0  0  0
   46.3916   12.9922   20.9088 H   0  0  0  0  0  0  0  0  0  0  0  0
   46.6424    5.1713   20.5500 H   0  0  0  0  0  0  0  0  0  0  0  0
   49.5124    9.5520   13.9748 H   0  0  0  0  0  0  0  0  0  0  0  0
   48.4858    3.6507   21.2125 H   0  0  0  0  0  0  0  0  0  0  0  0
   51.3108    8.0002   13.2602 H   0  0  0  0  0  0  0  0  0  0  0  0
  2  1  1  0
  3  1  1  0
  4  2  2  0
  5  3  2  0
  6  4  1  0
  7  5  1  0
  8  1  1  0
  9  8  1  0
 10 13  1  0
 11  3  1  0
 12  2  1  0
 13  9  1  0
 14  5  1  0
 15  4  1  0
 16 10  1  0
 17 10  1  0
 18 12  2  0
 19 11  2  0
 20 15  2  0
 21 14  2  0
  6  7  1  0
 18 20  1  0
 19 21  1  0
 23 27  2  0
 24 28  1  0
 25 26  1  0
 26 22  2  0
 27 24  1  0
 28 25  1  0
 29 22  1  0
 30 23  1  0
 31 22  1  0
 32 23  1  0
 33 24  2  0
 34 35  1  0
 35 29  2  0
 36 33  1  0
 37 31  2  0
 38 32  2  0
 39 26  1  0
 40 27  1  0
 41 31  1  0
 42 32  1  0
 43 34  1  0
 44 33  1  0
 45 35  1  0
 46 36  1  0
 47 44  2  0
 48 43  2  0
 49 47  1  0
 50 45  2  0
 25 34  2  0
 48 50  1  0
 30 36  2  0
 46 49  2  0
 52 51  1  0
 53 51  1  0
 54 52  2  0
 55 53  2  0
 56 54  1  0
 57 55  1  0
 58 51  1  0
 59 58  1  0
 60 63  1  0
 61 53  1  0
 62 52  1  0
 63 59  1  0
 64 55  1  0
 65 54  1  0
 66 60  1  0
 67 60  1  0
 68 62  2  0
 69 61  2  0
 70 65  2  0
 71 64  2  0
 56 57  1  0
 68 70  1  0
 69 71  1  0
  6 72  1  0
  6 73  1  0
  7 74  1  0
  7 75  1  0
  8 76  1  0
  8 77  1  0
  9 78  1  0
  9 79  1  0
 11 80  1  0
 12 81  1  0
 13 82  1  0
 13 83  1  0
 14 84  1  0
 15 85  1  0
 16 86  1  0
 16 87  1  0
 16 88  1  0
 17 89  1  0
 17 90  1  0
 17 91  1  0
 18 92  1  0
 19 93  1  0
 20 94  1  0
 21 95  1  0
 28 96  1  0
 28 97  1  0
 29 98  1  0
 30 99  1  0
 39100  1  0
 40101  1  0
 41102  1  0
 42103  1  0
 43104  1  0
 44105  1  0
 45106  1  0
 46107  1  0
 47108  1  0
 48109  1  0
 49110  1  0
 50111  1  0
 56112  1  0
 56113  1  0
 57114  1  0
 57115  1  0
 58116  1  0
 58117  1  0
 59118  1  0
 59119  1  0
 61120  1  0
 62121  1  0
 63122  1  0
 63123  1  0
 64124  1  0
 65125  1  0
 66126  1  0
 66127  1  0
 66128  1  0
 67129  1  0
 67130  1  0
 67131  1  0
 68132  1  0
 69133  1  0
 70134  1  0
 71135  1  0
M  END
> <Uni-Dock RESULT> 
ENERGY=   -6.649  LOWER_BOUND=    0.000  UPPER_BOUND=    0.000
INTER + INTRA:          -6.649
INTER:                  -6.649
INTRA:                   0.000
UNBOUND:                 0.000

$$$$

     RDKit          3D

135142  0  0  0  0  0  0  0  0999 V2000
   49.9023    7.4456   19.4917 N   0  0  0  0  0  0  0  0  0  0  0  0
   49.6159    7.8933   20.8053 C   0  0  0  0  0  0  0  0  0  0  0  0
   49.9260    6.1154   19.0002 C   0  0  0  0  0  0  0  0  0  0  0  0
   48.4797    7.4788   21.5116 C   0  0  0  0  0  0  0  0  0  0  0  0
   49.2026    5.0406   19.5635 C   0  0  0  0  0  0  0  0  0  0  0  0
   47.5380    6.4848   20.8994 C   0  0  0  0  0  0  0  0  0  0  0  0
   48.2394    5.1463   20.7261 C   0  0  0  0  0  0  0  0  0  0  0  0
   49.9531    8.5572   18.5065 C   0  0  0  0  0  0  0  0  0  0  0  0
   48.7117    8.5733   17.6070 C   0  0  0  0  0  0  0  0  0  0  0  0
   48.8338   10.9926   16.6580 N   0  0  0  0  0  0  0  0  0  0  0  0
   50.7657    5.8056   17.9013 C   0  0  0  0  0  0  0  0  0  0  0  0
   50.4906    8.7997   21.4359 C   0  0  0  0  0  0  0  0  0  0  0  0
   48.8081    9.5468   16.4210 C   0  0  0  0  0  0  0  0  0  0  0  0
   49.3563    3.7346   19.0350 C   0  0  0  0  0  0  0  0  0  0  0  0
   48.2229    7.9844   22.7990 C   0  0  0  0  0  0  0  0  0  0  0  0
   47.8527   11.4563   17.6322 C   0  0  0  0  0  0  0  0  0  0  0  0
   50.1577   11.5447   16.9050 C   0  0  0  0  0  0  0  0  0  0  0  0
   50.2346    9.2978   22.7154 C   0  0  0  0  0  0  0  0  0  0  0  0
   50.8883    4.5169   17.3755 C   0  0  0  0  0  0  0  0  0  0  0  0
   49.0943    8.8918   23.3961 C   0  0  0  0  0  0  0  0  0  0  0  0
   50.1812    3.4749   17.9466 C   0  0  0  0  0  0  0  0  0  0  0  0
   49.2337   10.8177   18.8377 C   0  0  0  0  0  0  0  0  0  0  0  0
   48.3660    5.5628   22.0226 C   0  0  0  0  0  0  0  0  0  0  0  0
   48.8601    6.4421   19.7922 C   0  0  0  0  0  0  0  0  0  0  0  0
   48.6347    8.5301   18.1795 C   0  0  0  0  0  0  0  0  0  0  0  0
   48.9372    9.4856   19.1751 C   0  0  0  0  0  0  0  0  0  0  0  0
   47.9351    6.0987   20.8032 C   0  0  0  0  0  0  0  0  0  0  0  0
   48.3463    7.0582   18.4959 C   0  0  0  0  0  0  0  0  0  0  0  0
   49.1835   11.2214   17.5017 C   0  0  0  0  0  0  0  0  0  0  0  0
   49.7336    5.3434   22.2263 C   0  0  0  0  0  0  0  0  0  0  0  0
   49.5923   11.7889   19.8987 C   0  0  0  0  0  0  0  0  0  0  0  0
   47.4607    5.2082   23.1455 C   0  0  0  0  0  0  0  0  0  0  0  0
   50.2555    6.2121   20.0056 C   0  0  0  0  0  0  0  0  0  0  0  0
   48.5375    8.9689   16.8126 C   0  0  0  0  0  0  0  0  0  0  0  0
   48.8270   10.3217   16.4934 C   0  0  0  0  0  0  0  0  0  0  0  0
   50.6774    5.6558   21.2392 C   0  0  0  0  0  0  0  0  0  0  0  0
   49.6463   11.5239   21.0888 O   0  0  0  0  0  0  0  0  0  0  0  0
   47.7974    4.7551   24.2240 O   0  0  0  0  0  0  0  0  0  0  0  0
   48.9206    9.0908   20.4889 O   0  0  0  0  0  0  0  0  0  0  0  0
   46.6039    6.3110   20.5359 O   0  0  0  0  0  0  0  0  0  0  0  0
   49.8722   13.0207   19.4434 O   0  0  0  0  0  0  0  0  0  0  0  0
   46.1595    5.4369   22.8759 O   0  0  0  0  0  0  0  0  0  0  0  0
   48.1522    8.1352   15.7331 C   0  0  0  0  0  0  0  0  0  0  0  0
   51.2617    6.5107   19.0556 C   0  0  0  0  0  0  0  0  0  0  0  0
   48.7499   10.7770   15.1653 C   0  0  0  0  0  0  0  0  0  0  0  0
   52.0407    5.4207   21.4826 C   0  0  0  0  0  0  0  0  0  0  0  0
   52.6151    6.2751   19.3117 C   0  0  0  0  0  0  0  0  0  0  0  0
   48.0732    8.6009   14.4166 C   0  0  0  0  0  0  0  0  0  0  0  0
   53.0048    5.7291   20.5259 C   0  0  0  0  0  0  0  0  0  0  0  0
   48.3762    9.9230   14.1319 C   0  0  0  0  0  0  0  0  0  0  0  0
   49.0045    7.2301   19.3041 N   0  0  0  0  0  0  0  0  0  0  0  0
   48.9569    7.6998   20.6377 C   0  0  0  0  0  0  0  0  0  0  0  0
   48.6887    5.9036   18.9161 C   0  0  0  0  0  0  0  0  0  0  0  0
   49.8293    7.1655   21.5990 C   0  0  0  0  0  0  0  0  0  0  0  0
   49.1158    4.7660   19.6400 C   0  0  0  0  0  0  0  0  0  0  0  0
   50.7631    6.0572   21.2000 C   0  0  0  0  0  0  0  0  0  0  0  0
   49.9794    4.7861   20.8868 C   0  0  0  0  0  0  0  0  0  0  0  0
   49.0712    8.2721   18.2498 C   0  0  0  0  0  0  0  0  0  0  0  0
   50.2504    9.2337   18.4745 C   0  0  0  0  0  0  0  0  0  0  0  0
   49.3687   10.9886   16.8679 N   0  0  0  0  0  0  0  0  0  0  0  0
   47.8753    5.6747   17.7806 C   0  0  0  0  0  0  0  0  0  0  0  0
   48.0713    8.7165   21.0305 C   0  0  0  0  0  0  0  0  0  0  0  0
   50.5091   10.1446   17.2679 C   0  0  0  0  0  0  0  0  0  0  0  0
   48.7225    3.4756   19.2097 C   0  0  0  0  0  0  0  0  0  0  0  0
   49.8252    7.6608   22.9128 C   0  0  0  0  0  0  0  0  0  0  0  0
   49.0237   11.9683   17.9050 C   0  0  0  0  0  0  0  0  0  0  0  0
   49.6921   11.6915   15.6217 C   0  0  0  0  0  0  0  0  0  0  0  0
   48.0668    9.2026   22.3402 C   0  0  0  0  0  0  0  0  0  0  0  0
   47.5099    4.3929   17.3612 C   0  0  0  0  0  0  0  0  0  0  0  0
   48.9492    8.6806   23.2785 C   0  0  0  0  0  0  0  0  0  0  0  0
   47.9332    3.2884   18.0789 C   0  0  0  0  0  0  0  0  0  0  0  0
   47.1397    6.8691   19.9511 H   0  0  0  0  0  0  0  0  0  0  0  0
   46.6718    6.3447   21.5586 H   0  0  0  0  0  0  0  0  0  0  0  0
   47.4474    4.4003   20.5791 H   0  0  0  0  0  0  0  0  0  0  0  0
   48.7748    4.8630   21.6427 H   0  0  0  0  0  0  0  0  0  0  0  0
   50.0000    9.5248   19.0193 H   0  0  0  0  0  0  0  0  0  0  0  0
   50.8726    8.5106   17.9117 H   0  0  0  0  0  0  0  0  0  0  0  0
   48.5413    7.5756   17.1854 H   0  0  0  0  0  0  0  0  0  0  0  0
   47.8200    8.7896   18.2086 H   0  0  0  0  0  0  0  0  0  0  0  0
   51.3878    6.5713   17.4461 H   0  0  0  0  0  0  0  0  0  0  0  0
   51.4004    9.1105   20.9273 H   0  0  0  0  0  0  0  0  0  0  0  0
   49.6584    9.2597   15.7873 H   0  0  0  0  0  0  0  0  0  0  0  0
   47.9247    9.3561   15.7942 H   0  0  0  0  0  0  0  0  0  0  0  0
   48.8135    2.9010   19.4802 H   0  0  0  0  0  0  0  0  0  0  0  0
   47.3401    7.6640   23.3476 H   0  0  0  0  0  0  0  0  0  0  0  0
   47.7845   12.5493   17.6143 H   0  0  0  0  0  0  0  0  0  0  0  0
   48.1040   11.1527   18.6544 H   0  0  0  0  0  0  0  0  0  0  0  0
   46.8536   11.0783   17.3904 H   0  0  0  0  0  0  0  0  0  0  0  0
   50.5749   11.2472   17.8686 H   0  0  0  0  0  0  0  0  0  0  0  0
   50.8569   11.2431   16.1193 H   0  0  0  0  0  0  0  0  0  0  0  0
   50.1224   12.6389   16.8820 H   0  0  0  0  0  0  0  0  0  0  0  0
   50.9288    9.9927   23.1776 H   0  0  0  0  0  0  0  0  0  0  0  0
   51.5510    4.3323   16.5350 H   0  0  0  0  0  0  0  0  0  0  0  0
   48.8887    9.2715   24.3926 H   0  0  0  0  0  0  0  0  0  0  0  0
   50.2756    2.4658   17.5588 H   0  0  0  0  0  0  0  0  0  0  0  0
   48.7835    6.4308   17.7059 H   0  0  0  0  0  0  0  0  0  0  0  0
   47.2614    6.9177   18.3978 H   0  0  0  0  0  0  0  0  0  0  0  0
   49.4059   12.2555   17.2421 H   0  0  0  0  0  0  0  0  0  0  0  0
   50.0669    4.9266   23.1770 H   0  0  0  0  0  0  0  0  0  0  0  0
   49.1839    9.8334   21.0715 H   0  0  0  0  0  0  0  0  0  0  0  0
   46.0929    6.0691   21.3367 H   0  0  0  0  0  0  0  0  0  0  0  0
   50.0967   13.5341   20.2484 H   0  0  0  0  0  0  0  0  0  0  0  0
   45.7110    5.1633   23.7100 H   0  0  0  0  0  0  0  0  0  0  0  0
   47.8872    7.0928   15.8981 H   0  0  0  0  0  0  0  0  0  0  0  0
   51.0067    6.9448   18.0923 H   0  0  0  0  0  0  0  0  0  0  0  0
   48.9717   11.8155   14.9234 H   0  0  0  0  0  0  0  0  0  0  0  0
   52.3674    4.9960   22.4294 H   0  0  0  0  0  0  0  0  0  0  0  0
   53.3598    6.5248   18.5616 H   0  0  0  0  0  0  0  0  0  0  0  0
   47.7697    7.9264   13.6200 H   0  0  0  0  0  0  0  0  0  0  0  0
   54.0568    5.5443   20.7305 H   0  0  0  0  0  0  0  0  0  0  0  0
   48.3125   10.2920   13.1112 H   0  0  0  0  0  0  0  0  0  0  0  0
   51.3819    6.3698   20.3500 H   0  0  0  0  0  0  0  0  0  0  0  0
   51.4596    5.8490   22.0219 H   0  0  0  0  0  0  0  0  0  0  0  0
   49.3343    4.5337   21.7408 H   0  0  0  0  0  0  0  0  0  0  0  0
   50.7177    3.9775   20.7949 H   0  0  0  0  0  0  0  0  0  0  0  0
   48.1193    8.8125   18.1791 H   0  0  0  0  0  0  0  0  0  0  0  0
   49.2468    7.8059   17.2707 H   0  0  0  0  0  0  0  0  0  0  0  0
   50.0992    9.8424   19.3728 H   0  0  0  0  0  0  0  0  0  0  0  0
   51.1611    8.6475   18.6565 H   0  0  0  0  0  0  0  0  0  0  0  0
   47.4725    6.5086   17.2109 H   0  0  0  0  0  0  0  0  0  0  0  0
   47.3625    9.1275   20.3192 H   0  0  0  0  0  0  0  0  0  0  0  0
   50.7829    9.4977   16.4239 H   0  0  0  0  0  0  0  0  0  0  0  0
   51.3896   10.7655   17.4798 H   0  0  0  0  0  0  0  0  0  0  0  0
   49.0384    2.5963   19.7709 H   0  0  0  0  0  0  0  0  0  0  0  0
   50.5056    7.2526   23.6557 H   0  0  0  0  0  0  0  0  0  0  0  0
   49.8837   12.5803   18.1995 H   0  0  0  0  0  0  0  0  0  0  0  0
   48.2337   12.6394   17.5513 H   0  0  0  0  0  0  0  0  0  0  0  0
   48.6248   11.4717   18.7952 H   0  0  0  0  0  0  0  0  0  0  0  0
   49.9093   10.9754   14.8204 H   0  0  0  0  0  0  0  0  0  0  0  0
   50.5553   12.3561   15.7333 H   0  0  0  0  0  0  0  0  0  0  0  0
   48.8384   12.2875   15.2808 H   0  0  0  0  0  0  0  0  0  0  0  0
   47.3729    9.9882   22.6241 H   0  0  0  0  0  0  0  0  0  0  0  0
   46.8769    4.2655   16.4870 H   0  0  0  0  0  0  0  0  0  0  0  0
   48.9489    9.0580   24.2974 H   0  0  0  0  0  0  0  0  0  0  0  0
   47.6470    2.2873   17.7703 H   0  0  0  0  0  0  0  0  0  0  0  0
  2  1  1  0
  3  1  1  0
  4  2  2  0
  5  3  2  0
  6  4  1  0
  7  5  1  0
  8  1  1  0
  9  8  1  0
 10 13  1  0
 11  3  1  0
 12  2  1  0
 13  9  1  0
 14  5  1  0
 15  4  1  0
 16 10  1  0
 17 10  1  0
 18 12  2  0
 19 11  2  0
 20 15  2  0
 21 14  2  0
  6  7  1  0
 18 20  1  0
 19 21  1  0
 23 27  2  0
 24 28  1  0
 25 26  1  0
 26 22  2  0
 27 24  1  0
 28 25  1  0
 29 22  1  0
 30 23  1  0
 31 22  1  0
 32 23  1  0
 33 24  2  0
 34 35  1  0
 35 29  2  0
 36 33  1  0
 37 31  2  0
 38 32  2  0
 39 26  1  0
 40 27  1  0
 41 31  1  0
 42 32  1  0
 43 34  1  0
 44 33  1  0
 45 35  1  0
 46 36  1  0
 47 44  2  0
 48 43  2  0
 49 47  1  0
 50 45  2  0
 25 34  2  0
 48 50  1  0
 30 36  2  0
 46 49  2  0
 52 51  1  0
 53 51  1  0
 54 52  2  0
 55 53  2  0
 56 54  1  0
 57 55  1  0
 58 51  1  0
 59 58  1  0
 60 63  1  0
 61 53  1  0
 62 52  1  0
 63 59  1  0
 64 55  1  0
 65 54  1  0
 66 60  1  0
 67 60  1  0
 68 62  2  0
 69 61  2  0
 70 65  2  0
 71 64  2  0
 56 57  1  0
 68 70  1  0
 69 71  1  0
  6 72  1  0
  6 73  1  0
  7 74  1  0
  7 75  1  0
  8 76  1  0
  8 77  1  0
  9 78  1  0
  9 79  1  0
 11 80  1  0
 12 81  1  0
 13 82  1  0
 13 83  1  0
 14 84  1  0
 15 85  1  0
 16 86  1  0
 16 87  1  0
 16 88  1  0
 17 89  1  0
 17 90  1  0
 17 91  1  0
 18 92  1  0
 19 93  1  0
 20 94  1  0
 21 95  1  0
 28 96  1  0
 28 97  1  0
 29 98  1  0
 30 99  1  0
 39100  1  0
 40101  1  0
 41102  1  0
 42103  1  0
 43104  1  0
 44105  1  0
 45106  1  0
 46107  1  0
 47108  1  0
 48109  1  0
 49110  1  0
 50111  1  0
 56112  1  0
 56113  1  0
 57114  1  0
 57115  1  0
 58116  1  0
 58117  1  0
 59118  1  0
 59119  1  0
 61120  1  0
 62121  1  0
 63122  1  0
 63123  1  0
 64124  1  0
 65125  1  0
 66126  1  0
 66127  1  0
 66128  1  0
 67129  1  0
 67130  1  0
 67131  1  0
 68132  1  0
 69133  1  0
 70134  1  0
 71135  1  0
M  END
> <Uni-Dock RESULT> 
ENERGY=   -6.232  LOWER_BOUND=    2.014  UPPER_BOUND=    4.073
INTER + INTRA:          -6.232
INTER:                  -6.232
INTRA:                   0.000
UNBOUND:                 0.000

$$$$

     RDKit          3D

135142  0  0  0  0  0  0  0  0999 V2000
   49.4271    7.5063   19.0535 N   0  0  0  0  0  0  0  0  0  0  0  0
   50.5034    7.2238   18.1762 C   0  0  0  0  0  0  0  0  0  0  0  0
   49.0304    6.7992   20.2172 C   0  0  0  0  0  0  0  0  0  0  0  0
   51.8071    6.9934   18.6330 C   0  0  0  0  0  0  0  0  0  0  0  0
   49.8918    5.9991   21.0005 C   0  0  0  0  0  0  0  0  0  0  0  0
   52.0958    6.9897   20.1048 C   0  0  0  0  0  0  0  0  0  0  0  0
   51.3775    5.8256   20.7700 C   0  0  0  0  0  0  0  0  0  0  0  0
   48.8190    8.8391   18.8028 C   0  0  0  0  0  0  0  0  0  0  0  0
   49.2075    9.8514   19.8867 C   0  0  0  0  0  0  0  0  0  0  0  0
   48.6331   12.0877   18.6877 N   0  0  0  0  0  0  0  0  0  0  0  0
   47.6701    6.8390   20.6131 C   0  0  0  0  0  0  0  0  0  0  0  0
   50.2737    7.1808   16.7870 C   0  0  0  0  0  0  0  0  0  0  0  0
   48.4300   11.1759   19.8167 C   0  0  0  0  0  0  0  0  0  0  0  0
   49.3726    5.2771   22.1040 C   0  0  0  0  0  0  0  0  0  0  0  0
   52.8469    6.7555   17.7158 C   0  0  0  0  0  0  0  0  0  0  0  0
   50.0311   12.2862   18.3234 C   0  0  0  0  0  0  0  0  0  0  0  0
   47.7958   11.8160   17.5286 C   0  0  0  0  0  0  0  0  0  0  0  0
   51.3075    6.9414   15.8788 C   0  0  0  0  0  0  0  0  0  0  0  0
   47.1775    6.1408   21.7186 C   0  0  0  0  0  0  0  0  0  0  0  0
   52.5985    6.7330   16.3457 C   0  0  0  0  0  0  0  0  0  0  0  0
   48.0330    5.3537   22.4673 C   0  0  0  0  0  0  0  0  0  0  0  0
   49.6976   10.5950   17.4307 C   0  0  0  0  0  0  0  0  0  0  0  0
   52.1227    5.3620   19.7211 C   0  0  0  0  0  0  0  0  0  0  0  0
   50.3715    7.0328   20.0866 C   0  0  0  0  0  0  0  0  0  0  0  0
   49.6278    9.5352   19.6437 C   0  0  0  0  0  0  0  0  0  0  0  0
   50.0735    9.5589   18.3034 C   0  0  0  0  0  0  0  0  0  0  0  0
   51.7090    6.6003   20.2264 C   0  0  0  0  0  0  0  0  0  0  0  0
   49.9770    8.4056   20.6193 C   0  0  0  0  0  0  0  0  0  0  0  0
   48.9096   11.6468   17.9032 C   0  0  0  0  0  0  0  0  0  0  0  0
   51.1855    4.5345   19.0912 C   0  0  0  0  0  0  0  0  0  0  0  0
   50.1423   10.5712   16.0168 C   0  0  0  0  0  0  0  0  0  0  0  0
   53.5155    4.8516   19.7983 C   0  0  0  0  0  0  0  0  0  0  0  0
   49.4184    6.1809   19.4451 C   0  0  0  0  0  0  0  0  0  0  0  0
   48.8581   10.6487   20.1319 C   0  0  0  0  0  0  0  0  0  0  0  0
   48.5003   11.6927   19.2387 C   0  0  0  0  0  0  0  0  0  0  0  0
   49.8469    4.9235   18.9505 C   0  0  0  0  0  0  0  0  0  0  0  0
   50.8418    9.6994   15.5268 O   0  0  0  0  0  0  0  0  0  0  0  0
   53.9167    3.7896   19.3588 O   0  0  0  0  0  0  0  0  0  0  0  0
   50.8995    8.5530   17.8696 O   0  0  0  0  0  0  0  0  0  0  0  0
   52.5775    7.4430   20.8777 O   0  0  0  0  0  0  0  0  0  0  0  0
   49.6995   11.6060   15.2847 O   0  0  0  0  0  0  0  0  0  0  0  0
   54.3601    5.6953   20.4249 O   0  0  0  0  0  0  0  0  0  0  0  0
   48.4292   10.7937   21.4750 C   0  0  0  0  0  0  0  0  0  0  0  0
   48.0546    6.5142   19.2632 C   0  0  0  0  0  0  0  0  0  0  0  0
   47.7407   12.7886   19.6848 C   0  0  0  0  0  0  0  0  0  0  0  0
   48.9374    4.0644   18.3120 C   0  0  0  0  0  0  0  0  0  0  0  0
   47.1607    5.6517   18.6229 C   0  0  0  0  0  0  0  0  0  0  0  0
   47.6790   11.8916   21.9086 C   0  0  0  0  0  0  0  0  0  0  0  0
   47.6024    4.4256   18.1476 C   0  0  0  0  0  0  0  0  0  0  0  0
   47.3310   12.8887   21.0111 C   0  0  0  0  0  0  0  0  0  0  0  0
   49.9901    7.8175   19.7419 N   0  0  0  0  0  0  0  0  0  0  0  0
   50.8959    7.4429   18.7217 C   0  0  0  0  0  0  0  0  0  0  0  0
   49.9213    7.1937   21.0131 C   0  0  0  0  0  0  0  0  0  0  0  0
   50.8054    6.1690   18.1391 C   0  0  0  0  0  0  0  0  0  0  0  0
   49.9936    5.7922   21.1892 C   0  0  0  0  0  0  0  0  0  0  0  0
   49.7762    5.2028   18.6555 C   0  0  0  0  0  0  0  0  0  0  0  0
   50.1185    4.7679   20.0774 C   0  0  0  0  0  0  0  0  0  0  0  0
   49.3225    9.1312   19.5683 C   0  0  0  0  0  0  0  0  0  0  0  0
   48.6032    9.2288   18.2123 C   0  0  0  0  0  0  0  0  0  0  0  0
   48.3532   11.7518   18.3149 N   0  0  0  0  0  0  0  0  0  0  0  0
   49.8176    7.9839   22.1827 C   0  0  0  0  0  0  0  0  0  0  0  0
   51.8794    8.3263   18.2477 C   0  0  0  0  0  0  0  0  0  0  0  0
   47.6843   10.4532   18.1168 C   0  0  0  0  0  0  0  0  0  0  0  0
   49.9594    5.2495   22.4966 C   0  0  0  0  0  0  0  0  0  0  0  0
   51.6663    5.8064   17.0909 C   0  0  0  0  0  0  0  0  0  0  0  0
   49.3261   12.0331   17.2525 C   0  0  0  0  0  0  0  0  0  0  0  0
   47.3487   12.8202   18.3514 C   0  0  0  0  0  0  0  0  0  0  0  0
   52.7377    7.9594   17.2083 C   0  0  0  0  0  0  0  0  0  0  0  0
   49.7694    7.4301   23.4647 C   0  0  0  0  0  0  0  0  0  0  0  0
   52.6254    6.7030   16.6248 C   0  0  0  0  0  0  0  0  0  0  0  0
   49.8422    6.0577   23.6234 C   0  0  0  0  0  0  0  0  0  0  0  0
   51.8213    7.9547   20.5509 H   0  0  0  0  0  0  0  0  0  0  0  0
   53.1752    6.8755   20.2675 H   0  0  0  0  0  0  0  0  0  0  0  0
   51.8581    5.6850   21.7471 H   0  0  0  0  0  0  0  0  0  0  0  0
   51.5312    4.8959   20.2050 H   0  0  0  0  0  0  0  0  0  0  0  0
   49.1565    9.2419   17.8408 H   0  0  0  0  0  0  0  0  0  0  0  0
   47.7300    8.7601   18.7067 H   0  0  0  0  0  0  0  0  0  0  0  0
   49.0217    9.4266   20.8802 H   0  0  0  0  0  0  0  0  0  0  0  0
   50.2880   10.0390   19.8494 H   0  0  0  0  0  0  0  0  0  0  0  0
   46.9399    7.3953   20.0319 H   0  0  0  0  0  0  0  0  0  0  0  0
   49.2647    7.3184   16.4048 H   0  0  0  0  0  0  0  0  0  0  0  0
   47.3578   10.9712   19.9399 H   0  0  0  0  0  0  0  0  0  0  0  0
   48.7048   11.7416   20.7190 H   0  0  0  0  0  0  0  0  0  0  0  0
   50.0319    4.6446   22.6982 H   0  0  0  0  0  0  0  0  0  0  0  0
   53.8600    6.5777   18.0697 H   0  0  0  0  0  0  0  0  0  0  0  0
   50.1273   13.1198   17.6195 H   0  0  0  0  0  0  0  0  0  0  0  0
   50.4700   11.3988   17.8541 H   0  0  0  0  0  0  0  0  0  0  0  0
   50.6299   12.5500   19.2017 H   0  0  0  0  0  0  0  0  0  0  0  0
   48.0698   10.8981   17.0057 H   0  0  0  0  0  0  0  0  0  0  0  0
   46.7429   11.7459   17.8181 H   0  0  0  0  0  0  0  0  0  0  0  0
   47.8633   12.6400   16.8106 H   0  0  0  0  0  0  0  0  0  0  0  0
   51.0996    6.9105   14.8138 H   0  0  0  0  0  0  0  0  0  0  0  0
   46.1240    6.2011   21.9756 H   0  0  0  0  0  0  0  0  0  0  0  0
   53.4081    6.5431   15.6470 H   0  0  0  0  0  0  0  0  0  0  0  0
   47.6635    4.7944   23.3207 H   0  0  0  0  0  0  0  0  0  0  0  0
   49.1073    8.2071   21.2620 H   0  0  0  0  0  0  0  0  0  0  0  0
   50.7450    8.7979   21.2995 H   0  0  0  0  0  0  0  0  0  0  0  0
   48.6253   12.4529   17.2283 H   0  0  0  0  0  0  0  0  0  0  0  0
   51.5101    3.5709   18.6980 H   0  0  0  0  0  0  0  0  0  0  0  0
   51.1028    8.6654   16.9177 H   0  0  0  0  0  0  0  0  0  0  0  0
   53.4674    7.0324   20.8593 H   0  0  0  0  0  0  0  0  0  0  0  0
   50.0624   11.4446   14.3879 H   0  0  0  0  0  0  0  0  0  0  0  0
   55.2213    5.2178   20.3795 H   0  0  0  0  0  0  0  0  0  0  0  0
   48.6861   10.0510   22.2276 H   0  0  0  0  0  0  0  0  0  0  0  0
   47.6624    7.4655   19.6133 H   0  0  0  0  0  0  0  0  0  0  0  0
   47.4683   13.5884   18.9976 H   0  0  0  0  0  0  0  0  0  0  0  0
   49.2643    3.0999   17.9294 H   0  0  0  0  0  0  0  0  0  0  0  0
   46.1230    5.9451   18.4941 H   0  0  0  0  0  0  0  0  0  0  0  0
   47.3743   11.9632   22.9496 H   0  0  0  0  0  0  0  0  0  0  0  0
   46.9110    3.7509   17.6481 H   0  0  0  0  0  0  0  0  0  0  0  0
   46.7515   13.7466   21.3430 H   0  0  0  0  0  0  0  0  0  0  0  0
   48.7754    5.6483   18.5995 H   0  0  0  0  0  0  0  0  0  0  0  0
   49.7493    4.3146   18.0116 H   0  0  0  0  0  0  0  0  0  0  0  0
   51.1452    4.3748   20.1030 H   0  0  0  0  0  0  0  0  0  0  0  0
   49.4499    3.9300   20.3183 H   0  0  0  0  0  0  0  0  0  0  0  0
   50.0394    9.9504   19.7033 H   0  0  0  0  0  0  0  0  0  0  0  0
   48.5429    9.2607   20.3312 H   0  0  0  0  0  0  0  0  0  0  0  0
   49.3200    9.2378   17.3838 H   0  0  0  0  0  0  0  0  0  0  0  0
   47.9864    8.3317   18.0684 H   0  0  0  0  0  0  0  0  0  0  0  0
   49.8091    9.0693   22.1187 H   0  0  0  0  0  0  0  0  0  0  0  0
   51.9961    9.3060   18.6991 H   0  0  0  0  0  0  0  0  0  0  0  0
   46.9054   10.3366   18.8820 H   0  0  0  0  0  0  0  0  0  0  0  0
   47.1704   10.4309   17.1467 H   0  0  0  0  0  0  0  0  0  0  0  0
   50.0273    4.1710   22.6388 H   0  0  0  0  0  0  0  0  0  0  0  0
   51.5918    4.8227   16.6344 H   0  0  0  0  0  0  0  0  0  0  0  0
   48.8799   11.9671   16.2539 H   0  0  0  0  0  0  0  0  0  0  0  0
   49.7452   13.0378   17.3723 H   0  0  0  0  0  0  0  0  0  0  0  0
   50.1734   11.3420   17.3049 H   0  0  0  0  0  0  0  0  0  0  0  0
   46.6372   12.6526   19.1685 H   0  0  0  0  0  0  0  0  0  0  0  0
   46.7868   12.8922   17.4143 H   0  0  0  0  0  0  0  0  0  0  0  0
   47.8214   13.7891   18.5467 H   0  0  0  0  0  0  0  0  0  0  0  0
   53.4926    8.6566   16.8573 H   0  0  0  0  0  0  0  0  0  0  0  0
   49.6971    8.0769   24.3352 H   0  0  0  0  0  0  0  0  0  0  0  0
   53.2905    6.4156   15.8151 H   0  0  0  0  0  0  0  0  0  0  0  0
   49.8172    5.6150   24.6148 H   0  0  0  0  0  0  0  0  0  0  0  0
  2  1  1  0
  3  1  1  0
  4  2  2  0
  5  3  2  0
  6  4  1  0
  7  5  1  0
  8  1  1  0
  9  8  1  0
 10 13  1  0
 11  3  1  0
 12  2  1  0
 13  9  1  0
 14  5  1  0
 15  4  1  0
 16 10  1  0
 17 10  1  0
 18 12  2  0
 19 11  2  0
 20 15  2  0
 21 14  2  0
  6  7  1  0
 18 20  1  0
 19 21  1  0
 23 27  2  0
 24 28  1  0
 25 26  1  0
 26 22  2  0
 27 24  1  0
 28 25  1  0
 29 22  1  0
 30 23  1  0
 31 22  1  0
 32 23  1  0
 33 24  2  0
 34 35  1  0
 35 29  2  0
 36 33  1  0
 37 31  2  0
 38 32  2  0
 39 26  1  0
 40 27  1  0
 41 31  1  0
 42 32  1  0
 43 34  1  0
 44 33  1  0
 45 35  1  0
 46 36  1  0
 47 44  2  0
 48 43  2  0
 49 47  1  0
 50 45  2  0
 25 34  2  0
 48 50  1  0
 30 36  2  0
 46 49  2  0
 52 51  1  0
 53 51  1  0
 54 52  2  0
 55 53  2  0
 56 54  1  0
 57 55  1  0
 58 51  1  0
 59 58  1  0
 60 63  1  0
 61 53  1  0
 62 52  1  0
 63 59  1  0
 64 55  1  0
 65 54  1  0
 66 60  1  0
 67 60  1  0
 68 62  2  0
 69 61  2  0
 70 65  2  0
 71 64  2  0
 56 57  1  0
 68 70  1  0
 69 71  1  0
  6 72  1  0
  6 73  1  0
  7 74  1  0
  7 75  1  0
  8 76  1  0
  8 77  1  0
  9 78  1  0
  9 79  1  0
 11 80  1  0
 12 81  1  0
 13 82  1  0
 13 83  1  0
 14 84  1  0
 15 85  1  0
 16 86  1  0
 16 87  1  0
 16 88  1  0
 17 89  1  0
 17 90  1  0
 17 91  1  0
 18 92  1  0
 19 93  1  0
 20 94  1  0
 21 95  1  0
 28 96  1  0
 28 97  1  0
 29 98  1  0
 30 99  1  0
 39100  1  0
 40101  1  0
 41102  1  0
 42103  1  0
 43104  1  0
 44105  1  0
 45106  1  0
 46107  1  0
 47108  1  0
 48109  1  0
 49110  1  0
 50111  1  0
 56112  1  0
 56113  1  0
 57114  1  0
 57115  1  0
 58116  1  0
 58117  1  0
 59118  1  0
 59119  1  0
 61120  1  0
 62121  1  0
 63122  1  0
 63123  1  0
 64124  1  0
 65125  1  0
 66126  1  0
 66127  1  0
 66128  1  0
 67129  1  0
 67130  1  0
 67131  1  0
 68132  1  0
 69133  1  0
 70134  1  0
 71135  1  0
M  END
> <Uni-Dock RESULT> 
ENERGY=   -6.210  LOWER_BOUND=    1.880  UPPER_BOUND=    4.757
INTER + INTRA:          -6.210
INTER:                  -6.210
INTRA:                   0.000
UNBOUND:                 0.000

$$$$

     RDKit          3D

135142  0  0  0  0  0  0  0  0999 V2000
   50.3681    6.1956   18.4860 N   0  0  0  0  0  0  0  0  0  0  0  0
   50.1518    6.2591   19.8849 C   0  0  0  0  0  0  0  0  0  0  0  0
   49.6833    6.8903   17.4564 C   0  0  0  0  0  0  0  0  0  0  0  0
   50.0763    7.4719   20.5813 C   0  0  0  0  0  0  0  0  0  0  0  0
   49.0136    8.1220   17.6299 C   0  0  0  0  0  0  0  0  0  0  0  0
   50.1746    8.7706   19.8373 C   0  0  0  0  0  0  0  0  0  0  0  0
   48.9787    8.9278   18.9106 C   0  0  0  0  0  0  0  0  0  0  0  0
   51.6191    5.4751   18.1324 C   0  0  0  0  0  0  0  0  0  0  0  0
   52.7178    6.4408   17.6732 C   0  0  0  0  0  0  0  0  0  0  0  0
   54.8229    4.9330   17.9255 N   0  0  0  0  0  0  0  0  0  0  0  0
   49.6061    6.3044   16.1682 C   0  0  0  0  0  0  0  0  0  0  0  0
   50.0170    5.0658   20.6214 C   0  0  0  0  0  0  0  0  0  0  0  0
   53.9525    5.7480   17.0738 C   0  0  0  0  0  0  0  0  0  0  0  0
   48.2989    8.6934   16.5477 C   0  0  0  0  0  0  0  0  0  0  0  0
   49.8986    7.4771   21.9768 C   0  0  0  0  0  0  0  0  0  0  0  0
   55.1423    5.5426   19.2112 C   0  0  0  0  0  0  0  0  0  0  0  0
   54.4113    3.5437   18.0625 C   0  0  0  0  0  0  0  0  0  0  0  0
   49.8378    5.0741   22.0066 C   0  0  0  0  0  0  0  0  0  0  0  0
   48.9177    6.8921   15.1037 C   0  0  0  0  0  0  0  0  0  0  0  0
   49.7834    6.2841   22.6858 C   0  0  0  0  0  0  0  0  0  0  0  0
   48.2586    8.0925   15.2948 C   0  0  0  0  0  0  0  0  0  0  0  0
   53.3839    4.8270   19.6166 C   0  0  0  0  0  0  0  0  0  0  0  0
   48.5408    8.6660   20.1795 C   0  0  0  0  0  0  0  0  0  0  0  0
   50.0435    7.6359   18.5447 C   0  0  0  0  0  0  0  0  0  0  0  0
   52.4337    6.5621   18.1632 C   0  0  0  0  0  0  0  0  0  0  0  0
   52.4354    5.8361   19.3752 C   0  0  0  0  0  0  0  0  0  0  0  0
   49.7549    8.6520   19.4826 C   0  0  0  0  0  0  0  0  0  0  0  0
   51.3946    7.6412   17.8386 C   0  0  0  0  0  0  0  0  0  0  0  0
   54.3735    4.5651   18.6666 C   0  0  0  0  0  0  0  0  0  0  0  0
   47.5932    7.6689   19.9193 C   0  0  0  0  0  0  0  0  0  0  0  0
   53.3347    4.0497   20.8779 C   0  0  0  0  0  0  0  0  0  0  0  0
   48.1771    9.6787   21.2034 C   0  0  0  0  0  0  0  0  0  0  0  0
   49.0695    6.6223   18.2812 C   0  0  0  0  0  0  0  0  0  0  0  0
   53.4872    6.3175   17.2142 C   0  0  0  0  0  0  0  0  0  0  0  0
   54.4444    5.3038   17.4822 C   0  0  0  0  0  0  0  0  0  0  0  0
   47.8385    6.6559   18.9831 C   0  0  0  0  0  0  0  0  0  0  0  0
   52.5143    4.2225   21.7647 O   0  0  0  0  0  0  0  0  0  0  0  0
   47.1403    9.7161   21.8401 O   0  0  0  0  0  0  0  0  0  0  0  0
   51.4971    6.1471   20.3266 O   0  0  0  0  0  0  0  0  0  0  0  0
   50.7117    9.6193   19.6762 O   0  0  0  0  0  0  0  0  0  0  0  0
   54.2823    3.1036   20.9768 O   0  0  0  0  0  0  0  0  0  0  0  0
   49.1314   10.6118   21.3951 O   0  0  0  0  0  0  0  0  0  0  0  0
   53.6549    7.0390   16.0058 C   0  0  0  0  0  0  0  0  0  0  0  0
   49.2549    5.5675   17.3553 C   0  0  0  0  0  0  0  0  0  0  0  0
   55.4793    5.0358   16.5689 C   0  0  0  0  0  0  0  0  0  0  0  0
   46.8619    5.6734   18.7509 C   0  0  0  0  0  0  0  0  0  0  0  0
   48.2764    4.5942   17.1361 C   0  0  0  0  0  0  0  0  0  0  0  0
   54.6921    6.7675   15.1076 C   0  0  0  0  0  0  0  0  0  0  0  0
   47.0787    4.6476   17.8340 C   0  0  0  0  0  0  0  0  0  0  0  0
   55.6035    5.7617   15.3880 C   0  0  0  0  0  0  0  0  0  0  0  0
   50.7680    7.0478   18.4477 N   0  0  0  0  0  0  0  0  0  0  0  0
   50.4360    6.9026   19.8153 C   0  0  0  0  0  0  0  0  0  0  0  0
   50.2043    8.0274   17.5919 C   0  0  0  0  0  0  0  0  0  0  0  0
   49.1320    6.5353   20.1833 C   0  0  0  0  0  0  0  0  0  0  0  0
   48.8275    8.3517   17.5924 C   0  0  0  0  0  0  0  0  0  0  0  0
   48.0943    6.3585   19.1103 C   0  0  0  0  0  0  0  0  0  0  0  0
   47.7671    7.6986   18.4584 C   0  0  0  0  0  0  0  0  0  0  0  0
   51.9979    6.3490   17.9996 C   0  0  0  0  0  0  0  0  0  0  0  0
   51.9554    4.8494   18.3384 C   0  0  0  0  0  0  0  0  0  0  0  0
   54.4425    4.5049   17.9724 N   0  0  0  0  0  0  0  0  0  0  0  0
   51.0372    8.7620   16.7144 C   0  0  0  0  0  0  0  0  0  0  0  0
   51.3889    7.0904   20.8296 C   0  0  0  0  0  0  0  0  0  0  0  0
   53.0752    4.0561   17.6533 C   0  0  0  0  0  0  0  0  0  0  0  0
   48.3497    9.3727   16.7356 C   0  0  0  0  0  0  0  0  0  0  0  0
   48.8060    6.3387   21.5348 C   0  0  0  0  0  0  0  0  0  0  0  0
   54.7669    4.3037   19.3897 C   0  0  0  0  0  0  0  0  0  0  0  0
   55.4052    3.7720   17.1431 C   0  0  0  0  0  0  0  0  0  0  0  0
   51.0588    6.8991   22.1735 C   0  0  0  0  0  0  0  0  0  0  0  0
   50.5457    9.7559   15.8640 C   0  0  0  0  0  0  0  0  0  0  0  0
   49.7701    6.5153   22.5249 C   0  0  0  0  0  0  0  0  0  0  0  0
   49.1970   10.0643   15.8751 C   0  0  0  0  0  0  0  0  0  0  0  0
   51.1281    8.8301   19.2962 H   0  0  0  0  0  0  0  0  0  0  0  0
   50.1775    9.6041   20.5514 H   0  0  0  0  0  0  0  0  0  0  0  0
   48.9357    9.9912   18.6410 H   0  0  0  0  0  0  0  0  0  0  0  0
   48.0423    8.6965   19.4366 H   0  0  0  0  0  0  0  0  0  0  0  0
   52.0054    4.9258   18.9987 H   0  0  0  0  0  0  0  0  0  0  0  0
   51.4266    4.7056   17.3760 H   0  0  0  0  0  0  0  0  0  0  0  0
   52.3263    7.1145   16.9018 H   0  0  0  0  0  0  0  0  0  0  0  0
   53.0107    7.0929   18.5056 H   0  0  0  0  0  0  0  0  0  0  0  0
   50.0569    5.3354   15.9722 H   0  0  0  0  0  0  0  0  0  0  0  0
   50.0336    4.1098   20.1030 H   0  0  0  0  0  0  0  0  0  0  0  0
   53.6476    5.1679   16.1921 H   0  0  0  0  0  0  0  0  0  0  0  0
   54.5870    6.5489   16.6668 H   0  0  0  0  0  0  0  0  0  0  0  0
   47.7660    9.6342   16.6849 H   0  0  0  0  0  0  0  0  0  0  0  0
   49.8412    8.4186   22.5185 H   0  0  0  0  0  0  0  0  0  0  0  0
   55.9454    4.9875   19.7076 H   0  0  0  0  0  0  0  0  0  0  0  0
   54.2812    5.5640   19.8882 H   0  0  0  0  0  0  0  0  0  0  0  0
   55.5081    6.5663   19.0778 H   0  0  0  0  0  0  0  0  0  0  0  0
   53.5008    3.4209   18.6514 H   0  0  0  0  0  0  0  0  0  0  0  0
   54.2505    3.0877   17.0810 H   0  0  0  0  0  0  0  0  0  0  0  0
   55.2013    2.9603   18.5470 H   0  0  0  0  0  0  0  0  0  0  0  0
   49.7334    4.1385   22.5471 H   0  0  0  0  0  0  0  0  0  0  0  0
   48.8848    6.3978   14.1372 H   0  0  0  0  0  0  0  0  0  0  0  0
   49.6411    6.3003   23.7624 H   0  0  0  0  0  0  0  0  0  0  0  0
   47.7081    8.5553   14.4822 H   0  0  0  0  0  0  0  0  0  0  0  0
   51.1421    7.5839   16.7701 H   0  0  0  0  0  0  0  0  0  0  0  0
   51.8953    8.6117   17.9570 H   0  0  0  0  0  0  0  0  0  0  0  0
   55.1126    3.7884   18.8578 H   0  0  0  0  0  0  0  0  0  0  0  0
   46.6486    7.6814   20.4636 H   0  0  0  0  0  0  0  0  0  0  0  0
   51.5820    5.5484   21.0977 H   0  0  0  0  0  0  0  0  0  0  0  0
   50.3920   10.2240   20.3784 H   0  0  0  0  0  0  0  0  0  0  0  0
   54.1137    2.6781   21.8443 H   0  0  0  0  0  0  0  0  0  0  0  0
   48.7410   11.1843   22.0962 H   0  0  0  0  0  0  0  0  0  0  0  0
   52.9800    7.8502   15.7401 H   0  0  0  0  0  0  0  0  0  0  0  0
   50.1783    5.4798   16.7887 H   0  0  0  0  0  0  0  0  0  0  0  0
   56.2127    4.2581   16.7775 H   0  0  0  0  0  0  0  0  0  0  0  0
   45.9172    5.6955   19.2900 H   0  0  0  0  0  0  0  0  0  0  0  0
   48.4575    3.7948   16.4236 H   0  0  0  0  0  0  0  0  0  0  0  0
   54.7844    7.3489   14.1938 H   0  0  0  0  0  0  0  0  0  0  0  0
   46.3141    3.8923   17.6677 H   0  0  0  0  0  0  0  0  0  0  0  0
   56.4144    5.5487   14.6959 H   0  0  0  0  0  0  0  0  0  0  0  0
   48.4339    5.6223   18.3715 H   0  0  0  0  0  0  0  0  0  0  0  0
   47.1771    5.9465   19.5497 H   0  0  0  0  0  0  0  0  0  0  0  0
   47.4807    8.4232   19.2344 H   0  0  0  0  0  0  0  0  0  0  0  0
   46.8793    7.5340   17.8323 H   0  0  0  0  0  0  0  0  0  0  0  0
   52.8905    6.8307   18.4172 H   0  0  0  0  0  0  0  0  0  0  0  0
   52.0862    6.4070   16.9062 H   0  0  0  0  0  0  0  0  0  0  0  0
   51.9951    4.6869   19.4212 H   0  0  0  0  0  0  0  0  0  0  0  0
   50.9949    4.4339   18.0056 H   0  0  0  0  0  0  0  0  0  0  0  0
   52.1117    8.5963   16.7025 H   0  0  0  0  0  0  0  0  0  0  0  0
   52.3966    7.4058   20.5799 H   0  0  0  0  0  0  0  0  0  0  0  0
   52.9191    4.1416   16.5697 H   0  0  0  0  0  0  0  0  0  0  0  0
   52.9533    2.9932   17.9002 H   0  0  0  0  0  0  0  0  0  0  0  0
   47.2919    9.6352   16.7410 H   0  0  0  0  0  0  0  0  0  0  0  0
   47.7984    6.0472   21.8198 H   0  0  0  0  0  0  0  0  0  0  0  0
   54.6070    3.2675   19.7083 H   0  0  0  0  0  0  0  0  0  0  0  0
   55.8133    4.5619   19.5841 H   0  0  0  0  0  0  0  0  0  0  0  0
   54.1677    4.9631   20.0256 H   0  0  0  0  0  0  0  0  0  0  0  0
   55.2079    3.9455   16.0788 H   0  0  0  0  0  0  0  0  0  0  0  0
   55.3739    2.6931   17.3281 H   0  0  0  0  0  0  0  0  0  0  0  0
   56.4251    4.1256   17.3303 H   0  0  0  0  0  0  0  0  0  0  0  0
   51.8100    7.0510   22.9429 H   0  0  0  0  0  0  0  0  0  0  0  0
   51.2243   10.2997   15.2122 H   0  0  0  0  0  0  0  0  0  0  0  0
   49.5111    6.3642   23.5693 H   0  0  0  0  0  0  0  0  0  0  0  0
   48.8039   10.8423   15.2275 H   0  0  0  0  0  0  0  0  0  0  0  0
  2  1  1  0
  3  1  1  0
  4  2  2  0
  5  3  2  0
  6  4  1  0
  7  5  1  0
  8  1  1  0
  9  8  1  0
 10 13  1  0
 11  3  1  0
 12  2  1  0
 13  9  1  0
 14  5  1  0
 15  4  1  0
 16 10  1  0
 17 10  1  0
 18 12  2  0
 19 11  2  0
 20 15  2  0
 21 14  2  0
  6  7  1  0
 18 20  1  0
 19 21  1  0
 23 27  2  0
 24 28  1  0
 25 26  1  0
 26 22  2  0
 27 24  1  0
 28 25  1  0
 29 22  1  0
 30 23  1  0
 31 22  1  0
 32 23  1  0
 33 24  2  0
 34 35  1  0
 35 29  2  0
 36 33  1  0
 37 31  2  0
 38 32  2  0
 39 26  1  0
 40 27  1  0
 41 31  1  0
 42 32  1  0
 43 34  1  0
 44 33  1  0
 45 35  1  0
 46 36  1  0
 47 44  2  0
 48 43  2  0
 49 47  1  0
 50 45  2  0
 25 34  2  0
 48 50  1  0
 30 36  2  0
 46 49  2  0
 52 51  1  0
 53 51  1  0
 54 52  2  0
 55 53  2  0
 56 54  1  0
 57 55  1  0
 58 51  1  0
 59 58  1  0
 60 63  1  0
 61 53  1  0
 62 52  1  0
 63 59  1  0
 64 55  1  0
 65 54  1  0
 66 60  1  0
 67 60  1  0
 68 62  2  0
 69 61  2  0
 70 65  2  0
 71 64  2  0
 56 57  1  0
 68 70  1  0
 69 71  1  0
  6 72  1  0
  6 73  1  0
  7 74  1  0
  7 75  1  0
  8 76  1  0
  8 77  1  0
  9 78  1  0
  9 79  1  0
 11 80  1  0
 12 81  1  0
 13 82  1  0
 13 83  1  0
 14 84  1  0
 15 85  1  0
 16 86  1  0
 16 87  1  0
 16 88  1  0
 17 89  1  0
 17 90  1  0
 17 91  1  0
 18 92  1  0
 19 93  1  0
 20 94  1  0
 21 95  1  0
 28 96  1  0
 28 97  1  0
 29 98  1  0
 30 99  1  0
 39100  1  0
 40101  1  0
 41102  1  0
 42103  1  0
 43104  1  0
 44105  1  0
 45106  1  0
 46107  1  0
 47108  1  0
 48109  1  0
 49110  1  0
 50111  1  0
 56112  1  0
 56113  1  0
 57114  1  0
 57115  1  0
 58116  1  0
 58117  1  0
 59118  1  0
 59119  1  0
 61120  1  0
 62121  1  0
 63122  1  0
 63123  1  0
 64124  1  0
 65125  1  0
 66126  1  0
 66127  1  0
 66128  1  0
 67129  1  0
 67130  1  0
 67131  1  0
 68132  1  0
 69133  1  0
 70134  1  0
 71135  1  0
M  END
> <Uni-Dock RESULT> 
ENERGY=   -6.119  LOWER_BOUND=    2.175  UPPER_BOUND=    6.112
INTER + INTRA:          -6.119
INTER:                  -6.119
INTRA:                   0.000
UNBOUND:                 0.000

$$$$

     RDKit          3D

135142  0  0  0  0  0  0  0  0999 V2000
   49.9085    9.2012   19.8517 N   0  0  0  0  0  0  0  0  0  0  0  0
   49.1734    9.1659   21.0626 C   0  0  0  0  0  0  0  0  0  0  0  0
   50.5509    8.1300   19.1798 C   0  0  0  0  0  0  0  0  0  0  0  0
   48.1486    8.2400   21.2951 C   0  0  0  0  0  0  0  0  0  0  0  0
   50.1800    6.7722   19.2998 C   0  0  0  0  0  0  0  0  0  0  0  0
   47.8279    7.2017   20.2612 C   0  0  0  0  0  0  0  0  0  0  0  0
   49.0049    6.2520   20.0993 C   0  0  0  0  0  0  0  0  0  0  0  0
   49.7630   10.4930   19.1313 C   0  0  0  0  0  0  0  0  0  0  0  0
   48.8578   10.3562   17.9015 C   0  0  0  0  0  0  0  0  0  0  0  0
   48.2704   12.8509   17.4539 N   0  0  0  0  0  0  0  0  0  0  0  0
   51.6782    8.4083   18.3671 C   0  0  0  0  0  0  0  0  0  0  0  0
   49.4631   10.0982   22.0781 C   0  0  0  0  0  0  0  0  0  0  0  0
   48.8527   11.5906   16.9851 C   0  0  0  0  0  0  0  0  0  0  0  0
   50.9381    5.7740   18.6384 C   0  0  0  0  0  0  0  0  0  0  0  0
   47.4240    8.2737   22.5004 C   0  0  0  0  0  0  0  0  0  0  0  0
   46.9875   12.7014   18.1310 C   0  0  0  0  0  0  0  0  0  0  0  0
   49.1868   13.7057   18.1942 C   0  0  0  0  0  0  0  0  0  0  0  0
   48.7440   10.1275   23.2751 C   0  0  0  0  0  0  0  0  0  0  0  0
   52.4013    7.4153   17.7012 C   0  0  0  0  0  0  0  0  0  0  0  0
   47.7183    9.2149   23.4837 C   0  0  0  0  0  0  0  0  0  0  0  0
   52.0306    6.0903   17.8390 C   0  0  0  0  0  0  0  0  0  0  0  0
   48.1823   12.2338   19.5877 C   0  0  0  0  0  0  0  0  0  0  0  0
   48.6550    6.3234   21.4195 C   0  0  0  0  0  0  0  0  0  0  0  0
   49.2871    7.8779   19.6373 C   0  0  0  0  0  0  0  0  0  0  0  0
   48.6707   10.1390   18.4050 C   0  0  0  0  0  0  0  0  0  0  0  0
   48.3441   10.8373   19.5888 C   0  0  0  0  0  0  0  0  0  0  0  0
   48.3525    7.0018   20.2328 C   0  0  0  0  0  0  0  0  0  0  0  0
   48.8980    8.6236   18.3659 C   0  0  0  0  0  0  0  0  0  0  0  0
   48.2979   12.9435   18.3905 C   0  0  0  0  0  0  0  0  0  0  0  0
   49.9140    6.5017   22.0054 C   0  0  0  0  0  0  0  0  0  0  0  0
   47.8845   12.9465   20.8530 C   0  0  0  0  0  0  0  0  0  0  0  0
   47.7161    5.4134   22.1239 C   0  0  0  0  0  0  0  0  0  0  0  0
   50.5726    8.0526   20.2392 C   0  0  0  0  0  0  0  0  0  0  0  0
   48.7383   10.8742   17.1698 C   0  0  0  0  0  0  0  0  0  0  0  0
   48.5580   12.2823   17.1869 C   0  0  0  0  0  0  0  0  0  0  0  0
   50.8716    7.3491   21.4329 C   0  0  0  0  0  0  0  0  0  0  0  0
   47.7539   12.4033   21.9381 O   0  0  0  0  0  0  0  0  0  0  0  0
   47.9360    4.8184   23.1629 O   0  0  0  0  0  0  0  0  0  0  0  0
   48.1705   10.1205   20.7457 O   0  0  0  0  0  0  0  0  0  0  0  0
   47.1438    6.8457   19.5979 O   0  0  0  0  0  0  0  0  0  0  0  0
   47.7737   14.2780   20.7199 O   0  0  0  0  0  0  0  0  0  0  0  0
   46.5285    5.2823   21.4990 O   0  0  0  0  0  0  0  0  0  0  0  0
   48.9643   10.2831   15.9016 C   0  0  0  0  0  0  0  0  0  0  0  0
   51.5825    8.8973   19.7188 C   0  0  0  0  0  0  0  0  0  0  0  0
   48.6281   13.0283   15.9972 C   0  0  0  0  0  0  0  0  0  0  0  0
   52.1233    7.5010   22.0519 C   0  0  0  0  0  0  0  0  0  0  0  0
   52.8226    9.0423   20.3465 C   0  0  0  0  0  0  0  0  0  0  0  0
   49.0259   11.0348   14.7238 C   0  0  0  0  0  0  0  0  0  0  0  0
   53.0933    8.3431   21.5136 C   0  0  0  0  0  0  0  0  0  0  0  0
   48.8613   12.4101   14.7723 C   0  0  0  0  0  0  0  0  0  0  0  0
   49.2314    8.7715   19.3572 N   0  0  0  0  0  0  0  0  0  0  0  0
   48.6968    8.8263   20.6660 C   0  0  0  0  0  0  0  0  0  0  0  0
   49.5443    7.5685   18.6755 C   0  0  0  0  0  0  0  0  0  0  0  0
   49.4544    8.3583   21.7511 C   0  0  0  0  0  0  0  0  0  0  0  0
   50.1887    6.4743   19.2984 C   0  0  0  0  0  0  0  0  0  0  0  0
   50.8048    7.7520   21.4898 C   0  0  0  0  0  0  0  0  0  0  0  0
   50.6606    6.4314   20.7393 C   0  0  0  0  0  0  0  0  0  0  0  0
   49.1428   10.0235   18.5658 C   0  0  0  0  0  0  0  0  0  0  0  0
   49.7793   11.2112   19.3073 C   0  0  0  0  0  0  0  0  0  0  0  0
   48.7011   12.9601   17.8183 N   0  0  0  0  0  0  0  0  0  0  0  0
   49.1706    7.4074   17.3198 C   0  0  0  0  0  0  0  0  0  0  0  0
   47.4258    9.3661   20.9215 C   0  0  0  0  0  0  0  0  0  0  0  0
   49.9481   12.4455   18.4124 C   0  0  0  0  0  0  0  0  0  0  0  0
   50.4285    5.2911   18.5585 C   0  0  0  0  0  0  0  0  0  0  0  0
   48.9536    8.4554   23.0592 C   0  0  0  0  0  0  0  0  0  0  0  0
   47.7763   13.4645   18.8405 C   0  0  0  0  0  0  0  0  0  0  0  0
   49.0162   14.0361   16.8724 C   0  0  0  0  0  0  0  0  0  0  0  0
   46.9291    9.4559   22.2242 C   0  0  0  0  0  0  0  0  0  0  0  0
   49.4295    6.2379   16.6004 C   0  0  0  0  0  0  0  0  0  0  0  0
   47.6964    9.0084   23.2930 C   0  0  0  0  0  0  0  0  0  0  0  0
   50.0595    5.1743   17.2218 C   0  0  0  0  0  0  0  0  0  0  0  0
   47.5484    7.6798   19.3130 H   0  0  0  0  0  0  0  0  0  0  0  0
   46.9513    6.6235   20.5803 H   0  0  0  0  0  0  0  0  0  0  0  0
   48.6145    5.3621   19.5883 H   0  0  0  0  0  0  0  0  0  0  0  0
   49.3761    5.9178   21.0778 H   0  0  0  0  0  0  0  0  0  0  0  0
   49.3166   11.2508   19.7853 H   0  0  0  0  0  0  0  0  0  0  0  0
   50.7430   10.9009   18.8583 H   0  0  0  0  0  0  0  0  0  0  0  0
   49.1837    9.5075   17.2887 H   0  0  0  0  0  0  0  0  0  0  0  0
   47.8364   10.1097   18.2178 H   0  0  0  0  0  0  0  0  0  0  0  0
   52.0505    9.4238   18.2650 H   0  0  0  0  0  0  0  0  0  0  0  0
   50.2784   10.8052   21.9417 H   0  0  0  0  0  0  0  0  0  0  0  0
   49.8714   11.7681   16.6141 H   0  0  0  0  0  0  0  0  0  0  0  0
   48.2823   11.3057   16.0889 H   0  0  0  0  0  0  0  0  0  0  0  0
   50.6648    4.7243   18.7449 H   0  0  0  0  0  0  0  0  0  0  0  0
   46.6271    7.5558   22.6812 H   0  0  0  0  0  0  0  0  0  0  0  0
   46.5152   13.6792   18.2737 H   0  0  0  0  0  0  0  0  0  0  0  0
   47.0875   12.2305   19.1151 H   0  0  0  0  0  0  0  0  0  0  0  0
   46.2942   12.1063   17.5270 H   0  0  0  0  0  0  0  0  0  0  0  0
   49.4466   13.3086   19.1770 H   0  0  0  0  0  0  0  0  0  0  0  0
   50.1116   13.8630   17.6311 H   0  0  0  0  0  0  0  0  0  0  0  0
   48.7447   14.6965   18.3427 H   0  0  0  0  0  0  0  0  0  0  0  0
   48.9923   10.8554   24.0412 H   0  0  0  0  0  0  0  0  0  0  0  0
   53.2618    7.6823   17.0947 H   0  0  0  0  0  0  0  0  0  0  0  0
   47.1558    9.2282   24.4127 H   0  0  0  0  0  0  0  0  0  0  0  0
   52.5898    5.3059   17.3395 H   0  0  0  0  0  0  0  0  0  0  0  0
   49.7132    8.4028   17.6620 H   0  0  0  0  0  0  0  0  0  0  0  0
   48.0038    8.1789   17.9083 H   0  0  0  0  0  0  0  0  0  0  0  0
   48.1648   14.0244   18.3893 H   0  0  0  0  0  0  0  0  0  0  0  0
   50.1471    5.9728   22.9298 H   0  0  0  0  0  0  0  0  0  0  0  0
   47.9869   10.7234   21.4960 H   0  0  0  0  0  0  0  0  0  0  0  0
   46.5903    6.2493   20.1446 H   0  0  0  0  0  0  0  0  0  0  0  0
   47.5901   14.6004   21.6279 H   0  0  0  0  0  0  0  0  0  0  0  0
   46.0353    4.6679   22.0914 H   0  0  0  0  0  0  0  0  0  0  0  0
   49.0846    9.2064   15.7996 H   0  0  0  0  0  0  0  0  0  0  0  0
   51.4158    9.4699   18.8101 H   0  0  0  0  0  0  0  0  0  0  0  0
   48.4886   14.1083   16.0131 H   0  0  0  0  0  0  0  0  0  0  0  0
   52.3544    6.9640   22.9694 H   0  0  0  0  0  0  0  0  0  0  0  0
   53.5701    9.7061   19.9223 H   0  0  0  0  0  0  0  0  0  0  0  0
   49.1981   10.5387   13.7720 H   0  0  0  0  0  0  0  0  0  0  0  0
   54.0566    8.4527   22.0064 H   0  0  0  0  0  0  0  0  0  0  0  0
   48.9041   12.9995   13.8597 H   0  0  0  0  0  0  0  0  0  0  0  0
   51.4394    8.4600   20.9428 H   0  0  0  0  0  0  0  0  0  0  0  0
   51.3139    7.5623   22.4432 H   0  0  0  0  0  0  0  0  0  0  0  0
   49.9787    5.7687   21.2917 H   0  0  0  0  0  0  0  0  0  0  0  0
   51.6501    5.9537   20.7527 H   0  0  0  0  0  0  0  0  0  0  0  0
   48.1024   10.2331   18.2886 H   0  0  0  0  0  0  0  0  0  0  0  0
   49.7072    9.9173   17.6294 H   0  0  0  0  0  0  0  0  0  0  0  0
   49.2015   11.4764   20.1995 H   0  0  0  0  0  0  0  0  0  0  0  0
   50.7740   10.9170   19.6679 H   0  0  0  0  0  0  0  0  0  0  0  0
   48.6272    8.1916   16.7984 H   0  0  0  0  0  0  0  0  0  0  0  0
   46.8027    9.7067   20.1011 H   0  0  0  0  0  0  0  0  0  0  0  0
   50.6374   12.1697   17.6033 H   0  0  0  0  0  0  0  0  0  0  0  0
   50.4499   13.2321   18.9913 H   0  0  0  0  0  0  0  0  0  0  0  0
   50.9135    4.4403   19.0371 H   0  0  0  0  0  0  0  0  0  0  0  0
   49.5429    8.0999   23.9007 H   0  0  0  0  0  0  0  0  0  0  0  0
   48.2437   14.2144   19.4885 H   0  0  0  0  0  0  0  0  0  0  0  0
   46.8976   13.9201   18.3715 H   0  0  0  0  0  0  0  0  0  0  0  0
   47.3990   12.6477   19.4640 H   0  0  0  0  0  0  0  0  0  0  0  0
   49.6710   13.6680   16.0740 H   0  0  0  0  0  0  0  0  0  0  0  0
   49.5094   14.8840   17.3594 H   0  0  0  0  0  0  0  0  0  0  0  0
   48.1060   14.3999   16.3831 H   0  0  0  0  0  0  0  0  0  0  0  0
   45.9430    9.8752   22.4003 H   0  0  0  0  0  0  0  0  0  0  0  0
   49.1172    6.1562   15.5627 H   0  0  0  0  0  0  0  0  0  0  0  0
   47.3132    9.0785   24.3073 H   0  0  0  0  0  0  0  0  0  0  0  0
   50.2564    4.2555   16.6774 H   0  0  0  0  0  0  0  0  0  0  0  0
  2  1  1  0
  3  1  1  0
  4  2  2  0
  5  3  2  0
  6  4  1  0
  7  5  1  0
  8  1  1  0
  9  8  1  0
 10 13  1  0
 11  3  1  0
 12  2  1  0
 13  9  1  0
 14  5  1  0
 15  4  1  0
 16 10  1  0
 17 10  1  0
 18 12  2  0
 19 11  2  0
 20 15  2  0
 21 14  2  0
  6  7  1  0
 18 20  1  0
 19 21  1  0
 23 27  2  0
 24 28  1  0
 25 26  1  0
 26 22  2  0
 27 24  1  0
 28 25  1  0
 29 22  1  0
 30 23  1  0
 31 22  1  0
 32 23  1  0
 33 24  2  0
 34 35  1  0
 35 29  2  0
 36 33  1  0
 37 31  2  0
 38 32  2  0
 39 26  1  0
 40 27  1  0
 41 31  1  0
 42 32  1  0
 43 34  1  0
 44 33  1  0
 45 35  1  0
 46 36  1  0
 47 44  2  0
 48 43  2  0
 49 47  1  0
 50 45  2  0
 25 34  2  0
 48 50  1  0
 30 36  2  0
 46 49  2  0
 52 51  1  0
 53 51  1  0
 54 52  2  0
 55 53  2  0
 56 54  1  0
 57 55  1  0
 58 51  1  0
 59 58  1  0
 60 63  1  0
 61 53  1  0
 62 52  1  0
 63 59  1  0
 64 55  1  0
 65 54  1  0
 66 60  1  0
 67 60  1  0
 68 62  2  0
 69 61  2  0
 70 65  2  0
 71 64  2  0
 56 57  1  0
 68 70  1  0
 69 71  1  0
  6 72  1  0
  6 73  1  0
  7 74  1  0
  7 75  1  0
  8 76  1  0
  8 77  1  0
  9 78  1  0
  9 79  1  0
 11 80  1  0
 12 81  1  0
 13 82  1  0
 13 83  1  0
 14 84  1  0
 15 85  1  0
 16 86  1  0
 16 87  1  0
 16 88  1  0
 17 89  1  0
 17 90  1  0
 17 91  1  0
 18 92  1  0
 19 93  1  0
 20 94  1  0
 21 95  1  0
 28 96  1  0
 28 97  1  0
 29 98  1  0
 30 99  1  0
 39100  1  0
 40101  1  0
 41102  1  0
 42103  1  0
 43104  1  0
 44105  1  0
 45106  1  0
 46107  1  0
 47108  1  0
 48109  1  0
 49110  1  0
 50111  1  0
 56112  1  0
 56113  1  0
 57114  1  0
 57115  1  0
 58116  1  0
 58117  1  0
 59118  1  0
 59119  1  0
 61120  1  0
 62121  1  0
 63122  1  0
 63123  1  0
 64124  1  0
 65125  1  0
 66126  1  0
 66127  1  0
 66128  1  0
 67129  1  0
 67130  1  0
 67131  1  0
 68132  1  0
 69133  1  0
 70134  1  0
 71135  1  0
M  END
> <Uni-Dock RESULT> 
ENERGY=   -5.908  LOWER_BOUND=    1.757  UPPER_BOUND=    3.474
INTER + INTRA:          -5.908
INTER:                  -5.908
INTRA:                   0.000
UNBOUND:                 0.000

$$$$

     RDKit          3D

135142  0  0  0  0  0  0  0  0999 V2000
   51.4433    6.0560   18.7983 N   0  0  0  0  0  0  0  0  0  0  0  0
   51.8495    7.2704   18.1916 C   0  0  0  0  0  0  0  0  0  0  0  0
   50.1273    5.6127   19.0871 C   0  0  0  0  0  0  0  0  0  0  0  0
   51.2949    7.7360   16.9927 C   0  0  0  0  0  0  0  0  0  0  0  0
   48.9696    6.0402   18.3997 C   0  0  0  0  0  0  0  0  0  0  0  0
   50.1919    6.9665   16.3287 C   0  0  0  0  0  0  0  0  0  0  0  0
   48.9520    6.9751   17.2096 C   0  0  0  0  0  0  0  0  0  0  0  0
   52.5541    5.0757   18.9167 C   0  0  0  0  0  0  0  0  0  0  0  0
   52.4163    3.9385   17.8978 C   0  0  0  0  0  0  0  0  0  0  0  0
   54.8334    2.9764   17.9173 N   0  0  0  0  0  0  0  0  0  0  0  0
   49.9269    4.7195   20.1691 C   0  0  0  0  0  0  0  0  0  0  0  0
   52.8572    8.0461   18.7975 C   0  0  0  0  0  0  0  0  0  0  0  0
   53.3962    2.7747   18.1193 C   0  0  0  0  0  0  0  0  0  0  0  0
   47.6940    5.5871   18.8193 C   0  0  0  0  0  0  0  0  0  0  0  0
   51.7623    8.9294   16.4130 C   0  0  0  0  0  0  0  0  0  0  0  0
   55.1691    3.7146   16.7053 C   0  0  0  0  0  0  0  0  0  0  0  0
   55.5465    3.4787   19.0826 C   0  0  0  0  0  0  0  0  0  0  0  0
   53.3173    9.2323   18.2211 C   0  0  0  0  0  0  0  0  0  0  0  0
   48.6645    4.2622   20.5558 C   0  0  0  0  0  0  0  0  0  0  0  0
   52.7706    9.6717   17.0226 C   0  0  0  0  0  0  0  0  0  0  0  0
   47.5413    4.6999   19.8785 C   0  0  0  0  0  0  0  0  0  0  0  0
   54.7064    5.1953   17.8722 C   0  0  0  0  0  0  0  0  0  0  0  0
   49.3789    8.2591   17.0109 C   0  0  0  0  0  0  0  0  0  0  0  0
   50.3168    6.1586   17.8476 C   0  0  0  0  0  0  0  0  0  0  0  0
   52.3628    4.4835   17.7090 C   0  0  0  0  0  0  0  0  0  0  0  0
   53.3471    5.4964   17.6776 C   0  0  0  0  0  0  0  0  0  0  0  0
   49.8587    6.9641   16.7814 C   0  0  0  0  0  0  0  0  0  0  0  0
   50.8659    4.7693   17.5439 C   0  0  0  0  0  0  0  0  0  0  0  0
   55.1028    3.8684   18.0525 C   0  0  0  0  0  0  0  0  0  0  0  0
   49.3320    8.7470   18.3223 C   0  0  0  0  0  0  0  0  0  0  0  0
   55.7131    6.2834   17.8797 C   0  0  0  0  0  0  0  0  0  0  0  0
   48.9119    9.1784   15.9418 C   0  0  0  0  0  0  0  0  0  0  0  0
   50.2628    6.6620   19.1852 C   0  0  0  0  0  0  0  0  0  0  0  0
   52.7884    3.1158   17.8460 C   0  0  0  0  0  0  0  0  0  0  0  0
   54.1673    2.8304   18.0274 C   0  0  0  0  0  0  0  0  0  0  0  0
   49.7617    7.9694   19.4057 C   0  0  0  0  0  0  0  0  0  0  0  0
   55.4549    7.4650   17.7164 O   0  0  0  0  0  0  0  0  0  0  0  0
   48.5028   10.3141   16.0992 O   0  0  0  0  0  0  0  0  0  0  0  0
   52.9511    6.7876   17.4359 O   0  0  0  0  0  0  0  0  0  0  0  0
   49.9032    6.4218   15.5194 O   0  0  0  0  0  0  0  0  0  0  0  0
   56.9709    5.8659   18.0950 O   0  0  0  0  0  0  0  0  0  0  0  0
   48.9765    8.6397   14.7075 O   0  0  0  0  0  0  0  0  0  0  0  0
   51.9147    2.0006   17.7996 C   0  0  0  0  0  0  0  0  0  0  0  0
   50.6866    5.9339   20.3230 C   0  0  0  0  0  0  0  0  0  0  0  0
   54.6115    1.5044   18.1737 C   0  0  0  0  0  0  0  0  0  0  0  0
   49.6986    8.4956   20.7065 C   0  0  0  0  0  0  0  0  0  0  0  0
   50.6218    6.4705   21.6117 C   0  0  0  0  0  0  0  0  0  0  0  0
   52.3691    0.6853   17.9403 C   0  0  0  0  0  0  0  0  0  0  0  0
   50.1268    7.7520   21.8036 C   0  0  0  0  0  0  0  0  0  0  0  0
   53.7192    0.4372   18.1314 C   0  0  0  0  0  0  0  0  0  0  0  0
   51.1175    5.6918   17.9928 N   0  0  0  0  0  0  0  0  0  0  0  0
   51.5754    6.9748   17.6109 C   0  0  0  0  0  0  0  0  0  0  0  0
   49.7626    5.2794   17.9301 C   0  0  0  0  0  0  0  0  0  0  0  0
   51.1528    8.1086   18.3224 C   0  0  0  0  0  0  0  0  0  0  0  0
   48.6861    6.1037   18.3331 C   0  0  0  0  0  0  0  0  0  0  0  0
   50.1708    7.9390   19.4477 C   0  0  0  0  0  0  0  0  0  0  0  0
   48.8120    7.5015   18.9086 C   0  0  0  0  0  0  0  0  0  0  0  0
   52.1614    4.6490   18.1496 C   0  0  0  0  0  0  0  0  0  0  0  0
   53.2626    5.0894   19.1288 C   0  0  0  0  0  0  0  0  0  0  0  0
   54.8961    3.2926   18.3930 N   0  0  0  0  0  0  0  0  0  0  0  0
   49.4355    4.0060   17.4058 C   0  0  0  0  0  0  0  0  0  0  0  0
   52.4726    7.1505   16.5449 C   0  0  0  0  0  0  0  0  0  0  0  0
   54.2007    3.9406   19.5197 C   0  0  0  0  0  0  0  0  0  0  0  0
   47.3574    5.6330   18.1996 C   0  0  0  0  0  0  0  0  0  0  0  0
   51.6416    9.3806   17.9836 C   0  0  0  0  0  0  0  0  0  0  0  0
   55.8232    4.2114   17.7218 C   0  0  0  0  0  0  0  0  0  0  0  0
   55.6359    2.1235   18.8805 C   0  0  0  0  0  0  0  0  0  0  0  0
   52.9522    8.4186   16.2077 C   0  0  0  0  0  0  0  0  0  0  0  0
   48.1188    3.5516   17.2960 C   0  0  0  0  0  0  0  0  0  0  0  0
   52.5431    9.5318   16.9322 C   0  0  0  0  0  0  0  0  0  0  0  0
   47.0748    4.3682   17.6927 C   0  0  0  0  0  0  0  0  0  0  0  0
   50.5249    5.9471   16.0928 H   0  0  0  0  0  0  0  0  0  0  0  0
   49.9434    7.4352   15.3679 H   0  0  0  0  0  0  0  0  0  0  0  0
   48.1130    6.6855   16.5633 H   0  0  0  0  0  0  0  0  0  0  0  0
   48.7364    7.9894   17.5727 H   0  0  0  0  0  0  0  0  0  0  0  0
   53.5192    5.5632   18.7365 H   0  0  0  0  0  0  0  0  0  0  0  0
   52.6240    4.6856   19.9386 H   0  0  0  0  0  0  0  0  0  0  0  0
   51.4058    3.5153   17.9428 H   0  0  0  0  0  0  0  0  0  0  0  0
   52.5183    4.3369   16.8806 H   0  0  0  0  0  0  0  0  0  0  0  0
   50.7651    4.3845   20.7736 H   0  0  0  0  0  0  0  0  0  0  0  0
   53.2803    7.7295   19.7482 H   0  0  0  0  0  0  0  0  0  0  0  0
   53.2188    2.3381   19.1117 H   0  0  0  0  0  0  0  0  0  0  0  0
   53.0974    1.9833   17.4163 H   0  0  0  0  0  0  0  0  0  0  0  0
   46.7982    5.9305   18.3020 H   0  0  0  0  0  0  0  0  0  0  0  0
   51.3330    9.2911   15.4813 H   0  0  0  0  0  0  0  0  0  0  0  0
   56.2450    3.6562   16.5087 H   0  0  0  0  0  0  0  0  0  0  0  0
   54.8976    4.7738   16.7732 H   0  0  0  0  0  0  0  0  0  0  0  0
   54.6695    3.2805   15.8327 H   0  0  0  0  0  0  0  0  0  0  0  0
   55.3019    4.5147   19.3229 H   0  0  0  0  0  0  0  0  0  0  0  0
   55.3360    2.8625   19.9619 H   0  0  0  0  0  0  0  0  0  0  0  0
   56.6277    3.4221   18.9189 H   0  0  0  0  0  0  0  0  0  0  0  0
   54.0927    9.8110   18.7131 H   0  0  0  0  0  0  0  0  0  0  0  0
   48.5657    3.5820   21.3968 H   0  0  0  0  0  0  0  0  0  0  0  0
   53.1200   10.5945   16.5687 H   0  0  0  0  0  0  0  0  0  0  0  0
   46.5526    4.3648   20.1749 H   0  0  0  0  0  0  0  0  0  0  0  0
   50.2995    4.1025   18.2098 H   0  0  0  0  0  0  0  0  0  0  0  0
   50.5909    4.4520   16.5288 H   0  0  0  0  0  0  0  0  0  0  0  0
   56.1570    3.6352   18.1956 H   0  0  0  0  0  0  0  0  0  0  0  0
   48.9586    9.7560   18.4986 H   0  0  0  0  0  0  0  0  0  0  0  0
   53.7198    7.3937   17.4788 H   0  0  0  0  0  0  0  0  0  0  0  0
   49.5980    7.1051   14.8863 H   0  0  0  0  0  0  0  0  0  0  0  0
   57.5071    6.6872   18.0819 H   0  0  0  0  0  0  0  0  0  0  0  0
   48.6476    9.3693   14.1320 H   0  0  0  0  0  0  0  0  0  0  0  0
   50.8471    2.1327   17.6359 H   0  0  0  0  0  0  0  0  0  0  0  0
   51.0869    4.9283   20.2232 H   0  0  0  0  0  0  0  0  0  0  0  0
   55.6700    1.2884   18.3119 H   0  0  0  0  0  0  0  0  0  0  0  0
   49.3166    9.4997   20.8781 H   0  0  0  0  0  0  0  0  0  0  0  0
   50.9640    5.8850   22.4601 H   0  0  0  0  0  0  0  0  0  0  0  0
   51.6632   -0.1401   17.8947 H   0  0  0  0  0  0  0  0  0  0  0  0
   50.0748    8.1746   22.8043 H   0  0  0  0  0  0  0  0  0  0  0  0
   54.0790   -0.5832   18.2373 H   0  0  0  0  0  0  0  0  0  0  0  0
   50.5597    7.2282   20.1870 H   0  0  0  0  0  0  0  0  0  0  0  0
   50.0499    8.8922   19.9776 H   0  0  0  0  0  0  0  0  0  0  0  0
   48.4796    8.2093   18.1355 H   0  0  0  0  0  0  0  0  0  0  0  0
   48.1024    7.5843   19.7434 H   0  0  0  0  0  0  0  0  0  0  0  0
   52.5785    4.3694   17.1744 H   0  0  0  0  0  0  0  0  0  0  0  0
   51.7225    3.7393   18.5814 H   0  0  0  0  0  0  0  0  0  0  0  0
   53.8461    5.9217   18.7201 H   0  0  0  0  0  0  0  0  0  0  0  0
   52.7947    5.4704   20.0464 H   0  0  0  0  0  0  0  0  0  0  0  0
   50.2134    3.3450   17.0315 H   0  0  0  0  0  0  0  0  0  0  0  0
   52.7928    6.2980   15.9551 H   0  0  0  0  0  0  0  0  0  0  0  0
   53.5945    3.1877   20.0408 H   0  0  0  0  0  0  0  0  0  0  0  0
   54.9265    4.3151   20.2536 H   0  0  0  0  0  0  0  0  0  0  0  0
   46.5236    6.2689   18.4970 H   0  0  0  0  0  0  0  0  0  0  0  0
   51.3204   10.2581   18.5389 H   0  0  0  0  0  0  0  0  0  0  0  0
   56.5375    4.6626   18.4197 H   0  0  0  0  0  0  0  0  0  0  0  0
   56.3907    3.6854   16.9467 H   0  0  0  0  0  0  0  0  0  0  0  0
   55.2790    5.0116   17.2100 H   0  0  0  0  0  0  0  0  0  0  0  0
   54.9540    1.4024   19.3463 H   0  0  0  0  0  0  0  0  0  0  0  0
   56.4032    2.3952   19.6132 H   0  0  0  0  0  0  0  0  0  0  0  0
   56.1210    1.5987   18.0501 H   0  0  0  0  0  0  0  0  0  0  0  0
   53.6443    8.5333   15.3788 H   0  0  0  0  0  0  0  0  0  0  0  0
   47.9146    2.5686   16.8798 H   0  0  0  0  0  0  0  0  0  0  0  0
   52.9158   10.5190   16.6732 H   0  0  0  0  0  0  0  0  0  0  0  0
   46.0462    4.0317   17.6021 H   0  0  0  0  0  0  0  0  0  0  0  0
  2  1  1  0
  3  1  1  0
  4  2  2  0
  5  3  2  0
  6  4  1  0
  7  5  1  0
  8  1  1  0
  9  8  1  0
 10 13  1  0
 11  3  1  0
 12  2  1  0
 13  9  1  0
 14  5  1  0
 15  4  1  0
 16 10  1  0
 17 10  1  0
 18 12  2  0
 19 11  2  0
 20 15  2  0
 21 14  2  0
  6  7  1  0
 18 20  1  0
 19 21  1  0
 23 27  2  0
 24 28  1  0
 25 26  1  0
 26 22  2  0
 27 24  1  0
 28 25  1  0
 29 22  1  0
 30 23  1  0
 31 22  1  0
 32 23  1  0
 33 24  2  0
 34 35  1  0
 35 29  2  0
 36 33  1  0
 37 31  2  0
 38 32  2  0
 39 26  1  0
 40 27  1  0
 41 31  1  0
 42 32  1  0
 43 34  1  0
 44 33  1  0
 45 35  1  0
 46 36  1  0
 47 44  2  0
 48 43  2  0
 49 47  1  0
 50 45  2  0
 25 34  2  0
 48 50  1  0
 30 36  2  0
 46 49  2  0
 52 51  1  0
 53 51  1  0
 54 52  2  0
 55 53  2  0
 56 54  1  0
 57 55  1  0
 58 51  1  0
 59 58  1  0
 60 63  1  0
 61 53  1  0
 62 52  1  0
 63 59  1  0
 64 55  1  0
 65 54  1  0
 66 60  1  0
 67 60  1  0
 68 62  2  0
 69 61  2  0
 70 65  2  0
 71 64  2  0
 56 57  1  0
 68 70  1  0
 69 71  1  0
  6 72  1  0
  6 73  1  0
  7 74  1  0
  7 75  1  0
  8 76  1  0
  8 77  1  0
  9 78  1  0
  9 79  1  0
 11 80  1  0
 12 81  1  0
 13 82  1  0
 13 83  1  0
 14 84  1  0
 15 85  1  0
 16 86  1  0
 16 87  1  0
 16 88  1  0
 17 89  1  0
 17 90  1  0
 17 91  1  0
 18 92  1  0
 19 93  1  0
 20 94  1  0
 21 95  1  0
 28 96  1  0
 28 97  1  0
 29 98  1  0
 30 99  1  0
 39100  1  0
 40101  1  0
 41102  1  0
 42103  1  0
 43104  1  0
 44105  1  0
 45106  1  0
 46107  1  0
 47108  1  0
 48109  1  0
 49110  1  0
 50111  1  0
 56112  1  0
 56113  1  0
 57114  1  0
 57115  1  0
 58116  1  0
 58117  1  0
 59118  1  0
 59119  1  0
 61120  1  0
 62121  1  0
 63122  1  0
 63123  1  0
 64124  1  0
 65125  1  0
 66126  1  0
 66127  1  0
 66128  1  0
 67129  1  0
 67130  1  0
 67131  1  0
 68132  1  0
 69133  1  0
 70134  1  0
 71135  1  0
M  END
> <Uni-Dock RESULT> 
ENERGY=   -5.818  LOWER_BOUND=    2.710  UPPER_BOUND=    7.166
INTER + INTRA:          -5.818
INTER:                  -5.818
INTRA:                   0.000
UNBOUND:                 0.000

$$$$

     RDKit          3D

135142  0  0  0  0  0  0  0  0999 V2000
   52.5621    5.9287   20.0388 N   0  0  0  0  0  0  0  0  0  0  0  0
   52.7912    6.1155   21.4246 C   0  0  0  0  0  0  0  0  0  0  0  0
   53.4820    5.5144   19.0419 C   0  0  0  0  0  0  0  0  0  0  0  0
   53.4126    5.1469   22.2228 C   0  0  0  0  0  0  0  0  0  0  0  0
   54.6387    4.7425   19.2909 C   0  0  0  0  0  0  0  0  0  0  0  0
   53.9104    3.8738   21.6052 C   0  0  0  0  0  0  0  0  0  0  0  0
   55.0423    4.1771   20.6356 C   0  0  0  0  0  0  0  0  0  0  0  0
   51.1185    5.9666   19.6871 C   0  0  0  0  0  0  0  0  0  0  0  0
   50.5753    4.5674   19.3747 C   0  0  0  0  0  0  0  0  0  0  0  0
   48.0166    4.9812   19.5989 N   0  0  0  0  0  0  0  0  0  0  0  0
   53.2780    5.9346   17.7038 C   0  0  0  0  0  0  0  0  0  0  0  0
   52.3738    7.3107   22.0423 C   0  0  0  0  0  0  0  0  0  0  0  0
   49.1575    4.5625   18.7802 C   0  0  0  0  0  0  0  0  0  0  0  0
   55.5291    4.4455   18.2291 C   0  0  0  0  0  0  0  0  0  0  0  0
   53.5808    5.3676   23.6019 C   0  0  0  0  0  0  0  0  0  0  0  0
   48.0155    4.4306   20.9493 C   0  0  0  0  0  0  0  0  0  0  0  0
   47.7536    6.4127   19.5884 C   0  0  0  0  0  0  0  0  0  0  0  0
   52.5447    7.5284   23.4114 C   0  0  0  0  0  0  0  0  0  0  0  0
   54.1524    5.6131   16.6625 C   0  0  0  0  0  0  0  0  0  0  0  0
   53.1459    6.5509   24.1933 C   0  0  0  0  0  0  0  0  0  0  0  0
   55.2855    4.8660   16.9267 C   0  0  0  0  0  0  0  0  0  0  0  0
   49.2598    5.9000   21.1964 C   0  0  0  0  0  0  0  0  0  0  0  0
   55.3206    4.7387   21.8512 C   0  0  0  0  0  0  0  0  0  0  0  0
   53.5053    4.8043   20.2104 C   0  0  0  0  0  0  0  0  0  0  0  0
   50.8861    4.6390   19.8583 C   0  0  0  0  0  0  0  0  0  0  0  0
   50.5616    5.4078   20.9982 C   0  0  0  0  0  0  0  0  0  0  0  0
   54.2287    4.1312   21.2199 C   0  0  0  0  0  0  0  0  0  0  0  0
   52.3000    4.1170   19.5788 C   0  0  0  0  0  0  0  0  0  0  0  0
   48.2540    5.5871   20.2794 C   0  0  0  0  0  0  0  0  0  0  0  0
   55.7111    6.0228   21.4531 C   0  0  0  0  0  0  0  0  0  0  0  0
   48.9577    6.7425   22.3781 C   0  0  0  0  0  0  0  0  0  0  0  0
   56.1097    4.1114   22.9421 C   0  0  0  0  0  0  0  0  0  0  0  0
   53.9118    6.1145   19.8061 C   0  0  0  0  0  0  0  0  0  0  0  0
   49.8312    4.2820   18.9471 C   0  0  0  0  0  0  0  0  0  0  0  0
   48.5197    4.7771   19.1719 C   0  0  0  0  0  0  0  0  0  0  0  0
   55.0277    6.7128   20.4432 C   0  0  0  0  0  0  0  0  0  0  0  0
   49.7720    7.0515   23.2331 O   0  0  0  0  0  0  0  0  0  0  0  0
   57.0540    4.6120   23.5248 O   0  0  0  0  0  0  0  0  0  0  0  0
   51.5440    5.6542   21.9237 O   0  0  0  0  0  0  0  0  0  0  0  0
   53.8160    2.8624   21.5496 O   0  0  0  0  0  0  0  0  0  0  0  0
   47.6845    7.1643   22.4403 O   0  0  0  0  0  0  0  0  0  0  0  0
   55.6839    2.8740   23.2666 O   0  0  0  0  0  0  0  0  0  0  0  0
   50.0027    3.4410   17.8191 C   0  0  0  0  0  0  0  0  0  0  0  0
   53.2630    6.8697   18.7997 C   0  0  0  0  0  0  0  0  0  0  0  0
   47.4710    4.4530   18.2932 C   0  0  0  0  0  0  0  0  0  0  0  0
   55.4509    8.0000   20.0728 C   0  0  0  0  0  0  0  0  0  0  0  0
   53.6921    8.1509   18.4429 C   0  0  0  0  0  0  0  0  0  0  0  0
   48.9504    3.1206   16.9553 C   0  0  0  0  0  0  0  0  0  0  0  0
   54.7873    8.7161   19.0796 C   0  0  0  0  0  0  0  0  0  0  0  0
   47.6834    3.6306   17.1907 C   0  0  0  0  0  0  0  0  0  0  0  0
   52.5923    4.9889   20.0985 N   0  0  0  0  0  0  0  0  0  0  0  0
   52.8297    5.4097   21.4283 C   0  0  0  0  0  0  0  0  0  0  0  0
   53.5346    4.2856   19.3065 C   0  0  0  0  0  0  0  0  0  0  0  0
   53.8269    6.3614   21.6933 C   0  0  0  0  0  0  0  0  0  0  0  0
   54.9085    4.6189   19.2647 C   0  0  0  0  0  0  0  0  0  0  0  0
   54.6656    6.8744   20.5562 C   0  0  0  0  0  0  0  0  0  0  0  0
   55.5618    5.7660   20.0119 C   0  0  0  0  0  0  0  0  0  0  0  0
   51.1769    5.0073   19.6536 C   0  0  0  0  0  0  0  0  0  0  0  0
   50.5360    6.3911   19.8530 C   0  0  0  0  0  0  0  0  0  0  0  0
   48.1615    5.5371   19.5872 N   0  0  0  0  0  0  0  0  0  0  0  0
   53.1210    3.1675   18.5434 C   0  0  0  0  0  0  0  0  0  0  0  0
   52.0712    4.9191   22.5035 C   0  0  0  0  0  0  0  0  0  0  0  0
   49.1745    6.5182   19.1581 C   0  0  0  0  0  0  0  0  0  0  0  0
   55.7930    3.8399   18.4800 C   0  0  0  0  0  0  0  0  0  0  0  0
   54.0354    6.8233   23.0027 C   0  0  0  0  0  0  0  0  0  0  0  0
   47.7888    5.7168   20.9954 C   0  0  0  0  0  0  0  0  0  0  0  0
   46.9666    5.6665   18.7463 C   0  0  0  0  0  0  0  0  0  0  0  0
   52.2857    5.3774   23.8057 C   0  0  0  0  0  0  0  0  0  0  0  0
   54.0055    2.4195   17.7619 C   0  0  0  0  0  0  0  0  0  0  0  0
   53.2618    6.3352   24.0535 C   0  0  0  0  0  0  0  0  0  0  0  0
   55.3473    2.7553   17.7307 C   0  0  0  0  0  0  0  0  0  0  0  0
   53.0848    3.3348   21.1220 H   0  0  0  0  0  0  0  0  0  0  0  0
   54.2899    3.2079   22.3909 H   0  0  0  0  0  0  0  0  0  0  0  0
   55.5618    3.2257   20.4613 H   0  0  0  0  0  0  0  0  0  0  0  0
   55.7746    4.8591   21.0892 H   0  0  0  0  0  0  0  0  0  0  0  0
   50.5297    6.3695   20.5191 H   0  0  0  0  0  0  0  0  0  0  0  0
   50.9368    6.6568   18.8553 H   0  0  0  0  0  0  0  0  0  0  0  0
   51.2257    4.0664   18.6480 H   0  0  0  0  0  0  0  0  0  0  0  0
   50.6147    3.9438   20.2767 H   0  0  0  0  0  0  0  0  0  0  0  0
   52.4356    6.5700   17.4449 H   0  0  0  0  0  0  0  0  0  0  0  0
   51.9223    8.0969   21.4413 H   0  0  0  0  0  0  0  0  0  0  0  0
   49.1611    5.1225   17.8351 H   0  0  0  0  0  0  0  0  0  0  0  0
   48.9533    3.5241   18.4808 H   0  0  0  0  0  0  0  0  0  0  0  0
   56.4316    3.8660   18.4228 H   0  0  0  0  0  0  0  0  0  0  0  0
   54.0621    4.6152   24.2227 H   0  0  0  0  0  0  0  0  0  0  0  0
   47.0506    4.6123   21.4346 H   0  0  0  0  0  0  0  0  0  0  0  0
   48.7961    4.8704   21.5798 H   0  0  0  0  0  0  0  0  0  0  0  0
   48.1534    3.3443   20.9281 H   0  0  0  0  0  0  0  0  0  0  0  0
   48.5124    6.9934   20.1156 H   0  0  0  0  0  0  0  0  0  0  0  0
   47.6847    6.7873   18.5626 H   0  0  0  0  0  0  0  0  0  0  0  0
   46.7875    6.6241   20.0586 H   0  0  0  0  0  0  0  0  0  0  0  0
   52.2161    8.4611   23.8591 H   0  0  0  0  0  0  0  0  0  0  0  0
   53.9523    5.9656   15.6549 H   0  0  0  0  0  0  0  0  0  0  0  0
   53.2858    6.7128   25.2582 H   0  0  0  0  0  0  0  0  0  0  0  0
   55.9817    4.6193   16.1317 H   0  0  0  0  0  0  0  0  0  0  0  0
   52.4933    4.1704   18.4978 H   0  0  0  0  0  0  0  0  0  0  0  0
   52.2949    3.0432   19.8103 H   0  0  0  0  0  0  0  0  0  0  0  0
   47.2440    5.9624   20.4378 H   0  0  0  0  0  0  0  0  0  0  0  0
   56.5614    6.4942   21.9465 H   0  0  0  0  0  0  0  0  0  0  0  0
   51.2008    6.2270   22.6409 H   0  0  0  0  0  0  0  0  0  0  0  0
   54.3791    2.5436   22.2859 H   0  0  0  0  0  0  0  0  0  0  0  0
   47.6463    7.7078   23.2559 H   0  0  0  0  0  0  0  0  0  0  0  0
   56.2953    2.6154   23.9953 H   0  0  0  0  0  0  0  0  0  0  0  0
   50.9708    2.9985   17.5931 H   0  0  0  0  0  0  0  0  0  0  0  0
   52.3973    6.4721   18.2762 H   0  0  0  0  0  0  0  0  0  0  0  0
   46.4657    4.8335   18.4685 H   0  0  0  0  0  0  0  0  0  0  0  0
   56.3057    8.4623   20.5619 H   0  0  0  0  0  0  0  0  0  0  0  0
   53.1641    8.7038   17.6715 H   0  0  0  0  0  0  0  0  0  0  0  0
   49.1271    2.4685   16.1037 H   0  0  0  0  0  0  0  0  0  0  0  0
   55.1250    9.7131   18.8062 H   0  0  0  0  0  0  0  0  0  0  0  0
   46.8604    3.3818   16.5252 H   0  0  0  0  0  0  0  0  0  0  0  0
   54.0250    7.2970   19.7726 H   0  0  0  0  0  0  0  0  0  0  0  0
   55.2983    7.6989   20.9083 H   0  0  0  0  0  0  0  0  0  0  0  0
   56.1500    5.3335   20.8342 H   0  0  0  0  0  0  0  0  0  0  0  0
   56.2748    6.2470   19.3281 H   0  0  0  0  0  0  0  0  0  0  0  0
   50.6023    4.2213   20.1589 H   0  0  0  0  0  0  0  0  0  0  0  0
   51.1186    4.8022   18.5760 H   0  0  0  0  0  0  0  0  0  0  0  0
   50.4327    6.6299   20.9172 H   0  0  0  0  0  0  0  0  0  0  0  0
   51.2016    7.1579   19.4345 H   0  0  0  0  0  0  0  0  0  0  0  0
   52.0883    2.8288   18.5725 H   0  0  0  0  0  0  0  0  0  0  0  0
   51.3150    4.1592   22.3361 H   0  0  0  0  0  0  0  0  0  0  0  0
   49.3466    6.4000   18.0800 H   0  0  0  0  0  0  0  0  0  0  0  0
   48.8021    7.5412   19.3014 H   0  0  0  0  0  0  0  0  0  0  0  0
   56.8549    4.0847   18.4540 H   0  0  0  0  0  0  0  0  0  0  0  0
   54.8026    7.5658   23.2075 H   0  0  0  0  0  0  0  0  0  0  0  0
   47.4627    6.7406   21.2104 H   0  0  0  0  0  0  0  0  0  0  0  0
   46.9745    5.0363   21.2665 H   0  0  0  0  0  0  0  0  0  0  0  0
   48.6253    5.4685   21.6563 H   0  0  0  0  0  0  0  0  0  0  0  0
   47.2154    5.4909   17.6931 H   0  0  0  0  0  0  0  0  0  0  0  0
   46.5059    6.6563   18.8312 H   0  0  0  0  0  0  0  0  0  0  0  0
   46.2192    4.9127   19.0174 H   0  0  0  0  0  0  0  0  0  0  0  0
   51.6894    4.9842   24.6236 H   0  0  0  0  0  0  0  0  0  0  0  0
   53.6440    1.5636   17.1980 H   0  0  0  0  0  0  0  0  0  0  0  0
   53.4297    6.6946   25.0651 H   0  0  0  0  0  0  0  0  0  0  0  0
   56.0472    2.1754   17.1364 H   0  0  0  0  0  0  0  0  0  0  0  0
  2  1  1  0
  3  1  1  0
  4  2  2  0
  5  3  2  0
  6  4  1  0
  7  5  1  0
  8  1  1  0
  9  8  1  0
 10 13  1  0
 11  3  1  0
 12  2  1  0
 13  9  1  0
 14  5  1  0
 15  4  1  0
 16 10  1  0
 17 10  1  0
 18 12  2  0
 19 11  2  0
 20 15  2  0
 21 14  2  0
  6  7  1  0
 18 20  1  0
 19 21  1  0
 23 27  2  0
 24 28  1  0
 25 26  1  0
 26 22  2  0
 27 24  1  0
 28 25  1  0
 29 22  1  0
 30 23  1  0
 31 22  1  0
 32 23  1  0
 33 24  2  0
 34 35  1  0
 35 29  2  0
 36 33  1  0
 37 31  2  0
 38 32  2  0
 39 26  1  0
 40 27  1  0
 41 31  1  0
 42 32  1  0
 43 34  1  0
 44 33  1  0
 45 35  1  0
 46 36  1  0
 47 44  2  0
 48 43  2  0
 49 47  1  0
 50 45  2  0
 25 34  2  0
 48 50  1  0
 30 36  2  0
 46 49  2  0
 52 51  1  0
 53 51  1  0
 54 52  2  0
 55 53  2  0
 56 54  1  0
 57 55  1  0
 58 51  1  0
 59 58  1  0
 60 63  1  0
 61 53  1  0
 62 52  1  0
 63 59  1  0
 64 55  1  0
 65 54  1  0
 66 60  1  0
 67 60  1  0
 68 62  2  0
 69 61  2  0
 70 65  2  0
 71 64  2  0
 56 57  1  0
 68 70  1  0
 69 71  1  0
  6 72  1  0
  6 73  1  0
  7 74  1  0
  7 75  1  0
  8 76  1  0
  8 77  1  0
  9 78  1  0
  9 79  1  0
 11 80  1  0
 12 81  1  0
 13 82  1  0
 13 83  1  0
 14 84  1  0
 15 85  1  0
 16 86  1  0
 16 87  1  0
 16 88  1  0
 17 89  1  0
 17 90  1  0
 17 91  1  0
 18 92  1  0
 19 93  1  0
 20 94  1  0
 21 95  1  0
 28 96  1  0
 28 97  1  0
 29 98  1  0
 30 99  1  0
 39100  1  0
 40101  1  0
 41102  1  0
 42103  1  0
 43104  1  0
 44105  1  0
 45106  1  0
 46107  1  0
 47108  1  0
 48109  1  0
 49110  1  0
 50111  1  0
 56112  1  0
 56113  1  0
 57114  1  0
 57115  1  0
 58116  1  0
 58117  1  0
 59118  1  0
 59119  1  0
 61120  1  0
 62121  1  0
 63122  1  0
 63123  1  0
 64124  1  0
 65125  1  0
 66126  1  0
 66127  1  0
 66128  1  0
 67129  1  0
 67130  1  0
 67131  1  0
 68132  1  0
 69133  1  0
 70134  1  0
 71135  1  0
M  END
> <Uni-Dock RESULT> 
ENERGY=   -5.814  LOWER_BOUND=    3.434  UPPER_BOUND=    5.753
INTER + INTRA:          -5.814
INTER:                  -5.814
INTRA:                   0.000
UNBOUND:                 0.000

$$$$

     RDKit          3D

135142  0  0  0  0  0  0  0  0999 V2000
   50.2270    9.3047   19.2688 N   0  0  0  0  0  0  0  0  0  0  0  0
   50.6319    8.6672   18.0698 C   0  0  0  0  0  0  0  0  0  0  0  0
   49.6397   10.5856   19.4304 C   0  0  0  0  0  0  0  0  0  0  0  0
   49.7942    8.5626   16.9522 C   0  0  0  0  0  0  0  0  0  0  0  0
   48.8973   11.2575   18.4339 C   0  0  0  0  0  0  0  0  0  0  0  0
   48.4289    9.1832   16.9783 C   0  0  0  0  0  0  0  0  0  0  0  0
   48.5502   10.6965   17.0718 C   0  0  0  0  0  0  0  0  0  0  0  0
   50.2339    8.3852   20.4364 C   0  0  0  0  0  0  0  0  0  0  0  0
   48.8127    7.9867   20.8513 C   0  0  0  0  0  0  0  0  0  0  0  0
   49.3043    5.8832   22.3011 N   0  0  0  0  0  0  0  0  0  0  0  0
   49.8410   11.2832   20.6475 C   0  0  0  0  0  0  0  0  0  0  0  0
   51.9189    8.1008   17.9850 C   0  0  0  0  0  0  0  0  0  0  0  0
   48.7375    7.2296   22.1873 C   0  0  0  0  0  0  0  0  0  0  0  0
   48.4158   12.5679   18.6780 C   0  0  0  0  0  0  0  0  0  0  0  0
   50.2325    7.8850   15.7999 C   0  0  0  0  0  0  0  0  0  0  0  0
   48.9801    5.0017   21.1855 C   0  0  0  0  0  0  0  0  0  0  0  0
   50.7197    5.8459   22.6382 C   0  0  0  0  0  0  0  0  0  0  0  0
   52.3525    7.4312   16.8386 C   0  0  0  0  0  0  0  0  0  0  0  0
   49.3390   12.5658   20.8827 C   0  0  0  0  0  0  0  0  0  0  0  0
   51.5039    7.3195   15.7451 C   0  0  0  0  0  0  0  0  0  0  0  0
   48.6239   13.2128   19.8918 C   0  0  0  0  0  0  0  0  0  0  0  0
   50.4470    5.9997   20.3978 C   0  0  0  0  0  0  0  0  0  0  0  0
   49.2962   10.2436   16.0188 C   0  0  0  0  0  0  0  0  0  0  0  0
   49.1282    9.8151   18.4230 C   0  0  0  0  0  0  0  0  0  0  0  0
   48.9561    7.9468   20.2914 C   0  0  0  0  0  0  0  0  0  0  0  0
   49.9054    7.0888   19.6929 C   0  0  0  0  0  0  0  0  0  0  0  0
   48.6145    9.6966   17.1124 C   0  0  0  0  0  0  0  0  0  0  0  0
   48.3698    9.1699   19.5773 C   0  0  0  0  0  0  0  0  0  0  0  0
   50.0080    5.7273   21.6953 C   0  0  0  0  0  0  0  0  0  0  0  0
   50.4914   10.9388   16.2381 C   0  0  0  0  0  0  0  0  0  0  0  0
   51.4753    5.1423   19.7615 C   0  0  0  0  0  0  0  0  0  0  0  0
   48.8398   10.1328   14.6097 C   0  0  0  0  0  0  0  0  0  0  0  0
   50.3479   10.5297   18.6403 C   0  0  0  0  0  0  0  0  0  0  0  0
   48.4754    7.6272   21.6095 C   0  0  0  0  0  0  0  0  0  0  0  0
   49.0244    6.5147   22.3000 C   0  0  0  0  0  0  0  0  0  0  0  0
   51.0210   11.0910   17.5263 C   0  0  0  0  0  0  0  0  0  0  0  0
   51.9039    5.3011   18.6299 O   0  0  0  0  0  0  0  0  0  0  0  0
   49.4109   10.5807   13.6324 O   0  0  0  0  0  0  0  0  0  0  0  0
   50.2806    7.3300   18.3955 O   0  0  0  0  0  0  0  0  0  0  0  0
   47.4239    9.0271   16.9618 O   0  0  0  0  0  0  0  0  0  0  0  0
   51.9250    4.1502   20.5465 O   0  0  0  0  0  0  0  0  0  0  0  0
   47.6794    9.4596   14.4749 O   0  0  0  0  0  0  0  0  0  0  0  0
   47.4597    8.3493   22.2846 C   0  0  0  0  0  0  0  0  0  0  0  0
   50.9416   10.7145   19.9121 C   0  0  0  0  0  0  0  0  0  0  0  0
   48.5814    6.1839   23.5928 C   0  0  0  0  0  0  0  0  0  0  0  0
   52.2230   11.7956   17.7043 C   0  0  0  0  0  0  0  0  0  0  0  0
   52.1399   11.4148   20.0751 C   0  0  0  0  0  0  0  0  0  0  0  0
   47.0228    8.0071   23.5684 C   0  0  0  0  0  0  0  0  0  0  0  0
   52.7807   11.9563   18.9703 C   0  0  0  0  0  0  0  0  0  0  0  0
   47.5874    6.9249   24.2250 C   0  0  0  0  0  0  0  0  0  0  0  0
   49.3089    9.1850   19.0941 N   0  0  0  0  0  0  0  0  0  0  0  0
   49.9353    8.6146   17.9610 C   0  0  0  0  0  0  0  0  0  0  0  0
   48.4693   10.3264   19.0486 C   0  0  0  0  0  0  0  0  0  0  0  0
   50.8990    9.3482   17.2512 C   0  0  0  0  0  0  0  0  0  0  0  0
   48.7661   11.4718   18.2737 C   0  0  0  0  0  0  0  0  0  0  0  0
   51.2053   10.7558   17.6802 C   0  0  0  0  0  0  0  0  0  0  0  0
   50.0071   11.6647   17.4230 C   0  0  0  0  0  0  0  0  0  0  0  0
   49.2809    8.3418   20.3147 C   0  0  0  0  0  0  0  0  0  0  0  0
   50.6903    7.8744   20.7155 C   0  0  0  0  0  0  0  0  0  0  0  0
   49.8482    6.0679   22.2858 N   0  0  0  0  0  0  0  0  0  0  0  0
   47.2501   10.3352   19.7675 C   0  0  0  0  0  0  0  0  0  0  0  0
   49.6396    7.3101   17.5333 C   0  0  0  0  0  0  0  0  0  0  0  0
   50.7280    7.2376   22.1104 C   0  0  0  0  0  0  0  0  0  0  0  0
   47.8542   12.5547   18.2494 C   0  0  0  0  0  0  0  0  0  0  0  0
   51.5632    8.7722   16.1564 C   0  0  0  0  0  0  0  0  0  0  0  0
   50.2606    4.9420   21.4392 C   0  0  0  0  0  0  0  0  0  0  0  0
   49.8614    5.6509   23.6921 C   0  0  0  0  0  0  0  0  0  0  0  0
   50.2990    6.7428   16.4401 C   0  0  0  0  0  0  0  0  0  0  0  0
   46.3692   11.4196   19.7444 C   0  0  0  0  0  0  0  0  0  0  0  0
   51.2663    7.4707   15.7574 C   0  0  0  0  0  0  0  0  0  0  0  0
   46.6707   12.5335   18.9813 C   0  0  0  0  0  0  0  0  0  0  0  0
   47.8339    8.7641   17.8004 H   0  0  0  0  0  0  0  0  0  0  0  0
   47.8924    8.9302   16.0548 H   0  0  0  0  0  0  0  0  0  0  0  0
   47.5737   11.1025   16.7767 H   0  0  0  0  0  0  0  0  0  0  0  0
   49.2831   11.0763   16.3468 H   0  0  0  0  0  0  0  0  0  0  0  0
   50.7771    7.4635   20.1979 H   0  0  0  0  0  0  0  0  0  0  0  0
   50.7833    8.8246   21.2768 H   0  0  0  0  0  0  0  0  0  0  0  0
   48.1886    8.8818   20.9584 H   0  0  0  0  0  0  0  0  0  0  0  0
   48.3431    7.4003   20.0516 H   0  0  0  0  0  0  0  0  0  0  0  0
   50.4413   10.8492   21.4423 H   0  0  0  0  0  0  0  0  0  0  0  0
   52.6053    8.1991   18.8230 H   0  0  0  0  0  0  0  0  0  0  0  0
   49.1366    7.8688   22.9866 H   0  0  0  0  0  0  0  0  0  0  0  0
   47.6682    7.1316   22.4252 H   0  0  0  0  0  0  0  0  0  0  0  0
   47.8589   13.0952   17.9036 H   0  0  0  0  0  0  0  0  0  0  0  0
   49.5821    7.8022   14.9321 H   0  0  0  0  0  0  0  0  0  0  0  0
   49.2558    3.9686   21.4230 H   0  0  0  0  0  0  0  0  0  0  0  0
   49.5019    5.2848   20.2648 H   0  0  0  0  0  0  0  0  0  0  0  0
   47.9024    4.9990   20.9904 H   0  0  0  0  0  0  0  0  0  0  0  0
   51.3642    6.1905   21.8277 H   0  0  0  0  0  0  0  0  0  0  0  0
   50.9242    6.4556   23.5235 H   0  0  0  0  0  0  0  0  0  0  0  0
   51.0223    4.8245   22.8916 H   0  0  0  0  0  0  0  0  0  0  0  0
   53.3513    7.0078   16.8010 H   0  0  0  0  0  0  0  0  0  0  0  0
   49.5270   13.0587   21.8321 H   0  0  0  0  0  0  0  0  0  0  0  0
   51.8337    6.8032   14.8482 H   0  0  0  0  0  0  0  0  0  0  0  0
   48.2388   14.2144   20.0535 H   0  0  0  0  0  0  0  0  0  0  0  0
   48.2437    9.9829   20.3067 H   0  0  0  0  0  0  0  0  0  0  0  0
   47.3480    8.9031   19.2750 H   0  0  0  0  0  0  0  0  0  0  0  0
   50.4225    4.8787   22.2378 H   0  0  0  0  0  0  0  0  0  0  0  0
   51.0208   11.3635   15.3849 H   0  0  0  0  0  0  0  0  0  0  0  0
   50.9682    6.6908   18.1149 H   0  0  0  0  0  0  0  0  0  0  0  0
   47.2184    8.9881   16.0042 H   0  0  0  0  0  0  0  0  0  0  0  0
   52.5942    3.6882   19.9981 H   0  0  0  0  0  0  0  0  0  0  0  0
   47.5312    9.4703   13.5004 H   0  0  0  0  0  0  0  0  0  0  0  0
   46.9687    9.1981   21.8127 H   0  0  0  0  0  0  0  0  0  0  0  0
   50.4804   10.3044   20.8068 H   0  0  0  0  0  0  0  0  0  0  0  0
   49.0037    5.3295   24.1198 H   0  0  0  0  0  0  0  0  0  0  0  0
   52.7428   12.2254   16.8506 H   0  0  0  0  0  0  0  0  0  0  0  0
   52.5699   11.5293   21.0657 H   0  0  0  0  0  0  0  0  0  0  0  0
   46.2381    8.5876   24.0470 H   0  0  0  0  0  0  0  0  0  0  0  0
   53.7138   12.5016   19.0916 H   0  0  0  0  0  0  0  0  0  0  0  0
   47.2491    6.6515   25.2214 H   0  0  0  0  0  0  0  0  0  0  0  0
   51.5070   10.7742   18.7346 H   0  0  0  0  0  0  0  0  0  0  0  0
   52.0642   11.1350   17.1122 H   0  0  0  0  0  0  0  0  0  0  0  0
   49.7029   11.5806   16.3696 H   0  0  0  0  0  0  0  0  0  0  0  0
   50.3577   12.6953   17.5725 H   0  0  0  0  0  0  0  0  0  0  0  0
   48.5979    7.4936   20.1834 H   0  0  0  0  0  0  0  0  0  0  0  0
   48.9049    8.9251   21.1663 H   0  0  0  0  0  0  0  0  0  0  0  0
   51.1004    7.1758   19.9779 H   0  0  0  0  0  0  0  0  0  0  0  0
   51.3667    8.7396   20.7209 H   0  0  0  0  0  0  0  0  0  0  0  0
   46.9396    9.4656   20.3415 H   0  0  0  0  0  0  0  0  0  0  0  0
   48.8766    6.7293   18.0409 H   0  0  0  0  0  0  0  0  0  0  0  0
   50.4333    8.0124   22.8305 H   0  0  0  0  0  0  0  0  0  0  0  0
   51.7673    6.9743   22.3475 H   0  0  0  0  0  0  0  0  0  0  0  0
   48.0720   13.4346   17.6441 H   0  0  0  0  0  0  0  0  0  0  0  0
   52.3149    9.3371   15.6109 H   0  0  0  0  0  0  0  0  0  0  0  0
   51.3116    4.6719   21.5919 H   0  0  0  0  0  0  0  0  0  0  0  0
   49.6482    4.0589   21.6502 H   0  0  0  0  0  0  0  0  0  0  0  0
   50.1075    5.1722   20.3801 H   0  0  0  0  0  0  0  0  0  0  0  0
   49.5128    6.4646   24.3388 H   0  0  0  0  0  0  0  0  0  0  0  0
   50.8602    5.3497   24.0251 H   0  0  0  0  0  0  0  0  0  0  0  0
   49.1754    4.8121   23.8533 H   0  0  0  0  0  0  0  0  0  0  0  0
   50.0546    5.7330   16.1244 H   0  0  0  0  0  0  0  0  0  0  0  0
   45.4399   11.3787   20.3065 H   0  0  0  0  0  0  0  0  0  0  0  0
   51.7818    7.0314   14.9079 H   0  0  0  0  0  0  0  0  0  0  0  0
   45.9894   13.3784   18.9455 H   0  0  0  0  0  0  0  0  0  0  0  0
  2  1  1  0
  3  1  1  0
  4  2  2  0
  5  3  2  0
  6  4  1  0
  7  5  1  0
  8  1  1  0
  9  8  1  0
 10 13  1  0
 11  3  1  0
 12  2  1  0
 13  9  1  0
 14  5  1  0
 15  4  1  0
 16 10  1  0
 17 10  1  0
 18 12  2  0
 19 11  2  0
 20 15  2  0
 21 14  2  0
  6  7  1  0
 18 20  1  0
 19 21  1  0
 23 27  2  0
 24 28  1  0
 25 26  1  0
 26 22  2  0
 27 24  1  0
 28 25  1  0
 29 22  1  0
 30 23  1  0
 31 22  1  0
 32 23  1  0
 33 24  2  0
 34 35  1  0
 35 29  2  0
 36 33  1  0
 37 31  2  0
 38 32  2  0
 39 26  1  0
 40 27  1  0
 41 31  1  0
 42 32  1  0
 43 34  1  0
 44 33  1  0
 45 35  1  0
 46 36  1  0
 47 44  2  0
 48 43  2  0
 49 47  1  0
 50 45  2  0
 25 34  2  0
 48 50  1  0
 30 36  2  0
 46 49  2  0
 52 51  1  0
 53 51  1  0
 54 52  2  0
 55 53  2  0
 56 54  1  0
 57 55  1  0
 58 51  1  0
 59 58  1  0
 60 63  1  0
 61 53  1  0
 62 52  1  0
 63 59  1  0
 64 55  1  0
 65 54  1  0
 66 60  1  0
 67 60  1  0
 68 62  2  0
 69 61  2  0
 70 65  2  0
 71 64  2  0
 56 57  1  0
 68 70  1  0
 69 71  1  0
  6 72  1  0
  6 73  1  0
  7 74  1  0
  7 75  1  0
  8 76  1  0
  8 77  1  0
  9 78  1  0
  9 79  1  0
 11 80  1  0
 12 81  1  0
 13 82  1  0
 13 83  1  0
 14 84  1  0
 15 85  1  0
 16 86  1  0
 16 87  1  0
 16 88  1  0
 17 89  1  0
 17 90  1  0
 17 91  1  0
 18 92  1  0
 19 93  1  0
 20 94  1  0
 21 95  1  0
 28 96  1  0
 28 97  1  0
 29 98  1  0
 30 99  1  0
 39100  1  0
 40101  1  0
 41102  1  0
 42103  1  0
 43104  1  0
 44105  1  0
 45106  1  0
 46107  1  0
 47108  1  0
 48109  1  0
 49110  1  0
 50111  1  0
 56112  1  0
 56113  1  0
 57114  1  0
 57115  1  0
 58116  1  0
 58117  1  0
 59118  1  0
 59119  1  0
 61120  1  0
 62121  1  0
 63122  1  0
 63123  1  0
 64124  1  0
 65125  1  0
 66126  1  0
 66127  1  0
 66128  1  0
 67129  1  0
 67130  1  0
 67131  1  0
 68132  1  0
 69133  1  0
 70134  1  0
 71135  1  0
M  END
> <Uni-Dock RESULT> 
ENERGY=   -5.778  LOWER_BOUND=    1.892  UPPER_BOUND=    5.259
INTER + INTRA:          -5.778
INTER:                  -5.778
INTRA:                   0.000
UNBOUND:                 0.000

$$$$

     RDKit          3D

135142  0  0  0  0  0  0  0  0999 V2000
   49.5407   10.7660   14.0603 N   0  0  0  0  0  0  0  0  0  0  0  0
   50.8325   11.1920   13.6632 C   0  0  0  0  0  0  0  0  0  0  0  0
   48.7565    9.7134   13.5232 C   0  0  0  0  0  0  0  0  0  0  0  0
   51.9044   10.3037   13.5090 C   0  0  0  0  0  0  0  0  0  0  0  0
   49.2807    8.5883   12.8486 C   0  0  0  0  0  0  0  0  0  0  0  0
   51.6948    8.8331   13.7167 C   0  0  0  0  0  0  0  0  0  0  0  0
   50.7517    8.2898   12.6542 C   0  0  0  0  0  0  0  0  0  0  0  0
   49.1028   11.3828   15.3397 C   0  0  0  0  0  0  0  0  0  0  0  0
   49.1557   10.3804   16.4985 C   0  0  0  0  0  0  0  0  0  0  0  0
   49.0967   11.9951   18.5375 N   0  0  0  0  0  0  0  0  0  0  0  0
   47.3444    9.7977   13.6097 C   0  0  0  0  0  0  0  0  0  0  0  0
   51.0688   12.5594   13.4214 C   0  0  0  0  0  0  0  0  0  0  0  0
   48.4984   10.8831   17.7942 C   0  0  0  0  0  0  0  0  0  0  0  0
   48.4000    7.6302   12.2874 C   0  0  0  0  0  0  0  0  0  0  0  0
   53.1766   10.7850   13.1502 C   0  0  0  0  0  0  0  0  0  0  0  0
   50.5438   11.9014   18.6917 C   0  0  0  0  0  0  0  0  0  0  0  0
   48.6748   13.3169   18.0979 C   0  0  0  0  0  0  0  0  0  0  0  0
   52.3324   13.0341   13.0623 C   0  0  0  0  0  0  0  0  0  0  0  0
   46.4890    8.8323   13.0724 C   0  0  0  0  0  0  0  0  0  0  0  0
   53.3899   12.1436   12.9313 C   0  0  0  0  0  0  0  0  0  0  0  0
   47.0195    7.7432   12.4058 C   0  0  0  0  0  0  0  0  0  0  0  0
   50.4527   12.6143   16.8884 C   0  0  0  0  0  0  0  0  0  0  0  0
   51.7799    8.9605   12.0512 C   0  0  0  0  0  0  0  0  0  0  0  0
   50.0747    9.4249   13.7450 C   0  0  0  0  0  0  0  0  0  0  0  0
   49.6192   10.4255   16.1538 C   0  0  0  0  0  0  0  0  0  0  0  0
   50.4798   11.5337   15.9897 C   0  0  0  0  0  0  0  0  0  0  0  0
   51.2740    8.7940   13.3460 C   0  0  0  0  0  0  0  0  0  0  0  0
   49.5836    9.2448   15.1769 C   0  0  0  0  0  0  0  0  0  0  0  0
   49.5968   12.5765   17.9914 C   0  0  0  0  0  0  0  0  0  0  0  0
   51.0678    9.7450   11.1361 C   0  0  0  0  0  0  0  0  0  0  0  0
   51.3345   13.7851   16.6668 C   0  0  0  0  0  0  0  0  0  0  0  0
   53.0486    8.3592   11.5665 C   0  0  0  0  0  0  0  0  0  0  0  0
   49.3506   10.2221   12.8040 C   0  0  0  0  0  0  0  0  0  0  0  0
   48.7780   10.3754   17.3202 C   0  0  0  0  0  0  0  0  0  0  0  0
   48.7749   11.4704   18.2240 C   0  0  0  0  0  0  0  0  0  0  0  0
   49.8660   10.3711   11.4921 C   0  0  0  0  0  0  0  0  0  0  0  0
   52.1200   13.8931   15.7390 O   0  0  0  0  0  0  0  0  0  0  0  0
   53.5282    8.4924   10.4556 O   0  0  0  0  0  0  0  0  0  0  0  0
   51.3607   11.5291   14.9379 O   0  0  0  0  0  0  0  0  0  0  0  0
   51.9148    8.0142   14.2786 O   0  0  0  0  0  0  0  0  0  0  0  0
   51.1982   14.7563   17.5839 O   0  0  0  0  0  0  0  0  0  0  0  0
   53.6750    7.6104   12.4965 O   0  0  0  0  0  0  0  0  0  0  0  0
   47.9391    9.2821   17.6518 C   0  0  0  0  0  0  0  0  0  0  0  0
   48.1362   10.8875   13.0987 C   0  0  0  0  0  0  0  0  0  0  0  0
   47.9562   11.4539   19.3670 C   0  0  0  0  0  0  0  0  0  0  0  0
   49.1817   11.1503   10.5447 C   0  0  0  0  0  0  0  0  0  0  0  0
   47.4670   11.6627   12.1478 C   0  0  0  0  0  0  0  0  0  0  0  0
   47.1334    9.2745   18.7951 C   0  0  0  0  0  0  0  0  0  0  0  0
   47.9899   11.7936   10.8697 C   0  0  0  0  0  0  0  0  0  0  0  0
   47.1393   10.3638   19.6520 C   0  0  0  0  0  0  0  0  0  0  0  0
   49.8594    9.9798   14.4701 N   0  0  0  0  0  0  0  0  0  0  0  0
   51.0334   10.5828   13.9604 C   0  0  0  0  0  0  0  0  0  0  0  0
   49.3529    8.7299   14.0330 C   0  0  0  0  0  0  0  0  0  0  0  0
   51.0870   10.9829   12.6159 C   0  0  0  0  0  0  0  0  0  0  0  0
   49.3066    8.3502   12.6713 C   0  0  0  0  0  0  0  0  0  0  0  0
   49.9071   10.7082   11.7260 C   0  0  0  0  0  0  0  0  0  0  0  0
   49.7471    9.2077   11.5002 C   0  0  0  0  0  0  0  0  0  0  0  0
   49.3393   10.5416   15.7412 C   0  0  0  0  0  0  0  0  0  0  0  0
   49.1083   12.0588   15.6399 C   0  0  0  0  0  0  0  0  0  0  0  0
   48.9410   12.3898   18.1501 N   0  0  0  0  0  0  0  0  0  0  0  0
   48.9040    7.7794   14.9809 C   0  0  0  0  0  0  0  0  0  0  0  0
   52.1528   10.8217   14.7740 C   0  0  0  0  0  0  0  0  0  0  0  0
   48.3218   12.6183   16.8320 C   0  0  0  0  0  0  0  0  0  0  0  0
   48.8243    7.0661   12.3199 C   0  0  0  0  0  0  0  0  0  0  0  0
   52.2283   11.6285   12.1138 C   0  0  0  0  0  0  0  0  0  0  0  0
   50.2187   13.0997   18.2840 C   0  0  0  0  0  0  0  0  0  0  0  0
   48.0241   12.8329   19.2059 C   0  0  0  0  0  0  0  0  0  0  0  0
   53.2885   11.4594   14.2688 C   0  0  0  0  0  0  0  0  0  0  0  0
   48.4163    6.5222   14.6148 C   0  0  0  0  0  0  0  0  0  0  0  0
   53.3226   11.8700   12.9415 C   0  0  0  0  0  0  0  0  0  0  0  0
   48.3774    6.1625   13.2794 C   0  0  0  0  0  0  0  0  0  0  0  0
   51.3287    8.6388   14.7335 H   0  0  0  0  0  0  0  0  0  0  0  0
   52.6558    8.3095   13.6342 H   0  0  0  0  0  0  0  0  0  0  0  0
   50.8797    7.1994   12.6573 H   0  0  0  0  0  0  0  0  0  0  0  0
   51.0441    8.6399   11.6547 H   0  0  0  0  0  0  0  0  0  0  0  0
   49.7528   12.2250   15.6038 H   0  0  0  0  0  0  0  0  0  0  0  0
   48.1031   11.8210   15.2404 H   0  0  0  0  0  0  0  0  0  0  0  0
   48.6377    9.4556   16.2181 H   0  0  0  0  0  0  0  0  0  0  0  0
   50.1955   10.0843   16.6863 H   0  0  0  0  0  0  0  0  0  0  0  0
   46.8680   10.6574   14.0726 H   0  0  0  0  0  0  0  0  0  0  0  0
   50.2471   13.2681   13.4964 H   0  0  0  0  0  0  0  0  0  0  0  0
   47.4375   11.0937   17.6018 H   0  0  0  0  0  0  0  0  0  0  0  0
   48.4853   10.0268   18.4844 H   0  0  0  0  0  0  0  0  0  0  0  0
   48.8021    6.7713   11.7504 H   0  0  0  0  0  0  0  0  0  0  0  0
   54.0098   10.0959   13.0315 H   0  0  0  0  0  0  0  0  0  0  0  0
   50.8989   12.6409   19.4174 H   0  0  0  0  0  0  0  0  0  0  0  0
   51.0758   12.0738   17.7496 H   0  0  0  0  0  0  0  0  0  0  0  0
   50.8321   10.9195   19.0819 H   0  0  0  0  0  0  0  0  0  0  0  0
   49.0675   13.5897   17.1169 H   0  0  0  0  0  0  0  0  0  0  0  0
   47.5833   13.3844   18.0626 H   0  0  0  0  0  0  0  0  0  0  0  0
   49.0071   14.0779   18.8119 H   0  0  0  0  0  0  0  0  0  0  0  0
   52.4837   14.0933   12.8789 H   0  0  0  0  0  0  0  0  0  0  0  0
   45.4128    8.9480   13.1616 H   0  0  0  0  0  0  0  0  0  0  0  0
   54.3752   12.5033   12.6494 H   0  0  0  0  0  0  0  0  0  0  0  0
   46.3686    6.9915   11.9711 H   0  0  0  0  0  0  0  0  0  0  0  0
   48.5441    8.9043   15.0660 H   0  0  0  0  0  0  0  0  0  0  0  0
   50.1018    8.4096   15.6673 H   0  0  0  0  0  0  0  0  0  0  0  0
   49.5821   13.4108   18.6914 H   0  0  0  0  0  0  0  0  0  0  0  0
   51.4639    9.8737   10.1286 H   0  0  0  0  0  0  0  0  0  0  0  0
   51.8690   12.3665   14.9152 H   0  0  0  0  0  0  0  0  0  0  0  0
   52.7442    7.6817   13.8757 H   0  0  0  0  0  0  0  0  0  0  0  0
   51.8279   15.4522   17.2990 H   0  0  0  0  0  0  0  0  0  0  0  0
   54.4834    7.3035   12.0233 H   0  0  0  0  0  0  0  0  0  0  0  0
   47.9050    8.3930   17.0255 H   0  0  0  0  0  0  0  0  0  0  0  0
   47.6899   10.8197   14.0875 H   0  0  0  0  0  0  0  0  0  0  0  0
   47.9566   12.2948   20.0590 H   0  0  0  0  0  0  0  0  0  0  0  0
   49.5765   11.2682    9.5377 H   0  0  0  0  0  0  0  0  0  0  0  0
   46.5415   12.1653   12.4129 H   0  0  0  0  0  0  0  0  0  0  0  0
   46.5078    8.4124   19.0119 H   0  0  0  0  0  0  0  0  0  0  0  0
   47.4734   12.3961   10.1261 H   0  0  0  0  0  0  0  0  0  0  0  0
   46.5183   10.3621   20.5444 H   0  0  0  0  0  0  0  0  0  0  0  0
   48.9988   11.1514   12.1522 H   0  0  0  0  0  0  0  0  0  0  0  0
   50.0567   11.1972   10.7551 H   0  0  0  0  0  0  0  0  0  0  0  0
   50.6920    8.7914   11.1217 H   0  0  0  0  0  0  0  0  0  0  0  0
   49.0031    9.0888   10.7005 H   0  0  0  0  0  0  0  0  0  0  0  0
   50.0051   10.2908   16.5761 H   0  0  0  0  0  0  0  0  0  0  0  0
   48.3588   10.1037   15.9726 H   0  0  0  0  0  0  0  0  0  0  0  0
   50.0566   12.5975   15.5359 H   0  0  0  0  0  0  0  0  0  0  0  0
   48.5368   12.2741   14.7273 H   0  0  0  0  0  0  0  0  0  0  0  0
   48.9610    7.9902   16.0460 H   0  0  0  0  0  0  0  0  0  0  0  0
   52.1548   10.4953   15.8088 H   0  0  0  0  0  0  0  0  0  0  0  0
   47.3312   12.1445   16.8201 H   0  0  0  0  0  0  0  0  0  0  0  0
   48.1534   13.6909   16.6684 H   0  0  0  0  0  0  0  0  0  0  0  0
   48.7981    6.7636   11.2731 H   0  0  0  0  0  0  0  0  0  0  0  0
   52.2675   11.9452   11.0746 H   0  0  0  0  0  0  0  0  0  0  0  0
   50.1218   14.1707   18.0736 H   0  0  0  0  0  0  0  0  0  0  0  0
   50.6158   12.9867   19.2984 H   0  0  0  0  0  0  0  0  0  0  0  0
   50.9733   12.6768   17.6132 H   0  0  0  0  0  0  0  0  0  0  0  0
   47.0781   12.2816   19.1514 H   0  0  0  0  0  0  0  0  0  0  0  0
   47.8035   13.9036   19.1401 H   0  0  0  0  0  0  0  0  0  0  0  0
   48.4457   12.6269   20.1959 H   0  0  0  0  0  0  0  0  0  0  0  0
   54.1443   11.6334   14.9142 H   0  0  0  0  0  0  0  0  0  0  0  0
   48.0893    5.8213   15.3782 H   0  0  0  0  0  0  0  0  0  0  0  0
   54.2040   12.3676   12.5464 H   0  0  0  0  0  0  0  0  0  0  0  0
   48.0113    5.1843   12.9821 H   0  0  0  0  0  0  0  0  0  0  0  0
  2  1  1  0
  3  1  1  0
  4  2  2  0
  5  3  2  0
  6  4  1  0
  7  5  1  0
  8  1  1  0
  9  8  1  0
 10 13  1  0
 11  3  1  0
 12  2  1  0
 13  9  1  0
 14  5  1  0
 15  4  1  0
 16 10  1  0
 17 10  1  0
 18 12  2  0
 19 11  2  0
 20 15  2  0
 21 14  2  0
  6  7  1  0
 18 20  1  0
 19 21  1  0
 23 27  2  0
 24 28  1  0
 25 26  1  0
 26 22  2  0
 27 24  1  0
 28 25  1  0
 29 22  1  0
 30 23  1  0
 31 22  1  0
 32 23  1  0
 33 24  2  0
 34 35  1  0
 35 29  2  0
 36 33  1  0
 37 31  2  0
 38 32  2  0
 39 26  1  0
 40 27  1  0
 41 31  1  0
 42 32  1  0
 43 34  1  0
 44 33  1  0
 45 35  1  0
 46 36  1  0
 47 44  2  0
 48 43  2  0
 49 47  1  0
 50 45  2  0
 25 34  2  0
 48 50  1  0
 30 36  2  0
 46 49  2  0
 52 51  1  0
 53 51  1  0
 54 52  2  0
 55 53  2  0
 56 54  1  0
 57 55  1  0
 58 51  1  0
 59 58  1  0
 60 63  1  0
 61 53  1  0
 62 52  1  0
 63 59  1  0
 64 55  1  0
 65 54  1  0
 66 60  1  0
 67 60  1  0
 68 62  2  0
 69 61  2  0
 70 65  2  0
 71 64  2  0
 56 57  1  0
 68 70  1  0
 69 71  1  0
  6 72  1  0
  6 73  1  0
  7 74  1  0
  7 75  1  0
  8 76  1  0
  8 77  1  0
  9 78  1  0
  9 79  1  0
 11 80  1  0
 12 81  1  0
 13 82  1  0
 13 83  1  0
 14 84  1  0
 15 85  1  0
 16 86  1  0
 16 87  1  0
 16 88  1  0
 17 89  1  0
 17 90  1  0
 17 91  1  0
 18 92  1  0
 19 93  1  0
 20 94  1  0
 21 95  1  0
 28 96  1  0
 28 97  1  0
 29 98  1  0
 30 99  1  0
 39100  1  0
 40101  1  0
 41102  1  0
 42103  1  0
 43104  1  0
 44105  1  0
 45106  1  0
 46107  1  0
 47108  1  0
 48109  1  0
 49110  1  0
 50111  1  0
 56112  1  0
 56113  1  0
 57114  1  0
 57115  1  0
 58116  1  0
 58117  1  0
 59118  1  0
 59119  1  0
 61120  1  0
 62121  1  0
 63122  1  0
 63123  1  0
 64124  1  0
 65125  1  0
 66126  1  0
 66127  1  0
 66128  1  0
 67129  1  0
 67130  1  0
 67131  1  0
 68132  1  0
 69133  1  0
 70134  1  0
 71135  1  0
M  END
> <Uni-Dock RESULT> 
ENERGY=   -5.749  LOWER_BOUND=    3.755  UPPER_BOUND=    6.692
INTER + INTRA:          -5.749
INTER:                  -5.749
INTRA:                   0.000
UNBOUND:                 0.000

$$$$
