
     RDKit          3D

135142  0  0  0  0  0  0  0  0999 V2000
   50.2553    6.0294   20.5730 N   0  0  0  0  0  0  0  0  0  0  0  0
   49.4895    5.9074   21.7826 C   0  0  0  0  0  0  0  0  0  0  0  0
   49.8383    6.2515   19.2155 C   0  0  0  0  0  0  0  0  0  0  0  0
   48.0727    5.9579   21.8337 C   0  0  0  0  0  0  0  0  0  0  0  0
   48.7084    7.0159   18.8640 C   0  0  0  0  0  0  0  0  0  0  0  0
   47.1935    6.3292   20.6646 C   0  0  0  0  0  0  0  0  0  0  0  0
   47.7515    7.5218   19.9045 C   0  0  0  0  0  0  0  0  0  0  0  0
   51.7353    6.1552   20.7290 C   0  0  0  0  0  0  0  0  0  0  0  0
   52.4316    4.7935   20.8798 C   0  0  0  0  0  0  0  0  0  0  0  0
   54.6488    5.7383   21.5763 N   0  0  0  0  0  0  0  0  0  0  0  0
   50.5882    5.7243   18.1388 C   0  0  0  0  0  0  0  0  0  0  0  0
   50.1196    5.6867   23.0331 C   0  0  0  0  0  0  0  0  0  0  0  0
   53.9451    4.8465   20.6410 C   0  0  0  0  0  0  0  0  0  0  0  0
   48.4092    7.2962   17.5117 C   0  0  0  0  0  0  0  0  0  0  0  0
   47.3765    5.6746   23.0386 C   0  0  0  0  0  0  0  0  0  0  0  0
   55.0250    6.9975   20.9314 C   0  0  0  0  0  0  0  0  0  0  0  0
   55.8533    5.0970   22.1115 C   0  0  0  0  0  0  0  0  0  0  0  0
   49.4259    5.4422   24.2249 C   0  0  0  0  0  0  0  0  0  0  0  0
   50.2798    5.9856   16.7984 C   0  0  0  0  0  0  0  0  0  0  0  0
   48.0453    5.4168   24.2249 C   0  0  0  0  0  0  0  0  0  0  0  0
   49.1935    6.7898   16.4843 C   0  0  0  0  0  0  0  0  0  0  0  0
   47.7625    8.0907   20.6292 C   0  0  0  0  0  0  0  0  0  0  0  0
   53.6953    6.3824   19.8629 C   0  0  0  0  0  0  0  0  0  0  0  0
   51.9819    5.8341   21.5311 C   0  0  0  0  0  0  0  0  0  0  0  0
   49.4067    6.3737   21.2044 C   0  0  0  0  0  0  0  0  0  0  0  0
   48.7955    7.6204   21.4515 C   0  0  0  0  0  0  0  0  0  0  0  0
   52.3907    6.5223   20.3666 C   0  0  0  0  0  0  0  0  0  0  0  0
   50.5600    5.9195   22.0912 C   0  0  0  0  0  0  0  0  0  0  0  0
   47.3090    7.2984   19.5693 C   0  0  0  0  0  0  0  0  0  0  0  0
   54.6238    5.5975   20.5498 C   0  0  0  0  0  0  0  0  0  0  0  0
   47.1637    9.4225   20.8866 C   0  0  0  0  0  0  0  0  0  0  0  0
   54.0799    7.0522   18.5973 C   0  0  0  0  0  0  0  0  0  0  0  0
   52.9472    5.0321   22.2379 C   0  0  0  0  0  0  0  0  0  0  0  0
   48.9402    5.5629   20.1215 C   0  0  0  0  0  0  0  0  0  0  0  0
   47.8833    6.0488   19.3077 C   0  0  0  0  0  0  0  0  0  0  0  0
   54.2655    4.9248   21.7210 C   0  0  0  0  0  0  0  0  0  0  0  0
   47.4877   10.1611   21.8041 O   0  0  0  0  0  0  0  0  0  0  0  0
   53.2846    7.5351   17.8053 O   0  0  0  0  0  0  0  0  0  0  0  0
   49.2539    8.3504   22.5234 O   0  0  0  0  0  0  0  0  0  0  0  0
   51.4996    7.3531   19.7330 O   0  0  0  0  0  0  0  0  0  0  0  0
   46.2228    9.7842   19.9997 O   0  0  0  0  0  0  0  0  0  0  0  0
   55.4036    7.0831   18.3708 O   0  0  0  0  0  0  0  0  0  0  0  0
   49.4746    4.2962   19.7931 C   0  0  0  0  0  0  0  0  0  0  0  0
   52.6780    4.3224   23.4352 C   0  0  0  0  0  0  0  0  0  0  0  0
   47.4136    5.2878   18.2251 C   0  0  0  0  0  0  0  0  0  0  0  0
   55.2292    4.1397   22.3759 C   0  0  0  0  0  0  0  0  0  0  0  0
   53.6432    3.5449   24.0781 C   0  0  0  0  0  0  0  0  0  0  0  0
   48.9996    3.5479   18.7141 C   0  0  0  0  0  0  0  0  0  0  0  0
   54.9217    3.4541   23.5489 C   0  0  0  0  0  0  0  0  0  0  0  0
   47.9652    4.0455   17.9310 C   0  0  0  0  0  0  0  0  0  0  0  0
   50.6425    7.3446   20.4350 N   0  0  0  0  0  0  0  0  0  0  0  0
   49.8254    7.5809   21.5839 C   0  0  0  0  0  0  0  0  0  0  0  0
   50.3026    6.6969   19.2154 C   0  0  0  0  0  0  0  0  0  0  0  0
   48.5895    6.9307   21.8379 C   0  0  0  0  0  0  0  0  0  0  0  0
   49.5864    5.4911   19.1662 C   0  0  0  0  0  0  0  0  0  0  0  0
   48.0178    5.8070   21.0155 C   0  0  0  0  0  0  0  0  0  0  0  0
   49.0591    4.8747   20.4286 C   0  0  0  0  0  0  0  0  0  0  0  0
   52.0985    7.6255   20.5399 C   0  0  0  0  0  0  0  0  0  0  0  0
   52.8373    6.5808   21.3876 C   0  0  0  0  0  0  0  0  0  0  0  0
   54.0902    4.3960   21.2771 N   0  0  0  0  0  0  0  0  0  0  0  0
   50.7010    7.2584   17.9806 C   0  0  0  0  0  0  0  0  0  0  0  0
   50.2021    8.5655   22.5309 C   0  0  0  0  0  0  0  0  0  0  0  0
   53.2139    5.3429   20.5544 C   0  0  0  0  0  0  0  0  0  0  0  0
   49.3224    4.8570   17.9329 C   0  0  0  0  0  0  0  0  0  0  0  0
   47.7900    7.3155   22.9452 C   0  0  0  0  0  0  0  0  0  0  0  0
   53.3766    3.7491   22.3873 C   0  0  0  0  0  0  0  0  0  0  0  0
   54.5689    3.3695   20.3434 C   0  0  0  0  0  0  0  0  0  0  0  0
   49.4192    8.9114   23.6394 C   0  0  0  0  0  0  0  0  0  0  0  0
   50.4455    6.6246   16.7608 C   0  0  0  0  0  0  0  0  0  0  0  0
   48.1956    8.2933   23.8421 C   0  0  0  0  0  0  0  0  0  0  0  0
   49.7586    5.4220   16.7368 C   0  0  0  0  0  0  0  0  0  0  0  0
   46.2049    6.6209   21.0344 H   0  0  0  0  0  0  0  0  0  0  0  0
   47.0391    5.4486   20.0299 H   0  0  0  0  0  0  0  0  0  0  0  0
   46.9207    8.0444   19.4226 H   0  0  0  0  0  0  0  0  0  0  0  0
   48.2451    8.2566   20.5496 H   0  0  0  0  0  0  0  0  0  0  0  0
   51.9774    6.8200   21.5706 H   0  0  0  0  0  0  0  0  0  0  0  0
   52.1656    6.6826   19.8689 H   0  0  0  0  0  0  0  0  0  0  0  0
   52.2497    4.3686   21.8785 H   0  0  0  0  0  0  0  0  0  0  0  0
   51.9974    4.0630   20.1833 H   0  0  0  0  0  0  0  0  0  0  0  0
   51.4354    5.0733   18.3173 H   0  0  0  0  0  0  0  0  0  0  0  0
   51.1961    5.6716   23.1338 H   0  0  0  0  0  0  0  0  0  0  0  0
   54.1547    5.1064   19.5980 H   0  0  0  0  0  0  0  0  0  0  0  0
   54.3078    3.8174   20.7537 H   0  0  0  0  0  0  0  0  0  0  0  0
   47.5431    7.9038   17.2595 H   0  0  0  0  0  0  0  0  0  0  0  0
   46.2855    5.6739   23.0514 H   0  0  0  0  0  0  0  0  0  0  0  0
   55.5905    7.6450   21.6150 H   0  0  0  0  0  0  0  0  0  0  0  0
   54.1389    7.5715   20.6324 H   0  0  0  0  0  0  0  0  0  0  0  0
   55.6429    6.8396   20.0359 H   0  0  0  0  0  0  0  0  0  0  0  0
   56.3591    5.7625   22.8236 H   0  0  0  0  0  0  0  0  0  0  0  0
   55.5931    4.1893   22.6706 H   0  0  0  0  0  0  0  0  0  0  0  0
   56.5584    4.8351   21.3207 H   0  0  0  0  0  0  0  0  0  0  0  0
   49.9742    5.2666   25.1458 H   0  0  0  0  0  0  0  0  0  0  0  0
   50.8903    5.5626   16.0014 H   0  0  0  0  0  0  0  0  0  0  0  0
   47.4939    5.2165   25.1384 H   0  0  0  0  0  0  0  0  0  0  0  0
   48.9491    7.0097   15.4497 H   0  0  0  0  0  0  0  0  0  0  0  0
   50.2552    4.9315   22.4496 H   0  0  0  0  0  0  0  0  0  0  0  0
   50.6207    6.5382   22.9948 H   0  0  0  0  0  0  0  0  0  0  0  0
   46.5107    7.6706   18.9265 H   0  0  0  0  0  0  0  0  0  0  0  0
   55.6369    5.4970   20.1550 H   0  0  0  0  0  0  0  0  0  0  0  0
   48.7922    9.2158   22.5472 H   0  0  0  0  0  0  0  0  0  0  0  0
   51.8209    7.5652   18.8340 H   0  0  0  0  0  0  0  0  0  0  0  0
   45.9477   10.6826   20.2912 H   0  0  0  0  0  0  0  0  0  0  0  0
   55.4953    7.5517   17.5166 H   0  0  0  0  0  0  0  0  0  0  0  0
   50.2842    3.8650   20.3737 H   0  0  0  0  0  0  0  0  0  0  0  0
   51.7003    4.3709   23.9052 H   0  0  0  0  0  0  0  0  0  0  0  0
   46.6063    5.6640   17.6008 H   0  0  0  0  0  0  0  0  0  0  0  0
   56.2408    4.0575   21.9812 H   0  0  0  0  0  0  0  0  0  0  0  0
   53.3922    3.0205   24.9953 H   0  0  0  0  0  0  0  0  0  0  0  0
   49.4414    2.5821   18.4808 H   0  0  0  0  0  0  0  0  0  0  0  0
   55.6796    2.8492   24.0445 H   0  0  0  0  0  0  0  0  0  0  0  0
   47.5953    3.4750   17.0838 H   0  0  0  0  0  0  0  0  0  0  0  0
   47.3677    5.1917   21.6586 H   0  0  0  0  0  0  0  0  0  0  0  0
   47.3699    6.2365   20.2343 H   0  0  0  0  0  0  0  0  0  0  0  0
   49.8843    4.6625   21.1195 H   0  0  0  0  0  0  0  0  0  0  0  0
   48.5919    3.9058   20.2057 H   0  0  0  0  0  0  0  0  0  0  0  0
   52.2788    8.6271   20.9440 H   0  0  0  0  0  0  0  0  0  0  0  0
   52.5920    7.6808   19.5607 H   0  0  0  0  0  0  0  0  0  0  0  0
   52.2415    6.2945   22.2603 H   0  0  0  0  0  0  0  0  0  0  0  0
   53.7617    7.0349   21.7630 H   0  0  0  0  0  0  0  0  0  0  0  0
   51.2174    8.2174   17.9596 H   0  0  0  0  0  0  0  0  0  0  0  0
   51.1251    9.1266   22.4338 H   0  0  0  0  0  0  0  0  0  0  0  0
   53.7568    5.6977   19.6721 H   0  0  0  0  0  0  0  0  0  0  0  0
   52.3147    4.8355   20.1903 H   0  0  0  0  0  0  0  0  0  0  0  0
   48.7530    3.9278   17.9028 H   0  0  0  0  0  0  0  0  0  0  0  0
   46.8253    6.8328   23.1173 H   0  0  0  0  0  0  0  0  0  0  0  0
   52.4620    3.2551   22.0536 H   0  0  0  0  0  0  0  0  0  0  0  0
   53.1252    4.4737   23.1711 H   0  0  0  0  0  0  0  0  0  0  0  0
   54.0130    2.9981   22.8692 H   0  0  0  0  0  0  0  0  0  0  0  0
   55.1486    3.8267   19.5323 H   0  0  0  0  0  0  0  0  0  0  0  0
   55.2418    2.6694   20.8508 H   0  0  0  0  0  0  0  0  0  0  0  0
   53.7486    2.7932   19.8988 H   0  0  0  0  0  0  0  0  0  0  0  0
   49.7579    9.6827   24.3281 H   0  0  0  0  0  0  0  0  0  0  0  0
   50.7855    7.0761   15.8275 H   0  0  0  0  0  0  0  0  0  0  0  0
   47.5677    8.5651   24.6866 H   0  0  0  0  0  0  0  0  0  0  0  0
   49.5485    4.9289   15.7925 H   0  0  0  0  0  0  0  0  0  0  0  0
  2  1  1  0
  3  1  1  0
  4  2  2  0
  5  3  2  0
  6  4  1  0
  7  5  1  0
  8  1  1  0
  9  8  1  0
 10 13  1  0
 11  3  1  0
 12  2  1  0
 13  9  1  0
 14  5  1  0
 15  4  1  0
 16 10  1  0
 17 10  1  0
 18 12  2  0
 19 11  2  0
 20 15  2  0
 21 14  2  0
  6  7  1  0
 18 20  1  0
 19 21  1  0
 23 27  2  0
 24 28  1  0
 25 26  1  0
 26 22  2  0
 27 24  1  0
 28 25  1  0
 29 22  1  0
 30 23  1  0
 31 22  1  0
 32 23  1  0
 33 24  2  0
 34 35  1  0
 35 29  2  0
 36 33  1  0
 37 31  2  0
 38 32  2  0
 39 26  1  0
 40 27  1  0
 41 31  1  0
 42 32  1  0
 43 34  1  0
 44 33  1  0
 45 35  1  0
 46 36  1  0
 47 44  2  0
 48 43  2  0
 49 47  1  0
 50 45  2  0
 25 34  2  0
 48 50  1  0
 30 36  2  0
 46 49  2  0
 52 51  1  0
 53 51  1  0
 54 52  2  0
 55 53  2  0
 56 54  1  0
 57 55  1  0
 58 51  1  0
 59 58  1  0
 60 63  1  0
 61 53  1  0
 62 52  1  0
 63 59  1  0
 64 55  1  0
 65 54  1  0
 66 60  1  0
 67 60  1  0
 68 62  2  0
 69 61  2  0
 70 65  2  0
 71 64  2  0
 56 57  1  0
 68 70  1  0
 69 71  1  0
  6 72  1  0
  6 73  1  0
  7 74  1  0
  7 75  1  0
  8 76  1  0
  8 77  1  0
  9 78  1  0
  9 79  1  0
 11 80  1  0
 12 81  1  0
 13 82  1  0
 13 83  1  0
 14 84  1  0
 15 85  1  0
 16 86  1  0
 16 87  1  0
 16 88  1  0
 17 89  1  0
 17 90  1  0
 17 91  1  0
 18 92  1  0
 19 93  1  0
 20 94  1  0
 21 95  1  0
 28 96  1  0
 28 97  1  0
 29 98  1  0
 30 99  1  0
 39100  1  0
 40101  1  0
 41102  1  0
 42103  1  0
 43104  1  0
 44105  1  0
 45106  1  0
 46107  1  0
 47108  1  0
 48109  1  0
 49110  1  0
 50111  1  0
 56112  1  0
 56113  1  0
 57114  1  0
 57115  1  0
 58116  1  0
 58117  1  0
 59118  1  0
 59119  1  0
 61120  1  0
 62121  1  0
 63122  1  0
 63123  1  0
 64124  1  0
 65125  1  0
 66126  1  0
 66127  1  0
 66128  1  0
 67129  1  0
 67130  1  0
 67131  1  0
 68132  1  0
 69133  1  0
 70134  1  0
 71135  1  0
M  END
> <Uni-Dock RESULT> 
ENERGY=   -7.014  LOWER_BOUND=    0.000  UPPER_BOUND=    0.000
INTER + INTRA:          -7.014
INTER:                  -7.014
INTRA:                   0.000
UNBOUND:                 0.000

$$$$

     RDKit          3D

135142  0  0  0  0  0  0  0  0999 V2000
   50.8703    6.7591   17.9441 N   0  0  0  0  0  0  0  0  0  0  0  0
   49.7969    6.2117   18.7268 C   0  0  0  0  0  0  0  0  0  0  0  0
   52.2132    6.2915   17.7344 C   0  0  0  0  0  0  0  0  0  0  0  0
   49.9074    5.0369   19.5142 C   0  0  0  0  0  0  0  0  0  0  0  0
   52.5674    4.9283   17.7099 C   0  0  0  0  0  0  0  0  0  0  0  0
   51.0965    4.1078   19.4910 C   0  0  0  0  0  0  0  0  0  0  0  0
   51.5798    3.8567   18.0716 C   0  0  0  0  0  0  0  0  0  0  0  0
   50.5206    7.8811   17.0226 C   0  0  0  0  0  0  0  0  0  0  0  0
   50.5121    9.2458   17.7293 C   0  0  0  0  0  0  0  0  0  0  0  0
   49.4116   10.4812   15.8435 N   0  0  0  0  0  0  0  0  0  0  0  0
   53.2644    7.2083   17.5017 C   0  0  0  0  0  0  0  0  0  0  0  0
   48.5330    6.8507   18.7908 C   0  0  0  0  0  0  0  0  0  0  0  0
   50.5569   10.4378   16.7663 C   0  0  0  0  0  0  0  0  0  0  0  0
   53.8817    4.5217   17.3873 C   0  0  0  0  0  0  0  0  0  0  0  0
   48.8566    4.6408   20.3835 C   0  0  0  0  0  0  0  0  0  0  0  0
   49.7928   10.0438   14.4995 C   0  0  0  0  0  0  0  0  0  0  0  0
   48.8485   11.8322   15.7647 C   0  0  0  0  0  0  0  0  0  0  0  0
   47.4884    6.4337   19.6253 C   0  0  0  0  0  0  0  0  0  0  0  0
   54.5712    6.8055   17.2017 C   0  0  0  0  0  0  0  0  0  0  0  0
   47.6571    5.3329   20.4416 C   0  0  0  0  0  0  0  0  0  0  0  0
   54.8770    5.4540   17.1282 C   0  0  0  0  0  0  0  0  0  0  0  0
   50.7759    3.5305   17.7614 C   0  0  0  0  0  0  0  0  0  0  0  0
   51.0981    9.3316   15.5373 C   0  0  0  0  0  0  0  0  0  0  0  0
   49.7580    8.2693   17.2966 C   0  0  0  0  0  0  0  0  0  0  0  0
   50.2968    5.8704   18.2886 C   0  0  0  0  0  0  0  0  0  0  0  0
   49.9242    4.6421   17.7041 C   0  0  0  0  0  0  0  0  0  0  0  0
   50.7374    8.1947   16.2808 C   0  0  0  0  0  0  0  0  0  0  0  0
   49.3650    7.0697   18.1623 C   0  0  0  0  0  0  0  0  0  0  0  0
   51.9973    3.6307   18.4359 C   0  0  0  0  0  0  0  0  0  0  0  0
   50.4428   10.5441   15.7619 C   0  0  0  0  0  0  0  0  0  0  0  0
   50.3778    2.2622   17.1046 C   0  0  0  0  0  0  0  0  0  0  0  0
   52.1824    9.2482   14.5296 C   0  0  0  0  0  0  0  0  0  0  0  0
   49.0817    9.5217   17.5176 C   0  0  0  0  0  0  0  0  0  0  0  0
   51.5453    5.9710   18.9806 C   0  0  0  0  0  0  0  0  0  0  0  0
   52.3890    4.8308   19.0410 C   0  0  0  0  0  0  0  0  0  0  0  0
   49.4483   10.6504   16.7378 C   0  0  0  0  0  0  0  0  0  0  0  0
   49.3200    2.0889   16.5185 O   0  0  0  0  0  0  0  0  0  0  0  0
   52.9740    8.3213   14.4459 O   0  0  0  0  0  0  0  0  0  0  0  0
   48.7006    4.5825   17.0786 O   0  0  0  0  0  0  0  0  0  0  0  0
   51.3286    6.9854   16.0089 O   0  0  0  0  0  0  0  0  0  0  0  0
   51.2995    1.2889   17.1816 O   0  0  0  0  0  0  0  0  0  0  0  0
   52.2414   10.2999   13.6959 O   0  0  0  0  0  0  0  0  0  0  0  0
   52.0100    7.1489   19.6086 C   0  0  0  0  0  0  0  0  0  0  0  0
   48.0570    9.7217   18.4766 C   0  0  0  0  0  0  0  0  0  0  0  0
   53.6294    4.8996   19.6954 C   0  0  0  0  0  0  0  0  0  0  0  0
   48.8202   11.8915   16.9358 C   0  0  0  0  0  0  0  0  0  0  0  0
   47.4392   10.9596   18.6653 C   0  0  0  0  0  0  0  0  0  0  0  0
   53.2455    7.2059   20.2568 C   0  0  0  0  0  0  0  0  0  0  0  0
   47.8200   12.0464   17.8930 C   0  0  0  0  0  0  0  0  0  0  0  0
   54.0545    6.0771   20.3013 C   0  0  0  0  0  0  0  0  0  0  0  0
   50.7446    6.2975   16.6518 N   0  0  0  0  0  0  0  0  0  0  0  0
   49.6782    5.4977   17.1683 C   0  0  0  0  0  0  0  0  0  0  0  0
   52.0852    6.4045   17.1141 C   0  0  0  0  0  0  0  0  0  0  0  0
   49.6829    4.8817   18.4470 C   0  0  0  0  0  0  0  0  0  0  0  0
   52.4156    6.5358   18.4716 C   0  0  0  0  0  0  0  0  0  0  0  0
   50.7399    5.0816   19.4999 C   0  0  0  0  0  0  0  0  0  0  0  0
   51.3428    6.4723   19.5188 C   0  0  0  0  0  0  0  0  0  0  0  0
   50.4224    7.3089   15.6110 C   0  0  0  0  0  0  0  0  0  0  0  0
   49.6747    8.5210   16.1832 C   0  0  0  0  0  0  0  0  0  0  0  0
   49.9902   10.8202   17.1677 N   0  0  0  0  0  0  0  0  0  0  0  0
   53.1555    6.3961   16.1903 C   0  0  0  0  0  0  0  0  0  0  0  0
   48.5452    5.2222   16.3630 C   0  0  0  0  0  0  0  0  0  0  0  0
   50.6479    9.5546   16.7775 C   0  0  0  0  0  0  0  0  0  0  0  0
   53.7584    6.6961   18.8766 C   0  0  0  0  0  0  0  0  0  0  0  0
   48.6309    4.0087   18.8273 C   0  0  0  0  0  0  0  0  0  0  0  0
   49.0935   10.6242   18.3157 C   0  0  0  0  0  0  0  0  0  0  0  0
   51.0152   11.8118   17.5155 C   0  0  0  0  0  0  0  0  0  0  0  0
   47.4964    4.3854   16.7647 C   0  0  0  0  0  0  0  0  0  0  0  0
   54.4840    6.5631   16.5928 C   0  0  0  0  0  0  0  0  0  0  0  0
   47.5446    3.7605   18.0006 C   0  0  0  0  0  0  0  0  0  0  0  0
   54.7856    6.7162   17.9360 C   0  0  0  0  0  0  0  0  0  0  0  0
   50.8046    3.1370   19.9050 H   0  0  0  0  0  0  0  0  0  0  0  0
   51.8803    4.5019   20.1489 H   0  0  0  0  0  0  0  0  0  0  0  0
   52.0654    2.8777   18.0397 H   0  0  0  0  0  0  0  0  0  0  0  0
   50.7693    3.8228   17.3357 H   0  0  0  0  0  0  0  0  0  0  0  0
   49.5589    7.6851   16.5268 H   0  0  0  0  0  0  0  0  0  0  0  0
   51.2255    7.9185   16.1831 H   0  0  0  0  0  0  0  0  0  0  0  0
   49.6251    9.3487   18.3724 H   0  0  0  0  0  0  0  0  0  0  0  0
   51.3653    9.3252   18.4172 H   0  0  0  0  0  0  0  0  0  0  0  0
   53.0948    8.2764   17.5645 H   0  0  0  0  0  0  0  0  0  0  0  0
   48.3086    7.7296   18.2023 H   0  0  0  0  0  0  0  0  0  0  0  0
   51.5110   10.4543   16.2289 H   0  0  0  0  0  0  0  0  0  0  0  0
   50.5714   11.3370   17.3945 H   0  0  0  0  0  0  0  0  0  0  0  0
   54.1327    3.4639   17.3548 H   0  0  0  0  0  0  0  0  0  0  0  0
   48.9742    3.7594   21.0158 H   0  0  0  0  0  0  0  0  0  0  0  0
   48.9501   10.1194   13.7990 H   0  0  0  0  0  0  0  0  0  0  0  0
   50.0975    8.9897   14.4957 H   0  0  0  0  0  0  0  0  0  0  0  0
   50.6219   10.6364   14.0871 H   0  0  0  0  0  0  0  0  0  0  0  0
   47.9822   11.8489   15.0901 H   0  0  0  0  0  0  0  0  0  0  0  0
   48.4801   12.1563   16.7463 H   0  0  0  0  0  0  0  0  0  0  0  0
   49.5817   12.5564   15.4055 H   0  0  0  0  0  0  0  0  0  0  0  0
   46.5499    6.9801   19.6342 H   0  0  0  0  0  0  0  0  0  0  0  0
   55.3480    7.5482   17.0234 H   0  0  0  0  0  0  0  0  0  0  0  0
   46.8608    5.0050   21.1028 H   0  0  0  0  0  0  0  0  0  0  0  0
   55.8835    5.1271   16.8860 H   0  0  0  0  0  0  0  0  0  0  0  0
   49.2117    7.4051   19.1925 H   0  0  0  0  0  0  0  0  0  0  0  0
   48.3719    6.7542   17.8201 H   0  0  0  0  0  0  0  0  0  0  0  0
   52.6612    2.7665   18.4718 H   0  0  0  0  0  0  0  0  0  0  0  0
   50.7251   11.4222   15.1775 H   0  0  0  0  0  0  0  0  0  0  0  0
   48.5911    3.6997   16.6647 H   0  0  0  0  0  0  0  0  0  0  0  0
   52.1361    7.1204   15.4740 H   0  0  0  0  0  0  0  0  0  0  0  0
   50.9001    0.5375   16.6881 H   0  0  0  0  0  0  0  0  0  0  0  0
   52.9906   10.0982   13.0995 H   0  0  0  0  0  0  0  0  0  0  0  0
   51.4153    8.0570   19.6004 H   0  0  0  0  0  0  0  0  0  0  0  0
   47.7053    8.9029   19.0970 H   0  0  0  0  0  0  0  0  0  0  0  0
   54.2757    4.0257   19.7371 H   0  0  0  0  0  0  0  0  0  0  0  0
   49.0996   12.7575   16.3378 H   0  0  0  0  0  0  0  0  0  0  0  0
   46.6565   11.0653   19.4106 H   0  0  0  0  0  0  0  0  0  0  0  0
   53.5790    8.1318   20.7194 H   0  0  0  0  0  0  0  0  0  0  0  0
   47.3430   13.0151   18.0348 H   0  0  0  0  0  0  0  0  0  0  0  0
   55.0214    6.1142   20.7949 H   0  0  0  0  0  0  0  0  0  0  0  0
   50.2880    4.9184   20.4918 H   0  0  0  0  0  0  0  0  0  0  0  0
   51.5121    4.3051   19.3758 H   0  0  0  0  0  0  0  0  0  0  0  0
   50.6024    7.2641   19.3505 H   0  0  0  0  0  0  0  0  0  0  0  0
   51.7748    6.6653   20.5101 H   0  0  0  0  0  0  0  0  0  0  0  0
   49.8417    6.8647   14.7959 H   0  0  0  0  0  0  0  0  0  0  0  0
   51.3136    7.6754   15.0848 H   0  0  0  0  0  0  0  0  0  0  0  0
   48.9378    8.2079   16.9298 H   0  0  0  0  0  0  0  0  0  0  0  0
   49.1228    9.0006   15.3665 H   0  0  0  0  0  0  0  0  0  0  0  0
   52.9580    6.2487   15.1291 H   0  0  0  0  0  0  0  0  0  0  0  0
   48.4386    5.6377   15.3670 H   0  0  0  0  0  0  0  0  0  0  0  0
   51.3894    9.7846   16.0053 H   0  0  0  0  0  0  0  0  0  0  0  0
   51.1944    9.1267   17.6241 H   0  0  0  0  0  0  0  0  0  0  0  0
   54.0075    6.7831   19.9343 H   0  0  0  0  0  0  0  0  0  0  0  0
   48.6561    3.5132   19.8005 H   0  0  0  0  0  0  0  0  0  0  0  0
   49.6101   10.1760   19.1667 H   0  0  0  0  0  0  0  0  0  0  0  0
   48.2377    9.9942   18.0455 H   0  0  0  0  0  0  0  0  0  0  0  0
   48.6683   11.5807   18.6406 H   0  0  0  0  0  0  0  0  0  0  0  0
   51.6658   12.0113   16.6554 H   0  0  0  0  0  0  0  0  0  0  0  0
   50.5523   12.7678   17.7841 H   0  0  0  0  0  0  0  0  0  0  0  0
   51.6424   11.4883   18.3549 H   0  0  0  0  0  0  0  0  0  0  0  0
   46.6556    4.2049   16.0980 H   0  0  0  0  0  0  0  0  0  0  0  0
   55.2838    6.5722   15.8507 H   0  0  0  0  0  0  0  0  0  0  0  0
   46.7480    3.0928   18.3183 H   0  0  0  0  0  0  0  0  0  0  0  0
   55.8160    6.8369   18.2566 H   0  0  0  0  0  0  0  0  0  0  0  0
  2  1  1  0
  3  1  1  0
  4  2  2  0
  5  3  2  0
  6  4  1  0
  7  5  1  0
  8  1  1  0
  9  8  1  0
 10 13  1  0
 11  3  1  0
 12  2  1  0
 13  9  1  0
 14  5  1  0
 15  4  1  0
 16 10  1  0
 17 10  1  0
 18 12  2  0
 19 11  2  0
 20 15  2  0
 21 14  2  0
  6  7  1  0
 18 20  1  0
 19 21  1  0
 23 27  2  0
 24 28  1  0
 25 26  1  0
 26 22  2  0
 27 24  1  0
 28 25  1  0
 29 22  1  0
 30 23  1  0
 31 22  1  0
 32 23  1  0
 33 24  2  0
 34 35  1  0
 35 29  2  0
 36 33  1  0
 37 31  2  0
 38 32  2  0
 39 26  1  0
 40 27  1  0
 41 31  1  0
 42 32  1  0
 43 34  1  0
 44 33  1  0
 45 35  1  0
 46 36  1  0
 47 44  2  0
 48 43  2  0
 49 47  1  0
 50 45  2  0
 25 34  2  0
 48 50  1  0
 30 36  2  0
 46 49  2  0
 52 51  1  0
 53 51  1  0
 54 52  2  0
 55 53  2  0
 56 54  1  0
 57 55  1  0
 58 51  1  0
 59 58  1  0
 60 63  1  0
 61 53  1  0
 62 52  1  0
 63 59  1  0
 64 55  1  0
 65 54  1  0
 66 60  1  0
 67 60  1  0
 68 62  2  0
 69 61  2  0
 70 65  2  0
 71 64  2  0
 56 57  1  0
 68 70  1  0
 69 71  1  0
  6 72  1  0
  6 73  1  0
  7 74  1  0
  7 75  1  0
  8 76  1  0
  8 77  1  0
  9 78  1  0
  9 79  1  0
 11 80  1  0
 12 81  1  0
 13 82  1  0
 13 83  1  0
 14 84  1  0
 15 85  1  0
 16 86  1  0
 16 87  1  0
 16 88  1  0
 17 89  1  0
 17 90  1  0
 17 91  1  0
 18 92  1  0
 19 93  1  0
 20 94  1  0
 21 95  1  0
 28 96  1  0
 28 97  1  0
 29 98  1  0
 30 99  1  0
 39100  1  0
 40101  1  0
 41102  1  0
 42103  1  0
 43104  1  0
 44105  1  0
 45106  1  0
 46107  1  0
 47108  1  0
 48109  1  0
 49110  1  0
 50111  1  0
 56112  1  0
 56113  1  0
 57114  1  0
 57115  1  0
 58116  1  0
 58117  1  0
 59118  1  0
 59119  1  0
 61120  1  0
 62121  1  0
 63122  1  0
 63123  1  0
 64124  1  0
 65125  1  0
 66126  1  0
 66127  1  0
 66128  1  0
 67129  1  0
 67130  1  0
 67131  1  0
 68132  1  0
 69133  1  0
 70134  1  0
 71135  1  0
M  END
> <Uni-Dock RESULT> 
ENERGY=   -6.872  LOWER_BOUND=    2.784  UPPER_BOUND=    6.394
INTER + INTRA:          -6.872
INTER:                  -6.872
INTRA:                   0.000
UNBOUND:                 0.000

$$$$

     RDKit          3D

135142  0  0  0  0  0  0  0  0999 V2000
   49.5586    8.1009   19.3111 N   0  0  0  0  0  0  0  0  0  0  0  0
   50.2550    8.0861   18.0545 C   0  0  0  0  0  0  0  0  0  0  0  0
   49.2093    7.0301   20.2041 C   0  0  0  0  0  0  0  0  0  0  0  0
   50.7225    6.9068   17.4196 C   0  0  0  0  0  0  0  0  0  0  0  0
   49.9949    5.8736   20.3770 C   0  0  0  0  0  0  0  0  0  0  0  0
   50.7183    5.5396   18.0588 C   0  0  0  0  0  0  0  0  0  0  0  0
   51.1854    5.5990   19.5043 C   0  0  0  0  0  0  0  0  0  0  0  0
   49.3191    9.4404   19.9266 C   0  0  0  0  0  0  0  0  0  0  0  0
   48.0638   10.1306   19.3701 C   0  0  0  0  0  0  0  0  0  0  0  0
   48.5551   12.3701   20.3885 N   0  0  0  0  0  0  0  0  0  0  0  0
   48.0423    7.1099   20.9987 C   0  0  0  0  0  0  0  0  0  0  0  0
   50.4939    9.2821   17.3317 C   0  0  0  0  0  0  0  0  0  0  0  0
   47.5648   11.2924   20.2372 C   0  0  0  0  0  0  0  0  0  0  0  0
   49.6630    4.9050   21.3508 C   0  0  0  0  0  0  0  0  0  0  0  0
   51.2628    6.9510   16.1071 C   0  0  0  0  0  0  0  0  0  0  0  0
   49.1844   12.3344   21.7098 C   0  0  0  0  0  0  0  0  0  0  0  0
   47.9387   13.6848   20.1882 C   0  0  0  0  0  0  0  0  0  0  0  0
   51.0595    9.3210   16.0511 C   0  0  0  0  0  0  0  0  0  0  0  0
   47.7029    6.1400   21.9496 C   0  0  0  0  0  0  0  0  0  0  0  0
   51.4292    8.1466   15.4260 C   0  0  0  0  0  0  0  0  0  0  0  0
   48.5272    5.0398   22.1376 C   0  0  0  0  0  0  0  0  0  0  0  0
   52.0026    5.9811   19.3170 C   0  0  0  0  0  0  0  0  0  0  0  0
   48.5371   10.6502   21.5292 C   0  0  0  0  0  0  0  0  0  0  0  0
   49.3679   10.0758   19.2934 C   0  0  0  0  0  0  0  0  0  0  0  0
   50.3879    7.7057   18.6838 C   0  0  0  0  0  0  0  0  0  0  0  0
   51.7146    7.2983   18.9345 C   0  0  0  0  0  0  0  0  0  0  0  0
   49.2643    9.8027   20.6759 C   0  0  0  0  0  0  0  0  0  0  0  0
   50.1102    9.1589   18.3181 C   0  0  0  0  0  0  0  0  0  0  0  0
   50.9642    5.0494   19.4195 C   0  0  0  0  0  0  0  0  0  0  0  0
   47.9524   11.8117   21.0202 C   0  0  0  0  0  0  0  0  0  0  0  0
   53.4014    5.5886   19.6133 C   0  0  0  0  0  0  0  0  0  0  0  0
   48.3766   10.3036   22.9618 C   0  0  0  0  0  0  0  0  0  0  0  0
   48.7681   11.2793   18.7770 C   0  0  0  0  0  0  0  0  0  0  0  0
   49.3268    6.7511   18.7864 C   0  0  0  0  0  0  0  0  0  0  0  0
   49.6386    5.4178   19.1611 C   0  0  0  0  0  0  0  0  0  0  0  0
   48.0577   12.1310   19.6638 C   0  0  0  0  0  0  0  0  0  0  0  0
   54.3635    6.3361   19.5236 O   0  0  0  0  0  0  0  0  0  0  0  0
   48.6223    9.2044   23.4354 O   0  0  0  0  0  0  0  0  0  0  0  0
   52.7057    8.2414   18.7910 O   0  0  0  0  0  0  0  0  0  0  0  0
   49.9021    8.7004   21.1896 O   0  0  0  0  0  0  0  0  0  0  0  0
   53.5422    4.3173   20.0216 O   0  0  0  0  0  0  0  0  0  0  0  0
   47.9188   11.3106   23.7240 O   0  0  0  0  0  0  0  0  0  0  0  0
   47.9662    7.0506   18.5478 C   0  0  0  0  0  0  0  0  0  0  0  0
   48.8301   11.6887   17.4212 C   0  0  0  0  0  0  0  0  0  0  0  0
   48.6199    4.4600   19.2898 C   0  0  0  0  0  0  0  0  0  0  0  0
   47.4476   13.3057   19.1928 C   0  0  0  0  0  0  0  0  0  0  0  0
   48.2201   12.8583   16.9634 C   0  0  0  0  0  0  0  0  0  0  0  0
   46.9613    6.0900   18.6787 C   0  0  0  0  0  0  0  0  0  0  0  0
   47.5286   13.6694   17.8505 C   0  0  0  0  0  0  0  0  0  0  0  0
   47.2911    4.7918   19.0483 C   0  0  0  0  0  0  0  0  0  0  0  0
   50.4747    8.3399   20.3124 N   0  0  0  0  0  0  0  0  0  0  0  0
   51.4539    8.2448   19.2751 C   0  0  0  0  0  0  0  0  0  0  0  0
   49.4476    7.4190   20.6579 C   0  0  0  0  0  0  0  0  0  0  0  0
   51.3859    7.3354   18.1874 C   0  0  0  0  0  0  0  0  0  0  0  0
   48.6256    6.8003   19.7036 C   0  0  0  0  0  0  0  0  0  0  0  0
   50.2198    6.4324   17.8861 C   0  0  0  0  0  0  0  0  0  0  0  0
   48.8692    7.0229   18.2398 C   0  0  0  0  0  0  0  0  0  0  0  0
   50.3462    9.6301   21.0396 C   0  0  0  0  0  0  0  0  0  0  0  0
   49.6768   10.7181   20.1888 C   0  0  0  0  0  0  0  0  0  0  0  0
   47.4551   11.7560   19.6035 N   0  0  0  0  0  0  0  0  0  0  0  0
   49.2080    7.1019   22.0147 C   0  0  0  0  0  0  0  0  0  0  0  0
   52.6194    9.0492   19.3252 C   0  0  0  0  0  0  0  0  0  0  0  0
   48.1423   10.6179   20.2511 C   0  0  0  0  0  0  0  0  0  0  0  0
   47.5816    5.9366   20.0998 C   0  0  0  0  0  0  0  0  0  0  0  0
   52.4634    7.2314   17.2700 C   0  0  0  0  0  0  0  0  0  0  0  0
   47.6532   11.7407   18.1472 C   0  0  0  0  0  0  0  0  0  0  0  0
   46.0190   11.6870   19.8993 C   0  0  0  0  0  0  0  0  0  0  0  0
   53.6606    8.9605   18.3927 C   0  0  0  0  0  0  0  0  0  0  0  0
   48.1684    6.2525   22.4054 C   0  0  0  0  0  0  0  0  0  0  0  0
   53.5910    8.0342   17.3643 C   0  0  0  0  0  0  0  0  0  0  0  0
   47.3529    5.6719   21.4481 C   0  0  0  0  0  0  0  0  0  0  0  0
   51.4178    4.8886   17.5240 H   0  0  0  0  0  0  0  0  0  0  0  0
   49.7260    5.0870   17.9457 H   0  0  0  0  0  0  0  0  0  0  0  0
   51.6231    4.6319   19.7664 H   0  0  0  0  0  0  0  0  0  0  0  0
   51.9655    6.3477   19.6791 H   0  0  0  0  0  0  0  0  0  0  0  0
   50.2066   10.0793   19.8130 H   0  0  0  0  0  0  0  0  0  0  0  0
   49.2221    9.3476   21.0152 H   0  0  0  0  0  0  0  0  0  0  0  0
   48.2421   10.5061   18.3512 H   0  0  0  0  0  0  0  0  0  0  0  0
   47.2458    9.4054   19.2602 H   0  0  0  0  0  0  0  0  0  0  0  0
   47.3476    7.9334   20.8855 H   0  0  0  0  0  0  0  0  0  0  0  0
   50.2249   10.2511   17.7290 H   0  0  0  0  0  0  0  0  0  0  0  0
   47.2205   10.9194   21.2076 H   0  0  0  0  0  0  0  0  0  0  0  0
   46.6618   11.6742   19.7451 H   0  0  0  0  0  0  0  0  0  0  0  0
   50.2915    4.0273   21.4833 H   0  0  0  0  0  0  0  0  0  0  0  0
   51.5773    6.0294   15.6149 H   0  0  0  0  0  0  0  0  0  0  0  0
   49.8902   13.1657   21.8405 H   0  0  0  0  0  0  0  0  0  0  0  0
   49.7683   11.4156   21.8475 H   0  0  0  0  0  0  0  0  0  0  0  0
   48.4485   12.3920   22.5244 H   0  0  0  0  0  0  0  0  0  0  0  0
   48.6901   14.4801   20.2826 H   0  0  0  0  0  0  0  0  0  0  0  0
   47.5273   13.7694   19.1744 H   0  0  0  0  0  0  0  0  0  0  0  0
   47.1421   13.8730   20.9099 H   0  0  0  0  0  0  0  0  0  0  0  0
   51.2007   10.2735   15.5489 H   0  0  0  0  0  0  0  0  0  0  0  0
   46.7961    6.2467   22.5440 H   0  0  0  0  0  0  0  0  0  0  0  0
   51.8576    8.1599   14.4285 H   0  0  0  0  0  0  0  0  0  0  0  0
   48.2822    4.2854   22.8788 H   0  0  0  0  0  0  0  0  0  0  0  0
   49.5482    9.1013   17.3809 H   0  0  0  0  0  0  0  0  0  0  0  0
   51.0406    9.6767   18.0549 H   0  0  0  0  0  0  0  0  0  0  0  0
   51.1906    4.0275   19.7252 H   0  0  0  0  0  0  0  0  0  0  0  0
   47.3926   12.4678   21.6899 H   0  0  0  0  0  0  0  0  0  0  0  0
   53.5663    7.8492   19.0521 H   0  0  0  0  0  0  0  0  0  0  0  0
   49.5556    8.4988   22.0817 H   0  0  0  0  0  0  0  0  0  0  0  0
   54.5059    4.2241   20.1956 H   0  0  0  0  0  0  0  0  0  0  0  0
   47.8717   10.9336   24.6259 H   0  0  0  0  0  0  0  0  0  0  0  0
   47.6578    8.0503   18.2579 H   0  0  0  0  0  0  0  0  0  0  0  0
   49.3727   11.1030   16.6854 H   0  0  0  0  0  0  0  0  0  0  0  0
   48.8609    3.4400   19.5808 H   0  0  0  0  0  0  0  0  0  0  0  0
   46.9035   13.9603   19.8719 H   0  0  0  0  0  0  0  0  0  0  0  0
   48.2961   13.1335   15.9157 H   0  0  0  0  0  0  0  0  0  0  0  0
   45.9223    6.3566   18.4999 H   0  0  0  0  0  0  0  0  0  0  0  0
   47.0499   14.5828   17.5007 H   0  0  0  0  0  0  0  0  0  0  0  0
   46.5153    4.0399   19.1619 H   0  0  0  0  0  0  0  0  0  0  0  0
   50.2018    6.2254   16.8037 H   0  0  0  0  0  0  0  0  0  0  0  0
   50.3846    5.4649   18.3875 H   0  0  0  0  0  0  0  0  0  0  0  0
   48.7912    8.0909   18.0013 H   0  0  0  0  0  0  0  0  0  0  0  0
   48.0901    6.5215   17.6497 H   0  0  0  0  0  0  0  0  0  0  0  0
   51.3208    9.9820   21.3936 H   0  0  0  0  0  0  0  0  0  0  0  0
   49.7822    9.5350   21.9768 H   0  0  0  0  0  0  0  0  0  0  0  0
   50.0267   10.6734   19.1525 H   0  0  0  0  0  0  0  0  0  0  0  0
   49.9724   11.6957   20.5872 H   0  0  0  0  0  0  0  0  0  0  0  0
   49.8480    7.5172   22.7924 H   0  0  0  0  0  0  0  0  0  0  0  0
   52.7774    9.7759   20.1146 H   0  0  0  0  0  0  0  0  0  0  0  0
   47.8595   10.6116   21.3089 H   0  0  0  0  0  0  0  0  0  0  0  0
   47.8008    9.6685   19.8262 H   0  0  0  0  0  0  0  0  0  0  0  0
   46.9569    5.4489   19.3513 H   0  0  0  0  0  0  0  0  0  0  0  0
   52.4183    6.5075   16.4532 H   0  0  0  0  0  0  0  0  0  0  0  0
   47.3416   10.7940   17.7016 H   0  0  0  0  0  0  0  0  0  0  0  0
   48.7022   11.9285   17.8891 H   0  0  0  0  0  0  0  0  0  0  0  0
   47.0809   12.5455   17.6718 H   0  0  0  0  0  0  0  0  0  0  0  0
   45.8450   11.7480   20.9806 H   0  0  0  0  0  0  0  0  0  0  0  0
   45.4910   12.5356   19.4505 H   0  0  0  0  0  0  0  0  0  0  0  0
   45.5593   10.7634   19.5276 H   0  0  0  0  0  0  0  0  0  0  0  0
   54.5357    9.5999   18.4886 H   0  0  0  0  0  0  0  0  0  0  0  0
   47.9989    6.0456   23.4631 H   0  0  0  0  0  0  0  0  0  0  0  0
   54.3999    7.9397   16.6445 H   0  0  0  0  0  0  0  0  0  0  0  0
   46.5495    5.0039   21.7439 H   0  0  0  0  0  0  0  0  0  0  0  0
  2  1  1  0
  3  1  1  0
  4  2  2  0
  5  3  2  0
  6  4  1  0
  7  5  1  0
  8  1  1  0
  9  8  1  0
 10 13  1  0
 11  3  1  0
 12  2  1  0
 13  9  1  0
 14  5  1  0
 15  4  1  0
 16 10  1  0
 17 10  1  0
 18 12  2  0
 19 11  2  0
 20 15  2  0
 21 14  2  0
  6  7  1  0
 18 20  1  0
 19 21  1  0
 23 27  2  0
 24 28  1  0
 25 26  1  0
 26 22  2  0
 27 24  1  0
 28 25  1  0
 29 22  1  0
 30 23  1  0
 31 22  1  0
 32 23  1  0
 33 24  2  0
 34 35  1  0
 35 29  2  0
 36 33  1  0
 37 31  2  0
 38 32  2  0
 39 26  1  0
 40 27  1  0
 41 31  1  0
 42 32  1  0
 43 34  1  0
 44 33  1  0
 45 35  1  0
 46 36  1  0
 47 44  2  0
 48 43  2  0
 49 47  1  0
 50 45  2  0
 25 34  2  0
 48 50  1  0
 30 36  2  0
 46 49  2  0
 52 51  1  0
 53 51  1  0
 54 52  2  0
 55 53  2  0
 56 54  1  0
 57 55  1  0
 58 51  1  0
 59 58  1  0
 60 63  1  0
 61 53  1  0
 62 52  1  0
 63 59  1  0
 64 55  1  0
 65 54  1  0
 66 60  1  0
 67 60  1  0
 68 62  2  0
 69 61  2  0
 70 65  2  0
 71 64  2  0
 56 57  1  0
 68 70  1  0
 69 71  1  0
  6 72  1  0
  6 73  1  0
  7 74  1  0
  7 75  1  0
  8 76  1  0
  8 77  1  0
  9 78  1  0
  9 79  1  0
 11 80  1  0
 12 81  1  0
 13 82  1  0
 13 83  1  0
 14 84  1  0
 15 85  1  0
 16 86  1  0
 16 87  1  0
 16 88  1  0
 17 89  1  0
 17 90  1  0
 17 91  1  0
 18 92  1  0
 19 93  1  0
 20 94  1  0
 21 95  1  0
 28 96  1  0
 28 97  1  0
 29 98  1  0
 30 99  1  0
 39100  1  0
 40101  1  0
 41102  1  0
 42103  1  0
 43104  1  0
 44105  1  0
 45106  1  0
 46107  1  0
 47108  1  0
 48109  1  0
 49110  1  0
 50111  1  0
 56112  1  0
 56113  1  0
 57114  1  0
 57115  1  0
 58116  1  0
 58117  1  0
 59118  1  0
 59119  1  0
 61120  1  0
 62121  1  0
 63122  1  0
 63123  1  0
 64124  1  0
 65125  1  0
 66126  1  0
 66127  1  0
 66128  1  0
 67129  1  0
 67130  1  0
 67131  1  0
 68132  1  0
 69133  1  0
 70134  1  0
 71135  1  0
M  END
> <Uni-Dock RESULT> 
ENERGY=   -6.544  LOWER_BOUND=    2.305  UPPER_BOUND=    6.783
INTER + INTRA:          -6.544
INTER:                  -6.544
INTRA:                   0.000
UNBOUND:                 0.000

$$$$

     RDKit          3D

135142  0  0  0  0  0  0  0  0999 V2000
   49.3561    7.5719   17.6377 N   0  0  0  0  0  0  0  0  0  0  0  0
   48.7138    6.2881   17.6987 C   0  0  0  0  0  0  0  0  0  0  0  0
   49.6908    8.5052   18.6783 C   0  0  0  0  0  0  0  0  0  0  0  0
   48.2344    5.6963   18.8955 C   0  0  0  0  0  0  0  0  0  0  0  0
   50.0482    8.1184   19.9848 C   0  0  0  0  0  0  0  0  0  0  0  0
   48.4973    6.2428   20.2775 C   0  0  0  0  0  0  0  0  0  0  0  0
   49.9419    6.6898   20.4344 C   0  0  0  0  0  0  0  0  0  0  0  0
   49.9750    7.9480   16.3315 C   0  0  0  0  0  0  0  0  0  0  0  0
   48.9600    8.5531   15.3489 C   0  0  0  0  0  0  0  0  0  0  0  0
   50.4770    8.4554   13.3531 N   0  0  0  0  0  0  0  0  0  0  0  0
   49.7101    9.8949   18.4172 C   0  0  0  0  0  0  0  0  0  0  0  0
   48.4801    5.5260   16.5264 C   0  0  0  0  0  0  0  0  0  0  0  0
   49.6078    9.3063   14.1812 C   0  0  0  0  0  0  0  0  0  0  0  0
   50.4774    9.0711   20.9361 C   0  0  0  0  0  0  0  0  0  0  0  0
   47.4719    4.4988   18.8616 C   0  0  0  0  0  0  0  0  0  0  0  0
   51.8919    8.7121   13.6270 C   0  0  0  0  0  0  0  0  0  0  0  0
   50.2200    8.6695   11.9260 C   0  0  0  0  0  0  0  0  0  0  0  0
   47.7565    4.3271   16.5056 C   0  0  0  0  0  0  0  0  0  0  0  0
   50.1164   10.8406   19.3663 C   0  0  0  0  0  0  0  0  0  0  0  0
   47.2321    3.8192   17.6776 C   0  0  0  0  0  0  0  0  0  0  0  0
   50.5178   10.4239   20.6275 C   0  0  0  0  0  0  0  0  0  0  0  0
   50.3105    5.8730   20.2201 C   0  0  0  0  0  0  0  0  0  0  0  0
   51.0746    9.3469   15.1160 C   0  0  0  0  0  0  0  0  0  0  0  0
   49.6050    7.4627   15.6722 C   0  0  0  0  0  0  0  0  0  0  0  0
   49.2282    6.5918   18.1478 C   0  0  0  0  0  0  0  0  0  0  0  0
   50.0863    5.7166   18.8455 C   0  0  0  0  0  0  0  0  0  0  0  0
   50.6222    8.3770   16.0270 C   0  0  0  0  0  0  0  0  0  0  0  0
   49.0487    6.4193   16.6442 C   0  0  0  0  0  0  0  0  0  0  0  0
   49.6486    6.8901   20.9161 C   0  0  0  0  0  0  0  0  0  0  0  0
   50.5552    9.3773   13.8201 C   0  0  0  0  0  0  0  0  0  0  0  0
   51.2481    4.9640   20.9222 C   0  0  0  0  0  0  0  0  0  0  0  0
   52.0876   10.3454   15.5344 C   0  0  0  0  0  0  0  0  0  0  0  0
   49.0792    7.4957   14.3315 C   0  0  0  0  0  0  0  0  0  0  0  0
   48.5496    7.6302   18.8612 C   0  0  0  0  0  0  0  0  0  0  0  0
   48.7775    7.7648   20.2560 C   0  0  0  0  0  0  0  0  0  0  0  0
   49.5689    8.4707   13.4226 C   0  0  0  0  0  0  0  0  0  0  0  0
   51.8441    4.0395   20.3906 O   0  0  0  0  0  0  0  0  0  0  0  0
   52.4032   10.5603   16.6950 O   0  0  0  0  0  0  0  0  0  0  0  0
   50.6909    4.7128   18.1251 O   0  0  0  0  0  0  0  0  0  0  0  0
   51.1858    8.2988   17.2769 O   0  0  0  0  0  0  0  0  0  0  0  0
   51.4208    5.2482   22.2230 O   0  0  0  0  0  0  0  0  0  0  0  0
   52.6438   11.0247   14.5178 O   0  0  0  0  0  0  0  0  0  0  0  0
   47.6626    8.5534   18.2624 C   0  0  0  0  0  0  0  0  0  0  0  0
   48.0863    6.6129   13.8372 C   0  0  0  0  0  0  0  0  0  0  0  0
   48.1430    8.7845   20.9836 C   0  0  0  0  0  0  0  0  0  0  0  0
   49.0688    8.5419   12.1116 C   0  0  0  0  0  0  0  0  0  0  0  0
   47.5961    6.6923   12.5322 C   0  0  0  0  0  0  0  0  0  0  0  0
   47.0369    9.5635   18.9960 C   0  0  0  0  0  0  0  0  0  0  0  0
   48.0889    7.6573   11.6669 C   0  0  0  0  0  0  0  0  0  0  0  0
   47.2771    9.6762   20.3599 C   0  0  0  0  0  0  0  0  0  0  0  0
   50.7197    7.3776   17.6790 N   0  0  0  0  0  0  0  0  0  0  0  0
   50.3966    6.0020   17.8957 C   0  0  0  0  0  0  0  0  0  0  0  0
   50.2638    8.5240   18.3862 C   0  0  0  0  0  0  0  0  0  0  0  0
   49.3043    5.5475   18.6799 C   0  0  0  0  0  0  0  0  0  0  0  0
   48.9194    8.7181   18.7385 C   0  0  0  0  0  0  0  0  0  0  0  0
   48.2490    6.4316   19.2886 C   0  0  0  0  0  0  0  0  0  0  0  0
   47.9037    7.6503   18.4559 C   0  0  0  0  0  0  0  0  0  0  0  0
   51.4814    7.7346   16.4533 C   0  0  0  0  0  0  0  0  0  0  0  0
   50.6236    7.6462   15.1836 C   0  0  0  0  0  0  0  0  0  0  0  0
   49.1182    8.9708   13.6556 N   0  0  0  0  0  0  0  0  0  0  0  0
   51.1771    9.5391   18.7531 C   0  0  0  0  0  0  0  0  0  0  0  0
   51.2288    4.9863   17.3628 C   0  0  0  0  0  0  0  0  0  0  0  0
   49.8111    8.9343   14.9615 C   0  0  0  0  0  0  0  0  0  0  0  0
   48.5063    9.9000   19.3906 C   0  0  0  0  0  0  0  0  0  0  0  0
   49.1313    4.1625   18.9358 C   0  0  0  0  0  0  0  0  0  0  0  0
   48.0391    7.9746   13.5957 C   0  0  0  0  0  0  0  0  0  0  0  0
   48.5558   10.3098   13.4426 C   0  0  0  0  0  0  0  0  0  0  0  0
   51.0263    3.6201   17.5949 C   0  0  0  0  0  0  0  0  0  0  0  0
   50.7645   10.7125   19.3918 C   0  0  0  0  0  0  0  0  0  0  0  0
   49.9783    3.2031   18.4000 C   0  0  0  0  0  0  0  0  0  0  0  0
   49.4283   10.8946   19.7080 C   0  0  0  0  0  0  0  0  0  0  0  0
   48.3256    5.4534   21.0168 H   0  0  0  0  0  0  0  0  0  0  0  0
   47.7747    7.0372   20.4994 H   0  0  0  0  0  0  0  0  0  0  0  0
   50.2157    6.6111   21.4900 H   0  0  0  0  0  0  0  0  0  0  0  0
   50.6531    6.0643   19.8842 H   0  0  0  0  0  0  0  0  0  0  0  0
   50.4901    7.0838   15.8879 H   0  0  0  0  0  0  0  0  0  0  0  0
   50.7903    8.6647   16.4886 H   0  0  0  0  0  0  0  0  0  0  0  0
   48.2989    7.7745   14.9392 H   0  0  0  0  0  0  0  0  0  0  0  0
   48.2852    9.2435   15.8734 H   0  0  0  0  0  0  0  0  0  0  0  0
   49.3894   10.2852   17.4590 H   0  0  0  0  0  0  0  0  0  0  0  0
   48.8362    5.8477   15.5574 H   0  0  0  0  0  0  0  0  0  0  0  0
   50.1385   10.1907   14.5494 H   0  0  0  0  0  0  0  0  0  0  0  0
   48.7816    9.7035   13.5787 H   0  0  0  0  0  0  0  0  0  0  0  0
   50.7674    8.7521   21.9347 H   0  0  0  0  0  0  0  0  0  0  0  0
   47.0724    4.0797   19.7864 H   0  0  0  0  0  0  0  0  0  0  0  0
   52.5418    8.1108   12.9771 H   0  0  0  0  0  0  0  0  0  0  0  0
   52.1540    8.4376   14.6566 H   0  0  0  0  0  0  0  0  0  0  0  0
   52.1607    9.7680   13.4804 H   0  0  0  0  0  0  0  0  0  0  0  0
   50.8586    8.0150   11.3179 H   0  0  0  0  0  0  0  0  0  0  0  0
   49.1842    8.4075   11.6753 H   0  0  0  0  0  0  0  0  0  0  0  0
   50.4040    9.7042   11.6319 H   0  0  0  0  0  0  0  0  0  0  0  0
   47.6031    3.8020   15.5674 H   0  0  0  0  0  0  0  0  0  0  0  0
   50.1211   11.9014   19.1181 H   0  0  0  0  0  0  0  0  0  0  0  0
   46.6585    2.8974   17.6754 H   0  0  0  0  0  0  0  0  0  0  0  0
   50.8455   11.1451   21.3698 H   0  0  0  0  0  0  0  0  0  0  0  0
   47.9660    6.3412   16.5063 H   0  0  0  0  0  0  0  0  0  0  0  0
   49.4431    5.4501   16.3157 H   0  0  0  0  0  0  0  0  0  0  0  0
   49.8314    7.0141   21.9839 H   0  0  0  0  0  0  0  0  0  0  0  0
   50.9146   10.1308   13.1162 H   0  0  0  0  0  0  0  0  0  0  0  0
   51.3038    4.2182   18.7102 H   0  0  0  0  0  0  0  0  0  0  0  0
   51.6834    9.1179   17.4714 H   0  0  0  0  0  0  0  0  0  0  0  0
   52.0754    4.5819   22.5318 H   0  0  0  0  0  0  0  0  0  0  0  0
   53.2815   11.6302   14.9473 H   0  0  0  0  0  0  0  0  0  0  0  0
   47.4434    8.5075   17.2002 H   0  0  0  0  0  0  0  0  0  0  0  0
   47.6767    5.8262   14.4637 H   0  0  0  0  0  0  0  0  0  0  0  0
   48.3222    8.8879   22.0516 H   0  0  0  0  0  0  0  0  0  0  0  0
   49.4442    9.2883   11.4132 H   0  0  0  0  0  0  0  0  0  0  0  0
   46.8366    5.9926   12.1963 H   0  0  0  0  0  0  0  0  0  0  0  0
   46.3694   10.2656   18.5021 H   0  0  0  0  0  0  0  0  0  0  0  0
   47.7111    7.7255   10.6478 H   0  0  0  0  0  0  0  0  0  0  0  0
   46.8024   10.4645   20.9372 H   0  0  0  0  0  0  0  0  0  0  0  0
   47.3195    5.8497   19.3997 H   0  0  0  0  0  0  0  0  0  0  0  0
   48.5673    6.7110   20.3060 H   0  0  0  0  0  0  0  0  0  0  0  0
   47.8659    7.4392   17.3800 H   0  0  0  0  0  0  0  0  0  0  0  0
   46.9011    8.0042   18.7320 H   0  0  0  0  0  0  0  0  0  0  0  0
   52.3715    7.1061   16.3451 H   0  0  0  0  0  0  0  0  0  0  0  0
   51.9160    8.7417   16.5017 H   0  0  0  0  0  0  0  0  0  0  0  0
   49.9644    6.7729   15.2182 H   0  0  0  0  0  0  0  0  0  0  0  0
   51.2928    7.5115   14.3259 H   0  0  0  0  0  0  0  0  0  0  0  0
   52.2396    9.4165   18.5464 H   0  0  0  0  0  0  0  0  0  0  0  0
   52.0938    5.2199   16.7516 H   0  0  0  0  0  0  0  0  0  0  0  0
   50.5153    9.7723   14.9925 H   0  0  0  0  0  0  0  0  0  0  0  0
   49.1003    9.0872   15.7799 H   0  0  0  0  0  0  0  0  0  0  0  0
   47.4623   10.0363   19.6733 H   0  0  0  0  0  0  0  0  0  0  0  0
   48.3067    3.8216   19.5659 H   0  0  0  0  0  0  0  0  0  0  0  0
   47.3284    8.0911   14.4162 H   0  0  0  0  0  0  0  0  0  0  0  0
   48.4414    6.9547   13.6141 H   0  0  0  0  0  0  0  0  0  0  0  0
   47.4874    8.0601   12.6525 H   0  0  0  0  0  0  0  0  0  0  0  0
   49.3514   11.0647   13.4329 H   0  0  0  0  0  0  0  0  0  0  0  0
   48.0583   10.3692   12.4683 H   0  0  0  0  0  0  0  0  0  0  0  0
   47.8280   10.5854   14.2151 H   0  0  0  0  0  0  0  0  0  0  0  0
   51.7052    2.8865   17.1650 H   0  0  0  0  0  0  0  0  0  0  0  0
   51.4935   11.4847   19.6422 H   0  0  0  0  0  0  0  0  0  0  0  0
   49.8200    2.1476   18.6056 H   0  0  0  0  0  0  0  0  0  0  0  0
   49.1023   11.7993   20.2124 H   0  0  0  0  0  0  0  0  0  0  0  0
  2  1  1  0
  3  1  1  0
  4  2  2  0
  5  3  2  0
  6  4  1  0
  7  5  1  0
  8  1  1  0
  9  8  1  0
 10 13  1  0
 11  3  1  0
 12  2  1  0
 13  9  1  0
 14  5  1  0
 15  4  1  0
 16 10  1  0
 17 10  1  0
 18 12  2  0
 19 11  2  0
 20 15  2  0
 21 14  2  0
  6  7  1  0
 18 20  1  0
 19 21  1  0
 23 27  2  0
 24 28  1  0
 25 26  1  0
 26 22  2  0
 27 24  1  0
 28 25  1  0
 29 22  1  0
 30 23  1  0
 31 22  1  0
 32 23  1  0
 33 24  2  0
 34 35  1  0
 35 29  2  0
 36 33  1  0
 37 31  2  0
 38 32  2  0
 39 26  1  0
 40 27  1  0
 41 31  1  0
 42 32  1  0
 43 34  1  0
 44 33  1  0
 45 35  1  0
 46 36  1  0
 47 44  2  0
 48 43  2  0
 49 47  1  0
 50 45  2  0
 25 34  2  0
 48 50  1  0
 30 36  2  0
 46 49  2  0
 52 51  1  0
 53 51  1  0
 54 52  2  0
 55 53  2  0
 56 54  1  0
 57 55  1  0
 58 51  1  0
 59 58  1  0
 60 63  1  0
 61 53  1  0
 62 52  1  0
 63 59  1  0
 64 55  1  0
 65 54  1  0
 66 60  1  0
 67 60  1  0
 68 62  2  0
 69 61  2  0
 70 65  2  0
 71 64  2  0
 56 57  1  0
 68 70  1  0
 69 71  1  0
  6 72  1  0
  6 73  1  0
  7 74  1  0
  7 75  1  0
  8 76  1  0
  8 77  1  0
  9 78  1  0
  9 79  1  0
 11 80  1  0
 12 81  1  0
 13 82  1  0
 13 83  1  0
 14 84  1  0
 15 85  1  0
 16 86  1  0
 16 87  1  0
 16 88  1  0
 17 89  1  0
 17 90  1  0
 17 91  1  0
 18 92  1  0
 19 93  1  0
 20 94  1  0
 21 95  1  0
 28 96  1  0
 28 97  1  0
 29 98  1  0
 30 99  1  0
 39100  1  0
 40101  1  0
 41102  1  0
 42103  1  0
 43104  1  0
 44105  1  0
 45106  1  0
 46107  1  0
 47108  1  0
 48109  1  0
 49110  1  0
 50111  1  0
 56112  1  0
 56113  1  0
 57114  1  0
 57115  1  0
 58116  1  0
 58117  1  0
 59118  1  0
 59119  1  0
 61120  1  0
 62121  1  0
 63122  1  0
 63123  1  0
 64124  1  0
 65125  1  0
 66126  1  0
 66127  1  0
 66128  1  0
 67129  1  0
 67130  1  0
 67131  1  0
 68132  1  0
 69133  1  0
 70134  1  0
 71135  1  0
M  END
> <Uni-Dock RESULT> 
ENERGY=   -6.373  LOWER_BOUND=    2.767  UPPER_BOUND=    6.648
INTER + INTRA:          -6.373
INTER:                  -6.373
INTRA:                   0.000
UNBOUND:                 0.000

$$$$

     RDKit          3D

135142  0  0  0  0  0  0  0  0999 V2000
   51.1563    5.9713   18.2978 N   0  0  0  0  0  0  0  0  0  0  0  0
   51.3178    7.3956   18.2002 C   0  0  0  0  0  0  0  0  0  0  0  0
   50.0376    5.1284   17.9749 C   0  0  0  0  0  0  0  0  0  0  0  0
   50.3004    8.2819   17.7625 C   0  0  0  0  0  0  0  0  0  0  0  0
   49.1324    5.4031   16.9310 C   0  0  0  0  0  0  0  0  0  0  0  0
   48.9857    7.8385   17.1686 C   0  0  0  0  0  0  0  0  0  0  0  0
   49.1773    6.7013   16.1779 C   0  0  0  0  0  0  0  0  0  0  0  0
   52.3886    5.1769   18.5826 C   0  0  0  0  0  0  0  0  0  0  0  0
   52.7169    5.1127   20.0825 C   0  0  0  0  0  0  0  0  0  0  0  0
   55.0137    4.1498   19.7800 N   0  0  0  0  0  0  0  0  0  0  0  0
   49.8105    3.9309   18.6918 C   0  0  0  0  0  0  0  0  0  0  0  0
   52.5291    8.0263   18.5807 C   0  0  0  0  0  0  0  0  0  0  0  0
   53.7107    4.0039   20.4479 C   0  0  0  0  0  0  0  0  0  0  0  0
   48.1175    4.4831   16.5845 C   0  0  0  0  0  0  0  0  0  0  0  0
   50.4770    9.6889   17.8393 C   0  0  0  0  0  0  0  0  0  0  0  0
   55.1558    3.2003   18.6749 C   0  0  0  0  0  0  0  0  0  0  0  0
   56.1162    3.9513   20.7254 C   0  0  0  0  0  0  0  0  0  0  0  0
   52.7076    9.4148   18.6209 C   0  0  0  0  0  0  0  0  0  0  0  0
   48.7923    3.0289   18.3609 C   0  0  0  0  0  0  0  0  0  0  0  0
   51.6690   10.2528   18.2663 C   0  0  0  0  0  0  0  0  0  0  0  0
   47.9516    3.2995   17.2906 C   0  0  0  0  0  0  0  0  0  0  0  0
   49.7613    7.1584   15.6312 C   0  0  0  0  0  0  0  0  0  0  0  0
   53.3589    3.2802   18.9054 C   0  0  0  0  0  0  0  0  0  0  0  0
   53.0096    5.7081   18.9559 C   0  0  0  0  0  0  0  0  0  0  0  0
   50.9909    6.9142   17.7314 C   0  0  0  0  0  0  0  0  0  0  0  0
   50.9521    7.2566   16.3638 C   0  0  0  0  0  0  0  0  0  0  0  0
   52.7288    4.4350   18.4109 C   0  0  0  0  0  0  0  0  0  0  0  0
   52.3157    6.9872   18.4814 C   0  0  0  0  0  0  0  0  0  0  0  0
   48.5882    6.7470   16.2725 C   0  0  0  0  0  0  0  0  0  0  0  0
   54.3199    3.3914   19.9124 C   0  0  0  0  0  0  0  0  0  0  0  0
   49.7563    7.4865   14.1852 C   0  0  0  0  0  0  0  0  0  0  0  0
   52.9924    1.9463   18.3717 C   0  0  0  0  0  0  0  0  0  0  0  0
   54.0071    5.8156   19.9895 C   0  0  0  0  0  0  0  0  0  0  0  0
   49.7897    6.4960   18.3871 C   0  0  0  0  0  0  0  0  0  0  0  0
   48.5896    6.4161   17.6327 C   0  0  0  0  0  0  0  0  0  0  0  0
   54.6460    4.6366   20.4565 C   0  0  0  0  0  0  0  0  0  0  0  0
   50.7316    7.8747   13.5604 O   0  0  0  0  0  0  0  0  0  0  0  0
   52.0013    1.7259   17.6920 O   0  0  0  0  0  0  0  0  0  0  0  0
   52.1233    7.6853   15.7837 O   0  0  0  0  0  0  0  0  0  0  0  0
   51.8390    4.3346   17.3697 O   0  0  0  0  0  0  0  0  0  0  0  0
   48.5709    7.3014   13.5824 O   0  0  0  0  0  0  0  0  0  0  0  0
   53.8473    0.9656   18.7062 O   0  0  0  0  0  0  0  0  0  0  0  0
   49.7156    6.1402   19.7530 C   0  0  0  0  0  0  0  0  0  0  0  0
   54.4085    7.0337   20.5934 C   0  0  0  0  0  0  0  0  0  0  0  0
   47.3968    5.9913   18.2397 C   0  0  0  0  0  0  0  0  0  0  0  0
   55.6132    4.7017   21.4735 C   0  0  0  0  0  0  0  0  0  0  0  0
   55.3708    7.0873   21.6036 C   0  0  0  0  0  0  0  0  0  0  0  0
   48.5237    5.7192   20.3462 C   0  0  0  0  0  0  0  0  0  0  0  0
   55.9757    5.9198   22.0439 C   0  0  0  0  0  0  0  0  0  0  0  0
   47.3623    5.6475   19.5868 C   0  0  0  0  0  0  0  0  0  0  0  0
   51.6370    5.3994   17.1399 N   0  0  0  0  0  0  0  0  0  0  0  0
   51.7978    6.7448   16.6841 C   0  0  0  0  0  0  0  0  0  0  0  0
   50.4791    4.7699   17.6740 C   0  0  0  0  0  0  0  0  0  0  0  0
   50.8952    7.8025   16.9690 C   0  0  0  0  0  0  0  0  0  0  0  0
   49.6576    5.3756   18.6371 C   0  0  0  0  0  0  0  0  0  0  0  0
   49.7130    7.7052   17.8957 C   0  0  0  0  0  0  0  0  0  0  0  0
   49.9264    6.7837   19.0803 C   0  0  0  0  0  0  0  0  0  0  0  0
   52.8521    4.5526   17.2691 C   0  0  0  0  0  0  0  0  0  0  0  0
   53.7173    4.9491   18.4733 C   0  0  0  0  0  0  0  0  0  0  0  0
   54.1241    4.4899   20.9185 N   0  0  0  0  0  0  0  0  0  0  0  0
   50.1195    3.4706   17.2482 C   0  0  0  0  0  0  0  0  0  0  0  0
   52.8831    7.0810   15.8372 C   0  0  0  0  0  0  0  0  0  0  0  0
   53.2139    4.2909   19.7702 C   0  0  0  0  0  0  0  0  0  0  0  0
   48.5506    4.6872   19.1790 C   0  0  0  0  0  0  0  0  0  0  0  0
   51.0743    9.0788   16.3753 C   0  0  0  0  0  0  0  0  0  0  0  0
   54.1514    5.8976   21.3405 C   0  0  0  0  0  0  0  0  0  0  0  0
   53.6785    3.6549   22.0406 C   0  0  0  0  0  0  0  0  0  0  0  0
   53.0671    8.3550   15.2853 C   0  0  0  0  0  0  0  0  0  0  0  0
   49.0275    2.7875   17.7921 C   0  0  0  0  0  0  0  0  0  0  0  0
   52.1483    9.3598   15.5431 C   0  0  0  0  0  0  0  0  0  0  0  0
   48.2444    3.3945   18.7600 C   0  0  0  0  0  0  0  0  0  0  0  0
   48.5399    8.6718   16.6153 H   0  0  0  0  0  0  0  0  0  0  0  0
   48.2852    7.5926   17.9754 H   0  0  0  0  0  0  0  0  0  0  0  0
   48.3630    6.7365   15.4491 H   0  0  0  0  0  0  0  0  0  0  0  0
   50.1075    6.7760   15.6044 H   0  0  0  0  0  0  0  0  0  0  0  0
   53.2393    5.5686   18.0066 H   0  0  0  0  0  0  0  0  0  0  0  0
   52.2812    4.1558   18.1968 H   0  0  0  0  0  0  0  0  0  0  0  0
   53.1189    6.0736   20.4374 H   0  0  0  0  0  0  0  0  0  0  0  0
   51.7998    4.9613   20.6684 H   0  0  0  0  0  0  0  0  0  0  0  0
   50.4193    3.6724   19.5497 H   0  0  0  0  0  0  0  0  0  0  0  0
   53.3948    7.4573   18.8904 H   0  0  0  0  0  0  0  0  0  0  0  0
   53.2667    3.0207   20.2595 H   0  0  0  0  0  0  0  0  0  0  0  0
   53.8356    4.0530   21.5367 H   0  0  0  0  0  0  0  0  0  0  0  0
   47.4391    4.7033   15.7633 H   0  0  0  0  0  0  0  0  0  0  0  0
   49.6684   10.3577   17.5404 H   0  0  0  0  0  0  0  0  0  0  0  0
   56.1455    3.2769   18.2050 H   0  0  0  0  0  0  0  0  0  0  0  0
   54.4259    3.4021   17.8808 H   0  0  0  0  0  0  0  0  0  0  0  0
   55.0218    2.1586   18.9998 H   0  0  0  0  0  0  0  0  0  0  0  0
   57.0831    4.0829   20.2215 H   0  0  0  0  0  0  0  0  0  0  0  0
   56.0813    4.7024   21.5246 H   0  0  0  0  0  0  0  0  0  0  0  0
   56.0914    2.9566   21.1737 H   0  0  0  0  0  0  0  0  0  0  0  0
   53.6598    9.8307   18.9368 H   0  0  0  0  0  0  0  0  0  0  0  0
   48.6587    2.1147   18.9383 H   0  0  0  0  0  0  0  0  0  0  0  0
   51.7884   11.3313   18.3041 H   0  0  0  0  0  0  0  0  0  0  0  0
   47.1646    2.6040   17.0159 H   0  0  0  0  0  0  0  0  0  0  0  0
   52.1042    7.6232   19.3464 H   0  0  0  0  0  0  0  0  0  0  0  0
   53.0598    7.5446   17.8997 H   0  0  0  0  0  0  0  0  0  0  0  0
   47.6652    6.6639   15.6979 H   0  0  0  0  0  0  0  0  0  0  0  0
   54.8087    2.4904   20.2887 H   0  0  0  0  0  0  0  0  0  0  0  0
   51.9755    7.8308   14.8247 H   0  0  0  0  0  0  0  0  0  0  0  0
   51.5590    3.4043   17.2574 H   0  0  0  0  0  0  0  0  0  0  0  0
   48.7381    7.5366   12.6419 H   0  0  0  0  0  0  0  0  0  0  0  0
   53.4778    0.1637   18.2840 H   0  0  0  0  0  0  0  0  0  0  0  0
   50.5955    6.1785   20.3877 H   0  0  0  0  0  0  0  0  0  0  0  0
   53.9825    7.9809   20.2767 H   0  0  0  0  0  0  0  0  0  0  0  0
   46.4795    5.9272   17.6586 H   0  0  0  0  0  0  0  0  0  0  0  0
   56.1048    3.7985   21.8318 H   0  0  0  0  0  0  0  0  0  0  0  0
   55.6489    8.0441   22.0355 H   0  0  0  0  0  0  0  0  0  0  0  0
   48.5037    5.4405   21.3971 H   0  0  0  0  0  0  0  0  0  0  0  0
   56.7268    5.9537   22.8317 H   0  0  0  0  0  0  0  0  0  0  0  0
   46.4323    5.3121   20.0370 H   0  0  0  0  0  0  0  0  0  0  0  0
   49.5008    8.7058   18.3064 H   0  0  0  0  0  0  0  0  0  0  0  0
   48.8276    7.4136   17.3078 H   0  0  0  0  0  0  0  0  0  0  0  0
   50.9336    6.8600   19.5083 H   0  0  0  0  0  0  0  0  0  0  0  0
   49.2320    7.0625   19.8845 H   0  0  0  0  0  0  0  0  0  0  0  0
   53.4526    4.5823   16.3540 H   0  0  0  0  0  0  0  0  0  0  0  0
   52.6174    3.4835   17.3552 H   0  0  0  0  0  0  0  0  0  0  0  0
   53.7596    6.0376   18.5818 H   0  0  0  0  0  0  0  0  0  0  0  0
   54.7411    4.6032   18.2890 H   0  0  0  0  0  0  0  0  0  0  0  0
   50.6953    2.9742   16.4679 H   0  0  0  0  0  0  0  0  0  0  0  0
   53.6313    6.3498   15.5514 H   0  0  0  0  0  0  0  0  0  0  0  0
   53.1403    3.2148   19.5814 H   0  0  0  0  0  0  0  0  0  0  0  0
   52.2048    4.6397   20.0126 H   0  0  0  0  0  0  0  0  0  0  0  0
   47.9093    5.1705   19.9163 H   0  0  0  0  0  0  0  0  0  0  0  0
   50.3586    9.8797   16.5740 H   0  0  0  0  0  0  0  0  0  0  0  0
   53.1528    6.2769   21.5657 H   0  0  0  0  0  0  0  0  0  0  0  0
   54.6090    6.5317   20.5717 H   0  0  0  0  0  0  0  0  0  0  0  0
   54.7721    6.0199   22.2355 H   0  0  0  0  0  0  0  0  0  0  0  0
   53.6989    2.5940   21.7632 H   0  0  0  0  0  0  0  0  0  0  0  0
   54.3533    3.7661   22.8965 H   0  0  0  0  0  0  0  0  0  0  0  0
   52.6634    3.9056   22.3711 H   0  0  0  0  0  0  0  0  0  0  0  0
   53.9165    8.5507   14.6341 H   0  0  0  0  0  0  0  0  0  0  0  0
   48.7906    1.7773   17.4548 H   0  0  0  0  0  0  0  0  0  0  0  0
   52.2667   10.3479   15.1061 H   0  0  0  0  0  0  0  0  0  0  0  0
   47.3893    2.8736   19.1800 H   0  0  0  0  0  0  0  0  0  0  0  0
  2  1  1  0
  3  1  1  0
  4  2  2  0
  5  3  2  0
  6  4  1  0
  7  5  1  0
  8  1  1  0
  9  8  1  0
 10 13  1  0
 11  3  1  0
 12  2  1  0
 13  9  1  0
 14  5  1  0
 15  4  1  0
 16 10  1  0
 17 10  1  0
 18 12  2  0
 19 11  2  0
 20 15  2  0
 21 14  2  0
  6  7  1  0
 18 20  1  0
 19 21  1  0
 23 27  2  0
 24 28  1  0
 25 26  1  0
 26 22  2  0
 27 24  1  0
 28 25  1  0
 29 22  1  0
 30 23  1  0
 31 22  1  0
 32 23  1  0
 33 24  2  0
 34 35  1  0
 35 29  2  0
 36 33  1  0
 37 31  2  0
 38 32  2  0
 39 26  1  0
 40 27  1  0
 41 31  1  0
 42 32  1  0
 43 34  1  0
 44 33  1  0
 45 35  1  0
 46 36  1  0
 47 44  2  0
 48 43  2  0
 49 47  1  0
 50 45  2  0
 25 34  2  0
 48 50  1  0
 30 36  2  0
 46 49  2  0
 52 51  1  0
 53 51  1  0
 54 52  2  0
 55 53  2  0
 56 54  1  0
 57 55  1  0
 58 51  1  0
 59 58  1  0
 60 63  1  0
 61 53  1  0
 62 52  1  0
 63 59  1  0
 64 55  1  0
 65 54  1  0
 66 60  1  0
 67 60  1  0
 68 62  2  0
 69 61  2  0
 70 65  2  0
 71 64  2  0
 56 57  1  0
 68 70  1  0
 69 71  1  0
  6 72  1  0
  6 73  1  0
  7 74  1  0
  7 75  1  0
  8 76  1  0
  8 77  1  0
  9 78  1  0
  9 79  1  0
 11 80  1  0
 12 81  1  0
 13 82  1  0
 13 83  1  0
 14 84  1  0
 15 85  1  0
 16 86  1  0
 16 87  1  0
 16 88  1  0
 17 89  1  0
 17 90  1  0
 17 91  1  0
 18 92  1  0
 19 93  1  0
 20 94  1  0
 21 95  1  0
 28 96  1  0
 28 97  1  0
 29 98  1  0
 30 99  1  0
 39100  1  0
 40101  1  0
 41102  1  0
 42103  1  0
 43104  1  0
 44105  1  0
 45106  1  0
 46107  1  0
 47108  1  0
 48109  1  0
 49110  1  0
 50111  1  0
 56112  1  0
 56113  1  0
 57114  1  0
 57115  1  0
 58116  1  0
 58117  1  0
 59118  1  0
 59119  1  0
 61120  1  0
 62121  1  0
 63122  1  0
 63123  1  0
 64124  1  0
 65125  1  0
 66126  1  0
 66127  1  0
 66128  1  0
 67129  1  0
 67130  1  0
 67131  1  0
 68132  1  0
 69133  1  0
 70134  1  0
 71135  1  0
M  END
> <Uni-Dock RESULT> 
ENERGY=   -6.137  LOWER_BOUND=    2.498  UPPER_BOUND=    4.511
INTER + INTRA:          -6.137
INTER:                  -6.137
INTRA:                   0.000
UNBOUND:                 0.000

$$$$

     RDKit          3D

135142  0  0  0  0  0  0  0  0999 V2000
   52.4259    5.3495   19.5982 N   0  0  0  0  0  0  0  0  0  0  0  0
   53.1325    4.1147   19.3974 C   0  0  0  0  0  0  0  0  0  0  0  0
   52.6324    6.4057   20.5510 C   0  0  0  0  0  0  0  0  0  0  0  0
   54.2226    3.6846   20.1969 C   0  0  0  0  0  0  0  0  0  0  0  0
   53.8999    6.7695   21.0466 C   0  0  0  0  0  0  0  0  0  0  0  0
   54.9018    4.5405   21.2380 C   0  0  0  0  0  0  0  0  0  0  0  0
   55.1241    5.9579   20.7352 C   0  0  0  0  0  0  0  0  0  0  0  0
   51.4409    5.7348   18.5438 C   0  0  0  0  0  0  0  0  0  0  0  0
   50.0707    5.0680   18.7429 C   0  0  0  0  0  0  0  0  0  0  0  0
   49.1691    5.7047   16.4900 N   0  0  0  0  0  0  0  0  0  0  0  0
   51.5410    7.1725   21.0205 C   0  0  0  0  0  0  0  0  0  0  0  0
   52.7499    3.2054   18.3793 C   0  0  0  0  0  0  0  0  0  0  0  0
   48.9422    5.7301   17.9436 C   0  0  0  0  0  0  0  0  0  0  0  0
   54.0579    7.8887   21.8947 C   0  0  0  0  0  0  0  0  0  0  0  0
   54.7722    2.3845   20.0411 C   0  0  0  0  0  0  0  0  0  0  0  0
   49.5900    7.0158   15.9931 C   0  0  0  0  0  0  0  0  0  0  0  0
   47.9594    5.2883   15.7745 C   0  0  0  0  0  0  0  0  0  0  0  0
   53.3206    1.9377   18.2095 C   0  0  0  0  0  0  0  0  0  0  0  0
   51.6956    8.2692   21.8768 C   0  0  0  0  0  0  0  0  0  0  0  0
   54.3254    1.5160   19.0576 C   0  0  0  0  0  0  0  0  0  0  0  0
   52.9634    8.6388   22.3027 C   0  0  0  0  0  0  0  0  0  0  0  0
   55.6160    5.7128   19.9957 C   0  0  0  0  0  0  0  0  0  0  0  0
   49.9814    7.1134   17.7610 C   0  0  0  0  0  0  0  0  0  0  0  0
   51.1958    5.0056   18.0798 C   0  0  0  0  0  0  0  0  0  0  0  0
   53.3912    4.7986   19.5518 C   0  0  0  0  0  0  0  0  0  0  0  0
   54.6961    5.1173   19.1219 C   0  0  0  0  0  0  0  0  0  0  0  0
   51.1283    6.4139   18.1738 C   0  0  0  0  0  0  0  0  0  0  0  0
   52.4044    4.1973   18.5581 C   0  0  0  0  0  0  0  0  0  0  0  0
   55.2459    5.9642   21.3211 C   0  0  0  0  0  0  0  0  0  0  0  0
   48.9104    6.4179   17.1961 C   0  0  0  0  0  0  0  0  0  0  0  0
   56.9686    6.0742   19.5077 C   0  0  0  0  0  0  0  0  0  0  0  0
   49.9017    8.5830   17.9401 C   0  0  0  0  0  0  0  0  0  0  0  0
   50.0900    4.2959   17.4896 C   0  0  0  0  0  0  0  0  0  0  0  0
   53.0146    5.0538   20.9086 C   0  0  0  0  0  0  0  0  0  0  0  0
   53.9639    5.6443   21.7835 C   0  0  0  0  0  0  0  0  0  0  0  0
   48.9517    5.0278   17.0594 C   0  0  0  0  0  0  0  0  0  0  0  0
   57.3739    5.8656   18.3743 O   0  0  0  0  0  0  0  0  0  0  0  0
   50.6595    9.2322   18.6453 O   0  0  0  0  0  0  0  0  0  0  0  0
   55.0242    4.8234   17.8188 O   0  0  0  0  0  0  0  0  0  0  0  0
   52.2112    7.1044   18.6600 O   0  0  0  0  0  0  0  0  0  0  0  0
   57.7384    6.6871   20.4213 O   0  0  0  0  0  0  0  0  0  0  0  0
   48.9016    9.1672   17.2597 O   0  0  0  0  0  0  0  0  0  0  0  0
   51.7389    4.7647   21.4442 C   0  0  0  0  0  0  0  0  0  0  0  0
   50.0461    2.8913   17.3027 C   0  0  0  0  0  0  0  0  0  0  0  0
   53.6220    5.9260   23.1160 C   0  0  0  0  0  0  0  0  0  0  0  0
   47.8486    4.3675   16.4926 C   0  0  0  0  0  0  0  0  0  0  0  0
   48.9447    2.2450   16.7382 C   0  0  0  0  0  0  0  0  0  0  0  0
   51.4099    5.0490   22.7711 C   0  0  0  0  0  0  0  0  0  0  0  0
   47.8443    2.9839   16.3309 C   0  0  0  0  0  0  0  0  0  0  0  0
   52.3556    5.6288   23.6079 C   0  0  0  0  0  0  0  0  0  0  0  0
   52.9669    6.3005   18.7605 N   0  0  0  0  0  0  0  0  0  0  0  0
   53.9326    5.2963   18.4401 C   0  0  0  0  0  0  0  0  0  0  0  0
   52.5776    6.7898   20.0378 C   0  0  0  0  0  0  0  0  0  0  0  0
   54.4715    4.3733   19.3741 C   0  0  0  0  0  0  0  0  0  0  0  0
   52.3170    5.9481   21.1299 C   0  0  0  0  0  0  0  0  0  0  0  0
   54.0171    4.2213   20.8011 C   0  0  0  0  0  0  0  0  0  0  0  0
   52.5363    4.4684   21.0112 C   0  0  0  0  0  0  0  0  0  0  0  0
   52.0908    6.8045   17.6703 C   0  0  0  0  0  0  0  0  0  0  0  0
   51.0209    5.7838   17.2591 C   0  0  0  0  0  0  0  0  0  0  0  0
   48.6582    5.0282   17.7085 N   0  0  0  0  0  0  0  0  0  0  0  0
   52.4230    8.1796   20.2465 C   0  0  0  0  0  0  0  0  0  0  0  0
   54.4635    5.2168   17.1287 C   0  0  0  0  0  0  0  0  0  0  0  0
   49.7891    5.8568   18.1788 C   0  0  0  0  0  0  0  0  0  0  0  0
   51.8779    6.4780   22.3625 C   0  0  0  0  0  0  0  0  0  0  0  0
   55.5129    3.4891   18.9906 C   0  0  0  0  0  0  0  0  0  0  0  0
   48.9680    3.5950   17.8098 C   0  0  0  0  0  0  0  0  0  0  0  0
   47.4697    5.3268   18.5165 C   0  0  0  0  0  0  0  0  0  0  0  0
   55.4677    4.3150   16.7547 C   0  0  0  0  0  0  0  0  0  0  0  0
   51.9803    8.7017   21.4657 C   0  0  0  0  0  0  0  0  0  0  0  0
   56.0090    3.4533   17.6954 C   0  0  0  0  0  0  0  0  0  0  0  0
   51.7047    7.8507   22.5232 C   0  0  0  0  0  0  0  0  0  0  0  0
   55.8891    4.1226   21.4611 H   0  0  0  0  0  0  0  0  0  0  0  0
   54.3302    4.5004   22.1729 H   0  0  0  0  0  0  0  0  0  0  0  0
   55.9900    6.3773   21.2546 H   0  0  0  0  0  0  0  0  0  0  0  0
   55.3520    6.0093   19.6651 H   0  0  0  0  0  0  0  0  0  0  0  0
   51.8451    5.5202   17.5441 H   0  0  0  0  0  0  0  0  0  0  0  0
   51.3086    6.8235   18.5257 H   0  0  0  0  0  0  0  0  0  0  0  0
   50.1108    4.0017   18.4740 H   0  0  0  0  0  0  0  0  0  0  0  0
   49.7923    5.0767   19.8058 H   0  0  0  0  0  0  0  0  0  0  0  0
   50.5247    6.9227   20.7406 H   0  0  0  0  0  0  0  0  0  0  0  0
   51.9621    3.4365   17.6757 H   0  0  0  0  0  0  0  0  0  0  0  0
   48.7667    6.7475   18.3087 H   0  0  0  0  0  0  0  0  0  0  0  0
   48.0274    5.1788   18.1938 H   0  0  0  0  0  0  0  0  0  0  0  0
   55.0467    8.1661   22.2529 H   0  0  0  0  0  0  0  0  0  0  0  0
   55.5811    2.0520   20.6934 H   0  0  0  0  0  0  0  0  0  0  0  0
   49.7152    7.0099   14.9019 H   0  0  0  0  0  0  0  0  0  0  0  0
   50.5633    7.3050   16.4091 H   0  0  0  0  0  0  0  0  0  0  0  0
   48.8684    7.8074   16.2405 H   0  0  0  0  0  0  0  0  0  0  0  0
   48.1456    5.2526   14.6929 H   0  0  0  0  0  0  0  0  0  0  0  0
   47.6650    4.2731   16.0694 H   0  0  0  0  0  0  0  0  0  0  0  0
   47.1249    5.9665   15.9606 H   0  0  0  0  0  0  0  0  0  0  0  0
   52.9680    1.2857   17.4158 H   0  0  0  0  0  0  0  0  0  0  0  0
   50.8254    8.8350   22.2079 H   0  0  0  0  0  0  0  0  0  0  0  0
   54.7689    0.5314   18.9461 H   0  0  0  0  0  0  0  0  0  0  0  0
   53.0993    9.4935   22.9581 H   0  0  0  0  0  0  0  0  0  0  0  0
   52.0545    3.2806   19.0426 H   0  0  0  0  0  0  0  0  0  0  0  0
   52.9241    3.8553   17.6549 H   0  0  0  0  0  0  0  0  0  0  0  0
   55.9612    6.4350   21.9961 H   0  0  0  0  0  0  0  0  0  0  0  0
   48.0242    6.9684   16.8734 H   0  0  0  0  0  0  0  0  0  0  0  0
   55.9309    5.1484   17.6319 H   0  0  0  0  0  0  0  0  0  0  0  0
   51.9481    8.0164   18.8958 H   0  0  0  0  0  0  0  0  0  0  0  0
   58.5769    6.8772   19.9433 H   0  0  0  0  0  0  0  0  0  0  0  0
   48.9826   10.1188   17.4735 H   0  0  0  0  0  0  0  0  0  0  0  0
   50.9658    4.3129   20.8305 H   0  0  0  0  0  0  0  0  0  0  0  0
   50.8859    2.2639   17.5859 H   0  0  0  0  0  0  0  0  0  0  0  0
   54.3499    6.3820   23.7834 H   0  0  0  0  0  0  0  0  0  0  0  0
   46.9756    4.9276   16.1612 H   0  0  0  0  0  0  0  0  0  0  0  0
   48.9567    1.1664   16.6120 H   0  0  0  0  0  0  0  0  0  0  0  0
   50.4149    4.8254   23.1485 H   0  0  0  0  0  0  0  0  0  0  0  0
   46.9815    2.4866   15.8902 H   0  0  0  0  0  0  0  0  0  0  0  0
   52.1060    5.8624   24.6390 H   0  0  0  0  0  0  0  0  0  0  0  0
   54.2158    3.1878   21.1286 H   0  0  0  0  0  0  0  0  0  0  0  0
   54.6332    4.8759   21.4386 H   0  0  0  0  0  0  0  0  0  0  0  0
   51.9135    4.0568   20.2074 H   0  0  0  0  0  0  0  0  0  0  0  0
   52.2137    3.9666   21.9336 H   0  0  0  0  0  0  0  0  0  0  0  0
   52.6798    7.0988   16.7954 H   0  0  0  0  0  0  0  0  0  0  0  0
   51.5842    7.7428   17.9321 H   0  0  0  0  0  0  0  0  0  0  0  0
   51.4342    4.7702   17.2438 H   0  0  0  0  0  0  0  0  0  0  0  0
   50.6994    6.0165   16.2372 H   0  0  0  0  0  0  0  0  0  0  0  0
   52.6587    8.8802   19.4463 H   0  0  0  0  0  0  0  0  0  0  0  0
   54.1268    5.8760   16.3361 H   0  0  0  0  0  0  0  0  0  0  0  0
   49.4576    6.9003   18.1960 H   0  0  0  0  0  0  0  0  0  0  0  0
   50.0595    5.5932   19.2064 H   0  0  0  0  0  0  0  0  0  0  0  0
   51.6915    5.8181   23.2099 H   0  0  0  0  0  0  0  0  0  0  0  0
   55.9448    2.8027   19.7224 H   0  0  0  0  0  0  0  0  0  0  0  0
   49.2639    3.3107   18.8215 H   0  0  0  0  0  0  0  0  0  0  0  0
   49.7655    3.3128   17.1122 H   0  0  0  0  0  0  0  0  0  0  0  0
   48.0978    2.9915   17.5272 H   0  0  0  0  0  0  0  0  0  0  0  0
   47.1902    6.3825   18.4153 H   0  0  0  0  0  0  0  0  0  0  0  0
   46.6102    4.7424   18.1699 H   0  0  0  0  0  0  0  0  0  0  0  0
   47.6225    5.1109   19.5808 H   0  0  0  0  0  0  0  0  0  0  0  0
   55.8418    4.3069   15.7330 H   0  0  0  0  0  0  0  0  0  0  0  0
   51.8523    9.7786   21.5857 H   0  0  0  0  0  0  0  0  0  0  0  0
   56.8026    2.7615   17.4252 H   0  0  0  0  0  0  0  0  0  0  0  0
   51.3695    8.2500   23.4757 H   0  0  0  0  0  0  0  0  0  0  0  0
  2  1  1  0
  3  1  1  0
  4  2  2  0
  5  3  2  0
  6  4  1  0
  7  5  1  0
  8  1  1  0
  9  8  1  0
 10 13  1  0
 11  3  1  0
 12  2  1  0
 13  9  1  0
 14  5  1  0
 15  4  1  0
 16 10  1  0
 17 10  1  0
 18 12  2  0
 19 11  2  0
 20 15  2  0
 21 14  2  0
  6  7  1  0
 18 20  1  0
 19 21  1  0
 23 27  2  0
 24 28  1  0
 25 26  1  0
 26 22  2  0
 27 24  1  0
 28 25  1  0
 29 22  1  0
 30 23  1  0
 31 22  1  0
 32 23  1  0
 33 24  2  0
 34 35  1  0
 35 29  2  0
 36 33  1  0
 37 31  2  0
 38 32  2  0
 39 26  1  0
 40 27  1  0
 41 31  1  0
 42 32  1  0
 43 34  1  0
 44 33  1  0
 45 35  1  0
 46 36  1  0
 47 44  2  0
 48 43  2  0
 49 47  1  0
 50 45  2  0
 25 34  2  0
 48 50  1  0
 30 36  2  0
 46 49  2  0
 52 51  1  0
 53 51  1  0
 54 52  2  0
 55 53  2  0
 56 54  1  0
 57 55  1  0
 58 51  1  0
 59 58  1  0
 60 63  1  0
 61 53  1  0
 62 52  1  0
 63 59  1  0
 64 55  1  0
 65 54  1  0
 66 60  1  0
 67 60  1  0
 68 62  2  0
 69 61  2  0
 70 65  2  0
 71 64  2  0
 56 57  1  0
 68 70  1  0
 69 71  1  0
  6 72  1  0
  6 73  1  0
  7 74  1  0
  7 75  1  0
  8 76  1  0
  8 77  1  0
  9 78  1  0
  9 79  1  0
 11 80  1  0
 12 81  1  0
 13 82  1  0
 13 83  1  0
 14 84  1  0
 15 85  1  0
 16 86  1  0
 16 87  1  0
 16 88  1  0
 17 89  1  0
 17 90  1  0
 17 91  1  0
 18 92  1  0
 19 93  1  0
 20 94  1  0
 21 95  1  0
 28 96  1  0
 28 97  1  0
 29 98  1  0
 30 99  1  0
 39100  1  0
 40101  1  0
 41102  1  0
 42103  1  0
 43104  1  0
 44105  1  0
 45106  1  0
 46107  1  0
 47108  1  0
 48109  1  0
 49110  1  0
 50111  1  0
 56112  1  0
 56113  1  0
 57114  1  0
 57115  1  0
 58116  1  0
 58117  1  0
 59118  1  0
 59119  1  0
 61120  1  0
 62121  1  0
 63122  1  0
 63123  1  0
 64124  1  0
 65125  1  0
 66126  1  0
 66127  1  0
 66128  1  0
 67129  1  0
 67130  1  0
 67131  1  0
 68132  1  0
 69133  1  0
 70134  1  0
 71135  1  0
M  END
> <Uni-Dock RESULT> 
ENERGY=   -6.015  LOWER_BOUND=    2.150  UPPER_BOUND=    6.680
INTER + INTRA:          -6.015
INTER:                  -6.015
INTRA:                   0.000
UNBOUND:                 0.000

$$$$

     RDKit          3D

135142  0  0  0  0  0  0  0  0999 V2000
   51.6605    5.9011   18.2376 N   0  0  0  0  0  0  0  0  0  0  0  0
   50.4444    5.3043   17.7588 C   0  0  0  0  0  0  0  0  0  0  0  0
   52.0967    7.2707   18.2416 C   0  0  0  0  0  0  0  0  0  0  0  0
   49.3999    6.0277   17.1277 C   0  0  0  0  0  0  0  0  0  0  0  0
   51.2208    8.3657   18.3771 C   0  0  0  0  0  0  0  0  0  0  0  0
   49.3414    7.5333   17.0416 C   0  0  0  0  0  0  0  0  0  0  0  0
   49.7307    8.1823   18.3601 C   0  0  0  0  0  0  0  0  0  0  0  0
   52.5574    5.0282   19.0526 C   0  0  0  0  0  0  0  0  0  0  0  0
   53.4789    4.1550   18.1865 C   0  0  0  0  0  0  0  0  0  0  0  0
   54.2543    2.6903   20.0700 N   0  0  0  0  0  0  0  0  0  0  0  0
   53.4714    7.5865   18.1414 C   0  0  0  0  0  0  0  0  0  0  0  0
   50.2214    3.9079   17.8582 C   0  0  0  0  0  0  0  0  0  0  0  0
   54.6640    3.5597   18.9558 C   0  0  0  0  0  0  0  0  0  0  0  0
   51.7142    9.6851   18.4883 C   0  0  0  0  0  0  0  0  0  0  0  0
   48.2975    5.3523   16.5402 C   0  0  0  0  0  0  0  0  0  0  0  0
   54.4213    3.3622   21.3598 C   0  0  0  0  0  0  0  0  0  0  0  0
   55.0252    1.4436   20.0772 C   0  0  0  0  0  0  0  0  0  0  0  0
   49.1136    3.2526   17.3061 C   0  0  0  0  0  0  0  0  0  0  0  0
   53.9585    8.8960   18.2316 C   0  0  0  0  0  0  0  0  0  0  0  0
   48.1544    3.9763   16.6258 C   0  0  0  0  0  0  0  0  0  0  0  0
   53.0755    9.9491   18.4226 C   0  0  0  0  0  0  0  0  0  0  0  0
   49.0852    7.7571   18.8615 C   0  0  0  0  0  0  0  0  0  0  0  0
   54.3652    4.7476   20.1912 C   0  0  0  0  0  0  0  0  0  0  0  0
   52.3728    4.1654   18.8835 C   0  0  0  0  0  0  0  0  0  0  0  0
   50.5540    5.9422   18.1324 C   0  0  0  0  0  0  0  0  0  0  0  0
   49.4977    6.4197   18.9358 C   0  0  0  0  0  0  0  0  0  0  0  0
   53.0937    5.0747   19.6897 C   0  0  0  0  0  0  0  0  0  0  0  0
   51.0060    4.4940   18.2778 C   0  0  0  0  0  0  0  0  0  0  0  0
   49.7070    8.6219   17.9546 C   0  0  0  0  0  0  0  0  0  0  0  0
   54.9065    3.4852   19.9400 C   0  0  0  0  0  0  0  0  0  0  0  0
   47.9988    8.2436   19.7455 C   0  0  0  0  0  0  0  0  0  0  0  0
   55.1369    5.7456   20.9703 C   0  0  0  0  0  0  0  0  0  0  0  0
   52.9345    2.8626   18.6345 C   0  0  0  0  0  0  0  0  0  0  0  0
   51.1876    6.8270   17.2032 C   0  0  0  0  0  0  0  0  0  0  0  0
   50.7471    8.1747   17.1312 C   0  0  0  0  0  0  0  0  0  0  0  0
   54.2110    2.5480   19.1713 C   0  0  0  0  0  0  0  0  0  0  0  0
   47.3921    7.5463   20.5442 O   0  0  0  0  0  0  0  0  0  0  0  0
   54.8682    6.9365   21.0202 O   0  0  0  0  0  0  0  0  0  0  0  0
   48.8961    5.5251   19.7901 O   0  0  0  0  0  0  0  0  0  0  0  0
   52.5291    6.2877   19.9990 O   0  0  0  0  0  0  0  0  0  0  0  0
   47.7314    9.5534   19.6200 O   0  0  0  0  0  0  0  0  0  0  0  0
   56.1899    5.2347   21.6296 O   0  0  0  0  0  0  0  0  0  0  0  0
   52.2463    6.4497   16.3462 C   0  0  0  0  0  0  0  0  0  0  0  0
   52.3001    1.8470   17.8758 C   0  0  0  0  0  0  0  0  0  0  0  0
   51.3593    9.0750   16.2443 C   0  0  0  0  0  0  0  0  0  0  0  0
   54.7963    1.2925   18.9368 C   0  0  0  0  0  0  0  0  0  0  0  0
   52.8907    0.6024   17.6487 C   0  0  0  0  0  0  0  0  0  0  0  0
   52.8476    7.3536   15.4679 C   0  0  0  0  0  0  0  0  0  0  0  0
   54.1404    0.3234   18.1810 C   0  0  0  0  0  0  0  0  0  0  0  0
   52.4001    8.6680   15.4167 C   0  0  0  0  0  0  0  0  0  0  0  0
   51.5098    6.1774   19.5791 N   0  0  0  0  0  0  0  0  0  0  0  0
   50.1563    5.7573   19.3911 C   0  0  0  0  0  0  0  0  0  0  0  0
   52.2515    7.1505   18.8545 C   0  0  0  0  0  0  0  0  0  0  0  0
   49.3864    6.0251   18.2291 C   0  0  0  0  0  0  0  0  0  0  0  0
   52.2417    7.2291   17.4534 C   0  0  0  0  0  0  0  0  0  0  0  0
   49.9102    6.6689   16.9734 C   0  0  0  0  0  0  0  0  0  0  0  0
   51.3513    6.3244   16.6532 C   0  0  0  0  0  0  0  0  0  0  0  0
   52.3608    5.4018   20.5194 C   0  0  0  0  0  0  0  0  0  0  0  0
   52.7723    4.0379   19.9484 C   0  0  0  0  0  0  0  0  0  0  0  0
   54.5575    2.8469   18.6253 N   0  0  0  0  0  0  0  0  0  0  0  0
   53.0561    8.0860   19.5448 C   0  0  0  0  0  0  0  0  0  0  0  0
   49.4745    5.0778   20.4310 C   0  0  0  0  0  0  0  0  0  0  0  0
   54.0120    4.1561   19.0442 C   0  0  0  0  0  0  0  0  0  0  0  0
   53.0397    8.1768   16.7769 C   0  0  0  0  0  0  0  0  0  0  0  0
   48.0132    5.6708   18.1803 C   0  0  0  0  0  0  0  0  0  0  0  0
   53.6392    2.1540   17.7105 C   0  0  0  0  0  0  0  0  0  0  0  0
   55.8479    3.0511   17.9562 C   0  0  0  0  0  0  0  0  0  0  0  0
   48.1271    4.7029   20.3560 C   0  0  0  0  0  0  0  0  0  0  0  0
   53.8519    9.0186   18.8725 C   0  0  0  0  0  0  0  0  0  0  0  0
   47.3843    5.0141   19.2283 C   0  0  0  0  0  0  0  0  0  0  0  0
   53.8463    9.0623   17.4881 C   0  0  0  0  0  0  0  0  0  0  0  0
   48.3136    7.8430   16.8248 H   0  0  0  0  0  0  0  0  0  0  0  0
   49.9521    7.8746   16.1973 H   0  0  0  0  0  0  0  0  0  0  0  0
   49.2359    9.1551   18.4263 H   0  0  0  0  0  0  0  0  0  0  0  0
   49.4080    7.6121   19.2378 H   0  0  0  0  0  0  0  0  0  0  0  0
   51.9671    4.4141   19.7478 H   0  0  0  0  0  0  0  0  0  0  0  0
   53.1727    5.6373   19.7261 H   0  0  0  0  0  0  0  0  0  0  0  0
   52.9155    3.3324   17.7208 H   0  0  0  0  0  0  0  0  0  0  0  0
   53.8726    4.7362   17.3412 H   0  0  0  0  0  0  0  0  0  0  0  0
   54.2091    6.8116   17.9719 H   0  0  0  0  0  0  0  0  0  0  0  0
   50.9224    3.2532   18.3573 H   0  0  0  0  0  0  0  0  0  0  0  0
   55.3368    4.3566   19.2898 H   0  0  0  0  0  0  0  0  0  0  0  0
   55.2464    2.9874   18.2232 H   0  0  0  0  0  0  0  0  0  0  0  0
   51.0241   10.5168   18.6112 H   0  0  0  0  0  0  0  0  0  0  0  0
   47.5243    5.9195   16.0196 H   0  0  0  0  0  0  0  0  0  0  0  0
   54.1594    2.6984   22.1948 H   0  0  0  0  0  0  0  0  0  0  0  0
   53.7582    4.2324   21.4438 H   0  0  0  0  0  0  0  0  0  0  0  0
   55.4528    3.7071   21.5204 H   0  0  0  0  0  0  0  0  0  0  0  0
   54.6973    0.7937   20.8995 H   0  0  0  0  0  0  0  0  0  0  0  0
   54.8559    0.8780   19.1522 H   0  0  0  0  0  0  0  0  0  0  0  0
   56.0949    1.6292   20.1874 H   0  0  0  0  0  0  0  0  0  0  0  0
   49.0136    2.1760   17.4078 H   0  0  0  0  0  0  0  0  0  0  0  0
   55.0276    9.0912   18.1550 H   0  0  0  0  0  0  0  0  0  0  0  0
   47.2965    3.4808   16.1819 H   0  0  0  0  0  0  0  0  0  0  0  0
   53.4399   10.9684   18.5051 H   0  0  0  0  0  0  0  0  0  0  0  0
   50.9568    4.0901   17.2620 H   0  0  0  0  0  0  0  0  0  0  0  0
   50.2690    3.9134   18.8457 H   0  0  0  0  0  0  0  0  0  0  0  0
   49.3892    9.6637   17.9050 H   0  0  0  0  0  0  0  0  0  0  0  0
   55.8930    3.2364   20.3365 H   0  0  0  0  0  0  0  0  0  0  0  0
   48.2252    5.9945   20.3307 H   0  0  0  0  0  0  0  0  0  0  0  0
   53.2123    6.8968   20.3435 H   0  0  0  0  0  0  0  0  0  0  0  0
   47.0183    9.7191   20.2771 H   0  0  0  0  0  0  0  0  0  0  0  0
   56.5866    6.0019   22.0899 H   0  0  0  0  0  0  0  0  0  0  0  0
   52.6320    5.4350   16.3497 H   0  0  0  0  0  0  0  0  0  0  0  0
   51.3134    2.0022   17.4498 H   0  0  0  0  0  0  0  0  0  0  0  0
   51.0225   10.1081   16.1938 H   0  0  0  0  0  0  0  0  0  0  0  0
   55.7746    1.0496   19.3487 H   0  0  0  0  0  0  0  0  0  0  0  0
   52.3659   -0.1465   17.0629 H   0  0  0  0  0  0  0  0  0  0  0  0
   53.6687    7.0340   14.8307 H   0  0  0  0  0  0  0  0  0  0  0  0
   54.6074   -0.6449   18.0077 H   0  0  0  0  0  0  0  0  0  0  0  0
   52.8678    9.3809   14.7435 H   0  0  0  0  0  0  0  0  0  0  0  0
   49.3046    6.3250   16.1191 H   0  0  0  0  0  0  0  0  0  0  0  0
   49.7590    7.7581   17.0464 H   0  0  0  0  0  0  0  0  0  0  0  0
   51.5976    5.2748   16.8561 H   0  0  0  0  0  0  0  0  0  0  0  0
   51.5292    6.4768   15.5800 H   0  0  0  0  0  0  0  0  0  0  0  0
   51.8602    5.2655   21.4836 H   0  0  0  0  0  0  0  0  0  0  0  0
   53.2733    5.9397   20.8085 H   0  0  0  0  0  0  0  0  0  0  0  0
   51.9407    3.5743   19.4079 H   0  0  0  0  0  0  0  0  0  0  0  0
   53.0215    3.3761   20.7861 H   0  0  0  0  0  0  0  0  0  0  0  0
   53.0627    8.0998   20.6341 H   0  0  0  0  0  0  0  0  0  0  0  0
   49.9649    4.8250   21.3647 H   0  0  0  0  0  0  0  0  0  0  0  0
   54.7859    4.6747   19.6196 H   0  0  0  0  0  0  0  0  0  0  0  0
   53.7942    4.7804   18.1716 H   0  0  0  0  0  0  0  0  0  0  0  0
   53.0152    8.2404   15.6889 H   0  0  0  0  0  0  0  0  0  0  0  0
   47.4184    5.9077   17.2953 H   0  0  0  0  0  0  0  0  0  0  0  0
   53.3873    2.7659   16.8421 H   0  0  0  0  0  0  0  0  0  0  0  0
   52.7143    1.8643   18.2234 H   0  0  0  0  0  0  0  0  0  0  0  0
   54.0854    1.2197   17.3509 H   0  0  0  0  0  0  0  0  0  0  0  0
   56.5656    3.5222   18.6388 H   0  0  0  0  0  0  0  0  0  0  0  0
   56.2848    2.0915   17.6586 H   0  0  0  0  0  0  0  0  0  0  0  0
   55.7602    3.6787   17.0611 H   0  0  0  0  0  0  0  0  0  0  0  0
   47.6555    4.1900   21.1917 H   0  0  0  0  0  0  0  0  0  0  0  0
   54.4768    9.7126   19.4366 H   0  0  0  0  0  0  0  0  0  0  0  0
   46.3326    4.7475   19.1633 H   0  0  0  0  0  0  0  0  0  0  0  0
   54.4546    9.7901   16.9597 H   0  0  0  0  0  0  0  0  0  0  0  0
  2  1  1  0
  3  1  1  0
  4  2  2  0
  5  3  2  0
  6  4  1  0
  7  5  1  0
  8  1  1  0
  9  8  1  0
 10 13  1  0
 11  3  1  0
 12  2  1  0
 13  9  1  0
 14  5  1  0
 15  4  1  0
 16 10  1  0
 17 10  1  0
 18 12  2  0
 19 11  2  0
 20 15  2  0
 21 14  2  0
  6  7  1  0
 18 20  1  0
 19 21  1  0
 23 27  2  0
 24 28  1  0
 25 26  1  0
 26 22  2  0
 27 24  1  0
 28 25  1  0
 29 22  1  0
 30 23  1  0
 31 22  1  0
 32 23  1  0
 33 24  2  0
 34 35  1  0
 35 29  2  0
 36 33  1  0
 37 31  2  0
 38 32  2  0
 39 26  1  0
 40 27  1  0
 41 31  1  0
 42 32  1  0
 43 34  1  0
 44 33  1  0
 45 35  1  0
 46 36  1  0
 47 44  2  0
 48 43  2  0
 49 47  1  0
 50 45  2  0
 25 34  2  0
 48 50  1  0
 30 36  2  0
 46 49  2  0
 52 51  1  0
 53 51  1  0
 54 52  2  0
 55 53  2  0
 56 54  1  0
 57 55  1  0
 58 51  1  0
 59 58  1  0
 60 63  1  0
 61 53  1  0
 62 52  1  0
 63 59  1  0
 64 55  1  0
 65 54  1  0
 66 60  1  0
 67 60  1  0
 68 62  2  0
 69 61  2  0
 70 65  2  0
 71 64  2  0
 56 57  1  0
 68 70  1  0
 69 71  1  0
  6 72  1  0
  6 73  1  0
  7 74  1  0
  7 75  1  0
  8 76  1  0
  8 77  1  0
  9 78  1  0
  9 79  1  0
 11 80  1  0
 12 81  1  0
 13 82  1  0
 13 83  1  0
 14 84  1  0
 15 85  1  0
 16 86  1  0
 16 87  1  0
 16 88  1  0
 17 89  1  0
 17 90  1  0
 17 91  1  0
 18 92  1  0
 19 93  1  0
 20 94  1  0
 21 95  1  0
 28 96  1  0
 28 97  1  0
 29 98  1  0
 30 99  1  0
 39100  1  0
 40101  1  0
 41102  1  0
 42103  1  0
 43104  1  0
 44105  1  0
 45106  1  0
 46107  1  0
 47108  1  0
 48109  1  0
 49110  1  0
 50111  1  0
 56112  1  0
 56113  1  0
 57114  1  0
 57115  1  0
 58116  1  0
 58117  1  0
 59118  1  0
 59119  1  0
 61120  1  0
 62121  1  0
 63122  1  0
 63123  1  0
 64124  1  0
 65125  1  0
 66126  1  0
 66127  1  0
 66128  1  0
 67129  1  0
 67130  1  0
 67131  1  0
 68132  1  0
 69133  1  0
 70134  1  0
 71135  1  0
M  END
> <Uni-Dock RESULT> 
ENERGY=   -5.989  LOWER_BOUND=    1.957  UPPER_BOUND=    4.201
INTER + INTRA:          -5.989
INTER:                  -5.989
INTRA:                   0.000
UNBOUND:                 0.000

$$$$

     RDKit          3D

135142  0  0  0  0  0  0  0  0999 V2000
   49.7513    9.2190   19.7453 N   0  0  0  0  0  0  0  0  0  0  0  0
   49.0735    7.9906   19.4354 C   0  0  0  0  0  0  0  0  0  0  0  0
   49.2807   10.4150   20.3888 C   0  0  0  0  0  0  0  0  0  0  0  0
   47.7023    7.7497   19.7080 C   0  0  0  0  0  0  0  0  0  0  0  0
   48.2980   10.4203   21.3981 C   0  0  0  0  0  0  0  0  0  0  0  0
   46.8238    8.6694   20.5204 C   0  0  0  0  0  0  0  0  0  0  0  0
   47.5427    9.1744   21.7611 C   0  0  0  0  0  0  0  0  0  0  0  0
   51.2349    9.2251   19.5741 C   0  0  0  0  0  0  0  0  0  0  0  0
   51.6615    9.5059   18.1246 C   0  0  0  0  0  0  0  0  0  0  0  0
   54.0681    8.8831   18.4622 N   0  0  0  0  0  0  0  0  0  0  0  0
   49.8265   11.6747   20.0499 C   0  0  0  0  0  0  0  0  0  0  0  0
   49.7444    6.9238   18.7860 C   0  0  0  0  0  0  0  0  0  0  0  0
   53.1328    9.9135   17.9841 C   0  0  0  0  0  0  0  0  0  0  0  0
   47.9543   11.6118   22.0754 C   0  0  0  0  0  0  0  0  0  0  0  0
   47.0607    6.5747   19.2345 C   0  0  0  0  0  0  0  0  0  0  0  0
   54.6314    9.2379   19.7660 C   0  0  0  0  0  0  0  0  0  0  0  0
   55.1623    8.6804   17.5081 C   0  0  0  0  0  0  0  0  0  0  0  0
   49.1117    5.7520   18.3524 C   0  0  0  0  0  0  0  0  0  0  0  0
   49.4712   12.8584   20.7077 C   0  0  0  0  0  0  0  0  0  0  0  0
   47.7571    5.5837   18.5606 C   0  0  0  0  0  0  0  0  0  0  0  0
   48.5417   12.8233   21.7373 C   0  0  0  0  0  0  0  0  0  0  0  0
   47.7214    8.3387   22.1056 C   0  0  0  0  0  0  0  0  0  0  0  0
   53.1276   10.2485   19.6913 C   0  0  0  0  0  0  0  0  0  0  0  0
   51.4761    8.5655   19.0138 C   0  0  0  0  0  0  0  0  0  0  0  0
   49.0384    8.4198   20.0462 C   0  0  0  0  0  0  0  0  0  0  0  0
   48.7038    7.7962   21.2660 C   0  0  0  0  0  0  0  0  0  0  0  0
   51.9190    9.5651   19.9089 C   0  0  0  0  0  0  0  0  0  0  0  0
   50.1466    7.8265   19.1843 C   0  0  0  0  0  0  0  0  0  0  0  0
   47.0402    9.4959   21.7131 C   0  0  0  0  0  0  0  0  0  0  0  0
   53.9358    9.9008   18.6069 C   0  0  0  0  0  0  0  0  0  0  0  0
   47.4163    7.6856   23.4013 C   0  0  0  0  0  0  0  0  0  0  0  0
   53.5353   11.3468   20.6001 C   0  0  0  0  0  0  0  0  0  0  0  0
   52.3185    8.2075   17.9015 C   0  0  0  0  0  0  0  0  0  0  0  0
   48.3392    9.6020   19.6444 C   0  0  0  0  0  0  0  0  0  0  0  0
   47.3371   10.1295   20.5006 C   0  0  0  0  0  0  0  0  0  0  0  0
   53.5458    8.8973   17.7161 C   0  0  0  0  0  0  0  0  0  0  0  0
   47.9491    6.6622   23.8026 O   0  0  0  0  0  0  0  0  0  0  0  0
   52.7902   11.8871   21.4036 O   0  0  0  0  0  0  0  0  0  0  0  0
   49.3784    6.6436   21.5953 O   0  0  0  0  0  0  0  0  0  0  0  0
   51.1606    9.8550   21.0164 O   0  0  0  0  0  0  0  0  0  0  0  0
   46.4977    8.3288   24.1397 O   0  0  0  0  0  0  0  0  0  0  0  0
   54.8177   11.7240   20.4673 O   0  0  0  0  0  0  0  0  0  0  0  0
   48.5885   10.2990   18.4403 C   0  0  0  0  0  0  0  0  0  0  0  0
   52.0104    7.1994   16.9537 C   0  0  0  0  0  0  0  0  0  0  0  0
   46.6446   11.2986   20.1466 C   0  0  0  0  0  0  0  0  0  0  0  0
   54.3858    8.5848   16.6341 C   0  0  0  0  0  0  0  0  0  0  0  0
   52.8525    6.8967   15.8819 C   0  0  0  0  0  0  0  0  0  0  0  0
   47.8934   11.4608   18.0984 C   0  0  0  0  0  0  0  0  0  0  0  0
   54.0431    7.5892   15.7220 C   0  0  0  0  0  0  0  0  0  0  0  0
   46.9181   11.9588   18.9536 C   0  0  0  0  0  0  0  0  0  0  0  0
   50.3759    9.0745   20.9651 N   0  0  0  0  0  0  0  0  0  0  0  0
   49.7132    7.8090   21.0198 C   0  0  0  0  0  0  0  0  0  0  0  0
   49.8216   10.3634   20.7333 C   0  0  0  0  0  0  0  0  0  0  0  0
   48.3979    7.5699   20.5430 C   0  0  0  0  0  0  0  0  0  0  0  0
   48.8821   10.6190   19.7228 C   0  0  0  0  0  0  0  0  0  0  0  0
   47.5551    8.5662   19.7925 C   0  0  0  0  0  0  0  0  0  0  0  0
   48.3450    9.4927   18.8894 C   0  0  0  0  0  0  0  0  0  0  0  0
   51.8625    9.0882   20.9587 C   0  0  0  0  0  0  0  0  0  0  0  0
   52.4470    8.6264   19.6167 C   0  0  0  0  0  0  0  0  0  0  0  0
   53.2364    9.4326   17.3623 N   0  0  0  0  0  0  0  0  0  0  0  0
   50.2241   11.4607   21.5289 C   0  0  0  0  0  0  0  0  0  0  0  0
   50.3480    6.7030   21.6379 C   0  0  0  0  0  0  0  0  0  0  0  0
   52.5081    9.7812   18.6012 C   0  0  0  0  0  0  0  0  0  0  0  0
   48.4035   11.9274   19.4948 C   0  0  0  0  0  0  0  0  0  0  0  0
   47.7782    6.3098   20.7469 C   0  0  0  0  0  0  0  0  0  0  0  0
   52.4993    8.4363   16.5720 C   0  0  0  0  0  0  0  0  0  0  0  0
   53.4308   10.6444   16.5571 C   0  0  0  0  0  0  0  0  0  0  0  0
   49.7370    5.4535   21.8018 C   0  0  0  0  0  0  0  0  0  0  0  0
   49.7550   12.7571   21.2961 C   0  0  0  0  0  0  0  0  0  0  0  0
   48.4359    5.2573   21.3670 C   0  0  0  0  0  0  0  0  0  0  0  0
   48.8467   12.9914   20.2770 C   0  0  0  0  0  0  0  0  0  0  0  0
   45.9432    8.1169   20.8647 H   0  0  0  0  0  0  0  0  0  0  0  0
   46.4512    9.4779   19.8802 H   0  0  0  0  0  0  0  0  0  0  0  0
   46.7950    9.4026   22.5255 H   0  0  0  0  0  0  0  0  0  0  0  0
   48.2194    8.4351   22.2031 H   0  0  0  0  0  0  0  0  0  0  0  0
   51.6674    8.2826   19.9394 H   0  0  0  0  0  0  0  0  0  0  0  0
   51.6913    9.9749   20.2318 H   0  0  0  0  0  0  0  0  0  0  0  0
   51.4788    8.6290   17.4853 H   0  0  0  0  0  0  0  0  0  0  0  0
   51.0398   10.3011   17.6904 H   0  0  0  0  0  0  0  0  0  0  0  0
   50.5416   11.7718   19.2419 H   0  0  0  0  0  0  0  0  0  0  0  0
   50.8017    6.9671   18.5637 H   0  0  0  0  0  0  0  0  0  0  0  0
   53.3067   10.8773   18.4740 H   0  0  0  0  0  0  0  0  0  0  0  0
   53.2951   10.1063   16.9164 H   0  0  0  0  0  0  0  0  0  0  0  0
   47.2065   11.5939   22.8651 H   0  0  0  0  0  0  0  0  0  0  0  0
   45.9950    6.4246   19.4139 H   0  0  0  0  0  0  0  0  0  0  0  0
   55.3642    8.4923   20.1027 H   0  0  0  0  0  0  0  0  0  0  0  0
   53.8538    9.2707   20.5395 H   0  0  0  0  0  0  0  0  0  0  0  0
   55.1345   10.2153   19.7513 H   0  0  0  0  0  0  0  0  0  0  0  0
   55.8425    7.8953   17.8644 H   0  0  0  0  0  0  0  0  0  0  0  0
   54.7743    8.3355   16.5412 H   0  0  0  0  0  0  0  0  0  0  0  0
   55.7385    9.5940   17.3522 H   0  0  0  0  0  0  0  0  0  0  0  0
   49.6855    4.9804   17.8476 H   0  0  0  0  0  0  0  0  0  0  0  0
   49.9230   13.8060   20.4164 H   0  0  0  0  0  0  0  0  0  0  0  0
   47.2505    4.6862   18.2193 H   0  0  0  0  0  0  0  0  0  0  0  0
   48.2646   13.7316   22.2634 H   0  0  0  0  0  0  0  0  0  0  0  0
   49.6837    7.6887   18.2024 H   0  0  0  0  0  0  0  0  0  0  0  0
   50.3975    6.8129   19.5199 H   0  0  0  0  0  0  0  0  0  0  0  0
   46.2822    9.9200   22.3722 H   0  0  0  0  0  0  0  0  0  0  0  0
   54.8757   10.4330   18.4465 H   0  0  0  0  0  0  0  0  0  0  0  0
   49.0980    6.3478   22.4878 H   0  0  0  0  0  0  0  0  0  0  0  0
   51.4457   10.7065   21.4037 H   0  0  0  0  0  0  0  0  0  0  0  0
   46.4271    7.7913   24.9605 H   0  0  0  0  0  0  0  0  0  0  0  0
   54.9320   12.4399   21.1247 H   0  0  0  0  0  0  0  0  0  0  0  0
   49.3411    9.9506   17.7399 H   0  0  0  0  0  0  0  0  0  0  0  0
   51.1009    6.6123   17.0386 H   0  0  0  0  0  0  0  0  0  0  0  0
   45.8799   11.7029   20.8062 H   0  0  0  0  0  0  0  0  0  0  0  0
   55.3278    9.1121   16.4913 H   0  0  0  0  0  0  0  0  0  0  0  0
   52.5764    6.1140   15.1815 H   0  0  0  0  0  0  0  0  0  0  0  0
   48.1184   11.9802   17.1699 H   0  0  0  0  0  0  0  0  0  0  0  0
   54.7047    7.3590   14.8882 H   0  0  0  0  0  0  0  0  0  0  0  0
   46.3786   12.8672   18.7007 H   0  0  0  0  0  0  0  0  0  0  0  0
   46.8498    8.0188   19.1463 H   0  0  0  0  0  0  0  0  0  0  0  0
   46.9444    9.1281   20.5176 H   0  0  0  0  0  0  0  0  0  0  0  0
   49.1644    8.9860   18.3647 H   0  0  0  0  0  0  0  0  0  0  0  0
   47.6815    9.8878   18.1082 H   0  0  0  0  0  0  0  0  0  0  0  0
   52.2660    8.4746   21.7708 H   0  0  0  0  0  0  0  0  0  0  0  0
   52.2790   10.0774   21.1896 H   0  0  0  0  0  0  0  0  0  0  0  0
   51.8769    7.7838   19.2122 H   0  0  0  0  0  0  0  0  0  0  0  0
   53.4688    8.2702   19.7918 H   0  0  0  0  0  0  0  0  0  0  0  0
   50.9147   11.3084   22.3576 H   0  0  0  0  0  0  0  0  0  0  0  0
   51.3523    6.7738   22.0410 H   0  0  0  0  0  0  0  0  0  0  0  0
   53.0390   10.6093   19.0822 H   0  0  0  0  0  0  0  0  0  0  0  0
   51.5014   10.1429   18.3682 H   0  0  0  0  0  0  0  0  0  0  0  0
   47.6631   12.1147   18.7170 H   0  0  0  0  0  0  0  0  0  0  0  0
   46.7542    6.1422   20.4052 H   0  0  0  0  0  0  0  0  0  0  0  0
   51.4826    8.7637   16.3462 H   0  0  0  0  0  0  0  0  0  0  0  0
   52.4565    7.4721   17.0926 H   0  0  0  0  0  0  0  0  0  0  0  0
   53.0125    8.2401   15.6237 H   0  0  0  0  0  0  0  0  0  0  0  0
   54.0233   11.3835   17.1100 H   0  0  0  0  0  0  0  0  0  0  0  0
   53.9916   10.4157   15.6441 H   0  0  0  0  0  0  0  0  0  0  0  0
   52.4814   11.1105   16.2670 H   0  0  0  0  0  0  0  0  0  0  0  0
   50.2728    4.6437   22.2928 H   0  0  0  0  0  0  0  0  0  0  0  0
   50.1025   13.5845   21.9166 H   0  0  0  0  0  0  0  0  0  0  0  0
   47.9413    4.2994   21.5050 H   0  0  0  0  0  0  0  0  0  0  0  0
   48.4710   13.9941   20.0967 H   0  0  0  0  0  0  0  0  0  0  0  0
  2  1  1  0
  3  1  1  0
  4  2  2  0
  5  3  2  0
  6  4  1  0
  7  5  1  0
  8  1  1  0
  9  8  1  0
 10 13  1  0
 11  3  1  0
 12  2  1  0
 13  9  1  0
 14  5  1  0
 15  4  1  0
 16 10  1  0
 17 10  1  0
 18 12  2  0
 19 11  2  0
 20 15  2  0
 21 14  2  0
  6  7  1  0
 18 20  1  0
 19 21  1  0
 23 27  2  0
 24 28  1  0
 25 26  1  0
 26 22  2  0
 27 24  1  0
 28 25  1  0
 29 22  1  0
 30 23  1  0
 31 22  1  0
 32 23  1  0
 33 24  2  0
 34 35  1  0
 35 29  2  0
 36 33  1  0
 37 31  2  0
 38 32  2  0
 39 26  1  0
 40 27  1  0
 41 31  1  0
 42 32  1  0
 43 34  1  0
 44 33  1  0
 45 35  1  0
 46 36  1  0
 47 44  2  0
 48 43  2  0
 49 47  1  0
 50 45  2  0
 25 34  2  0
 48 50  1  0
 30 36  2  0
 46 49  2  0
 52 51  1  0
 53 51  1  0
 54 52  2  0
 55 53  2  0
 56 54  1  0
 57 55  1  0
 58 51  1  0
 59 58  1  0
 60 63  1  0
 61 53  1  0
 62 52  1  0
 63 59  1  0
 64 55  1  0
 65 54  1  0
 66 60  1  0
 67 60  1  0
 68 62  2  0
 69 61  2  0
 70 65  2  0
 71 64  2  0
 56 57  1  0
 68 70  1  0
 69 71  1  0
  6 72  1  0
  6 73  1  0
  7 74  1  0
  7 75  1  0
  8 76  1  0
  8 77  1  0
  9 78  1  0
  9 79  1  0
 11 80  1  0
 12 81  1  0
 13 82  1  0
 13 83  1  0
 14 84  1  0
 15 85  1  0
 16 86  1  0
 16 87  1  0
 16 88  1  0
 17 89  1  0
 17 90  1  0
 17 91  1  0
 18 92  1  0
 19 93  1  0
 20 94  1  0
 21 95  1  0
 28 96  1  0
 28 97  1  0
 29 98  1  0
 30 99  1  0
 39100  1  0
 40101  1  0
 41102  1  0
 42103  1  0
 43104  1  0
 44105  1  0
 45106  1  0
 46107  1  0
 47108  1  0
 48109  1  0
 49110  1  0
 50111  1  0
 56112  1  0
 56113  1  0
 57114  1  0
 57115  1  0
 58116  1  0
 58117  1  0
 59118  1  0
 59119  1  0
 61120  1  0
 62121  1  0
 63122  1  0
 63123  1  0
 64124  1  0
 65125  1  0
 66126  1  0
 66127  1  0
 66128  1  0
 67129  1  0
 67130  1  0
 67131  1  0
 68132  1  0
 69133  1  0
 70134  1  0
 71135  1  0
M  END
> <Uni-Dock RESULT> 
ENERGY=   -5.818  LOWER_BOUND=    2.694  UPPER_BOUND=    5.114
INTER + INTRA:          -5.818
INTER:                  -5.818
INTRA:                   0.000
UNBOUND:                 0.000

$$$$

     RDKit          3D

135142  0  0  0  0  0  0  0  0999 V2000
   49.4948    9.8485   18.2814 N   0  0  0  0  0  0  0  0  0  0  0  0
   48.3789   10.5053   18.9039 C   0  0  0  0  0  0  0  0  0  0  0  0
   50.2233   10.1664   17.0837 C   0  0  0  0  0  0  0  0  0  0  0  0
   47.7380   11.6549   18.3746 C   0  0  0  0  0  0  0  0  0  0  0  0
   50.4318   11.4823   16.6262 C   0  0  0  0  0  0  0  0  0  0  0  0
   48.2518   12.4470   17.1972 C   0  0  0  0  0  0  0  0  0  0  0  0
   49.7558   12.6537   17.2784 C   0  0  0  0  0  0  0  0  0  0  0  0
   50.1690    8.7788   19.0762 C   0  0  0  0  0  0  0  0  0  0  0  0
   49.4650    7.4182   18.9529 C   0  0  0  0  0  0  0  0  0  0  0  0
   50.7341    6.3259   20.8210 N   0  0  0  0  0  0  0  0  0  0  0  0
   50.8105    9.1409   16.3071 C   0  0  0  0  0  0  0  0  0  0  0  0
   47.8090   10.0093   20.1035 C   0  0  0  0  0  0  0  0  0  0  0  0
   50.3271    6.2356   19.4099 C   0  0  0  0  0  0  0  0  0  0  0  0
   51.2510   11.7436   15.5049 C   0  0  0  0  0  0  0  0  0  0  0  0
   46.5454   12.1581   18.9586 C   0  0  0  0  0  0  0  0  0  0  0  0
   52.1359    6.7283   20.9470 C   0  0  0  0  0  0  0  0  0  0  0  0
   50.5407    5.0459   21.5086 C   0  0  0  0  0  0  0  0  0  0  0  0
   46.6517   10.5330   20.6932 C   0  0  0  0  0  0  0  0  0  0  0  0
   51.6059    9.3991   15.1843 C   0  0  0  0  0  0  0  0  0  0  0  0
   46.0040   11.6024   20.1071 C   0  0  0  0  0  0  0  0  0  0  0  0
   51.8404   10.7090   14.7913 C   0  0  0  0  0  0  0  0  0  0  0  0
   49.7432   13.0690   18.1007 C   0  0  0  0  0  0  0  0  0  0  0  0
   51.7087    7.2844   19.2747 C   0  0  0  0  0  0  0  0  0  0  0  0
   49.6081    8.4752   19.7091 C   0  0  0  0  0  0  0  0  0  0  0  0
   48.9881   10.7925   18.5801 C   0  0  0  0  0  0  0  0  0  0  0  0
   49.4273   12.0587   19.0193 C   0  0  0  0  0  0  0  0  0  0  0  0
   50.9251    8.4486   19.1979 C   0  0  0  0  0  0  0  0  0  0  0  0
   48.7016    9.7044   19.6080 C   0  0  0  0  0  0  0  0  0  0  0  0
   49.5893   12.8295   16.7311 C   0  0  0  0  0  0  0  0  0  0  0  0
   51.2050    6.1500   19.9147 C   0  0  0  0  0  0  0  0  0  0  0  0
   50.2408   14.3783   18.5871 C   0  0  0  0  0  0  0  0  0  0  0  0
   53.0591    7.2548   18.6634 C   0  0  0  0  0  0  0  0  0  0  0  0
   49.0981    7.3036   20.3740 C   0  0  0  0  0  0  0  0  0  0  0  0
   48.8284   10.5495   17.1789 C   0  0  0  0  0  0  0  0  0  0  0  0
   49.1394   11.5891   16.2635 C   0  0  0  0  0  0  0  0  0  0  0  0
   49.9178    6.1470   20.4585 C   0  0  0  0  0  0  0  0  0  0  0  0
   50.3791   14.6717   19.7649 O   0  0  0  0  0  0  0  0  0  0  0  0
   53.4752    8.0893   17.8738 O   0  0  0  0  0  0  0  0  0  0  0  0
   49.5339   12.2577   20.3762 O   0  0  0  0  0  0  0  0  0  0  0  0
   51.4475    9.5872   18.6353 O   0  0  0  0  0  0  0  0  0  0  0  0
   50.5607   15.2432   17.6113 O   0  0  0  0  0  0  0  0  0  0  0  0
   53.8125    6.2093   19.0426 O   0  0  0  0  0  0  0  0  0  0  0  0
   48.3863    9.3229   16.6332 C   0  0  0  0  0  0  0  0  0  0  0  0
   47.8114    7.2108   20.9617 C   0  0  0  0  0  0  0  0  0  0  0  0
   49.0124   11.3788   14.8810 C   0  0  0  0  0  0  0  0  0  0  0  0
   49.4481    4.9815   21.0869 C   0  0  0  0  0  0  0  0  0  0  0  0
   47.3544    6.0475   21.5840 C   0  0  0  0  0  0  0  0  0  0  0  0
   48.2636    9.1250   15.2564 C   0  0  0  0  0  0  0  0  0  0  0  0
   48.1742    4.9309   21.6483 C   0  0  0  0  0  0  0  0  0  0  0  0
   48.5755   10.1572   14.3801 C   0  0  0  0  0  0  0  0  0  0  0  0
   50.6543   10.3306   18.8489 N   0  0  0  0  0  0  0  0  0  0  0  0
   49.7955   11.2394   19.5418 C   0  0  0  0  0  0  0  0  0  0  0  0
   50.7417   10.0728   17.4532 C   0  0  0  0  0  0  0  0  0  0  0  0
   48.6407   11.8418   18.9775 C   0  0  0  0  0  0  0  0  0  0  0  0
   49.6131    9.8959   16.6382 C   0  0  0  0  0  0  0  0  0  0  0  0
   48.0709   11.5186   17.6222 C   0  0  0  0  0  0  0  0  0  0  0  0
   48.2360   10.0697   17.2083 C   0  0  0  0  0  0  0  0  0  0  0  0
   51.4529    9.3687   19.6533 C   0  0  0  0  0  0  0  0  0  0  0  0
   50.5932    8.2424   20.2432 C   0  0  0  0  0  0  0  0  0  0  0  0
   49.7245    5.9152   19.8133 N   0  0  0  0  0  0  0  0  0  0  0  0
   52.0067    9.9697   16.8301 C   0  0  0  0  0  0  0  0  0  0  0  0
   50.1104   11.6444   20.8628 C   0  0  0  0  0  0  0  0  0  0  0  0
   50.3836    7.1033   19.2297 C   0  0  0  0  0  0  0  0  0  0  0  0
   49.7522    9.5852   15.2682 C   0  0  0  0  0  0  0  0  0  0  0  0
   47.9157   12.8228   19.7022 C   0  0  0  0  0  0  0  0  0  0  0  0
   48.3273    6.2006   20.1692 C   0  0  0  0  0  0  0  0  0  0  0  0
   49.7637    4.8139   18.8436 C   0  0  0  0  0  0  0  0  0  0  0  0
   49.3655   12.5889   21.5801 C   0  0  0  0  0  0  0  0  0  0  0  0
   52.1423    9.6541   15.4748 C   0  0  0  0  0  0  0  0  0  0  0  0
   48.2674   13.1955   20.9916 C   0  0  0  0  0  0  0  0  0  0  0  0
   51.0150    9.4587   14.6940 C   0  0  0  0  0  0  0  0  0  0  0  0
   47.7925   13.4411   17.2025 H   0  0  0  0  0  0  0  0  0  0  0  0
   47.9337   11.9640   16.2656 H   0  0  0  0  0  0  0  0  0  0  0  0
   50.0080   13.5733   16.7435 H   0  0  0  0  0  0  0  0  0  0  0  0
   50.1226   12.7823   18.3024 H   0  0  0  0  0  0  0  0  0  0  0  0
   50.2619    9.0834   20.1286 H   0  0  0  0  0  0  0  0  0  0  0  0
   51.2135    8.6699   18.7598 H   0  0  0  0  0  0  0  0  0  0  0  0
   48.5261    7.4091   19.5268 H   0  0  0  0  0  0  0  0  0  0  0  0
   49.1573    7.2400   17.9132 H   0  0  0  0  0  0  0  0  0  0  0  0
   50.6487    8.0976   16.5499 H   0  0  0  0  0  0  0  0  0  0  0  0
   48.2332    9.1649   20.6291 H   0  0  0  0  0  0  0  0  0  0  0  0
   51.1900    6.1178   18.7460 H   0  0  0  0  0  0  0  0  0  0  0  0
   49.7211    5.3358   19.2473 H   0  0  0  0  0  0  0  0  0  0  0  0
   51.4160   12.7674   15.1768 H   0  0  0  0  0  0  0  0  0  0  0  0
   46.0397   13.0165   18.5136 H   0  0  0  0  0  0  0  0  0  0  0  0
   52.4537    6.7515   21.9981 H   0  0  0  0  0  0  0  0  0  0  0  0
   52.2950    7.7423   20.5591 H   0  0  0  0  0  0  0  0  0  0  0  0
   52.8146    6.0509   20.4094 H   0  0  0  0  0  0  0  0  0  0  0  0
   50.8276    5.1299   22.5653 H   0  0  0  0  0  0  0  0  0  0  0  0
   49.4820    4.7572   21.4996 H   0  0  0  0  0  0  0  0  0  0  0  0
   51.1286    4.2478   21.0522 H   0  0  0  0  0  0  0  0  0  0  0  0
   46.2615   10.0935   21.6065 H   0  0  0  0  0  0  0  0  0  0  0  0
   52.0433    8.5764   14.6196 H   0  0  0  0  0  0  0  0  0  0  0  0
   45.0990   12.0113   20.5458 H   0  0  0  0  0  0  0  0  0  0  0  0
   52.4639   10.9245   13.9291 H   0  0  0  0  0  0  0  0  0  0  0  0
   47.6807    9.3804   19.3843 H   0  0  0  0  0  0  0  0  0  0  0  0
   48.6451   10.1301   20.6172 H   0  0  0  0  0  0  0  0  0  0  0  0
   49.8436   13.6148   16.0187 H   0  0  0  0  0  0  0  0  0  0  0  0
   51.8211    5.2504   19.9746 H   0  0  0  0  0  0  0  0  0  0  0  0
   49.9050   13.1502   20.5445 H   0  0  0  0  0  0  0  0  0  0  0  0
   52.2473    9.3678   18.1171 H   0  0  0  0  0  0  0  0  0  0  0  0
   50.8885   16.0378   18.0897 H   0  0  0  0  0  0  0  0  0  0  0  0
   54.6587    6.3314   18.5664 H   0  0  0  0  0  0  0  0  0  0  0  0
   48.1316    8.4861   17.2761 H   0  0  0  0  0  0  0  0  0  0  0  0
   47.1333    8.0589   20.9576 H   0  0  0  0  0  0  0  0  0  0  0  0
   49.2550   12.1757   14.1814 H   0  0  0  0  0  0  0  0  0  0  0  0
   50.0760    4.0943   21.1535 H   0  0  0  0  0  0  0  0  0  0  0  0
   46.3615    6.0233   22.0231 H   0  0  0  0  0  0  0  0  0  0  0  0
   47.9325    8.1646   14.8686 H   0  0  0  0  0  0  0  0  0  0  0  0
   47.8244    4.0199   22.1316 H   0  0  0  0  0  0  0  0  0  0  0  0
   48.4923   10.0099   13.3070 H   0  0  0  0  0  0  0  0  0  0  0  0
   46.9880   11.7234   17.6346 H   0  0  0  0  0  0  0  0  0  0  0  0
   48.5113   12.2059   16.8818 H   0  0  0  0  0  0  0  0  0  0  0  0
   48.0768    9.3658   18.0345 H   0  0  0  0  0  0  0  0  0  0  0  0
   47.4820    9.8229   16.4486 H   0  0  0  0  0  0  0  0  0  0  0  0
   51.9962    9.8803   20.4545 H   0  0  0  0  0  0  0  0  0  0  0  0
   52.2688    8.9099   19.0793 H   0  0  0  0  0  0  0  0  0  0  0  0
   49.6318    8.6295   20.5960 H   0  0  0  0  0  0  0  0  0  0  0  0
   51.1157    7.8327   21.1154 H   0  0  0  0  0  0  0  0  0  0  0  0
   52.9139   10.1458   17.4068 H   0  0  0  0  0  0  0  0  0  0  0  0
   50.9725   11.2505   21.3899 H   0  0  0  0  0  0  0  0  0  0  0  0
   51.3734    6.7985   18.8740 H   0  0  0  0  0  0  0  0  0  0  0  0
   49.8296    7.4620   18.3563 H   0  0  0  0  0  0  0  0  0  0  0  0
   48.8702    9.4635   14.6393 H   0  0  0  0  0  0  0  0  0  0  0  0
   47.0461   13.3053   19.2501 H   0  0  0  0  0  0  0  0  0  0  0  0
   47.7583    6.5827   19.3194 H   0  0  0  0  0  0  0  0  0  0  0  0
   48.2687    6.9233   20.9918 H   0  0  0  0  0  0  0  0  0  0  0  0
   47.8292    5.2946   20.5328 H   0  0  0  0  0  0  0  0  0  0  0  0
   50.8005    4.5502   18.6019 H   0  0  0  0  0  0  0  0  0  0  0  0
   49.3030    3.9130   19.2635 H   0  0  0  0  0  0  0  0  0  0  0  0
   49.2437    5.0600   17.9100 H   0  0  0  0  0  0  0  0  0  0  0  0
   49.6621   12.8661   22.5896 H   0  0  0  0  0  0  0  0  0  0  0  0
   53.1347    9.5621   15.0308 H   0  0  0  0  0  0  0  0  0  0  0  0
   47.6912   13.9448   21.5282 H   0  0  0  0  0  0  0  0  0  0  0  0
   51.1128    9.2226   13.6387 H   0  0  0  0  0  0  0  0  0  0  0  0
  2  1  1  0
  3  1  1  0
  4  2  2  0
  5  3  2  0
  6  4  1  0
  7  5  1  0
  8  1  1  0
  9  8  1  0
 10 13  1  0
 11  3  1  0
 12  2  1  0
 13  9  1  0
 14  5  1  0
 15  4  1  0
 16 10  1  0
 17 10  1  0
 18 12  2  0
 19 11  2  0
 20 15  2  0
 21 14  2  0
  6  7  1  0
 18 20  1  0
 19 21  1  0
 23 27  2  0
 24 28  1  0
 25 26  1  0
 26 22  2  0
 27 24  1  0
 28 25  1  0
 29 22  1  0
 30 23  1  0
 31 22  1  0
 32 23  1  0
 33 24  2  0
 34 35  1  0
 35 29  2  0
 36 33  1  0
 37 31  2  0
 38 32  2  0
 39 26  1  0
 40 27  1  0
 41 31  1  0
 42 32  1  0
 43 34  1  0
 44 33  1  0
 45 35  1  0
 46 36  1  0
 47 44  2  0
 48 43  2  0
 49 47  1  0
 50 45  2  0
 25 34  2  0
 48 50  1  0
 30 36  2  0
 46 49  2  0
 52 51  1  0
 53 51  1  0
 54 52  2  0
 55 53  2  0
 56 54  1  0
 57 55  1  0
 58 51  1  0
 59 58  1  0
 60 63  1  0
 61 53  1  0
 62 52  1  0
 63 59  1  0
 64 55  1  0
 65 54  1  0
 66 60  1  0
 67 60  1  0
 68 62  2  0
 69 61  2  0
 70 65  2  0
 71 64  2  0
 56 57  1  0
 68 70  1  0
 69 71  1  0
  6 72  1  0
  6 73  1  0
  7 74  1  0
  7 75  1  0
  8 76  1  0
  8 77  1  0
  9 78  1  0
  9 79  1  0
 11 80  1  0
 12 81  1  0
 13 82  1  0
 13 83  1  0
 14 84  1  0
 15 85  1  0
 16 86  1  0
 16 87  1  0
 16 88  1  0
 17 89  1  0
 17 90  1  0
 17 91  1  0
 18 92  1  0
 19 93  1  0
 20 94  1  0
 21 95  1  0
 28 96  1  0
 28 97  1  0
 29 98  1  0
 30 99  1  0
 39100  1  0
 40101  1  0
 41102  1  0
 42103  1  0
 43104  1  0
 44105  1  0
 45106  1  0
 46107  1  0
 47108  1  0
 48109  1  0
 49110  1  0
 50111  1  0
 56112  1  0
 56113  1  0
 57114  1  0
 57115  1  0
 58116  1  0
 58117  1  0
 59118  1  0
 59119  1  0
 61120  1  0
 62121  1  0
 63122  1  0
 63123  1  0
 64124  1  0
 65125  1  0
 66126  1  0
 66127  1  0
 66128  1  0
 67129  1  0
 67130  1  0
 67131  1  0
 68132  1  0
 69133  1  0
 70134  1  0
 71135  1  0
M  END
> <Uni-Dock RESULT> 
ENERGY=   -5.717  LOWER_BOUND=    3.213  UPPER_BOUND=    5.211
INTER + INTRA:          -5.717
INTER:                  -5.717
INTRA:                   0.000
UNBOUND:                 0.000

$$$$
