
     RDKit          3D

135142  0  0  0  0  0  0  0  0999 V2000
   49.5981    9.8300   16.2522 N   0  0  0  0  0  0  0  0  0  0  0  0
   49.5230    9.4772   14.8621 C   0  0  0  0  0  0  0  0  0  0  0  0
   49.5888   11.1124   16.8955 C   0  0  0  0  0  0  0  0  0  0  0  0
   49.4010   10.4113   13.8059 C   0  0  0  0  0  0  0  0  0  0  0  0
   50.1193   12.2786   16.3159 C   0  0  0  0  0  0  0  0  0  0  0  0
   49.4974   11.9047   13.9805 C   0  0  0  0  0  0  0  0  0  0  0  0
   50.6354   12.2899   14.9090 C   0  0  0  0  0  0  0  0  0  0  0  0
   49.9965    8.7412   17.1925 C   0  0  0  0  0  0  0  0  0  0  0  0
   48.8047    7.8770   17.6476 C   0  0  0  0  0  0  0  0  0  0  0  0
   48.2888    5.7503   18.9754 N   0  0  0  0  0  0  0  0  0  0  0  0
   49.0428   11.2615   18.1928 C   0  0  0  0  0  0  0  0  0  0  0  0
   49.5162    8.1160   14.4550 C   0  0  0  0  0  0  0  0  0  0  0  0
   49.3052    6.6830   18.4722 C   0  0  0  0  0  0  0  0  0  0  0  0
   50.1513   13.4972   17.0326 C   0  0  0  0  0  0  0  0  0  0  0  0
   49.2072    9.9781   12.4679 C   0  0  0  0  0  0  0  0  0  0  0  0
   47.5364    5.0954   17.9092 C   0  0  0  0  0  0  0  0  0  0  0  0
   47.3888    6.3609   19.9496 C   0  0  0  0  0  0  0  0  0  0  0  0
   49.3517    7.6979   13.1274 C   0  0  0  0  0  0  0  0  0  0  0  0
   49.0641   12.4720   18.8953 C   0  0  0  0  0  0  0  0  0  0  0  0
   49.1816    8.6340   12.1293 C   0  0  0  0  0  0  0  0  0  0  0  0
   49.6318   13.5923   18.3170 C   0  0  0  0  0  0  0  0  0  0  0  0
   49.2257    6.1302   18.3586 C   0  0  0  0  0  0  0  0  0  0  0  0
   51.1720   11.2055   15.4389 C   0  0  0  0  0  0  0  0  0  0  0  0
   49.1199    9.8641   15.3194 C   0  0  0  0  0  0  0  0  0  0  0  0
   48.3747    8.0908   17.1634 C   0  0  0  0  0  0  0  0  0  0  0  0
   49.0127    6.8302   17.1643 C   0  0  0  0  0  0  0  0  0  0  0  0
   50.3196   10.2231   15.9739 C   0  0  0  0  0  0  0  0  0  0  0  0
   48.1458    8.8004   15.8375 C   0  0  0  0  0  0  0  0  0  0  0  0
   48.7885    6.6894   19.5641 C   0  0  0  0  0  0  0  0  0  0  0  0
   50.8331   11.8334   14.2370 C   0  0  0  0  0  0  0  0  0  0  0  0
   49.8896    4.8051   18.4431 C   0  0  0  0  0  0  0  0  0  0  0  0
   52.4474   11.6454   16.0651 C   0  0  0  0  0  0  0  0  0  0  0  0
   48.7885   10.5158   14.0779 C   0  0  0  0  0  0  0  0  0  0  0  0
   47.9550    8.6688   18.4021 C   0  0  0  0  0  0  0  0  0  0  0  0
   48.1620    7.9424   19.6015 C   0  0  0  0  0  0  0  0  0  0  0  0
   49.6619   11.5019   13.5529 C   0  0  0  0  0  0  0  0  0  0  0  0
   50.0612    4.1501   19.4542 O   0  0  0  0  0  0  0  0  0  0  0  0
   53.2165   12.4783   15.6213 O   0  0  0  0  0  0  0  0  0  0  0  0
   49.4063    6.3253   15.9477 O   0  0  0  0  0  0  0  0  0  0  0  0
   50.6418    9.5914   17.1446 O   0  0  0  0  0  0  0  0  0  0  0  0
   50.3184    4.3454   17.2485 O   0  0  0  0  0  0  0  0  0  0  0  0
   52.7124   11.0261   17.2349 O   0  0  0  0  0  0  0  0  0  0  0  0
   47.3471    9.9423   18.5166 C   0  0  0  0  0  0  0  0  0  0  0  0
   47.6252   10.2352   13.3156 C   0  0  0  0  0  0  0  0  0  0  0  0
   47.7471    8.4750   20.8340 C   0  0  0  0  0  0  0  0  0  0  0  0
   49.3657   12.1528   12.3424 C   0  0  0  0  0  0  0  0  0  0  0  0
   47.3407   10.8884   12.1126 C   0  0  0  0  0  0  0  0  0  0  0  0
   46.9445   10.4626   19.7496 C   0  0  0  0  0  0  0  0  0  0  0  0
   48.2125   11.8489   11.6254 C   0  0  0  0  0  0  0  0  0  0  0  0
   47.1398    9.7262   20.9082 C   0  0  0  0  0  0  0  0  0  0  0  0
   49.5031    9.9635   16.2214 N   0  0  0  0  0  0  0  0  0  0  0  0
   50.0897    9.5931   14.9646 C   0  0  0  0  0  0  0  0  0  0  0  0
   48.8671   11.1814   16.6369 C   0  0  0  0  0  0  0  0  0  0  0  0
   50.7156   10.5071   14.0983 C   0  0  0  0  0  0  0  0  0  0  0  0
   48.6797   12.3098   15.8030 C   0  0  0  0  0  0  0  0  0  0  0  0
   50.7077   11.9801   14.3747 C   0  0  0  0  0  0  0  0  0  0  0  0
   49.2641   12.4477   14.4213 C   0  0  0  0  0  0  0  0  0  0  0  0
   49.8094    8.9701   17.2924 C   0  0  0  0  0  0  0  0  0  0  0  0
   48.6158    8.0542   17.6231 C   0  0  0  0  0  0  0  0  0  0  0  0
   47.9098    6.1781   19.1397 N   0  0  0  0  0  0  0  0  0  0  0  0
   48.3271   11.3146   17.9437 C   0  0  0  0  0  0  0  0  0  0  0  0
   50.0825    8.2438   14.5343 C   0  0  0  0  0  0  0  0  0  0  0  0
   49.0361    6.9849   18.6407 C   0  0  0  0  0  0  0  0  0  0  0  0
   47.9294   13.4305   16.2478 C   0  0  0  0  0  0  0  0  0  0  0  0
   51.3458   10.0703   12.9101 C   0  0  0  0  0  0  0  0  0  0  0  0
   48.3554    5.3259   20.2462 C   0  0  0  0  0  0  0  0  0  0  0  0
   47.3107    5.3502   18.0913 C   0  0  0  0  0  0  0  0  0  0  0  0
   50.6947    7.8157   13.3507 C   0  0  0  0  0  0  0  0  0  0  0  0
   47.6113   12.4366   18.3840 C   0  0  0  0  0  0  0  0  0  0  0  0
   51.3403    8.7318   12.5409 C   0  0  0  0  0  0  0  0  0  0  0  0
   47.3976   13.4951   17.5263 C   0  0  0  0  0  0  0  0  0  0  0  0
   48.5259   12.2986   14.3072 H   0  0  0  0  0  0  0  0  0  0  0  0
   49.7085   12.3700   13.0088 H   0  0  0  0  0  0  0  0  0  0  0  0
   51.5112   11.6365   14.8149 H   0  0  0  0  0  0  0  0  0  0  0  0
   50.9745   13.2995   14.6435 H   0  0  0  0  0  0  0  0  0  0  0  0
   50.7816    8.1206   16.7389 H   0  0  0  0  0  0  0  0  0  0  0  0
   50.5026    9.1441   18.0823 H   0  0  0  0  0  0  0  0  0  0  0  0
   48.2270    7.5258   16.7885 H   0  0  0  0  0  0  0  0  0  0  0  0
   48.1074    8.4725   18.2419 H   0  0  0  0  0  0  0  0  0  0  0  0
   48.5641   10.4294   18.6939 H   0  0  0  0  0  0  0  0  0  0  0  0
   49.6277    7.3050   15.1656 H   0  0  0  0  0  0  0  0  0  0  0  0
   50.0227    6.1096   17.8699 H   0  0  0  0  0  0  0  0  0  0  0  0
   49.8857    7.0560   19.3268 H   0  0  0  0  0  0  0  0  0  0  0  0
   50.5750   14.3894   16.5762 H   0  0  0  0  0  0  0  0  0  0  0  0
   49.0904   10.7098   11.6698 H   0  0  0  0  0  0  0  0  0  0  0  0
   48.2122    4.6476   17.1720 H   0  0  0  0  0  0  0  0  0  0  0  0
   46.8594    5.7803   17.3866 H   0  0  0  0  0  0  0  0  0  0  0  0
   46.9346    4.2755   18.3188 H   0  0  0  0  0  0  0  0  0  0  0  0
   46.7384    7.1225   19.5064 H   0  0  0  0  0  0  0  0  0  0  0  0
   47.9557    6.8213   20.7664 H   0  0  0  0  0  0  0  0  0  0  0  0
   46.7497    5.5961   20.4067 H   0  0  0  0  0  0  0  0  0  0  0  0
   49.3463    6.6377   12.8894 H   0  0  0  0  0  0  0  0  0  0  0  0
   48.6326   12.5293   19.8908 H   0  0  0  0  0  0  0  0  0  0  0  0
   49.0422    8.3266   11.0973 H   0  0  0  0  0  0  0  0  0  0  0  0
   49.6570   14.5373   18.8519 H   0  0  0  0  0  0  0  0  0  0  0  0
   47.1449    9.2495   15.8883 H   0  0  0  0  0  0  0  0  0  0  0  0
   48.0551    8.0361   15.0539 H   0  0  0  0  0  0  0  0  0  0  0  0
   48.9486    6.1405   20.4917 H   0  0  0  0  0  0  0  0  0  0  0  0
   51.5007   12.5913   13.8264 H   0  0  0  0  0  0  0  0  0  0  0  0
   49.8717    5.4779   16.1091 H   0  0  0  0  0  0  0  0  0  0  0  0
   51.4837    9.9573   17.4854 H   0  0  0  0  0  0  0  0  0  0  0  0
   50.7260    3.4811   17.4822 H   0  0  0  0  0  0  0  0  0  0  0  0
   53.5672   11.4312   17.5060 H   0  0  0  0  0  0  0  0  0  0  0  0
   47.1896   10.5641   17.6393 H   0  0  0  0  0  0  0  0  0  0  0  0
   46.9085    9.4861   13.6448 H   0  0  0  0  0  0  0  0  0  0  0  0
   47.8994    7.9161   21.7552 H   0  0  0  0  0  0  0  0  0  0  0  0
   50.0407   12.9079   11.9429 H   0  0  0  0  0  0  0  0  0  0  0  0
   46.4385   10.6392   11.5599 H   0  0  0  0  0  0  0  0  0  0  0  0
   46.4829   11.4451   19.7981 H   0  0  0  0  0  0  0  0  0  0  0  0
   48.0003   12.3590   10.6900 H   0  0  0  0  0  0  0  0  0  0  0  0
   46.8291   10.1251   21.8700 H   0  0  0  0  0  0  0  0  0  0  0  0
   51.2211   12.5151   13.5654 H   0  0  0  0  0  0  0  0  0  0  0  0
   51.2658   12.2025   15.2925 H   0  0  0  0  0  0  0  0  0  0  0  0
   49.2629   13.5070   14.1311 H   0  0  0  0  0  0  0  0  0  0  0  0
   48.6216   11.9289   13.6983 H   0  0  0  0  0  0  0  0  0  0  0  0
   50.6734    8.3479   17.0164 H   0  0  0  0  0  0  0  0  0  0  0  0
   50.1726    9.4787   18.1960 H   0  0  0  0  0  0  0  0  0  0  0  0
   48.2360    7.5841   16.7120 H   0  0  0  0  0  0  0  0  0  0  0  0
   47.7754    8.6271   18.0263 H   0  0  0  0  0  0  0  0  0  0  0  0
   48.4273   10.5334   18.6883 H   0  0  0  0  0  0  0  0  0  0  0  0
   49.5780    7.4776   15.1120 H   0  0  0  0  0  0  0  0  0  0  0  0
   49.4954    7.5046   19.4926 H   0  0  0  0  0  0  0  0  0  0  0  0
   49.8115    6.3409   18.2045 H   0  0  0  0  0  0  0  0  0  0  0  0
   47.7713   14.2789   15.5840 H   0  0  0  0  0  0  0  0  0  0  0  0
   51.8355   10.7882   12.2549 H   0  0  0  0  0  0  0  0  0  0  0  0
   48.7509    5.9343   21.0673 H   0  0  0  0  0  0  0  0  0  0  0  0
   49.1321    4.6176   19.9351 H   0  0  0  0  0  0  0  0  0  0  0  0
   47.5142    4.7579   20.6591 H   0  0  0  0  0  0  0  0  0  0  0  0
   48.0454    4.6903   17.6158 H   0  0  0  0  0  0  0  0  0  0  0  0
   46.5079    4.7275   18.5036 H   0  0  0  0  0  0  0  0  0  0  0  0
   46.8425    5.9670   17.3177 H   0  0  0  0  0  0  0  0  0  0  0  0
   50.6591    6.7669   13.0701 H   0  0  0  0  0  0  0  0  0  0  0  0
   47.2154   12.4633   19.3961 H   0  0  0  0  0  0  0  0  0  0  0  0
   51.8210    8.4130   11.6208 H   0  0  0  0  0  0  0  0  0  0  0  0
   46.8337   14.3652   17.8477 H   0  0  0  0  0  0  0  0  0  0  0  0
  2  1  1  0
  3  1  1  0
  4  2  2  0
  5  3  2  0
  6  4  1  0
  7  5  1  0
  8  1  1  0
  9  8  1  0
 10 13  1  0
 11  3  1  0
 12  2  1  0
 13  9  1  0
 14  5  1  0
 15  4  1  0
 16 10  1  0
 17 10  1  0
 18 12  2  0
 19 11  2  0
 20 15  2  0
 21 14  2  0
  6  7  1  0
 18 20  1  0
 19 21  1  0
 23 27  2  0
 24 28  1  0
 25 26  1  0
 26 22  2  0
 27 24  1  0
 28 25  1  0
 29 22  1  0
 30 23  1  0
 31 22  1  0
 32 23  1  0
 33 24  2  0
 34 35  1  0
 35 29  2  0
 36 33  1  0
 37 31  2  0
 38 32  2  0
 39 26  1  0
 40 27  1  0
 41 31  1  0
 42 32  1  0
 43 34  1  0
 44 33  1  0
 45 35  1  0
 46 36  1  0
 47 44  2  0
 48 43  2  0
 49 47  1  0
 50 45  2  0
 25 34  2  0
 48 50  1  0
 30 36  2  0
 46 49  2  0
 52 51  1  0
 53 51  1  0
 54 52  2  0
 55 53  2  0
 56 54  1  0
 57 55  1  0
 58 51  1  0
 59 58  1  0
 60 63  1  0
 61 53  1  0
 62 52  1  0
 63 59  1  0
 64 55  1  0
 65 54  1  0
 66 60  1  0
 67 60  1  0
 68 62  2  0
 69 61  2  0
 70 65  2  0
 71 64  2  0
 56 57  1  0
 68 70  1  0
 69 71  1  0
  6 72  1  0
  6 73  1  0
  7 74  1  0
  7 75  1  0
  8 76  1  0
  8 77  1  0
  9 78  1  0
  9 79  1  0
 11 80  1  0
 12 81  1  0
 13 82  1  0
 13 83  1  0
 14 84  1  0
 15 85  1  0
 16 86  1  0
 16 87  1  0
 16 88  1  0
 17 89  1  0
 17 90  1  0
 17 91  1  0
 18 92  1  0
 19 93  1  0
 20 94  1  0
 21 95  1  0
 28 96  1  0
 28 97  1  0
 29 98  1  0
 30 99  1  0
 39100  1  0
 40101  1  0
 41102  1  0
 42103  1  0
 43104  1  0
 44105  1  0
 45106  1  0
 46107  1  0
 47108  1  0
 48109  1  0
 49110  1  0
 50111  1  0
 56112  1  0
 56113  1  0
 57114  1  0
 57115  1  0
 58116  1  0
 58117  1  0
 59118  1  0
 59119  1  0
 61120  1  0
 62121  1  0
 63122  1  0
 63123  1  0
 64124  1  0
 65125  1  0
 66126  1  0
 66127  1  0
 66128  1  0
 67129  1  0
 67130  1  0
 67131  1  0
 68132  1  0
 69133  1  0
 70134  1  0
 71135  1  0
M  END
> <Uni-Dock RESULT> 
ENERGY=   -6.440  LOWER_BOUND=    0.000  UPPER_BOUND=    0.000
INTER + INTRA:          -6.440
INTER:                  -6.440
INTRA:                   0.000
UNBOUND:                 0.000

$$$$

     RDKit          3D

135142  0  0  0  0  0  0  0  0999 V2000
   49.7346    8.1889   18.4425 N   0  0  0  0  0  0  0  0  0  0  0  0
   49.1083    7.0851   19.1146 C   0  0  0  0  0  0  0  0  0  0  0  0
   50.5187    8.2323   17.2417 C   0  0  0  0  0  0  0  0  0  0  0  0
   49.1485    5.7455   18.6597 C   0  0  0  0  0  0  0  0  0  0  0  0
   51.3484    7.1804   16.8145 C   0  0  0  0  0  0  0  0  0  0  0  0
   49.9870    5.2687   17.5023 C   0  0  0  0  0  0  0  0  0  0  0  0
   51.3823    5.8666   17.5349 C   0  0  0  0  0  0  0  0  0  0  0  0
   49.8182    9.4693   19.2054 C   0  0  0  0  0  0  0  0  0  0  0  0
   48.5455   10.3281   19.0754 C   0  0  0  0  0  0  0  0  0  0  0  0
   47.4857   12.4597   20.0163 N   0  0  0  0  0  0  0  0  0  0  0  0
   50.5047    9.3815   16.4156 C   0  0  0  0  0  0  0  0  0  0  0  0
   48.3409    7.2896   20.2926 C   0  0  0  0  0  0  0  0  0  0  0  0
   48.6312   11.5409   20.0124 C   0  0  0  0  0  0  0  0  0  0  0  0
   52.1575    7.3141   15.6625 C   0  0  0  0  0  0  0  0  0  0  0  0
   48.4000    4.7309   19.3123 C   0  0  0  0  0  0  0  0  0  0  0  0
   46.2444   11.8234   20.4476 C   0  0  0  0  0  0  0  0  0  0  0  0
   47.3037   13.1475   18.7413 C   0  0  0  0  0  0  0  0  0  0  0  0
   47.6268    6.2760   20.9463 C   0  0  0  0  0  0  0  0  0  0  0  0
   51.2969    9.5065   15.2685 C   0  0  0  0  0  0  0  0  0  0  0  0
   47.6446    4.9915   20.4451 C   0  0  0  0  0  0  0  0  0  0  0  0
   52.1363    8.4725   14.8968 C   0  0  0  0  0  0  0  0  0  0  0  0
   48.2703   11.6761   20.4323 C   0  0  0  0  0  0  0  0  0  0  0  0
   51.4660    6.7642   18.5003 C   0  0  0  0  0  0  0  0  0  0  0  0
   49.0865    7.3644   18.4491 C   0  0  0  0  0  0  0  0  0  0  0  0
   48.1507    9.8305   18.8273 C   0  0  0  0  0  0  0  0  0  0  0  0
   48.0843   10.3165   20.1523 C   0  0  0  0  0  0  0  0  0  0  0  0
   50.4426    7.7211   18.6228 C   0  0  0  0  0  0  0  0  0  0  0  0
   47.9185    8.3488   18.5729 C   0  0  0  0  0  0  0  0  0  0  0  0
   48.5153   12.5623   19.3778 C   0  0  0  0  0  0  0  0  0  0  0  0
   51.1388    5.4368   18.2094 C   0  0  0  0  0  0  0  0  0  0  0  0
   48.2188   12.2630   21.7949 C   0  0  0  0  0  0  0  0  0  0  0  0
   52.9155    7.0560   18.6619 C   0  0  0  0  0  0  0  0  0  0  0  0
   48.7655    5.9906   18.1564 C   0  0  0  0  0  0  0  0  0  0  0  0
   48.4286   10.7375   17.7574 C   0  0  0  0  0  0  0  0  0  0  0  0
   48.5985   12.1133   18.0529 C   0  0  0  0  0  0  0  0  0  0  0  0
   49.8110    5.0398   18.0396 C   0  0  0  0  0  0  0  0  0  0  0  0
   48.3395   13.4410   22.0754 O   0  0  0  0  0  0  0  0  0  0  0  0
   53.8245    6.2502   18.5805 O   0  0  0  0  0  0  0  0  0  0  0  0
   47.8257    9.4006   21.1443 O   0  0  0  0  0  0  0  0  0  0  0  0
   50.7453    9.0232   18.9173 O   0  0  0  0  0  0  0  0  0  0  0  0
   48.0172   11.3455   22.7644 O   0  0  0  0  0  0  0  0  0  0  0  0
   53.1761    8.3559   18.9158 O   0  0  0  0  0  0  0  0  0  0  0  0
   48.5590   10.3484   16.4024 C   0  0  0  0  0  0  0  0  0  0  0  0
   47.4462    5.5009   17.9763 C   0  0  0  0  0  0  0  0  0  0  0  0
   48.8571   13.0334   17.0227 C   0  0  0  0  0  0  0  0  0  0  0  0
   49.5277    3.6919   17.7571 C   0  0  0  0  0  0  0  0  0  0  0  0
   47.1760    4.1580   17.6961 C   0  0  0  0  0  0  0  0  0  0  0  0
   48.8222   11.2733   15.3883 C   0  0  0  0  0  0  0  0  0  0  0  0
   48.2187    3.2522   17.5862 C   0  0  0  0  0  0  0  0  0  0  0  0
   48.9660   12.6172   15.6981 C   0  0  0  0  0  0  0  0  0  0  0  0
   49.7101    8.1116   18.2968 N   0  0  0  0  0  0  0  0  0  0  0  0
   49.6645    7.0892   19.3035 C   0  0  0  0  0  0  0  0  0  0  0  0
   49.8765    8.0202   16.8740 C   0  0  0  0  0  0  0  0  0  0  0  0
   50.3722    5.8772   19.2147 C   0  0  0  0  0  0  0  0  0  0  0  0
   50.0179    6.8045   16.1626 C   0  0  0  0  0  0  0  0  0  0  0  0
   51.1432    5.5085   17.9835 C   0  0  0  0  0  0  0  0  0  0  0  0
   50.1759    5.4556   16.8145 C   0  0  0  0  0  0  0  0  0  0  0  0
   49.7994    9.4766   18.8940 C   0  0  0  0  0  0  0  0  0  0  0  0
   48.4652   10.2447   18.8423 C   0  0  0  0  0  0  0  0  0  0  0  0
   47.4199   12.4551   19.4253 N   0  0  0  0  0  0  0  0  0  0  0  0
   49.8627    9.1842   16.0605 C   0  0  0  0  0  0  0  0  0  0  0  0
   48.8957    7.2678   20.4795 C   0  0  0  0  0  0  0  0  0  0  0  0
   48.5984   11.5853   19.5777 C   0  0  0  0  0  0  0  0  0  0  0  0
   50.0515    6.7885   14.7429 C   0  0  0  0  0  0  0  0  0  0  0  0
   50.3510    4.9418   20.2750 C   0  0  0  0  0  0  0  0  0  0  0  0
   47.7024   13.7829   19.9786 C   0  0  0  0  0  0  0  0  0  0  0  0
   46.2292   11.8969   20.0689 C   0  0  0  0  0  0  0  0  0  0  0  0
   48.8650    6.3341   21.5217 C   0  0  0  0  0  0  0  0  0  0  0  0
   49.9244    9.1610   14.6602 C   0  0  0  0  0  0  0  0  0  0  0  0
   49.6062    5.1710   21.4242 C   0  0  0  0  0  0  0  0  0  0  0  0
   50.0038    7.9552   13.9960 C   0  0  0  0  0  0  0  0  0  0  0  0
   49.4579    5.4670   16.5607 H   0  0  0  0  0  0  0  0  0  0  0  0
   50.1064    4.1793   17.5661 H   0  0  0  0  0  0  0  0  0  0  0  0
   51.7750    5.9947   18.5509 H   0  0  0  0  0  0  0  0  0  0  0  0
   52.0679    5.1781   17.0243 H   0  0  0  0  0  0  0  0  0  0  0  0
   50.0483    9.2647   20.2602 H   0  0  0  0  0  0  0  0  0  0  0  0
   50.6846   10.0692   18.8897 H   0  0  0  0  0  0  0  0  0  0  0  0
   47.6527    9.7392   19.3021 H   0  0  0  0  0  0  0  0  0  0  0  0
   48.4167   10.6643   18.0437 H   0  0  0  0  0  0  0  0  0  0  0  0
   49.8542   10.2184   16.6376 H   0  0  0  0  0  0  0  0  0  0  0  0
   48.2517    8.2655   20.7559 H   0  0  0  0  0  0  0  0  0  0  0  0
   48.7850   11.1867   21.0406 H   0  0  0  0  0  0  0  0  0  0  0  0
   49.5352   12.1162   19.7718 H   0  0  0  0  0  0  0  0  0  0  0  0
   52.8034    6.4963   15.3497 H   0  0  0  0  0  0  0  0  0  0  0  0
   48.4221    3.7095   18.9351 H   0  0  0  0  0  0  0  0  0  0  0  0
   46.3846   11.2974   21.3985 H   0  0  0  0  0  0  0  0  0  0  0  0
   45.8563   11.1104   19.7118 H   0  0  0  0  0  0  0  0  0  0  0  0
   45.4711   12.5810   20.6216 H   0  0  0  0  0  0  0  0  0  0  0  0
   46.9968   12.4721   17.9356 H   0  0  0  0  0  0  0  0  0  0  0  0
   48.2271   13.6529   18.4377 H   0  0  0  0  0  0  0  0  0  0  0  0
   46.5390   13.9275   18.8372 H   0  0  0  0  0  0  0  0  0  0  0  0
   47.0516    6.5069   21.8388 H   0  0  0  0  0  0  0  0  0  0  0  0
   51.2487   10.4133   14.6719 H   0  0  0  0  0  0  0  0  0  0  0  0
   47.0883    4.1971   20.9333 H   0  0  0  0  0  0  0  0  0  0  0  0
   52.7581    8.5572   14.0103 H   0  0  0  0  0  0  0  0  0  0  0  0
   47.3123    8.2763   17.6599 H   0  0  0  0  0  0  0  0  0  0  0  0
   47.2569    7.9677   19.3625 H   0  0  0  0  0  0  0  0  0  0  0  0
   48.6528   13.6209   19.5963 H   0  0  0  0  0  0  0  0  0  0  0  0
   51.9372    4.6998   18.1198 H   0  0  0  0  0  0  0  0  0  0  0  0
   47.8574    9.8700   22.0042 H   0  0  0  0  0  0  0  0  0  0  0  0
   51.7172    9.1183   18.9885 H   0  0  0  0  0  0  0  0  0  0  0  0
   48.0134   11.8917   23.5826 H   0  0  0  0  0  0  0  0  0  0  0  0
   54.1575    8.3708   18.9858 H   0  0  0  0  0  0  0  0  0  0  0  0
   48.4726    9.3043   16.1130 H   0  0  0  0  0  0  0  0  0  0  0  0
   46.5878    6.1641   18.0580 H   0  0  0  0  0  0  0  0  0  0  0  0
   48.9816   14.0910   17.2467 H   0  0  0  0  0  0  0  0  0  0  0  0
   50.3341    2.9656   17.6702 H   0  0  0  0  0  0  0  0  0  0  0  0
   46.1487    3.8263   17.5686 H   0  0  0  0  0  0  0  0  0  0  0  0
   48.9176   10.9365   14.3596 H   0  0  0  0  0  0  0  0  0  0  0  0
   48.0171    2.2065   17.3714 H   0  0  0  0  0  0  0  0  0  0  0  0
   49.1707   13.3413   14.9142 H   0  0  0  0  0  0  0  0  0  0  0  0
   51.5937    4.5154   18.1079 H   0  0  0  0  0  0  0  0  0  0  0  0
   51.9752    6.2060   17.8271 H   0  0  0  0  0  0  0  0  0  0  0  0
   50.5947    4.7478   16.0865 H   0  0  0  0  0  0  0  0  0  0  0  0
   49.1886    5.0648   17.0921 H   0  0  0  0  0  0  0  0  0  0  0  0
   50.1452    9.4277   19.9370 H   0  0  0  0  0  0  0  0  0  0  0  0
   50.6009   10.0545   18.4138 H   0  0  0  0  0  0  0  0  0  0  0  0
   47.6660    9.6449   19.2861 H   0  0  0  0  0  0  0  0  0  0  0  0
   48.1520   10.4277   17.8102 H   0  0  0  0  0  0  0  0  0  0  0  0
   49.7880   10.1792   16.4838 H   0  0  0  0  0  0  0  0  0  0  0  0
   48.2769    8.1480   20.6121 H   0  0  0  0  0  0  0  0  0  0  0  0
   49.4703   12.1051   19.1580 H   0  0  0  0  0  0  0  0  0  0  0  0
   48.8142   11.4069   20.6397 H   0  0  0  0  0  0  0  0  0  0  0  0
   50.1329    5.8424   14.2103 H   0  0  0  0  0  0  0  0  0  0  0  0
   50.9126    4.0128   20.1961 H   0  0  0  0  0  0  0  0  0  0  0  0
   48.5545   14.2421   19.4649 H   0  0  0  0  0  0  0  0  0  0  0  0
   47.9245   13.7448   21.0514 H   0  0  0  0  0  0  0  0  0  0  0  0
   46.8501   14.4545   19.8252 H   0  0  0  0  0  0  0  0  0  0  0  0
   46.3925   11.6926   21.1333 H   0  0  0  0  0  0  0  0  0  0  0  0
   45.3828   12.5881   19.9793 H   0  0  0  0  0  0  0  0  0  0  0  0
   45.9111   10.9707   19.5800 H   0  0  0  0  0  0  0  0  0  0  0  0
   48.2578    6.5237   22.4023 H   0  0  0  0  0  0  0  0  0  0  0  0
   49.8959   10.0932   14.1016 H   0  0  0  0  0  0  0  0  0  0  0  0
   49.5930    4.4389   22.2262 H   0  0  0  0  0  0  0  0  0  0  0  0
   50.0386    7.9197   12.9116 H   0  0  0  0  0  0  0  0  0  0  0  0
  2  1  1  0
  3  1  1  0
  4  2  2  0
  5  3  2  0
  6  4  1  0
  7  5  1  0
  8  1  1  0
  9  8  1  0
 10 13  1  0
 11  3  1  0
 12  2  1  0
 13  9  1  0
 14  5  1  0
 15  4  1  0
 16 10  1  0
 17 10  1  0
 18 12  2  0
 19 11  2  0
 20 15  2  0
 21 14  2  0
  6  7  1  0
 18 20  1  0
 19 21  1  0
 23 27  2  0
 24 28  1  0
 25 26  1  0
 26 22  2  0
 27 24  1  0
 28 25  1  0
 29 22  1  0
 30 23  1  0
 31 22  1  0
 32 23  1  0
 33 24  2  0
 34 35  1  0
 35 29  2  0
 36 33  1  0
 37 31  2  0
 38 32  2  0
 39 26  1  0
 40 27  1  0
 41 31  1  0
 42 32  1  0
 43 34  1  0
 44 33  1  0
 45 35  1  0
 46 36  1  0
 47 44  2  0
 48 43  2  0
 49 47  1  0
 50 45  2  0
 25 34  2  0
 48 50  1  0
 30 36  2  0
 46 49  2  0
 52 51  1  0
 53 51  1  0
 54 52  2  0
 55 53  2  0
 56 54  1  0
 57 55  1  0
 58 51  1  0
 59 58  1  0
 60 63  1  0
 61 53  1  0
 62 52  1  0
 63 59  1  0
 64 55  1  0
 65 54  1  0
 66 60  1  0
 67 60  1  0
 68 62  2  0
 69 61  2  0
 70 65  2  0
 71 64  2  0
 56 57  1  0
 68 70  1  0
 69 71  1  0
  6 72  1  0
  6 73  1  0
  7 74  1  0
  7 75  1  0
  8 76  1  0
  8 77  1  0
  9 78  1  0
  9 79  1  0
 11 80  1  0
 12 81  1  0
 13 82  1  0
 13 83  1  0
 14 84  1  0
 15 85  1  0
 16 86  1  0
 16 87  1  0
 16 88  1  0
 17 89  1  0
 17 90  1  0
 17 91  1  0
 18 92  1  0
 19 93  1  0
 20 94  1  0
 21 95  1  0
 28 96  1  0
 28 97  1  0
 29 98  1  0
 30 99  1  0
 39100  1  0
 40101  1  0
 41102  1  0
 42103  1  0
 43104  1  0
 44105  1  0
 45106  1  0
 46107  1  0
 47108  1  0
 48109  1  0
 49110  1  0
 50111  1  0
 56112  1  0
 56113  1  0
 57114  1  0
 57115  1  0
 58116  1  0
 58117  1  0
 59118  1  0
 59119  1  0
 61120  1  0
 62121  1  0
 63122  1  0
 63123  1  0
 64124  1  0
 65125  1  0
 66126  1  0
 66127  1  0
 66128  1  0
 67129  1  0
 67130  1  0
 67131  1  0
 68132  1  0
 69133  1  0
 70134  1  0
 71135  1  0
M  END
> <Uni-Dock RESULT> 
ENERGY=   -6.433  LOWER_BOUND=    2.154  UPPER_BOUND=    6.286
INTER + INTRA:          -6.433
INTER:                  -6.433
INTRA:                   0.000
UNBOUND:                 0.000

$$$$

     RDKit          3D

135142  0  0  0  0  0  0  0  0999 V2000
   50.5493    5.9933   19.9797 N   0  0  0  0  0  0  0  0  0  0  0  0
   49.8329    6.4241   21.1475 C   0  0  0  0  0  0  0  0  0  0  0  0
   50.3471    6.2951   18.5917 C   0  0  0  0  0  0  0  0  0  0  0  0
   48.7251    7.3046   21.1259 C   0  0  0  0  0  0  0  0  0  0  0  0
   49.0857    6.5532   18.0262 C   0  0  0  0  0  0  0  0  0  0  0  0
   48.0450    7.7798   19.8683 C   0  0  0  0  0  0  0  0  0  0  0  0
   47.8524    6.6502   18.8720 C   0  0  0  0  0  0  0  0  0  0  0  0
   51.5048    4.8619   20.1673 C   0  0  0  0  0  0  0  0  0  0  0  0
   52.8947    5.3247   20.6451 C   0  0  0  0  0  0  0  0  0  0  0  0
   55.1293    4.3786   21.4599 N   0  0  0  0  0  0  0  0  0  0  0  0
   51.4433    6.3302   17.6969 C   0  0  0  0  0  0  0  0  0  0  0  0
   50.2418    6.0154   22.4453 C   0  0  0  0  0  0  0  0  0  0  0  0
   53.7691    4.1077   20.9774 C   0  0  0  0  0  0  0  0  0  0  0  0
   48.9420    6.7671   16.6358 C   0  0  0  0  0  0  0  0  0  0  0  0
   48.1489    7.7814   22.3327 C   0  0  0  0  0  0  0  0  0  0  0  0
   55.1523    5.1268   22.7135 C   0  0  0  0  0  0  0  0  0  0  0  0
   55.9726    5.0191   20.4546 C   0  0  0  0  0  0  0  0  0  0  0  0
   49.6490    6.4703   23.6311 C   0  0  0  0  0  0  0  0  0  0  0  0
   51.2999    6.5548   16.3229 C   0  0  0  0  0  0  0  0  0  0  0  0
   48.6055    7.3699   23.5754 C   0  0  0  0  0  0  0  0  0  0  0  0
   50.0419    6.7624   15.7879 C   0  0  0  0  0  0  0  0  0  0  0  0
   54.0119    3.9864   21.4785 C   0  0  0  0  0  0  0  0  0  0  0  0
   48.4545    5.5579   19.3067 C   0  0  0  0  0  0  0  0  0  0  0  0
   50.1682    6.7503   20.5974 C   0  0  0  0  0  0  0  0  0  0  0  0
   52.6989    5.9501   20.8336 C   0  0  0  0  0  0  0  0  0  0  0  0
   52.9780    4.8963   21.7323 C   0  0  0  0  0  0  0  0  0  0  0  0
   49.7708    5.6600   19.7913 C   0  0  0  0  0  0  0  0  0  0  0  0
   51.5804    6.9261   21.1661 C   0  0  0  0  0  0  0  0  0  0  0  0
   54.7824    4.1352   20.3202 C   0  0  0  0  0  0  0  0  0  0  0  0
   47.5203    6.5454   19.6322 C   0  0  0  0  0  0  0  0  0  0  0  0
   54.3651    2.8532   22.3702 C   0  0  0  0  0  0  0  0  0  0  0  0
   47.9563    4.4488   18.4500 C   0  0  0  0  0  0  0  0  0  0  0  0
   49.1915    7.7562   20.9295 C   0  0  0  0  0  0  0  0  0  0  0  0
   53.4727    6.0800   19.6381 C   0  0  0  0  0  0  0  0  0  0  0  0
   54.5266    5.1621   19.4017 C   0  0  0  0  0  0  0  0  0  0  0  0
   47.8685    7.6342   20.4337 C   0  0  0  0  0  0  0  0  0  0  0  0
   55.2764    2.0641   22.2035 O   0  0  0  0  0  0  0  0  0  0  0  0
   46.8213    4.3200   18.0285 O   0  0  0  0  0  0  0  0  0  0  0  0
   52.1969    4.8103   22.8603 O   0  0  0  0  0  0  0  0  0  0  0  0
   50.6951    4.6963   19.4902 O   0  0  0  0  0  0  0  0  0  0  0  0
   53.5570    2.7486   23.4465 O   0  0  0  0  0  0  0  0  0  0  0  0
   48.9050    3.5381   18.1455 O   0  0  0  0  0  0  0  0  0  0  0  0
   53.2482    7.0715   18.6527 C   0  0  0  0  0  0  0  0  0  0  0  0
   49.4575    8.8885   21.7418 C   0  0  0  0  0  0  0  0  0  0  0  0
   55.3161    5.2715   18.2444 C   0  0  0  0  0  0  0  0  0  0  0  0
   46.8938    8.5990   20.7433 C   0  0  0  0  0  0  0  0  0  0  0  0
   48.4801    9.8418   22.0436 C   0  0  0  0  0  0  0  0  0  0  0  0
   54.0375    7.1653   17.5033 C   0  0  0  0  0  0  0  0  0  0  0  0
   47.1962    9.6966   21.5433 C   0  0  0  0  0  0  0  0  0  0  0  0
   55.0753    6.2680   17.3017 C   0  0  0  0  0  0  0  0  0  0  0  0
   50.5141    6.1390   19.9068 N   0  0  0  0  0  0  0  0  0  0  0  0
   49.5332    5.9634   20.9401 C   0  0  0  0  0  0  0  0  0  0  0  0
   50.5349    7.0192   18.7731 C   0  0  0  0  0  0  0  0  0  0  0  0
   48.1527    6.1437   20.7417 C   0  0  0  0  0  0  0  0  0  0  0  0
   49.5153    7.9524   18.4672 C   0  0  0  0  0  0  0  0  0  0  0  0
   47.6084    6.6594   19.4439 C   0  0  0  0  0  0  0  0  0  0  0  0
   48.1984    8.0358   19.1941 C   0  0  0  0  0  0  0  0  0  0  0  0
   51.5604    5.0753   19.9466 C   0  0  0  0  0  0  0  0  0  0  0  0
   52.8936    5.5644   20.5437 C   0  0  0  0  0  0  0  0  0  0  0  0
   55.2341    4.8103   21.0645 N   0  0  0  0  0  0  0  0  0  0  0  0
   51.6420    7.0392   17.8838 C   0  0  0  0  0  0  0  0  0  0  0  0
   49.9208    5.5686   22.2439 C   0  0  0  0  0  0  0  0  0  0  0  0
   53.8793    4.3942   20.6647 C   0  0  0  0  0  0  0  0  0  0  0  0
   49.6668    8.8763   17.3994 C   0  0  0  0  0  0  0  0  0  0  0  0
   47.2270    5.8788   21.7774 C   0  0  0  0  0  0  0  0  0  0  0  0
   56.1574    3.6763   20.9610 C   0  0  0  0  0  0  0  0  0  0  0  0
   55.2714    5.3527   22.4239 C   0  0  0  0  0  0  0  0  0  0  0  0
   49.0037    5.3205   23.2717 C   0  0  0  0  0  0  0  0  0  0  0  0
   51.7709    7.9367   16.8147 C   0  0  0  0  0  0  0  0  0  0  0  0
   47.6493    5.4644   23.0335 C   0  0  0  0  0  0  0  0  0  0  0  0
   50.7846    8.8714   16.5798 C   0  0  0  0  0  0  0  0  0  0  0  0
   48.6008    8.6295   19.4502 H   0  0  0  0  0  0  0  0  0  0  0  0
   47.0449    8.1575   20.1179 H   0  0  0  0  0  0  0  0  0  0  0  0
   47.6346    5.6861   19.3473 H   0  0  0  0  0  0  0  0  0  0  0  0
   46.9850    6.8860   18.2422 H   0  0  0  0  0  0  0  0  0  0  0  0
   51.0791    4.1199   20.8568 H   0  0  0  0  0  0  0  0  0  0  0  0
   51.6239    4.2790   19.2419 H   0  0  0  0  0  0  0  0  0  0  0  0
   52.8097    5.9772   21.5182 H   0  0  0  0  0  0  0  0  0  0  0  0
   53.3793    5.9313   19.8761 H   0  0  0  0  0  0  0  0  0  0  0  0
   52.4570    6.1968   18.0537 H   0  0  0  0  0  0  0  0  0  0  0  0
   51.0620    5.3228   22.5959 H   0  0  0  0  0  0  0  0  0  0  0  0
   53.2570    3.4966   21.7328 H   0  0  0  0  0  0  0  0  0  0  0  0
   53.8386    3.4637   20.0904 H   0  0  0  0  0  0  0  0  0  0  0  0
   47.9585    6.9545   16.2099 H   0  0  0  0  0  0  0  0  0  0  0  0
   47.3124    8.4778   22.2991 H   0  0  0  0  0  0  0  0  0  0  0  0
   54.5100    4.6524   23.4638 H   0  0  0  0  0  0  0  0  0  0  0  0
   54.8314    6.1673   22.5914 H   0  0  0  0  0  0  0  0  0  0  0  0
   56.1661    5.1347   23.1312 H   0  0  0  0  0  0  0  0  0  0  0  0
   55.6520    6.0399   20.2207 H   0  0  0  0  0  0  0  0  0  0  0  0
   55.9807    4.4366   19.5267 H   0  0  0  0  0  0  0  0  0  0  0  0
   57.0112    5.0632   20.8035 H   0  0  0  0  0  0  0  0  0  0  0  0
   50.0206    6.1227   24.5912 H   0  0  0  0  0  0  0  0  0  0  0  0
   52.1764    6.5684   15.6809 H   0  0  0  0  0  0  0  0  0  0  0  0
   48.1423    7.7405   24.4848 H   0  0  0  0  0  0  0  0  0  0  0  0
   49.9162    6.9357   14.7231 H   0  0  0  0  0  0  0  0  0  0  0  0
   51.9396    7.9255   20.8860 H   0  0  0  0  0  0  0  0  0  0  0  0
   51.4850    6.9744   22.2592 H   0  0  0  0  0  0  0  0  0  0  0  0
   55.5910    3.4307   20.1276 H   0  0  0  0  0  0  0  0  0  0  0  0
   46.5008    6.4574   19.2560 H   0  0  0  0  0  0  0  0  0  0  0  0
   52.4723    4.0120   23.3579 H   0  0  0  0  0  0  0  0  0  0  0  0
   50.2798    4.0226   18.9138 H   0  0  0  0  0  0  0  0  0  0  0  0
   53.9211    1.9645   23.9158 H   0  0  0  0  0  0  0  0  0  0  0  0
   48.4164    2.8957   17.5827 H   0  0  0  0  0  0  0  0  0  0  0  0
   52.4355    7.7855   18.7574 H   0  0  0  0  0  0  0  0  0  0  0  0
   50.4450    9.0511   22.1681 H   0  0  0  0  0  0  0  0  0  0  0  0
   56.1297    4.5717   18.0641 H   0  0  0  0  0  0  0  0  0  0  0  0
   45.8790    8.4996   20.3615 H   0  0  0  0  0  0  0  0  0  0  0  0
   48.7280   10.6927   22.6730 H   0  0  0  0  0  0  0  0  0  0  0  0
   53.8334    7.9388   16.7678 H   0  0  0  0  0  0  0  0  0  0  0  0
   46.4302   10.4312   21.7754 H   0  0  0  0  0  0  0  0  0  0  0  0
   55.6927    6.3356   16.4100 H   0  0  0  0  0  0  0  0  0  0  0  0
   46.5169    6.7548   19.5079 H   0  0  0  0  0  0  0  0  0  0  0  0
   47.8078    5.9481   18.6331 H   0  0  0  0  0  0  0  0  0  0  0  0
   47.4762    8.5840   18.5743 H   0  0  0  0  0  0  0  0  0  0  0  0
   48.3237    8.6221   20.1135 H   0  0  0  0  0  0  0  0  0  0  0  0
   51.2114    4.2014   20.5159 H   0  0  0  0  0  0  0  0  0  0  0  0
   51.7144    4.6500   18.9454 H   0  0  0  0  0  0  0  0  0  0  0  0
   52.7244    6.0222   21.5220 H   0  0  0  0  0  0  0  0  0  0  0  0
   53.3396    6.3511   19.9281 H   0  0  0  0  0  0  0  0  0  0  0  0
   52.4764    6.3557   17.9910 H   0  0  0  0  0  0  0  0  0  0  0  0
   50.9673    5.4557   22.5036 H   0  0  0  0  0  0  0  0  0  0  0  0
   53.9404    3.9128   19.6793 H   0  0  0  0  0  0  0  0  0  0  0  0
   53.4822    3.6442   21.3619 H   0  0  0  0  0  0  0  0  0  0  0  0
   48.8849    9.6058   17.1947 H   0  0  0  0  0  0  0  0  0  0  0  0
   46.1607    6.0127   21.6054 H   0  0  0  0  0  0  0  0  0  0  0  0
   56.1887    3.2962   19.9337 H   0  0  0  0  0  0  0  0  0  0  0  0
   55.8758    2.8521   21.6266 H   0  0  0  0  0  0  0  0  0  0  0  0
   57.1792    3.9865   21.2074 H   0  0  0  0  0  0  0  0  0  0  0  0
   54.8782    4.6444   23.1621 H   0  0  0  0  0  0  0  0  0  0  0  0
   56.2988    5.6084   22.7088 H   0  0  0  0  0  0  0  0  0  0  0  0
   54.7013    6.2844   22.4952 H   0  0  0  0  0  0  0  0  0  0  0  0
   49.3576    5.0187   24.2534 H   0  0  0  0  0  0  0  0  0  0  0  0
   52.6543    7.9018   16.1821 H   0  0  0  0  0  0  0  0  0  0  0  0
   46.9268    5.2735   23.8214 H   0  0  0  0  0  0  0  0  0  0  0  0
   50.8760    9.5822   15.7644 H   0  0  0  0  0  0  0  0  0  0  0  0
  2  1  1  0
  3  1  1  0
  4  2  2  0
  5  3  2  0
  6  4  1  0
  7  5  1  0
  8  1  1  0
  9  8  1  0
 10 13  1  0
 11  3  1  0
 12  2  1  0
 13  9  1  0
 14  5  1  0
 15  4  1  0
 16 10  1  0
 17 10  1  0
 18 12  2  0
 19 11  2  0
 20 15  2  0
 21 14  2  0
  6  7  1  0
 18 20  1  0
 19 21  1  0
 23 27  2  0
 24 28  1  0
 25 26  1  0
 26 22  2  0
 27 24  1  0
 28 25  1  0
 29 22  1  0
 30 23  1  0
 31 22  1  0
 32 23  1  0
 33 24  2  0
 34 35  1  0
 35 29  2  0
 36 33  1  0
 37 31  2  0
 38 32  2  0
 39 26  1  0
 40 27  1  0
 41 31  1  0
 42 32  1  0
 43 34  1  0
 44 33  1  0
 45 35  1  0
 46 36  1  0
 47 44  2  0
 48 43  2  0
 49 47  1  0
 50 45  2  0
 25 34  2  0
 48 50  1  0
 30 36  2  0
 46 49  2  0
 52 51  1  0
 53 51  1  0
 54 52  2  0
 55 53  2  0
 56 54  1  0
 57 55  1  0
 58 51  1  0
 59 58  1  0
 60 63  1  0
 61 53  1  0
 62 52  1  0
 63 59  1  0
 64 55  1  0
 65 54  1  0
 66 60  1  0
 67 60  1  0
 68 62  2  0
 69 61  2  0
 70 65  2  0
 71 64  2  0
 56 57  1  0
 68 70  1  0
 69 71  1  0
  6 72  1  0
  6 73  1  0
  7 74  1  0
  7 75  1  0
  8 76  1  0
  8 77  1  0
  9 78  1  0
  9 79  1  0
 11 80  1  0
 12 81  1  0
 13 82  1  0
 13 83  1  0
 14 84  1  0
 15 85  1  0
 16 86  1  0
 16 87  1  0
 16 88  1  0
 17 89  1  0
 17 90  1  0
 17 91  1  0
 18 92  1  0
 19 93  1  0
 20 94  1  0
 21 95  1  0
 28 96  1  0
 28 97  1  0
 29 98  1  0
 30 99  1  0
 39100  1  0
 40101  1  0
 41102  1  0
 42103  1  0
 43104  1  0
 44105  1  0
 45106  1  0
 46107  1  0
 47108  1  0
 48109  1  0
 49110  1  0
 50111  1  0
 56112  1  0
 56113  1  0
 57114  1  0
 57115  1  0
 58116  1  0
 58117  1  0
 59118  1  0
 59119  1  0
 61120  1  0
 62121  1  0
 63122  1  0
 63123  1  0
 64124  1  0
 65125  1  0
 66126  1  0
 66127  1  0
 66128  1  0
 67129  1  0
 67130  1  0
 67131  1  0
 68132  1  0
 69133  1  0
 70134  1  0
 71135  1  0
M  END
> <Uni-Dock RESULT> 
ENERGY=   -6.321  LOWER_BOUND=    3.521  UPPER_BOUND=    7.592
INTER + INTRA:          -6.321
INTER:                  -6.321
INTRA:                   0.000
UNBOUND:                 0.000

$$$$

     RDKit          3D

135142  0  0  0  0  0  0  0  0999 V2000
   50.5492    5.9934   19.9798 N   0  0  0  0  0  0  0  0  0  0  0  0
   49.8329    6.4242   21.1475 C   0  0  0  0  0  0  0  0  0  0  0  0
   50.3470    6.2953   18.5917 C   0  0  0  0  0  0  0  0  0  0  0  0
   48.7250    7.3047   21.1260 C   0  0  0  0  0  0  0  0  0  0  0  0
   49.0856    6.5533   18.0263 C   0  0  0  0  0  0  0  0  0  0  0  0
   48.0449    7.7800   19.8684 C   0  0  0  0  0  0  0  0  0  0  0  0
   47.8523    6.6504   18.8721 C   0  0  0  0  0  0  0  0  0  0  0  0
   51.5048    4.8620   20.1673 C   0  0  0  0  0  0  0  0  0  0  0  0
   52.8946    5.3249   20.6451 C   0  0  0  0  0  0  0  0  0  0  0  0
   55.1292    4.3788   21.4599 N   0  0  0  0  0  0  0  0  0  0  0  0
   51.4432    6.3303   17.6970 C   0  0  0  0  0  0  0  0  0  0  0  0
   50.2417    6.0155   22.4453 C   0  0  0  0  0  0  0  0  0  0  0  0
   53.7690    4.1078   20.9774 C   0  0  0  0  0  0  0  0  0  0  0  0
   48.9419    6.7673   16.6358 C   0  0  0  0  0  0  0  0  0  0  0  0
   48.1488    7.7815   22.3328 C   0  0  0  0  0  0  0  0  0  0  0  0
   55.1522    5.1270   22.7135 C   0  0  0  0  0  0  0  0  0  0  0  0
   55.9725    5.0193   20.4546 C   0  0  0  0  0  0  0  0  0  0  0  0
   49.6489    6.4705   23.6312 C   0  0  0  0  0  0  0  0  0  0  0  0
   51.2998    6.5550   16.3229 C   0  0  0  0  0  0  0  0  0  0  0  0
   48.6054    7.3701   23.5754 C   0  0  0  0  0  0  0  0  0  0  0  0
   50.0418    6.7626   15.7880 C   0  0  0  0  0  0  0  0  0  0  0  0
   54.0119    3.9865   21.4785 C   0  0  0  0  0  0  0  0  0  0  0  0
   48.4544    5.5580   19.3067 C   0  0  0  0  0  0  0  0  0  0  0  0
   50.1681    6.7504   20.5975 C   0  0  0  0  0  0  0  0  0  0  0  0
   52.6988    5.9503   20.8336 C   0  0  0  0  0  0  0  0  0  0  0  0
   52.9779    4.8965   21.7323 C   0  0  0  0  0  0  0  0  0  0  0  0
   49.7707    5.6602   19.7913 C   0  0  0  0  0  0  0  0  0  0  0  0
   51.5803    6.9262   21.1661 C   0  0  0  0  0  0  0  0  0  0  0  0
   54.7823    4.1354   20.3203 C   0  0  0  0  0  0  0  0  0  0  0  0
   47.5202    6.5455   19.6322 C   0  0  0  0  0  0  0  0  0  0  0  0
   54.3650    2.8534   22.3702 C   0  0  0  0  0  0  0  0  0  0  0  0
   47.9562    4.4489   18.4500 C   0  0  0  0  0  0  0  0  0  0  0  0
   49.1914    7.7563   20.9296 C   0  0  0  0  0  0  0  0  0  0  0  0
   53.4726    6.0802   19.6382 C   0  0  0  0  0  0  0  0  0  0  0  0
   54.5265    5.1623   19.4017 C   0  0  0  0  0  0  0  0  0  0  0  0
   47.8684    7.6344   20.4338 C   0  0  0  0  0  0  0  0  0  0  0  0
   55.2763    2.0643   22.2035 O   0  0  0  0  0  0  0  0  0  0  0  0
   46.8212    4.3201   18.0286 O   0  0  0  0  0  0  0  0  0  0  0  0
   52.1968    4.8105   22.8604 O   0  0  0  0  0  0  0  0  0  0  0  0
   50.6950    4.6965   19.4903 O   0  0  0  0  0  0  0  0  0  0  0  0
   53.5569    2.7487   23.4465 O   0  0  0  0  0  0  0  0  0  0  0  0
   48.9049    3.5383   18.1455 O   0  0  0  0  0  0  0  0  0  0  0  0
   53.2481    7.0716   18.6527 C   0  0  0  0  0  0  0  0  0  0  0  0
   49.4574    8.8887   21.7419 C   0  0  0  0  0  0  0  0  0  0  0  0
   55.3160    5.2717   18.2444 C   0  0  0  0  0  0  0  0  0  0  0  0
   46.8937    8.5992   20.7434 C   0  0  0  0  0  0  0  0  0  0  0  0
   48.4800    9.8419   22.0437 C   0  0  0  0  0  0  0  0  0  0  0  0
   54.0374    7.1655   17.5033 C   0  0  0  0  0  0  0  0  0  0  0  0
   47.1961    9.6967   21.5434 C   0  0  0  0  0  0  0  0  0  0  0  0
   55.0752    6.2682   17.3017 C   0  0  0  0  0  0  0  0  0  0  0  0
   50.5140    6.1392   19.9068 N   0  0  0  0  0  0  0  0  0  0  0  0
   49.5332    5.9635   20.9402 C   0  0  0  0  0  0  0  0  0  0  0  0
   50.5348    7.0194   18.7732 C   0  0  0  0  0  0  0  0  0  0  0  0
   48.1526    6.1439   20.7417 C   0  0  0  0  0  0  0  0  0  0  0  0
   49.5152    7.9525   18.4673 C   0  0  0  0  0  0  0  0  0  0  0  0
   47.6083    6.6596   19.4440 C   0  0  0  0  0  0  0  0  0  0  0  0
   48.1983    8.0360   19.1941 C   0  0  0  0  0  0  0  0  0  0  0  0
   51.5603    5.0755   19.9466 C   0  0  0  0  0  0  0  0  0  0  0  0
   52.8935    5.5645   20.5437 C   0  0  0  0  0  0  0  0  0  0  0  0
   55.2341    4.8105   21.0645 N   0  0  0  0  0  0  0  0  0  0  0  0
   51.6419    7.0394   17.8838 C   0  0  0  0  0  0  0  0  0  0  0  0
   49.9208    5.5687   22.2439 C   0  0  0  0  0  0  0  0  0  0  0  0
   53.8792    4.3944   20.6647 C   0  0  0  0  0  0  0  0  0  0  0  0
   49.6667    8.8764   17.3995 C   0  0  0  0  0  0  0  0  0  0  0  0
   47.2270    5.8790   21.7774 C   0  0  0  0  0  0  0  0  0  0  0  0
   56.1574    3.6765   20.9610 C   0  0  0  0  0  0  0  0  0  0  0  0
   55.2713    5.3529   22.4239 C   0  0  0  0  0  0  0  0  0  0  0  0
   49.0037    5.3207   23.2718 C   0  0  0  0  0  0  0  0  0  0  0  0
   51.7708    7.9368   16.8147 C   0  0  0  0  0  0  0  0  0  0  0  0
   47.6493    5.4646   23.0336 C   0  0  0  0  0  0  0  0  0  0  0  0
   50.7845    8.8716   16.5799 C   0  0  0  0  0  0  0  0  0  0  0  0
   48.6007    8.6297   19.4503 H   0  0  0  0  0  0  0  0  0  0  0  0
   47.0448    8.1577   20.1180 H   0  0  0  0  0  0  0  0  0  0  0  0
   47.6345    5.6862   19.3473 H   0  0  0  0  0  0  0  0  0  0  0  0
   46.9849    6.8862   18.2423 H   0  0  0  0  0  0  0  0  0  0  0  0
   51.0790    4.1200   20.8569 H   0  0  0  0  0  0  0  0  0  0  0  0
   51.6239    4.2792   19.2419 H   0  0  0  0  0  0  0  0  0  0  0  0
   52.8097    5.9773   21.5182 H   0  0  0  0  0  0  0  0  0  0  0  0
   53.3792    5.9314   19.8761 H   0  0  0  0  0  0  0  0  0  0  0  0
   52.4569    6.1969   18.0537 H   0  0  0  0  0  0  0  0  0  0  0  0
   51.0619    5.3230   22.5960 H   0  0  0  0  0  0  0  0  0  0  0  0
   53.2570    3.4967   21.7328 H   0  0  0  0  0  0  0  0  0  0  0  0
   53.8386    3.4639   20.0904 H   0  0  0  0  0  0  0  0  0  0  0  0
   47.9584    6.9547   16.2100 H   0  0  0  0  0  0  0  0  0  0  0  0
   47.3123    8.4780   22.2992 H   0  0  0  0  0  0  0  0  0  0  0  0
   54.5099    4.6526   23.4638 H   0  0  0  0  0  0  0  0  0  0  0  0
   54.8313    6.1675   22.5914 H   0  0  0  0  0  0  0  0  0  0  0  0
   56.1660    5.1349   23.1312 H   0  0  0  0  0  0  0  0  0  0  0  0
   55.6519    6.0400   20.2207 H   0  0  0  0  0  0  0  0  0  0  0  0
   55.9806    4.4368   19.5267 H   0  0  0  0  0  0  0  0  0  0  0  0
   57.0111    5.0634   20.8035 H   0  0  0  0  0  0  0  0  0  0  0  0
   50.0206    6.1228   24.5913 H   0  0  0  0  0  0  0  0  0  0  0  0
   52.1763    6.5685   15.6809 H   0  0  0  0  0  0  0  0  0  0  0  0
   48.1422    7.7406   24.4848 H   0  0  0  0  0  0  0  0  0  0  0  0
   49.9161    6.9359   14.7231 H   0  0  0  0  0  0  0  0  0  0  0  0
   51.9395    7.9256   20.8860 H   0  0  0  0  0  0  0  0  0  0  0  0
   51.4849    6.9746   22.2593 H   0  0  0  0  0  0  0  0  0  0  0  0
   55.5909    3.4309   20.1276 H   0  0  0  0  0  0  0  0  0  0  0  0
   46.5007    6.4576   19.2561 H   0  0  0  0  0  0  0  0  0  0  0  0
   52.4723    4.0122   23.3579 H   0  0  0  0  0  0  0  0  0  0  0  0
   50.2797    4.0227   18.9139 H   0  0  0  0  0  0  0  0  0  0  0  0
   53.9211    1.9646   23.9158 H   0  0  0  0  0  0  0  0  0  0  0  0
   48.4163    2.8958   17.5828 H   0  0  0  0  0  0  0  0  0  0  0  0
   52.4354    7.7856   18.7575 H   0  0  0  0  0  0  0  0  0  0  0  0
   50.4449    9.0513   22.1682 H   0  0  0  0  0  0  0  0  0  0  0  0
   56.1296    4.5719   18.0641 H   0  0  0  0  0  0  0  0  0  0  0  0
   45.8789    8.4998   20.3616 H   0  0  0  0  0  0  0  0  0  0  0  0
   48.7279   10.6929   22.6730 H   0  0  0  0  0  0  0  0  0  0  0  0
   53.8333    7.9390   16.7679 H   0  0  0  0  0  0  0  0  0  0  0  0
   46.4301   10.4314   21.7755 H   0  0  0  0  0  0  0  0  0  0  0  0
   55.6926    6.3358   16.4100 H   0  0  0  0  0  0  0  0  0  0  0  0
   46.5168    6.7549   19.5079 H   0  0  0  0  0  0  0  0  0  0  0  0
   47.8077    5.9482   18.6331 H   0  0  0  0  0  0  0  0  0  0  0  0
   47.4761    8.5842   18.5743 H   0  0  0  0  0  0  0  0  0  0  0  0
   48.3236    8.6222   20.1135 H   0  0  0  0  0  0  0  0  0  0  0  0
   51.2114    4.2015   20.5159 H   0  0  0  0  0  0  0  0  0  0  0  0
   51.7143    4.6502   18.9454 H   0  0  0  0  0  0  0  0  0  0  0  0
   52.7243    6.0224   21.5221 H   0  0  0  0  0  0  0  0  0  0  0  0
   53.3395    6.3513   19.9281 H   0  0  0  0  0  0  0  0  0  0  0  0
   52.4763    6.3559   17.9910 H   0  0  0  0  0  0  0  0  0  0  0  0
   50.9672    5.4558   22.5037 H   0  0  0  0  0  0  0  0  0  0  0  0
   53.9403    3.9130   19.6793 H   0  0  0  0  0  0  0  0  0  0  0  0
   53.4821    3.6444   21.3619 H   0  0  0  0  0  0  0  0  0  0  0  0
   48.8848    9.6060   17.1948 H   0  0  0  0  0  0  0  0  0  0  0  0
   46.1607    6.0129   21.6055 H   0  0  0  0  0  0  0  0  0  0  0  0
   56.1886    3.2963   19.9337 H   0  0  0  0  0  0  0  0  0  0  0  0
   55.8757    2.8523   21.6266 H   0  0  0  0  0  0  0  0  0  0  0  0
   57.1791    3.9867   21.2074 H   0  0  0  0  0  0  0  0  0  0  0  0
   54.8781    4.6446   23.1621 H   0  0  0  0  0  0  0  0  0  0  0  0
   56.2988    5.6086   22.7088 H   0  0  0  0  0  0  0  0  0  0  0  0
   54.7012    6.2846   22.4952 H   0  0  0  0  0  0  0  0  0  0  0  0
   49.3576    5.0188   24.2534 H   0  0  0  0  0  0  0  0  0  0  0  0
   52.6542    7.9020   16.1821 H   0  0  0  0  0  0  0  0  0  0  0  0
   46.9267    5.2736   23.8215 H   0  0  0  0  0  0  0  0  0  0  0  0
   50.8759    9.5823   15.7644 H   0  0  0  0  0  0  0  0  0  0  0  0
  2  1  1  0
  3  1  1  0
  4  2  2  0
  5  3  2  0
  6  4  1  0
  7  5  1  0
  8  1  1  0
  9  8  1  0
 10 13  1  0
 11  3  1  0
 12  2  1  0
 13  9  1  0
 14  5  1  0
 15  4  1  0
 16 10  1  0
 17 10  1  0
 18 12  2  0
 19 11  2  0
 20 15  2  0
 21 14  2  0
  6  7  1  0
 18 20  1  0
 19 21  1  0
 23 27  2  0
 24 28  1  0
 25 26  1  0
 26 22  2  0
 27 24  1  0
 28 25  1  0
 29 22  1  0
 30 23  1  0
 31 22  1  0
 32 23  1  0
 33 24  2  0
 34 35  1  0
 35 29  2  0
 36 33  1  0
 37 31  2  0
 38 32  2  0
 39 26  1  0
 40 27  1  0
 41 31  1  0
 42 32  1  0
 43 34  1  0
 44 33  1  0
 45 35  1  0
 46 36  1  0
 47 44  2  0
 48 43  2  0
 49 47  1  0
 50 45  2  0
 25 34  2  0
 48 50  1  0
 30 36  2  0
 46 49  2  0
 52 51  1  0
 53 51  1  0
 54 52  2  0
 55 53  2  0
 56 54  1  0
 57 55  1  0
 58 51  1  0
 59 58  1  0
 60 63  1  0
 61 53  1  0
 62 52  1  0
 63 59  1  0
 64 55  1  0
 65 54  1  0
 66 60  1  0
 67 60  1  0
 68 62  2  0
 69 61  2  0
 70 65  2  0
 71 64  2  0
 56 57  1  0
 68 70  1  0
 69 71  1  0
  6 72  1  0
  6 73  1  0
  7 74  1  0
  7 75  1  0
  8 76  1  0
  8 77  1  0
  9 78  1  0
  9 79  1  0
 11 80  1  0
 12 81  1  0
 13 82  1  0
 13 83  1  0
 14 84  1  0
 15 85  1  0
 16 86  1  0
 16 87  1  0
 16 88  1  0
 17 89  1  0
 17 90  1  0
 17 91  1  0
 18 92  1  0
 19 93  1  0
 20 94  1  0
 21 95  1  0
 28 96  1  0
 28 97  1  0
 29 98  1  0
 30 99  1  0
 39100  1  0
 40101  1  0
 41102  1  0
 42103  1  0
 43104  1  0
 44105  1  0
 45106  1  0
 46107  1  0
 47108  1  0
 48109  1  0
 49110  1  0
 50111  1  0
 56112  1  0
 56113  1  0
 57114  1  0
 57115  1  0
 58116  1  0
 58117  1  0
 59118  1  0
 59119  1  0
 61120  1  0
 62121  1  0
 63122  1  0
 63123  1  0
 64124  1  0
 65125  1  0
 66126  1  0
 66127  1  0
 66128  1  0
 67129  1  0
 67130  1  0
 67131  1  0
 68132  1  0
 69133  1  0
 70134  1  0
 71135  1  0
M  END
> <Uni-Dock RESULT> 
ENERGY=   -6.321  LOWER_BOUND=    3.521  UPPER_BOUND=    7.592
INTER + INTRA:          -6.321
INTER:                  -6.321
INTRA:                   0.000
UNBOUND:                 0.000

$$$$

     RDKit          3D

135142  0  0  0  0  0  0  0  0999 V2000
   49.2132    7.7555   17.3311 N   0  0  0  0  0  0  0  0  0  0  0  0
   49.3318    6.3298   17.4566 C   0  0  0  0  0  0  0  0  0  0  0  0
   49.7708    8.8155   18.1211 C   0  0  0  0  0  0  0  0  0  0  0  0
   50.0946    5.6759   18.4535 C   0  0  0  0  0  0  0  0  0  0  0  0
   50.0231    8.7094   19.5004 C   0  0  0  0  0  0  0  0  0  0  0  0
   50.7515    6.3775   19.6137 C   0  0  0  0  0  0  0  0  0  0  0  0
   49.8348    7.4166   20.2346 C   0  0  0  0  0  0  0  0  0  0  0  0
   48.1584    8.2541   16.4000 C   0  0  0  0  0  0  0  0  0  0  0  0
   48.6384    8.3324   14.9379 C   0  0  0  0  0  0  0  0  0  0  0  0
   47.7525    8.7924   12.5808 N   0  0  0  0  0  0  0  0  0  0  0  0
   50.0855   10.0627   17.5304 C   0  0  0  0  0  0  0  0  0  0  0  0
   48.7070    5.4614   16.5217 C   0  0  0  0  0  0  0  0  0  0  0  0
   47.4633    8.6885   14.0167 C   0  0  0  0  0  0  0  0  0  0  0  0
   50.5007    9.8162   20.2396 C   0  0  0  0  0  0  0  0  0  0  0  0
   50.2627    4.2663   18.4357 C   0  0  0  0  0  0  0  0  0  0  0  0
   48.2300    7.5398   12.0021 C   0  0  0  0  0  0  0  0  0  0  0  0
   48.6571    9.8930   12.2607 C   0  0  0  0  0  0  0  0  0  0  0  0
   48.8566    4.0678   16.5282 C   0  0  0  0  0  0  0  0  0  0  0  0
   50.5702   11.1530   18.2620 C   0  0  0  0  0  0  0  0  0  0  0  0
   49.6508    3.4674   17.4822 C   0  0  0  0  0  0  0  0  0  0  0  0
   50.7674   11.0328   19.6253 C   0  0  0  0  0  0  0  0  0  0  0  0
   47.2654    8.3817   13.5791 C   0  0  0  0  0  0  0  0  0  0  0  0
   48.7359    7.5382   19.5118 C   0  0  0  0  0  0  0  0  0  0  0  0
   49.7917    6.8830   17.3950 C   0  0  0  0  0  0  0  0  0  0  0  0
   49.1923    7.9443   15.0255 C   0  0  0  0  0  0  0  0  0  0  0  0
   48.0077    7.5123   14.3881 C   0  0  0  0  0  0  0  0  0  0  0  0
   48.8562    7.6588   18.1158 C   0  0  0  0  0  0  0  0  0  0  0  0
   49.9754    6.9551   15.8752 C   0  0  0  0  0  0  0  0  0  0  0  0
   47.7150    9.6938   13.3959 C   0  0  0  0  0  0  0  0  0  0  0  0
   49.5484    6.6319   20.1991 C   0  0  0  0  0  0  0  0  0  0  0  0
   46.0116    8.0053   12.8790 C   0  0  0  0  0  0  0  0  0  0  0  0
   47.7832    8.3190   20.3455 C   0  0  0  0  0  0  0  0  0  0  0  0
   50.6169    5.9485   18.1174 C   0  0  0  0  0  0  0  0  0  0  0  0
   49.6313    9.2946   14.8559 C   0  0  0  0  0  0  0  0  0  0  0  0
   48.8794   10.1592   14.0213 C   0  0  0  0  0  0  0  0  0  0  0  0
   50.4790    5.8392   19.5245 C   0  0  0  0  0  0  0  0  0  0  0  0
   45.3583    8.7188   12.1407 O   0  0  0  0  0  0  0  0  0  0  0  0
   47.6406    8.2271   21.5512 O   0  0  0  0  0  0  0  0  0  0  0  0
   47.6245    6.2081   14.5936 O   0  0  0  0  0  0  0  0  0  0  0  0
   48.0611    8.5342   17.4265 O   0  0  0  0  0  0  0  0  0  0  0  0
   45.6182    6.7389   13.1317 O   0  0  0  0  0  0  0  0  0  0  0  0
   47.0428    9.1961   19.6353 O   0  0  0  0  0  0  0  0  0  0  0  0
   50.7775    9.8399   15.4829 C   0  0  0  0  0  0  0  0  0  0  0  0
   51.5803    5.1014   17.5116 C   0  0  0  0  0  0  0  0  0  0  0  0
   49.2921   11.4874   13.8209 C   0  0  0  0  0  0  0  0  0  0  0  0
   51.2688    4.9344   20.2554 C   0  0  0  0  0  0  0  0  0  0  0  0
   52.3602    4.2047   18.2484 C   0  0  0  0  0  0  0  0  0  0  0  0
   51.1734   11.1646   15.2794 C   0  0  0  0  0  0  0  0  0  0  0  0
   52.2041    4.1214   19.6226 C   0  0  0  0  0  0  0  0  0  0  0  0
   50.4332   11.9872   14.4437 C   0  0  0  0  0  0  0  0  0  0  0  0
   49.3670    7.7718   17.3935 N   0  0  0  0  0  0  0  0  0  0  0  0
   48.8975    6.4842   17.8209 C   0  0  0  0  0  0  0  0  0  0  0  0
   50.4570    8.5771   17.8665 C   0  0  0  0  0  0  0  0  0  0  0  0
   48.9889    6.0230   19.1462 C   0  0  0  0  0  0  0  0  0  0  0  0
   51.3368    8.1983   18.9089 C   0  0  0  0  0  0  0  0  0  0  0  0
   49.7057    6.8092   20.2019 C   0  0  0  0  0  0  0  0  0  0  0  0
   51.1518    6.9766   19.7707 C   0  0  0  0  0  0  0  0  0  0  0  0
   48.4163    8.4238   16.4454 C   0  0  0  0  0  0  0  0  0  0  0  0
   48.8925    8.3674   14.9815 C   0  0  0  0  0  0  0  0  0  0  0  0
   48.2631    9.0876   12.6570 N   0  0  0  0  0  0  0  0  0  0  0  0
   50.7569    9.8276   17.2638 C   0  0  0  0  0  0  0  0  0  0  0  0
   48.2832    5.5984   16.9023 C   0  0  0  0  0  0  0  0  0  0  0  0
   47.8161    8.9459   14.0530 C   0  0  0  0  0  0  0  0  0  0  0  0
   52.4678    8.9926   19.2352 C   0  0  0  0  0  0  0  0  0  0  0  0
   48.4369    4.7769   19.5237 C   0  0  0  0  0  0  0  0  0  0  0  0
   47.2618    9.8276   11.8831 C   0  0  0  0  0  0  0  0  0  0  0  0
   48.5197    7.7943   12.0207 C   0  0  0  0  0  0  0  0  0  0  0  0
   47.7501    4.3592   17.2754 C   0  0  0  0  0  0  0  0  0  0  0  0
   51.8604   10.6192   17.6111 C   0  0  0  0  0  0  0  0  0  0  0  0
   47.8163    3.9521   18.5951 C   0  0  0  0  0  0  0  0  0  0  0  0
   52.7303   10.1923   18.5923 C   0  0  0  0  0  0  0  0  0  0  0  0
   51.7151    6.7942   19.2916 H   0  0  0  0  0  0  0  0  0  0  0  0
   50.9788    5.6445   20.3987 H   0  0  0  0  0  0  0  0  0  0  0  0
   48.7786    7.1210   20.2290 H   0  0  0  0  0  0  0  0  0  0  0  0
   50.1140    7.5414   21.2887 H   0  0  0  0  0  0  0  0  0  0  0  0
   47.2566    7.6322   16.4849 H   0  0  0  0  0  0  0  0  0  0  0  0
   47.7885    9.2442   16.7052 H   0  0  0  0  0  0  0  0  0  0  0  0
   49.0898    7.3873   14.6244 H   0  0  0  0  0  0  0  0  0  0  0  0
   49.4295    9.0793   14.8362 H   0  0  0  0  0  0  0  0  0  0  0  0
   49.9746   10.2170   16.4643 H   0  0  0  0  0  0  0  0  0  0  0  0
   48.0753    5.8367   15.7248 H   0  0  0  0  0  0  0  0  0  0  0  0
   46.6680    7.9427   14.1491 H   0  0  0  0  0  0  0  0  0  0  0  0
   47.0216    9.6372   14.3501 H   0  0  0  0  0  0  0  0  0  0  0  0
   50.6809    9.7234   21.3086 H   0  0  0  0  0  0  0  0  0  0  0  0
   50.8730    3.7807   19.1958 H   0  0  0  0  0  0  0  0  0  0  0  0
   47.5572    6.7120   12.2525 H   0  0  0  0  0  0  0  0  0  0  0  0
   49.2402    7.2774   12.3353 H   0  0  0  0  0  0  0  0  0  0  0  0
   48.2445    7.6095   10.9079 H   0  0  0  0  0  0  0  0  0  0  0  0
   49.6709    9.7330   12.6430 H   0  0  0  0  0  0  0  0  0  0  0  0
   48.2781   10.8374   12.6668 H   0  0  0  0  0  0  0  0  0  0  0  0
   48.7232   10.0255   11.1743 H   0  0  0  0  0  0  0  0  0  0  0  0
   48.3565    3.4652   15.7748 H   0  0  0  0  0  0  0  0  0  0  0  0
   50.7928   12.0892   17.7576 H   0  0  0  0  0  0  0  0  0  0  0  0
   49.7858    2.3901   17.4947 H   0  0  0  0  0  0  0  0  0  0  0  0
   51.1410   11.8717   20.2055 H   0  0  0  0  0  0  0  0  0  0  0  0
   51.0391    7.1331   15.6677 H   0  0  0  0  0  0  0  0  0  0  0  0
   49.7922    5.9470   15.4794 H   0  0  0  0  0  0  0  0  0  0  0  0
   47.1402   10.3670   12.7605 H   0  0  0  0  0  0  0  0  0  0  0  0
   49.4468    6.5411   21.2808 H   0  0  0  0  0  0  0  0  0  0  0  0
   46.7701    6.0687   14.1340 H   0  0  0  0  0  0  0  0  0  0  0  0
   47.4835    9.0089   18.0587 H   0  0  0  0  0  0  0  0  0  0  0  0
   44.7914    6.6592   12.6046 H   0  0  0  0  0  0  0  0  0  0  0  0
   46.4864    9.6204   20.3271 H   0  0  0  0  0  0  0  0  0  0  0  0
   51.3790    9.2397   16.1606 H   0  0  0  0  0  0  0  0  0  0  0  0
   51.7415    5.1179   16.4360 H   0  0  0  0  0  0  0  0  0  0  0  0
   48.7198   12.1510   13.1756 H   0  0  0  0  0  0  0  0  0  0  0  0
   51.1577    4.8531   21.3354 H   0  0  0  0  0  0  0  0  0  0  0  0
   53.0847    3.5723   17.7417 H   0  0  0  0  0  0  0  0  0  0  0  0
   52.0583   11.5484   15.7799 H   0  0  0  0  0  0  0  0  0  0  0  0
   52.8041    3.4253   20.2020 H   0  0  0  0  0  0  0  0  0  0  0  0
   50.7357   13.0181   14.2814 H   0  0  0  0  0  0  0  0  0  0  0  0
   49.6871    6.2618   21.1530 H   0  0  0  0  0  0  0  0  0  0  0  0
   49.1946    7.7622   20.3857 H   0  0  0  0  0  0  0  0  0  0  0  0
   51.7467    7.0859   20.6874 H   0  0  0  0  0  0  0  0  0  0  0  0
   51.5483    6.0963   19.2485 H   0  0  0  0  0  0  0  0  0  0  0  0
   47.4172    7.9693   16.5155 H   0  0  0  0  0  0  0  0  0  0  0  0
   48.2186    9.4603   16.7514 H   0  0  0  0  0  0  0  0  0  0  0  0
   49.1253    7.3372   14.6990 H   0  0  0  0  0  0  0  0  0  0  0  0
   49.8248    8.9235   14.8455 H   0  0  0  0  0  0  0  0  0  0  0  0
   50.1441   10.2450   16.4731 H   0  0  0  0  0  0  0  0  0  0  0  0
   48.2150    5.8471   15.8493 H   0  0  0  0  0  0  0  0  0  0  0  0
   47.5520    9.9410   14.4359 H   0  0  0  0  0  0  0  0  0  0  0  0
   46.9075    8.3314   14.1089 H   0  0  0  0  0  0  0  0  0  0  0  0
   53.1500    8.6729   20.0212 H   0  0  0  0  0  0  0  0  0  0  0  0
   48.5060    4.4382   20.5557 H   0  0  0  0  0  0  0  0  0  0  0  0
   47.1023   10.8240   12.3104 H   0  0  0  0  0  0  0  0  0  0  0  0
   46.2978    9.3069   11.8499 H   0  0  0  0  0  0  0  0  0  0  0  0
   47.6067    9.9835   10.8546 H   0  0  0  0  0  0  0  0  0  0  0  0
   47.6438    7.1363   12.0547 H   0  0  0  0  0  0  0  0  0  0  0  0
   48.8041    7.9310   10.9706 H   0  0  0  0  0  0  0  0  0  0  0  0
   49.3621    7.2796   12.4934 H   0  0  0  0  0  0  0  0  0  0  0  0
   47.2886    3.7200   16.5280 H   0  0  0  0  0  0  0  0  0  0  0  0
   52.0345   11.5609   17.0967 H   0  0  0  0  0  0  0  0  0  0  0  0
   47.4051    2.9939   18.8986 H   0  0  0  0  0  0  0  0  0  0  0  0
   53.5970   10.7873   18.8633 H   0  0  0  0  0  0  0  0  0  0  0  0
  2  1  1  0
  3  1  1  0
  4  2  2  0
  5  3  2  0
  6  4  1  0
  7  5  1  0
  8  1  1  0
  9  8  1  0
 10 13  1  0
 11  3  1  0
 12  2  1  0
 13  9  1  0
 14  5  1  0
 15  4  1  0
 16 10  1  0
 17 10  1  0
 18 12  2  0
 19 11  2  0
 20 15  2  0
 21 14  2  0
  6  7  1  0
 18 20  1  0
 19 21  1  0
 23 27  2  0
 24 28  1  0
 25 26  1  0
 26 22  2  0
 27 24  1  0
 28 25  1  0
 29 22  1  0
 30 23  1  0
 31 22  1  0
 32 23  1  0
 33 24  2  0
 34 35  1  0
 35 29  2  0
 36 33  1  0
 37 31  2  0
 38 32  2  0
 39 26  1  0
 40 27  1  0
 41 31  1  0
 42 32  1  0
 43 34  1  0
 44 33  1  0
 45 35  1  0
 46 36  1  0
 47 44  2  0
 48 43  2  0
 49 47  1  0
 50 45  2  0
 25 34  2  0
 48 50  1  0
 30 36  2  0
 46 49  2  0
 52 51  1  0
 53 51  1  0
 54 52  2  0
 55 53  2  0
 56 54  1  0
 57 55  1  0
 58 51  1  0
 59 58  1  0
 60 63  1  0
 61 53  1  0
 62 52  1  0
 63 59  1  0
 64 55  1  0
 65 54  1  0
 66 60  1  0
 67 60  1  0
 68 62  2  0
 69 61  2  0
 70 65  2  0
 71 64  2  0
 56 57  1  0
 68 70  1  0
 69 71  1  0
  6 72  1  0
  6 73  1  0
  7 74  1  0
  7 75  1  0
  8 76  1  0
  8 77  1  0
  9 78  1  0
  9 79  1  0
 11 80  1  0
 12 81  1  0
 13 82  1  0
 13 83  1  0
 14 84  1  0
 15 85  1  0
 16 86  1  0
 16 87  1  0
 16 88  1  0
 17 89  1  0
 17 90  1  0
 17 91  1  0
 18 92  1  0
 19 93  1  0
 20 94  1  0
 21 95  1  0
 28 96  1  0
 28 97  1  0
 29 98  1  0
 30 99  1  0
 39100  1  0
 40101  1  0
 41102  1  0
 42103  1  0
 43104  1  0
 44105  1  0
 45106  1  0
 46107  1  0
 47108  1  0
 48109  1  0
 49110  1  0
 50111  1  0
 56112  1  0
 56113  1  0
 57114  1  0
 57115  1  0
 58116  1  0
 58117  1  0
 59118  1  0
 59119  1  0
 61120  1  0
 62121  1  0
 63122  1  0
 63123  1  0
 64124  1  0
 65125  1  0
 66126  1  0
 66127  1  0
 66128  1  0
 67129  1  0
 67130  1  0
 67131  1  0
 68132  1  0
 69133  1  0
 70134  1  0
 71135  1  0
M  END
> <Uni-Dock RESULT> 
ENERGY=   -6.029  LOWER_BOUND=    2.087  UPPER_BOUND=    6.267
INTER + INTRA:          -6.029
INTER:                  -6.029
INTRA:                   0.000
UNBOUND:                 0.000

$$$$

     RDKit          3D

135142  0  0  0  0  0  0  0  0999 V2000
   50.3189    7.4080   18.8104 N   0  0  0  0  0  0  0  0  0  0  0  0
   51.7314    7.3156   18.5683 C   0  0  0  0  0  0  0  0  0  0  0  0
   49.4486    6.5896   19.6050 C   0  0  0  0  0  0  0  0  0  0  0  0
   52.5761    6.3298   19.1320 C   0  0  0  0  0  0  0  0  0  0  0  0
   49.6438    5.2117   19.8064 C   0  0  0  0  0  0  0  0  0  0  0  0
   52.0855    5.1491   19.9292 C   0  0  0  0  0  0  0  0  0  0  0  0
   50.8642    4.5095   19.2930 C   0  0  0  0  0  0  0  0  0  0  0  0
   49.5530    8.3336   17.9243 C   0  0  0  0  0  0  0  0  0  0  0  0
   49.5657    9.7904   18.4262 C   0  0  0  0  0  0  0  0  0  0  0  0
   48.8489   12.1414   17.7112 N   0  0  0  0  0  0  0  0  0  0  0  0
   48.3070    7.1486   20.2277 C   0  0  0  0  0  0  0  0  0  0  0  0
   52.3963    8.2748   17.7581 C   0  0  0  0  0  0  0  0  0  0  0  0
   48.9080   10.7102   17.3880 C   0  0  0  0  0  0  0  0  0  0  0  0
   48.7072    4.4434   20.5359 C   0  0  0  0  0  0  0  0  0  0  0  0
   53.9823    6.3800   18.9437 C   0  0  0  0  0  0  0  0  0  0  0  0
   50.1682   12.7467   17.8683 C   0  0  0  0  0  0  0  0  0  0  0  0
   48.0021   12.4296   18.8653 C   0  0  0  0  0  0  0  0  0  0  0  0
   53.7829    8.3004   17.5555 C   0  0  0  0  0  0  0  0  0  0  0  0
   47.3880    6.3882   20.9601 C   0  0  0  0  0  0  0  0  0  0  0  0
   54.5828    7.3560   18.1635 C   0  0  0  0  0  0  0  0  0  0  0  0
   47.5827    5.0270   21.1048 C   0  0  0  0  0  0  0  0  0  0  0  0
   49.1463   11.1562   17.1251 C   0  0  0  0  0  0  0  0  0  0  0  0
   50.4569    5.2361   18.2679 C   0  0  0  0  0  0  0  0  0  0  0  0
   51.3092    7.3612   19.1523 C   0  0  0  0  0  0  0  0  0  0  0  0
   50.0814    9.7086   18.8648 C   0  0  0  0  0  0  0  0  0  0  0  0
   50.1906   10.3634   17.6176 C   0  0  0  0  0  0  0  0  0  0  0  0
   50.3402    6.6281   18.4311 C   0  0  0  0  0  0  0  0  0  0  0  0
   51.2527    8.8777   19.3663 C   0  0  0  0  0  0  0  0  0  0  0  0
   47.9843   11.3054   17.8898 C   0  0  0  0  0  0  0  0  0  0  0  0
   51.5517    4.5654   18.8205 C   0  0  0  0  0  0  0  0  0  0  0  0
   49.1830   11.8729   15.8256 C   0  0  0  0  0  0  0  0  0  0  0  0
   49.4812    4.3901   17.5299 C   0  0  0  0  0  0  0  0  0  0  0  0
   52.4353    6.6560   19.7098 C   0  0  0  0  0  0  0  0  0  0  0  0
   48.8800    9.8434   19.6284 C   0  0  0  0  0  0  0  0  0  0  0  0
   47.8375   10.6618   19.1259 C   0  0  0  0  0  0  0  0  0  0  0  0
   52.5368    5.2528   19.5322 C   0  0  0  0  0  0  0  0  0  0  0  0
   48.3134   12.5981   15.3796 O   0  0  0  0  0  0  0  0  0  0  0  0
   49.5603    3.1879   17.3544 O   0  0  0  0  0  0  0  0  0  0  0  0
   51.3620   10.1913   16.9190 O   0  0  0  0  0  0  0  0  0  0  0  0
   49.2796    7.3014   17.8877 O   0  0  0  0  0  0  0  0  0  0  0  0
   50.3164   11.6528   15.1260 O   0  0  0  0  0  0  0  0  0  0  0  0
   48.4321    5.0839   17.0400 O   0  0  0  0  0  0  0  0  0  0  0  0
   48.6514    9.1964   20.8668 C   0  0  0  0  0  0  0  0  0  0  0  0
   53.4827    7.2757   20.4389 C   0  0  0  0  0  0  0  0  0  0  0  0
   46.6502   10.8281   19.8589 C   0  0  0  0  0  0  0  0  0  0  0  0
   53.6255    4.5386   20.0628 C   0  0  0  0  0  0  0  0  0  0  0  0
   54.5612    6.5556   20.9618 C   0  0  0  0  0  0  0  0  0  0  0  0
   47.4633    9.3659   21.5828 C   0  0  0  0  0  0  0  0  0  0  0  0
   54.6323    5.1848   20.7734 C   0  0  0  0  0  0  0  0  0  0  0  0
   46.4644   10.1865   21.0810 C   0  0  0  0  0  0  0  0  0  0  0  0
   50.3428    7.3442   18.9626 N   0  0  0  0  0  0  0  0  0  0  0  0
   51.4813    6.9505   18.1819 C   0  0  0  0  0  0  0  0  0  0  0  0
   49.8451    6.8455   20.2131 C   0  0  0  0  0  0  0  0  0  0  0  0
   51.9791    5.6359   18.1396 C   0  0  0  0  0  0  0  0  0  0  0  0
   50.4536    5.8069   20.9582 C   0  0  0  0  0  0  0  0  0  0  0  0
   51.4193    4.5575   19.0170 C   0  0  0  0  0  0  0  0  0  0  0  0
   51.6088    4.9755   20.4642 C   0  0  0  0  0  0  0  0  0  0  0  0
   49.4541    8.2825   18.2158 C   0  0  0  0  0  0  0  0  0  0  0  0
   49.5961    9.7444   18.6804 C   0  0  0  0  0  0  0  0  0  0  0  0
   48.6920   12.0550   18.2783 N   0  0  0  0  0  0  0  0  0  0  0  0
   48.6964    7.4165   20.8224 C   0  0  0  0  0  0  0  0  0  0  0  0
   52.1660    7.8937   17.3773 C   0  0  0  0  0  0  0  0  0  0  0  0
   48.7476   10.6657   17.7934 C   0  0  0  0  0  0  0  0  0  0  0  0
   49.9737    5.4548   22.2475 C   0  0  0  0  0  0  0  0  0  0  0  0
   53.0558    5.2916   17.2900 C   0  0  0  0  0  0  0  0  0  0  0  0
   47.7092   12.8175   17.5024 C   0  0  0  0  0  0  0  0  0  0  0  0
   49.9946   12.7202   18.2120 C   0  0  0  0  0  0  0  0  0  0  0  0
   53.2408    7.5535   16.5477 C   0  0  0  0  0  0  0  0  0  0  0  0
   48.2127    7.0435   22.0842 C   0  0  0  0  0  0  0  0  0  0  0  0
   53.6797    6.2434   16.4945 C   0  0  0  0  0  0  0  0  0  0  0  0
   48.8640    6.0674   22.8084 C   0  0  0  0  0  0  0  0  0  0  0  0
   51.9156    5.4553   20.9700 H   0  0  0  0  0  0  0  0  0  0  0  0
   52.8688    4.3804   19.9572 H   0  0  0  0  0  0  0  0  0  0  0  0
   50.8868    4.5287   18.1966 H   0  0  0  0  0  0  0  0  0  0  0  0
   50.8355    3.4510   19.5819 H   0  0  0  0  0  0  0  0  0  0  0  0
   49.9320    8.2691   16.8950 H   0  0  0  0  0  0  0  0  0  0  0  0
   48.5087    8.0073   17.8093 H   0  0  0  0  0  0  0  0  0  0  0  0
   50.5865   10.1234   18.6315 H   0  0  0  0  0  0  0  0  0  0  0  0
   49.0377    9.8694   19.3796 H   0  0  0  0  0  0  0  0  0  0  0  0
   48.1071    8.2114   20.1716 H   0  0  0  0  0  0  0  0  0  0  0  0
   51.8583    9.0665   17.2495 H   0  0  0  0  0  0  0  0  0  0  0  0
   49.4346   10.6006   16.4304 H   0  0  0  0  0  0  0  0  0  0  0  0
   47.8865   10.3572   17.1927 H   0  0  0  0  0  0  0  0  0  0  0  0
   48.8649    3.3758   20.6744 H   0  0  0  0  0  0  0  0  0  0  0  0
   54.6209    5.6278   19.4046 H   0  0  0  0  0  0  0  0  0  0  0  0
   50.8073   12.5202   17.0075 H   0  0  0  0  0  0  0  0  0  0  0  0
   50.6814   12.4135   18.7772 H   0  0  0  0  0  0  0  0  0  0  0  0
   50.0810   13.8388   17.9128 H   0  0  0  0  0  0  0  0  0  0  0  0
   48.4181   12.0449   19.8026 H   0  0  0  0  0  0  0  0  0  0  0  0
   47.0020   12.0036   18.7288 H   0  0  0  0  0  0  0  0  0  0  0  0
   47.8670   13.5122   18.9754 H   0  0  0  0  0  0  0  0  0  0  0  0
   54.2254    9.0710   16.9300 H   0  0  0  0  0  0  0  0  0  0  0  0
   46.5263    6.8690   21.4150 H   0  0  0  0  0  0  0  0  0  0  0  0
   55.6597    7.3682   18.0255 H   0  0  0  0  0  0  0  0  0  0  0  0
   46.8762    4.4248   21.6686 H   0  0  0  0  0  0  0  0  0  0  0  0
   51.3412    9.0742   20.4432 H   0  0  0  0  0  0  0  0  0  0  0  0
   52.1744    9.2985   18.9425 H   0  0  0  0  0  0  0  0  0  0  0  0
   47.1755   11.9282   17.5086 H   0  0  0  0  0  0  0  0  0  0  0  0
   51.6374    3.4869   18.6865 H   0  0  0  0  0  0  0  0  0  0  0  0
   51.2740   10.6595   16.0624 H   0  0  0  0  0  0  0  0  0  0  0  0
   48.6894    6.6618   17.4391 H   0  0  0  0  0  0  0  0  0  0  0  0
   50.1760   12.1867   14.3118 H   0  0  0  0  0  0  0  0  0  0  0  0
   47.8973    4.3858   16.5987 H   0  0  0  0  0  0  0  0  0  0  0  0
   49.3971    8.5294   21.2916 H   0  0  0  0  0  0  0  0  0  0  0  0
   53.4840    8.3496   20.6120 H   0  0  0  0  0  0  0  0  0  0  0  0
   45.8513   11.4610   19.4779 H   0  0  0  0  0  0  0  0  0  0  0  0
   53.6996    3.4616   19.9219 H   0  0  0  0  0  0  0  0  0  0  0  0
   55.3433    7.0726   21.5118 H   0  0  0  0  0  0  0  0  0  0  0  0
   47.3232    8.8510   22.5294 H   0  0  0  0  0  0  0  0  0  0  0  0
   55.4683    4.6182   21.1740 H   0  0  0  0  0  0  0  0  0  0  0  0
   45.5383   10.3224   21.6329 H   0  0  0  0  0  0  0  0  0  0  0  0
   51.9650    3.6197   18.8512 H   0  0  0  0  0  0  0  0  0  0  0  0
   50.3731    4.3543   18.7574 H   0  0  0  0  0  0  0  0  0  0  0  0
   51.6710    4.0528   21.0566 H   0  0  0  0  0  0  0  0  0  0  0  0
   52.5487    5.5159   20.6350 H   0  0  0  0  0  0  0  0  0  0  0  0
   49.6463    8.2295   17.1342 H   0  0  0  0  0  0  0  0  0  0  0  0
   48.4078    7.9533   18.2790 H   0  0  0  0  0  0  0  0  0  0  0  0
   50.6455   10.0498   18.6524 H   0  0  0  0  0  0  0  0  0  0  0  0
   49.2873    9.8614   19.7235 H   0  0  0  0  0  0  0  0  0  0  0  0
   48.1225    8.2008   20.3425 H   0  0  0  0  0  0  0  0  0  0  0  0
   51.8857    8.9409   17.3858 H   0  0  0  0  0  0  0  0  0  0  0  0
   47.7265   10.2609   17.7811 H   0  0  0  0  0  0  0  0  0  0  0  0
   49.1171   10.6300   16.7597 H   0  0  0  0  0  0  0  0  0  0  0  0
   50.4703    4.6723   22.8191 H   0  0  0  0  0  0  0  0  0  0  0  0
   53.4231    4.2675   17.2601 H   0  0  0  0  0  0  0  0  0  0  0  0
   46.7140   12.3676   17.5912 H   0  0  0  0  0  0  0  0  0  0  0  0
   47.9722   12.8690   16.4394 H   0  0  0  0  0  0  0  0  0  0  0  0
   47.6223   13.8397   17.8875 H   0  0  0  0  0  0  0  0  0  0  0  0
   50.4138   12.7073   17.1995 H   0  0  0  0  0  0  0  0  0  0  0  0
   49.9106   13.7650   18.5341 H   0  0  0  0  0  0  0  0  0  0  0  0
   50.7131   12.2546   18.8939 H   0  0  0  0  0  0  0  0  0  0  0  0
   53.7285    8.3186   15.9504 H   0  0  0  0  0  0  0  0  0  0  0  0
   47.3334    7.5344   22.4937 H   0  0  0  0  0  0  0  0  0  0  0  0
   54.5113    5.9653   15.8538 H   0  0  0  0  0  0  0  0  0  0  0  0
   48.5100    5.7769   23.7927 H   0  0  0  0  0  0  0  0  0  0  0  0
  2  1  1  0
  3  1  1  0
  4  2  2  0
  5  3  2  0
  6  4  1  0
  7  5  1  0
  8  1  1  0
  9  8  1  0
 10 13  1  0
 11  3  1  0
 12  2  1  0
 13  9  1  0
 14  5  1  0
 15  4  1  0
 16 10  1  0
 17 10  1  0
 18 12  2  0
 19 11  2  0
 20 15  2  0
 21 14  2  0
  6  7  1  0
 18 20  1  0
 19 21  1  0
 23 27  2  0
 24 28  1  0
 25 26  1  0
 26 22  2  0
 27 24  1  0
 28 25  1  0
 29 22  1  0
 30 23  1  0
 31 22  1  0
 32 23  1  0
 33 24  2  0
 34 35  1  0
 35 29  2  0
 36 33  1  0
 37 31  2  0
 38 32  2  0
 39 26  1  0
 40 27  1  0
 41 31  1  0
 42 32  1  0
 43 34  1  0
 44 33  1  0
 45 35  1  0
 46 36  1  0
 47 44  2  0
 48 43  2  0
 49 47  1  0
 50 45  2  0
 25 34  2  0
 48 50  1  0
 30 36  2  0
 46 49  2  0
 52 51  1  0
 53 51  1  0
 54 52  2  0
 55 53  2  0
 56 54  1  0
 57 55  1  0
 58 51  1  0
 59 58  1  0
 60 63  1  0
 61 53  1  0
 62 52  1  0
 63 59  1  0
 64 55  1  0
 65 54  1  0
 66 60  1  0
 67 60  1  0
 68 62  2  0
 69 61  2  0
 70 65  2  0
 71 64  2  0
 56 57  1  0
 68 70  1  0
 69 71  1  0
  6 72  1  0
  6 73  1  0
  7 74  1  0
  7 75  1  0
  8 76  1  0
  8 77  1  0
  9 78  1  0
  9 79  1  0
 11 80  1  0
 12 81  1  0
 13 82  1  0
 13 83  1  0
 14 84  1  0
 15 85  1  0
 16 86  1  0
 16 87  1  0
 16 88  1  0
 17 89  1  0
 17 90  1  0
 17 91  1  0
 18 92  1  0
 19 93  1  0
 20 94  1  0
 21 95  1  0
 28 96  1  0
 28 97  1  0
 29 98  1  0
 30 99  1  0
 39100  1  0
 40101  1  0
 41102  1  0
 42103  1  0
 43104  1  0
 44105  1  0
 45106  1  0
 46107  1  0
 47108  1  0
 48109  1  0
 49110  1  0
 50111  1  0
 56112  1  0
 56113  1  0
 57114  1  0
 57115  1  0
 58116  1  0
 58117  1  0
 59118  1  0
 59119  1  0
 61120  1  0
 62121  1  0
 63122  1  0
 63123  1  0
 64124  1  0
 65125  1  0
 66126  1  0
 66127  1  0
 66128  1  0
 67129  1  0
 67130  1  0
 67131  1  0
 68132  1  0
 69133  1  0
 70134  1  0
 71135  1  0
M  END
> <Uni-Dock RESULT> 
ENERGY=   -5.723  LOWER_BOUND=    2.426  UPPER_BOUND=    6.819
INTER + INTRA:          -5.723
INTER:                  -5.723
INTRA:                   0.000
UNBOUND:                 0.000

$$$$

     RDKit          3D

135142  0  0  0  0  0  0  0  0999 V2000
   50.8083    6.9249   18.1691 N   0  0  0  0  0  0  0  0  0  0  0  0
   49.7595    6.5618   19.0805 C   0  0  0  0  0  0  0  0  0  0  0  0
   51.1132    8.1793   17.5429 C   0  0  0  0  0  0  0  0  0  0  0  0
   48.7782    7.4578   19.5676 C   0  0  0  0  0  0  0  0  0  0  0  0
   50.1400    9.1315   17.1912 C   0  0  0  0  0  0  0  0  0  0  0  0
   48.6001    8.8697   19.0730 C   0  0  0  0  0  0  0  0  0  0  0  0
   48.6985    8.9522   17.5601 C   0  0  0  0  0  0  0  0  0  0  0  0
   51.5756    5.7996   17.5582 C   0  0  0  0  0  0  0  0  0  0  0  0
   52.7401    5.3178   18.4449 C   0  0  0  0  0  0  0  0  0  0  0  0
   54.5009    3.4644   18.5731 N   0  0  0  0  0  0  0  0  0  0  0  0
   52.4504    8.5173   17.2249 C   0  0  0  0  0  0  0  0  0  0  0  0
   49.6733    5.2441   19.6046 C   0  0  0  0  0  0  0  0  0  0  0  0
   53.3767    4.0592   17.8392 C   0  0  0  0  0  0  0  0  0  0  0  0
   50.4956   10.3155   16.5047 C   0  0  0  0  0  0  0  0  0  0  0  0
   47.8499    7.0522   20.5624 C   0  0  0  0  0  0  0  0  0  0  0  0
   54.1335    3.0110   19.9114 C   0  0  0  0  0  0  0  0  0  0  0  0
   55.6732    4.3335   18.6203 C   0  0  0  0  0  0  0  0  0  0  0  0
   48.7355    4.8452   20.5668 C   0  0  0  0  0  0  0  0  0  0  0  0
   52.8013    9.6961   16.5567 C   0  0  0  0  0  0  0  0  0  0  0  0
   47.8273    5.7584   21.0596 C   0  0  0  0  0  0  0  0  0  0  0  0
   51.8178   10.5938   16.1842 C   0  0  0  0  0  0  0  0  0  0  0  0
   53.4251    3.5472   18.0847 C   0  0  0  0  0  0  0  0  0  0  0  0
   49.0518    7.7791   17.0664 C   0  0  0  0  0  0  0  0  0  0  0  0
   50.2813    7.0606   19.0656 C   0  0  0  0  0  0  0  0  0  0  0  0
   52.5269    5.6272   19.0140 C   0  0  0  0  0  0  0  0  0  0  0  0
   52.4200    4.2394   18.7720 C   0  0  0  0  0  0  0  0  0  0  0  0
   50.1246    7.0916   17.6617 C   0  0  0  0  0  0  0  0  0  0  0  0
   51.4193    6.3287   19.7853 C   0  0  0  0  0  0  0  0  0  0  0  0
   54.5541    4.2454   17.6428 C   0  0  0  0  0  0  0  0  0  0  0  0
   48.1199    8.4369   17.8743 C   0  0  0  0  0  0  0  0  0  0  0  0
   53.3856    2.0930   17.7890 C   0  0  0  0  0  0  0  0  0  0  0  0
   48.8169    7.8656   15.6003 C   0  0  0  0  0  0  0  0  0  0  0  0
   49.3083    7.7379   19.8846 C   0  0  0  0  0  0  0  0  0  0  0  0
   53.6707    6.3397   18.5355 C   0  0  0  0  0  0  0  0  0  0  0  0
   54.6881    5.6240   17.8559 C   0  0  0  0  0  0  0  0  0  0  0  0
   48.2320    8.4233   19.2659 C   0  0  0  0  0  0  0  0  0  0  0  0
   54.2525    1.4496   17.2275 O   0  0  0  0  0  0  0  0  0  0  0  0
   47.8909    8.4358   15.0529 O   0  0  0  0  0  0  0  0  0  0  0  0
   51.2951    3.6051   19.2433 O   0  0  0  0  0  0  0  0  0  0  0  0
   51.0402    6.4338   16.8854 O   0  0  0  0  0  0  0  0  0  0  0  0
   52.2520    1.4929   18.2103 O   0  0  0  0  0  0  0  0  0  0  0  0
   49.7596    7.2357   14.8677 O   0  0  0  0  0  0  0  0  0  0  0  0
   53.8551    7.7353   18.6863 C   0  0  0  0  0  0  0  0  0  0  0  0
   49.3421    7.7684   21.3026 C   0  0  0  0  0  0  0  0  0  0  0  0
   55.8323    6.2913   17.3868 C   0  0  0  0  0  0  0  0  0  0  0  0
   47.2663    9.0909   20.0395 C   0  0  0  0  0  0  0  0  0  0  0  0
   48.3759    8.4353   22.0620 C   0  0  0  0  0  0  0  0  0  0  0  0
   54.9956    8.3873   18.2096 C   0  0  0  0  0  0  0  0  0  0  0  0
   47.3365    9.0977   21.4292 C   0  0  0  0  0  0  0  0  0  0  0  0
   55.9871    7.6640   17.5643 C   0  0  0  0  0  0  0  0  0  0  0  0
   50.8086    7.0786   18.2338 N   0  0  0  0  0  0  0  0  0  0  0  0
   49.5239    6.5182   18.5441 C   0  0  0  0  0  0  0  0  0  0  0  0
   51.2677    8.4385   18.2511 C   0  0  0  0  0  0  0  0  0  0  0  0
   48.3084    7.1923   18.3300 C   0  0  0  0  0  0  0  0  0  0  0  0
   50.4698    9.5465   18.6250 C   0  0  0  0  0  0  0  0  0  0  0  0
   48.2737    8.6172   17.8666 C   0  0  0  0  0  0  0  0  0  0  0  0
   48.9902    9.4704   18.8979 C   0  0  0  0  0  0  0  0  0  0  0  0
   51.7157    6.0748   17.6034 C   0  0  0  0  0  0  0  0  0  0  0  0
   52.7874    5.5398   18.5720 C   0  0  0  0  0  0  0  0  0  0  0  0
   54.7595    3.9861   18.6936 N   0  0  0  0  0  0  0  0  0  0  0  0
   52.6124    8.7599   17.9264 C   0  0  0  0  0  0  0  0  0  0  0  0
   49.4165    5.2112   19.0790 C   0  0  0  0  0  0  0  0  0  0  0  0
   53.6037    4.4297   17.8962 C   0  0  0  0  0  0  0  0  0  0  0  0
   51.0312   10.8460   18.7383 C   0  0  0  0  0  0  0  0  0  0  0  0
   47.0696    6.5582   18.5812 C   0  0  0  0  0  0  0  0  0  0  0  0
   55.5966    3.0801   17.9014 C   0  0  0  0  0  0  0  0  0  0  0  0
   54.3575    3.3245   19.9363 C   0  0  0  0  0  0  0  0  0  0  0  0
   48.1894    4.5907   19.3402 C   0  0  0  0  0  0  0  0  0  0  0  0
   53.1515   10.0509   18.0142 C   0  0  0  0  0  0  0  0  0  0  0  0
   47.0100    5.2631   19.0783 C   0  0  0  0  0  0  0  0  0  0  0  0
   52.3605   11.0983   18.4375 C   0  0  0  0  0  0  0  0  0  0  0  0
   49.3128    9.5297   19.5853 H   0  0  0  0  0  0  0  0  0  0  0  0
   47.5982    9.2256   19.3463 H   0  0  0  0  0  0  0  0  0  0  0  0
   48.2766    8.0775   17.0503 H   0  0  0  0  0  0  0  0  0  0  0  0
   48.1154    9.8177   17.2202 H   0  0  0  0  0  0  0  0  0  0  0  0
   50.8976    4.9700   17.3147 H   0  0  0  0  0  0  0  0  0  0  0  0
   51.9727    6.0742   16.5696 H   0  0  0  0  0  0  0  0  0  0  0  0
   52.3969    5.1139   19.4626 H   0  0  0  0  0  0  0  0  0  0  0  0
   53.4930    6.1034   18.5448 H   0  0  0  0  0  0  0  0  0  0  0  0
   53.2703    7.8688   17.5073 H   0  0  0  0  0  0  0  0  0  0  0  0
   50.3512    4.4579   19.2924 H   0  0  0  0  0  0  0  0  0  0  0  0
   52.6025    3.2890   17.7228 H   0  0  0  0  0  0  0  0  0  0  0  0
   53.7107    4.2832   16.8171 H   0  0  0  0  0  0  0  0  0  0  0  0
   49.7308   11.0384   16.2286 H   0  0  0  0  0  0  0  0  0  0  0  0
   47.1167    7.7609   20.9446 H   0  0  0  0  0  0  0  0  0  0  0  0
   53.2466    2.3685   19.8769 H   0  0  0  0  0  0  0  0  0  0  0  0
   53.9334    3.8401   20.5992 H   0  0  0  0  0  0  0  0  0  0  0  0
   54.9405    2.4055   20.3410 H   0  0  0  0  0  0  0  0  0  0  0  0
   55.5108    5.2314   19.2259 H   0  0  0  0  0  0  0  0  0  0  0  0
   55.9671    4.6438   17.6114 H   0  0  0  0  0  0  0  0  0  0  0  0
   56.5292    3.7929   19.0414 H   0  0  0  0  0  0  0  0  0  0  0  0
   48.7339    3.8214   20.9309 H   0  0  0  0  0  0  0  0  0  0  0  0
   53.8443    9.9041   16.3348 H   0  0  0  0  0  0  0  0  0  0  0  0
   47.1012    5.4685   21.8130 H   0  0  0  0  0  0  0  0  0  0  0  0
   52.0760   11.5112   15.6631 H   0  0  0  0  0  0  0  0  0  0  0  0
   51.9087    7.0407   20.4633 H   0  0  0  0  0  0  0  0  0  0  0  0
   50.9566    5.5949   20.4589 H   0  0  0  0  0  0  0  0  0  0  0  0
   55.3385    3.7043   17.1144 H   0  0  0  0  0  0  0  0  0  0  0  0
   47.2888    8.9644   17.4058 H   0  0  0  0  0  0  0  0  0  0  0  0
   51.3371    2.6672   18.9616 H   0  0  0  0  0  0  0  0  0  0  0  0
   50.8112    6.5611   15.9420 H   0  0  0  0  0  0  0  0  0  0  0  0
   52.3877    0.5574   17.9382 H   0  0  0  0  0  0  0  0  0  0  0  0
   49.4590    7.3947   13.9444 H   0  0  0  0  0  0  0  0  0  0  0  0
   53.0976    8.3472   19.1689 H   0  0  0  0  0  0  0  0  0  0  0  0
   50.1302    7.2603   21.8540 H   0  0  0  0  0  0  0  0  0  0  0  0
   56.6175    5.7426   16.8704 H   0  0  0  0  0  0  0  0  0  0  0  0
   46.4408    9.6140   19.5595 H   0  0  0  0  0  0  0  0  0  0  0  0
   48.4398    8.4299   23.1472 H   0  0  0  0  0  0  0  0  0  0  0  0
   55.1009    9.4607   18.3422 H   0  0  0  0  0  0  0  0  0  0  0  0
   46.5801    9.6159   22.0120 H   0  0  0  0  0  0  0  0  0  0  0  0
   56.8763    8.1651   17.1913 H   0  0  0  0  0  0  0  0  0  0  0  0
   47.2340    8.9608   17.7920 H   0  0  0  0  0  0  0  0  0  0  0  0
   48.6993    8.7048   16.8594 H   0  0  0  0  0  0  0  0  0  0  0  0
   48.5573   10.4778   18.8338 H   0  0  0  0  0  0  0  0  0  0  0  0
   48.8245    9.1282   19.9275 H   0  0  0  0  0  0  0  0  0  0  0  0
   51.1435    5.2275   17.1980 H   0  0  0  0  0  0  0  0  0  0  0  0
   52.1804    6.4911   16.6991 H   0  0  0  0  0  0  0  0  0  0  0  0
   52.3181    5.1648   19.4856 H   0  0  0  0  0  0  0  0  0  0  0  0
   53.4616    6.3374   18.8981 H   0  0  0  0  0  0  0  0  0  0  0  0
   53.3190    8.0066   17.5978 H   0  0  0  0  0  0  0  0  0  0  0  0
   50.3016    4.6357   19.3252 H   0  0  0  0  0  0  0  0  0  0  0  0
   53.9728    4.8281   16.9414 H   0  0  0  0  0  0  0  0  0  0  0  0
   52.9494    3.5809   17.6559 H   0  0  0  0  0  0  0  0  0  0  0  0
   50.4099   11.6826   19.0538 H   0  0  0  0  0  0  0  0  0  0  0  0
   46.1369    7.0891   18.4004 H   0  0  0  0  0  0  0  0  0  0  0  0
   55.9578    3.5805   16.9959 H   0  0  0  0  0  0  0  0  0  0  0  0
   55.0572    2.1733   17.6040 H   0  0  0  0  0  0  0  0  0  0  0  0
   56.4870    2.7834   18.4672 H   0  0  0  0  0  0  0  0  0  0  0  0
   53.6951    2.4706   19.7538 H   0  0  0  0  0  0  0  0  0  0  0  0
   55.2369    2.9644   20.4832 H   0  0  0  0  0  0  0  0  0  0  0  0
   53.8511    4.0217   20.6112 H   0  0  0  0  0  0  0  0  0  0  0  0
   48.1665    3.5849   19.7500 H   0  0  0  0  0  0  0  0  0  0  0  0
   54.1951   10.2202   17.7613 H   0  0  0  0  0  0  0  0  0  0  0  0
   46.0510    4.7929   19.2745 H   0  0  0  0  0  0  0  0  0  0  0  0
   52.7667   12.1013   18.5239 H   0  0  0  0  0  0  0  0  0  0  0  0
  2  1  1  0
  3  1  1  0
  4  2  2  0
  5  3  2  0
  6  4  1  0
  7  5  1  0
  8  1  1  0
  9  8  1  0
 10 13  1  0
 11  3  1  0
 12  2  1  0
 13  9  1  0
 14  5  1  0
 15  4  1  0
 16 10  1  0
 17 10  1  0
 18 12  2  0
 19 11  2  0
 20 15  2  0
 21 14  2  0
  6  7  1  0
 18 20  1  0
 19 21  1  0
 23 27  2  0
 24 28  1  0
 25 26  1  0
 26 22  2  0
 27 24  1  0
 28 25  1  0
 29 22  1  0
 30 23  1  0
 31 22  1  0
 32 23  1  0
 33 24  2  0
 34 35  1  0
 35 29  2  0
 36 33  1  0
 37 31  2  0
 38 32  2  0
 39 26  1  0
 40 27  1  0
 41 31  1  0
 42 32  1  0
 43 34  1  0
 44 33  1  0
 45 35  1  0
 46 36  1  0
 47 44  2  0
 48 43  2  0
 49 47  1  0
 50 45  2  0
 25 34  2  0
 48 50  1  0
 30 36  2  0
 46 49  2  0
 52 51  1  0
 53 51  1  0
 54 52  2  0
 55 53  2  0
 56 54  1  0
 57 55  1  0
 58 51  1  0
 59 58  1  0
 60 63  1  0
 61 53  1  0
 62 52  1  0
 63 59  1  0
 64 55  1  0
 65 54  1  0
 66 60  1  0
 67 60  1  0
 68 62  2  0
 69 61  2  0
 70 65  2  0
 71 64  2  0
 56 57  1  0
 68 70  1  0
 69 71  1  0
  6 72  1  0
  6 73  1  0
  7 74  1  0
  7 75  1  0
  8 76  1  0
  8 77  1  0
  9 78  1  0
  9 79  1  0
 11 80  1  0
 12 81  1  0
 13 82  1  0
 13 83  1  0
 14 84  1  0
 15 85  1  0
 16 86  1  0
 16 87  1  0
 16 88  1  0
 17 89  1  0
 17 90  1  0
 17 91  1  0
 18 92  1  0
 19 93  1  0
 20 94  1  0
 21 95  1  0
 28 96  1  0
 28 97  1  0
 29 98  1  0
 30 99  1  0
 39100  1  0
 40101  1  0
 41102  1  0
 42103  1  0
 43104  1  0
 44105  1  0
 45106  1  0
 46107  1  0
 47108  1  0
 48109  1  0
 49110  1  0
 50111  1  0
 56112  1  0
 56113  1  0
 57114  1  0
 57115  1  0
 58116  1  0
 58117  1  0
 59118  1  0
 59119  1  0
 61120  1  0
 62121  1  0
 63122  1  0
 63123  1  0
 64124  1  0
 65125  1  0
 66126  1  0
 66127  1  0
 66128  1  0
 67129  1  0
 67130  1  0
 67131  1  0
 68132  1  0
 69133  1  0
 70134  1  0
 71135  1  0
M  END
> <Uni-Dock RESULT> 
ENERGY=   -5.605  LOWER_BOUND=    2.981  UPPER_BOUND=    6.192
INTER + INTRA:          -5.605
INTER:                  -5.605
INTRA:                   0.000
UNBOUND:                 0.000

$$$$

     RDKit          3D

135142  0  0  0  0  0  0  0  0999 V2000
   49.6159    9.8875   18.4120 N   0  0  0  0  0  0  0  0  0  0  0  0
   48.8320   10.4533   19.4740 C   0  0  0  0  0  0  0  0  0  0  0  0
   50.6892   10.4447   17.6399 C   0  0  0  0  0  0  0  0  0  0  0  0
   49.0113   11.7583   19.9918 C   0  0  0  0  0  0  0  0  0  0  0  0
   50.7933   11.8108   17.3227 C   0  0  0  0  0  0  0  0  0  0  0  0
   49.9351   12.7874   19.3940 C   0  0  0  0  0  0  0  0  0  0  0  0
   49.8355   12.8201   17.8792 C   0  0  0  0  0  0  0  0  0  0  0  0
   49.1095    8.6146   17.8192 C   0  0  0  0  0  0  0  0  0  0  0  0
   49.5682    7.3669   18.5982 C   0  0  0  0  0  0  0  0  0  0  0  0
   49.2024    4.8348   18.6822 N   0  0  0  0  0  0  0  0  0  0  0  0
   51.7157    9.6133   17.1316 C   0  0  0  0  0  0  0  0  0  0  0  0
   47.8264    9.6890   20.1244 C   0  0  0  0  0  0  0  0  0  0  0  0
   48.8792    6.1145   18.0387 C   0  0  0  0  0  0  0  0  0  0  0  0
   51.8333   12.2871   16.4913 C   0  0  0  0  0  0  0  0  0  0  0  0
   48.2795   12.1999   21.1255 C   0  0  0  0  0  0  0  0  0  0  0  0
   48.8234    4.7921   20.0916 C   0  0  0  0  0  0  0  0  0  0  0  0
   50.5987    4.4458   18.5057 C   0  0  0  0  0  0  0  0  0  0  0  0
   47.0892   10.1436   21.2265 C   0  0  0  0  0  0  0  0  0  0  0  0
   52.7514   10.0893   16.3193 C   0  0  0  0  0  0  0  0  0  0  0  0
   47.3270   11.4013   21.7394 C   0  0  0  0  0  0  0  0  0  0  0  0
   52.8037   11.4307   15.9878 C   0  0  0  0  0  0  0  0  0  0  0  0
   48.5442    5.7514   18.3229 C   0  0  0  0  0  0  0  0  0  0  0  0
   49.0584   11.8389   17.4570 C   0  0  0  0  0  0  0  0  0  0  0  0
   49.5358   10.3506   19.3496 C   0  0  0  0  0  0  0  0  0  0  0  0
   49.7654    7.7028   19.1579 C   0  0  0  0  0  0  0  0  0  0  0  0
   48.5792    6.9416   19.0603 C   0  0  0  0  0  0  0  0  0  0  0  0
   49.2577   10.5480   17.9784 C   0  0  0  0  0  0  0  0  0  0  0  0
   49.7581    8.9761   19.9900 C   0  0  0  0  0  0  0  0  0  0  0  0
   49.7082    5.3105   17.6841 C   0  0  0  0  0  0  0  0  0  0  0  0
   49.1287   12.9456   18.3079 C   0  0  0  0  0  0  0  0  0  0  0  0
   47.3388    4.8985   18.1702 C   0  0  0  0  0  0  0  0  0  0  0  0
   48.7673   12.1345   16.0287 C   0  0  0  0  0  0  0  0  0  0  0  0
   49.5981   11.5012   20.2146 C   0  0  0  0  0  0  0  0  0  0  0  0
   50.9441    7.2604   18.4799 C   0  0  0  0  0  0  0  0  0  0  0  0
   50.8993    6.0457   17.7507 C   0  0  0  0  0  0  0  0  0  0  0  0
   49.3916   12.7945   19.6708 C   0  0  0  0  0  0  0  0  0  0  0  0
   47.2770    3.8420   17.5694 O   0  0  0  0  0  0  0  0  0  0  0  0
   48.5721   13.2358   15.5477 O   0  0  0  0  0  0  0  0  0  0  0  0
   47.4720    7.4177   19.7218 O   0  0  0  0  0  0  0  0  0  0  0  0
   49.1822    9.4529   17.1607 O   0  0  0  0  0  0  0  0  0  0  0  0
   46.2458    5.4043   18.7801 O   0  0  0  0  0  0  0  0  0  0  0  0
   48.7365   11.0335   15.2484 O   0  0  0  0  0  0  0  0  0  0  0  0
   52.1698    7.9689   18.4772 C   0  0  0  0  0  0  0  0  0  0  0  0
   49.8520   11.4378   21.6090 C   0  0  0  0  0  0  0  0  0  0  0  0
   52.0443    5.5748   17.0860 C   0  0  0  0  0  0  0  0  0  0  0  0
   49.4440   13.9353   20.4910 C   0  0  0  0  0  0  0  0  0  0  0  0
   49.9015   12.5790   22.4154 C   0  0  0  0  0  0  0  0  0  0  0  0
   53.2995    7.4919   17.8069 C   0  0  0  0  0  0  0  0  0  0  0  0
   49.6972   13.8297   21.8552 C   0  0  0  0  0  0  0  0  0  0  0  0
   53.2381    6.2915   17.1155 C   0  0  0  0  0  0  0  0  0  0  0  0
   49.7459    9.9794   18.4617 N   0  0  0  0  0  0  0  0  0  0  0  0
   48.5761   10.6329   18.9766 C   0  0  0  0  0  0  0  0  0  0  0  0
   51.0902   10.4551   18.2970 C   0  0  0  0  0  0  0  0  0  0  0  0
   48.3364   12.0129   18.8506 C   0  0  0  0  0  0  0  0  0  0  0  0
   51.5295   11.7506   18.6610 C   0  0  0  0  0  0  0  0  0  0  0  0
   49.3616   12.9360   18.2649 C   0  0  0  0  0  0  0  0  0  0  0  0
   50.6151   12.8573   19.1178 C   0  0  0  0  0  0  0  0  0  0  0  0
   49.4162    8.6721   17.8213 C   0  0  0  0  0  0  0  0  0  0  0  0
   49.7893    7.4614   18.6976 C   0  0  0  0  0  0  0  0  0  0  0  0
   49.7850    4.9479   18.7216 N   0  0  0  0  0  0  0  0  0  0  0  0
   52.1072    9.6077   17.7826 C   0  0  0  0  0  0  0  0  0  0  0  0
   47.5677    9.8914   19.6393 C   0  0  0  0  0  0  0  0  0  0  0  0
   49.3148    6.1618   18.0331 C   0  0  0  0  0  0  0  0  0  0  0  0
   52.9026   12.1049   18.5842 C   0  0  0  0  0  0  0  0  0  0  0  0
   47.1280   12.5873   19.3084 C   0  0  0  0  0  0  0  0  0  0  0  0
   49.4655    3.7623   17.9207 C   0  0  0  0  0  0  0  0  0  0  0  0
   49.2078    4.8081   20.0598 C   0  0  0  0  0  0  0  0  0  0  0  0
   46.3784   10.4645   20.1044 C   0  0  0  0  0  0  0  0  0  0  0  0
   53.4564    9.9752   17.6843 C   0  0  0  0  0  0  0  0  0  0  0  0
   46.1521   11.8170   19.9268 C   0  0  0  0  0  0  0  0  0  0  0  0
   53.8598   11.2260   18.1018 C   0  0  0  0  0  0  0  0  0  0  0  0
   50.9583   12.6130   19.7523 H   0  0  0  0  0  0  0  0  0  0  0  0
   49.6477   13.7842   19.7531 H   0  0  0  0  0  0  0  0  0  0  0  0
   48.8205   12.6333   17.5079 H   0  0  0  0  0  0  0  0  0  0  0  0
   50.1095   13.8253   17.5342 H   0  0  0  0  0  0  0  0  0  0  0  0
   48.0142    8.6467   17.7379 H   0  0  0  0  0  0  0  0  0  0  0  0
   49.4184    8.5100   16.7684 H   0  0  0  0  0  0  0  0  0  0  0  0
   49.3515    7.4714   19.6646 H   0  0  0  0  0  0  0  0  0  0  0  0
   50.6531    7.2544   18.5326 H   0  0  0  0  0  0  0  0  0  0  0  0
   51.7461    8.5576   17.3709 H   0  0  0  0  0  0  0  0  0  0  0  0
   47.5754    8.6837   19.8062 H   0  0  0  0  0  0  0  0  0  0  0  0
   47.7909    6.2538   18.0893 H   0  0  0  0  0  0  0  0  0  0  0  0
   49.1053    6.0297   16.9673 H   0  0  0  0  0  0  0  0  0  0  0  0
   51.8954   13.3450   16.2446 H   0  0  0  0  0  0  0  0  0  0  0  0
   48.4468   13.1983   21.5268 H   0  0  0  0  0  0  0  0  0  0  0  0
   47.7789    5.0956   20.2249 H   0  0  0  0  0  0  0  0  0  0  0  0
   49.4526    5.4333   20.7188 H   0  0  0  0  0  0  0  0  0  0  0  0
   48.9014    3.7674   20.4739 H   0  0  0  0  0  0  0  0  0  0  0  0
   51.2924    5.1029   19.0408 H   0  0  0  0  0  0  0  0  0  0  0  0
   50.8701    4.4452   17.4442 H   0  0  0  0  0  0  0  0  0  0  0  0
   50.7559    3.4228   18.8677 H   0  0  0  0  0  0  0  0  0  0  0  0
   46.3412    9.4999   21.6813 H   0  0  0  0  0  0  0  0  0  0  0  0
   53.5124    9.4054   15.9539 H   0  0  0  0  0  0  0  0  0  0  0  0
   46.7723   11.7645   22.5992 H   0  0  0  0  0  0  0  0  0  0  0  0
   53.6006   11.8130   15.3565 H   0  0  0  0  0  0  0  0  0  0  0  0
   50.7115    9.0031   20.5346 H   0  0  0  0  0  0  0  0  0  0  0  0
   49.0036    8.8619   20.7801 H   0  0  0  0  0  0  0  0  0  0  0  0
   49.6813    4.3807   17.1166 H   0  0  0  0  0  0  0  0  0  0  0  0
   48.9693   13.9429   17.8973 H   0  0  0  0  0  0  0  0  0  0  0  0
   46.7220    6.8180   19.5252 H   0  0  0  0  0  0  0  0  0  0  0  0
   49.0038    9.7484   16.2445 H   0  0  0  0  0  0  0  0  0  0  0  0
   45.5558    4.7320   18.5812 H   0  0  0  0  0  0  0  0  0  0  0  0
   48.5425   11.4042   14.3577 H   0  0  0  0  0  0  0  0  0  0  0  0
   52.2616    8.9230   18.9897 H   0  0  0  0  0  0  0  0  0  0  0  0
   50.0128   10.4832   22.1050 H   0  0  0  0  0  0  0  0  0  0  0  0
   52.0137    4.6393   16.5309 H   0  0  0  0  0  0  0  0  0  0  0  0
   49.2829   14.9258   20.0687 H   0  0  0  0  0  0  0  0  0  0  0  0
   50.0963   12.4829   23.4805 H   0  0  0  0  0  0  0  0  0  0  0  0
   54.2226    8.0649   17.8258 H   0  0  0  0  0  0  0  0  0  0  0  0
   49.7312   14.7212   22.4752 H   0  0  0  0  0  0  0  0  0  0  0  0
   54.1130    5.9152   16.5923 H   0  0  0  0  0  0  0  0  0  0  0  0
   48.9904   13.9686   18.2859 H   0  0  0  0  0  0  0  0  0  0  0  0
   49.5389   12.6945   17.2096 H   0  0  0  0  0  0  0  0  0  0  0  0
   51.1319   13.8208   19.0139 H   0  0  0  0  0  0  0  0  0  0  0  0
   50.3994   12.7365   20.1872 H   0  0  0  0  0  0  0  0  0  0  0  0
   48.3472    8.6164   17.5687 H   0  0  0  0  0  0  0  0  0  0  0  0
   49.8894    8.5983   16.8325 H   0  0  0  0  0  0  0  0  0  0  0  0
   49.3471    7.5638   19.6922 H   0  0  0  0  0  0  0  0  0  0  0  0
   50.8694    7.4094   18.8639 H   0  0  0  0  0  0  0  0  0  0  0  0
   51.8968    8.6006   17.4417 H   0  0  0  0  0  0  0  0  0  0  0  0
   47.6893    8.8309   19.8282 H   0  0  0  0  0  0  0  0  0  0  0  0
   49.7086    6.1542   17.0077 H   0  0  0  0  0  0  0  0  0  0  0  0
   48.2193    6.1633   17.9540 H   0  0  0  0  0  0  0  0  0  0  0  0
   53.2278   13.0966   18.8942 H   0  0  0  0  0  0  0  0  0  0  0  0
   46.9522   13.6552   19.1941 H   0  0  0  0  0  0  0  0  0  0  0  0
   49.9416    3.8218   16.9356 H   0  0  0  0  0  0  0  0  0  0  0  0
   48.3857    3.6399   17.7764 H   0  0  0  0  0  0  0  0  0  0  0  0
   49.8557    2.8567   18.3989 H   0  0  0  0  0  0  0  0  0  0  0  0
   48.1120    4.8104   20.0392 H   0  0  0  0  0  0  0  0  0  0  0  0
   49.5390    3.8728   20.5266 H   0  0  0  0  0  0  0  0  0  0  0  0
   49.5467    5.6094   20.7239 H   0  0  0  0  0  0  0  0  0  0  0  0
   45.6382    9.8471   20.6053 H   0  0  0  0  0  0  0  0  0  0  0  0
   54.1828    9.2682   17.2916 H   0  0  0  0  0  0  0  0  0  0  0  0
   45.2331   12.2743   20.2810 H   0  0  0  0  0  0  0  0  0  0  0  0
   54.9031   11.5208   18.0449 H   0  0  0  0  0  0  0  0  0  0  0  0
  2  1  1  0
  3  1  1  0
  4  2  2  0
  5  3  2  0
  6  4  1  0
  7  5  1  0
  8  1  1  0
  9  8  1  0
 10 13  1  0
 11  3  1  0
 12  2  1  0
 13  9  1  0
 14  5  1  0
 15  4  1  0
 16 10  1  0
 17 10  1  0
 18 12  2  0
 19 11  2  0
 20 15  2  0
 21 14  2  0
  6  7  1  0
 18 20  1  0
 19 21  1  0
 23 27  2  0
 24 28  1  0
 25 26  1  0
 26 22  2  0
 27 24  1  0
 28 25  1  0
 29 22  1  0
 30 23  1  0
 31 22  1  0
 32 23  1  0
 33 24  2  0
 34 35  1  0
 35 29  2  0
 36 33  1  0
 37 31  2  0
 38 32  2  0
 39 26  1  0
 40 27  1  0
 41 31  1  0
 42 32  1  0
 43 34  1  0
 44 33  1  0
 45 35  1  0
 46 36  1  0
 47 44  2  0
 48 43  2  0
 49 47  1  0
 50 45  2  0
 25 34  2  0
 48 50  1  0
 30 36  2  0
 46 49  2  0
 52 51  1  0
 53 51  1  0
 54 52  2  0
 55 53  2  0
 56 54  1  0
 57 55  1  0
 58 51  1  0
 59 58  1  0
 60 63  1  0
 61 53  1  0
 62 52  1  0
 63 59  1  0
 64 55  1  0
 65 54  1  0
 66 60  1  0
 67 60  1  0
 68 62  2  0
 69 61  2  0
 70 65  2  0
 71 64  2  0
 56 57  1  0
 68 70  1  0
 69 71  1  0
  6 72  1  0
  6 73  1  0
  7 74  1  0
  7 75  1  0
  8 76  1  0
  8 77  1  0
  9 78  1  0
  9 79  1  0
 11 80  1  0
 12 81  1  0
 13 82  1  0
 13 83  1  0
 14 84  1  0
 15 85  1  0
 16 86  1  0
 16 87  1  0
 16 88  1  0
 17 89  1  0
 17 90  1  0
 17 91  1  0
 18 92  1  0
 19 93  1  0
 20 94  1  0
 21 95  1  0
 28 96  1  0
 28 97  1  0
 29 98  1  0
 30 99  1  0
 39100  1  0
 40101  1  0
 41102  1  0
 42103  1  0
 43104  1  0
 44105  1  0
 45106  1  0
 46107  1  0
 47108  1  0
 48109  1  0
 49110  1  0
 50111  1  0
 56112  1  0
 56113  1  0
 57114  1  0
 57115  1  0
 58116  1  0
 58117  1  0
 59118  1  0
 59119  1  0
 61120  1  0
 62121  1  0
 63122  1  0
 63123  1  0
 64124  1  0
 65125  1  0
 66126  1  0
 66127  1  0
 66128  1  0
 67129  1  0
 67130  1  0
 67131  1  0
 68132  1  0
 69133  1  0
 70134  1  0
 71135  1  0
M  END
> <Uni-Dock RESULT> 
ENERGY=   -5.554  LOWER_BOUND=    2.411  UPPER_BOUND=    5.187
INTER + INTRA:          -5.554
INTER:                  -5.554
INTRA:                   0.000
UNBOUND:                 0.000

$$$$

     RDKit          3D

135142  0  0  0  0  0  0  0  0999 V2000
   49.8734    9.4028   18.5078 N   0  0  0  0  0  0  0  0  0  0  0  0
   50.0287    8.9072   17.1689 C   0  0  0  0  0  0  0  0  0  0  0  0
   49.4583   10.6893   18.9888 C   0  0  0  0  0  0  0  0  0  0  0  0
   49.7610    9.6612   16.0015 C   0  0  0  0  0  0  0  0  0  0  0  0
   49.7082   11.8937   18.3072 C   0  0  0  0  0  0  0  0  0  0  0  0
   49.4351   11.1322   15.9993 C   0  0  0  0  0  0  0  0  0  0  0  0
   50.3337   11.9086   16.9455 C   0  0  0  0  0  0  0  0  0  0  0  0
   50.4586    8.5665   19.5970 C   0  0  0  0  0  0  0  0  0  0  0  0
   49.5056    7.4545   20.0760 C   0  0  0  0  0  0  0  0  0  0  0  0
   49.4568    5.4106   21.6163 N   0  0  0  0  0  0  0  0  0  0  0  0
   48.7713   10.8085   20.2206 C   0  0  0  0  0  0  0  0  0  0  0  0
   50.4272    7.5645   16.9305 C   0  0  0  0  0  0  0  0  0  0  0  0
   50.2280    6.5345   21.0700 C   0  0  0  0  0  0  0  0  0  0  0  0
   49.3427   13.1378   18.8713 C   0  0  0  0  0  0  0  0  0  0  0  0
   49.8192    9.0608   14.7163 C   0  0  0  0  0  0  0  0  0  0  0  0
   49.0134    4.4701   20.5912 C   0  0  0  0  0  0  0  0  0  0  0  0
   48.3372    5.8403   22.4492 C   0  0  0  0  0  0  0  0  0  0  0  0
   50.5084    6.9877   15.6556 C   0  0  0  0  0  0  0  0  0  0  0  0
   48.3991   12.0404   20.7708 C   0  0  0  0  0  0  0  0  0  0  0  0
   50.1886    7.7360   14.5424 C   0  0  0  0  0  0  0  0  0  0  0  0
   48.6970   13.2115   20.0985 C   0  0  0  0  0  0  0  0  0  0  0  0
   50.3113    5.9730   21.0194 C   0  0  0  0  0  0  0  0  0  0  0  0
   51.0892   11.0742   17.6366 C   0  0  0  0  0  0  0  0  0  0  0  0
   49.4948    9.2101   17.5490 C   0  0  0  0  0  0  0  0  0  0  0  0
   49.0820    7.4912   19.5429 C   0  0  0  0  0  0  0  0  0  0  0  0
   50.0325    6.4643   19.7378 C   0  0  0  0  0  0  0  0  0  0  0  0
   50.4857    9.9515   18.2309 C   0  0  0  0  0  0  0  0  0  0  0  0
   48.7980    7.9743   18.1287 C   0  0  0  0  0  0  0  0  0  0  0  0
   49.6270    6.5051   22.1176 C   0  0  0  0  0  0  0  0  0  0  0  0
   50.7100   11.4609   16.3480 C   0  0  0  0  0  0  0  0  0  0  0  0
   51.2960    4.8999   21.3067 C   0  0  0  0  0  0  0  0  0  0  0  0
   52.1337   11.9111   18.2854 C   0  0  0  0  0  0  0  0  0  0  0  0
   49.1200    9.6177   16.2188 C   0  0  0  0  0  0  0  0  0  0  0  0
   48.4063    8.0495   20.6727 C   0  0  0  0  0  0  0  0  0  0  0  0
   48.6860    7.5318   21.9622 C   0  0  0  0  0  0  0  0  0  0  0  0
   49.7418   10.7507   15.6353 C   0  0  0  0  0  0  0  0  0  0  0  0
   51.5405    4.4219   22.3989 O   0  0  0  0  0  0  0  0  0  0  0  0
   52.6889   12.8768   17.7942 O   0  0  0  0  0  0  0  0  0  0  0  0
   50.6614    5.9708   18.6194 O   0  0  0  0  0  0  0  0  0  0  0  0
   50.8530    9.5535   19.4880 O   0  0  0  0  0  0  0  0  0  0  0  0
   51.9444    4.4615   20.2068 O   0  0  0  0  0  0  0  0  0  0  0  0
   52.4429   11.5089   19.5363 O   0  0  0  0  0  0  0  0  0  0  0  0
   47.4702    9.1086   20.5924 C   0  0  0  0  0  0  0  0  0  0  0  0
   48.1532    8.9507   15.4230 C   0  0  0  0  0  0  0  0  0  0  0  0
   48.0277    8.0474   23.0916 C   0  0  0  0  0  0  0  0  0  0  0  0
   49.3981   11.1703   14.3382 C   0  0  0  0  0  0  0  0  0  0  0  0
   47.8193    9.3765   14.1338 C   0  0  0  0  0  0  0  0  0  0  0  0
   46.8270    9.6159   21.7246 C   0  0  0  0  0  0  0  0  0  0  0  0
   48.4429   10.4883   13.5907 C   0  0  0  0  0  0  0  0  0  0  0  0
   47.1020    9.0813   22.9742 C   0  0  0  0  0  0  0  0  0  0  0  0
   49.7494    9.5010   18.4550 N   0  0  0  0  0  0  0  0  0  0  0  0
   50.5309    9.1857   17.2929 C   0  0  0  0  0  0  0  0  0  0  0  0
   48.7726   10.5289   18.6778 C   0  0  0  0  0  0  0  0  0  0  0  0
   50.9674   10.1472   16.3640 C   0  0  0  0  0  0  0  0  0  0  0  0
   48.3688   11.4724   17.7028 C   0  0  0  0  0  0  0  0  0  0  0  0
   50.5372   11.5798   16.4585 C   0  0  0  0  0  0  0  0  0  0  0  0
   49.0234   11.6298   16.3551 C   0  0  0  0  0  0  0  0  0  0  0  0
   50.2082    8.7430   19.6562 C   0  0  0  0  0  0  0  0  0  0  0  0
   49.2791    7.5688   20.0181 C   0  0  0  0  0  0  0  0  0  0  0  0
   48.9628    5.7303   21.7027 N   0  0  0  0  0  0  0  0  0  0  0  0
   48.0948   10.6355   19.9213 C   0  0  0  0  0  0  0  0  0  0  0  0
   50.9279    7.8518   17.0300 C   0  0  0  0  0  0  0  0  0  0  0  0
   49.8728    6.7649   21.1830 C   0  0  0  0  0  0  0  0  0  0  0  0
   47.3059   12.3786   17.9591 C   0  0  0  0  0  0  0  0  0  0  0  0
   51.8020    9.7874   15.2807 C   0  0  0  0  0  0  0  0  0  0  0  0
   49.5139    5.1495   22.9308 C   0  0  0  0  0  0  0  0  0  0  0  0
   48.7112    4.6688   20.7262 C   0  0  0  0  0  0  0  0  0  0  0  0
   51.7426    7.4958   15.9490 C   0  0  0  0  0  0  0  0  0  0  0  0
   47.0650   11.5521   20.1752 C   0  0  0  0  0  0  0  0  0  0  0  0
   52.1920    8.4704   15.0771 C   0  0  0  0  0  0  0  0  0  0  0  0
   46.6571   12.4190   19.1834 C   0  0  0  0  0  0  0  0  0  0  0  0
   48.3669   11.2708   16.2127 H   0  0  0  0  0  0  0  0  0  0  0  0
   49.6047   11.5392   14.9940 H   0  0  0  0  0  0  0  0  0  0  0  0
   51.3579   11.5185   16.9879 H   0  0  0  0  0  0  0  0  0  0  0  0
   50.4123   12.9412   16.5817 H   0  0  0  0  0  0  0  0  0  0  0  0
   51.4212    8.1468   19.2736 H   0  0  0  0  0  0  0  0  0  0  0  0
   50.7505    9.1803   20.4621 H   0  0  0  0  0  0  0  0  0  0  0  0
   49.1282    6.8732   19.2306 H   0  0  0  0  0  0  0  0  0  0  0  0
   48.6205    7.8884   20.5475 H   0  0  0  0  0  0  0  0  0  0  0  0
   48.4887    9.9299   20.7871 H   0  0  0  0  0  0  0  0  0  0  0  0
   50.6845    6.8910   17.7400 H   0  0  0  0  0  0  0  0  0  0  0  0
   51.1272    6.1265   20.5892 H   0  0  0  0  0  0  0  0  0  0  0  0
   50.6026    7.1369   21.9085 H   0  0  0  0  0  0  0  0  0  0  0  0
   49.5522   14.0628   18.3381 H   0  0  0  0  0  0  0  0  0  0  0  0
   49.5864    9.6484   13.8294 H   0  0  0  0  0  0  0  0  0  0  0  0
   49.8518    4.1571   19.9589 H   0  0  0  0  0  0  0  0  0  0  0  0
   48.2301    4.8845   19.9469 H   0  0  0  0  0  0  0  0  0  0  0  0
   48.6183    3.5600   21.0578 H   0  0  0  0  0  0  0  0  0  0  0  0
   47.5512    6.3432   21.8759 H   0  0  0  0  0  0  0  0  0  0  0  0
   48.6789    6.5186   23.2388 H   0  0  0  0  0  0  0  0  0  0  0  0
   47.8869    4.9771   22.9537 H   0  0  0  0  0  0  0  0  0  0  0  0
   50.8111    5.9497   15.5483 H   0  0  0  0  0  0  0  0  0  0  0  0
   47.8754   12.0739   21.7221 H   0  0  0  0  0  0  0  0  0  0  0  0
   50.2359    7.3013   13.5486 H   0  0  0  0  0  0  0  0  0  0  0  0
   48.4159   14.1744   20.5152 H   0  0  0  0  0  0  0  0  0  0  0  0
   47.7130    8.1301   18.0601 H   0  0  0  0  0  0  0  0  0  0  0  0
   48.9913    7.1412   17.4395 H   0  0  0  0  0  0  0  0  0  0  0  0
   49.8398    6.1171   23.1133 H   0  0  0  0  0  0  0  0  0  0  0  0
   51.1850   12.3299   15.8923 H   0  0  0  0  0  0  0  0  0  0  0  0
   51.3201    5.3066   18.9120 H   0  0  0  0  0  0  0  0  0  0  0  0
   51.5289   10.1709   19.8352 H   0  0  0  0  0  0  0  0  0  0  0  0
   52.5453    3.7722   20.5695 H   0  0  0  0  0  0  0  0  0  0  0  0
   53.1273   12.1605   19.8107 H   0  0  0  0  0  0  0  0  0  0  0  0
   47.2355    9.5720   19.6377 H   0  0  0  0  0  0  0  0  0  0  0  0
   47.6365    8.0682   15.7939 H   0  0  0  0  0  0  0  0  0  0  0  0
   48.2362    7.6470   24.0817 H   0  0  0  0  0  0  0  0  0  0  0  0
   49.8799   12.0399   13.8942 H   0  0  0  0  0  0  0  0  0  0  0  0
   47.0743    8.8328   13.5585 H   0  0  0  0  0  0  0  0  0  0  0  0
   46.1156   10.4311   21.6237 H   0  0  0  0  0  0  0  0  0  0  0  0
   48.1913   10.8241   12.5886 H   0  0  0  0  0  0  0  0  0  0  0  0
   46.6052    9.4714   23.8584 H   0  0  0  0  0  0  0  0  0  0  0  0
   50.9623   12.1535   15.6250 H   0  0  0  0  0  0  0  0  0  0  0  0
   50.9248   12.0383   17.3765 H   0  0  0  0  0  0  0  0  0  0  0  0
   48.7649   12.6128   15.9390 H   0  0  0  0  0  0  0  0  0  0  0  0
   48.6161   10.8839   15.6605 H   0  0  0  0  0  0  0  0  0  0  0  0
   51.2299    8.3615   19.5139 H   0  0  0  0  0  0  0  0  0  0  0  0
   50.3335    9.4195   20.5128 H   0  0  0  0  0  0  0  0  0  0  0  0
   49.1284    6.9238   19.1483 H   0  0  0  0  0  0  0  0  0  0  0  0
   48.2812    7.9225   20.2939 H   0  0  0  0  0  0  0  0  0  0  0  0
   48.3301    9.9907   20.7602 H   0  0  0  0  0  0  0  0  0  0  0  0
   50.5955    7.0368   17.6628 H   0  0  0  0  0  0  0  0  0  0  0  0
   50.0920    7.4734   21.9932 H   0  0  0  0  0  0  0  0  0  0  0  0
   50.8307    6.3219   20.8789 H   0  0  0  0  0  0  0  0  0  0  0  0
   46.9893   13.0795   17.1884 H   0  0  0  0  0  0  0  0  0  0  0  0
   52.1406   10.5446   14.5761 H   0  0  0  0  0  0  0  0  0  0  0  0
   49.6510    5.9221   23.6957 H   0  0  0  0  0  0  0  0  0  0  0  0
   50.4784    4.6579   22.7587 H   0  0  0  0  0  0  0  0  0  0  0  0
   48.8211    4.4138   23.3547 H   0  0  0  0  0  0  0  0  0  0  0  0
   49.6381    4.1955   20.3826 H   0  0  0  0  0  0  0  0  0  0  0  0
   48.0701    3.8914   21.1585 H   0  0  0  0  0  0  0  0  0  0  0  0
   48.1702    5.0513   19.8549 H   0  0  0  0  0  0  0  0  0  0  0  0
   52.0173    6.4560   15.7960 H   0  0  0  0  0  0  0  0  0  0  0  0
   46.5820   11.5677   21.1490 H   0  0  0  0  0  0  0  0  0  0  0  0
   52.8261    8.2084   14.2354 H   0  0  0  0  0  0  0  0  0  0  0  0
   45.8519   13.1255   19.3598 H   0  0  0  0  0  0  0  0  0  0  0  0
  2  1  1  0
  3  1  1  0
  4  2  2  0
  5  3  2  0
  6  4  1  0
  7  5  1  0
  8  1  1  0
  9  8  1  0
 10 13  1  0
 11  3  1  0
 12  2  1  0
 13  9  1  0
 14  5  1  0
 15  4  1  0
 16 10  1  0
 17 10  1  0
 18 12  2  0
 19 11  2  0
 20 15  2  0
 21 14  2  0
  6  7  1  0
 18 20  1  0
 19 21  1  0
 23 27  2  0
 24 28  1  0
 25 26  1  0
 26 22  2  0
 27 24  1  0
 28 25  1  0
 29 22  1  0
 30 23  1  0
 31 22  1  0
 32 23  1  0
 33 24  2  0
 34 35  1  0
 35 29  2  0
 36 33  1  0
 37 31  2  0
 38 32  2  0
 39 26  1  0
 40 27  1  0
 41 31  1  0
 42 32  1  0
 43 34  1  0
 44 33  1  0
 45 35  1  0
 46 36  1  0
 47 44  2  0
 48 43  2  0
 49 47  1  0
 50 45  2  0
 25 34  2  0
 48 50  1  0
 30 36  2  0
 46 49  2  0
 52 51  1  0
 53 51  1  0
 54 52  2  0
 55 53  2  0
 56 54  1  0
 57 55  1  0
 58 51  1  0
 59 58  1  0
 60 63  1  0
 61 53  1  0
 62 52  1  0
 63 59  1  0
 64 55  1  0
 65 54  1  0
 66 60  1  0
 67 60  1  0
 68 62  2  0
 69 61  2  0
 70 65  2  0
 71 64  2  0
 56 57  1  0
 68 70  1  0
 69 71  1  0
  6 72  1  0
  6 73  1  0
  7 74  1  0
  7 75  1  0
  8 76  1  0
  8 77  1  0
  9 78  1  0
  9 79  1  0
 11 80  1  0
 12 81  1  0
 13 82  1  0
 13 83  1  0
 14 84  1  0
 15 85  1  0
 16 86  1  0
 16 87  1  0
 16 88  1  0
 17 89  1  0
 17 90  1  0
 17 91  1  0
 18 92  1  0
 19 93  1  0
 20 94  1  0
 21 95  1  0
 28 96  1  0
 28 97  1  0
 29 98  1  0
 30 99  1  0
 39100  1  0
 40101  1  0
 41102  1  0
 42103  1  0
 43104  1  0
 44105  1  0
 45106  1  0
 46107  1  0
 47108  1  0
 48109  1  0
 49110  1  0
 50111  1  0
 56112  1  0
 56113  1  0
 57114  1  0
 57115  1  0
 58116  1  0
 58117  1  0
 59118  1  0
 59119  1  0
 61120  1  0
 62121  1  0
 63122  1  0
 63123  1  0
 64124  1  0
 65125  1  0
 66126  1  0
 66127  1  0
 66128  1  0
 67129  1  0
 67130  1  0
 67131  1  0
 68132  1  0
 69133  1  0
 70134  1  0
 71135  1  0
M  END
> <Uni-Dock RESULT> 
ENERGY=   -5.501  LOWER_BOUND=    1.653  UPPER_BOUND=    2.481
INTER + INTRA:          -5.501
INTER:                  -5.501
INTRA:                   0.000
UNBOUND:                 0.000

$$$$
