
     RDKit          3D

135142  0  0  0  0  0  0  0  0999 V2000
   51.2179    5.4464   19.4300 N   0  0  0  0  0  0  0  0  0  0  0  0
   51.2538    4.2300   18.6846 C   0  0  0  0  0  0  0  0  0  0  0  0
   50.0954    6.1553   19.9450 C   0  0  0  0  0  0  0  0  0  0  0  0
   50.1118    3.6082   18.1175 C   0  0  0  0  0  0  0  0  0  0  0  0
   48.9358    6.3927   19.1933 C   0  0  0  0  0  0  0  0  0  0  0  0
   48.7336    4.2298   18.0623 C   0  0  0  0  0  0  0  0  0  0  0  0
   48.7456    5.7402   17.8530 C   0  0  0  0  0  0  0  0  0  0  0  0
   52.4913    6.1977   19.6056 C   0  0  0  0  0  0  0  0  0  0  0  0
   52.9290    6.9311   18.3306 C   0  0  0  0  0  0  0  0  0  0  0  0
   52.7860    9.0951   17.1106 N   0  0  0  0  0  0  0  0  0  0  0  0
   50.1308    6.6767   21.2555 C   0  0  0  0  0  0  0  0  0  0  0  0
   52.4720    3.5168   18.5285 C   0  0  0  0  0  0  0  0  0  0  0  0
   52.1402    8.2374   18.1233 C   0  0  0  0  0  0  0  0  0  0  0  0
   47.9069    7.2030   19.7074 C   0  0  0  0  0  0  0  0  0  0  0  0
   50.2102    2.3255   17.5247 C   0  0  0  0  0  0  0  0  0  0  0  0
   52.4635    8.6593   15.7528 C   0  0  0  0  0  0  0  0  0  0  0  0
   52.3702   10.4886   17.2902 C   0  0  0  0  0  0  0  0  0  0  0  0
   52.5645    2.2670   17.9062 C   0  0  0  0  0  0  0  0  0  0  0  0
   49.1010    7.4662   21.7696 C   0  0  0  0  0  0  0  0  0  0  0  0
   51.4231    1.6577   17.4213 C   0  0  0  0  0  0  0  0  0  0  0  0
   47.9976    7.7534   20.9830 C   0  0  0  0  0  0  0  0  0  0  0  0
   48.4274    4.8649   17.8526 C   0  0  0  0  0  0  0  0  0  0  0  0
   54.2710    6.3611   16.7107 C   0  0  0  0  0  0  0  0  0  0  0  0
   52.6245    6.2425   18.5150 C   0  0  0  0  0  0  0  0  0  0  0  0
   50.3397    5.2619   19.3428 C   0  0  0  0  0  0  0  0  0  0  0  0
   49.8092    4.9582   18.0656 C   0  0  0  0  0  0  0  0  0  0  0  0
   53.6095    5.6381   17.7029 C   0  0  0  0  0  0  0  0  0  0  0  0
   51.8543    5.3931   19.5288 C   0  0  0  0  0  0  0  0  0  0  0  0
   47.5611    5.0373   18.9347 C   0  0  0  0  0  0  0  0  0  0  0  0
   53.9852    7.7135   16.5332 C   0  0  0  0  0  0  0  0  0  0  0  0
   47.7969    4.5908   16.5346 C   0  0  0  0  0  0  0  0  0  0  0  0
   55.2983    5.7214   15.8643 C   0  0  0  0  0  0  0  0  0  0  0  0
   52.3583    7.6402   18.3585 C   0  0  0  0  0  0  0  0  0  0  0  0
   49.4410    5.3795   20.4569 C   0  0  0  0  0  0  0  0  0  0  0  0
   48.0439    5.2759   20.2245 C   0  0  0  0  0  0  0  0  0  0  0  0
   53.0498    8.3608   17.3469 C   0  0  0  0  0  0  0  0  0  0  0  0
   46.6041    4.4662   16.3225 O   0  0  0  0  0  0  0  0  0  0  0  0
   56.1825    4.9680   16.2276 O   0  0  0  0  0  0  0  0  0  0  0  0
   50.6999    4.7345   17.0519 O   0  0  0  0  0  0  0  0  0  0  0  0
   53.8977    4.3057   17.8332 O   0  0  0  0  0  0  0  0  0  0  0  0
   48.6909    4.4862   15.5299 O   0  0  0  0  0  0  0  0  0  0  0  0
   55.1507    6.0773   14.5768 O   0  0  0  0  0  0  0  0  0  0  0  0
   49.8432    5.5841   21.8012 C   0  0  0  0  0  0  0  0  0  0  0  0
   51.4372    8.3717   19.1458 C   0  0  0  0  0  0  0  0  0  0  0  0
   47.1304    5.3984   21.2862 C   0  0  0  0  0  0  0  0  0  0  0  0
   52.7979    9.7318   17.1518 C   0  0  0  0  0  0  0  0  0  0  0  0
   51.1930    9.7330   18.9343 C   0  0  0  0  0  0  0  0  0  0  0  0
   48.9237    5.7013   22.8479 C   0  0  0  0  0  0  0  0  0  0  0  0
   51.8712   10.4145   17.9363 C   0  0  0  0  0  0  0  0  0  0  0  0
   47.5660    5.6089   22.5909 C   0  0  0  0  0  0  0  0  0  0  0  0
   50.4556    5.6708   18.5727 N   0  0  0  0  0  0  0  0  0  0  0  0
   50.6416    4.2925   18.2216 C   0  0  0  0  0  0  0  0  0  0  0  0
   49.5349    6.2882   19.4854 C   0  0  0  0  0  0  0  0  0  0  0  0
   49.5986    3.3488   18.1871 C   0  0  0  0  0  0  0  0  0  0  0  0
   48.5742    5.5865   20.2537 C   0  0  0  0  0  0  0  0  0  0  0  0
   48.2129    3.6927   18.6504 C   0  0  0  0  0  0  0  0  0  0  0  0
   48.2911    4.1134   20.1091 C   0  0  0  0  0  0  0  0  0  0  0  0
   51.1447    6.5791   17.6074 C   0  0  0  0  0  0  0  0  0  0  0  0
   52.4318    7.2041   18.1760 C   0  0  0  0  0  0  0  0  0  0  0  0
   54.2366    8.8713   17.6489 N   0  0  0  0  0  0  0  0  0  0  0  0
   49.5660    7.6898   19.7099 C   0  0  0  0  0  0  0  0  0  0  0  0
   51.9230    3.8170   17.8665 C   0  0  0  0  0  0  0  0  0  0  0  0
   52.9541    8.2907   17.2252 C   0  0  0  0  0  0  0  0  0  0  0  0
   47.7808    6.2584   21.2189 C   0  0  0  0  0  0  0  0  0  0  0  0
   49.8342    2.0288   17.7459 C   0  0  0  0  0  0  0  0  0  0  0  0
   54.7786    9.7146   16.5787 C   0  0  0  0  0  0  0  0  0  0  0  0
   54.1046    9.6687   18.8718 C   0  0  0  0  0  0  0  0  0  0  0  0
   52.1549    2.5029   17.4444 C   0  0  0  0  0  0  0  0  0  0  0  0
   48.7570    8.3511   20.6424 C   0  0  0  0  0  0  0  0  0  0  0  0
   51.1042    1.6076   17.3703 C   0  0  0  0  0  0  0  0  0  0  0  0
   47.8707    7.6282   21.4152 C   0  0  0  0  0  0  0  0  0  0  0  0
   48.1889    3.9403   18.9744 H   0  0  0  0  0  0  0  0  0  0  0  0
   48.1818    3.7951   17.2149 H   0  0  0  0  0  0  0  0  0  0  0  0
   49.5133    6.0658   17.1428 H   0  0  0  0  0  0  0  0  0  0  0  0
   47.7772    6.0386   17.4318 H   0  0  0  0  0  0  0  0  0  0  0  0
   52.4369    6.9436   20.4079 H   0  0  0  0  0  0  0  0  0  0  0  0
   53.2874    5.5372   19.9585 H   0  0  0  0  0  0  0  0  0  0  0  0
   52.8597    6.2831   17.4475 H   0  0  0  0  0  0  0  0  0  0  0  0
   53.9967    7.1864   18.4545 H   0  0  0  0  0  0  0  0  0  0  0  0
   50.9695    6.4462   21.9084 H   0  0  0  0  0  0  0  0  0  0  0  0
   53.4156    3.9056   18.9015 H   0  0  0  0  0  0  0  0  0  0  0  0
   52.1168    8.7689   19.0860 H   0  0  0  0  0  0  0  0  0  0  0  0
   51.0971    8.0312   17.8504 H   0  0  0  0  0  0  0  0  0  0  0  0
   47.0153    7.3987   19.1140 H   0  0  0  0  0  0  0  0  0  0  0  0
   49.3182    1.8402   17.1272 H   0  0  0  0  0  0  0  0  0  0  0  0
   51.4024    8.7912   15.5176 H   0  0  0  0  0  0  0  0  0  0  0  0
   53.0476    9.2362   15.0253 H   0  0  0  0  0  0  0  0  0  0  0  0
   52.7199    7.6089   15.5892 H   0  0  0  0  0  0  0  0  0  0  0  0
   52.6691   10.8528   18.2823 H   0  0  0  0  0  0  0  0  0  0  0  0
   52.8672   11.1385   16.5610 H   0  0  0  0  0  0  0  0  0  0  0  0
   51.2883   10.6178   17.1906 H   0  0  0  0  0  0  0  0  0  0  0  0
   53.5275    1.7675   17.8236 H   0  0  0  0  0  0  0  0  0  0  0  0
   49.1708    7.8595   22.7821 H   0  0  0  0  0  0  0  0  0  0  0  0
   51.4699    0.6766   16.9561 H   0  0  0  0  0  0  0  0  0  0  0  0
   47.1929    8.3768   21.3671 H   0  0  0  0  0  0  0  0  0  0  0  0
   52.2408    4.3674   19.5751 H   0  0  0  0  0  0  0  0  0  0  0  0
   52.1088    5.8321   20.4966 H   0  0  0  0  0  0  0  0  0  0  0  0
   46.4872    4.9675   18.7674 H   0  0  0  0  0  0  0  0  0  0  0  0
   54.5057    8.2691   15.7575 H   0  0  0  0  0  0  0  0  0  0  0  0
   50.2040    4.5857   16.2198 H   0  0  0  0  0  0  0  0  0  0  0  0
   54.1618    4.1465   18.7555 H   0  0  0  0  0  0  0  0  0  0  0  0
   48.1201    4.3238   14.7436 H   0  0  0  0  0  0  0  0  0  0  0  0
   55.8229    5.5367   14.1075 H   0  0  0  0  0  0  0  0  0  0  0  0
   50.8926    5.6530   22.0767 H   0  0  0  0  0  0  0  0  0  0  0  0
   50.8827    7.8917   19.9483 H   0  0  0  0  0  0  0  0  0  0  0  0
   46.0597    5.3202   21.1049 H   0  0  0  0  0  0  0  0  0  0  0  0
   53.3253   10.2846   16.3753 H   0  0  0  0  0  0  0  0  0  0  0  0
   50.4711   10.2565   19.5562 H   0  0  0  0  0  0  0  0  0  0  0  0
   49.2767    5.8606   23.8669 H   0  0  0  0  0  0  0  0  0  0  0  0
   51.6850   11.4725   17.7732 H   0  0  0  0  0  0  0  0  0  0  0  0
   46.8481    5.6963   23.3998 H   0  0  0  0  0  0  0  0  0  0  0  0
   47.5656    2.8113   18.5737 H   0  0  0  0  0  0  0  0  0  0  0  0
   47.7693    4.4574   17.9991 H   0  0  0  0  0  0  0  0  0  0  0  0
   47.3112    3.8889   20.5538 H   0  0  0  0  0  0  0  0  0  0  0  0
   49.0271    3.5376   20.6827 H   0  0  0  0  0  0  0  0  0  0  0  0
   50.4485    7.3617   17.2708 H   0  0  0  0  0  0  0  0  0  0  0  0
   51.3881    6.0599   16.6705 H   0  0  0  0  0  0  0  0  0  0  0  0
   53.2090    6.4440   18.3072 H   0  0  0  0  0  0  0  0  0  0  0  0
   52.2557    7.6146   19.1734 H   0  0  0  0  0  0  0  0  0  0  0  0
   50.2409    8.3415   19.1671 H   0  0  0  0  0  0  0  0  0  0  0  0
   52.7919    4.4626   17.9261 H   0  0  0  0  0  0  0  0  0  0  0  0
   52.1934    9.0751   17.0985 H   0  0  0  0  0  0  0  0  0  0  0  0
   53.0897    7.8215   16.2415 H   0  0  0  0  0  0  0  0  0  0  0  0
   47.0675    5.6961   21.8218 H   0  0  0  0  0  0  0  0  0  0  0  0
   49.0179    1.3116   17.7083 H   0  0  0  0  0  0  0  0  0  0  0  0
   54.1133   10.5522   16.3325 H   0  0  0  0  0  0  0  0  0  0  0  0
   55.7544   10.1240   16.8621 H   0  0  0  0  0  0  0  0  0  0  0  0
   54.9435    9.1293   15.6684 H   0  0  0  0  0  0  0  0  0  0  0  0
   53.8235    9.0431   19.7277 H   0  0  0  0  0  0  0  0  0  0  0  0
   53.3610   10.4697   18.7675 H   0  0  0  0  0  0  0  0  0  0  0  0
   55.0625   10.1283   19.1407 H   0  0  0  0  0  0  0  0  0  0  0  0
   53.1609    2.1932   17.1759 H   0  0  0  0  0  0  0  0  0  0  0  0
   48.8422    9.4269   20.7718 H   0  0  0  0  0  0  0  0  0  0  0  0
   51.2689    0.5864   17.0367 H   0  0  0  0  0  0  0  0  0  0  0  0
   47.2430    8.1180   22.1541 H   0  0  0  0  0  0  0  0  0  0  0  0
  2  1  1  0
  3  1  1  0
  4  2  2  0
  5  3  2  0
  6  4  1  0
  7  5  1  0
  8  1  1  0
  9  8  1  0
 10 13  1  0
 11  3  1  0
 12  2  1  0
 13  9  1  0
 14  5  1  0
 15  4  1  0
 16 10  1  0
 17 10  1  0
 18 12  2  0
 19 11  2  0
 20 15  2  0
 21 14  2  0
  6  7  1  0
 18 20  1  0
 19 21  1  0
 23 27  2  0
 24 28  1  0
 25 26  1  0
 26 22  2  0
 27 24  1  0
 28 25  1  0
 29 22  1  0
 30 23  1  0
 31 22  1  0
 32 23  1  0
 33 24  2  0
 34 35  1  0
 35 29  2  0
 36 33  1  0
 37 31  2  0
 38 32  2  0
 39 26  1  0
 40 27  1  0
 41 31  1  0
 42 32  1  0
 43 34  1  0
 44 33  1  0
 45 35  1  0
 46 36  1  0
 47 44  2  0
 48 43  2  0
 49 47  1  0
 50 45  2  0
 25 34  2  0
 48 50  1  0
 30 36  2  0
 46 49  2  0
 52 51  1  0
 53 51  1  0
 54 52  2  0
 55 53  2  0
 56 54  1  0
 57 55  1  0
 58 51  1  0
 59 58  1  0
 60 63  1  0
 61 53  1  0
 62 52  1  0
 63 59  1  0
 64 55  1  0
 65 54  1  0
 66 60  1  0
 67 60  1  0
 68 62  2  0
 69 61  2  0
 70 65  2  0
 71 64  2  0
 56 57  1  0
 68 70  1  0
 69 71  1  0
  6 72  1  0
  6 73  1  0
  7 74  1  0
  7 75  1  0
  8 76  1  0
  8 77  1  0
  9 78  1  0
  9 79  1  0
 11 80  1  0
 12 81  1  0
 13 82  1  0
 13 83  1  0
 14 84  1  0
 15 85  1  0
 16 86  1  0
 16 87  1  0
 16 88  1  0
 17 89  1  0
 17 90  1  0
 17 91  1  0
 18 92  1  0
 19 93  1  0
 20 94  1  0
 21 95  1  0
 28 96  1  0
 28 97  1  0
 29 98  1  0
 30 99  1  0
 39100  1  0
 40101  1  0
 41102  1  0
 42103  1  0
 43104  1  0
 44105  1  0
 45106  1  0
 46107  1  0
 47108  1  0
 48109  1  0
 49110  1  0
 50111  1  0
 56112  1  0
 56113  1  0
 57114  1  0
 57115  1  0
 58116  1  0
 58117  1  0
 59118  1  0
 59119  1  0
 61120  1  0
 62121  1  0
 63122  1  0
 63123  1  0
 64124  1  0
 65125  1  0
 66126  1  0
 66127  1  0
 66128  1  0
 67129  1  0
 67130  1  0
 67131  1  0
 68132  1  0
 69133  1  0
 70134  1  0
 71135  1  0
M  END
> <Uni-Dock RESULT> 
ENERGY=   -7.383  LOWER_BOUND=    0.000  UPPER_BOUND=    0.000
INTER + INTRA:          -7.383
INTER:                  -7.383
INTRA:                   0.000
UNBOUND:                 0.000

$$$$

     RDKit          3D

135142  0  0  0  0  0  0  0  0999 V2000
   44.2367   11.8286    8.8483 N   0  0  0  0  0  0  0  0  0  0  0  0
   44.5731   11.1069   10.0325 C   0  0  0  0  0  0  0  0  0  0  0  0
   44.9589   12.8626    8.1870 C   0  0  0  0  0  0  0  0  0  0  0  0
   45.6268   11.4647   10.9124 C   0  0  0  0  0  0  0  0  0  0  0  0
   45.5445   13.9379    8.8702 C   0  0  0  0  0  0  0  0  0  0  0  0
   46.4195   12.7504   10.8253 C   0  0  0  0  0  0  0  0  0  0  0  0
   45.5981   13.9525   10.3719 C   0  0  0  0  0  0  0  0  0  0  0  0
   42.8892   11.6099    8.2540 C   0  0  0  0  0  0  0  0  0  0  0  0
   41.7703   12.2938    9.0512 C   0  0  0  0  0  0  0  0  0  0  0  0
   40.4332   14.3833    9.2454 N   0  0  0  0  0  0  0  0  0  0  0  0
   45.0860   12.8468    6.7819 C   0  0  0  0  0  0  0  0  0  0  0  0
   43.8887    9.9072   10.3635 C   0  0  0  0  0  0  0  0  0  0  0  0
   41.6993   13.8037    8.7565 C   0  0  0  0  0  0  0  0  0  0  0  0
   46.1404   14.9949    8.1580 C   0  0  0  0  0  0  0  0  0  0  0  0
   45.9934   10.6108   11.9815 C   0  0  0  0  0  0  0  0  0  0  0  0
   40.4815   14.6441   10.6832 C   0  0  0  0  0  0  0  0  0  0  0  0
   40.1388   15.6281    8.5307 C   0  0  0  0  0  0  0  0  0  0  0  0
   44.2346    9.0906   11.4458 C   0  0  0  0  0  0  0  0  0  0  0  0
   45.6930   13.8886    6.0787 C   0  0  0  0  0  0  0  0  0  0  0  0
   45.3075    9.4331   12.2462 C   0  0  0  0  0  0  0  0  0  0  0  0
   46.1974   14.9797    6.7671 C   0  0  0  0  0  0  0  0  0  0  0  0
   46.2880   13.4722   10.7729 C   0  0  0  0  0  0  0  0  0  0  0  0
   40.4533   11.5681   10.6287 C   0  0  0  0  0  0  0  0  0  0  0  0
   42.4152   11.8922    9.2053 C   0  0  0  0  0  0  0  0  0  0  0  0
   45.0120   12.2226    9.0859 C   0  0  0  0  0  0  0  0  0  0  0  0
   45.1892   12.6801   10.4142 C   0  0  0  0  0  0  0  0  0  0  0  0
   41.6592   11.1058   10.1026 C   0  0  0  0  0  0  0  0  0  0  0  0
   43.7785   11.3905    8.7233 C   0  0  0  0  0  0  0  0  0  0  0  0
   47.2462   13.7814    9.8048 C   0  0  0  0  0  0  0  0  0  0  0  0
   39.9613   12.8130   10.2413 C   0  0  0  0  0  0  0  0  0  0  0  0
   46.5186   14.0221   12.1347 C   0  0  0  0  0  0  0  0  0  0  0  0
   39.6696   10.7406   11.5680 C   0  0  0  0  0  0  0  0  0  0  0  0
   41.8916   13.1540    8.7779 C   0  0  0  0  0  0  0  0  0  0  0  0
   46.0337   12.4995    8.1152 C   0  0  0  0  0  0  0  0  0  0  0  0
   47.1438   13.2984    8.4972 C   0  0  0  0  0  0  0  0  0  0  0  0
   40.6564   13.6028    9.3197 C   0  0  0  0  0  0  0  0  0  0  0  0
   47.4799   14.6809   12.4884 O   0  0  0  0  0  0  0  0  0  0  0  0
   39.4396    9.5488   11.4789 O   0  0  0  0  0  0  0  0  0  0  0  0
   44.2581   12.2973   11.3403 O   0  0  0  0  0  0  0  0  0  0  0  0
   42.1245    9.8887   10.5238 O   0  0  0  0  0  0  0  0  0  0  0  0
   45.5289   13.7253   13.0018 O   0  0  0  0  0  0  0  0  0  0  0  0
   39.2076   11.4803   12.5905 O   0  0  0  0  0  0  0  0  0  0  0  0
   46.0306   12.0211    6.7803 C   0  0  0  0  0  0  0  0  0  0  0  0
   42.5252   14.0073    7.8431 C   0  0  0  0  0  0  0  0  0  0  0  0
   48.1585   13.6031    7.5729 C   0  0  0  0  0  0  0  0  0  0  0  0
   40.1222   14.8475    8.9371 C   0  0  0  0  0  0  0  0  0  0  0  0
   41.9843   15.2451    7.4786 C   0  0  0  0  0  0  0  0  0  0  0  0
   47.0481   12.3297    5.8724 C   0  0  0  0  0  0  0  0  0  0  0  0
   40.7835   15.6678    8.0261 C   0  0  0  0  0  0  0  0  0  0  0  0
   48.1130   13.1217    6.2681 C   0  0  0  0  0  0  0  0  0  0  0  0
   44.4734   12.6958    9.5956 N   0  0  0  0  0  0  0  0  0  0  0  0
   44.8924   11.6466   10.4794 C   0  0  0  0  0  0  0  0  0  0  0  0
   45.2026   13.4248    8.5962 C   0  0  0  0  0  0  0  0  0  0  0  0
   46.1927   11.5439   11.0069 C   0  0  0  0  0  0  0  0  0  0  0  0
   46.5699   13.2187    8.2903 C   0  0  0  0  0  0  0  0  0  0  0  0
   47.2921   12.4684   10.5713 C   0  0  0  0  0  0  0  0  0  0  0  0
   47.4810   12.3073    9.0715 C   0  0  0  0  0  0  0  0  0  0  0  0
   43.1621   13.2746   10.0164 C   0  0  0  0  0  0  0  0  0  0  0  0
   41.9898   12.8349    9.1205 C   0  0  0  0  0  0  0  0  0  0  0  0
   39.5377   13.2136    8.7218 N   0  0  0  0  0  0  0  0  0  0  0  0
   44.5562   14.4038    7.7965 C   0  0  0  0  0  0  0  0  0  0  0  0
   43.9767   10.6502   10.8831 C   0  0  0  0  0  0  0  0  0  0  0  0
   40.7302   13.6412    9.4679 C   0  0  0  0  0  0  0  0  0  0  0  0
   47.1855   13.8998    7.2088 C   0  0  0  0  0  0  0  0  0  0  0  0
   46.5143   10.5372   11.9427 C   0  0  0  0  0  0  0  0  0  0  0  0
   38.3447   13.8595    9.2782 C   0  0  0  0  0  0  0  0  0  0  0  0
   39.6366   13.5305    7.2941 C   0  0  0  0  0  0  0  0  0  0  0  0
   44.3045    9.6444   11.7994 C   0  0  0  0  0  0  0  0  0  0  0  0
   45.1794   15.0958    6.7504 C   0  0  0  0  0  0  0  0  0  0  0  0
   45.5746    9.5947   12.3428 C   0  0  0  0  0  0  0  0  0  0  0  0
   46.4984   14.8291    6.4425 C   0  0  0  0  0  0  0  0  0  0  0  0
   47.2915   12.5736   10.1766 H   0  0  0  0  0  0  0  0  0  0  0  0
   46.8141   12.9924   11.8239 H   0  0  0  0  0  0  0  0  0  0  0  0
   44.5912   13.9674   10.8030 H   0  0  0  0  0  0  0  0  0  0  0  0
   46.1028   14.8649   10.7140 H   0  0  0  0  0  0  0  0  0  0  0  0
   42.8181   11.9683    7.2199 H   0  0  0  0  0  0  0  0  0  0  0  0
   42.6814   10.5426    8.1431 H   0  0  0  0  0  0  0  0  0  0  0  0
   41.8679   12.1054   10.1281 H   0  0  0  0  0  0  0  0  0  0  0  0
   40.8180   11.8330    8.7330 H   0  0  0  0  0  0  0  0  0  0  0  0
   44.7260   11.9919    6.2143 H   0  0  0  0  0  0  0  0  0  0  0  0
   43.0496    9.5452    9.7757 H   0  0  0  0  0  0  0  0  0  0  0  0
   41.7594   13.9335    7.6659 H   0  0  0  0  0  0  0  0  0  0  0  0
   42.5604   14.3320    9.1858 H   0  0  0  0  0  0  0  0  0  0  0  0
   46.5792   15.8363    8.6918 H   0  0  0  0  0  0  0  0  0  0  0  0
   46.8305   10.8771   12.6275 H   0  0  0  0  0  0  0  0  0  0  0  0
   41.2021   15.4283   10.9368 H   0  0  0  0  0  0  0  0  0  0  0  0
   39.4939   14.9613   11.0400 H   0  0  0  0  0  0  0  0  0  0  0  0
   40.7406   13.7472   11.2526 H   0  0  0  0  0  0  0  0  0  0  0  0
   40.0296   15.4357    7.4549 H   0  0  0  0  0  0  0  0  0  0  0  0
   39.1852   16.0516    8.8662 H   0  0  0  0  0  0  0  0  0  0  0  0
   40.9204   16.3818    8.6653 H   0  0  0  0  0  0  0  0  0  0  0  0
   43.6747    8.1790   11.6434 H   0  0  0  0  0  0  0  0  0  0  0  0
   45.7616   13.8447    4.9933 H   0  0  0  0  0  0  0  0  0  0  0  0
   45.6072    8.8000   13.0772 H   0  0  0  0  0  0  0  0  0  0  0  0
   46.6629   15.8039    6.2308 H   0  0  0  0  0  0  0  0  0  0  0  0
   43.9862   10.3745    9.0811 H   0  0  0  0  0  0  0  0  0  0  0  0
   43.6607   11.2878    7.6417 H   0  0  0  0  0  0  0  0  0  0  0  0
   48.0983   14.3996   10.0840 H   0  0  0  0  0  0  0  0  0  0  0  0
   39.0205   13.1651   10.6564 H   0  0  0  0  0  0  0  0  0  0  0  0
   44.4711   12.7196   12.1987 H   0  0  0  0  0  0  0  0  0  0  0  0
   42.2800    9.3400    9.7362 H   0  0  0  0  0  0  0  0  0  0  0  0
   45.8238   14.1668   13.8316 H   0  0  0  0  0  0  0  0  0  0  0  0
   38.7817   10.8210   13.1807 H   0  0  0  0  0  0  0  0  0  0  0  0
   45.2330   11.3841    6.4063 H   0  0  0  0  0  0  0  0  0  0  0  0
   43.4646   13.7243    7.3749 H   0  0  0  0  0  0  0  0  0  0  0  0
   49.0077   14.2173    7.8680 H   0  0  0  0  0  0  0  0  0  0  0  0
   39.1769   15.1936    9.3536 H   0  0  0  0  0  0  0  0  0  0  0  0
   42.5071   15.8745    6.7628 H   0  0  0  0  0  0  0  0  0  0  0  0
   47.0046   11.9424    4.8543 H   0  0  0  0  0  0  0  0  0  0  0  0
   40.3607   16.6274    7.7413 H   0  0  0  0  0  0  0  0  0  0  0  0
   48.9067   13.3620    5.5685 H   0  0  0  0  0  0  0  0  0  0  0  0
   48.2277   12.1967   11.0739 H   0  0  0  0  0  0  0  0  0  0  0  0
   47.0687   13.4999   10.8745 H   0  0  0  0  0  0  0  0  0  0  0  0
   48.5262   12.5712    8.8564 H   0  0  0  0  0  0  0  0  0  0  0  0
   47.3496   11.2733    8.7313 H   0  0  0  0  0  0  0  0  0  0  0  0
   43.2338   14.3719   10.0517 H   0  0  0  0  0  0  0  0  0  0  0  0
   42.9257   13.0192   11.0582 H   0  0  0  0  0  0  0  0  0  0  0  0
   41.7765   11.7690    9.2532 H   0  0  0  0  0  0  0  0  0  0  0  0
   42.2443   12.9508    8.0640 H   0  0  0  0  0  0  0  0  0  0  0  0
   43.5164   14.6701    7.9469 H   0  0  0  0  0  0  0  0  0  0  0  0
   42.9726   10.6199   10.4754 H   0  0  0  0  0  0  0  0  0  0  0  0
   40.9194   14.7145    9.3194 H   0  0  0  0  0  0  0  0  0  0  0  0
   40.5417   13.5001   10.5407 H   0  0  0  0  0  0  0  0  0  0  0  0
   48.2314   13.7057    6.9699 H   0  0  0  0  0  0  0  0  0  0  0  0
   47.5181   10.4762   12.3559 H   0  0  0  0  0  0  0  0  0  0  0  0
   38.3927   14.9537    9.2060 H   0  0  0  0  0  0  0  0  0  0  0  0
   37.4411   13.5212    8.7594 H   0  0  0  0  0  0  0  0  0  0  0  0
   38.2129   13.5914   10.3314 H   0  0  0  0  0  0  0  0  0  0  0  0
   40.4433   12.9628    6.8143 H   0  0  0  0  0  0  0  0  0  0  0  0
   39.8109   14.5998    7.1167 H   0  0  0  0  0  0  0  0  0  0  0  0
   38.7183   13.2450    6.7686 H   0  0  0  0  0  0  0  0  0  0  0  0
   43.5573    8.9075   12.0801 H   0  0  0  0  0  0  0  0  0  0  0  0
   44.6201   15.8245    6.1696 H   0  0  0  0  0  0  0  0  0  0  0  0
   45.8401    8.8237   13.0613 H   0  0  0  0  0  0  0  0  0  0  0  0
   46.9983   15.3437    5.6269 H   0  0  0  0  0  0  0  0  0  0  0  0
  2  1  1  0
  3  1  1  0
  4  2  2  0
  5  3  2  0
  6  4  1  0
  7  5  1  0
  8  1  1  0
  9  8  1  0
 10 13  1  0
 11  3  1  0
 12  2  1  0
 13  9  1  0
 14  5  1  0
 15  4  1  0
 16 10  1  0
 17 10  1  0
 18 12  2  0
 19 11  2  0
 20 15  2  0
 21 14  2  0
  6  7  1  0
 18 20  1  0
 19 21  1  0
 23 27  2  0
 24 28  1  0
 25 26  1  0
 26 22  2  0
 27 24  1  0
 28 25  1  0
 29 22  1  0
 30 23  1  0
 31 22  1  0
 32 23  1  0
 33 24  2  0
 34 35  1  0
 35 29  2  0
 36 33  1  0
 37 31  2  0
 38 32  2  0
 39 26  1  0
 40 27  1  0
 41 31  1  0
 42 32  1  0
 43 34  1  0
 44 33  1  0
 45 35  1  0
 46 36  1  0
 47 44  2  0
 48 43  2  0
 49 47  1  0
 50 45  2  0
 25 34  2  0
 48 50  1  0
 30 36  2  0
 46 49  2  0
 52 51  1  0
 53 51  1  0
 54 52  2  0
 55 53  2  0
 56 54  1  0
 57 55  1  0
 58 51  1  0
 59 58  1  0
 60 63  1  0
 61 53  1  0
 62 52  1  0
 63 59  1  0
 64 55  1  0
 65 54  1  0
 66 60  1  0
 67 60  1  0
 68 62  2  0
 69 61  2  0
 70 65  2  0
 71 64  2  0
 56 57  1  0
 68 70  1  0
 69 71  1  0
  6 72  1  0
  6 73  1  0
  7 74  1  0
  7 75  1  0
  8 76  1  0
  8 77  1  0
  9 78  1  0
  9 79  1  0
 11 80  1  0
 12 81  1  0
 13 82  1  0
 13 83  1  0
 14 84  1  0
 15 85  1  0
 16 86  1  0
 16 87  1  0
 16 88  1  0
 17 89  1  0
 17 90  1  0
 17 91  1  0
 18 92  1  0
 19 93  1  0
 20 94  1  0
 21 95  1  0
 28 96  1  0
 28 97  1  0
 29 98  1  0
 30 99  1  0
 39100  1  0
 40101  1  0
 41102  1  0
 42103  1  0
 43104  1  0
 44105  1  0
 45106  1  0
 46107  1  0
 47108  1  0
 48109  1  0
 49110  1  0
 50111  1  0
 56112  1  0
 56113  1  0
 57114  1  0
 57115  1  0
 58116  1  0
 58117  1  0
 59118  1  0
 59119  1  0
 61120  1  0
 62121  1  0
 63122  1  0
 63123  1  0
 64124  1  0
 65125  1  0
 66126  1  0
 66127  1  0
 66128  1  0
 67129  1  0
 67130  1  0
 67131  1  0
 68132  1  0
 69133  1  0
 70134  1  0
 71135  1  0
M  END
> <Uni-Dock RESULT> 
ENERGY=   -7.342  LOWER_BOUND=   11.490  UPPER_BOUND=   14.528
INTER + INTRA:          -7.342
INTER:                  -7.342
INTRA:                   0.000
UNBOUND:                 0.000

$$$$

     RDKit          3D

135142  0  0  0  0  0  0  0  0999 V2000
   48.0072    7.7301   19.6852 N   0  0  0  0  0  0  0  0  0  0  0  0
   47.8343    7.8750   21.0942 C   0  0  0  0  0  0  0  0  0  0  0  0
   48.6375    6.6806   18.9576 C   0  0  0  0  0  0  0  0  0  0  0  0
   48.4826    7.0684   22.0645 C   0  0  0  0  0  0  0  0  0  0  0  0
   49.8741    6.1340   19.3287 C   0  0  0  0  0  0  0  0  0  0  0  0
   49.5787    6.0712   21.7592 C   0  0  0  0  0  0  0  0  0  0  0  0
   50.5140    6.5067   20.6364 C   0  0  0  0  0  0  0  0  0  0  0  0
   47.6172    8.8704   18.8109 C   0  0  0  0  0  0  0  0  0  0  0  0
   48.6191   10.0317   18.8670 C   0  0  0  0  0  0  0  0  0  0  0  0
   50.6524   10.9816   17.7927 N   0  0  0  0  0  0  0  0  0  0  0  0
   48.0293    6.1652   17.7935 C   0  0  0  0  0  0  0  0  0  0  0  0
   46.9138    8.8241   21.6129 C   0  0  0  0  0  0  0  0  0  0  0  0
   49.8682    9.7507   18.0112 C   0  0  0  0  0  0  0  0  0  0  0  0
   50.5093    5.1852   18.5067 C   0  0  0  0  0  0  0  0  0  0  0  0
   48.1403    7.1753   23.4349 C   0  0  0  0  0  0  0  0  0  0  0  0
   51.4892   11.2979   18.9491 C   0  0  0  0  0  0  0  0  0  0  0  0
   51.4948   10.8386   16.6023 C   0  0  0  0  0  0  0  0  0  0  0  0
   46.6117    8.9479   22.9735 C   0  0  0  0  0  0  0  0  0  0  0  0
   48.6539    5.2111   16.9886 C   0  0  0  0  0  0  0  0  0  0  0  0
   47.2120    8.1033   23.8875 C   0  0  0  0  0  0  0  0  0  0  0  0
   49.9105    4.7397   17.3314 C   0  0  0  0  0  0  0  0  0  0  0  0
   50.2171    6.0540   21.3942 C   0  0  0  0  0  0  0  0  0  0  0  0
   48.6774   11.8477   20.0705 C   0  0  0  0  0  0  0  0  0  0  0  0
   48.2919    9.5375   19.3668 C   0  0  0  0  0  0  0  0  0  0  0  0
   48.4313    6.9975   19.9956 C   0  0  0  0  0  0  0  0  0  0  0  0
   49.3950    7.1270   21.0249 C   0  0  0  0  0  0  0  0  0  0  0  0
   47.9865   10.6425   20.1921 C   0  0  0  0  0  0  0  0  0  0  0  0
   47.5770    8.2034   19.5936 C   0  0  0  0  0  0  0  0  0  0  0  0
   50.0513    4.8219   20.7573 C   0  0  0  0  0  0  0  0  0  0  0  0
   49.6653   11.9838   19.0970 C   0  0  0  0  0  0  0  0  0  0  0  0
   51.2764    6.1263   22.4346 C   0  0  0  0  0  0  0  0  0  0  0  0
   48.3535   12.9977   20.9385 C   0  0  0  0  0  0  0  0  0  0  0  0
   49.2796    9.6892   18.3420 C   0  0  0  0  0  0  0  0  0  0  0  0
   48.2324    5.7105   19.3899 C   0  0  0  0  0  0  0  0  0  0  0  0
   49.0699    4.6323   19.7804 C   0  0  0  0  0  0  0  0  0  0  0  0
   49.9662   10.9288   18.2294 C   0  0  0  0  0  0  0  0  0  0  0  0
   51.9812    5.2049   22.8053 O   0  0  0  0  0  0  0  0  0  0  0  0
   47.2449   13.3981   21.2419 O   0  0  0  0  0  0  0  0  0  0  0  0
   49.4753    8.3344   21.6626 O   0  0  0  0  0  0  0  0  0  0  0  0
   47.0392   10.5363   21.1752 O   0  0  0  0  0  0  0  0  0  0  0  0
   51.4124    7.3572   22.9692 O   0  0  0  0  0  0  0  0  0  0  0  0
   49.4724   13.5938   21.3847 O   0  0  0  0  0  0  0  0  0  0  0  0
   47.2395    5.4188   18.4204 C   0  0  0  0  0  0  0  0  0  0  0  0
   49.6352    8.6773   17.4183 C   0  0  0  0  0  0  0  0  0  0  0  0
   48.9160    3.3602   19.2017 C   0  0  0  0  0  0  0  0  0  0  0  0
   50.9576   11.1061   17.2462 C   0  0  0  0  0  0  0  0  0  0  0  0
   50.6283    8.8672   16.4512 C   0  0  0  0  0  0  0  0  0  0  0  0
   47.0959    4.1479   17.8553 C   0  0  0  0  0  0  0  0  0  0  0  0
   51.2921   10.0806   16.3648 C   0  0  0  0  0  0  0  0  0  0  0  0
   47.9348    3.1174   18.2454 C   0  0  0  0  0  0  0  0  0  0  0  0
   49.0967    7.5670   20.0761 N   0  0  0  0  0  0  0  0  0  0  0  0
   48.4974    7.6062   21.3787 C   0  0  0  0  0  0  0  0  0  0  0  0
   49.3085    6.4684   19.1759 C   0  0  0  0  0  0  0  0  0  0  0  0
   48.5700    6.5477   22.3029 C   0  0  0  0  0  0  0  0  0  0  0  0
   48.9353    5.1287   19.4428 C   0  0  0  0  0  0  0  0  0  0  0  0
   49.1794    5.2258   21.9365 C   0  0  0  0  0  0  0  0  0  0  0  0
   48.3971    4.6507   20.7667 C   0  0  0  0  0  0  0  0  0  0  0  0
   49.8538    8.8213   19.7841 C   0  0  0  0  0  0  0  0  0  0  0  0
   49.1295    9.7496   18.7922 C   0  0  0  0  0  0  0  0  0  0  0  0
   49.4102   11.8822   17.4929 N   0  0  0  0  0  0  0  0  0  0  0  0
   49.8890    6.6798   17.8975 C   0  0  0  0  0  0  0  0  0  0  0  0
   47.8017    8.7584   21.8058 C   0  0  0  0  0  0  0  0  0  0  0  0
   50.0599   10.8945   18.3669 C   0  0  0  0  0  0  0  0  0  0  0  0
   49.0740    4.1223   18.4524 C   0  0  0  0  0  0  0  0  0  0  0  0
   48.0351    6.6860   23.6018 C   0  0  0  0  0  0  0  0  0  0  0  0
   50.2799   13.0517   17.3313 C   0  0  0  0  0  0  0  0  0  0  0  0
   49.0955   11.3287   16.1726 C   0  0  0  0  0  0  0  0  0  0  0  0
   47.2592    8.8853   23.0896 C   0  0  0  0  0  0  0  0  0  0  0  0
   50.0521    5.6745   16.9362 C   0  0  0  0  0  0  0  0  0  0  0  0
   47.3877    7.8505   23.9972 C   0  0  0  0  0  0  0  0  0  0  0  0
   49.6252    4.3903   17.2086 C   0  0  0  0  0  0  0  0  0  0  0  0
   49.1095    5.0960   21.5555 H   0  0  0  0  0  0  0  0  0  0  0  0
   50.1996    5.9399   22.6584 H   0  0  0  0  0  0  0  0  0  0  0  0
   50.7509    7.5756   20.6698 H   0  0  0  0  0  0  0  0  0  0  0  0
   51.4635    5.9680   20.7490 H   0  0  0  0  0  0  0  0  0  0  0  0
   47.5122    8.5815   17.7581 H   0  0  0  0  0  0  0  0  0  0  0  0
   46.6115    9.2217   19.0551 H   0  0  0  0  0  0  0  0  0  0  0  0
   48.8950   10.2779   19.9004 H   0  0  0  0  0  0  0  0  0  0  0  0
   48.1082   10.9199   18.4541 H   0  0  0  0  0  0  0  0  0  0  0  0
   47.0314    6.4934   17.5121 H   0  0  0  0  0  0  0  0  0  0  0  0
   46.3749    9.5120   20.9671 H   0  0  0  0  0  0  0  0  0  0  0  0
   49.5265    9.3621   17.0406 H   0  0  0  0  0  0  0  0  0  0  0  0
   50.4906    8.9680   18.4639 H   0  0  0  0  0  0  0  0  0  0  0  0
   51.4774    4.7754   18.7900 H   0  0  0  0  0  0  0  0  0  0  0  0
   48.6168    6.5226   24.1670 H   0  0  0  0  0  0  0  0  0  0  0  0
   52.2761   10.5531   19.1059 H   0  0  0  0  0  0  0  0  0  0  0  0
   51.9683   12.2748   18.8091 H   0  0  0  0  0  0  0  0  0  0  0  0
   50.9031   11.3721   19.8693 H   0  0  0  0  0  0  0  0  0  0  0  0
   50.8743   10.6702   15.7118 H   0  0  0  0  0  0  0  0  0  0  0  0
   52.0599   11.7587   16.4144 H   0  0  0  0  0  0  0  0  0  0  0  0
   52.2016   10.0078   16.6881 H   0  0  0  0  0  0  0  0  0  0  0  0
   45.8913    9.6914   23.3079 H   0  0  0  0  0  0  0  0  0  0  0  0
   48.1566    4.8465   16.0917 H   0  0  0  0  0  0  0  0  0  0  0  0
   46.9730    8.1671   24.9458 H   0  0  0  0  0  0  0  0  0  0  0  0
   50.4137    4.0044   16.7071 H   0  0  0  0  0  0  0  0  0  0  0  0
   46.7964    8.2869   20.3600 H   0  0  0  0  0  0  0  0  0  0  0  0
   47.0359    8.0258   18.6610 H   0  0  0  0  0  0  0  0  0  0  0  0
   50.6928    3.9894   21.0432 H   0  0  0  0  0  0  0  0  0  0  0  0
   50.1984   12.9268   19.0094 H   0  0  0  0  0  0  0  0  0  0  0  0
   50.2087    8.3030   22.3119 H   0  0  0  0  0  0  0  0  0  0  0  0
   46.2049   10.2624   20.7572 H   0  0  0  0  0  0  0  0  0  0  0  0
   52.1479    7.2372   23.6135 H   0  0  0  0  0  0  0  0  0  0  0  0
   49.1396   14.2781   22.0055 H   0  0  0  0  0  0  0  0  0  0  0  0
   46.5389    6.1762   18.0780 H   0  0  0  0  0  0  0  0  0  0  0  0
   49.1425    7.7084   17.4332 H   0  0  0  0  0  0  0  0  0  0  0  0
   49.5607    2.5356   19.5019 H   0  0  0  0  0  0  0  0  0  0  0  0
   51.4862   12.0548   17.1605 H   0  0  0  0  0  0  0  0  0  0  0  0
   50.8772    8.0613   15.7655 H   0  0  0  0  0  0  0  0  0  0  0  0
   46.3201    3.9681   17.1109 H   0  0  0  0  0  0  0  0  0  0  0  0
   52.0611   10.2306   15.6121 H   0  0  0  0  0  0  0  0  0  0  0  0
   47.8260    2.1286   17.8122 H   0  0  0  0  0  0  0  0  0  0  0  0
   49.1037    4.5338   22.7833 H   0  0  0  0  0  0  0  0  0  0  0  0
   50.2515    5.3418   21.7292 H   0  0  0  0  0  0  0  0  0  0  0  0
   48.5020    3.5580   20.8256 H   0  0  0  0  0  0  0  0  0  0  0  0
   47.3223    4.8591   20.8257 H   0  0  0  0  0  0  0  0  0  0  0  0
   50.8608    8.5716   19.4182 H   0  0  0  0  0  0  0  0  0  0  0  0
   50.0685    9.3842   20.7025 H   0  0  0  0  0  0  0  0  0  0  0  0
   48.2273   10.1750   19.2442 H   0  0  0  0  0  0  0  0  0  0  0  0
   48.7813    9.1898   17.9205 H   0  0  0  0  0  0  0  0  0  0  0  0
   50.2378    7.6562   17.5817 H   0  0  0  0  0  0  0  0  0  0  0  0
   47.6461    9.5949   21.1339 H   0  0  0  0  0  0  0  0  0  0  0  0
   50.9633   10.4861   17.8904 H   0  0  0  0  0  0  0  0  0  0  0  0
   50.3892   11.4011   19.2841 H   0  0  0  0  0  0  0  0  0  0  0  0
   48.7535    3.1025   18.6663 H   0  0  0  0  0  0  0  0  0  0  0  0
   48.1102    5.8675   24.3134 H   0  0  0  0  0  0  0  0  0  0  0  0
   51.2400   12.7944   16.8659 H   0  0  0  0  0  0  0  0  0  0  0  0
   49.7941   13.8158   16.7146 H   0  0  0  0  0  0  0  0  0  0  0  0
   50.4834   13.5215   18.2989 H   0  0  0  0  0  0  0  0  0  0  0  0
   48.3454   10.5315   16.2426 H   0  0  0  0  0  0  0  0  0  0  0  0
   49.9837   10.9268   15.6677 H   0  0  0  0  0  0  0  0  0  0  0  0
   48.6555   12.0955   15.5250 H   0  0  0  0  0  0  0  0  0  0  0  0
   46.7400    9.7983   23.3670 H   0  0  0  0  0  0  0  0  0  0  0  0
   50.4936    5.9096   15.9713 H   0  0  0  0  0  0  0  0  0  0  0  0
   46.9780    7.9389   25.0000 H   0  0  0  0  0  0  0  0  0  0  0  0
   49.7291    3.5976   16.4732 H   0  0  0  0  0  0  0  0  0  0  0  0
  2  1  1  0
  3  1  1  0
  4  2  2  0
  5  3  2  0
  6  4  1  0
  7  5  1  0
  8  1  1  0
  9  8  1  0
 10 13  1  0
 11  3  1  0
 12  2  1  0
 13  9  1  0
 14  5  1  0
 15  4  1  0
 16 10  1  0
 17 10  1  0
 18 12  2  0
 19 11  2  0
 20 15  2  0
 21 14  2  0
  6  7  1  0
 18 20  1  0
 19 21  1  0
 23 27  2  0
 24 28  1  0
 25 26  1  0
 26 22  2  0
 27 24  1  0
 28 25  1  0
 29 22  1  0
 30 23  1  0
 31 22  1  0
 32 23  1  0
 33 24  2  0
 34 35  1  0
 35 29  2  0
 36 33  1  0
 37 31  2  0
 38 32  2  0
 39 26  1  0
 40 27  1  0
 41 31  1  0
 42 32  1  0
 43 34  1  0
 44 33  1  0
 45 35  1  0
 46 36  1  0
 47 44  2  0
 48 43  2  0
 49 47  1  0
 50 45  2  0
 25 34  2  0
 48 50  1  0
 30 36  2  0
 46 49  2  0
 52 51  1  0
 53 51  1  0
 54 52  2  0
 55 53  2  0
 56 54  1  0
 57 55  1  0
 58 51  1  0
 59 58  1  0
 60 63  1  0
 61 53  1  0
 62 52  1  0
 63 59  1  0
 64 55  1  0
 65 54  1  0
 66 60  1  0
 67 60  1  0
 68 62  2  0
 69 61  2  0
 70 65  2  0
 71 64  2  0
 56 57  1  0
 68 70  1  0
 69 71  1  0
  6 72  1  0
  6 73  1  0
  7 74  1  0
  7 75  1  0
  8 76  1  0
  8 77  1  0
  9 78  1  0
  9 79  1  0
 11 80  1  0
 12 81  1  0
 13 82  1  0
 13 83  1  0
 14 84  1  0
 15 85  1  0
 16 86  1  0
 16 87  1  0
 16 88  1  0
 17 89  1  0
 17 90  1  0
 17 91  1  0
 18 92  1  0
 19 93  1  0
 20 94  1  0
 21 95  1  0
 28 96  1  0
 28 97  1  0
 29 98  1  0
 30 99  1  0
 39100  1  0
 40101  1  0
 41102  1  0
 42103  1  0
 43104  1  0
 44105  1  0
 45106  1  0
 46107  1  0
 47108  1  0
 48109  1  0
 49110  1  0
 50111  1  0
 56112  1  0
 56113  1  0
 57114  1  0
 57115  1  0
 58116  1  0
 58117  1  0
 59118  1  0
 59119  1  0
 61120  1  0
 62121  1  0
 63122  1  0
 63123  1  0
 64124  1  0
 65125  1  0
 66126  1  0
 66127  1  0
 66128  1  0
 67129  1  0
 67130  1  0
 67131  1  0
 68132  1  0
 69133  1  0
 70134  1  0
 71135  1  0
M  END
> <Uni-Dock RESULT> 
ENERGY=   -7.309  LOWER_BOUND=    2.921  UPPER_BOUND=    5.837
INTER + INTRA:          -7.309
INTER:                  -7.309
INTRA:                   0.000
UNBOUND:                 0.000

$$$$

     RDKit          3D

135142  0  0  0  0  0  0  0  0999 V2000
   48.6165    7.5391   18.2489 N   0  0  0  0  0  0  0  0  0  0  0  0
   48.0995    8.2604   19.3664 C   0  0  0  0  0  0  0  0  0  0  0  0
   49.0868    6.1966   18.1819 C   0  0  0  0  0  0  0  0  0  0  0  0
   48.1735    7.8103   20.7097 C   0  0  0  0  0  0  0  0  0  0  0  0
   49.9452    5.6427   19.1423 C   0  0  0  0  0  0  0  0  0  0  0  0
   48.9631    6.6045   21.1694 C   0  0  0  0  0  0  0  0  0  0  0  0
   50.2654    6.3916   20.4052 C   0  0  0  0  0  0  0  0  0  0  0  0
   48.8496    8.2846   16.9814 C   0  0  0  0  0  0  0  0  0  0  0  0
   50.0914    9.1845   17.0412 C   0  0  0  0  0  0  0  0  0  0  0  0
   52.5331    9.2691   16.5701 N   0  0  0  0  0  0  0  0  0  0  0  0
   48.7120    5.3709   17.1010 C   0  0  0  0  0  0  0  0  0  0  0  0
   47.3946    9.4783   19.1737 C   0  0  0  0  0  0  0  0  0  0  0  0
   51.3904    8.3791   16.8533 C   0  0  0  0  0  0  0  0  0  0  0  0
   50.4768    4.3525   18.9632 C   0  0  0  0  0  0  0  0  0  0  0  0
   47.5019    8.5106   21.7417 C   0  0  0  0  0  0  0  0  0  0  0  0
   53.0592    9.8737   17.7929 C   0  0  0  0  0  0  0  0  0  0  0  0
   53.5981    8.5235   15.8942 C   0  0  0  0  0  0  0  0  0  0  0  0
   46.7676   10.1831   20.2071 C   0  0  0  0  0  0  0  0  0  0  0  0
   49.2276    4.0846   16.9345 C   0  0  0  0  0  0  0  0  0  0  0  0
   46.8025    9.6844   21.4952 C   0  0  0  0  0  0  0  0  0  0  0  0
   50.1346    3.5838   17.8540 C   0  0  0  0  0  0  0  0  0  0  0  0
   49.6439    6.3356   21.0966 C   0  0  0  0  0  0  0  0  0  0  0  0
   50.3403   11.2913   17.5405 C   0  0  0  0  0  0  0  0  0  0  0  0
   49.5037    8.9936   17.5094 C   0  0  0  0  0  0  0  0  0  0  0  0
   48.6965    6.9307   18.9094 C   0  0  0  0  0  0  0  0  0  0  0  0
   49.3191    7.2947   20.1280 C   0  0  0  0  0  0  0  0  0  0  0  0
   49.3180   10.3700   17.7661 C   0  0  0  0  0  0  0  0  0  0  0  0
   48.3912    8.0020   17.8584 C   0  0  0  0  0  0  0  0  0  0  0  0
   49.3088    4.9992   20.8670 C   0  0  0  0  0  0  0  0  0  0  0  0
   51.5588   10.8591   17.0204 C   0  0  0  0  0  0  0  0  0  0  0  0
   50.3334    6.6363   22.3788 C   0  0  0  0  0  0  0  0  0  0  0  0
   50.1389   12.7287   17.8133 C   0  0  0  0  0  0  0  0  0  0  0  0
   50.7414    8.5549   16.9397 C   0  0  0  0  0  0  0  0  0  0  0  0
   48.3060    5.5628   18.7118 C   0  0  0  0  0  0  0  0  0  0  0  0
   48.6372    4.6048   19.7064 C   0  0  0  0  0  0  0  0  0  0  0  0
   51.7674    9.5115   16.7094 C   0  0  0  0  0  0  0  0  0  0  0  0
   50.5961    5.8343   23.2568 O   0  0  0  0  0  0  0  0  0  0  0  0
   49.1611   13.3978   17.5351 O   0  0  0  0  0  0  0  0  0  0  0  0
   49.5688    8.6237   20.3339 O   0  0  0  0  0  0  0  0  0  0  0  0
   48.1425   10.8262   18.3004 O   0  0  0  0  0  0  0  0  0  0  0  0
   50.6703    7.9360   22.5084 O   0  0  0  0  0  0  0  0  0  0  0  0
   51.2079   13.2547   18.4351 O   0  0  0  0  0  0  0  0  0  0  0  0
   47.5916    5.0813   17.5855 C   0  0  0  0  0  0  0  0  0  0  0  0
   51.0286    7.2146   16.5868 C   0  0  0  0  0  0  0  0  0  0  0  0
   48.2845    3.2535   19.5446 C   0  0  0  0  0  0  0  0  0  0  0  0
   53.0042    9.1120   16.1693 C   0  0  0  0  0  0  0  0  0  0  0  0
   52.2661    6.8326   16.0573 C   0  0  0  0  0  0  0  0  0  0  0  0
   47.2447    3.7348   17.4390 C   0  0  0  0  0  0  0  0  0  0  0  0
   53.2561    7.7799   15.8496 C   0  0  0  0  0  0  0  0  0  0  0  0
   47.5915    2.8195   18.4187 C   0  0  0  0  0  0  0  0  0  0  0  0
   49.4491    7.3637   19.0505 N   0  0  0  0  0  0  0  0  0  0  0  0
   48.5426    8.0194   19.9482 C   0  0  0  0  0  0  0  0  0  0  0  0
   49.5728    5.9789   18.6912 C   0  0  0  0  0  0  0  0  0  0  0  0
   48.0303    7.4212   21.1141 C   0  0  0  0  0  0  0  0  0  0  0  0
   48.7585    4.9405   19.2053 C   0  0  0  0  0  0  0  0  0  0  0  0
   48.2975    5.9805   21.4399 C   0  0  0  0  0  0  0  0  0  0  0  0
   47.7480    5.1282   20.3074 C   0  0  0  0  0  0  0  0  0  0  0  0
   50.5949    8.2501   18.6857 C   0  0  0  0  0  0  0  0  0  0  0  0
   50.4940    8.8142   17.2566 C   0  0  0  0  0  0  0  0  0  0  0  0
   51.7545   10.1715   15.5584 N   0  0  0  0  0  0  0  0  0  0  0  0
   50.5296    5.5619   17.7287 C   0  0  0  0  0  0  0  0  0  0  0  0
   48.1290    9.3459   19.6962 C   0  0  0  0  0  0  0  0  0  0  0  0
   51.8033    9.5196   16.8753 C   0  0  0  0  0  0  0  0  0  0  0  0
   48.8688    3.6153   18.7110 C   0  0  0  0  0  0  0  0  0  0  0  0
   47.2131    8.1538   22.0017 C   0  0  0  0  0  0  0  0  0  0  0  0
   52.9404   11.0144   15.3763 C   0  0  0  0  0  0  0  0  0  0  0  0
   51.6803    9.1996   14.4636 C   0  0  0  0  0  0  0  0  0  0  0  0
   47.3057   10.0635   20.5714 C   0  0  0  0  0  0  0  0  0  0  0  0
   50.6541    4.2450   17.2685 C   0  0  0  0  0  0  0  0  0  0  0  0
   46.8562    9.4706   21.7364 C   0  0  0  0  0  0  0  0  0  0  0  0
   49.8059    3.2681   17.7497 C   0  0  0  0  0  0  0  0  0  0  0  0
   48.3042    5.7235   21.1224 H   0  0  0  0  0  0  0  0  0  0  0  0
   49.2331    6.7394   22.2278 H   0  0  0  0  0  0  0  0  0  0  0  0
   50.7892    7.3285   20.1868 H   0  0  0  0  0  0  0  0  0  0  0  0
   50.9383    5.7904   21.0297 H   0  0  0  0  0  0  0  0  0  0  0  0
   48.9688    7.6225   16.1152 H   0  0  0  0  0  0  0  0  0  0  0  0
   47.9679    8.8687   16.7056 H   0  0  0  0  0  0  0  0  0  0  0  0
   50.1208    9.7716   17.9681 H   0  0  0  0  0  0  0  0  0  0  0  0
   50.0077    9.9071   16.2098 H   0  0  0  0  0  0  0  0  0  0  0  0
   47.9807    5.7233   16.3774 H   0  0  0  0  0  0  0  0  0  0  0  0
   47.2924    9.9322   18.1917 H   0  0  0  0  0  0  0  0  0  0  0  0
   51.2409    7.6998   16.0012 H   0  0  0  0  0  0  0  0  0  0  0  0
   51.5957    7.7487   17.7282 H   0  0  0  0  0  0  0  0  0  0  0  0
   51.1563    3.9323   19.7030 H   0  0  0  0  0  0  0  0  0  0  0  0
   47.5332    8.1333   22.7644 H   0  0  0  0  0  0  0  0  0  0  0  0
   53.5102    9.1317   18.4598 H   0  0  0  0  0  0  0  0  0  0  0  0
   53.8259   10.6175   17.5435 H   0  0  0  0  0  0  0  0  0  0  0  0
   52.2844   10.4063   18.3514 H   0  0  0  0  0  0  0  0  0  0  0  0
   53.2371    8.1218   14.9378 H   0  0  0  0  0  0  0  0  0  0  0  0
   54.4400    9.1825   15.6532 H   0  0  0  0  0  0  0  0  0  0  0  0
   53.9708    7.6893   16.4961 H   0  0  0  0  0  0  0  0  0  0  0  0
   46.2365   11.1084   19.9938 H   0  0  0  0  0  0  0  0  0  0  0  0
   48.9223    3.4825   16.0807 H   0  0  0  0  0  0  0  0  0  0  0  0
   46.3015   10.2040   22.3077 H   0  0  0  0  0  0  0  0  0  0  0  0
   50.5530    2.5871   17.7304 H   0  0  0  0  0  0  0  0  0  0  0  0
   47.4860    8.5146   18.2067 H   0  0  0  0  0  0  0  0  0  0  0  0
   48.1118    7.5618   16.8980 H   0  0  0  0  0  0  0  0  0  0  0  0
   49.5644    4.2542   21.6193 H   0  0  0  0  0  0  0  0  0  0  0  0
   52.3498   11.5843   16.8476 H   0  0  0  0  0  0  0  0  0  0  0  0
   50.0424    8.7301   21.1853 H   0  0  0  0  0  0  0  0  0  0  0  0
   47.4205   10.5538   17.7087 H   0  0  0  0  0  0  0  0  0  0  0  0
   51.1208    7.9602   23.3841 H   0  0  0  0  0  0  0  0  0  0  0  0
   50.9307   14.1752   18.6356 H   0  0  0  0  0  0  0  0  0  0  0  0
   47.2761    5.7461   16.7854 H   0  0  0  0  0  0  0  0  0  0  0  0
   50.2876    6.4304   16.7196 H   0  0  0  0  0  0  0  0  0  0  0  0
   48.5411    2.5208   20.3081 H   0  0  0  0  0  0  0  0  0  0  0  0
   53.7921    9.8438   15.9947 H   0  0  0  0  0  0  0  0  0  0  0  0
   52.4494    5.7907   15.8069 H   0  0  0  0  0  0  0  0  0  0  0  0
   46.6969    3.4072   16.5553 H   0  0  0  0  0  0  0  0  0  0  0  0
   54.2164    7.4852   15.4354 H   0  0  0  0  0  0  0  0  0  0  0  0
   47.3224    1.7738   18.3115 H   0  0  0  0  0  0  0  0  0  0  0  0
   47.7812    5.7068   22.3674 H   0  0  0  0  0  0  0  0  0  0  0  0
   49.3681    5.8213   21.6257 H   0  0  0  0  0  0  0  0  0  0  0  0
   47.5022    4.1489   20.7421 H   0  0  0  0  0  0  0  0  0  0  0  0
   46.8138    5.5212   19.8892 H   0  0  0  0  0  0  0  0  0  0  0  0
   51.5428    7.7090   18.8238 H   0  0  0  0  0  0  0  0  0  0  0  0
   50.6954    9.0873   19.3896 H   0  0  0  0  0  0  0  0  0  0  0  0
   49.6693    9.5302   17.1777 H   0  0  0  0  0  0  0  0  0  0  0  0
   50.2594    8.0211   16.5423 H   0  0  0  0  0  0  0  0  0  0  0  0
   51.2277    6.2574   17.2771 H   0  0  0  0  0  0  0  0  0  0  0  0
   48.4277    9.8585   18.7888 H   0  0  0  0  0  0  0  0  0  0  0  0
   52.6412    8.8088   16.9281 H   0  0  0  0  0  0  0  0  0  0  0  0
   51.9919   10.2861   17.6390 H   0  0  0  0  0  0  0  0  0  0  0  0
   48.2127    2.8354   19.0980 H   0  0  0  0  0  0  0  0  0  0  0  0
   46.8351    7.6868   22.9078 H   0  0  0  0  0  0  0  0  0  0  0  0
   53.8717   10.4347   15.4126 H   0  0  0  0  0  0  0  0  0  0  0  0
   52.9009   11.5396   14.4157 H   0  0  0  0  0  0  0  0  0  0  0  0
   52.9890   11.7891   16.1483 H   0  0  0  0  0  0  0  0  0  0  0  0
   50.7400    8.6356   14.4937 H   0  0  0  0  0  0  0  0  0  0  0  0
   52.5145    8.4861   14.4840 H   0  0  0  0  0  0  0  0  0  0  0  0
   51.6922    9.7073   13.4924 H   0  0  0  0  0  0  0  0  0  0  0  0
   47.0247   11.0848   20.3305 H   0  0  0  0  0  0  0  0  0  0  0  0
   51.4018    3.9979   16.5195 H   0  0  0  0  0  0  0  0  0  0  0  0
   46.2228   10.0190   22.4286 H   0  0  0  0  0  0  0  0  0  0  0  0
   49.8751    2.2429   17.3973 H   0  0  0  0  0  0  0  0  0  0  0  0
  2  1  1  0
  3  1  1  0
  4  2  2  0
  5  3  2  0
  6  4  1  0
  7  5  1  0
  8  1  1  0
  9  8  1  0
 10 13  1  0
 11  3  1  0
 12  2  1  0
 13  9  1  0
 14  5  1  0
 15  4  1  0
 16 10  1  0
 17 10  1  0
 18 12  2  0
 19 11  2  0
 20 15  2  0
 21 14  2  0
  6  7  1  0
 18 20  1  0
 19 21  1  0
 23 27  2  0
 24 28  1  0
 25 26  1  0
 26 22  2  0
 27 24  1  0
 28 25  1  0
 29 22  1  0
 30 23  1  0
 31 22  1  0
 32 23  1  0
 33 24  2  0
 34 35  1  0
 35 29  2  0
 36 33  1  0
 37 31  2  0
 38 32  2  0
 39 26  1  0
 40 27  1  0
 41 31  1  0
 42 32  1  0
 43 34  1  0
 44 33  1  0
 45 35  1  0
 46 36  1  0
 47 44  2  0
 48 43  2  0
 49 47  1  0
 50 45  2  0
 25 34  2  0
 48 50  1  0
 30 36  2  0
 46 49  2  0
 52 51  1  0
 53 51  1  0
 54 52  2  0
 55 53  2  0
 56 54  1  0
 57 55  1  0
 58 51  1  0
 59 58  1  0
 60 63  1  0
 61 53  1  0
 62 52  1  0
 63 59  1  0
 64 55  1  0
 65 54  1  0
 66 60  1  0
 67 60  1  0
 68 62  2  0
 69 61  2  0
 70 65  2  0
 71 64  2  0
 56 57  1  0
 68 70  1  0
 69 71  1  0
  6 72  1  0
  6 73  1  0
  7 74  1  0
  7 75  1  0
  8 76  1  0
  8 77  1  0
  9 78  1  0
  9 79  1  0
 11 80  1  0
 12 81  1  0
 13 82  1  0
 13 83  1  0
 14 84  1  0
 15 85  1  0
 16 86  1  0
 16 87  1  0
 16 88  1  0
 17 89  1  0
 17 90  1  0
 17 91  1  0
 18 92  1  0
 19 93  1  0
 20 94  1  0
 21 95  1  0
 28 96  1  0
 28 97  1  0
 29 98  1  0
 30 99  1  0
 39100  1  0
 40101  1  0
 41102  1  0
 42103  1  0
 43104  1  0
 44105  1  0
 45106  1  0
 46107  1  0
 47108  1  0
 48109  1  0
 49110  1  0
 50111  1  0
 56112  1  0
 56113  1  0
 57114  1  0
 57115  1  0
 58116  1  0
 58117  1  0
 59118  1  0
 59119  1  0
 61120  1  0
 62121  1  0
 63122  1  0
 63123  1  0
 64124  1  0
 65125  1  0
 66126  1  0
 66127  1  0
 66128  1  0
 67129  1  0
 67130  1  0
 67131  1  0
 68132  1  0
 69133  1  0
 70134  1  0
 71135  1  0
M  END
> <Uni-Dock RESULT> 
ENERGY=   -7.244  LOWER_BOUND=    2.496  UPPER_BOUND=    5.292
INTER + INTRA:          -7.244
INTER:                  -7.244
INTRA:                   0.000
UNBOUND:                 0.000

$$$$

     RDKit          3D

135142  0  0  0  0  0  0  0  0999 V2000
   48.2111    8.7473   19.5084 N   0  0  0  0  0  0  0  0  0  0  0  0
   47.9737   10.0701   19.9883 C   0  0  0  0  0  0  0  0  0  0  0  0
   48.7492    7.6221   20.1957 C   0  0  0  0  0  0  0  0  0  0  0  0
   48.4587   10.5691   21.2245 C   0  0  0  0  0  0  0  0  0  0  0  0
   49.8847    7.7027   21.0143 C   0  0  0  0  0  0  0  0  0  0  0  0
   49.4396    9.8429   22.1186 C   0  0  0  0  0  0  0  0  0  0  0  0
   50.4867    9.0358   21.3588 C   0  0  0  0  0  0  0  0  0  0  0  0
   48.0174    8.4841   18.0558 C   0  0  0  0  0  0  0  0  0  0  0  0
   49.1498    9.0565   17.1923 C   0  0  0  0  0  0  0  0  0  0  0  0
   51.3451    8.5222   16.1501 N   0  0  0  0  0  0  0  0  0  0  0  0
   48.1525    6.3524   20.0460 C   0  0  0  0  0  0  0  0  0  0  0  0
   47.1481   10.9643   19.2562 C   0  0  0  0  0  0  0  0  0  0  0  0
   50.4034    8.1627   17.2280 C   0  0  0  0  0  0  0  0  0  0  0  0
   50.4458    6.5387   21.5710 C   0  0  0  0  0  0  0  0  0  0  0  0
   48.0512   11.8406   21.6973 C   0  0  0  0  0  0  0  0  0  0  0  0
   52.1442    9.6944   16.5036 C   0  0  0  0  0  0  0  0  0  0  0  0
   52.2327    7.3935   15.8583 C   0  0  0  0  0  0  0  0  0  0  0  0
   46.7832   12.2347   19.7153 C   0  0  0  0  0  0  0  0  0  0  0  0
   48.7015    5.2014   20.6135 C   0  0  0  0  0  0  0  0  0  0  0  0
   47.2192   12.6664   20.9533 C   0  0  0  0  0  0  0  0  0  0  0  0
   49.8676    5.2906   21.3557 C   0  0  0  0  0  0  0  0  0  0  0  0
   50.0916    9.5078   22.0577 C   0  0  0  0  0  0  0  0  0  0  0  0
   49.3599   10.9508   16.1355 C   0  0  0  0  0  0  0  0  0  0  0  0
   48.7350    9.2797   17.8080 C   0  0  0  0  0  0  0  0  0  0  0  0
   48.5222    8.6918   20.3528 C   0  0  0  0  0  0  0  0  0  0  0  0
   49.4316    9.6658   20.8317 C   0  0  0  0  0  0  0  0  0  0  0  0
   48.5196   10.5162   17.1600 C   0  0  0  0  0  0  0  0  0  0  0  0
   47.8487    8.8808   18.9903 C   0  0  0  0  0  0  0  0  0  0  0  0
   49.8133    8.3832   22.8379 C   0  0  0  0  0  0  0  0  0  0  0  0
   50.4132   10.1413   15.7142 C   0  0  0  0  0  0  0  0  0  0  0  0
   51.0879   10.4657   22.6052 C   0  0  0  0  0  0  0  0  0  0  0  0
   49.1293   12.2459   15.4642 C   0  0  0  0  0  0  0  0  0  0  0  0
   49.7931    8.4315   17.3500 C   0  0  0  0  0  0  0  0  0  0  0  0
   48.2025    7.5701   21.1910 C   0  0  0  0  0  0  0  0  0  0  0  0
   48.8759    7.4287   22.4332 C   0  0  0  0  0  0  0  0  0  0  0  0
   50.6328    8.8897   16.2985 C   0  0  0  0  0  0  0  0  0  0  0  0
   51.6504   10.3778   23.6818 O   0  0  0  0  0  0  0  0  0  0  0  0
   48.0625   12.7005   15.0948 O   0  0  0  0  0  0  0  0  0  0  0  0
   49.6221   10.7803   20.0619 O   0  0  0  0  0  0  0  0  0  0  0  0
   47.5096   11.3477   17.5647 O   0  0  0  0  0  0  0  0  0  0  0  0
   51.3426   11.4987   21.7760 O   0  0  0  0  0  0  0  0  0  0  0  0
   50.2846   12.9103   15.2909 O   0  0  0  0  0  0  0  0  0  0  0  0
   47.2407    6.5762   20.8782 C   0  0  0  0  0  0  0  0  0  0  0  0
   50.0755    7.1492   17.8785 C   0  0  0  0  0  0  0  0  0  0  0  0
   48.6010    6.3379   23.2765 C   0  0  0  0  0  0  0  0  0  0  0  0
   51.6953    8.0903   15.8370 C   0  0  0  0  0  0  0  0  0  0  0  0
   51.1402    6.3698   17.4133 C   0  0  0  0  0  0  0  0  0  0  0  0
   46.9754    5.4980   21.7278 C   0  0  0  0  0  0  0  0  0  0  0  0
   51.9526    6.8395   16.3936 C   0  0  0  0  0  0  0  0  0  0  0  0
   47.6561    5.3778   22.9279 C   0  0  0  0  0  0  0  0  0  0  0  0
   49.2469    9.0193   19.9769 N   0  0  0  0  0  0  0  0  0  0  0  0
   48.5806   10.2005   20.4440 C   0  0  0  0  0  0  0  0  0  0  0  0
   49.3747    7.7191   20.5728 C   0  0  0  0  0  0  0  0  0  0  0  0
   48.4668   10.5460   21.8032 C   0  0  0  0  0  0  0  0  0  0  0  0
   48.8239    7.3524   21.8249 C   0  0  0  0  0  0  0  0  0  0  0  0
   48.9292    9.6199   22.8902 C   0  0  0  0  0  0  0  0  0  0  0  0
   48.1530    8.3186   22.7668 C   0  0  0  0  0  0  0  0  0  0  0  0
   50.1690    9.3239   18.8417 C   0  0  0  0  0  0  0  0  0  0  0  0
   49.6250    8.8608   17.4778 C   0  0  0  0  0  0  0  0  0  0  0  0
   50.2436    8.6653   15.0500 N   0  0  0  0  0  0  0  0  0  0  0  0
   50.0520    6.6728   19.8927 C   0  0  0  0  0  0  0  0  0  0  0  0
   48.0081   11.1042   19.5223 C   0  0  0  0  0  0  0  0  0  0  0  0
   50.7132    8.9966   16.4032 C   0  0  0  0  0  0  0  0  0  0  0  0
   48.8961    6.0137   22.2890 C   0  0  0  0  0  0  0  0  0  0  0  0
   47.8767   11.7686   22.1899 C   0  0  0  0  0  0  0  0  0  0  0  0
   51.2589    9.0476   14.0636 C   0  0  0  0  0  0  0  0  0  0  0  0
   49.9421    7.2383   14.9042 C   0  0  0  0  0  0  0  0  0  0  0  0
   47.4099   12.3082   19.9113 C   0  0  0  0  0  0  0  0  0  0  0  0
   50.1467    5.3604   20.3722 C   0  0  0  0  0  0  0  0  0  0  0  0
   47.3555   12.6495   21.2498 C   0  0  0  0  0  0  0  0  0  0  0  0
   49.5492    5.0239   21.5703 C   0  0  0  0  0  0  0  0  0  0  0  0
   48.8667    9.2216   22.8245 H   0  0  0  0  0  0  0  0  0  0  0  0
   49.9850   10.5839   22.7227 H   0  0  0  0  0  0  0  0  0  0  0  0
   50.8512    9.5482   20.4619 H   0  0  0  0  0  0  0  0  0  0  0  0
   51.3540    8.8901   22.0151 H   0  0  0  0  0  0  0  0  0  0  0  0
   47.9405    7.4147   17.8247 H   0  0  0  0  0  0  0  0  0  0  0  0
   47.0500    8.8635   17.7172 H   0  0  0  0  0  0  0  0  0  0  0  0
   49.3920   10.0888   17.4758 H   0  0  0  0  0  0  0  0  0  0  0  0
   48.7779    9.0912   16.1526 H   0  0  0  0  0  0  0  0  0  0  0  0
   47.2213    6.2525   19.4933 H   0  0  0  0  0  0  0  0  0  0  0  0
   46.7376   10.7007   18.2853 H   0  0  0  0  0  0  0  0  0  0  0  0
   50.0748    7.1222   17.0895 H   0  0  0  0  0  0  0  0  0  0  0  0
   50.8964    8.2110   18.2076 H   0  0  0  0  0  0  0  0  0  0  0  0
   51.3374    6.6036   22.1925 H   0  0  0  0  0  0  0  0  0  0  0  0
   48.3992   12.1972   22.6673 H   0  0  0  0  0  0  0  0  0  0  0  0
   52.8225    9.4954   17.3395 H   0  0  0  0  0  0  0  0  0  0  0  0
   52.7476   10.0099   15.6435 H   0  0  0  0  0  0  0  0  0  0  0  0
   51.5180   10.5504   16.7702 H   0  0  0  0  0  0  0  0  0  0  0  0
   51.6504    6.5248   15.5229 H   0  0  0  0  0  0  0  0  0  0  0  0
   52.9172    7.6403   15.0387 H   0  0  0  0  0  0  0  0  0  0  0  0
   52.8253    7.0925   16.7274 H   0  0  0  0  0  0  0  0  0  0  0  0
   46.1414   12.8711   19.1097 H   0  0  0  0  0  0  0  0  0  0  0  0
   48.2173    4.2379   20.4656 H   0  0  0  0  0  0  0  0  0  0  0  0
   46.9274   13.6399   21.3385 H   0  0  0  0  0  0  0  0  0  0  0  0
   50.3126    4.4000   21.7944 H   0  0  0  0  0  0  0  0  0  0  0  0
   47.0402    9.6042   19.1532 H   0  0  0  0  0  0  0  0  0  0  0  0
   47.3463    7.9701   18.6551 H   0  0  0  0  0  0  0  0  0  0  0  0
   50.3291    8.2600   23.7892 H   0  0  0  0  0  0  0  0  0  0  0  0
   51.0629   10.4882   14.9149 H   0  0  0  0  0  0  0  0  0  0  0  0
   50.3061   11.3432   20.4811 H   0  0  0  0  0  0  0  0  0  0  0  0
   46.6743   10.8533   17.5050 H   0  0  0  0  0  0  0  0  0  0  0  0
   52.0180   12.0171   22.2715 H   0  0  0  0  0  0  0  0  0  0  0  0
   50.0024   13.7743   14.9190 H   0  0  0  0  0  0  0  0  0  0  0  0
   46.6606    6.6152   19.9597 H   0  0  0  0  0  0  0  0  0  0  0  0
   49.4670    6.7258   18.6737 H   0  0  0  0  0  0  0  0  0  0  0  0
   49.1200    6.2310   24.2277 H   0  0  0  0  0  0  0  0  0  0  0  0
   52.3410    8.4413   15.0329 H   0  0  0  0  0  0  0  0  0  0  0  0
   51.3282    5.3930   17.8521 H   0  0  0  0  0  0  0  0  0  0  0  0
   46.2290    4.7549   21.4468 H   0  0  0  0  0  0  0  0  0  0  0  0
   52.7777    6.2338   16.0291 H   0  0  0  0  0  0  0  0  0  0  0  0
   47.4521    4.5446   23.5923 H   0  0  0  0  0  0  0  0  0  0  0  0
   48.7185   10.0625   23.8707 H   0  0  0  0  0  0  0  0  0  0  0  0
   50.0179    9.4846   22.8416 H   0  0  0  0  0  0  0  0  0  0  0  0
   48.1186    7.8768   23.7728 H   0  0  0  0  0  0  0  0  0  0  0  0
   47.1105    8.4684   22.4619 H   0  0  0  0  0  0  0  0  0  0  0  0
   51.1575    8.8819   19.0362 H   0  0  0  0  0  0  0  0  0  0  0  0
   50.3964   10.3970   18.7854 H   0  0  0  0  0  0  0  0  0  0  0  0
   48.7569    9.4587   17.1811 H   0  0  0  0  0  0  0  0  0  0  0  0
   49.2630    7.8312   17.5340 H   0  0  0  0  0  0  0  0  0  0  0  0
   50.5367    6.8316   18.9363 H   0  0  0  0  0  0  0  0  0  0  0  0
   47.9971   10.8835   18.4609 H   0  0  0  0  0  0  0  0  0  0  0  0
   51.5861    8.3845   16.6742 H   0  0  0  0  0  0  0  0  0  0  0  0
   51.0473   10.0429   16.4119 H   0  0  0  0  0  0  0  0  0  0  0  0
   48.4401    5.7443   23.2419 H   0  0  0  0  0  0  0  0  0  0  0  0
   47.8077   12.0330   23.2423 H   0  0  0  0  0  0  0  0  0  0  0  0
   52.2060    8.5136   14.2138 H   0  0  0  0  0  0  0  0  0  0  0  0
   50.9086    8.8443   13.0457 H   0  0  0  0  0  0  0  0  0  0  0  0
   51.4608   10.1226   14.1102 H   0  0  0  0  0  0  0  0  0  0  0  0
   49.0965    6.9423   15.5371 H   0  0  0  0  0  0  0  0  0  0  0  0
   50.8025    6.6039   15.1545 H   0  0  0  0  0  0  0  0  0  0  0  0
   49.6394    7.0086   13.8762 H   0  0  0  0  0  0  0  0  0  0  0  0
   46.9917   12.9698   19.1580 H   0  0  0  0  0  0  0  0  0  0  0  0
   50.6705    4.6049   19.7926 H   0  0  0  0  0  0  0  0  0  0  0  0
   46.9010   13.5850   21.5651 H   0  0  0  0  0  0  0  0  0  0  0  0
   49.5981    4.0093   21.9551 H   0  0  0  0  0  0  0  0  0  0  0  0
  2  1  1  0
  3  1  1  0
  4  2  2  0
  5  3  2  0
  6  4  1  0
  7  5  1  0
  8  1  1  0
  9  8  1  0
 10 13  1  0
 11  3  1  0
 12  2  1  0
 13  9  1  0
 14  5  1  0
 15  4  1  0
 16 10  1  0
 17 10  1  0
 18 12  2  0
 19 11  2  0
 20 15  2  0
 21 14  2  0
  6  7  1  0
 18 20  1  0
 19 21  1  0
 23 27  2  0
 24 28  1  0
 25 26  1  0
 26 22  2  0
 27 24  1  0
 28 25  1  0
 29 22  1  0
 30 23  1  0
 31 22  1  0
 32 23  1  0
 33 24  2  0
 34 35  1  0
 35 29  2  0
 36 33  1  0
 37 31  2  0
 38 32  2  0
 39 26  1  0
 40 27  1  0
 41 31  1  0
 42 32  1  0
 43 34  1  0
 44 33  1  0
 45 35  1  0
 46 36  1  0
 47 44  2  0
 48 43  2  0
 49 47  1  0
 50 45  2  0
 25 34  2  0
 48 50  1  0
 30 36  2  0
 46 49  2  0
 52 51  1  0
 53 51  1  0
 54 52  2  0
 55 53  2  0
 56 54  1  0
 57 55  1  0
 58 51  1  0
 59 58  1  0
 60 63  1  0
 61 53  1  0
 62 52  1  0
 63 59  1  0
 64 55  1  0
 65 54  1  0
 66 60  1  0
 67 60  1  0
 68 62  2  0
 69 61  2  0
 70 65  2  0
 71 64  2  0
 56 57  1  0
 68 70  1  0
 69 71  1  0
  6 72  1  0
  6 73  1  0
  7 74  1  0
  7 75  1  0
  8 76  1  0
  8 77  1  0
  9 78  1  0
  9 79  1  0
 11 80  1  0
 12 81  1  0
 13 82  1  0
 13 83  1  0
 14 84  1  0
 15 85  1  0
 16 86  1  0
 16 87  1  0
 16 88  1  0
 17 89  1  0
 17 90  1  0
 17 91  1  0
 18 92  1  0
 19 93  1  0
 20 94  1  0
 21 95  1  0
 28 96  1  0
 28 97  1  0
 29 98  1  0
 30 99  1  0
 39100  1  0
 40101  1  0
 41102  1  0
 42103  1  0
 43104  1  0
 44105  1  0
 45106  1  0
 46107  1  0
 47108  1  0
 48109  1  0
 49110  1  0
 50111  1  0
 56112  1  0
 56113  1  0
 57114  1  0
 57115  1  0
 58116  1  0
 58117  1  0
 59118  1  0
 59119  1  0
 61120  1  0
 62121  1  0
 63122  1  0
 63123  1  0
 64124  1  0
 65125  1  0
 66126  1  0
 66127  1  0
 66128  1  0
 67129  1  0
 67130  1  0
 67131  1  0
 68132  1  0
 69133  1  0
 70134  1  0
 71135  1  0
M  END
> <Uni-Dock RESULT> 
ENERGY=   -7.024  LOWER_BOUND=    3.207  UPPER_BOUND=    6.161
INTER + INTRA:          -7.024
INTER:                  -7.024
INTRA:                   0.000
UNBOUND:                 0.000

$$$$

     RDKit          3D

135142  0  0  0  0  0  0  0  0999 V2000
   48.6645    7.8208   18.9452 N   0  0  0  0  0  0  0  0  0  0  0  0
   48.7194    7.5798   17.5398 C   0  0  0  0  0  0  0  0  0  0  0  0
   48.6435    9.0596   19.6473 C   0  0  0  0  0  0  0  0  0  0  0  0
   48.9952    8.5775   16.5697 C   0  0  0  0  0  0  0  0  0  0  0  0
   49.4990   10.1255   19.3344 C   0  0  0  0  0  0  0  0  0  0  0  0
   49.4471    9.9854   16.8898 C   0  0  0  0  0  0  0  0  0  0  0  0
   50.3628   10.0783   18.1056 C   0  0  0  0  0  0  0  0  0  0  0  0
   48.7829    6.6529   19.8610 C   0  0  0  0  0  0  0  0  0  0  0  0
   50.2174    6.1159   19.9565 C   0  0  0  0  0  0  0  0  0  0  0  0
   52.3423    6.2852   21.2400 N   0  0  0  0  0  0  0  0  0  0  0  0
   47.7533    9.2441   20.7262 C   0  0  0  0  0  0  0  0  0  0  0  0
   48.4187    6.2938   17.0173 C   0  0  0  0  0  0  0  0  0  0  0  0
   51.0913    6.9818   20.8829 C   0  0  0  0  0  0  0  0  0  0  0  0
   49.5212   11.2806   20.1374 C   0  0  0  0  0  0  0  0  0  0  0  0
   48.8803    8.2892   15.1876 C   0  0  0  0  0  0  0  0  0  0  0  0
   53.3365    6.3853   20.1727 C   0  0  0  0  0  0  0  0  0  0  0  0
   52.8942    6.8417   22.4781 C   0  0  0  0  0  0  0  0  0  0  0  0
   48.3461    6.0104   15.6491 C   0  0  0  0  0  0  0  0  0  0  0  0
   47.7655   10.3983   21.5110 C   0  0  0  0  0  0  0  0  0  0  0  0
   48.5563    7.0194   14.7289 C   0  0  0  0  0  0  0  0  0  0  0  0
   48.6714   11.4085   21.2328 C   0  0  0  0  0  0  0  0  0  0  0  0
   49.9610   10.3156   17.2996 C   0  0  0  0  0  0  0  0  0  0  0  0
   51.2517    4.5262   18.8829 C   0  0  0  0  0  0  0  0  0  0  0  0
   49.7445    6.3806   19.4022 C   0  0  0  0  0  0  0  0  0  0  0  0
   48.7154    8.6601   18.6199 C   0  0  0  0  0  0  0  0  0  0  0  0
   49.7190    8.9878   17.6763 C   0  0  0  0  0  0  0  0  0  0  0  0
   50.0851    5.2474   18.6309 C   0  0  0  0  0  0  0  0  0  0  0  0
   48.5056    7.2010   19.0353 C   0  0  0  0  0  0  0  0  0  0  0  0
   49.1665   11.3295   17.8399 C   0  0  0  0  0  0  0  0  0  0  0  0
   52.0850    4.9035   19.9344 C   0  0  0  0  0  0  0  0  0  0  0  0
   51.0219   10.7392   16.3483 C   0  0  0  0  0  0  0  0  0  0  0  0
   51.6019    3.3436   18.0706 C   0  0  0  0  0  0  0  0  0  0  0  0
   50.5800    6.7453   20.5058 C   0  0  0  0  0  0  0  0  0  0  0  0
   47.8688    9.7055   19.1230 C   0  0  0  0  0  0  0  0  0  0  0  0
   48.1239   11.0448   18.7261 C   0  0  0  0  0  0  0  0  0  0  0  0
   51.7602    5.9917   20.7508 C   0  0  0  0  0  0  0  0  0  0  0  0
   51.2340   11.8778   15.9715 O   0  0  0  0  0  0  0  0  0  0  0  0
   50.8541    2.4527   17.7122 O   0  0  0  0  0  0  0  0  0  0  0  0
   50.4272    7.9544   17.1271 O   0  0  0  0  0  0  0  0  0  0  0  0
   49.3025    4.8632   17.5749 O   0  0  0  0  0  0  0  0  0  0  0  0
   51.7799    9.7142   15.9075 O   0  0  0  0  0  0  0  0  0  0  0  0
   52.9069    3.3498   17.7495 O   0  0  0  0  0  0  0  0  0  0  0  0
   46.7682    9.5046   19.9942 C   0  0  0  0  0  0  0  0  0  0  0  0
   50.3180    7.8233   21.3849 C   0  0  0  0  0  0  0  0  0  0  0  0
   47.3264   12.0983   19.2067 C   0  0  0  0  0  0  0  0  0  0  0  0
   52.6152    6.3348   21.8148 C   0  0  0  0  0  0  0  0  0  0  0  0
   51.1821    8.1558   22.4339 C   0  0  0  0  0  0  0  0  0  0  0  0
   45.9816   10.5616   20.4622 C   0  0  0  0  0  0  0  0  0  0  0  0
   52.3324    7.4136   22.6493 C   0  0  0  0  0  0  0  0  0  0  0  0
   46.2606   11.8598   20.0689 C   0  0  0  0  0  0  0  0  0  0  0  0
   49.5763    8.4794   18.6269 N   0  0  0  0  0  0  0  0  0  0  0  0
   49.1981    8.1283   17.2886 C   0  0  0  0  0  0  0  0  0  0  0  0
   49.1496    9.5636   19.4662 C   0  0  0  0  0  0  0  0  0  0  0  0
   48.8462    9.0706   16.3048 C   0  0  0  0  0  0  0  0  0  0  0  0
   48.2104   10.5524   19.0846 C   0  0  0  0  0  0  0  0  0  0  0  0
   48.7122   10.5303   16.6280 C   0  0  0  0  0  0  0  0  0  0  0  0
   47.6409   10.6835   17.6956 C   0  0  0  0  0  0  0  0  0  0  0  0
   50.8076    7.7508   19.0566 C   0  0  0  0  0  0  0  0  0  0  0  0
   50.5214    6.6103   20.0506 C   0  0  0  0  0  0  0  0  0  0  0  0
   51.6579    4.9048   21.5048 N   0  0  0  0  0  0  0  0  0  0  0  0
   49.6333    9.6856   20.7955 C   0  0  0  0  0  0  0  0  0  0  0  0
   49.1816    6.7744   16.8875 C   0  0  0  0  0  0  0  0  0  0  0  0
   51.8390    6.0638   20.6186 C   0  0  0  0  0  0  0  0  0  0  0  0
   47.7552   11.5227   20.0142 C   0  0  0  0  0  0  0  0  0  0  0  0
   48.5713    8.6637   14.9815 C   0  0  0  0  0  0  0  0  0  0  0  0
   52.9597    4.3017   21.8075 C   0  0  0  0  0  0  0  0  0  0  0  0
   50.9905    5.2672   22.7585 C   0  0  0  0  0  0  0  0  0  0  0  0
   48.8930    6.3742   15.5778 C   0  0  0  0  0  0  0  0  0  0  0  0
   49.2027   10.6661   21.6982 C   0  0  0  0  0  0  0  0  0  0  0  0
   48.5998    7.3231   14.6163 C   0  0  0  0  0  0  0  0  0  0  0  0
   48.2436   11.5802   21.3107 C   0  0  0  0  0  0  0  0  0  0  0  0
   48.5523   10.6187   16.9933 H   0  0  0  0  0  0  0  0  0  0  0  0
   50.0142   10.3796   16.0329 H   0  0  0  0  0  0  0  0  0  0  0  0
   51.0829    9.2547   18.1605 H   0  0  0  0  0  0  0  0  0  0  0  0
   50.9460   11.0047   18.0291 H   0  0  0  0  0  0  0  0  0  0  0  0
   48.4510    6.8784   20.8817 H   0  0  0  0  0  0  0  0  0  0  0  0
   48.0958    5.8557   19.5660 H   0  0  0  0  0  0  0  0  0  0  0  0
   50.6764    6.0104   18.9651 H   0  0  0  0  0  0  0  0  0  0  0  0
   50.1549    5.1007   20.3876 H   0  0  0  0  0  0  0  0  0  0  0  0
   47.0109    8.4825   20.9531 H   0  0  0  0  0  0  0  0  0  0  0  0
   48.2134    5.4458   17.6649 H   0  0  0  0  0  0  0  0  0  0  0  0
   50.5131    7.1792   21.7976 H   0  0  0  0  0  0  0  0  0  0  0  0
   51.3055    7.9574   20.4275 H   0  0  0  0  0  0  0  0  0  0  0  0
   50.1989   12.0993   19.9009 H   0  0  0  0  0  0  0  0  0  0  0  0
   49.0563    9.0746   14.4518 H   0  0  0  0  0  0  0  0  0  0  0  0
   53.6837    7.4132   20.0266 H   0  0  0  0  0  0  0  0  0  0  0  0
   54.2074    5.7627   20.4121 H   0  0  0  0  0  0  0  0  0  0  0  0
   52.9494    6.0182   19.2181 H   0  0  0  0  0  0  0  0  0  0  0  0
   52.1854    6.7102   23.3067 H   0  0  0  0  0  0  0  0  0  0  0  0
   53.8085    6.3114   22.7678 H   0  0  0  0  0  0  0  0  0  0  0  0
   53.1235    7.9080   22.3909 H   0  0  0  0  0  0  0  0  0  0  0  0
   48.1041    5.0049   15.3114 H   0  0  0  0  0  0  0  0  0  0  0  0
   47.0700   10.4982   22.3423 H   0  0  0  0  0  0  0  0  0  0  0  0
   48.4808    6.8254   13.6622 H   0  0  0  0  0  0  0  0  0  0  0  0
   48.6995   12.3087   21.8433 H   0  0  0  0  0  0  0  0  0  0  0  0
   47.9381    6.7356   18.2199 H   0  0  0  0  0  0  0  0  0  0  0  0
   47.8575    7.1166   19.9112 H   0  0  0  0  0  0  0  0  0  0  0  0
   49.3575   12.3615   17.5486 H   0  0  0  0  0  0  0  0  0  0  0  0
   52.9921    4.3354   20.1235 H   0  0  0  0  0  0  0  0  0  0  0  0
   51.1160    8.3206   16.5339 H   0  0  0  0  0  0  0  0  0  0  0  0
   48.4026    4.7109   17.9104 H   0  0  0  0  0  0  0  0  0  0  0  0
   52.4277   10.1592   15.3135 H   0  0  0  0  0  0  0  0  0  0  0  0
   53.0030    2.5764   17.1520 H   0  0  0  0  0  0  0  0  0  0  0  0
   46.4844    8.5112   20.3324 H   0  0  0  0  0  0  0  0  0  0  0  0
   49.4269    8.4351   21.2695 H   0  0  0  0  0  0  0  0  0  0  0  0
   47.5252   13.1245   18.9020 H   0  0  0  0  0  0  0  0  0  0  0  0
   53.5212    5.7595   22.0020 H   0  0  0  0  0  0  0  0  0  0  0  0
   50.9484    8.9969   23.0818 H   0  0  0  0  0  0  0  0  0  0  0  0
   45.1458   10.3621   21.1330 H   0  0  0  0  0  0  0  0  0  0  0  0
   53.0026    7.6686   23.4657 H   0  0  0  0  0  0  0  0  0  0  0  0
   45.6517   12.6835   20.4268 H   0  0  0  0  0  0  0  0  0  0  0  0
   48.3983   11.0819   15.7342 H   0  0  0  0  0  0  0  0  0  0  0  0
   49.6840   10.9490   16.9220 H   0  0  0  0  0  0  0  0  0  0  0  0
   47.2169   11.6902   17.5729 H   0  0  0  0  0  0  0  0  0  0  0  0
   46.8072    9.9824   17.5702 H   0  0  0  0  0  0  0  0  0  0  0  0
   51.5325    8.4621   19.4796 H   0  0  0  0  0  0  0  0  0  0  0  0
   51.3530    7.3407   18.1959 H   0  0  0  0  0  0  0  0  0  0  0  0
   49.9803    5.7936   19.5614 H   0  0  0  0  0  0  0  0  0  0  0  0
   49.8655    6.9524   20.8550 H   0  0  0  0  0  0  0  0  0  0  0  0
   50.3731    9.0045   21.2002 H   0  0  0  0  0  0  0  0  0  0  0  0
   49.3795    5.9811   17.5995 H   0  0  0  0  0  0  0  0  0  0  0  0
   52.3869    6.8668   21.1334 H   0  0  0  0  0  0  0  0  0  0  0  0
   52.4575    5.7583   19.7640 H   0  0  0  0  0  0  0  0  0  0  0  0
   47.0094   12.2575   19.7103 H   0  0  0  0  0  0  0  0  0  0  0  0
   48.3154    9.4017   14.2251 H   0  0  0  0  0  0  0  0  0  0  0  0
   53.6304    4.9994   22.3254 H   0  0  0  0  0  0  0  0  0  0  0  0
   52.8400    3.4119   22.4351 H   0  0  0  0  0  0  0  0  0  0  0  0
   53.4556    3.9669   20.8908 H   0  0  0  0  0  0  0  0  0  0  0  0
   49.9618    5.6035   22.5803 H   0  0  0  0  0  0  0  0  0  0  0  0
   51.5256    6.0578   23.3008 H   0  0  0  0  0  0  0  0  0  0  0  0
   50.9092    4.3976   23.4205 H   0  0  0  0  0  0  0  0  0  0  0  0
   48.9021    5.3182   15.3231 H   0  0  0  0  0  0  0  0  0  0  0  0
   49.6067   10.6935   22.7067 H   0  0  0  0  0  0  0  0  0  0  0  0
   48.3816    7.0267   13.5936 H   0  0  0  0  0  0  0  0  0  0  0  0
   47.8847   12.3409   21.9980 H   0  0  0  0  0  0  0  0  0  0  0  0
  2  1  1  0
  3  1  1  0
  4  2  2  0
  5  3  2  0
  6  4  1  0
  7  5  1  0
  8  1  1  0
  9  8  1  0
 10 13  1  0
 11  3  1  0
 12  2  1  0
 13  9  1  0
 14  5  1  0
 15  4  1  0
 16 10  1  0
 17 10  1  0
 18 12  2  0
 19 11  2  0
 20 15  2  0
 21 14  2  0
  6  7  1  0
 18 20  1  0
 19 21  1  0
 23 27  2  0
 24 28  1  0
 25 26  1  0
 26 22  2  0
 27 24  1  0
 28 25  1  0
 29 22  1  0
 30 23  1  0
 31 22  1  0
 32 23  1  0
 33 24  2  0
 34 35  1  0
 35 29  2  0
 36 33  1  0
 37 31  2  0
 38 32  2  0
 39 26  1  0
 40 27  1  0
 41 31  1  0
 42 32  1  0
 43 34  1  0
 44 33  1  0
 45 35  1  0
 46 36  1  0
 47 44  2  0
 48 43  2  0
 49 47  1  0
 50 45  2  0
 25 34  2  0
 48 50  1  0
 30 36  2  0
 46 49  2  0
 52 51  1  0
 53 51  1  0
 54 52  2  0
 55 53  2  0
 56 54  1  0
 57 55  1  0
 58 51  1  0
 59 58  1  0
 60 63  1  0
 61 53  1  0
 62 52  1  0
 63 59  1  0
 64 55  1  0
 65 54  1  0
 66 60  1  0
 67 60  1  0
 68 62  2  0
 69 61  2  0
 70 65  2  0
 71 64  2  0
 56 57  1  0
 68 70  1  0
 69 71  1  0
  6 72  1  0
  6 73  1  0
  7 74  1  0
  7 75  1  0
  8 76  1  0
  8 77  1  0
  9 78  1  0
  9 79  1  0
 11 80  1  0
 12 81  1  0
 13 82  1  0
 13 83  1  0
 14 84  1  0
 15 85  1  0
 16 86  1  0
 16 87  1  0
 16 88  1  0
 17 89  1  0
 17 90  1  0
 17 91  1  0
 18 92  1  0
 19 93  1  0
 20 94  1  0
 21 95  1  0
 28 96  1  0
 28 97  1  0
 29 98  1  0
 30 99  1  0
 39100  1  0
 40101  1  0
 41102  1  0
 42103  1  0
 43104  1  0
 44105  1  0
 45106  1  0
 46107  1  0
 47108  1  0
 48109  1  0
 49110  1  0
 50111  1  0
 56112  1  0
 56113  1  0
 57114  1  0
 57115  1  0
 58116  1  0
 58117  1  0
 59118  1  0
 59119  1  0
 61120  1  0
 62121  1  0
 63122  1  0
 63123  1  0
 64124  1  0
 65125  1  0
 66126  1  0
 66127  1  0
 66128  1  0
 67129  1  0
 67130  1  0
 67131  1  0
 68132  1  0
 69133  1  0
 70134  1  0
 71135  1  0
M  END
> <Uni-Dock RESULT> 
ENERGY=   -6.291  LOWER_BOUND=    2.561  UPPER_BOUND=    5.096
INTER + INTRA:          -6.291
INTER:                  -6.291
INTRA:                   0.000
UNBOUND:                 0.000

$$$$

     RDKit          3D

135142  0  0  0  0  0  0  0  0999 V2000
   45.7419   12.6089    9.8448 N   0  0  0  0  0  0  0  0  0  0  0  0
   47.1612   12.4714    9.8973 C   0  0  0  0  0  0  0  0  0  0  0  0
   44.9076   12.9287    8.7358 C   0  0  0  0  0  0  0  0  0  0  0  0
   48.0395   12.8621    8.8540 C   0  0  0  0  0  0  0  0  0  0  0  0
   45.2030   13.9617    7.8350 C   0  0  0  0  0  0  0  0  0  0  0  0
   47.6219   13.6404    7.6258 C   0  0  0  0  0  0  0  0  0  0  0  0
   46.5277   14.6692    7.8895 C   0  0  0  0  0  0  0  0  0  0  0  0
   44.9856   12.5582   11.1263 C   0  0  0  0  0  0  0  0  0  0  0  0
   45.1315   13.8428   11.9534 C   0  0  0  0  0  0  0  0  0  0  0  0
   44.1133   16.0688   12.3998 N   0  0  0  0  0  0  0  0  0  0  0  0
   43.7118   12.2109    8.5224 C   0  0  0  0  0  0  0  0  0  0  0  0
   47.7834   11.8466   11.0107 C   0  0  0  0  0  0  0  0  0  0  0  0
   44.2302   14.9716   11.4197 C   0  0  0  0  0  0  0  0  0  0  0  0
   44.2840   14.3151    6.8299 C   0  0  0  0  0  0  0  0  0  0  0  0
   49.4200   12.5516    8.9209 C   0  0  0  0  0  0  0  0  0  0  0  0
   45.2786   16.9509   12.3602 C   0  0  0  0  0  0  0  0  0  0  0  0
   42.8994   16.8480   12.1426 C   0  0  0  0  0  0  0  0  0  0  0  0
   49.1550   11.5796   11.0834 C   0  0  0  0  0  0  0  0  0  0  0  0
   42.8097   12.5525    7.5136 C   0  0  0  0  0  0  0  0  0  0  0  0
   49.9747   11.9140   10.0225 C   0  0  0  0  0  0  0  0  0  0  0  0
   43.0835   13.6257    6.6818 C   0  0  0  0  0  0  0  0  0  0  0  0
   47.2451   14.2519    7.4670 C   0  0  0  0  0  0  0  0  0  0  0  0
   46.4985   14.3934   13.5589 C   0  0  0  0  0  0  0  0  0  0  0  0
   45.5889   13.3871   11.5242 C   0  0  0  0  0  0  0  0  0  0  0  0
   45.9743   12.8101    8.9972 C   0  0  0  0  0  0  0  0  0  0  0  0
   46.9932   13.7633    8.7559 C   0  0  0  0  0  0  0  0  0  0  0  0
   46.5195   13.3939   12.5867 C   0  0  0  0  0  0  0  0  0  0  0  0
   45.7030   12.3278   10.4253 C   0  0  0  0  0  0  0  0  0  0  0  0
   46.4989   13.7556    6.3956 C   0  0  0  0  0  0  0  0  0  0  0  0
   45.5238   15.3882   13.5077 C   0  0  0  0  0  0  0  0  0  0  0  0
   48.2680   15.2810    7.1434 C   0  0  0  0  0  0  0  0  0  0  0  0
   47.4762   14.3946   14.6657 C   0  0  0  0  0  0  0  0  0  0  0  0
   44.5646   14.3865   11.4927 C   0  0  0  0  0  0  0  0  0  0  0  0
   45.2546   12.2665    7.8796 C   0  0  0  0  0  0  0  0  0  0  0  0
   45.5268   12.7682    6.5793 C   0  0  0  0  0  0  0  0  0  0  0  0
   44.5558   15.3913   12.4981 C   0  0  0  0  0  0  0  0  0  0  0  0
   48.5376   15.6990    6.0317 O   0  0  0  0  0  0  0  0  0  0  0  0
   47.8363   13.4384   15.3271 O   0  0  0  0  0  0  0  0  0  0  0  0
   47.7396   14.1706    9.8274 O   0  0  0  0  0  0  0  0  0  0  0  0
   47.5057   12.4463   12.6544 O   0  0  0  0  0  0  0  0  0  0  0  0
   48.9128   15.7492    8.2317 O   0  0  0  0  0  0  0  0  0  0  0  0
   47.9554   15.6313   14.8829 O   0  0  0  0  0  0  0  0  0  0  0  0
   44.2807   11.2396    7.9682 C   0  0  0  0  0  0  0  0  0  0  0  0
   43.5438   14.4545   10.5145 C   0  0  0  0  0  0  0  0  0  0  0  0
   44.8346   12.2718    5.4608 C   0  0  0  0  0  0  0  0  0  0  0  0
   43.5754   16.4010   12.4861 C   0  0  0  0  0  0  0  0  0  0  0  0
   42.5805   15.4692   10.5126 C   0  0  0  0  0  0  0  0  0  0  0  0
   43.6018   10.7534    6.8468 C   0  0  0  0  0  0  0  0  0  0  0  0
   42.5958   16.4447   11.4968 C   0  0  0  0  0  0  0  0  0  0  0  0
   43.8781   11.2697    5.5918 C   0  0  0  0  0  0  0  0  0  0  0  0
   46.0955   13.6069    9.3495 N   0  0  0  0  0  0  0  0  0  0  0  0
   47.4070   13.0314    9.4294 C   0  0  0  0  0  0  0  0  0  0  0  0
   45.0926   13.5125    8.3261 C   0  0  0  0  0  0  0  0  0  0  0  0
   48.2264   12.7994    8.3094 C   0  0  0  0  0  0  0  0  0  0  0  0
   45.2397   12.7796    7.1234 C   0  0  0  0  0  0  0  0  0  0  0  0
   47.7266   13.0205    6.9114 C   0  0  0  0  0  0  0  0  0  0  0  0
   46.5229   12.1190    6.6898 C   0  0  0  0  0  0  0  0  0  0  0  0
   45.9082   14.6850   10.3665 C   0  0  0  0  0  0  0  0  0  0  0  0
   45.0211   14.2554   11.5493 C   0  0  0  0  0  0  0  0  0  0  0  0
   43.9223   15.1282   13.6338 N   0  0  0  0  0  0  0  0  0  0  0  0
   43.8291   14.1395    8.4887 C   0  0  0  0  0  0  0  0  0  0  0  0
   47.9528   12.6796   10.6833 C   0  0  0  0  0  0  0  0  0  0  0  0
   44.6878   15.4707   12.4263 C   0  0  0  0  0  0  0  0  0  0  0  0
   44.1571   12.6414    6.2169 C   0  0  0  0  0  0  0  0  0  0  0  0
   49.5423   12.3133    8.4664 C   0  0  0  0  0  0  0  0  0  0  0  0
   43.8548   16.2898   14.5262 C   0  0  0  0  0  0  0  0  0  0  0  0
   42.5620   14.6829   13.3174 C   0  0  0  0  0  0  0  0  0  0  0  0
   49.2528   12.1832   10.8330 C   0  0  0  0  0  0  0  0  0  0  0  0
   42.7750   14.0247    7.5738 C   0  0  0  0  0  0  0  0  0  0  0  0
   50.0569   12.0117    9.7217 C   0  0  0  0  0  0  0  0  0  0  0  0
   42.9338   13.2556    6.4385 C   0  0  0  0  0  0  0  0  0  0  0  0
   47.3365   12.9205    6.8429 H   0  0  0  0  0  0  0  0  0  0  0  0
   48.4932   14.1930    7.2425 H   0  0  0  0  0  0  0  0  0  0  0  0
   46.6566   15.1934    8.8426 H   0  0  0  0  0  0  0  0  0  0  0  0
   46.5717   15.4306    7.1005 H   0  0  0  0  0  0  0  0  0  0  0  0
   43.9124   12.3858   10.9794 H   0  0  0  0  0  0  0  0  0  0  0  0
   45.2802   11.6877   11.7179 H   0  0  0  0  0  0  0  0  0  0  0  0
   46.1781   14.1677   12.0140 H   0  0  0  0  0  0  0  0  0  0  0  0
   44.8132   13.6022   12.9835 H   0  0  0  0  0  0  0  0  0  0  0  0
   43.4810   11.3458    9.1397 H   0  0  0  0  0  0  0  0  0  0  0  0
   47.2150   11.5253   11.8792 H   0  0  0  0  0  0  0  0  0  0  0  0
   43.2339   14.5435   11.2352 H   0  0  0  0  0  0  0  0  0  0  0  0
   44.5960   15.3484   10.4557 H   0  0  0  0  0  0  0  0  0  0  0  0
   44.5098   15.1288    6.1427 H   0  0  0  0  0  0  0  0  0  0  0  0
   50.0788   12.8221    8.0951 H   0  0  0  0  0  0  0  0  0  0  0  0
   45.3503   17.4986   11.4150 H   0  0  0  0  0  0  0  0  0  0  0  0
   45.2218   17.6837   13.1746 H   0  0  0  0  0  0  0  0  0  0  0  0
   46.2124   16.4010   12.5062 H   0  0  0  0  0  0  0  0  0  0  0  0
   42.0087   16.2126   12.2384 H   0  0  0  0  0  0  0  0  0  0  0  0
   42.7880   17.6481   12.8834 H   0  0  0  0  0  0  0  0  0  0  0  0
   42.8939   17.2955   11.1442 H   0  0  0  0  0  0  0  0  0  0  0  0
   49.5709   11.0914   11.9622 H   0  0  0  0  0  0  0  0  0  0  0  0
   41.8920   11.9809    7.3881 H   0  0  0  0  0  0  0  0  0  0  0  0
   51.0385   11.6935   10.0492 H   0  0  0  0  0  0  0  0  0  0  0  0
   42.3838   13.9100    5.8986 H   0  0  0  0  0  0  0  0  0  0  0  0
   46.4881   11.5949   10.6487 H   0  0  0  0  0  0  0  0  0  0  0  0
   44.7680   11.7664   10.4943 H   0  0  0  0  0  0  0  0  0  0  0  0
   46.6936   14.1382    5.3946 H   0  0  0  0  0  0  0  0  0  0  0  0
   45.5150   16.1631   14.2698 H   0  0  0  0  0  0  0  0  0  0  0  0
   48.3693   14.8612    9.5322 H   0  0  0  0  0  0  0  0  0  0  0  0
   47.0795   11.5723   12.6638 H   0  0  0  0  0  0  0  0  0  0  0  0
   49.5293   16.4171    7.8517 H   0  0  0  0  0  0  0  0  0  0  0  0
   48.6436   15.4967   15.5704 H   0  0  0  0  0  0  0  0  0  0  0  0
   44.0237   10.7800    8.9192 H   0  0  0  0  0  0  0  0  0  0  0  0
   43.4770   13.7119    9.7234 H   0  0  0  0  0  0  0  0  0  0  0  0
   45.0442   12.6595    4.4652 H   0  0  0  0  0  0  0  0  0  0  0  0
   43.5691   17.1731   13.2547 H   0  0  0  0  0  0  0  0  0  0  0  0
   41.8178   15.4901    9.7382 H   0  0  0  0  0  0  0  0  0  0  0  0
   42.8584    9.9642    6.9608 H   0  0  0  0  0  0  0  0  0  0  0  0
   41.8462   17.2313   11.4985 H   0  0  0  0  0  0  0  0  0  0  0  0
   43.3563   10.8940    4.7178 H   0  0  0  0  0  0  0  0  0  0  0  0
   48.5062   12.7486    6.1902 H   0  0  0  0  0  0  0  0  0  0  0  0
   47.5113   14.0844    6.7447 H   0  0  0  0  0  0  0  0  0  0  0  0
   46.4772   11.9156    5.6104 H   0  0  0  0  0  0  0  0  0  0  0  0
   46.6210   11.1439    7.1815 H   0  0  0  0  0  0  0  0  0  0  0  0
   45.5019   15.5860    9.8833 H   0  0  0  0  0  0  0  0  0  0  0  0
   46.8712   15.0401   10.7579 H   0  0  0  0  0  0  0  0  0  0  0  0
   45.5277   13.5032   12.1631 H   0  0  0  0  0  0  0  0  0  0  0  0
   44.1076   13.7725   11.1935 H   0  0  0  0  0  0  0  0  0  0  0  0
   43.5997   14.7483    9.3556 H   0  0  0  0  0  0  0  0  0  0  0  0
   47.3652   12.7681   11.5901 H   0  0  0  0  0  0  0  0  0  0  0  0
   44.1585   16.2289   11.8306 H   0  0  0  0  0  0  0  0  0  0  0  0
   45.6421   15.9202   12.7321 H   0  0  0  0  0  0  0  0  0  0  0  0
   44.2805   12.0485    5.3105 H   0  0  0  0  0  0  0  0  0  0  0  0
   50.1726   12.1521    7.5954 H   0  0  0  0  0  0  0  0  0  0  0  0
   43.3496   17.1445   14.0581 H   0  0  0  0  0  0  0  0  0  0  0  0
   43.3215   16.0405   15.4500 H   0  0  0  0  0  0  0  0  0  0  0  0
   44.8582   16.6079   14.8268 H   0  0  0  0  0  0  0  0  0  0  0  0
   42.5710   13.7403   12.7567 H   0  0  0  0  0  0  0  0  0  0  0  0
   42.0054   15.4287   12.7349 H   0  0  0  0  0  0  0  0  0  0  0  0
   41.9973   14.4787   14.2342 H   0  0  0  0  0  0  0  0  0  0  0  0
   49.6239   11.9358   11.8235 H   0  0  0  0  0  0  0  0  0  0  0  0
   41.8284   14.5221    7.7679 H   0  0  0  0  0  0  0  0  0  0  0  0
   51.0710   11.6345    9.8244 H   0  0  0  0  0  0  0  0  0  0  0  0
   42.1256   13.1413    5.7218 H   0  0  0  0  0  0  0  0  0  0  0  0
  2  1  1  0
  3  1  1  0
  4  2  2  0
  5  3  2  0
  6  4  1  0
  7  5  1  0
  8  1  1  0
  9  8  1  0
 10 13  1  0
 11  3  1  0
 12  2  1  0
 13  9  1  0
 14  5  1  0
 15  4  1  0
 16 10  1  0
 17 10  1  0
 18 12  2  0
 19 11  2  0
 20 15  2  0
 21 14  2  0
  6  7  1  0
 18 20  1  0
 19 21  1  0
 23 27  2  0
 24 28  1  0
 25 26  1  0
 26 22  2  0
 27 24  1  0
 28 25  1  0
 29 22  1  0
 30 23  1  0
 31 22  1  0
 32 23  1  0
 33 24  2  0
 34 35  1  0
 35 29  2  0
 36 33  1  0
 37 31  2  0
 38 32  2  0
 39 26  1  0
 40 27  1  0
 41 31  1  0
 42 32  1  0
 43 34  1  0
 44 33  1  0
 45 35  1  0
 46 36  1  0
 47 44  2  0
 48 43  2  0
 49 47  1  0
 50 45  2  0
 25 34  2  0
 48 50  1  0
 30 36  2  0
 46 49  2  0
 52 51  1  0
 53 51  1  0
 54 52  2  0
 55 53  2  0
 56 54  1  0
 57 55  1  0
 58 51  1  0
 59 58  1  0
 60 63  1  0
 61 53  1  0
 62 52  1  0
 63 59  1  0
 64 55  1  0
 65 54  1  0
 66 60  1  0
 67 60  1  0
 68 62  2  0
 69 61  2  0
 70 65  2  0
 71 64  2  0
 56 57  1  0
 68 70  1  0
 69 71  1  0
  6 72  1  0
  6 73  1  0
  7 74  1  0
  7 75  1  0
  8 76  1  0
  8 77  1  0
  9 78  1  0
  9 79  1  0
 11 80  1  0
 12 81  1  0
 13 82  1  0
 13 83  1  0
 14 84  1  0
 15 85  1  0
 16 86  1  0
 16 87  1  0
 16 88  1  0
 17 89  1  0
 17 90  1  0
 17 91  1  0
 18 92  1  0
 19 93  1  0
 20 94  1  0
 21 95  1  0
 28 96  1  0
 28 97  1  0
 29 98  1  0
 30 99  1  0
 39100  1  0
 40101  1  0
 41102  1  0
 42103  1  0
 43104  1  0
 44105  1  0
 45106  1  0
 46107  1  0
 47108  1  0
 48109  1  0
 49110  1  0
 50111  1  0
 56112  1  0
 56113  1  0
 57114  1  0
 57115  1  0
 58116  1  0
 58117  1  0
 59118  1  0
 59119  1  0
 61120  1  0
 62121  1  0
 63122  1  0
 63123  1  0
 64124  1  0
 65125  1  0
 66126  1  0
 66127  1  0
 66128  1  0
 67129  1  0
 67130  1  0
 67131  1  0
 68132  1  0
 69133  1  0
 70134  1  0
 71135  1  0
M  END
> <Uni-Dock RESULT> 
ENERGY=   -6.242  LOWER_BOUND=   10.913  UPPER_BOUND=   13.705
INTER + INTRA:          -6.242
INTER:                  -6.242
INTRA:                   0.000
UNBOUND:                 0.000

$$$$

     RDKit          3D

135142  0  0  0  0  0  0  0  0999 V2000
   48.7735   10.2518   15.4776 N   0  0  0  0  0  0  0  0  0  0  0  0
   48.4755    9.8314   16.8083 C   0  0  0  0  0  0  0  0  0  0  0  0
   49.0970    9.4658   14.3350 C   0  0  0  0  0  0  0  0  0  0  0  0
   48.6742    8.5124   17.2913 C   0  0  0  0  0  0  0  0  0  0  0  0
   50.0112    8.4036   14.3768 C   0  0  0  0  0  0  0  0  0  0  0  0
   49.3930    7.4187   16.5323 C   0  0  0  0  0  0  0  0  0  0  0  0
   50.5609    7.9181   15.6885 C   0  0  0  0  0  0  0  0  0  0  0  0
   48.9166   11.7112   15.2199 C   0  0  0  0  0  0  0  0  0  0  0  0
   50.2385   12.2815   15.7517 C   0  0  0  0  0  0  0  0  0  0  0  0
   52.5974   12.7846   15.1403 N   0  0  0  0  0  0  0  0  0  0  0  0
   48.5091    9.7602   13.0867 C   0  0  0  0  0  0  0  0  0  0  0  0
   47.8753   10.7299   17.7300 C   0  0  0  0  0  0  0  0  0  0  0  0
   51.4177   11.9598   14.8149 C   0  0  0  0  0  0  0  0  0  0  0  0
   50.3863    7.7394   13.1946 C   0  0  0  0  0  0  0  0  0  0  0  0
   48.2108    8.1389   18.5767 C   0  0  0  0  0  0  0  0  0  0  0  0
   53.3309   12.2455   16.2843 C   0  0  0  0  0  0  0  0  0  0  0  0
   53.4897   12.8687   13.9811 C   0  0  0  0  0  0  0  0  0  0  0  0
   47.4565   10.3598   19.0127 C   0  0  0  0  0  0  0  0  0  0  0  0
   48.8703    9.0882   11.9178 C   0  0  0  0  0  0  0  0  0  0  0  0
   47.6049    9.0511   19.4303 C   0  0  0  0  0  0  0  0  0  0  0  0
   49.8325    8.0930   11.9672 C   0  0  0  0  0  0  0  0  0  0  0  0
   50.0293    7.3278   16.1747 C   0  0  0  0  0  0  0  0  0  0  0  0
   50.7547   13.2461   17.6365 C   0  0  0  0  0  0  0  0  0  0  0  0
   49.6989   11.7784   15.9898 C   0  0  0  0  0  0  0  0  0  0  0  0
   48.8761    9.3585   15.4121 C   0  0  0  0  0  0  0  0  0  0  0  0
   49.6806    8.6730   16.3543 C   0  0  0  0  0  0  0  0  0  0  0  0
   49.6836   12.4499   17.2324 C   0  0  0  0  0  0  0  0  0  0  0  0
   48.5473   10.8394   15.6231 C   0  0  0  0  0  0  0  0  0  0  0  0
   49.5379    6.6425   15.0611 C   0  0  0  0  0  0  0  0  0  0  0  0
   51.8492   13.4149   16.7905 C   0  0  0  0  0  0  0  0  0  0  0  0
   50.9017    6.5553   17.0978 C   0  0  0  0  0  0  0  0  0  0  0  0
   50.7320   13.9433   18.9382 C   0  0  0  0  0  0  0  0  0  0  0  0
   50.8053   11.9821   15.1048 C   0  0  0  0  0  0  0  0  0  0  0  0
   48.3310    8.6266   14.3031 C   0  0  0  0  0  0  0  0  0  0  0  0
   48.6894    7.2623   14.1395 C   0  0  0  0  0  0  0  0  0  0  0  0
   51.8831   12.8045   15.5325 C   0  0  0  0  0  0  0  0  0  0  0  0
   51.1931    5.3776   16.9914 O   0  0  0  0  0  0  0  0  0  0  0  0
   49.7975   14.5490   19.4293 O   0  0  0  0  0  0  0  0  0  0  0  0
   50.0840    9.3687   17.4608 O   0  0  0  0  0  0  0  0  0  0  0  0
   48.6358   12.2869   18.0989 O   0  0  0  0  0  0  0  0  0  0  0  0
   51.3786    7.2943   18.1205 O   0  0  0  0  0  0  0  0  0  0  0  0
   51.9177   13.8366   19.5619 O   0  0  0  0  0  0  0  0  0  0  0  0
   47.4359    9.1630   13.3429 C   0  0  0  0  0  0  0  0  0  0  0  0
   50.9122   11.4114   13.8140 C   0  0  0  0  0  0  0  0  0  0  0  0
   48.1877    6.5147   13.0597 C   0  0  0  0  0  0  0  0  0  0  0  0
   52.9962   13.0102   14.6961 C   0  0  0  0  0  0  0  0  0  0  0  0
   52.0291   11.6200   12.9975 C   0  0  0  0  0  0  0  0  0  0  0  0
   46.9424    8.4069   12.2754 C   0  0  0  0  0  0  0  0  0  0  0  0
   53.0732   12.4178   13.4377 C   0  0  0  0  0  0  0  0  0  0  0  0
   47.3185    7.0817   12.1327 C   0  0  0  0  0  0  0  0  0  0  0  0
   49.6794    9.5519   15.7138 N   0  0  0  0  0  0  0  0  0  0  0  0
   48.9628    9.2453   16.9180 C   0  0  0  0  0  0  0  0  0  0  0  0
   49.6197    8.9520   14.4105 C   0  0  0  0  0  0  0  0  0  0  0  0
   48.5457    7.9481   17.2685 C   0  0  0  0  0  0  0  0  0  0  0  0
   48.7788    7.8664   14.0644 C   0  0  0  0  0  0  0  0  0  0  0  0
   48.7088    6.7897   16.3279 C   0  0  0  0  0  0  0  0  0  0  0  0
   47.9393    7.1008   15.0544 C   0  0  0  0  0  0  0  0  0  0  0  0
   50.8515   10.4375   15.9850 C   0  0  0  0  0  0  0  0  0  0  0  0
   50.6267   11.8941   15.5398 C   0  0  0  0  0  0  0  0  0  0  0  0
   51.7897   14.1110   15.3206 N   0  0  0  0  0  0  0  0  0  0  0  0
   50.4014    9.4622   13.3407 C   0  0  0  0  0  0  0  0  0  0  0  0
   48.6533   10.2689   17.8402 C   0  0  0  0  0  0  0  0  0  0  0  0
   51.9403   12.6830   15.6367 C   0  0  0  0  0  0  0  0  0  0  0  0
   48.6946    7.4079   12.7245 C   0  0  0  0  0  0  0  0  0  0  0  0
   47.9234    7.7014   18.5113 C   0  0  0  0  0  0  0  0  0  0  0  0
   53.0202   14.8295   15.6664 C   0  0  0  0  0  0  0  0  0  0  0  0
   51.4823   14.3336   13.9048 C   0  0  0  0  0  0  0  0  0  0  0  0
   48.0220   10.0220   19.0646 C   0  0  0  0  0  0  0  0  0  0  0  0
   50.3364    8.9833   12.0262 C   0  0  0  0  0  0  0  0  0  0  0  0
   47.6673    8.7311   19.4089 C   0  0  0  0  0  0  0  0  0  0  0  0
   49.4638    7.9609   11.7118 C   0  0  0  0  0  0  0  0  0  0  0  0
   48.6499    6.8711   15.9320 H   0  0  0  0  0  0  0  0  0  0  0  0
   49.8067    6.6984   17.2545 H   0  0  0  0  0  0  0  0  0  0  0  0
   51.1425    8.7010   16.1870 H   0  0  0  0  0  0  0  0  0  0  0  0
   51.2449    7.0780   15.5133 H   0  0  0  0  0  0  0  0  0  0  0  0
   48.8595   11.9616   14.1536 H   0  0  0  0  0  0  0  0  0  0  0  0
   48.0689   12.2642   15.6324 H   0  0  0  0  0  0  0  0  0  0  0  0
   50.4426   11.9418   16.7752 H   0  0  0  0  0  0  0  0  0  0  0  0
   50.1219   13.3791   15.7983 H   0  0  0  0  0  0  0  0  0  0  0  0
   47.7303   10.5163   13.0188 H   0  0  0  0  0  0  0  0  0  0  0  0
   47.6949   11.7718   17.4800 H   0  0  0  0  0  0  0  0  0  0  0  0
   51.0954   12.1789   13.7863 H   0  0  0  0  0  0  0  0  0  0  0  0
   51.6689   10.8916   14.8468 H   0  0  0  0  0  0  0  0  0  0  0  0
   51.1092    6.9259   13.2289 H   0  0  0  0  0  0  0  0  0  0  0  0
   48.3339    7.1119   18.9219 H   0  0  0  0  0  0  0  0  0  0  0  0
   53.7873   11.2754   16.0626 H   0  0  0  0  0  0  0  0  0  0  0  0
   54.1293   12.9381   16.5778 H   0  0  0  0  0  0  0  0  0  0  0  0
   52.6892   12.1266   17.1618 H   0  0  0  0  0  0  0  0  0  0  0  0
   52.9728   13.3373   13.1328 H   0  0  0  0  0  0  0  0  0  0  0  0
   54.3551   13.5035   14.2032 H   0  0  0  0  0  0  0  0  0  0  0  0
   53.8516   11.8872   13.6605 H   0  0  0  0  0  0  0  0  0  0  0  0
   46.9964   11.0942   19.6705 H   0  0  0  0  0  0  0  0  0  0  0  0
   48.4017    9.3524   10.9716 H   0  0  0  0  0  0  0  0  0  0  0  0
   47.2642    8.7379   20.4137 H   0  0  0  0  0  0  0  0  0  0  0  0
   50.1317    7.5689   11.0619 H   0  0  0  0  0  0  0  0  0  0  0  0
   47.7483   10.8651   16.3743 H   0  0  0  0  0  0  0  0  0  0  0  0
   48.1066   11.2895   14.7301 H   0  0  0  0  0  0  0  0  0  0  0  0
   49.8120    5.5978   14.9210 H   0  0  0  0  0  0  0  0  0  0  0  0
   52.6795   14.0374   17.1137 H   0  0  0  0  0  0  0  0  0  0  0  0
   50.6696    8.7970   18.0000 H   0  0  0  0  0  0  0  0  0  0  0  0
   47.8214   12.5441   17.6339 H   0  0  0  0  0  0  0  0  0  0  0  0
   51.9365    6.6507   18.6156 H   0  0  0  0  0  0  0  0  0  0  0  0
   51.7601   14.2579   20.4348 H   0  0  0  0  0  0  0  0  0  0  0  0
   47.0887   10.1915   13.4012 H   0  0  0  0  0  0  0  0  0  0  0  0
   50.1204   10.7839   13.4127 H   0  0  0  0  0  0  0  0  0  0  0  0
   48.4655    5.4692   12.9357 H   0  0  0  0  0  0  0  0  0  0  0  0
   53.8239   13.6382   15.0237 H   0  0  0  0  0  0  0  0  0  0  0  0
   52.0757   11.1565   12.0153 H   0  0  0  0  0  0  0  0  0  0  0  0
   46.2576    8.8602   11.5584 H   0  0  0  0  0  0  0  0  0  0  0  0
   53.9397   12.5834   12.8034 H   0  0  0  0  0  0  0  0  0  0  0  0
   46.9363    6.4896   11.3078 H   0  0  0  0  0  0  0  0  0  0  0  0
   48.2895    5.8826   16.7785 H   0  0  0  0  0  0  0  0  0  0  0  0
   49.7734    6.5830   16.1548 H   0  0  0  0  0  0  0  0  0  0  0  0
   47.6551    6.1340   14.6150 H   0  0  0  0  0  0  0  0  0  0  0  0
   47.0029    7.6402   15.2400 H   0  0  0  0  0  0  0  0  0  0  0  0
   51.7513   10.0202   15.5091 H   0  0  0  0  0  0  0  0  0  0  0  0
   51.1223   10.4312   17.0495 H   0  0  0  0  0  0  0  0  0  0  0  0
   49.8732   12.3814   16.1673 H   0  0  0  0  0  0  0  0  0  0  0  0
   50.2267   11.9317   14.5235 H   0  0  0  0  0  0  0  0  0  0  0  0
   51.1018   10.2774   13.4816 H   0  0  0  0  0  0  0  0  0  0  0  0
   48.8837   11.3049   17.6190 H   0  0  0  0  0  0  0  0  0  0  0  0
   52.7040   12.2197   14.9948 H   0  0  0  0  0  0  0  0  0  0  0  0
   52.2986   12.5888   16.6707 H   0  0  0  0  0  0  0  0  0  0  0  0
   48.0192    6.5903   12.4720 H   0  0  0  0  0  0  0  0  0  0  0  0
   47.6189    6.6926   18.7789 H   0  0  0  0  0  0  0  0  0  0  0  0
   53.8870   14.4656   15.0998 H   0  0  0  0  0  0  0  0  0  0  0  0
   52.9114   15.9025   15.4744 H   0  0  0  0  0  0  0  0  0  0  0  0
   53.2421   14.7292   16.7337 H   0  0  0  0  0  0  0  0  0  0  0  0
   50.5025   13.9185   13.6391 H   0  0  0  0  0  0  0  0  0  0  0  0
   52.2380   13.8934   13.2411 H   0  0  0  0  0  0  0  0  0  0  0  0
   51.4212   15.4055   13.6848 H   0  0  0  0  0  0  0  0  0  0  0  0
   47.8147   10.8475   19.7396 H   0  0  0  0  0  0  0  0  0  0  0  0
   50.9553    9.4297   11.2523 H   0  0  0  0  0  0  0  0  0  0  0  0
   47.1836    8.5242   20.3600 H   0  0  0  0  0  0  0  0  0  0  0  0
   49.3866    7.5826   10.6965 H   0  0  0  0  0  0  0  0  0  0  0  0
  2  1  1  0
  3  1  1  0
  4  2  2  0
  5  3  2  0
  6  4  1  0
  7  5  1  0
  8  1  1  0
  9  8  1  0
 10 13  1  0
 11  3  1  0
 12  2  1  0
 13  9  1  0
 14  5  1  0
 15  4  1  0
 16 10  1  0
 17 10  1  0
 18 12  2  0
 19 11  2  0
 20 15  2  0
 21 14  2  0
  6  7  1  0
 18 20  1  0
 19 21  1  0
 23 27  2  0
 24 28  1  0
 25 26  1  0
 26 22  2  0
 27 24  1  0
 28 25  1  0
 29 22  1  0
 30 23  1  0
 31 22  1  0
 32 23  1  0
 33 24  2  0
 34 35  1  0
 35 29  2  0
 36 33  1  0
 37 31  2  0
 38 32  2  0
 39 26  1  0
 40 27  1  0
 41 31  1  0
 42 32  1  0
 43 34  1  0
 44 33  1  0
 45 35  1  0
 46 36  1  0
 47 44  2  0
 48 43  2  0
 49 47  1  0
 50 45  2  0
 25 34  2  0
 48 50  1  0
 30 36  2  0
 46 49  2  0
 52 51  1  0
 53 51  1  0
 54 52  2  0
 55 53  2  0
 56 54  1  0
 57 55  1  0
 58 51  1  0
 59 58  1  0
 60 63  1  0
 61 53  1  0
 62 52  1  0
 63 59  1  0
 64 55  1  0
 65 54  1  0
 66 60  1  0
 67 60  1  0
 68 62  2  0
 69 61  2  0
 70 65  2  0
 71 64  2  0
 56 57  1  0
 68 70  1  0
 69 71  1  0
  6 72  1  0
  6 73  1  0
  7 74  1  0
  7 75  1  0
  8 76  1  0
  8 77  1  0
  9 78  1  0
  9 79  1  0
 11 80  1  0
 12 81  1  0
 13 82  1  0
 13 83  1  0
 14 84  1  0
 15 85  1  0
 16 86  1  0
 16 87  1  0
 16 88  1  0
 17 89  1  0
 17 90  1  0
 17 91  1  0
 18 92  1  0
 19 93  1  0
 20 94  1  0
 21 95  1  0
 28 96  1  0
 28 97  1  0
 29 98  1  0
 30 99  1  0
 39100  1  0
 40101  1  0
 41102  1  0
 42103  1  0
 43104  1  0
 44105  1  0
 45106  1  0
 46107  1  0
 47108  1  0
 48109  1  0
 49110  1  0
 50111  1  0
 56112  1  0
 56113  1  0
 57114  1  0
 57115  1  0
 58116  1  0
 58117  1  0
 59118  1  0
 59119  1  0
 61120  1  0
 62121  1  0
 63122  1  0
 63123  1  0
 64124  1  0
 65125  1  0
 66126  1  0
 66127  1  0
 66128  1  0
 67129  1  0
 67130  1  0
 67131  1  0
 68132  1  0
 69133  1  0
 70134  1  0
 71135  1  0
M  END
> <Uni-Dock RESULT> 
ENERGY=   -6.181  LOWER_BOUND=    3.992  UPPER_BOUND=    6.939
INTER + INTRA:          -6.181
INTER:                  -6.181
INTRA:                   0.000
UNBOUND:                 0.000

$$$$

     RDKit          3D

135142  0  0  0  0  0  0  0  0999 V2000
   49.5863    7.9064   17.5435 N   0  0  0  0  0  0  0  0  0  0  0  0
   50.8214    8.5226   17.9053 C   0  0  0  0  0  0  0  0  0  0  0  0
   49.1688    6.5556   17.7138 C   0  0  0  0  0  0  0  0  0  0  0  0
   51.9775    7.8107   18.3166 C   0  0  0  0  0  0  0  0  0  0  0  0
   49.9904    5.4614   17.4077 C   0  0  0  0  0  0  0  0  0  0  0  0
   52.1269    6.3064   18.2561 C   0  0  0  0  0  0  0  0  0  0  0  0
   51.4373    5.6654   17.0566 C   0  0  0  0  0  0  0  0  0  0  0  0
   48.6120    8.7043   16.7491 C   0  0  0  0  0  0  0  0  0  0  0  0
   49.0269    8.8558   15.2792 C   0  0  0  0  0  0  0  0  0  0  0  0
   48.7915    7.8535   13.0140 N   0  0  0  0  0  0  0  0  0  0  0  0
   47.8690    6.2728   18.1840 C   0  0  0  0  0  0  0  0  0  0  0  0
   50.9368    9.9378   17.9415 C   0  0  0  0  0  0  0  0  0  0  0  0
   48.7144    7.5875   14.4636 C   0  0  0  0  0  0  0  0  0  0  0  0
   49.4860    4.1499   17.4782 C   0  0  0  0  0  0  0  0  0  0  0  0
   53.1132    8.5023   18.8050 C   0  0  0  0  0  0  0  0  0  0  0  0
   50.1742    7.8447   12.5389 C   0  0  0  0  0  0  0  0  0  0  0  0
   48.0128    6.8558   12.2756 C   0  0  0  0  0  0  0  0  0  0  0  0
   52.0785   10.6114   18.3893 C   0  0  0  0  0  0  0  0  0  0  0  0
   47.3765    4.9696   18.2694 C   0  0  0  0  0  0  0  0  0  0  0  0
   53.1649    9.8892   18.8448 C   0  0  0  0  0  0  0  0  0  0  0  0
   48.1782    3.9060   17.8890 C   0  0  0  0  0  0  0  0  0  0  0  0
   52.0322    5.7661   17.7661 C   0  0  0  0  0  0  0  0  0  0  0  0
   50.1343   10.4134   14.2319 C   0  0  0  0  0  0  0  0  0  0  0  0
   49.3723    8.8745   15.9730 C   0  0  0  0  0  0  0  0  0  0  0  0
   50.0456    7.2070   17.8791 C   0  0  0  0  0  0  0  0  0  0  0  0
   51.3618    6.9485   17.4254 C   0  0  0  0  0  0  0  0  0  0  0  0
   50.0027   10.0753   15.5784 C   0  0  0  0  0  0  0  0  0  0  0  0
   49.3308    8.4933   17.4547 C   0  0  0  0  0  0  0  0  0  0  0  0
   51.3990    4.8444   18.6031 C   0  0  0  0  0  0  0  0  0  0  0  0
   49.6073    9.5733   13.2528 C   0  0  0  0  0  0  0  0  0  0  0  0
   53.3959    5.4077   17.2952 C   0  0  0  0  0  0  0  0  0  0  0  0
   50.7965   11.6699   13.8273 C   0  0  0  0  0  0  0  0  0  0  0  0
   48.7975    8.0306   14.9698 C   0  0  0  0  0  0  0  0  0  0  0  0
   49.4295    6.2782   18.7849 C   0  0  0  0  0  0  0  0  0  0  0  0
   50.1254    5.0880   19.1248 C   0  0  0  0  0  0  0  0  0  0  0  0
   48.9354    8.3978   13.6035 C   0  0  0  0  0  0  0  0  0  0  0  0
   54.0206    4.4083   17.6019 O   0  0  0  0  0  0  0  0  0  0  0  0
   50.6497   12.7700   14.3270 O   0  0  0  0  0  0  0  0  0  0  0  0
   51.9637    7.9103   16.6614 O   0  0  0  0  0  0  0  0  0  0  0  0
   50.5535   10.9119   16.5122 O   0  0  0  0  0  0  0  0  0  0  0  0
   53.9232    6.3193   16.4523 O   0  0  0  0  0  0  0  0  0  0  0  0
   51.6253   11.4644   12.7895 O   0  0  0  0  0  0  0  0  0  0  0  0
   48.1600    6.4612   19.3897 C   0  0  0  0  0  0  0  0  0  0  0  0
   48.0938    6.8326   15.2401 C   0  0  0  0  0  0  0  0  0  0  0  0
   49.5512    4.1473   19.9977 C   0  0  0  0  0  0  0  0  0  0  0  0
   48.4002    7.5810   12.5899 C   0  0  0  0  0  0  0  0  0  0  0  0
   47.5739    6.0279   14.2203 C   0  0  0  0  0  0  0  0  0  0  0  0
   47.6022    5.5183   20.2586 C   0  0  0  0  0  0  0  0  0  0  0  0
   47.7277    6.3997   12.8942 C   0  0  0  0  0  0  0  0  0  0  0  0
   48.2976    4.3600   20.5629 C   0  0  0  0  0  0  0  0  0  0  0  0
   50.3643    7.1805   17.0597 N   0  0  0  0  0  0  0  0  0  0  0  0
   51.3407    7.9770   17.7451 C   0  0  0  0  0  0  0  0  0  0  0  0
   49.6289    6.0250   17.4909 C   0  0  0  0  0  0  0  0  0  0  0  0
   52.2391    7.4610   18.6971 C   0  0  0  0  0  0  0  0  0  0  0  0
   49.7544    5.4241   18.7671 C   0  0  0  0  0  0  0  0  0  0  0  0
   52.1520    6.0387   19.1690 C   0  0  0  0  0  0  0  0  0  0  0  0
   50.7817    5.8289   19.7927 C   0  0  0  0  0  0  0  0  0  0  0  0
   50.3628    7.4600   15.5921 C   0  0  0  0  0  0  0  0  0  0  0  0
   49.1559    8.3003   15.1362 C   0  0  0  0  0  0  0  0  0  0  0  0
   48.0284    9.2161   13.0856 N   0  0  0  0  0  0  0  0  0  0  0  0
   48.6641    5.4210   16.6424 C   0  0  0  0  0  0  0  0  0  0  0  0
   51.4536    9.3568   17.4668 C   0  0  0  0  0  0  0  0  0  0  0  0
   49.0987    8.3510   13.6027 C   0  0  0  0  0  0  0  0  0  0  0  0
   48.9066    4.3552   19.1560 C   0  0  0  0  0  0  0  0  0  0  0  0
   53.2350    8.2820   19.2686 C   0  0  0  0  0  0  0  0  0  0  0  0
   48.1915    9.3993   11.6399 C   0  0  0  0  0  0  0  0  0  0  0  0
   46.6961    8.6674   13.3553 C   0  0  0  0  0  0  0  0  0  0  0  0
   52.4329   10.1706   18.0476 C   0  0  0  0  0  0  0  0  0  0  0  0
   47.8523    4.3448   17.0222 C   0  0  0  0  0  0  0  0  0  0  0  0
   53.3369    9.6291   18.9423 C   0  0  0  0  0  0  0  0  0  0  0  0
   47.9616    3.8195   18.2941 C   0  0  0  0  0  0  0  0  0  0  0  0
   51.7751    5.8871   19.2116 H   0  0  0  0  0  0  0  0  0  0  0  0
   53.1965    6.0588   18.1787 H   0  0  0  0  0  0  0  0  0  0  0  0
   51.5418    6.2555   16.1397 H   0  0  0  0  0  0  0  0  0  0  0  0
   51.9104    4.6942   16.8642 H   0  0  0  0  0  0  0  0  0  0  0  0
   47.6028    8.2750   16.7599 H   0  0  0  0  0  0  0  0  0  0  0  0
   48.4503    9.6852   17.2031 H   0  0  0  0  0  0  0  0  0  0  0  0
   50.0837    9.1364   15.1844 H   0  0  0  0  0  0  0  0  0  0  0  0
   48.4373    9.6913   14.8611 H   0  0  0  0  0  0  0  0  0  0  0  0
   47.2245    7.0830   18.5172 H   0  0  0  0  0  0  0  0  0  0  0  0
   50.1242   10.5872   17.6275 H   0  0  0  0  0  0  0  0  0  0  0  0
   47.6928    7.2701   14.7194 H   0  0  0  0  0  0  0  0  0  0  0  0
   49.3816    6.7620   14.7437 H   0  0  0  0  0  0  0  0  0  0  0  0
   50.1222    3.3038   17.2236 H   0  0  0  0  0  0  0  0  0  0  0  0
   53.9813    7.9431   19.1553 H   0  0  0  0  0  0  0  0  0  0  0  0
   50.6296    6.8517   12.6112 H   0  0  0  0  0  0  0  0  0  0  0  0
   50.2118    8.1607   11.4891 H   0  0  0  0  0  0  0  0  0  0  0  0
   50.8014    8.5476   13.0942 H   0  0  0  0  0  0  0  0  0  0  0  0
   46.9560    6.8987   12.5717 H   0  0  0  0  0  0  0  0  0  0  0  0
   48.0398    7.0617   11.1995 H   0  0  0  0  0  0  0  0  0  0  0  0
   48.3735    5.8366   12.4437 H   0  0  0  0  0  0  0  0  0  0  0  0
   52.1027   11.6990   18.3991 H   0  0  0  0  0  0  0  0  0  0  0  0
   46.3636    4.7932   18.6266 H   0  0  0  0  0  0  0  0  0  0  0  0
   54.0518   10.3934   19.2192 H   0  0  0  0  0  0  0  0  0  0  0  0
   47.8033    2.8860   17.9397 H   0  0  0  0  0  0  0  0  0  0  0  0
   49.7417    9.2882   18.0895 H   0  0  0  0  0  0  0  0  0  0  0  0
   48.2653    8.4651   17.6958 H   0  0  0  0  0  0  0  0  0  0  0  0
   51.9198    3.9243   18.8648 H   0  0  0  0  0  0  0  0  0  0  0  0
   49.7145    9.8449   12.2059 H   0  0  0  0  0  0  0  0  0  0  0  0
   52.8434    7.5857   16.3763 H   0  0  0  0  0  0  0  0  0  0  0  0
   49.8541   11.1586   17.1411 H   0  0  0  0  0  0  0  0  0  0  0  0
   54.8004    5.9307   16.2288 H   0  0  0  0  0  0  0  0  0  0  0  0
   52.0625   12.3349   12.6651 H   0  0  0  0  0  0  0  0  0  0  0  0
   47.5656    7.3525   19.2059 H   0  0  0  0  0  0  0  0  0  0  0  0
   47.9352    6.4955   16.2613 H   0  0  0  0  0  0  0  0  0  0  0  0
   50.0863    3.2347   20.2554 H   0  0  0  0  0  0  0  0  0  0  0  0
   48.5073    7.8601   11.5424 H   0  0  0  0  0  0  0  0  0  0  0  0
   47.0466    5.1107   14.4703 H   0  0  0  0  0  0  0  0  0  0  0  0
   46.6217    5.6983   20.6997 H   0  0  0  0  0  0  0  0  0  0  0  0
   47.3215    5.7775   12.1015 H   0  0  0  0  0  0  0  0  0  0  0  0
   47.8706    3.6263   21.2387 H   0  0  0  0  0  0  0  0  0  0  0  0
   52.9170    5.8523   19.9316 H   0  0  0  0  0  0  0  0  0  0  0  0
   52.3660    5.3468   18.3435 H   0  0  0  0  0  0  0  0  0  0  0  0
   50.8927    5.0215   20.5304 H   0  0  0  0  0  0  0  0  0  0  0  0
   50.4246    6.7044   20.3479 H   0  0  0  0  0  0  0  0  0  0  0  0
   50.4108    6.5137   15.0330 H   0  0  0  0  0  0  0  0  0  0  0  0
   51.2852    7.9673   15.2786 H   0  0  0  0  0  0  0  0  0  0  0  0
   49.2247    9.3226   15.5226 H   0  0  0  0  0  0  0  0  0  0  0  0
   48.2261    7.8972   15.5451 H   0  0  0  0  0  0  0  0  0  0  0  0
   48.4896    5.7733   15.6323 H   0  0  0  0  0  0  0  0  0  0  0  0
   50.7603    9.8465   16.7924 H   0  0  0  0  0  0  0  0  0  0  0  0
   49.0076    7.3325   13.1972 H   0  0  0  0  0  0  0  0  0  0  0  0
   50.0644    8.7428   13.2560 H   0  0  0  0  0  0  0  0  0  0  0  0
   48.9982    3.9251   20.1536 H   0  0  0  0  0  0  0  0  0  0  0  0
   53.9342    7.8694   19.9918 H   0  0  0  0  0  0  0  0  0  0  0  0
   48.1300    8.4506   11.0914 H   0  0  0  0  0  0  0  0  0  0  0  0
   47.4249   10.0744   11.2441 H   0  0  0  0  0  0  0  0  0  0  0  0
   49.1567    9.8637   11.4135 H   0  0  0  0  0  0  0  0  0  0  0  0
   46.4880    8.6358   14.4318 H   0  0  0  0  0  0  0  0  0  0  0  0
   46.5730    7.6555   12.9476 H   0  0  0  0  0  0  0  0  0  0  0  0
   45.9183    9.3052   12.9202 H   0  0  0  0  0  0  0  0  0  0  0  0
   52.4782   11.2252   17.7911 H   0  0  0  0  0  0  0  0  0  0  0  0
   47.1241    3.9388   16.3250 H   0  0  0  0  0  0  0  0  0  0  0  0
   54.1073   10.2479   19.3947 H   0  0  0  0  0  0  0  0  0  0  0  0
   47.3330    2.9938   18.6151 H   0  0  0  0  0  0  0  0  0  0  0  0
  2  1  1  0
  3  1  1  0
  4  2  2  0
  5  3  2  0
  6  4  1  0
  7  5  1  0
  8  1  1  0
  9  8  1  0
 10 13  1  0
 11  3  1  0
 12  2  1  0
 13  9  1  0
 14  5  1  0
 15  4  1  0
 16 10  1  0
 17 10  1  0
 18 12  2  0
 19 11  2  0
 20 15  2  0
 21 14  2  0
  6  7  1  0
 18 20  1  0
 19 21  1  0
 23 27  2  0
 24 28  1  0
 25 26  1  0
 26 22  2  0
 27 24  1  0
 28 25  1  0
 29 22  1  0
 30 23  1  0
 31 22  1  0
 32 23  1  0
 33 24  2  0
 34 35  1  0
 35 29  2  0
 36 33  1  0
 37 31  2  0
 38 32  2  0
 39 26  1  0
 40 27  1  0
 41 31  1  0
 42 32  1  0
 43 34  1  0
 44 33  1  0
 45 35  1  0
 46 36  1  0
 47 44  2  0
 48 43  2  0
 49 47  1  0
 50 45  2  0
 25 34  2  0
 48 50  1  0
 30 36  2  0
 46 49  2  0
 52 51  1  0
 53 51  1  0
 54 52  2  0
 55 53  2  0
 56 54  1  0
 57 55  1  0
 58 51  1  0
 59 58  1  0
 60 63  1  0
 61 53  1  0
 62 52  1  0
 63 59  1  0
 64 55  1  0
 65 54  1  0
 66 60  1  0
 67 60  1  0
 68 62  2  0
 69 61  2  0
 70 65  2  0
 71 64  2  0
 56 57  1  0
 68 70  1  0
 69 71  1  0
  6 72  1  0
  6 73  1  0
  7 74  1  0
  7 75  1  0
  8 76  1  0
  8 77  1  0
  9 78  1  0
  9 79  1  0
 11 80  1  0
 12 81  1  0
 13 82  1  0
 13 83  1  0
 14 84  1  0
 15 85  1  0
 16 86  1  0
 16 87  1  0
 16 88  1  0
 17 89  1  0
 17 90  1  0
 17 91  1  0
 18 92  1  0
 19 93  1  0
 20 94  1  0
 21 95  1  0
 28 96  1  0
 28 97  1  0
 29 98  1  0
 30 99  1  0
 39100  1  0
 40101  1  0
 41102  1  0
 42103  1  0
 43104  1  0
 44105  1  0
 45106  1  0
 46107  1  0
 47108  1  0
 48109  1  0
 49110  1  0
 50111  1  0
 56112  1  0
 56113  1  0
 57114  1  0
 57115  1  0
 58116  1  0
 58117  1  0
 59118  1  0
 59119  1  0
 61120  1  0
 62121  1  0
 63122  1  0
 63123  1  0
 64124  1  0
 65125  1  0
 66126  1  0
 66127  1  0
 66128  1  0
 67129  1  0
 67130  1  0
 67131  1  0
 68132  1  0
 69133  1  0
 70134  1  0
 71135  1  0
M  END
> <Uni-Dock RESULT> 
ENERGY=   -6.150  LOWER_BOUND=    2.916  UPPER_BOUND=    5.436
INTER + INTRA:          -6.150
INTER:                  -6.150
INTRA:                   0.000
UNBOUND:                 0.000

$$$$
