
     RDKit          3D

 84 92  0  0  0  0  0  0  0  0999 V2000
    4.6970    3.0556   -1.2724 C   0  0  0  0  0  0  0  0  0  0  0  0
    4.4124    2.5611    0.0066 C   0  0  0  0  0  0  0  0  0  0  0  0
    5.3116    2.7881    1.0538 C   0  0  0  0  0  0  0  0  0  0  0  0
    6.4801    3.5053    0.8085 C   0  0  0  0  0  0  0  0  0  0  0  0
    6.7655    3.9991   -0.4632 C   0  0  0  0  0  0  0  0  0  0  0  0
    5.8720    3.7735   -1.5094 C   0  0  0  0  0  0  0  0  0  0  0  0
   -3.2692    5.1400    0.3257 C   0  0  0  0  0  0  0  0  0  0  0  0
   -3.7379    6.2679   -0.3416 C   0  0  0  0  0  0  0  0  0  0  0  0
   -3.3271    6.5536   -1.6445 C   0  0  0  0  0  0  0  0  0  0  0  0
   -2.4250    5.7000   -2.2812 C   0  0  0  0  0  0  0  0  0  0  0  0
   -1.9468    4.5661   -1.6176 C   0  0  0  0  0  0  0  0  0  0  0  0
   -2.3715    4.2756   -0.3123 C   0  0  0  0  0  0  0  0  0  0  0  0
    1.9736   -0.3376    0.1431 N   0  0  0  0  0  0  0  0  0  0  0  0
    3.0670    0.4705    0.0362 C   0  0  0  0  0  0  0  0  0  0  0  0
    4.2413   -0.3505   -0.4126 C   0  0  0  0  0  0  0  0  0  0  0  0
    3.7998   -1.7615   -0.1098 C   0  0  0  0  0  0  0  0  0  0  0  0
    2.2857   -1.6581   -0.0090 C   0  0  0  0  0  0  0  0  0  0  0  0
    0.6029    2.1409    0.3428 N   0  0  0  0  0  0  0  0  0  0  0  0
   -0.3140    3.0708    0.7439 C   0  0  0  0  0  0  0  0  0  0  0  0
    0.3584    4.0518    1.4432 C   0  0  0  0  0  0  0  0  0  0  0  0
    1.7433    3.7426    1.3912 C   0  0  0  0  0  0  0  0  0  0  0  0
    1.8624    2.5844    0.6597 C   0  0  0  0  0  0  0  0  0  0  0  0
   -2.2956    0.5157    0.5703 N   0  0  0  0  0  0  0  0  0  0  0  0
   -3.3893   -0.3133    0.6408 C   0  0  0  0  0  0  0  0  0  0  0  0
   -4.5170    0.4570    0.8017 C   0  0  0  0  0  0  0  0  0  0  0  0
   -4.0927    1.8098    0.7925 C   0  0  0  0  0  0  0  0  0  0  0  0
   -2.7228    1.8196    0.6084 C   0  0  0  0  0  0  0  0  0  0  0  0
   -0.8271   -1.8787    0.2412 N   0  0  0  0  0  0  0  0  0  0  0  0
    0.1410   -2.8422    0.0839 C   0  0  0  0  0  0  0  0  0  0  0  0
   -0.5840   -4.1127    0.0631 C   0  0  0  0  0  0  0  0  0  0  0  0
   -1.8836   -3.8773    0.2138 C   0  0  0  0  0  0  0  0  0  0  0  0
   -2.0700   -2.4512    0.3351 C   0  0  0  0  0  0  0  0  0  0  0  0
    1.5097   -2.7934   -0.0359 C   0  0  0  0  0  0  0  0  0  0  0  0
    3.1673    1.8093    0.2455 C   0  0  0  0  0  0  0  0  0  0  0  0
   -1.8369    3.0925    0.4015 C   0  0  0  0  0  0  0  0  0  0  0  0
   -3.2950   -1.8868    0.5109 C   0  0  0  0  0  0  0  0  0  0  0  0
    2.2327   -4.0919   -0.2037 C   0  0  0  0  0  0  0  0  0  0  0  0
    2.4068   -4.6383   -1.4831 C   0  0  0  0  0  0  0  0  0  0  0  0
    3.0700   -5.8538   -1.6317 C   0  0  0  0  0  0  0  0  0  0  0  0
    3.5660   -6.5403   -0.5262 C   0  0  0  0  0  0  0  0  0  0  0  0
    3.3936   -6.0037    0.7510 C   0  0  0  0  0  0  0  0  0  0  0  0
    2.7281   -4.7846    0.9120 C   0  0  0  0  0  0  0  0  0  0  0  0
   -4.5353   -2.6837    0.5902 C   0  0  0  0  0  0  0  0  0  0  0  0
   -5.2225   -3.0417   -0.5742 C   0  0  0  0  0  0  0  0  0  0  0  0
   -6.3921   -3.7865   -0.4834 C   0  0  0  0  0  0  0  0  0  0  0  0
   -6.9008   -4.1730    0.7567 C   0  0  0  0  0  0  0  0  0  0  0  0
   -6.2192   -3.8176    1.9213 C   0  0  0  0  0  0  0  0  0  0  0  0
   -5.0379   -3.0783    1.8375 C   0  0  0  0  0  0  0  0  0  0  0  0
   -7.0304   -4.1239   -1.6436 O   0  0  0  0  0  0  0  0  0  0  0  0
    3.2428   -6.4063   -2.8713 O   0  0  0  0  0  0  0  0  0  0  0  0
    7.3783    3.7433    1.8119 O   0  0  0  0  0  0  0  0  0  0  0  0
   -4.6114    7.0873    0.3172 O   0  0  0  0  0  0  0  0  0  0  0  0
    3.9924    2.8642   -2.0784 H   0  0  0  0  0  0  0  0  0  0  0  0
    5.0747    2.3903    2.0360 H   0  0  0  0  0  0  0  0  0  0  0  0
    7.6812    4.5552   -0.6359 H   0  0  0  0  0  0  0  0  0  0  0  0
    6.0819    4.1442   -2.5077 H   0  0  0  0  0  0  0  0  0  0  0  0
   -3.5831    4.9419    1.3490 H   0  0  0  0  0  0  0  0  0  0  0  0
   -3.6904    7.4303   -2.1710 H   0  0  0  0  0  0  0  0  0  0  0  0
   -2.0894    5.9065   -3.2964 H   0  0  0  0  0  0  0  0  0  0  0  0
   -1.2379    3.9028   -2.1128 H   0  0  0  0  0  0  0  0  0  0  0  0
    5.1712   -0.1142    0.1124 H   0  0  0  0  0  0  0  0  0  0  0  0
    4.4021   -0.2198   -1.4901 H   0  0  0  0  0  0  0  0  0  0  0  0
    4.1580   -2.4375   -0.8924 H   0  0  0  0  0  0  0  0  0  0  0  0
    4.2164   -2.0887    0.8525 H   0  0  0  0  0  0  0  0  0  0  0  0
    0.4508    1.2294   -0.0899 H   0  0  0  0  0  0  0  0  0  0  0  0
   -0.0939    4.9155    1.9065 H   0  0  0  0  0  0  0  0  0  0  0  0
    2.5566    4.3122    1.8124 H   0  0  0  0  0  0  0  0  0  0  0  0
   -1.3533    0.1347    0.4574 H   0  0  0  0  0  0  0  0  0  0  0  0
   -5.5274    0.0856    0.8842 H   0  0  0  0  0  0  0  0  0  0  0  0
   -4.7325    2.6774    0.8585 H   0  0  0  0  0  0  0  0  0  0  0  0
   -0.1523   -5.0917   -0.0471 H   0  0  0  0  0  0  0  0  0  0  0  0
   -2.6518   -4.6280    0.2390 H   0  0  0  0  0  0  0  0  0  0  0  0
    2.0112   -4.0853   -2.3292 H   0  0  0  0  0  0  0  0  0  0  0  0
    4.0762   -7.4892   -0.6611 H   0  0  0  0  0  0  0  0  0  0  0  0
    3.7681   -6.5292    1.6243 H   0  0  0  0  0  0  0  0  0  0  0  0
    2.5779   -4.3507    1.8980 H   0  0  0  0  0  0  0  0  0  0  0  0
   -4.8236   -2.7433   -1.5401 H   0  0  0  0  0  0  0  0  0  0  0  0
   -7.8148   -4.7491    0.8335 H   0  0  0  0  0  0  0  0  0  0  0  0
   -6.5939   -4.1210    2.8936 H   0  0  0  0  0  0  0  0  0  0  0  0
   -4.4941   -2.8006    2.7382 H   0  0  0  0  0  0  0  0  0  0  0  0
   -7.8205   -4.6350   -1.4133 H   0  0  0  0  0  0  0  0  0  0  0  0
    2.7870   -5.8122   -3.4922 H   0  0  0  0  0  0  0  0  0  0  0  0
    7.0379    3.2931    2.6032 H   0  0  0  0  0  0  0  0  0  0  0  0
   -4.8390    7.8181   -0.2759 H   0  0  0  0  0  0  0  0  0  0  0  0
 25 26  2  0
 26 27  1  0
 27 23  1  0
 28 29  1  0
  1  2  2  0
  3  4  2  0
  7  8  2  0
 14 15  1  0
 29 30  1  0
 30 31  2  0
 31 32  1  0
 32 28  2  0
 15 16  1  0
 29 33  2  0
 17 33  1  0
 16 17  1  0
 14 34  2  0
 22 34  1  0
 17 13  2  0
 27 35  2  0
 19 35  1  0
 18 19  1  0
 24 36  2  0
 32 36  1  0
  8  9  1  0
  4  5  1  0
 37 38  2  0
  9 10  2  0
 38 39  1  0
  2  3  1  0
 39 40  2  0
 10 11  1  0
 40 41  1  0
 19 20  2  0
 41 42  2  0
 42 37  1  0
 33 37  1  0
 20 21  1  0
 21 22  2  0
 43 44  2  0
 22 18  1  0
 44 45  1  0
 23 24  1  0
 45 46  2  0
  5  6  2  0
 46 47  1  0
 11 12  2  0
 47 48  2  0
 48 43  1  0
 36 43  1  0
 12  7  1  0
 45 49  1  0
 13 14  1  0
 39 50  1  0
 35 12  1  0
 34  2  1  0
  6  1  1  0
  4 51  1  0
 24 25  1  0
  8 52  1  0
  1 53  1  0
  3 54  1  0
  5 55  1  0
  6 56  1  0
  7 57  1  0
  9 58  1  0
 10 59  1  0
 11 60  1  0
 15 61  1  0
 15 62  1  0
 16 63  1  0
 16 64  1  0
 18 65  1  0
 20 66  1  0
 21 67  1  0
 23 68  1  0
 25 69  1  0
 26 70  1  0
 30 71  1  0
 31 72  1  0
 38 73  1  0
 40 74  1  0
 41 75  1  0
 42 76  1  0
 44 77  1  0
 46 78  1  0
 47 79  1  0
 48 80  1  0
 49 81  1  0
 50 82  1  0
 51 83  1  0
 52 84  1  0
M  END
$$$$
