
     RDKit          3D

 84 92  0  0  0  0  0  0  0  0999 V2000
   -5.4049    1.9158    0.5053 C   0  0  0  0  0  0  0  0  0  0  0  0
   -4.8534    1.3715   -0.6629 C   0  0  0  0  0  0  0  0  0  0  0  0
   -5.6486    1.2483   -1.8081 C   0  0  0  0  0  0  0  0  0  0  0  0
   -6.9746    1.6708   -1.7744 C   0  0  0  0  0  0  0  0  0  0  0  0
   -7.5265    2.2096   -0.6125 C   0  0  0  0  0  0  0  0  0  0  0  0
   -6.7379    2.3297    0.5319 C   0  0  0  0  0  0  0  0  0  0  0  0
    0.9673    4.8202    0.9196 C   0  0  0  0  0  0  0  0  0  0  0  0
    1.1604    6.0571    1.5313 C   0  0  0  0  0  0  0  0  0  0  0  0
    1.6819    7.1338    0.8207 C   0  0  0  0  0  0  0  0  0  0  0  0
    2.0205    6.9743   -0.5251 C   0  0  0  0  0  0  0  0  0  0  0  0
    1.8284    5.7399   -1.1507 C   0  0  0  0  0  0  0  0  0  0  0  0
    1.3034    4.6601   -0.4296 C   0  0  0  0  0  0  0  0  0  0  0  0
   -1.7479   -0.6981    0.0403 N   0  0  0  0  0  0  0  0  0  0  0  0
   -3.0151   -0.2108   -0.0978 C   0  0  0  0  0  0  0  0  0  0  0  0
   -3.9839   -1.1666    0.5389 C   0  0  0  0  0  0  0  0  0  0  0  0
   -3.1675   -2.4218    0.7097 C   0  0  0  0  0  0  0  0  0  0  0  0
   -1.7253   -1.9665    0.5460 C   0  0  0  0  0  0  0  0  0  0  0  0
   -1.0238    1.8483   -0.9041 N   0  0  0  0  0  0  0  0  0  0  0  0
   -0.3521    2.9135   -1.4363 C   0  0  0  0  0  0  0  0  0  0  0  0
   -1.2279    3.5980   -2.2547 C   0  0  0  0  0  0  0  0  0  0  0  0
   -2.4981    2.9699   -2.1429 C   0  0  0  0  0  0  0  0  0  0  0  0
   -2.3468    1.9287   -1.2575 C   0  0  0  0  0  0  0  0  0  0  0  0
    2.1892    1.0041   -0.7193 N   0  0  0  0  0  0  0  0  0  0  0  0
    3.4535    0.4692   -0.6770 C   0  0  0  0  0  0  0  0  0  0  0  0
    4.3434    1.4206   -1.1151 C   0  0  0  0  0  0  0  0  0  0  0  0
    3.5919    2.5948   -1.3849 C   0  0  0  0  0  0  0  0  0  0  0  0
    2.2710    2.3168   -1.0968 C   0  0  0  0  0  0  0  0  0  0  0  0
    1.3575   -1.4906    0.2539 N   0  0  0  0  0  0  0  0  0  0  0  0
    0.6476   -2.5768    0.7010 C   0  0  0  0  0  0  0  0  0  0  0  0
    1.6585   -3.5838    1.0242 C   0  0  0  0  0  0  0  0  0  0  0  0
    2.8650   -3.1010    0.7502 C   0  0  0  0  0  0  0  0  0  0  0  0
    2.7015   -1.7614    0.2393 C   0  0  0  0  0  0  0  0  0  0  0  0
   -0.6954   -2.8257    0.8523 C   0  0  0  0  0  0  0  0  0  0  0  0
   -3.4381    0.9488   -0.6754 C   0  0  0  0  0  0  0  0  0  0  0  0
    1.1034    3.3529   -1.0885 C   0  0  0  0  0  0  0  0  0  0  0  0
    3.7505   -0.9929   -0.1568 C   0  0  0  0  0  0  0  0  0  0  0  0
   -1.0838   -4.1792    1.3525 C   0  0  0  0  0  0  0  0  0  0  0  0
   -1.3500   -5.2091    0.4391 C   0  0  0  0  0  0  0  0  0  0  0  0
   -1.6990   -6.4735    0.9028 C   0  0  0  0  0  0  0  0  0  0  0  0
   -1.7884   -6.7372    2.2636 C   0  0  0  0  0  0  0  0  0  0  0  0
   -1.5220   -5.7204    3.1805 C   0  0  0  0  0  0  0  0  0  0  0  0
   -1.1722   -4.4464    2.7252 C   0  0  0  0  0  0  0  0  0  0  0  0
    5.1485   -1.4612   -0.1054 C   0  0  0  0  0  0  0  0  0  0  0  0
    5.6803   -2.2033   -1.1641 C   0  0  0  0  0  0  0  0  0  0  0  0
    7.0009   -2.6417   -1.1006 C   0  0  0  0  0  0  0  0  0  0  0  0
    7.8017   -2.3464   -0.0016 C   0  0  0  0  0  0  0  0  0  0  0  0
    7.2729   -1.6054    1.0565 C   0  0  0  0  0  0  0  0  0  0  0  0
    5.9490   -1.1648    1.0044 C   0  0  0  0  0  0  0  0  0  0  0  0
    7.5447   -3.3785   -2.1160 O   0  0  0  0  0  0  0  0  0  0  0  0
   -1.9590   -7.4929    0.0276 O   0  0  0  0  0  0  0  0  0  0  0  0
   -7.7238    1.5505   -2.9104 O   0  0  0  0  0  0  0  0  0  0  0  0
    0.8479    6.2468    2.8471 O   0  0  0  0  0  0  0  0  0  0  0  0
   -4.7786    2.0032    1.3914 H   0  0  0  0  0  0  0  0  0  0  0  0
   -5.2233    0.8218   -2.7123 H   0  0  0  0  0  0  0  0  0  0  0  0
   -8.5585    2.5403   -0.5787 H   0  0  0  0  0  0  0  0  0  0  0  0
   -7.1519    2.7411    1.4479 H   0  0  0  0  0  0  0  0  0  0  0  0
    0.5572    3.9695    1.4646 H   0  0  0  0  0  0  0  0  0  0  0  0
    1.8252    8.0913    1.3128 H   0  0  0  0  0  0  0  0  0  0  0  0
    2.4337    7.8055   -1.0884 H   0  0  0  0  0  0  0  0  0  0  0  0
    2.0892    5.6123   -2.2010 H   0  0  0  0  0  0  0  0  0  0  0  0
   -4.3066   -0.7884    1.5174 H   0  0  0  0  0  0  0  0  0  0  0  0
   -4.8708   -1.3653   -0.0725 H   0  0  0  0  0  0  0  0  0  0  0  0
   -3.3817   -2.8650    1.6891 H   0  0  0  0  0  0  0  0  0  0  0  0
   -3.4315   -3.1393   -0.0760 H   0  0  0  0  0  0  0  0  0  0  0  0
   -0.6814    1.0863   -0.3176 H   0  0  0  0  0  0  0  0  0  0  0  0
   -0.9973    4.4792   -2.8318 H   0  0  0  0  0  0  0  0  0  0  0  0
   -3.4184    3.2697   -2.6207 H   0  0  0  0  0  0  0  0  0  0  0  0
    1.3730    0.4566   -0.4413 H   0  0  0  0  0  0  0  0  0  0  0  0
    5.4116    1.2981   -1.1990 H   0  0  0  0  0  0  0  0  0  0  0  0
    3.9856    3.5493   -1.7014 H   0  0  0  0  0  0  0  0  0  0  0  0
    1.4741   -4.5678    1.4165 H   0  0  0  0  0  0  0  0  0  0  0  0
    3.7938   -3.6253    0.8863 H   0  0  0  0  0  0  0  0  0  0  0  0
   -1.2723   -4.9764   -0.6194 H   0  0  0  0  0  0  0  0  0  0  0  0
   -2.0578   -7.7266    2.6094 H   0  0  0  0  0  0  0  0  0  0  0  0
   -1.5789   -5.9157    4.2456 H   0  0  0  0  0  0  0  0  0  0  0  0
   -0.9531   -3.6454    3.4263 H   0  0  0  0  0  0  0  0  0  0  0  0
    5.0390   -2.4229   -2.0131 H   0  0  0  0  0  0  0  0  0  0  0  0
    8.8273   -2.6973    0.0364 H   0  0  0  0  0  0  0  0  0  0  0  0
    7.8834   -1.3718    1.9235 H   0  0  0  0  0  0  0  0  0  0  0  0
    5.5227   -0.5914    1.8266 H   0  0  0  0  0  0  0  0  0  0  0  0
    6.8243   -3.5476   -2.7498 H   0  0  0  0  0  0  0  0  0  0  0  0
   -1.7847   -7.1307   -0.8601 H   0  0  0  0  0  0  0  0  0  0  0  0
   -8.6259    1.8327   -2.6963 H   0  0  0  0  0  0  0  0  0  0  0  0
    0.5578    5.3822    3.1902 H   0  0  0  0  0  0  0  0  0  0  0  0
 25 26  2  0
 26 27  1  0
 27 23  1  0
 28 29  1  0
  1  2  2  0
  3  4  2  0
  7  8  2  0
 14 15  1  0
 29 30  1  0
 30 31  2  0
 31 32  1  0
 32 28  2  0
 15 16  1  0
 29 33  2  0
 17 33  1  0
 16 17  1  0
 14 34  2  0
 22 34  1  0
 17 13  2  0
 27 35  2  0
 19 35  1  0
 18 19  1  0
 24 36  2  0
 32 36  1  0
  8  9  1  0
  4  5  1  0
 37 38  2  0
  9 10  2  0
 38 39  1  0
  2  3  1  0
 39 40  2  0
 10 11  1  0
 40 41  1  0
 19 20  2  0
 41 42  2  0
 42 37  1  0
 33 37  1  0
 20 21  1  0
 21 22  2  0
 43 44  2  0
 22 18  1  0
 44 45  1  0
 23 24  1  0
 45 46  2  0
  5  6  2  0
 46 47  1  0
 11 12  2  0
 47 48  2  0
 48 43  1  0
 36 43  1  0
 12  7  1  0
 45 49  1  0
 13 14  1  0
 39 50  1  0
 35 12  1  0
 34  2  1  0
  6  1  1  0
  4 51  1  0
 24 25  1  0
  8 52  1  0
  1 53  1  0
  3 54  1  0
  5 55  1  0
  6 56  1  0
  7 57  1  0
  9 58  1  0
 10 59  1  0
 11 60  1  0
 15 61  1  0
 15 62  1  0
 16 63  1  0
 16 64  1  0
 18 65  1  0
 20 66  1  0
 21 67  1  0
 23 68  1  0
 25 69  1  0
 26 70  1  0
 30 71  1  0
 31 72  1  0
 38 73  1  0
 40 74  1  0
 41 75  1  0
 42 76  1  0
 44 77  1  0
 46 78  1  0
 47 79  1  0
 48 80  1  0
 49 81  1  0
 50 82  1  0
 51 83  1  0
 52 84  1  0
M  END
$$$$
