
     RDKit          3D

 52 60  0  0  0  0  0  0  0  0999 V2000
    2.4981    4.2865    1.3922 C   0  0  0  0  0  0  0  0  0  0  0  0
    2.3687    4.0858    0.0345 C   0  0  0  0  0  0  0  0  0  0  0  0
    2.8855    4.9749   -0.8810 C   0  0  0  0  0  0  0  0  0  0  0  0
    3.5536    6.1013   -0.4471 C   0  0  0  0  0  0  0  0  0  0  0  0
    3.7006    6.3318    0.9049 C   0  0  0  0  0  0  0  0  0  0  0  0
    3.1781    5.4338    1.7993 C   0  0  0  0  0  0  0  0  0  0  0  0
    4.0410   -2.2273    1.5950 C   0  0  0  0  0  0  0  0  0  0  0  0
    5.0820   -2.7704    2.3161 C   0  0  0  0  0  0  0  0  0  0  0  0
    6.1666   -3.3298    1.6808 C   0  0  0  0  0  0  0  0  0  0  0  0
    6.1945   -3.3378    0.2942 C   0  0  0  0  0  0  0  0  0  0  0  0
    5.1337   -2.7845   -0.4316 C   0  0  0  0  0  0  0  0  0  0  0  0
    4.0566   -2.2291    0.2220 C   0  0  0  0  0  0  0  0  0  0  0  0
   -0.5629    2.0529   -0.3856 N   0  0  0  0  0  0  0  0  0  0  0  0
    0.3129    2.9892   -0.7677 C   0  0  0  0  0  0  0  0  0  0  0  0
   -0.3993    4.1054   -1.4858 C   0  0  0  0  0  0  0  0  0  0  0  0
   -1.8210    3.9502   -0.9245 C   0  0  0  0  0  0  0  0  0  0  0  0
   -1.7800    2.5206   -0.5429 C   0  0  0  0  0  0  0  0  0  0  0  0
    2.0653    0.5636   -0.3403 N   0  0  0  0  0  0  0  0  0  0  0  0
    2.9930   -0.2881   -0.7501 C   0  0  0  0  0  0  0  0  0  0  0  0
    3.9693    0.3780   -1.4609 C   0  0  0  0  0  0  0  0  0  0  0  0
    3.6167    1.7108   -1.4857 C   0  0  0  0  0  0  0  0  0  0  0  0
    2.4201    1.7808   -0.7731 C   0  0  0  0  0  0  0  0  0  0  0  0
    0.5667   -2.0203   -0.5236 N   0  0  0  0  0  0  0  0  0  0  0  0
   -0.2335   -3.0092   -0.9689 C   0  0  0  0  0  0  0  0  0  0  0  0
    0.5079   -4.0325   -1.5170 C   0  0  0  0  0  0  0  0  0  0  0  0
    1.8280   -3.6543   -1.4030 C   0  0  0  0  0  0  0  0  0  0  0  0
    1.8294   -2.4180   -0.7908 C   0  0  0  0  0  0  0  0  0  0  0  0
   -1.9795   -0.5724   -0.3885 N   0  0  0  0  0  0  0  0  0  0  0  0
   -2.8561    0.3526   -0.7842 C   0  0  0  0  0  0  0  0  0  0  0  0
   -3.7973   -0.2490   -1.7347 C   0  0  0  0  0  0  0  0  0  0  0  0
   -3.4615   -1.5186   -1.8847 C   0  0  0  0  0  0  0  0  0  0  0  0
   -2.2871   -1.7103   -1.0091 C   0  0  0  0  0  0  0  0  0  0  0  0
   -2.8492    1.6633   -0.3430 C   0  0  0  0  0  0  0  0  0  0  0  0
    1.6715    2.9118   -0.5220 C   0  0  0  0  0  0  0  0  0  0  0  0
    2.9163   -1.6343   -0.4628 C   0  0  0  0  0  0  0  0  0  0  0  0
   -1.5858   -2.8924   -0.8351 C   0  0  0  0  0  0  0  0  0  0  0  0
   -4.0603    2.1071    0.3608 C   0  0  0  0  0  0  0  0  0  0  0  0
   -4.1560    1.9628    1.7489 C   0  0  0  0  0  0  0  0  0  0  0  0
   -5.2797    2.3689    2.4409 C   0  0  0  0  0  0  0  0  0  0  0  0
   -6.3321    2.9310    1.7391 C   0  0  0  0  0  0  0  0  0  0  0  0
   -6.2539    3.0807    0.3681 C   0  0  0  0  0  0  0  0  0  0  0  0
   -5.1232    2.6692   -0.3068 C   0  0  0  0  0  0  0  0  0  0  0  0
   -2.3854   -4.0779   -0.4837 C   0  0  0  0  0  0  0  0  0  0  0  0
   -2.6504   -4.4237    0.8209 C   0  0  0  0  0  0  0  0  0  0  0  0
   -3.4117   -5.5528    1.1220 C   0  0  0  0  0  0  0  0  0  0  0  0
   -3.8955   -6.3197    0.0600 C   0  0  0  0  0  0  0  0  0  0  0  0
   -3.6109   -5.9445   -1.2394 C   0  0  0  0  0  0  0  0  0  0  0  0
   -2.8548   -4.8233   -1.5469 C   0  0  0  0  0  0  0  0  0  0  0  0
   -3.6898   -5.9178    2.4342 O   0  0  0  0  0  0  0  0  0  0  0  0
   -5.3310    2.2060    3.8198 O   0  0  0  0  0  0  0  0  0  0  0  0
    4.0585    6.9708   -1.4188 O   0  0  0  0  0  0  0  0  0  0  0  0
    5.0333   -2.7515    3.6850 O   0  0  0  0  0  0  0  0  0  0  0  0
 25 26  2  0
 26 27  1  0
 27 23  1  0
 28 29  1  0
  1  2  2  0
  3  4  2  0
  7  8  2  0
 14 15  1  0
 29 30  1  0
 30 31  2  0
 31 32  1  0
 32 28  2  0
 15 16  1  0
 29 33  2  0
 17 33  1  0
 16 17  1  0
 14 34  2  0
 22 34  1  0
 17 13  2  0
 27 35  2  0
 19 35  1  0
 18 19  1  0
 24 36  2  0
 32 36  1  0
  8  9  1  0
  4  5  1  0
 37 38  2  0
  9 10  2  0
 38 39  1  0
  2  3  1  0
 39 40  2  0
 10 11  1  0
 40 41  1  0
 19 20  2  0
 41 42  2  0
 42 37  1  0
 33 37  1  0
 20 21  1  0
 21 22  2  0
 43 44  2  0
 22 18  1  0
 44 45  1  0
 23 24  1  0
 45 46  2  0
  5  6  2  0
 46 47  1  0
 11 12  2  0
 47 48  2  0
 48 43  1  0
 36 43  1  0
 12  7  1  0
 45 49  1  0
 13 14  1  0
 39 50  1  0
 35 12  1  0
 34  2  1  0
  6  1  1  0
  4 51  1  0
 24 25  1  0
  8 52  1  0
M  END
