
     RDKit          3D

 84 92  0  0  0  0  0  0  0  0999 V2000
   -5.5578   -1.1551    1.4643 C   0  0  0  0  0  0  0  0  0  0  0  0
   -4.9308   -1.2989    0.2199 C   0  0  0  0  0  0  0  0  0  0  0  0
   -5.6611   -1.7865   -0.8699 C   0  0  0  0  0  0  0  0  0  0  0  0
   -7.0014   -2.1240   -0.7031 C   0  0  0  0  0  0  0  0  0  0  0  0
   -7.6294   -1.9778    0.5297 C   0  0  0  0  0  0  0  0  0  0  0  0
   -6.9048   -1.4932    1.6194 C   0  0  0  0  0  0  0  0  0  0  0  0
   -0.8890    5.8643   -1.0176 C   0  0  0  0  0  0  0  0  0  0  0  0
   -1.3021    7.1915   -0.9627 C   0  0  0  0  0  0  0  0  0  0  0  0
   -2.0684    7.6604    0.1028 C   0  0  0  0  0  0  0  0  0  0  0  0
   -2.4283    6.7845    1.1273 C   0  0  0  0  0  0  0  0  0  0  0  0
   -2.0207    5.4493    1.0797 C   0  0  0  0  0  0  0  0  0  0  0  0
   -1.2478    4.9815    0.0084 C   0  0  0  0  0  0  0  0  0  0  0  0
   -1.1588   -1.6334    0.0412 N   0  0  0  0  0  0  0  0  0  0  0  0
   -2.5048   -1.8289    0.1349 C   0  0  0  0  0  0  0  0  0  0  0  0
   -2.7694   -3.2857    0.4014 C   0  0  0  0  0  0  0  0  0  0  0  0
   -1.4952   -3.9347   -0.0702 C   0  0  0  0  0  0  0  0  0  0  0  0
   -0.4710   -2.8146    0.0222 C   0  0  0  0  0  0  0  0  0  0  0  0
   -1.9180    1.1381    0.0663 N   0  0  0  0  0  0  0  0  0  0  0  0
   -1.9498    2.4720   -0.2517 C   0  0  0  0  0  0  0  0  0  0  0  0
   -3.1915    2.7390   -0.8039 C   0  0  0  0  0  0  0  0  0  0  0  0
   -3.9544    1.5492   -0.7636 C   0  0  0  0  0  0  0  0  0  0  0  0
   -3.1492    0.5861   -0.2063 C   0  0  0  0  0  0  0  0  0  0  0  0
    1.2924    1.9721    0.0580 N   0  0  0  0  0  0  0  0  0  0  0  0
    2.6361    2.1132    0.3293 C   0  0  0  0  0  0  0  0  0  0  0  0
    2.8912    3.4335    0.6155 C   0  0  0  0  0  0  0  0  0  0  0  0
    1.6569    4.1172    0.5226 C   0  0  0  0  0  0  0  0  0  0  0  0
    0.6827    3.1986    0.1687 C   0  0  0  0  0  0  0  0  0  0  0  0
    1.9098   -0.8096    0.1865 N   0  0  0  0  0  0  0  0  0  0  0  0
    1.8880   -2.1813    0.1176 C   0  0  0  0  0  0  0  0  0  0  0  0
    3.2900   -2.5884    0.1442 C   0  0  0  0  0  0  0  0  0  0  0  0
    4.0582   -1.5079    0.2285 C   0  0  0  0  0  0  0  0  0  0  0  0
    3.1973   -0.3497    0.2499 C   0  0  0  0  0  0  0  0  0  0  0  0
    0.8728   -3.1031    0.0415 C   0  0  0  0  0  0  0  0  0  0  0  0
   -3.5139   -0.9242    0.0512 C   0  0  0  0  0  0  0  0  0  0  0  0
   -0.8327    3.5576   -0.0417 C   0  0  0  0  0  0  0  0  0  0  0  0
    3.6744    0.9200    0.3172 C   0  0  0  0  0  0  0  0  0  0  0  0
    1.2511   -4.5482   -0.0246 C   0  0  0  0  0  0  0  0  0  0  0  0
    1.4305   -5.1880   -1.2601 C   0  0  0  0  0  0  0  0  0  0  0  0
    1.7825   -6.5326   -1.2968 C   0  0  0  0  0  0  0  0  0  0  0  0
    1.9631   -7.2586   -0.1192 C   0  0  0  0  0  0  0  0  0  0  0  0
    1.7934   -6.6273    1.1135 C   0  0  0  0  0  0  0  0  0  0  0  0
    1.4384   -5.2786    1.1600 C   0  0  0  0  0  0  0  0  0  0  0  0
    5.1186    1.2316    0.3466 C   0  0  0  0  0  0  0  0  0  0  0  0
    5.8557    1.2478   -0.8426 C   0  0  0  0  0  0  0  0  0  0  0  0
    7.2122    1.5588   -0.8077 C   0  0  0  0  0  0  0  0  0  0  0  0
    7.8451    1.8656    0.3926 C   0  0  0  0  0  0  0  0  0  0  0  0
    7.1159    1.8450    1.5816 C   0  0  0  0  0  0  0  0  0  0  0  0
    5.7562    1.5249    1.5587 C   0  0  0  0  0  0  0  0  0  0  0  0
    7.9607    1.5642   -1.9512 O   0  0  0  0  0  0  0  0  0  0  0  0
    1.9510   -7.1276   -2.5162 O   0  0  0  0  0  0  0  0  0  0  0  0
   -7.7368   -2.6090   -1.7475 O   0  0  0  0  0  0  0  0  0  0  0  0
   -0.9376    8.0197   -1.9852 O   0  0  0  0  0  0  0  0  0  0  0  0
   -4.9790   -0.7816    2.3071 H   0  0  0  0  0  0  0  0  0  0  0  0
   -5.1543   -1.8940   -1.8251 H   0  0  0  0  0  0  0  0  0  0  0  0
   -8.6744   -2.2462    0.6411 H   0  0  0  0  0  0  0  0  0  0  0  0
   -7.3807   -1.3800    2.5882 H   0  0  0  0  0  0  0  0  0  0  0  0
   -0.2929    5.5085   -1.8550 H   0  0  0  0  0  0  0  0  0  0  0  0
   -2.3920    8.6939    0.1513 H   0  0  0  0  0  0  0  0  0  0  0  0
   -3.0280    7.1327    1.9634 H   0  0  0  0  0  0  0  0  0  0  0  0
   -2.3053    4.7621    1.8751 H   0  0  0  0  0  0  0  0  0  0  0  0
   -3.6285   -3.6990   -0.1341 H   0  0  0  0  0  0  0  0  0  0  0  0
   -2.9126   -3.4521    1.4760 H   0  0  0  0  0  0  0  0  0  0  0  0
   -1.2805   -4.8094    0.5514 H   0  0  0  0  0  0  0  0  0  0  0  0
   -1.5991   -4.2600   -1.1135 H   0  0  0  0  0  0  0  0  0  0  0  0
   -1.1399    0.5623    0.3898 H   0  0  0  0  0  0  0  0  0  0  0  0
   -3.5240    3.6944   -1.1826 H   0  0  0  0  0  0  0  0  0  0  0  0
   -4.9687    1.4074   -1.1059 H   0  0  0  0  0  0  0  0  0  0  0  0
    0.8839    1.0555   -0.1376 H   0  0  0  0  0  0  0  0  0  0  0  0
    3.8523    3.8568    0.8688 H   0  0  0  0  0  0  0  0  0  0  0  0
    1.5029    5.1731    0.6985 H   0  0  0  0  0  0  0  0  0  0  0  0
    3.6567   -3.5981    0.1077 H   0  0  0  0  0  0  0  0  0  0  0  0
    5.1319   -1.5071    0.2750 H   0  0  0  0  0  0  0  0  0  0  0  0
    1.2904   -4.6184   -2.1743 H   0  0  0  0  0  0  0  0  0  0  0  0
    2.2361   -8.3067   -0.1422 H   0  0  0  0  0  0  0  0  0  0  0  0
    1.9339   -7.1731    2.0398 H   0  0  0  0  0  0  0  0  0  0  0  0
    1.3010   -4.7671    2.1102 H   0  0  0  0  0  0  0  0  0  0  0  0
    5.3434    1.0075   -1.7702 H   0  0  0  0  0  0  0  0  0  0  0  0
    8.9020    2.1109    0.4016 H   0  0  0  0  0  0  0  0  0  0  0  0
    7.5992    2.0757    2.5257 H   0  0  0  0  0  0  0  0  0  0  0  0
    5.1776    1.5024    2.4807 H   0  0  0  0  0  0  0  0  0  0  0  0
    7.3955    1.1887   -2.6500 H   0  0  0  0  0  0  0  0  0  0  0  0
    2.1993   -8.0496   -2.3630 H   0  0  0  0  0  0  0  0  0  0  0  0
   -7.1201   -2.7011   -2.4947 H   0  0  0  0  0  0  0  0  0  0  0  0
   -1.3255    8.8930   -1.8213 H   0  0  0  0  0  0  0  0  0  0  0  0
 25 26  2  0
 26 27  1  0
 27 23  1  0
 28 29  1  0
  1  2  2  0
  3  4  2  0
  7  8  2  0
 14 15  1  0
 29 30  1  0
 30 31  2  0
 31 32  1  0
 32 28  2  0
 15 16  1  0
 29 33  2  0
 17 33  1  0
 16 17  1  0
 14 34  2  0
 22 34  1  0
 17 13  2  0
 27 35  2  0
 19 35  1  0
 18 19  1  0
 24 36  2  0
 32 36  1  0
  8  9  1  0
  4  5  1  0
 37 38  2  0
  9 10  2  0
 38 39  1  0
  2  3  1  0
 39 40  2  0
 10 11  1  0
 40 41  1  0
 19 20  2  0
 41 42  2  0
 42 37  1  0
 33 37  1  0
 20 21  1  0
 21 22  2  0
 43 44  2  0
 22 18  1  0
 44 45  1  0
 23 24  1  0
 45 46  2  0
  5  6  2  0
 46 47  1  0
 11 12  2  0
 47 48  2  0
 48 43  1  0
 36 43  1  0
 12  7  1  0
 45 49  1  0
 13 14  1  0
 39 50  1  0
 35 12  1  0
 34  2  1  0
  6  1  1  0
  4 51  1  0
 24 25  1  0
  8 52  1  0
  1 53  1  0
  3 54  1  0
  5 55  1  0
  6 56  1  0
  7 57  1  0
  9 58  1  0
 10 59  1  0
 11 60  1  0
 15 61  1  0
 15 62  1  0
 16 63  1  0
 16 64  1  0
 18 65  1  0
 20 66  1  0
 21 67  1  0
 23 68  1  0
 25 69  1  0
 26 70  1  0
 30 71  1  0
 31 72  1  0
 38 73  1  0
 40 74  1  0
 41 75  1  0
 42 76  1  0
 44 77  1  0
 46 78  1  0
 47 79  1  0
 48 80  1  0
 49 81  1  0
 50 82  1  0
 51 83  1  0
 52 84  1  0
M  END
$$$$
