
     RDKit          3D

 84 92  0  0  0  0  0  0  0  0999 V2000
    0.3745   -5.8666   -1.6934 C   0  0  0  0  0  0  0  0  0  0  0  0
    0.3119   -5.1118   -0.5148 C   0  0  0  0  0  0  0  0  0  0  0  0
    0.3022   -5.7630    0.7248 C   0  0  0  0  0  0  0  0  0  0  0  0
    0.3548   -7.1536    0.7738 C   0  0  0  0  0  0  0  0  0  0  0  0
    0.4214   -7.9067   -0.3944 C   0  0  0  0  0  0  0  0  0  0  0  0
    0.4295   -7.2617   -1.6325 C   0  0  0  0  0  0  0  0  0  0  0  0
    6.0413    0.0499   -0.0027 C   0  0  0  0  0  0  0  0  0  0  0  0
    7.3614    0.3403   -0.3381 C   0  0  0  0  0  0  0  0  0  0  0  0
    7.6573    1.2356   -1.3605 C   0  0  0  0  0  0  0  0  0  0  0  0
    6.6192    1.8545   -2.0582 C   0  0  0  0  0  0  0  0  0  0  0  0
    5.2916    1.5678   -1.7325 C   0  0  0  0  0  0  0  0  0  0  0  0
    4.9955    0.6581   -0.7100 C   0  0  0  0  0  0  0  0  0  0  0  0
   -1.1692   -1.6259   -0.4308 N   0  0  0  0  0  0  0  0  0  0  0  0
   -0.9297   -2.9675   -0.4800 C   0  0  0  0  0  0  0  0  0  0  0  0
   -2.2382   -3.7033   -0.3871 C   0  0  0  0  0  0  0  0  0  0  0  0
   -3.2414   -2.6415   -0.7500 C   0  0  0  0  0  0  0  0  0  0  0  0
   -2.5072   -1.3422   -0.4600 C   0  0  0  0  0  0  0  0  0  0  0  0
    1.6965   -1.4772   -0.3320 N   0  0  0  0  0  0  0  0  0  0  0  0
    2.9920   -1.0697   -0.5399 C   0  0  0  0  0  0  0  0  0  0  0  0
    3.6939   -2.1572   -1.0341 C   0  0  0  0  0  0  0  0  0  0  0  0
    2.8115   -3.2617   -1.0894 C   0  0  0  0  0  0  0  0  0  0  0  0
    1.5886   -2.8130   -0.6514 C   0  0  0  0  0  0  0  0  0  0  0  0
    1.4364    1.8131    0.1094 N   0  0  0  0  0  0  0  0  0  0  0  0
    1.1255    2.9692    0.7860 C   0  0  0  0  0  0  0  0  0  0  0  0
    2.2327    3.3806    1.4905 C   0  0  0  0  0  0  0  0  0  0  0  0
    3.2669    2.4571    1.1978 C   0  0  0  0  0  0  0  0  0  0  0  0
    2.7575    1.5222    0.3146 C   0  0  0  0  0  0  0  0  0  0  0  0
   -1.3874    1.4897    0.1742 N   0  0  0  0  0  0  0  0  0  0  0  0
   -2.6719    1.0609   -0.0395 C   0  0  0  0  0  0  0  0  0  0  0  0
   -3.4997    2.2577    0.0908 C   0  0  0  0  0  0  0  0  0  0  0  0
   -2.7241    3.2966    0.3817 C   0  0  0  0  0  0  0  0  0  0  0  0
   -1.3618    2.8274    0.4620 C   0  0  0  0  0  0  0  0  0  0  0  0
   -3.2122   -0.1710   -0.3114 C   0  0  0  0  0  0  0  0  0  0  0  0
    0.2490   -3.6376   -0.5642 C   0  0  0  0  0  0  0  0  0  0  0  0
    3.5887    0.3730   -0.3482 C   0  0  0  0  0  0  0  0  0  0  0  0
   -0.3085    3.6321    0.7640 C   0  0  0  0  0  0  0  0  0  0  0  0
   -4.6982   -0.2592   -0.4361 C   0  0  0  0  0  0  0  0  0  0  0  0
   -5.4825   -0.4404    0.7126 C   0  0  0  0  0  0  0  0  0  0  0  0
   -6.8665   -0.5275    0.5985 C   0  0  0  0  0  0  0  0  0  0  0  0
   -7.4887   -0.4370   -0.6429 C   0  0  0  0  0  0  0  0  0  0  0  0
   -6.7160   -0.2497   -1.7912 C   0  0  0  0  0  0  0  0  0  0  0  0
   -5.3252   -0.1606   -1.6879 C   0  0  0  0  0  0  0  0  0  0  0  0
   -0.4368    5.0740    1.0634 C   0  0  0  0  0  0  0  0  0  0  0  0
    0.0211    6.0343    0.1524 C   0  0  0  0  0  0  0  0  0  0  0  0
   -0.0944    7.3876    0.4587 C   0  0  0  0  0  0  0  0  0  0  0  0
   -0.6556    7.8053    1.6652 C   0  0  0  0  0  0  0  0  0  0  0  0
   -1.1077    6.8521    2.5781 C   0  0  0  0  0  0  0  0  0  0  0  0
   -0.9971    5.4920    2.2800 C   0  0  0  0  0  0  0  0  0  0  0  0
    0.3598    8.2974   -0.4549 O   0  0  0  0  0  0  0  0  0  0  0  0
   -7.6474   -0.7051    1.7067 O   0  0  0  0  0  0  0  0  0  0  0  0
    0.3380   -7.8132    1.9702 O   0  0  0  0  0  0  0  0  0  0  0  0
    8.4006   -0.2415    0.3300 O   0  0  0  0  0  0  0  0  0  0  0  0
    0.3720   -5.3516   -2.6523 H   0  0  0  0  0  0  0  0  0  0  0  0
    0.2405   -5.1568    1.6255 H   0  0  0  0  0  0  0  0  0  0  0  0
    0.4594   -8.9895   -0.3399 H   0  0  0  0  0  0  0  0  0  0  0  0
    0.4734   -7.8392   -2.5508 H   0  0  0  0  0  0  0  0  0  0  0  0
    5.7999   -0.6367    0.8045 H   0  0  0  0  0  0  0  0  0  0  0  0
    8.6905    1.4536   -1.6096 H   0  0  0  0  0  0  0  0  0  0  0  0
    6.8362    2.5627   -2.8524 H   0  0  0  0  0  0  0  0  0  0  0  0
    4.4803    2.0549   -2.2709 H   0  0  0  0  0  0  0  0  0  0  0  0
   -2.3224   -4.5527   -1.0724 H   0  0  0  0  0  0  0  0  0  0  0  0
   -2.4040   -4.0547    0.6395 H   0  0  0  0  0  0  0  0  0  0  0  0
   -4.1544   -2.7925   -0.1657 H   0  0  0  0  0  0  0  0  0  0  0  0
   -3.4898   -2.6988   -1.8186 H   0  0  0  0  0  0  0  0  0  0  0  0
    0.8782   -0.9271   -0.0633 H   0  0  0  0  0  0  0  0  0  0  0  0
    4.7291   -2.1608   -1.3390 H   0  0  0  0  0  0  0  0  0  0  0  0
    3.0363   -4.2606   -1.4323 H   0  0  0  0  0  0  0  0  0  0  0  0
    0.7236    1.2728   -0.3831 H   0  0  0  0  0  0  0  0  0  0  0  0
    2.2846    4.2419    2.1398 H   0  0  0  0  0  0  0  0  0  0  0  0
    4.2800    2.4882    1.5709 H   0  0  0  0  0  0  0  0  0  0  0  0
   -4.5669    2.3045   -0.0320 H   0  0  0  0  0  0  0  0  0  0  0  0
   -3.0604    4.3066    0.5252 H   0  0  0  0  0  0  0  0  0  0  0  0
   -4.9720   -0.5083    1.6697 H   0  0  0  0  0  0  0  0  0  0  0  0
   -8.5686   -0.5091   -0.7140 H   0  0  0  0  0  0  0  0  0  0  0  0
   -7.1893   -0.1692   -2.7638 H   0  0  0  0  0  0  0  0  0  0  0  0
   -4.7040   -0.0157   -2.5696 H   0  0  0  0  0  0  0  0  0  0  0  0
    0.4546    5.7155   -0.7922 H   0  0  0  0  0  0  0  0  0  0  0  0
   -0.7510    8.8582    1.9096 H   0  0  0  0  0  0  0  0  0  0  0  0
   -1.5540    7.1579    3.5206 H   0  0  0  0  0  0  0  0  0  0  0  0
   -1.3531    4.7406    2.9841 H   0  0  0  0  0  0  0  0  0  0  0  0
    0.1526    9.1826   -0.1201 H   0  0  0  0  0  0  0  0  0  0  0  0
   -7.0349   -0.7091    2.4628 H   0  0  0  0  0  0  0  0  0  0  0  0
    0.2677   -7.1298    2.6572 H   0  0  0  0  0  0  0  0  0  0  0  0
    8.0140   -0.8404    0.9912 H   0  0  0  0  0  0  0  0  0  0  0  0
 25 26  2  0
 26 27  1  0
 27 23  1  0
 28 29  1  0
  1  2  2  0
  3  4  2  0
  7  8  2  0
 14 15  1  0
 29 30  1  0
 30 31  2  0
 31 32  1  0
 32 28  2  0
 15 16  1  0
 29 33  2  0
 17 33  1  0
 16 17  1  0
 14 34  2  0
 22 34  1  0
 17 13  2  0
 27 35  2  0
 19 35  1  0
 18 19  1  0
 24 36  2  0
 32 36  1  0
  8  9  1  0
  4  5  1  0
 37 38  2  0
  9 10  2  0
 38 39  1  0
  2  3  1  0
 39 40  2  0
 10 11  1  0
 40 41  1  0
 19 20  2  0
 41 42  2  0
 42 37  1  0
 33 37  1  0
 20 21  1  0
 21 22  2  0
 43 44  2  0
 22 18  1  0
 44 45  1  0
 23 24  1  0
 45 46  2  0
  5  6  2  0
 46 47  1  0
 11 12  2  0
 47 48  2  0
 48 43  1  0
 36 43  1  0
 12  7  1  0
 45 49  1  0
 13 14  1  0
 39 50  1  0
 35 12  1  0
 34  2  1  0
  6  1  1  0
  4 51  1  0
 24 25  1  0
  8 52  1  0
  1 53  1  0
  3 54  1  0
  5 55  1  0
  6 56  1  0
  7 57  1  0
  9 58  1  0
 10 59  1  0
 11 60  1  0
 15 61  1  0
 15 62  1  0
 16 63  1  0
 16 64  1  0
 18 65  1  0
 20 66  1  0
 21 67  1  0
 23 68  1  0
 25 69  1  0
 26 70  1  0
 30 71  1  0
 31 72  1  0
 38 73  1  0
 40 74  1  0
 41 75  1  0
 42 76  1  0
 44 77  1  0
 46 78  1  0
 47 79  1  0
 48 80  1  0
 49 81  1  0
 50 82  1  0
 51 83  1  0
 52 84  1  0
M  END
$$$$
