
     RDKit          3D

 84 92  0  0  0  0  0  0  0  0999 V2000
    5.9653    0.5347    0.4630 C   0  0  0  0  0  0  0  0  0  0  0  0
    5.0678    0.2781   -0.5824 C   0  0  0  0  0  0  0  0  0  0  0  0
    5.5515    0.1434   -1.8873 C   0  0  0  0  0  0  0  0  0  0  0  0
    6.9125    0.2871   -2.1349 C   0  0  0  0  0  0  0  0  0  0  0  0
    7.8081    0.5469   -1.0973 C   0  0  0  0  0  0  0  0  0  0  0  0
    7.3311    0.6675    0.2070 C   0  0  0  0  0  0  0  0  0  0  0  0
    0.7627   -5.8952   -0.8119 C   0  0  0  0  0  0  0  0  0  0  0  0
    0.7640   -7.2838   -0.7117 C   0  0  0  0  0  0  0  0  0  0  0  0
    0.0991   -7.9250    0.3270 C   0  0  0  0  0  0  0  0  0  0  0  0
   -0.5793   -7.1689    1.2829 C   0  0  0  0  0  0  0  0  0  0  0  0
   -0.5866   -5.7745    1.1921 C   0  0  0  0  0  0  0  0  0  0  0  0
    0.0891   -5.1295    0.1485 C   0  0  0  0  0  0  0  0  0  0  0  0
    1.4738    1.3467   -0.0473 N   0  0  0  0  0  0  0  0  0  0  0  0
    2.8172    1.2644   -0.2609 C   0  0  0  0  0  0  0  0  0  0  0  0
    3.3597    2.6467   -0.5020 C   0  0  0  0  0  0  0  0  0  0  0  0
    2.2839    3.5284    0.0751 C   0  0  0  0  0  0  0  0  0  0  0  0
    1.0495    2.6428    0.0631 C   0  0  0  0  0  0  0  0  0  0  0  0
    1.6404   -1.5236   -0.1868 N   0  0  0  0  0  0  0  0  0  0  0  0
    1.4291   -2.8542    0.0822 C   0  0  0  0  0  0  0  0  0  0  0  0
    2.6488   -3.4017    0.4479 C   0  0  0  0  0  0  0  0  0  0  0  0
    3.6335   -2.3924    0.3402 C   0  0  0  0  0  0  0  0  0  0  0  0
    2.9846   -1.2498   -0.0628 C   0  0  0  0  0  0  0  0  0  0  0  0
   -1.6722   -1.6646    0.0494 N   0  0  0  0  0  0  0  0  0  0  0  0
   -2.9911   -1.4868   -0.3029 C   0  0  0  0  0  0  0  0  0  0  0  0
   -3.4511   -2.6386   -0.8938 C   0  0  0  0  0  0  0  0  0  0  0  0
   -2.3797   -3.5628   -0.8677 C   0  0  0  0  0  0  0  0  0  0  0  0
   -1.3014   -2.9482   -0.2519 C   0  0  0  0  0  0  0  0  0  0  0  0
   -1.6996    1.1878    0.0414 N   0  0  0  0  0  0  0  0  0  0  0  0
   -1.3886    2.5165    0.1789 C   0  0  0  0  0  0  0  0  0  0  0  0
   -2.6720    3.1959    0.3294 C   0  0  0  0  0  0  0  0  0  0  0  0
   -3.6519    2.3010    0.2532 C   0  0  0  0  0  0  0  0  0  0  0  0
   -3.0550    1.0042    0.0486 C   0  0  0  0  0  0  0  0  0  0  0  0
   -0.2000    3.2039    0.1843 C   0  0  0  0  0  0  0  0  0  0  0  0
    3.6225    0.1711   -0.3035 C   0  0  0  0  0  0  0  0  0  0  0  0
    0.0714   -3.6502    0.0415 C   0  0  0  0  0  0  0  0  0  0  0  0
   -3.7823   -0.1345   -0.0968 C   0  0  0  0  0  0  0  0  0  0  0  0
   -0.2640    4.6929    0.3074 C   0  0  0  0  0  0  0  0  0  0  0  0
   -0.1663    5.3227    1.5573 C   0  0  0  0  0  0  0  0  0  0  0  0
   -0.2305    6.7102    1.6372 C   0  0  0  0  0  0  0  0  0  0  0  0
   -0.3892    7.4883    0.4887 C   0  0  0  0  0  0  0  0  0  0  0  0
   -0.4881    6.8688   -0.7579 C   0  0  0  0  0  0  0  0  0  0  0  0
   -0.4273    5.4775   -0.8469 C   0  0  0  0  0  0  0  0  0  0  0  0
   -5.2597   -0.1667   -0.0780 C   0  0  0  0  0  0  0  0  0  0  0  0
   -5.9464   -0.6526    1.0406 C   0  0  0  0  0  0  0  0  0  0  0  0
   -7.3376   -0.6890    1.0340 C   0  0  0  0  0  0  0  0  0  0  0  0
   -8.0609   -0.2516   -0.0759 C   0  0  0  0  0  0  0  0  0  0  0  0
   -7.3801    0.2319   -1.1933 C   0  0  0  0  0  0  0  0  0  0  0  0
   -5.9849    0.2717   -1.1946 C   0  0  0  0  0  0  0  0  0  0  0  0
   -7.9767   -1.1656    2.1428 O   0  0  0  0  0  0  0  0  0  0  0  0
   -0.1407    7.2964    2.8692 O   0  0  0  0  0  0  0  0  0  0  0  0
    7.3516    0.1793   -3.4234 O   0  0  0  0  0  0  0  0  0  0  0  0
    1.4169   -8.0543   -1.6319 O   0  0  0  0  0  0  0  0  0  0  0  0
    5.5783    0.6457    1.4742 H   0  0  0  0  0  0  0  0  0  0  0  0
    4.8546   -0.0472   -2.6987 H   0  0  0  0  0  0  0  0  0  0  0  0
    8.8698    0.6531   -1.2859 H   0  0  0  0  0  0  0  0  0  0  0  0
    8.0110    0.8763    1.0268 H   0  0  0  0  0  0  0  0  0  0  0  0
    1.2773   -5.3868   -1.6229 H   0  0  0  0  0  0  0  0  0  0  0  0
    0.1066   -9.0083    0.3902 H   0  0  0  0  0  0  0  0  0  0  0  0
   -1.1059   -7.6591    2.0958 H   0  0  0  0  0  0  0  0  0  0  0  0
   -1.1234   -5.1813    1.9311 H   0  0  0  0  0  0  0  0  0  0  0  0
    3.4710    2.8257   -1.5796 H   0  0  0  0  0  0  0  0  0  0  0  0
    4.3178    2.8500   -0.0121 H   0  0  0  0  0  0  0  0  0  0  0  0
    2.1996    4.4378   -0.5268 H   0  0  0  0  0  0  0  0  0  0  0  0
    2.5350    3.8093    1.1058 H   0  0  0  0  0  0  0  0  0  0  0  0
    0.9643   -0.7840   -0.3828 H   0  0  0  0  0  0  0  0  0  0  0  0
    2.8202   -4.4222    0.7583 H   0  0  0  0  0  0  0  0  0  0  0  0
    4.6896   -2.4820    0.5463 H   0  0  0  0  0  0  0  0  0  0  0  0
   -1.1062   -0.8936    0.4070 H   0  0  0  0  0  0  0  0  0  0  0  0
   -4.4391   -2.7882   -1.3018 H   0  0  0  0  0  0  0  0  0  0  0  0
   -2.3988   -4.5753   -1.2456 H   0  0  0  0  0  0  0  0  0  0  0  0
   -2.8159    4.2489    0.4861 H   0  0  0  0  0  0  0  0  0  0  0  0
   -4.7015    2.5141    0.3357 H   0  0  0  0  0  0  0  0  0  0  0  0
   -0.0459    4.7117    2.4471 H   0  0  0  0  0  0  0  0  0  0  0  0
   -0.4394    8.5691    0.5450 H   0  0  0  0  0  0  0  0  0  0  0  0
   -0.6147    7.4560   -1.6608 H   0  0  0  0  0  0  0  0  0  0  0  0
   -0.5061    4.9718   -1.8079 H   0  0  0  0  0  0  0  0  0  0  0  0
   -5.3864   -0.9902    1.9080 H   0  0  0  0  0  0  0  0  0  0  0  0
   -9.1445   -0.2787   -0.0867 H   0  0  0  0  0  0  0  0  0  0  0  0
   -7.9261    0.5840   -2.0625 H   0  0  0  0  0  0  0  0  0  0  0  0
   -5.4414    0.6514   -2.0584 H   0  0  0  0  0  0  0  0  0  0  0  0
   -8.9298   -1.0712    1.9994 H   0  0  0  0  0  0  0  0  0  0  0  0
   -0.2581    8.2490    2.7491 H   0  0  0  0  0  0  0  0  0  0  0  0
    8.2145    0.6196   -3.4718 H   0  0  0  0  0  0  0  0  0  0  0  0
    1.8031   -7.4485   -2.2871 H   0  0  0  0  0  0  0  0  0  0  0  0
 25 26  2  0
 26 27  1  0
 27 23  1  0
 28 29  1  0
  1  2  2  0
  3  4  2  0
  7  8  2  0
 14 15  1  0
 29 30  1  0
 30 31  2  0
 31 32  1  0
 32 28  2  0
 15 16  1  0
 29 33  2  0
 17 33  1  0
 16 17  1  0
 14 34  2  0
 22 34  1  0
 17 13  2  0
 27 35  2  0
 19 35  1  0
 18 19  1  0
 24 36  2  0
 32 36  1  0
  8  9  1  0
  4  5  1  0
 37 38  2  0
  9 10  2  0
 38 39  1  0
  2  3  1  0
 39 40  2  0
 10 11  1  0
 40 41  1  0
 19 20  2  0
 41 42  2  0
 42 37  1  0
 33 37  1  0
 20 21  1  0
 21 22  2  0
 43 44  2  0
 22 18  1  0
 44 45  1  0
 23 24  1  0
 45 46  2  0
  5  6  2  0
 46 47  1  0
 11 12  2  0
 47 48  2  0
 48 43  1  0
 36 43  1  0
 12  7  1  0
 45 49  1  0
 13 14  1  0
 39 50  1  0
 35 12  1  0
 34  2  1  0
  6  1  1  0
  4 51  1  0
 24 25  1  0
  8 52  1  0
  1 53  1  0
  3 54  1  0
  5 55  1  0
  6 56  1  0
  7 57  1  0
  9 58  1  0
 10 59  1  0
 11 60  1  0
 15 61  1  0
 15 62  1  0
 16 63  1  0
 16 64  1  0
 18 65  1  0
 20 66  1  0
 21 67  1  0
 23 68  1  0
 25 69  1  0
 26 70  1  0
 30 71  1  0
 31 72  1  0
 38 73  1  0
 40 74  1  0
 41 75  1  0
 42 76  1  0
 44 77  1  0
 46 78  1  0
 47 79  1  0
 48 80  1  0
 49 81  1  0
 50 82  1  0
 51 83  1  0
 52 84  1  0
M  END
$$$$
