
     RDKit          3D

 84 92  0  0  0  0  0  0  0  0999 V2000
    1.1882   -5.6712    1.8223 C   0  0  0  0  0  0  0  0  0  0  0  0
    1.2350   -4.8934    0.6592 C   0  0  0  0  0  0  0  0  0  0  0  0
    1.6438   -5.4766   -0.5468 C   0  0  0  0  0  0  0  0  0  0  0  0
    2.0033   -6.8206   -0.5761 C   0  0  0  0  0  0  0  0  0  0  0  0
    1.9656   -7.5957    0.5791 C   0  0  0  0  0  0  0  0  0  0  0  0
    1.5544   -7.0201    1.7827 C   0  0  0  0  0  0  0  0  0  0  0  0
    5.8666    1.6477    0.1330 C   0  0  0  0  0  0  0  0  0  0  0  0
    7.0146    1.7271   -0.6481 C   0  0  0  0  0  0  0  0  0  0  0  0
    7.0224    1.2470   -1.9554 C   0  0  0  0  0  0  0  0  0  0  0  0
    5.8604    0.6830   -2.4873 C   0  0  0  0  0  0  0  0  0  0  0  0
    4.7028    0.5975   -1.7088 C   0  0  0  0  0  0  0  0  0  0  0  0
    4.6992    1.0815   -0.3950 C   0  0  0  0  0  0  0  0  0  0  0  0
   -0.8168   -1.7396    0.1823 N   0  0  0  0  0  0  0  0  0  0  0  0
   -0.3599   -3.0191    0.3032 C   0  0  0  0  0  0  0  0  0  0  0  0
   -1.4461   -3.9734   -0.1050 C   0  0  0  0  0  0  0  0  0  0  0  0
   -2.6832   -3.1133   -0.0874 C   0  0  0  0  0  0  0  0  0  0  0  0
   -2.1544   -1.6870   -0.0917 C   0  0  0  0  0  0  0  0  0  0  0  0
    1.8938   -1.0955    0.5915 N   0  0  0  0  0  0  0  0  0  0  0  0
    3.0524   -0.4481    0.9194 C   0  0  0  0  0  0  0  0  0  0  0  0
    3.8141   -1.3005    1.6934 C   0  0  0  0  0  0  0  0  0  0  0  0
    3.1247   -2.5416    1.7651 C   0  0  0  0  0  0  0  0  0  0  0  0
    1.9721   -2.3947    1.0263 C   0  0  0  0  0  0  0  0  0  0  0  0
    1.1539    2.1344    0.3992 N   0  0  0  0  0  0  0  0  0  0  0  0
    0.6551    3.4116    0.4647 C   0  0  0  0  0  0  0  0  0  0  0  0
    1.6966    4.2712    0.7369 C   0  0  0  0  0  0  0  0  0  0  0  0
    2.8712    3.4805    0.8165 C   0  0  0  0  0  0  0  0  0  0  0  0
    2.5117    2.1737    0.5632 C   0  0  0  0  0  0  0  0  0  0  0  0
   -1.5152    1.3756   -0.0482 N   0  0  0  0  0  0  0  0  0  0  0  0
   -2.6940    0.6985   -0.2456 C   0  0  0  0  0  0  0  0  0  0  0  0
   -3.7106    1.7403   -0.3872 C   0  0  0  0  0  0  0  0  0  0  0  0
   -3.1448    2.9316   -0.2311 C   0  0  0  0  0  0  0  0  0  0  0  0
   -1.7334    2.7296   -0.0048 C   0  0  0  0  0  0  0  0  0  0  0  0
   -3.0205   -0.6361   -0.2876 C   0  0  0  0  0  0  0  0  0  0  0  0
    0.8673   -3.4648    0.6886 C   0  0  0  0  0  0  0  0  0  0  0  0
    3.4857    0.9656    0.4316 C   0  0  0  0  0  0  0  0  0  0  0  0
   -0.8681    3.7558    0.2172 C   0  0  0  0  0  0  0  0  0  0  0  0
   -4.4515   -0.9878   -0.5451 C   0  0  0  0  0  0  0  0  0  0  0  0
   -5.3552   -1.1756    0.5132 C   0  0  0  0  0  0  0  0  0  0  0  0
   -6.6744   -1.5243    0.2424 C   0  0  0  0  0  0  0  0  0  0  0  0
   -7.1176   -1.6783   -1.0720 C   0  0  0  0  0  0  0  0  0  0  0  0
   -6.2288   -1.4834   -2.1291 C   0  0  0  0  0  0  0  0  0  0  0  0
   -4.9017   -1.1405   -1.8665 C   0  0  0  0  0  0  0  0  0  0  0  0
   -1.3015    5.1649    0.3019 C   0  0  0  0  0  0  0  0  0  0  0  0
   -1.6527    5.7040    1.5478 C   0  0  0  0  0  0  0  0  0  0  0  0
   -2.0592    7.0325    1.6334 C   0  0  0  0  0  0  0  0  0  0  0  0
   -2.1173    7.8387    0.4995 C   0  0  0  0  0  0  0  0  0  0  0  0
   -1.7766    7.3033   -0.7438 C   0  0  0  0  0  0  0  0  0  0  0  0
   -1.3699    5.9692   -0.8437 C   0  0  0  0  0  0  0  0  0  0  0  0
   -2.4218    7.5802    2.8336 O   0  0  0  0  0  0  0  0  0  0  0  0
   -7.5255   -1.7146    1.2955 O   0  0  0  0  0  0  0  0  0  0  0  0
    2.3988   -7.4142   -1.7409 O   0  0  0  0  0  0  0  0  0  0  0  0
    8.1315    2.2878   -0.0917 O   0  0  0  0  0  0  0  0  0  0  0  0
    0.8629   -5.2110    2.7539 H   0  0  0  0  0  0  0  0  0  0  0  0
    1.6669   -4.8561   -1.4375 H   0  0  0  0  0  0  0  0  0  0  0  0
    2.2410   -8.6453    0.5347 H   0  0  0  0  0  0  0  0  0  0  0  0
    1.5109   -7.6162    2.6880 H   0  0  0  0  0  0  0  0  0  0  0  0
    5.8754    2.0175    1.1532 H   0  0  0  0  0  0  0  0  0  0  0  0
    7.9119    1.3046   -2.5746 H   0  0  0  0  0  0  0  0  0  0  0  0
    5.8493    0.3088   -3.5084 H   0  0  0  0  0  0  0  0  0  0  0  0
    3.7991    0.1470   -2.1194 H   0  0  0  0  0  0  0  0  0  0  0  0
   -1.5625   -4.8229    0.5748 H   0  0  0  0  0  0  0  0  0  0  0  0
   -1.2648   -4.3590   -1.1154 H   0  0  0  0  0  0  0  0  0  0  0  0
   -3.2542   -3.3014    0.8299 H   0  0  0  0  0  0  0  0  0  0  0  0
   -3.3082   -3.3587   -0.9502 H   0  0  0  0  0  0  0  0  0  0  0  0
    1.0633   -0.7476    0.1081 H   0  0  0  0  0  0  0  0  0  0  0  0
    4.7777   -1.0680    2.1213 H   0  0  0  0  0  0  0  0  0  0  0  0
    3.4428   -3.4417    2.2696 H   0  0  0  0  0  0  0  0  0  0  0  0
    0.5436    1.3362    0.2162 H   0  0  0  0  0  0  0  0  0  0  0  0
    1.6176    5.3432    0.8490 H   0  0  0  0  0  0  0  0  0  0  0  0
    3.8736    3.8381    0.9924 H   0  0  0  0  0  0  0  0  0  0  0  0
   -4.7640    1.5789   -0.5474 H   0  0  0  0  0  0  0  0  0  0  0  0
   -3.6602    3.8758   -0.2523 H   0  0  0  0  0  0  0  0  0  0  0  0
   -5.0005   -1.0546    1.5342 H   0  0  0  0  0  0  0  0  0  0  0  0
   -8.1455   -1.9436   -1.2872 H   0  0  0  0  0  0  0  0  0  0  0  0
   -6.5571   -1.5996   -3.1563 H   0  0  0  0  0  0  0  0  0  0  0  0
   -4.1905   -0.9853   -2.6756 H   0  0  0  0  0  0  0  0  0  0  0  0
   -1.6034    5.0616    2.4235 H   0  0  0  0  0  0  0  0  0  0  0  0
   -2.4379    8.8726    0.5841 H   0  0  0  0  0  0  0  0  0  0  0  0
   -1.8386    7.9156   -1.6375 H   0  0  0  0  0  0  0  0  0  0  0  0
   -1.1125    5.5390   -1.8120 H   0  0  0  0  0  0  0  0  0  0  0  0
   -2.3904    6.8561    3.4821 H   0  0  0  0  0  0  0  0  0  0  0  0
   -8.3671   -2.0264    0.9375 H   0  0  0  0  0  0  0  0  0  0  0  0
    2.2958   -6.7466   -2.4413 H   0  0  0  0  0  0  0  0  0  0  0  0
    8.8411    2.2664   -0.7560 H   0  0  0  0  0  0  0  0  0  0  0  0
 25 26  2  0
 26 27  1  0
 27 23  1  0
 28 29  1  0
  1  2  2  0
  3  4  2  0
  7  8  2  0
 14 15  1  0
 29 30  1  0
 30 31  2  0
 31 32  1  0
 32 28  2  0
 15 16  1  0
 29 33  2  0
 17 33  1  0
 16 17  1  0
 14 34  2  0
 22 34  1  0
 17 13  2  0
 27 35  2  0
 19 35  1  0
 18 19  1  0
 24 36  2  0
 32 36  1  0
  8  9  1  0
  4  5  1  0
 37 38  2  0
  9 10  2  0
 38 39  1  0
  2  3  1  0
 39 40  2  0
 10 11  1  0
 40 41  1  0
 19 20  2  0
 41 42  2  0
 42 37  1  0
 33 37  1  0
 20 21  1  0
 21 22  2  0
 43 44  2  0
 22 18  1  0
 44 45  1  0
 23 24  1  0
 45 46  2  0
  5  6  2  0
 46 47  1  0
 11 12  2  0
 47 48  2  0
 48 43  1  0
 36 43  1  0
 12  7  1  0
 45 49  1  0
 13 14  1  0
 39 50  1  0
 35 12  1  0
 34  2  1  0
  6  1  1  0
  4 51  1  0
 24 25  1  0
  8 52  1  0
  1 53  1  0
  3 54  1  0
  5 55  1  0
  6 56  1  0
  7 57  1  0
  9 58  1  0
 10 59  1  0
 11 60  1  0
 15 61  1  0
 15 62  1  0
 16 63  1  0
 16 64  1  0
 18 65  1  0
 20 66  1  0
 21 67  1  0
 23 68  1  0
 25 69  1  0
 26 70  1  0
 30 71  1  0
 31 72  1  0
 38 73  1  0
 40 74  1  0
 41 75  1  0
 42 76  1  0
 44 77  1  0
 46 78  1  0
 47 79  1  0
 48 80  1  0
 49 81  1  0
 50 82  1  0
 51 83  1  0
 52 84  1  0
M  END
$$$$
