
     RDKit          2D

 52 60  0  0  0  0  0  0  0  0999 V2000
    4.1658   -1.6371    0.0000 C   0  0  0  0  0  0  0  0  0  0  0  0
    3.7768   -2.3671    0.0000 C   0  0  0  0  0  0  0  0  0  0  0  0
    4.2145   -3.0669    0.0000 C   0  0  0  0  0  0  0  0  0  0  0  0
    5.0409   -3.0378    0.0000 C   0  0  0  0  0  0  0  0  0  0  0  0
    5.4279   -2.3031    0.0000 C   0  0  0  0  0  0  0  0  0  0  0  0
    4.9880   -1.6064    0.0000 C   0  0  0  0  0  0  0  0  0  0  0  0
   -0.1535   -5.8077    0.0000 C   0  0  0  0  0  0  0  0  0  0  0  0
   -0.1547   -6.6350    0.0000 C   0  0  0  0  0  0  0  0  0  0  0  0
    0.5600   -7.0478    0.0000 C   0  0  0  0  0  0  0  0  0  0  0  0
    1.2764   -6.6345    0.0000 C   0  0  0  0  0  0  0  0  0  0  0  0
    1.2735   -5.8041    0.0000 C   0  0  0  0  0  0  0  0  0  0  0  0
    0.5582   -5.3950    0.0000 C   0  0  0  0  0  0  0  0  0  0  0  0
    1.5376   -1.3506    0.0000 N   0  0  0  0  0  0  0  0  0  0  0  0
    2.3522   -1.4796    0.0000 C   0  0  0  0  0  0  0  0  0  0  0  0
    2.7268   -0.7446    0.0000 C   0  0  0  0  0  0  0  0  0  0  0  0
    2.1435   -0.1613    0.0000 C   0  0  0  0  0  0  0  0  0  0  0  0
    1.4086   -0.5358    0.0000 C   0  0  0  0  0  0  0  0  0  0  0  0
    1.5369   -3.3464    0.0000 N   0  0  0  0  0  0  0  0  0  0  0  0
    1.4079   -4.1611    0.0000 C   0  0  0  0  0  0  0  0  0  0  0  0
    2.1429   -4.5356    0.0000 C   0  0  0  0  0  0  0  0  0  0  0  0
    2.7262   -3.9522    0.0000 C   0  0  0  0  0  0  0  0  0  0  0  0
    2.3515   -3.2173    0.0000 C   0  0  0  0  0  0  0  0  0  0  0  0
   -0.4590   -3.3456    0.0000 N   0  0  0  0  0  0  0  0  0  0  0  0
   -1.2738   -3.2166    0.0000 C   0  0  0  0  0  0  0  0  0  0  0  0
   -1.6483   -3.9516    0.0000 C   0  0  0  0  0  0  0  0  0  0  0  0
   -1.0649   -4.5349    0.0000 C   0  0  0  0  0  0  0  0  0  0  0  0
   -0.3301   -4.1604    0.0000 C   0  0  0  0  0  0  0  0  0  0  0  0
   -0.4582   -1.3497    0.0000 N   0  0  0  0  0  0  0  0  0  0  0  0
   -0.3293   -0.5350    0.0000 C   0  0  0  0  0  0  0  0  0  0  0  0
   -1.0642   -0.1605    0.0000 C   0  0  0  0  0  0  0  0  0  0  0  0
   -1.6476   -0.7438    0.0000 C   0  0  0  0  0  0  0  0  0  0  0  0
   -1.2729   -1.4787    0.0000 C   0  0  0  0  0  0  0  0  0  0  0  0
    0.5916   -0.1500    0.0000 C   0  0  0  0  0  0  0  0  0  0  0  0
    2.8371   -2.3663    0.0000 C   0  0  0  0  0  0  0  0  0  0  0  0
    0.5291   -4.5535    0.0000 C   0  0  0  0  0  0  0  0  0  0  0  0
   -1.7497   -2.3996    0.0000 C   0  0  0  0  0  0  0  0  0  0  0  0
    0.6116    0.6716    0.0000 C   0  0  0  0  0  0  0  0  0  0  0  0
    1.3368    1.0671    0.0000 C   0  0  0  0  0  0  0  0  0  0  0  0
    1.3557    1.8910    0.0000 C   0  0  0  0  0  0  0  0  0  0  0  0
    0.6503    2.3204    0.0000 C   0  0  0  0  0  0  0  0  0  0  0  0
   -0.0756    1.9198    0.0000 C   0  0  0  0  0  0  0  0  0  0  0  0
   -0.0911    1.0971    0.0000 C   0  0  0  0  0  0  0  0  0  0  0  0
   -2.5744   -2.4247    0.0000 C   0  0  0  0  0  0  0  0  0  0  0  0
   -3.0040   -1.7192    0.0000 C   0  0  0  0  0  0  0  0  0  0  0  0
   -3.8278   -1.7393    0.0000 C   0  0  0  0  0  0  0  0  0  0  0  0
   -4.2232   -2.4643    0.0000 C   0  0  0  0  0  0  0  0  0  0  0  0
   -3.7886   -3.1704    0.0000 C   0  0  0  0  0  0  0  0  0  0  0  0
   -2.9662   -3.1468    0.0000 C   0  0  0  0  0  0  0  0  0  0  0  0
   -4.2576   -1.0352    0.0000 O   0  0  0  0  0  0  0  0  0  0  0  0
    2.0794    2.2869    0.0000 O   0  0  0  0  0  0  0  0  0  0  0  0
    5.4796   -3.7364    0.0000 O   0  0  0  0  0  0  0  0  0  0  0  0
   -0.8694   -7.0469    0.0000 O   0  0  0  0  0  0  0  0  0  0  0  0
 25 26  2  0
 26 27  1  0
 27 23  1  0
 28 29  1  0
  1  2  2  0
  3  4  2  0
  7  8  2  0
 14 15  1  0
 29 30  1  0
 30 31  2  0
 31 32  1  0
 32 28  2  0
 15 16  1  0
 29 33  2  0
 17 33  1  0
 16 17  1  0
 14 34  2  0
 22 34  1  0
 17 13  2  0
 27 35  2  0
 19 35  1  0
 18 19  1  0
 24 36  2  0
 32 36  1  0
  8  9  1  0
  4  5  1  0
 37 38  2  0
  9 10  2  0
 38 39  1  0
  2  3  1  0
 39 40  2  0
 10 11  1  0
 40 41  1  0
 19 20  2  0
 41 42  2  0
 42 37  1  0
 33 37  1  0
 20 21  1  0
 21 22  2  0
 43 44  2  0
 22 18  1  0
 44 45  1  0
 23 24  1  0
 45 46  2  0
  5  6  2  0
 46 47  1  0
 11 12  2  0
 47 48  2  0
 48 43  1  0
 36 43  1  0
 12  7  1  0
 45 49  1  0
 13 14  1  0
 39 50  1  0
 35 12  1  0
 34  2  1  0
  6  1  1  0
  4 51  1  0
 24 25  1  0
  8 52  1  0
M  END
> <chembl_id>
CHEMBL383675

> <chembl_pref_name>
TEMOPORFIN
