
     RDKit          3D

 43 46  0  0  0  0  0  0  0  0999 V2000
   50.1660  -17.5024   -7.4548 C   0  0  0  0  0  0  0  0  0  0  0  0
   48.7219  -17.4802   -7.1075 C   0  0  0  0  0  0  0  0  0  0  0  0
   51.0891  -16.7193   -6.5939 C   0  0  0  0  0  0  0  0  0  0  0  0
   50.6065  -18.1052   -8.5924 C   0  0  0  0  0  0  0  0  0  0  0  0
   48.6328  -14.9692   -7.4661 C   0  0  0  0  0  0  0  0  0  0  0  0
   49.8870  -14.5661   -7.1940 C   0  0  0  0  0  0  0  0  0  0  0  0
   51.3004  -18.3017  -11.5000 N   0  0  0  0  0  0  0  0  0  0  0  0
   50.9282  -15.3243   -6.4728 C   0  0  0  0  0  0  0  0  0  0  0  0
   48.0155  -16.2605   -7.1047 C   0  0  0  0  0  0  0  0  0  0  0  0
   52.0499  -18.0833   -9.0814 C   0  0  0  0  0  0  0  0  0  0  0  0
   49.7126  -18.8344   -9.5885 C   0  0  0  0  0  0  0  0  0  0  0  0
   52.1551  -17.5886  -10.5358 C   0  0  0  0  0  0  0  0  0  0  0  0
   49.9070  -18.3110  -11.0234 C   0  0  0  0  0  0  0  0  0  0  0  0
   48.0725  -18.6656   -6.7247 C   0  0  0  0  0  0  0  0  0  0  0  0
   52.0869  -17.3753   -5.8538 C   0  0  0  0  0  0  0  0  0  0  0  0
   51.7941  -19.6468  -11.7828 C   0  0  0  0  0  0  0  0  0  0  0  0
   51.8210  -14.6082   -5.6601 C   0  0  0  0  0  0  0  0  0  0  0  0
   46.6495  -16.2706   -6.7819 C   0  0  0  0  0  0  0  0  0  0  0  0
   52.9547  -16.6498   -5.0385 C   0  0  0  0  0  0  0  0  0  0  0  0
   46.7187  -18.6543   -6.3913 C   0  0  0  0  0  0  0  0  0  0  0  0
   52.8264  -15.2667   -4.9477 C   0  0  0  0  0  0  0  0  0  0  0  0
   46.0062  -17.4589   -6.4271 C   0  0  0  0  0  0  0  0  0  0  0  0
   47.9760  -14.2765   -7.9883 H   0  0  0  0  0  0  0  0  0  0  0  0
   50.1819  -13.5675   -7.5098 H   0  0  0  0  0  0  0  0  0  0  0  0
   52.4615  -19.0964   -8.9968 H   0  0  0  0  0  0  0  0  0  0  0  0
   52.6946  -17.4399   -8.4770 H   0  0  0  0  0  0  0  0  0  0  0  0
   49.9427  -19.9059   -9.5433 H   0  0  0  0  0  0  0  0  0  0  0  0
   48.6490  -18.7400   -9.3547 H   0  0  0  0  0  0  0  0  0  0  0  0
   53.2020  -17.6331  -10.8616 H   0  0  0  0  0  0  0  0  0  0  0  0
   51.8867  -16.5238  -10.5655 H   0  0  0  0  0  0  0  0  0  0  0  0
   49.5216  -17.2838  -11.0786 H   0  0  0  0  0  0  0  0  0  0  0  0
   49.2816  -18.8929  -11.7121 H   0  0  0  0  0  0  0  0  0  0  0  0
   48.6240  -19.6020   -6.6895 H   0  0  0  0  0  0  0  0  0  0  0  0
   52.1894  -18.4559   -5.9160 H   0  0  0  0  0  0  0  0  0  0  0  0
   51.1732  -20.1269  -12.5475 H   0  0  0  0  0  0  0  0  0  0  0  0
   51.8127  -20.2984  -10.9037 H   0  0  0  0  0  0  0  0  0  0  0  0
   52.8093  -19.6011  -12.1925 H   0  0  0  0  0  0  0  0  0  0  0  0
   51.7292  -13.5290   -5.5611 H   0  0  0  0  0  0  0  0  0  0  0  0
   46.0769  -15.3458   -6.7871 H   0  0  0  0  0  0  0  0  0  0  0  0
   53.7281  -17.1642   -4.4745 H   0  0  0  0  0  0  0  0  0  0  0  0
   46.2221  -19.5768   -6.1028 H   0  0  0  0  0  0  0  0  0  0  0  0
   53.5023  -14.6983   -4.3139 H   0  0  0  0  0  0  0  0  0  0  0  0
   44.9504  -17.4472   -6.1690 H   0  0  0  0  0  0  0  0  0  0  0  0
  2  1  1  0
  3  1  1  0
  4  1  2  3
  5  9  1  0
  6  8  1  0
  7 13  1  0
  8  3  2  0
  9  2  2  0
 10  4  1  0
 11  4  1  0
 12 10  1  0
 13 11  1  0
 14  2  1  0
 15  3  1  0
 16  7  1  0
 17  8  1  0
 18  9  1  0
 19 15  2  0
 20 14  2  0
 21 19  1  0
 22 20  1  0
  7 12  1  0
  6  5  2  0
 21 17  2  0
 22 18  2  0
  5 23  1  0
  6 24  1  0
 10 25  1  0
 10 26  1  0
 11 27  1  0
 11 28  1  0
 12 29  1  0
 12 30  1  0
 13 31  1  0
 13 32  1  0
 14 33  1  0
 15 34  1  0
 16 35  1  0
 16 36  1  0
 16 37  1  0
 17 38  1  0
 18 39  1  0
 19 40  1  0
 20 41  1  0
 21 42  1  0
 22 43  1  0
M  END
> <Uni-Dock RESULT> 
ENERGY=   -6.139  LOWER_BOUND=    0.000  UPPER_BOUND=    0.000
INTER + INTRA:          -6.139
INTER:                  -6.139
INTRA:                   0.000
UNBOUND:                 0.000

$$$$

     RDKit          3D

 43 46  0  0  0  0  0  0  0  0999 V2000
   50.4489  -17.3953   -7.3089 C   0  0  0  0  0  0  0  0  0  0  0  0
   51.1770  -17.8263   -6.0879 C   0  0  0  0  0  0  0  0  0  0  0  0
   49.0108  -17.0526   -7.1629 C   0  0  0  0  0  0  0  0  0  0  0  0
   51.0400  -17.4419   -8.5335 C   0  0  0  0  0  0  0  0  0  0  0  0
   49.6326  -19.8229   -5.8227 C   0  0  0  0  0  0  0  0  0  0  0  0
   48.4850  -19.4130   -6.3923 C   0  0  0  0  0  0  0  0  0  0  0  0
   51.8835  -18.6830  -11.1263 N   0  0  0  0  0  0  0  0  0  0  0  0
   48.0962  -18.0249   -6.7106 C   0  0  0  0  0  0  0  0  0  0  0  0
   50.7615  -18.9768   -5.3878 C   0  0  0  0  0  0  0  0  0  0  0  0
   50.3368  -17.1235   -9.8477 C   0  0  0  0  0  0  0  0  0  0  0  0
   52.4755  -17.8875   -8.7863 C   0  0  0  0  0  0  0  0  0  0  0  0
   50.4954  -18.2611  -10.8732 C   0  0  0  0  0  0  0  0  0  0  0  0
   52.5525  -18.9959   -9.8522 C   0  0  0  0  0  0  0  0  0  0  0  0
   52.2437  -17.0555   -5.5966 C   0  0  0  0  0  0  0  0  0  0  0  0
   48.5703  -15.7436   -7.4197 C   0  0  0  0  0  0  0  0  0  0  0  0
   52.6241  -17.6967  -11.9086 C   0  0  0  0  0  0  0  0  0  0  0  0
   46.7418  -17.6762   -6.5914 C   0  0  0  0  0  0  0  0  0  0  0  0
   51.4740  -19.3661   -4.2428 C   0  0  0  0  0  0  0  0  0  0  0  0
   47.2236  -15.4106   -7.2802 C   0  0  0  0  0  0  0  0  0  0  0  0
   52.9300  -17.4484   -4.4482 C   0  0  0  0  0  0  0  0  0  0  0  0
   46.3091  -16.3781   -6.8736 C   0  0  0  0  0  0  0  0  0  0  0  0
   52.5500  -18.6068   -3.7762 C   0  0  0  0  0  0  0  0  0  0  0  0
   49.7557  -20.8868   -5.6307 H   0  0  0  0  0  0  0  0  0  0  0  0
   47.7372  -20.1659   -6.6325 H   0  0  0  0  0  0  0  0  0  0  0  0
   50.7547  -16.1924  -10.2496 H   0  0  0  0  0  0  0  0  0  0  0  0
   49.2645  -16.9497   -9.7257 H   0  0  0  0  0  0  0  0  0  0  0  0
   53.0596  -17.0157   -9.1057 H   0  0  0  0  0  0  0  0  0  0  0  0
   52.9664  -18.2720   -7.8885 H   0  0  0  0  0  0  0  0  0  0  0  0
   50.0161  -17.9715  -11.8167 H   0  0  0  0  0  0  0  0  0  0  0  0
   49.9334  -19.1357  -10.5182 H   0  0  0  0  0  0  0  0  0  0  0  0
   52.0974  -19.9087   -9.4442 H   0  0  0  0  0  0  0  0  0  0  0  0
   53.6032  -19.2529  -10.0364 H   0  0  0  0  0  0  0  0  0  0  0  0
   52.5426  -16.1468   -6.1135 H   0  0  0  0  0  0  0  0  0  0  0  0
   49.2800  -14.9816   -7.7327 H   0  0  0  0  0  0  0  0  0  0  0  0
   53.6311  -18.0666  -12.1318 H   0  0  0  0  0  0  0  0  0  0  0  0
   52.7222  -16.7280  -11.4090 H   0  0  0  0  0  0  0  0  0  0  0  0
   52.1340  -17.5318  -12.8747 H   0  0  0  0  0  0  0  0  0  0  0  0
   46.0122  -18.4114   -6.2594 H   0  0  0  0  0  0  0  0  0  0  0  0
   51.1844  -20.2585   -3.6924 H   0  0  0  0  0  0  0  0  0  0  0  0
   46.8899  -14.3973   -7.4873 H   0  0  0  0  0  0  0  0  0  0  0  0
   53.7584  -16.8502   -4.0785 H   0  0  0  0  0  0  0  0  0  0  0  0
   45.2582  -16.1218   -6.7652 H   0  0  0  0  0  0  0  0  0  0  0  0
   53.0838  -18.9164   -2.8815 H   0  0  0  0  0  0  0  0  0  0  0  0
  2  1  1  0
  3  1  1  0
  4  1  2  3
  5  9  1  0
  6  8  1  0
  7 13  1  0
  8  3  2  0
  9  2  2  0
 10  4  1  0
 11  4  1  0
 12 10  1  0
 13 11  1  0
 14  2  1  0
 15  3  1  0
 16  7  1  0
 17  8  1  0
 18  9  1  0
 19 15  2  0
 20 14  2  0
 21 19  1  0
 22 20  1  0
  7 12  1  0
  6  5  2  0
 21 17  2  0
 22 18  2  0
  5 23  1  0
  6 24  1  0
 10 25  1  0
 10 26  1  0
 11 27  1  0
 11 28  1  0
 12 29  1  0
 12 30  1  0
 13 31  1  0
 13 32  1  0
 14 33  1  0
 15 34  1  0
 16 35  1  0
 16 36  1  0
 16 37  1  0
 17 38  1  0
 18 39  1  0
 19 40  1  0
 20 41  1  0
 21 42  1  0
 22 43  1  0
M  END
> <Uni-Dock RESULT> 
ENERGY=   -5.198  LOWER_BOUND=    1.289  UPPER_BOUND=    4.401
INTER + INTRA:          -5.198
INTER:                  -5.198
INTRA:                   0.000
UNBOUND:                 0.000

$$$$

     RDKit          3D

 43 46  0  0  0  0  0  0  0  0999 V2000
   48.0504  -17.1610   -7.9682 C   0  0  0  0  0  0  0  0  0  0  0  0
   49.0579  -16.2071   -7.4375 C   0  0  0  0  0  0  0  0  0  0  0  0
   47.4983  -18.1678   -7.0258 C   0  0  0  0  0  0  0  0  0  0  0  0
   47.7462  -17.1973   -9.2939 C   0  0  0  0  0  0  0  0  0  0  0  0
   50.6343  -18.1175   -6.8834 C   0  0  0  0  0  0  0  0  0  0  0  0
   49.8080  -19.1563   -6.6653 C   0  0  0  0  0  0  0  0  0  0  0  0
   48.0449  -18.0357  -12.1544 N   0  0  0  0  0  0  0  0  0  0  0  0
   48.3560  -19.0985   -6.4055 C   0  0  0  0  0  0  0  0  0  0  0  0
   50.2749  -16.6859   -6.9121 C   0  0  0  0  0  0  0  0  0  0  0  0
   46.8093  -18.2110   -9.9404 C   0  0  0  0  0  0  0  0  0  0  0  0
   48.3493  -16.2752  -10.3469 C   0  0  0  0  0  0  0  0  0  0  0  0
   47.4731  -18.9271  -11.1311 C   0  0  0  0  0  0  0  0  0  0  0  0
   48.9543  -17.0651  -11.5220 C   0  0  0  0  0  0  0  0  0  0  0  0
   48.7750  -14.8314   -7.4050 C   0  0  0  0  0  0  0  0  0  0  0  0
   46.1302  -18.1566   -6.7069 C   0  0  0  0  0  0  0  0  0  0  0  0
   47.0120  -17.3818  -12.9535 C   0  0  0  0  0  0  0  0  0  0  0  0
   47.8056  -20.0448   -5.5269 C   0  0  0  0  0  0  0  0  0  0  0  0
   51.2125  -15.7612   -6.4264 C   0  0  0  0  0  0  0  0  0  0  0  0
   45.6034  -19.0938   -5.8191 C   0  0  0  0  0  0  0  0  0  0  0  0
   49.7117  -13.9284   -6.9038 C   0  0  0  0  0  0  0  0  0  0  0  0
   46.4393  -20.0417   -5.2356 C   0  0  0  0  0  0  0  0  0  0  0  0
   50.9324  -14.3925   -6.4217 C   0  0  0  0  0  0  0  0  0  0  0  0
   51.6908  -18.3287   -7.0350 H   0  0  0  0  0  0  0  0  0  0  0  0
   50.2376  -20.1559   -6.6514 H   0  0  0  0  0  0  0  0  0  0  0  0
   45.9046  -17.6870  -10.2719 H   0  0  0  0  0  0  0  0  0  0  0  0
   46.4763  -18.9866   -9.2457 H   0  0  0  0  0  0  0  0  0  0  0  0
   47.5642  -15.6008  -10.7101 H   0  0  0  0  0  0  0  0  0  0  0  0
   49.1418  -15.6357   -9.9494 H   0  0  0  0  0  0  0  0  0  0  0  0
   46.7509  -19.6112  -11.5942 H   0  0  0  0  0  0  0  0  0  0  0  0
   48.2789  -19.5695  -10.7506 H   0  0  0  0  0  0  0  0  0  0  0  0
   49.8371  -17.6106  -11.1619 H   0  0  0  0  0  0  0  0  0  0  0  0
   49.3338  -16.3642  -12.2760 H   0  0  0  0  0  0  0  0  0  0  0  0
   47.8215  -14.4625   -7.7752 H   0  0  0  0  0  0  0  0  0  0  0  0
   45.4725  -17.4158   -7.1550 H   0  0  0  0  0  0  0  0  0  0  0  0
   47.4691  -16.7752  -13.7432 H   0  0  0  0  0  0  0  0  0  0  0  0
   46.3522  -16.7340  -12.3680 H   0  0  0  0  0  0  0  0  0  0  0  0
   46.3912  -18.1302  -13.4586 H   0  0  0  0  0  0  0  0  0  0  0  0
   48.4423  -20.7843   -5.0466 H   0  0  0  0  0  0  0  0  0  0  0  0
   52.1661  -16.1025   -6.0297 H   0  0  0  0  0  0  0  0  0  0  0  0
   44.5427  -19.0825   -5.5829 H   0  0  0  0  0  0  0  0  0  0  0  0
   49.4877  -12.8652   -6.8884 H   0  0  0  0  0  0  0  0  0  0  0  0
   46.0312  -20.7746   -4.5441 H   0  0  0  0  0  0  0  0  0  0  0  0
   51.6652  -13.6909   -6.0315 H   0  0  0  0  0  0  0  0  0  0  0  0
  2  1  1  0
  3  1  1  0
  4  1  2  3
  5  9  1  0
  6  8  1  0
  7 13  1  0
  8  3  2  0
  9  2  2  0
 10  4  1  0
 11  4  1  0
 12 10  1  0
 13 11  1  0
 14  2  1  0
 15  3  1  0
 16  7  1  0
 17  8  1  0
 18  9  1  0
 19 15  2  0
 20 14  2  0
 21 19  1  0
 22 20  1  0
  7 12  1  0
  6  5  2  0
 21 17  2  0
 22 18  2  0
  5 23  1  0
  6 24  1  0
 10 25  1  0
 10 26  1  0
 11 27  1  0
 11 28  1  0
 12 29  1  0
 12 30  1  0
 13 31  1  0
 13 32  1  0
 14 33  1  0
 15 34  1  0
 16 35  1  0
 16 36  1  0
 16 37  1  0
 17 38  1  0
 18 39  1  0
 19 40  1  0
 20 41  1  0
 21 42  1  0
 22 43  1  0
M  END
> <Uni-Dock RESULT> 
ENERGY=   -5.198  LOWER_BOUND=    1.941  UPPER_BOUND=    4.798
INTER + INTRA:          -5.198
INTER:                  -5.198
INTRA:                   0.000
UNBOUND:                 0.000

$$$$

     RDKit          3D

 43 46  0  0  0  0  0  0  0  0999 V2000
   48.4743  -17.1658   -7.9315 C   0  0  0  0  0  0  0  0  0  0  0  0
   49.4884  -16.2689   -7.3201 C   0  0  0  0  0  0  0  0  0  0  0  0
   47.7682  -18.1140   -7.0321 C   0  0  0  0  0  0  0  0  0  0  0  0
   48.2966  -17.2104   -9.2798 C   0  0  0  0  0  0  0  0  0  0  0  0
   50.8724  -18.2663   -6.5875 C   0  0  0  0  0  0  0  0  0  0  0  0
   49.9611  -19.2438   -6.4350 C   0  0  0  0  0  0  0  0  0  0  0  0
   48.8104  -18.1273  -12.0851 N   0  0  0  0  0  0  0  0  0  0  0  0
   48.4980  -19.0855   -6.3179 C   0  0  0  0  0  0  0  0  0  0  0  0
   50.6146  -16.8152   -6.6721 C   0  0  0  0  0  0  0  0  0  0  0  0
   47.3598  -18.1741   -9.9988 C   0  0  0  0  0  0  0  0  0  0  0  0
   49.0583  -16.3525  -10.2830 C   0  0  0  0  0  0  0  0  0  0  0  0
   48.0847  -18.9573  -11.1088 C   0  0  0  0  0  0  0  0  0  0  0  0
   49.7184  -17.2051  -11.3821 C   0  0  0  0  0  0  0  0  0  0  0  0
   49.2969  -14.8773   -7.3356 C   0  0  0  0  0  0  0  0  0  0  0  0
   46.3798  -18.0064   -6.8474 C   0  0  0  0  0  0  0  0  0  0  0  0
   47.9050  -17.4243  -12.9901 C   0  0  0  0  0  0  0  0  0  0  0  0
   47.8038  -19.9748   -5.4828 C   0  0  0  0  0  0  0  0  0  0  0  0
   51.5615  -15.9438   -6.1117 C   0  0  0  0  0  0  0  0  0  0  0  0
   45.7085  -18.8879   -6.0010 C   0  0  0  0  0  0  0  0  0  0  0  0
   50.2399  -14.0272   -6.7595 C   0  0  0  0  0  0  0  0  0  0  0  0
   46.4191  -19.8759   -5.3252 C   0  0  0  0  0  0  0  0  0  0  0  0
   51.3750  -14.5599   -6.1546 C   0  0  0  0  0  0  0  0  0  0  0  0
   51.9220  -18.5495   -6.6329 H   0  0  0  0  0  0  0  0  0  0  0  0
   50.3191  -20.2689   -6.3647 H   0  0  0  0  0  0  0  0  0  0  0  0
   46.5283  -17.5991  -10.4242 H   0  0  0  0  0  0  0  0  0  0  0  0
   46.9104  -18.9112   -9.3281 H   0  0  0  0  0  0  0  0  0  0  0  0
   48.3587  -15.6360  -10.7305 H   0  0  0  0  0  0  0  0  0  0  0  0
   49.8504  -15.7580   -9.8202 H   0  0  0  0  0  0  0  0  0  0  0  0
   47.3658  -19.6023  -11.6295 H   0  0  0  0  0  0  0  0  0  0  0  0
   48.8054  -19.6428  -10.6425 H   0  0  0  0  0  0  0  0  0  0  0  0
   50.5240  -17.7995  -10.9301 H   0  0  0  0  0  0  0  0  0  0  0  0
   50.2146  -16.5468  -12.1062 H   0  0  0  0  0  0  0  0  0  0  0  0
   48.4101  -14.4547   -7.8018 H   0  0  0  0  0  0  0  0  0  0  0  0
   45.8193  -17.2337   -7.3681 H   0  0  0  0  0  0  0  0  0  0  0  0
   48.4753  -16.8659  -13.7408 H   0  0  0  0  0  0  0  0  0  0  0  0
   47.2374  -16.7224  -12.4810 H   0  0  0  0  0  0  0  0  0  0  0  0
   47.2864  -18.1410  -13.5417 H   0  0  0  0  0  0  0  0  0  0  0  0
   48.3404  -20.7440   -4.9321 H   0  0  0  0  0  0  0  0  0  0  0  0
   52.4477  -16.3383   -5.6195 H   0  0  0  0  0  0  0  0  0  0  0  0
   44.6333  -18.8021   -5.8688 H   0  0  0  0  0  0  0  0  0  0  0  0
   50.0876  -12.9515   -6.7817 H   0  0  0  0  0  0  0  0  0  0  0  0
   45.8983  -20.5656   -4.6656 H   0  0  0  0  0  0  0  0  0  0  0  0
   52.1126  -13.8996   -5.7058 H   0  0  0  0  0  0  0  0  0  0  0  0
  2  1  1  0
  3  1  1  0
  4  1  2  3
  5  9  1  0
  6  8  1  0
  7 13  1  0
  8  3  2  0
  9  2  2  0
 10  4  1  0
 11  4  1  0
 12 10  1  0
 13 11  1  0
 14  2  1  0
 15  3  1  0
 16  7  1  0
 17  8  1  0
 18  9  1  0
 19 15  2  0
 20 14  2  0
 21 19  1  0
 22 20  1  0
  7 12  1  0
  6  5  2  0
 21 17  2  0
 22 18  2  0
  5 23  1  0
  6 24  1  0
 10 25  1  0
 10 26  1  0
 11 27  1  0
 11 28  1  0
 12 29  1  0
 12 30  1  0
 13 31  1  0
 13 32  1  0
 14 33  1  0
 15 34  1  0
 16 35  1  0
 16 36  1  0
 16 37  1  0
 17 38  1  0
 18 39  1  0
 19 40  1  0
 20 41  1  0
 21 42  1  0
 22 43  1  0
M  END
> <Uni-Dock RESULT> 
ENERGY=   -5.160  LOWER_BOUND=    1.684  UPPER_BOUND=    4.679
INTER + INTRA:          -5.160
INTER:                  -5.160
INTRA:                   0.000
UNBOUND:                 0.000

$$$$

     RDKit          3D

 43 46  0  0  0  0  0  0  0  0999 V2000
   46.9143  -15.9806  -10.6050 C   0  0  0  0  0  0  0  0  0  0  0  0
   46.7259  -16.3147   -9.1699 C   0  0  0  0  0  0  0  0  0  0  0  0
   45.6976  -15.6838  -11.4039 C   0  0  0  0  0  0  0  0  0  0  0  0
   48.1371  -16.0744  -11.1942 C   0  0  0  0  0  0  0  0  0  0  0  0
   45.3379  -18.3489   -9.7838 C   0  0  0  0  0  0  0  0  0  0  0  0
   44.7932  -18.0147  -10.9675 C   0  0  0  0  0  0  0  0  0  0  0  0
   50.3992  -17.4278  -12.6175 N   0  0  0  0  0  0  0  0  0  0  0  0
   44.6938  -16.6622  -11.5506 C   0  0  0  0  0  0  0  0  0  0  0  0
   45.9589  -17.4384   -8.8017 C   0  0  0  0  0  0  0  0  0  0  0  0
   48.4022  -15.8570  -12.6794 C   0  0  0  0  0  0  0  0  0  0  0  0
   49.4174  -16.4800  -10.4736 C   0  0  0  0  0  0  0  0  0  0  0  0
   49.1557  -17.0441  -13.3071 C   0  0  0  0  0  0  0  0  0  0  0  0
   50.1321  -17.6433  -11.1854 C   0  0  0  0  0  0  0  0  0  0  0  0
   47.2627  -15.4784   -8.1770 C   0  0  0  0  0  0  0  0  0  0  0  0
   45.5191  -14.4086  -11.9656 C   0  0  0  0  0  0  0  0  0  0  0  0
   51.4711  -16.4606  -12.8377 C   0  0  0  0  0  0  0  0  0  0  0  0
   43.5594  -16.3578  -12.3192 C   0  0  0  0  0  0  0  0  0  0  0  0
   45.8056  -17.7357   -7.4386 C   0  0  0  0  0  0  0  0  0  0  0  0
   44.3780  -14.1183  -12.7125 C   0  0  0  0  0  0  0  0  0  0  0  0
   47.0867  -15.7801   -6.8271 C   0  0  0  0  0  0  0  0  0  0  0  0
   43.4026  -15.0946  -12.8952 C   0  0  0  0  0  0  0  0  0  0  0  0
   46.3650  -16.9120   -6.4586 C   0  0  0  0  0  0  0  0  0  0  0  0
   45.3091  -19.3950   -9.4859 H   0  0  0  0  0  0  0  0  0  0  0  0
   44.3510  -18.8072  -11.5677 H   0  0  0  0  0  0  0  0  0  0  0  0
   48.9848  -14.9353  -12.7978 H   0  0  0  0  0  0  0  0  0  0  0  0
   47.4863  -15.7165  -13.2593 H   0  0  0  0  0  0  0  0  0  0  0  0
   50.0789  -15.6067  -10.4207 H   0  0  0  0  0  0  0  0  0  0  0  0
   49.2435  -16.7948   -9.4413 H   0  0  0  0  0  0  0  0  0  0  0  0
   49.3664  -16.8262  -14.3616 H   0  0  0  0  0  0  0  0  0  0  0  0
   48.4894  -17.9174  -13.3183 H   0  0  0  0  0  0  0  0  0  0  0  0
   49.5166  -18.5478  -11.0864 H   0  0  0  0  0  0  0  0  0  0  0  0
   51.0691  -17.8711  -10.6619 H   0  0  0  0  0  0  0  0  0  0  0  0
   47.8232  -14.5899   -8.4576 H   0  0  0  0  0  0  0  0  0  0  0  0
   46.2744  -13.6397  -11.8225 H   0  0  0  0  0  0  0  0  0  0  0  0
   52.3973  -16.8049  -12.3641 H   0  0  0  0  0  0  0  0  0  0  0  0
   51.2440  -15.4622  -12.4512 H   0  0  0  0  0  0  0  0  0  0  0  0
   51.6866  -16.3688  -13.9081 H   0  0  0  0  0  0  0  0  0  0  0  0
   42.7767  -17.0995  -12.4616 H   0  0  0  0  0  0  0  0  0  0  0  0
   45.2318  -18.6057   -7.1271 H   0  0  0  0  0  0  0  0  0  0  0  0
   44.2507  -13.1314  -13.1492 H   0  0  0  0  0  0  0  0  0  0  0  0
   47.5110  -15.1316   -6.0653 H   0  0  0  0  0  0  0  0  0  0  0  0
   42.5125  -14.8717  -13.4781 H   0  0  0  0  0  0  0  0  0  0  0  0
   46.2272  -17.1505   -5.4071 H   0  0  0  0  0  0  0  0  0  0  0  0
  2  1  1  0
  3  1  1  0
  4  1  2  3
  5  9  1  0
  6  8  1  0
  7 13  1  0
  8  3  2  0
  9  2  2  0
 10  4  1  0
 11  4  1  0
 12 10  1  0
 13 11  1  0
 14  2  1  0
 15  3  1  0
 16  7  1  0
 17  8  1  0
 18  9  1  0
 19 15  2  0
 20 14  2  0
 21 19  1  0
 22 20  1  0
  7 12  1  0
  6  5  2  0
 21 17  2  0
 22 18  2  0
  5 23  1  0
  6 24  1  0
 10 25  1  0
 10 26  1  0
 11 27  1  0
 11 28  1  0
 12 29  1  0
 12 30  1  0
 13 31  1  0
 13 32  1  0
 14 33  1  0
 15 34  1  0
 16 35  1  0
 16 36  1  0
 16 37  1  0
 17 38  1  0
 18 39  1  0
 19 40  1  0
 20 41  1  0
 21 42  1  0
 22 43  1  0
M  END
> <Uni-Dock RESULT> 
ENERGY=   -5.143  LOWER_BOUND=    3.808  UPPER_BOUND=    6.207
INTER + INTRA:          -5.143
INTER:                  -5.143
INTRA:                   0.000
UNBOUND:                 0.000

$$$$

     RDKit          3D

 43 46  0  0  0  0  0  0  0  0999 V2000
   46.1849  -16.1805  -10.4513 C   0  0  0  0  0  0  0  0  0  0  0  0
   46.2759  -15.2863  -11.6341 C   0  0  0  0  0  0  0  0  0  0  0  0
   47.2172  -16.0245   -9.3946 C   0  0  0  0  0  0  0  0  0  0  0  0
   45.2742  -17.1901  -10.4014 C   0  0  0  0  0  0  0  0  0  0  0  0
   48.5533  -16.2363  -12.2278 C   0  0  0  0  0  0  0  0  0  0  0  0
   49.0520  -16.6274  -11.0413 C   0  0  0  0  0  0  0  0  0  0  0  0
   44.2143  -19.9532  -10.8668 N   0  0  0  0  0  0  0  0  0  0  0  0
   48.5777  -16.2276   -9.7018 C   0  0  0  0  0  0  0  0  0  0  0  0
   47.4195  -15.3192  -12.4573 C   0  0  0  0  0  0  0  0  0  0  0  0
   45.1818  -18.2190   -9.2807 C   0  0  0  0  0  0  0  0  0  0  0  0
   44.2525  -17.4902  -11.4919 C   0  0  0  0  0  0  0  0  0  0  0  0
   45.2099  -19.6603   -9.8218 C   0  0  0  0  0  0  0  0  0  0  0  0
   44.3161  -18.9592  -11.9486 C   0  0  0  0  0  0  0  0  0  0  0  0
   45.2486  -14.3659  -11.9003 C   0  0  0  0  0  0  0  0  0  0  0  0
   46.8449  -15.6179   -8.1025 C   0  0  0  0  0  0  0  0  0  0  0  0
   42.8602  -20.0420  -10.3269 C   0  0  0  0  0  0  0  0  0  0  0  0
   49.5306  -16.0831   -8.6813 C   0  0  0  0  0  0  0  0  0  0  0  0
   47.4741  -14.4701  -13.5736 C   0  0  0  0  0  0  0  0  0  0  0  0
   47.8069  -15.4632   -7.1052 C   0  0  0  0  0  0  0  0  0  0  0  0
   45.3270  -13.5183  -13.0046 C   0  0  0  0  0  0  0  0  0  0  0  0
   49.1476  -15.7029   -7.3926 C   0  0  0  0  0  0  0  0  0  0  0  0
   46.4356  -13.5758  -13.8447 C   0  0  0  0  0  0  0  0  0  0  0  0
   49.0359  -16.6046  -13.1307 H   0  0  0  0  0  0  0  0  0  0  0  0
   49.9130  -17.2926  -11.0439 H   0  0  0  0  0  0  0  0  0  0  0  0
   44.2540  -18.0436   -8.7226 H   0  0  0  0  0  0  0  0  0  0  0  0
   45.9955  -18.1333   -8.5558 H   0  0  0  0  0  0  0  0  0  0  0  0
   43.2525  -17.2582  -11.1055 H   0  0  0  0  0  0  0  0  0  0  0  0
   44.3869  -16.8717  -12.3832 H   0  0  0  0  0  0  0  0  0  0  0  0
   45.0942  -20.3652   -8.9889 H   0  0  0  0  0  0  0  0  0  0  0  0
   46.2073  -19.8612  -10.2361 H   0  0  0  0  0  0  0  0  0  0  0  0
   45.2669  -19.1237  -12.4735 H   0  0  0  0  0  0  0  0  0  0  0  0
   43.5356  -19.1427  -12.6977 H   0  0  0  0  0  0  0  0  0  0  0  0
   44.3822  -14.3120  -11.2454 H   0  0  0  0  0  0  0  0  0  0  0  0
   45.8000  -15.4239   -7.8724 H   0  0  0  0  0  0  0  0  0  0  0  0
   42.1534  -20.3208  -11.1164 H   0  0  0  0  0  0  0  0  0  0  0  0
   42.5098  -19.1101   -9.8724 H   0  0  0  0  0  0  0  0  0  0  0  0
   42.8040  -20.8309   -9.5686 H   0  0  0  0  0  0  0  0  0  0  0  0
   50.5856  -16.2490   -8.8871 H   0  0  0  0  0  0  0  0  0  0  0  0
   48.3380  -14.4861  -14.2344 H   0  0  0  0  0  0  0  0  0  0  0  0
   47.5097  -15.1548   -6.1064 H   0  0  0  0  0  0  0  0  0  0  0  0
   44.5249  -12.8138  -13.2073 H   0  0  0  0  0  0  0  0  0  0  0  0
   49.8998  -15.5844   -6.6168 H   0  0  0  0  0  0  0  0  0  0  0  0
   46.4990  -12.9173  -14.7071 H   0  0  0  0  0  0  0  0  0  0  0  0
  2  1  1  0
  3  1  1  0
  4  1  2  3
  5  9  1  0
  6  8  1  0
  7 13  1  0
  8  3  2  0
  9  2  2  0
 10  4  1  0
 11  4  1  0
 12 10  1  0
 13 11  1  0
 14  2  1  0
 15  3  1  0
 16  7  1  0
 17  8  1  0
 18  9  1  0
 19 15  2  0
 20 14  2  0
 21 19  1  0
 22 20  1  0
  7 12  1  0
  6  5  2  0
 21 17  2  0
 22 18  2  0
  5 23  1  0
  6 24  1  0
 10 25  1  0
 10 26  1  0
 11 27  1  0
 11 28  1  0
 12 29  1  0
 12 30  1  0
 13 31  1  0
 13 32  1  0
 14 33  1  0
 15 34  1  0
 16 35  1  0
 16 36  1  0
 16 37  1  0
 17 38  1  0
 18 39  1  0
 19 40  1  0
 20 41  1  0
 21 42  1  0
 22 43  1  0
M  END
> <Uni-Dock RESULT> 
ENERGY=   -4.562  LOWER_BOUND=    4.348  UPPER_BOUND=    6.243
INTER + INTRA:          -4.562
INTER:                  -4.562
INTRA:                   0.000
UNBOUND:                 0.000

$$$$

     RDKit          3D

 43 46  0  0  0  0  0  0  0  0999 V2000
   45.0340  -14.0113  -12.3412 C   0  0  0  0  0  0  0  0  0  0  0  0
   45.2197  -15.3139  -11.6517 C   0  0  0  0  0  0  0  0  0  0  0  0
   43.7156  -13.3424  -12.1966 C   0  0  0  0  0  0  0  0  0  0  0  0
   45.9851  -13.5175  -13.1796 C   0  0  0  0  0  0  0  0  0  0  0  0
   43.3492  -16.3502  -13.0187 C   0  0  0  0  0  0  0  0  0  0  0  0
   42.5523  -15.3057  -13.3075 C   0  0  0  0  0  0  0  0  0  0  0  0
   47.4195  -13.1428  -15.7828 N   0  0  0  0  0  0  0  0  0  0  0  0
   42.5454  -13.9838  -12.6503 C   0  0  0  0  0  0  0  0  0  0  0  0
   44.3962  -16.4097  -11.9797 C   0  0  0  0  0  0  0  0  0  0  0  0
   45.8340  -12.2480  -14.0094 C   0  0  0  0  0  0  0  0  0  0  0  0
   47.3190  -14.1946  -13.4715 C   0  0  0  0  0  0  0  0  0  0  0  0
   46.1251  -12.4996  -15.5004 C   0  0  0  0  0  0  0  0  0  0  0  0
   47.5534  -14.3720  -14.9828 C   0  0  0  0  0  0  0  0  0  0  0  0
   46.1769  -15.4390  -10.6311 C   0  0  0  0  0  0  0  0  0  0  0  0
   43.6262  -12.0957  -11.5554 C   0  0  0  0  0  0  0  0  0  0  0  0
   48.5422  -12.2307  -15.5818 C   0  0  0  0  0  0  0  0  0  0  0  0
   41.3144  -13.3242  -12.5099 C   0  0  0  0  0  0  0  0  0  0  0  0
   44.6004  -17.6311  -11.3190 C   0  0  0  0  0  0  0  0  0  0  0  0
   42.3926  -11.4622  -11.4098 C   0  0  0  0  0  0  0  0  0  0  0  0
   46.3551  -16.6557   -9.9739 C   0  0  0  0  0  0  0  0  0  0  0  0
   41.2389  -12.0728  -11.8934 C   0  0  0  0  0  0  0  0  0  0  0  0
   45.5725  -17.7528  -10.3229 C   0  0  0  0  0  0  0  0  0  0  0  0
   43.2102  -17.2697  -13.5835 H   0  0  0  0  0  0  0  0  0  0  0  0
   41.8086  -15.4326  -14.0915 H   0  0  0  0  0  0  0  0  0  0  0  0
   46.5205  -11.4896  -13.6138 H   0  0  0  0  0  0  0  0  0  0  0  0
   44.8319  -11.8155  -13.9475 H   0  0  0  0  0  0  0  0  0  0  0  0
   48.1209  -13.5874  -13.0340 H   0  0  0  0  0  0  0  0  0  0  0  0
   47.4024  -15.1850  -13.0162 H   0  0  0  0  0  0  0  0  0  0  0  0
   46.0509  -11.5537  -16.0515 H   0  0  0  0  0  0  0  0  0  0  0  0
   45.3310  -13.1381  -15.9110 H   0  0  0  0  0  0  0  0  0  0  0  0
   46.8337  -15.1078  -15.3666 H   0  0  0  0  0  0  0  0  0  0  0  0
   48.5417  -14.8188  -15.1490 H   0  0  0  0  0  0  0  0  0  0  0  0
   46.7882  -14.5849  -10.3499 H   0  0  0  0  0  0  0  0  0  0  0  0
   44.5226  -11.6155  -11.1708 H   0  0  0  0  0  0  0  0  0  0  0  0
   49.4833  -12.7191  -15.8585 H   0  0  0  0  0  0  0  0  0  0  0  0
   48.6359  -11.8744  -14.5513 H   0  0  0  0  0  0  0  0  0  0  0  0
   48.4438  -11.3565  -16.2351 H   0  0  0  0  0  0  0  0  0  0  0  0
   40.3978  -13.7896  -12.8653 H   0  0  0  0  0  0  0  0  0  0  0  0
   43.9894  -18.4971  -11.5638 H   0  0  0  0  0  0  0  0  0  0  0  0
   42.3330  -10.4948  -10.9185 H   0  0  0  0  0  0  0  0  0  0  0  0
   47.1024  -16.7460   -9.1902 H   0  0  0  0  0  0  0  0  0  0  0  0
   40.2759  -11.5807  -11.7825 H   0  0  0  0  0  0  0  0  0  0  0  0
   45.7099  -18.7030   -9.8133 H   0  0  0  0  0  0  0  0  0  0  0  0
  2  1  1  0
  3  1  1  0
  4  1  2  3
  5  9  1  0
  6  8  1  0
  7 13  1  0
  8  3  2  0
  9  2  2  0
 10  4  1  0
 11  4  1  0
 12 10  1  0
 13 11  1  0
 14  2  1  0
 15  3  1  0
 16  7  1  0
 17  8  1  0
 18  9  1  0
 19 15  2  0
 20 14  2  0
 21 19  1  0
 22 20  1  0
  7 12  1  0
  6  5  2  0
 21 17  2  0
 22 18  2  0
  5 23  1  0
  6 24  1  0
 10 25  1  0
 10 26  1  0
 11 27  1  0
 11 28  1  0
 12 29  1  0
 12 30  1  0
 13 31  1  0
 13 32  1  0
 14 33  1  0
 15 34  1  0
 16 35  1  0
 16 36  1  0
 16 37  1  0
 17 38  1  0
 18 39  1  0
 19 40  1  0
 20 41  1  0
 21 42  1  0
 22 43  1  0
M  END
> <Uni-Dock RESULT> 
ENERGY=   -4.033  LOWER_BOUND=    6.695  UPPER_BOUND=    8.827
INTER + INTRA:          -4.033
INTER:                  -4.033
INTRA:                   0.000
UNBOUND:                 0.000

$$$$

     RDKit          3D

 43 46  0  0  0  0  0  0  0  0999 V2000
   50.1261  -18.3743   -7.7116 C   0  0  0  0  0  0  0  0  0  0  0  0
   50.2966  -18.0640   -9.1543 C   0  0  0  0  0  0  0  0  0  0  0  0
   48.7553  -18.2760   -7.1478 C   0  0  0  0  0  0  0  0  0  0  0  0
   51.2010  -18.6074   -6.9106 C   0  0  0  0  0  0  0  0  0  0  0  0
   49.4697  -15.6932   -8.7837 C   0  0  0  0  0  0  0  0  0  0  0  0
   48.6531  -15.8055   -7.7206 C   0  0  0  0  0  0  0  0  0  0  0  0
   53.4716  -17.8943   -5.0912 N   0  0  0  0  0  0  0  0  0  0  0  0
   48.0671  -17.0463   -7.1764 C   0  0  0  0  0  0  0  0  0  0  0  0
   49.9634  -16.7855   -9.6453 C   0  0  0  0  0  0  0  0  0  0  0  0
   51.1277  -18.8257   -5.4039 C   0  0  0  0  0  0  0  0  0  0  0  0
   52.6494  -18.6162   -7.3850 C   0  0  0  0  0  0  0  0  0  0  0  0
   52.0696  -17.8764   -4.6406 C   0  0  0  0  0  0  0  0  0  0  0  0
   53.5332  -17.6750   -6.5461 C   0  0  0  0  0  0  0  0  0  0  0  0
   50.7344  -19.0617  -10.0411 C   0  0  0  0  0  0  0  0  0  0  0  0
   48.1208  -19.4211   -6.6384 C   0  0  0  0  0  0  0  0  0  0  0  0
   54.1628  -19.1165   -4.6894 C   0  0  0  0  0  0  0  0  0  0  0  0
   46.7768  -16.9802   -6.6277 C   0  0  0  0  0  0  0  0  0  0  0  0
   50.1437  -16.5173  -11.0112 C   0  0  0  0  0  0  0  0  0  0  0  0
   46.8321  -19.3404   -6.1121 C   0  0  0  0  0  0  0  0  0  0  0  0
   50.8922  -18.7822  -11.3979 C   0  0  0  0  0  0  0  0  0  0  0  0
   46.1638  -18.1194   -6.1001 C   0  0  0  0  0  0  0  0  0  0  0  0
   50.6042  -17.5088  -11.8811 C   0  0  0  0  0  0  0  0  0  0  0  0
   49.7966  -14.6967   -9.0731 H   0  0  0  0  0  0  0  0  0  0  0  0
   48.3605  -14.8941   -7.2034 H   0  0  0  0  0  0  0  0  0  0  0  0
   51.3893  -19.8692   -5.1901 H   0  0  0  0  0  0  0  0  0  0  0  0
   50.1234  -18.6732   -5.0000 H   0  0  0  0  0  0  0  0  0  0  0  0
   53.0292  -19.6435   -7.3251 H   0  0  0  0  0  0  0  0  0  0  0  0
   52.7574  -18.3108   -8.4290 H   0  0  0  0  0  0  0  0  0  0  0  0
   52.0203  -18.0986   -3.5672 H   0  0  0  0  0  0  0  0  0  0  0  0
   51.6925  -16.8497   -4.7423 H   0  0  0  0  0  0  0  0  0  0  0  0
   53.2323  -16.6378   -6.7469 H   0  0  0  0  0  0  0  0  0  0  0  0
   54.5726  -17.7474   -6.8901 H   0  0  0  0  0  0  0  0  0  0  0  0
   50.9563  -20.0599   -9.6714 H   0  0  0  0  0  0  0  0  0  0  0  0
   48.6349  -20.3791   -6.6493 H   0  0  0  0  0  0  0  0  0  0  0  0
   55.2170  -19.0721   -4.9852 H   0  0  0  0  0  0  0  0  0  0  0  0
   53.7286  -20.0246   -5.1189 H   0  0  0  0  0  0  0  0  0  0  0  0
   54.1517  -19.2187   -3.5985 H   0  0  0  0  0  0  0  0  0  0  0  0
   46.2293  -16.0404   -6.6227 H   0  0  0  0  0  0  0  0  0  0  0  0
   49.9093  -15.5344  -11.4137 H   0  0  0  0  0  0  0  0  0  0  0  0
   46.3509  -20.2297   -5.7139 H   0  0  0  0  0  0  0  0  0  0  0  0
   51.2379  -19.5577  -12.0761 H   0  0  0  0  0  0  0  0  0  0  0  0
   45.1595  -18.0531   -5.6893 H   0  0  0  0  0  0  0  0  0  0  0  0
   50.7274  -17.2875  -12.9381 H   0  0  0  0  0  0  0  0  0  0  0  0
  2  1  1  0
  3  1  1  0
  4  1  2  3
  5  9  1  0
  6  8  1  0
  7 13  1  0
  8  3  2  0
  9  2  2  0
 10  4  1  0
 11  4  1  0
 12 10  1  0
 13 11  1  0
 14  2  1  0
 15  3  1  0
 16  7  1  0
 17  8  1  0
 18  9  1  0
 19 15  2  0
 20 14  2  0
 21 19  1  0
 22 20  1  0
  7 12  1  0
  6  5  2  0
 21 17  2  0
 22 18  2  0
  5 23  1  0
  6 24  1  0
 10 25  1  0
 10 26  1  0
 11 27  1  0
 11 28  1  0
 12 29  1  0
 12 30  1  0
 13 31  1  0
 13 32  1  0
 14 33  1  0
 15 34  1  0
 16 35  1  0
 16 36  1  0
 16 37  1  0
 17 38  1  0
 18 39  1  0
 19 40  1  0
 20 41  1  0
 21 42  1  0
 22 43  1  0
M  END
> <Uni-Dock RESULT> 
ENERGY=   -3.975  LOWER_BOUND=    2.131  UPPER_BOUND=    4.959
INTER + INTRA:          -3.975
INTER:                  -3.975
INTRA:                   0.000
UNBOUND:                 0.000

$$$$
