
     RDKit          3D

 43 46  0  0  0  0  0  0  0  0999 V2000
   50.2367  -17.2713   -7.4919 C   0  0  0  0  0  0  0  0  0  0  0  0
   48.7905  -17.1793   -7.1646 C   0  0  0  0  0  0  0  0  0  0  0  0
   51.1975  -16.6170   -6.5668 C   0  0  0  0  0  0  0  0  0  0  0  0
   50.6451  -17.7976   -8.6786 C   0  0  0  0  0  0  0  0  0  0  0  0
   48.8729  -14.6469   -7.3240 C   0  0  0  0  0  0  0  0  0  0  0  0
   50.1484  -14.3498   -7.0178 C   0  0  0  0  0  0  0  0  0  0  0  0
   51.5412  -18.7605  -11.4152 N   0  0  0  0  0  0  0  0  0  0  0  0
   51.1294  -15.2263   -6.3483 C   0  0  0  0  0  0  0  0  0  0  0  0
   48.1666  -15.9187   -7.0708 C   0  0  0  0  0  0  0  0  0  0  0  0
   49.6894  -18.3466   -9.7344 C   0  0  0  0  0  0  0  0  0  0  0  0
   52.0961  -17.8284   -9.1478 C   0  0  0  0  0  0  0  0  0  0  0  0
   50.2294  -18.1412  -11.1600 C   0  0  0  0  0  0  0  0  0  0  0  0
   52.3320  -18.9392  -10.1854 C   0  0  0  0  0  0  0  0  0  0  0  0
   48.0535  -18.3469   -6.9072 C   0  0  0  0  0  0  0  0  0  0  0  0
   52.1269  -17.3892   -5.8513 C   0  0  0  0  0  0  0  0  0  0  0  0
   51.4199  -20.0231  -12.1386 C   0  0  0  0  0  0  0  0  0  0  0  0
   52.0533  -14.6309   -5.4749 C   0  0  0  0  0  0  0  0  0  0  0  0
   46.7960  -15.8635   -6.7734 C   0  0  0  0  0  0  0  0  0  0  0  0
   53.0267  -16.7839   -4.9746 C   0  0  0  0  0  0  0  0  0  0  0  0
   46.6959  -18.2718   -6.5980 C   0  0  0  0  0  0  0  0  0  0  0  0
   52.9959  -15.4044   -4.7937 C   0  0  0  0  0  0  0  0  0  0  0  0
   46.0667  -17.0315   -6.5367 C   0  0  0  0  0  0  0  0  0  0  0  0
   48.2692  -13.8738   -7.7952 H   0  0  0  0  0  0  0  0  0  0  0  0
   50.5115  -13.3521   -7.2556 H   0  0  0  0  0  0  0  0  0  0  0  0
   48.7106  -17.8580   -9.6850 H   0  0  0  0  0  0  0  0  0  0  0  0
   49.5346  -19.4177   -9.5538 H   0  0  0  0  0  0  0  0  0  0  0  0
   52.3504  -16.8559   -9.5882 H   0  0  0  0  0  0  0  0  0  0  0  0
   52.7888  -18.0052   -8.3214 H   0  0  0  0  0  0  0  0  0  0  0  0
   50.3367  -17.0628  -11.3385 H   0  0  0  0  0  0  0  0  0  0  0  0
   49.4813  -18.4813  -11.8873 H   0  0  0  0  0  0  0  0  0  0  0  0
   53.3950  -18.9564  -10.4538 H   0  0  0  0  0  0  0  0  0  0  0  0
   52.1063  -19.9053   -9.7121 H   0  0  0  0  0  0  0  0  0  0  0  0
   48.5395  -19.3186   -6.9481 H   0  0  0  0  0  0  0  0  0  0  0  0
   52.1507  -18.4688   -5.9782 H   0  0  0  0  0  0  0  0  0  0  0  0
   50.8388  -20.7651  -11.5792 H   0  0  0  0  0  0  0  0  0  0  0  0
   52.4094  -20.4445  -12.3479 H   0  0  0  0  0  0  0  0  0  0  0  0
   50.9357  -19.8656  -13.1088 H   0  0  0  0  0  0  0  0  0  0  0  0
   52.0330  -13.5572   -5.3022 H   0  0  0  0  0  0  0  0  0  0  0  0
   46.2858  -14.9050   -6.7091 H   0  0  0  0  0  0  0  0  0  0  0  0
   53.7481  -17.3892   -4.4324 H   0  0  0  0  0  0  0  0  0  0  0  0
   46.1317  -19.1800   -6.4038 H   0  0  0  0  0  0  0  0  0  0  0  0
   53.6967  -14.9290   -4.1122 H   0  0  0  0  0  0  0  0  0  0  0  0
   45.0082  -16.9700   -6.2971 H   0  0  0  0  0  0  0  0  0  0  0  0
  2  1  1  0
  3  1  1  0
  4  1  2  3
  5  9  1  0
  6  8  1  0
  7 13  1  0
  8  3  2  0
  9  2  2  0
 10  4  1  0
 11  4  1  0
 12 10  1  0
 13 11  1  0
 14  2  1  0
 15  3  1  0
 16  7  1  0
 17  8  1  0
 18  9  1  0
 19 15  2  0
 20 14  2  0
 21 19  1  0
 22 20  1  0
  7 12  1  0
  6  5  2  0
 21 17  2  0
 22 18  2  0
  5 23  1  0
  6 24  1  0
 10 25  1  0
 10 26  1  0
 11 27  1  0
 11 28  1  0
 12 29  1  0
 12 30  1  0
 13 31  1  0
 13 32  1  0
 14 33  1  0
 15 34  1  0
 16 35  1  0
 16 36  1  0
 16 37  1  0
 17 38  1  0
 18 39  1  0
 19 40  1  0
 20 41  1  0
 21 42  1  0
 22 43  1  0
M  END
> <Uni-Dock RESULT> 
ENERGY=   -6.237  LOWER_BOUND=    0.000  UPPER_BOUND=    0.000
INTER + INTRA:          -6.237
INTER:                  -6.237
INTRA:                   0.000
UNBOUND:                 0.000

$$$$

     RDKit          3D

 43 46  0  0  0  0  0  0  0  0999 V2000
   50.2674  -17.2854   -7.5041 C   0  0  0  0  0  0  0  0  0  0  0  0
   48.8209  -17.1827   -7.1814 C   0  0  0  0  0  0  0  0  0  0  0  0
   51.2312  -16.6560   -6.5650 C   0  0  0  0  0  0  0  0  0  0  0  0
   50.6751  -17.7976   -8.6972 C   0  0  0  0  0  0  0  0  0  0  0  0
   48.9313  -14.6492   -7.3009 C   0  0  0  0  0  0  0  0  0  0  0  0
   50.2086  -14.3708   -6.9849 C   0  0  0  0  0  0  0  0  0  0  0  0
   51.5723  -18.7275  -11.4449 N   0  0  0  0  0  0  0  0  0  0  0  0
   51.1772  -15.2682   -6.3252 C   0  0  0  0  0  0  0  0  0  0  0  0
   48.2102  -15.9170   -7.0705 C   0  0  0  0  0  0  0  0  0  0  0  0
   49.7180  -18.3196   -9.7654 C   0  0  0  0  0  0  0  0  0  0  0  0
   52.1277  -17.8369   -9.1609 C   0  0  0  0  0  0  0  0  0  0  0  0
   50.2663  -18.0980  -11.1854 C   0  0  0  0  0  0  0  0  0  0  0  0
   52.3559  -18.9339  -10.2147 C   0  0  0  0  0  0  0  0  0  0  0  0
   48.0702  -18.3461   -6.9453 C   0  0  0  0  0  0  0  0  0  0  0  0
   52.1492  -17.4493   -5.8579 C   0  0  0  0  0  0  0  0  0  0  0  0
   51.4405  -19.9772  -12.1883 C   0  0  0  0  0  0  0  0  0  0  0  0
   52.1038  -14.6966   -5.4388 C   0  0  0  0  0  0  0  0  0  0  0  0
   46.8390  -15.8516   -6.7779 C   0  0  0  0  0  0  0  0  0  0  0  0
   53.0518  -16.8675   -4.9682 C   0  0  0  0  0  0  0  0  0  0  0  0
   46.7122  -18.2610   -6.6404 C   0  0  0  0  0  0  0  0  0  0  0  0
   53.0351  -15.4907   -4.7659 C   0  0  0  0  0  0  0  0  0  0  0  0
   46.0962  -17.0152   -6.5623 C   0  0  0  0  0  0  0  0  0  0  0  0
   48.3380  -13.8624   -7.7625 H   0  0  0  0  0  0  0  0  0  0  0  0
   50.5835  -13.3735   -7.2056 H   0  0  0  0  0  0  0  0  0  0  0  0
   48.7444  -17.8212   -9.7123 H   0  0  0  0  0  0  0  0  0  0  0  0
   49.5509  -19.3916   -9.6021 H   0  0  0  0  0  0  0  0  0  0  0  0
   52.3943  -16.8604   -9.5851 H   0  0  0  0  0  0  0  0  0  0  0  0
   52.8149  -18.0340   -8.3346 H   0  0  0  0  0  0  0  0  0  0  0  0
   50.3860  -17.0182  -11.3466 H   0  0  0  0  0  0  0  0  0  0  0  0
   49.5176  -18.4186  -11.9210 H   0  0  0  0  0  0  0  0  0  0  0  0
   53.4199  -18.9585  -10.4790 H   0  0  0  0  0  0  0  0  0  0  0  0
   52.1179  -19.9047   -9.7575 H   0  0  0  0  0  0  0  0  0  0  0  0
   48.5458  -19.3223   -6.9993 H   0  0  0  0  0  0  0  0  0  0  0  0
   52.1618  -18.5270   -6.0015 H   0  0  0  0  0  0  0  0  0  0  0  0
   50.8490  -20.7215  -11.6430 H   0  0  0  0  0  0  0  0  0  0  0  0
   52.4263  -20.4061  -12.4002 H   0  0  0  0  0  0  0  0  0  0  0  0
   50.9622  -19.7995  -13.1580 H   0  0  0  0  0  0  0  0  0  0  0  0
   52.0944  -13.6255   -5.2494 H   0  0  0  0  0  0  0  0  0  0  0  0
   46.3390  -14.8887   -6.7007 H   0  0  0  0  0  0  0  0  0  0  0  0
   53.7643  -17.4891   -4.4326 H   0  0  0  0  0  0  0  0  0  0  0  0
   46.1374  -19.1660   -6.4627 H   0  0  0  0  0  0  0  0  0  0  0  0
   53.7380  -15.0337   -4.0742 H   0  0  0  0  0  0  0  0  0  0  0  0
   45.0374  -16.9458   -6.3261 H   0  0  0  0  0  0  0  0  0  0  0  0
  2  1  1  0
  3  1  1  0
  4  1  2  3
  5  9  1  0
  6  8  1  0
  7 13  1  0
  8  3  2  0
  9  2  2  0
 10  4  1  0
 11  4  1  0
 12 10  1  0
 13 11  1  0
 14  2  1  0
 15  3  1  0
 16  7  1  0
 17  8  1  0
 18  9  1  0
 19 15  2  0
 20 14  2  0
 21 19  1  0
 22 20  1  0
  7 12  1  0
  6  5  2  0
 21 17  2  0
 22 18  2  0
  5 23  1  0
  6 24  1  0
 10 25  1  0
 10 26  1  0
 11 27  1  0
 11 28  1  0
 12 29  1  0
 12 30  1  0
 13 31  1  0
 13 32  1  0
 14 33  1  0
 15 34  1  0
 16 35  1  0
 16 36  1  0
 16 37  1  0
 17 38  1  0
 18 39  1  0
 19 40  1  0
 20 41  1  0
 21 42  1  0
 22 43  1  0
M  END
> <Uni-Dock RESULT> 
ENERGY=   -6.229  LOWER_BOUND=    0.059  UPPER_BOUND=    0.059
INTER + INTRA:          -6.229
INTER:                  -6.229
INTRA:                   0.000
UNBOUND:                 0.000

$$$$

     RDKit          3D

 43 46  0  0  0  0  0  0  0  0999 V2000
   50.3543  -17.2541   -7.5693 C   0  0  0  0  0  0  0  0  0  0  0  0
   51.2157  -17.5321   -6.3913 C   0  0  0  0  0  0  0  0  0  0  0  0
   48.9098  -17.0065   -7.3259 C   0  0  0  0  0  0  0  0  0  0  0  0
   50.8464  -17.3822   -8.8316 C   0  0  0  0  0  0  0  0  0  0  0  0
   49.8553  -19.6013   -5.8322 C   0  0  0  0  0  0  0  0  0  0  0  0
   48.6383  -19.3280   -6.3354 C   0  0  0  0  0  0  0  0  0  0  0  0
   51.8791  -17.8883  -11.6418 N   0  0  0  0  0  0  0  0  0  0  0  0
   48.1150  -18.0046   -6.7273 C   0  0  0  0  0  0  0  0  0  0  0  0
   50.9478  -18.6440   -5.5672 C   0  0  0  0  0  0  0  0  0  0  0  0
   52.2858  -17.7838   -9.1419 C   0  0  0  0  0  0  0  0  0  0  0  0
   50.0087  -17.2295  -10.0971 C   0  0  0  0  0  0  0  0  0  0  0  0
   52.3885  -18.5873  -10.4496 C   0  0  0  0  0  0  0  0  0  0  0  0
   50.8786  -16.8591  -11.3104 C   0  0  0  0  0  0  0  0  0  0  0  0
   52.2725  -16.6630   -6.0739 C   0  0  0  0  0  0  0  0  0  0  0  0
   48.3480  -15.7540   -7.6221 C   0  0  0  0  0  0  0  0  0  0  0  0
   52.9568  -17.3200  -12.4464 C   0  0  0  0  0  0  0  0  0  0  0  0
   46.7511  -17.7486   -6.5146 C   0  0  0  0  0  0  0  0  0  0  0  0
   51.7870  -18.8891   -4.4692 C   0  0  0  0  0  0  0  0  0  0  0  0
   46.9948  -15.5105   -7.3890 C   0  0  0  0  0  0  0  0  0  0  0  0
   53.0863  -16.9139   -4.9698 C   0  0  0  0  0  0  0  0  0  0  0  0
   46.1949  -16.5105   -6.8441 C   0  0  0  0  0  0  0  0  0  0  0  0
   52.8471  -18.0290   -4.1716 C   0  0  0  0  0  0  0  0  0  0  0  0
   50.0762  -20.6332   -5.5668 H   0  0  0  0  0  0  0  0  0  0  0  0
   47.9366  -20.1515   -6.4505 H   0  0  0  0  0  0  0  0  0  0  0  0
   52.7116  -18.4040   -8.3461 H   0  0  0  0  0  0  0  0  0  0  0  0
   52.9002  -16.8782   -9.2210 H   0  0  0  0  0  0  0  0  0  0  0  0
   49.4857  -18.1737  -10.2960 H   0  0  0  0  0  0  0  0  0  0  0  0
   49.2500  -16.4502   -9.9929 H   0  0  0  0  0  0  0  0  0  0  0  0
   51.8038  -19.5101  -10.3368 H   0  0  0  0  0  0  0  0  0  0  0  0
   53.4248  -18.9180  -10.5955 H   0  0  0  0  0  0  0  0  0  0  0  0
   50.2299  -16.7101  -12.1819 H   0  0  0  0  0  0  0  0  0  0  0  0
   51.3633  -15.8944  -11.1042 H   0  0  0  0  0  0  0  0  0  0  0  0
   52.4619  -15.7873   -6.6897 H   0  0  0  0  0  0  0  0  0  0  0  0
   48.9680  -14.9634   -8.0377 H   0  0  0  0  0  0  0  0  0  0  0  0
   53.5420  -16.5799  -11.8889 H   0  0  0  0  0  0  0  0  0  0  0  0
   52.5548  -16.8382  -13.3447 H   0  0  0  0  0  0  0  0  0  0  0  0
   53.6356  -18.1077  -12.7916 H   0  0  0  0  0  0  0  0  0  0  0  0
   46.1122  -18.5084   -6.0699 H   0  0  0  0  0  0  0  0  0  0  0  0
   51.6122  -19.7480   -3.8250 H   0  0  0  0  0  0  0  0  0  0  0  0
   46.5676  -14.5408   -7.6300 H   0  0  0  0  0  0  0  0  0  0  0  0
   53.9043  -16.2388   -4.7330 H   0  0  0  0  0  0  0  0  0  0  0  0
   45.1395  -16.3247   -6.6623 H   0  0  0  0  0  0  0  0  0  0  0  0
   53.4807  -18.2278   -3.3110 H   0  0  0  0  0  0  0  0  0  0  0  0
  2  1  1  0
  3  1  1  0
  4  1  2  3
  5  9  1  0
  6  8  1  0
  7 13  1  0
  8  3  2  0
  9  2  2  0
 10  4  1  0
 11  4  1  0
 12 10  1  0
 13 11  1  0
 14  2  1  0
 15  3  1  0
 16  7  1  0
 17  8  1  0
 18  9  1  0
 19 15  2  0
 20 14  2  0
 21 19  1  0
 22 20  1  0
  7 12  1  0
  6  5  2  0
 21 17  2  0
 22 18  2  0
  5 23  1  0
  6 24  1  0
 10 25  1  0
 10 26  1  0
 11 27  1  0
 11 28  1  0
 12 29  1  0
 12 30  1  0
 13 31  1  0
 13 32  1  0
 14 33  1  0
 15 34  1  0
 16 35  1  0
 16 36  1  0
 16 37  1  0
 17 38  1  0
 18 39  1  0
 19 40  1  0
 20 41  1  0
 21 42  1  0
 22 43  1  0
M  END
> <Uni-Dock RESULT> 
ENERGY=   -5.348  LOWER_BOUND=    1.235  UPPER_BOUND=    4.535
INTER + INTRA:          -5.348
INTER:                  -5.348
INTRA:                   0.000
UNBOUND:                 0.000

$$$$

     RDKit          3D

 43 46  0  0  0  0  0  0  0  0999 V2000
   48.1091  -17.1178   -7.9534 C   0  0  0  0  0  0  0  0  0  0  0  0
   49.1269  -16.1843   -7.4061 C   0  0  0  0  0  0  0  0  0  0  0  0
   47.5305  -18.1279   -7.0304 C   0  0  0  0  0  0  0  0  0  0  0  0
   47.8413  -17.1443   -9.2875 C   0  0  0  0  0  0  0  0  0  0  0  0
   50.6648  -18.1245   -6.8441 C   0  0  0  0  0  0  0  0  0  0  0  0
   49.8215  -19.1551   -6.6554 C   0  0  0  0  0  0  0  0  0  0  0  0
   47.4110  -17.3596  -12.2855 N   0  0  0  0  0  0  0  0  0  0  0  0
   48.3669  -19.0812   -6.4155 C   0  0  0  0  0  0  0  0  0  0  0  0
   50.3278  -16.6870   -6.8653 C   0  0  0  0  0  0  0  0  0  0  0  0
   48.5196  -16.2309  -10.3049 C   0  0  0  0  0  0  0  0  0  0  0  0
   46.8998  -18.1431   -9.9525 C   0  0  0  0  0  0  0  0  0  0  0  0
   48.6748  -16.9128  -11.6750 C   0  0  0  0  0  0  0  0  0  0  0  0
   46.3560  -17.6062  -11.2874 C   0  0  0  0  0  0  0  0  0  0  0  0
   48.8749  -14.8027   -7.3889 C   0  0  0  0  0  0  0  0  0  0  0  0
   46.1639  -18.0911   -6.7096 C   0  0  0  0  0  0  0  0  0  0  0  0
   46.9423  -16.4355  -13.3141 C   0  0  0  0  0  0  0  0  0  0  0  0
   47.7947  -20.0296   -5.5529 C   0  0  0  0  0  0  0  0  0  0  0  0
   51.2766  -15.7802   -6.3678 C   0  0  0  0  0  0  0  0  0  0  0  0
   45.6144  -19.0304   -5.8375 C   0  0  0  0  0  0  0  0  0  0  0  0
   49.8228  -13.9178   -6.8764 C   0  0  0  0  0  0  0  0  0  0  0  0
   46.4278  -20.0048   -5.2668 C   0  0  0  0  0  0  0  0  0  0  0  0
   51.0248  -14.4059   -6.3714 C   0  0  0  0  0  0  0  0  0  0  0  0
   51.7207  -18.3493   -6.9810 H   0  0  0  0  0  0  0  0  0  0  0  0
   50.2375  -20.1604   -6.6480 H   0  0  0  0  0  0  0  0  0  0  0  0
   49.5208  -15.9340   -9.9754 H   0  0  0  0  0  0  0  0  0  0  0  0
   47.9232  -15.3169  -10.4178 H   0  0  0  0  0  0  0  0  0  0  0  0
   47.4404  -19.0819  -10.1283 H   0  0  0  0  0  0  0  0  0  0  0  0
   46.0381  -18.3743   -9.3217 H   0  0  0  0  0  0  0  0  0  0  0  0
   49.3097  -17.8003  -11.5510 H   0  0  0  0  0  0  0  0  0  0  0  0
   49.2311  -16.2519  -12.3519 H   0  0  0  0  0  0  0  0  0  0  0  0
   45.6471  -18.3329  -11.7017 H   0  0  0  0  0  0  0  0  0  0  0  0
   45.7886  -16.6873  -11.0828 H   0  0  0  0  0  0  0  0  0  0  0  0
   47.9361  -14.4148   -7.7767 H   0  0  0  0  0  0  0  0  0  0  0  0
   45.5231  -17.3266   -7.1422 H   0  0  0  0  0  0  0  0  0  0  0  0
   46.7467  -15.4349  -12.9120 H   0  0  0  0  0  0  0  0  0  0  0  0
   46.0220  -16.8083  -13.7774 H   0  0  0  0  0  0  0  0  0  0  0  0
   47.6823  -16.3461  -14.1172 H   0  0  0  0  0  0  0  0  0  0  0  0
   48.4156  -20.7866   -5.0790 H   0  0  0  0  0  0  0  0  0  0  0  0
   52.2179  -16.1395   -5.9581 H   0  0  0  0  0  0  0  0  0  0  0  0
   44.5539  -18.9990   -5.6026 H   0  0  0  0  0  0  0  0  0  0  0  0
   49.6219  -12.8499   -6.8700 H   0  0  0  0  0  0  0  0  0  0  0  0
   46.0027  -20.7393   -4.5877 H   0  0  0  0  0  0  0  0  0  0  0  0
   51.7662  -13.7184   -5.9724 H   0  0  0  0  0  0  0  0  0  0  0  0
  2  1  1  0
  3  1  1  0
  4  1  2  3
  5  9  1  0
  6  8  1  0
  7 13  1  0
  8  3  2  0
  9  2  2  0
 10  4  1  0
 11  4  1  0
 12 10  1  0
 13 11  1  0
 14  2  1  0
 15  3  1  0
 16  7  1  0
 17  8  1  0
 18  9  1  0
 19 15  2  0
 20 14  2  0
 21 19  1  0
 22 20  1  0
  7 12  1  0
  6  5  2  0
 21 17  2  0
 22 18  2  0
  5 23  1  0
  6 24  1  0
 10 25  1  0
 10 26  1  0
 11 27  1  0
 11 28  1  0
 12 29  1  0
 12 30  1  0
 13 31  1  0
 13 32  1  0
 14 33  1  0
 15 34  1  0
 16 35  1  0
 16 36  1  0
 16 37  1  0
 17 38  1  0
 18 39  1  0
 19 40  1  0
 20 41  1  0
 21 42  1  0
 22 43  1  0
M  END
> <Uni-Dock RESULT> 
ENERGY=   -5.220  LOWER_BOUND=    2.131  UPPER_BOUND=    4.915
INTER + INTRA:          -5.220
INTER:                  -5.220
INTRA:                   0.000
UNBOUND:                 0.000

$$$$

     RDKit          3D

 43 46  0  0  0  0  0  0  0  0999 V2000
   46.9870  -16.0065  -10.7199 C   0  0  0  0  0  0  0  0  0  0  0  0
   46.8204  -16.2478   -9.2635 C   0  0  0  0  0  0  0  0  0  0  0  0
   45.7744  -15.6640  -11.5067 C   0  0  0  0  0  0  0  0  0  0  0  0
   48.1794  -16.2496  -11.3292 C   0  0  0  0  0  0  0  0  0  0  0  0
   45.2580  -18.1954   -9.7225 C   0  0  0  0  0  0  0  0  0  0  0  0
   44.7121  -17.8921  -10.9137 C   0  0  0  0  0  0  0  0  0  0  0  0
   50.7679  -17.0071  -12.7240 N   0  0  0  0  0  0  0  0  0  0  0  0
   44.6994  -16.5728  -11.5757 C   0  0  0  0  0  0  0  0  0  0  0  0
   45.9771  -17.2830   -8.8112 C   0  0  0  0  0  0  0  0  0  0  0  0
   49.4193  -16.7499  -10.5931 C   0  0  0  0  0  0  0  0  0  0  0  0
   48.4109  -16.1405  -12.8328 C   0  0  0  0  0  0  0  0  0  0  0  0
   50.2936  -17.6475  -11.4854 C   0  0  0  0  0  0  0  0  0  0  0  0
   49.8948  -15.9042  -13.1614 C   0  0  0  0  0  0  0  0  0  0  0  0
   47.4705  -15.4176   -8.3356 C   0  0  0  0  0  0  0  0  0  0  0  0
   45.6633  -14.4066  -12.1221 C   0  0  0  0  0  0  0  0  0  0  0  0
   52.1522  -16.5562  -12.6128 C   0  0  0  0  0  0  0  0  0  0  0  0
   43.5676  -16.2286  -12.3317 C   0  0  0  0  0  0  0  0  0  0  0  0
   45.8498  -17.4958   -7.4297 C   0  0  0  0  0  0  0  0  0  0  0  0
   44.5248  -14.0739  -12.8555 C   0  0  0  0  0  0  0  0  0  0  0  0
   47.3199  -15.6345   -6.9665 C   0  0  0  0  0  0  0  0  0  0  0  0
   43.4816  -14.9881  -12.9679 C   0  0  0  0  0  0  0  0  0  0  0  0
   46.5148  -16.6761   -6.5142 C   0  0  0  0  0  0  0  0  0  0  0  0
   45.1556  -19.2167   -9.3610 H   0  0  0  0  0  0  0  0  0  0  0  0
   44.1954  -18.6821  -11.4546 H   0  0  0  0  0  0  0  0  0  0  0  0
   49.1530  -17.3350   -9.7066 H   0  0  0  0  0  0  0  0  0  0  0  0
   50.0073  -15.8869  -10.2562 H   0  0  0  0  0  0  0  0  0  0  0  0
   48.0719  -17.0664  -13.3150 H   0  0  0  0  0  0  0  0  0  0  0  0
   47.8464  -15.3156  -13.2741 H   0  0  0  0  0  0  0  0  0  0  0  0
   49.7037  -18.5268  -11.7770 H   0  0  0  0  0  0  0  0  0  0  0  0
   51.1312  -18.0436  -10.8971 H   0  0  0  0  0  0  0  0  0  0  0  0
   50.0047  -15.7814  -14.2455 H   0  0  0  0  0  0  0  0  0  0  0  0
   50.2022  -14.9552  -12.6997 H   0  0  0  0  0  0  0  0  0  0  0  0
   48.0966  -14.5989   -8.6816 H   0  0  0  0  0  0  0  0  0  0  0  0
   46.4688  -13.6821  -12.0303 H   0  0  0  0  0  0  0  0  0  0  0  0
   52.2813  -15.8119  -11.8189 H   0  0  0  0  0  0  0  0  0  0  0  0
   52.4922  -16.1174  -13.5575 H   0  0  0  0  0  0  0  0  0  0  0  0
   52.8167  -17.4021  -12.4042 H   0  0  0  0  0  0  0  0  0  0  0  0
   42.7315  -16.9193  -12.4150 H   0  0  0  0  0  0  0  0  0  0  0  0
   45.2173  -18.2966   -7.0531 H   0  0  0  0  0  0  0  0  0  0  0  0
   44.4524  -13.1017  -13.3355 H   0  0  0  0  0  0  0  0  0  0  0  0
   47.8292  -14.9900   -6.2550 H   0  0  0  0  0  0  0  0  0  0  0  0
   42.5933  -14.7327  -13.5399 H   0  0  0  0  0  0  0  0  0  0  0  0
   46.3966  -16.8484   -5.4475 H   0  0  0  0  0  0  0  0  0  0  0  0
  2  1  1  0
  3  1  1  0
  4  1  2  3
  5  9  1  0
  6  8  1  0
  7 13  1  0
  8  3  2  0
  9  2  2  0
 10  4  1  0
 11  4  1  0
 12 10  1  0
 13 11  1  0
 14  2  1  0
 15  3  1  0
 16  7  1  0
 17  8  1  0
 18  9  1  0
 19 15  2  0
 20 14  2  0
 21 19  1  0
 22 20  1  0
  7 12  1  0
  6  5  2  0
 21 17  2  0
 22 18  2  0
  5 23  1  0
  6 24  1  0
 10 25  1  0
 10 26  1  0
 11 27  1  0
 11 28  1  0
 12 29  1  0
 12 30  1  0
 13 31  1  0
 13 32  1  0
 14 33  1  0
 15 34  1  0
 16 35  1  0
 16 36  1  0
 16 37  1  0
 17 38  1  0
 18 39  1  0
 19 40  1  0
 20 41  1  0
 21 42  1  0
 22 43  1  0
M  END
> <Uni-Dock RESULT> 
ENERGY=   -4.980  LOWER_BOUND=    3.849  UPPER_BOUND=    6.326
INTER + INTRA:          -4.980
INTER:                  -4.980
INTRA:                   0.000
UNBOUND:                 0.000

$$$$

     RDKit          3D

 43 46  0  0  0  0  0  0  0  0999 V2000
   46.2353  -16.3025  -10.2971 C   0  0  0  0  0  0  0  0  0  0  0  0
   46.2541  -15.4421  -11.5080 C   0  0  0  0  0  0  0  0  0  0  0  0
   47.2582  -16.0455   -9.2509 C   0  0  0  0  0  0  0  0  0  0  0  0
   45.4124  -17.3844  -10.2301 C   0  0  0  0  0  0  0  0  0  0  0  0
   48.5963  -16.2333  -12.0851 C   0  0  0  0  0  0  0  0  0  0  0  0
   49.1243  -16.5622  -10.8925 C   0  0  0  0  0  0  0  0  0  0  0  0
   43.7453  -19.9216  -10.1758 N   0  0  0  0  0  0  0  0  0  0  0  0
   48.6280  -16.1647   -9.5605 C   0  0  0  0  0  0  0  0  0  0  0  0
   47.3960  -15.4101  -12.3340 C   0  0  0  0  0  0  0  0  0  0  0  0
   44.4478  -17.7840  -11.3433 C   0  0  0  0  0  0  0  0  0  0  0  0
   45.4069  -18.3864   -9.0801 C   0  0  0  0  0  0  0  0  0  0  0  0
   44.2534  -19.3083  -11.4149 C   0  0  0  0  0  0  0  0  0  0  0  0
   44.0608  -19.1238   -8.9784 C   0  0  0  0  0  0  0  0  0  0  0  0
   45.1494  -14.6279  -11.8076 C   0  0  0  0  0  0  0  0  0  0  0  0
   46.8686  -15.6117   -7.9733 C   0  0  0  0  0  0  0  0  0  0  0  0
   42.3136  -20.1989  -10.2485 C   0  0  0  0  0  0  0  0  0  0  0  0
   49.5747  -15.9234   -8.5523 C   0  0  0  0  0  0  0  0  0  0  0  0
   47.3795  -14.5980  -13.4786 C   0  0  0  0  0  0  0  0  0  0  0  0
   47.8228  -15.3601   -6.9880 C   0  0  0  0  0  0  0  0  0  0  0  0
   45.1571  -13.8156  -12.9409 C   0  0  0  0  0  0  0  0  0  0  0  0
   49.1747  -15.5249   -7.2747 C   0  0  0  0  0  0  0  0  0  0  0  0
   46.2689  -13.8050  -13.7785 C   0  0  0  0  0  0  0  0  0  0  0  0
   49.1028  -16.5870  -12.9809 H   0  0  0  0  0  0  0  0  0  0  0  0
   50.0308  -17.1638  -10.8840 H   0  0  0  0  0  0  0  0  0  0  0  0
   44.8071  -17.4567  -12.3246 H   0  0  0  0  0  0  0  0  0  0  0  0
   43.4788  -17.3006  -11.1671 H   0  0  0  0  0  0  0  0  0  0  0  0
   46.2127  -19.1150   -9.2366 H   0  0  0  0  0  0  0  0  0  0  0  0
   45.5847  -17.9030   -8.1165 H   0  0  0  0  0  0  0  0  0  0  0  0
   45.2243  -19.7721  -11.6350 H   0  0  0  0  0  0  0  0  0  0  0  0
   43.6141  -19.5559  -12.2718 H   0  0  0  0  0  0  0  0  0  0  0  0
   44.0857  -19.7931   -8.1101 H   0  0  0  0  0  0  0  0  0  0  0  0
   43.2750  -18.3798   -8.7858 H   0  0  0  0  0  0  0  0  0  0  0  0
   44.2798  -14.6271  -11.1551 H   0  0  0  0  0  0  0  0  0  0  0  0
   45.8153  -15.4697   -7.7439 H   0  0  0  0  0  0  0  0  0  0  0  0
   41.7238  -19.2876  -10.3988 H   0  0  0  0  0  0  0  0  0  0  0  0
   41.9682  -20.6875   -9.3306 H   0  0  0  0  0  0  0  0  0  0  0  0
   42.0969  -20.8899  -11.0708 H   0  0  0  0  0  0  0  0  0  0  0  0
   50.6375  -16.0251   -8.7606 H   0  0  0  0  0  0  0  0  0  0  0  0
   48.2413  -14.5652  -14.1414 H   0  0  0  0  0  0  0  0  0  0  0  0
   47.5106  -15.0335   -5.9997 H   0  0  0  0  0  0  0  0  0  0  0  0
   44.2971  -13.1913  -13.1679 H   0  0  0  0  0  0  0  0  0  0  0  0
   49.9211  -15.3310   -6.5088 H   0  0  0  0  0  0  0  0  0  0  0  0
   46.2772  -13.1738  -14.6633 H   0  0  0  0  0  0  0  0  0  0  0  0
  2  1  1  0
  3  1  1  0
  4  1  2  3
  5  9  1  0
  6  8  1  0
  7 13  1  0
  8  3  2  0
  9  2  2  0
 10  4  1  0
 11  4  1  0
 12 10  1  0
 13 11  1  0
 14  2  1  0
 15  3  1  0
 16  7  1  0
 17  8  1  0
 18  9  1  0
 19 15  2  0
 20 14  2  0
 21 19  1  0
 22 20  1  0
  7 12  1  0
  6  5  2  0
 21 17  2  0
 22 18  2  0
  5 23  1  0
  6 24  1  0
 10 25  1  0
 10 26  1  0
 11 27  1  0
 11 28  1  0
 12 29  1  0
 12 30  1  0
 13 31  1  0
 13 32  1  0
 14 33  1  0
 15 34  1  0
 16 35  1  0
 16 36  1  0
 16 37  1  0
 17 38  1  0
 18 39  1  0
 19 40  1  0
 20 41  1  0
 21 42  1  0
 22 43  1  0
M  END
> <Uni-Dock RESULT> 
ENERGY=   -4.578  LOWER_BOUND=    4.343  UPPER_BOUND=    6.238
INTER + INTRA:          -4.578
INTER:                  -4.578
INTRA:                   0.000
UNBOUND:                 0.000

$$$$

     RDKit          3D

 43 46  0  0  0  0  0  0  0  0999 V2000
   45.0530  -14.1221  -12.4033 C   0  0  0  0  0  0  0  0  0  0  0  0
   45.3198  -15.3480  -11.6076 C   0  0  0  0  0  0  0  0  0  0  0  0
   43.7173  -13.4865  -12.2662 C   0  0  0  0  0  0  0  0  0  0  0  0
   45.9451  -13.6973  -13.3391 C   0  0  0  0  0  0  0  0  0  0  0  0
   43.4284  -16.5705  -12.7794 C   0  0  0  0  0  0  0  0  0  0  0  0
   42.5854  -15.5853  -13.1369 C   0  0  0  0  0  0  0  0  0  0  0  0
   47.8257  -12.8821  -15.5793 N   0  0  0  0  0  0  0  0  0  0  0  0
   42.5558  -14.2063  -12.6114 C   0  0  0  0  0  0  0  0  0  0  0  0
   44.5214  -16.4955  -11.7894 C   0  0  0  0  0  0  0  0  0  0  0  0
   47.2676  -14.4019  -13.6288 C   0  0  0  0  0  0  0  0  0  0  0  0
   45.7052  -12.5203  -14.2791 C   0  0  0  0  0  0  0  0  0  0  0  0
   47.6778  -14.2688  -15.1054 C   0  0  0  0  0  0  0  0  0  0  0  0
   47.0283  -11.9264  -14.7915 C   0  0  0  0  0  0  0  0  0  0  0  0
   46.3413  -15.3506  -10.6436 C   0  0  0  0  0  0  0  0  0  0  0  0
   43.6011  -12.1964  -11.7239 C   0  0  0  0  0  0  0  0  0  0  0  0
   49.2245  -12.4670  -15.6317 C   0  0  0  0  0  0  0  0  0  0  0  0
   41.3059  -13.5807  -12.4796 C   0  0  0  0  0  0  0  0  0  0  0  0
   44.8056  -17.6433  -11.0332 C   0  0  0  0  0  0  0  0  0  0  0  0
   42.3504  -11.5956  -11.5840 C   0  0  0  0  0  0  0  0  0  0  0  0
   46.5993  -16.4954   -9.8905 C   0  0  0  0  0  0  0  0  0  0  0  0
   41.2043  -12.2840  -11.9704 C   0  0  0  0  0  0  0  0  0  0  0  0
   45.8357  -17.6423  -10.0892 C   0  0  0  0  0  0  0  0  0  0  0  0
   43.2985  -17.5454  -13.2451 H   0  0  0  0  0  0  0  0  0  0  0  0
   41.8165  -15.8130  -13.8722 H   0  0  0  0  0  0  0  0  0  0  0  0
   47.2120  -15.4720  -13.4030 H   0  0  0  0  0  0  0  0  0  0  0  0
   48.0498  -13.9692  -12.9925 H   0  0  0  0  0  0  0  0  0  0  0  0
   45.1019  -12.8598  -15.1307 H   0  0  0  0  0  0  0  0  0  0  0  0
   45.1559  -11.7124  -13.7897 H   0  0  0  0  0  0  0  0  0  0  0  0
   46.9057  -14.7453  -15.7243 H   0  0  0  0  0  0  0  0  0  0  0  0
   48.5913  -14.8497  -15.2853 H   0  0  0  0  0  0  0  0  0  0  0  0
   46.8083  -11.0549  -15.4197 H   0  0  0  0  0  0  0  0  0  0  0  0
   47.5989  -11.5605  -13.9262 H   0  0  0  0  0  0  0  0  0  0  0  0
   46.9382  -14.4569  -10.4794 H   0  0  0  0  0  0  0  0  0  0  0  0
   44.4904  -11.6556  -11.4092 H   0  0  0  0  0  0  0  0  0  0  0  0
   49.7028  -12.5025  -14.6463 H   0  0  0  0  0  0  0  0  0  0  0  0
   49.3099  -11.4465  -16.0214 H   0  0  0  0  0  0  0  0  0  0  0  0
   49.7915  -13.1103  -16.3138 H   0  0  0  0  0  0  0  0  0  0  0  0
   40.3955  -14.1083  -12.7552 H   0  0  0  0  0  0  0  0  0  0  0  0
   44.2149  -18.5473  -11.1634 H   0  0  0  0  0  0  0  0  0  0  0  0
   42.2719  -10.5933  -11.1717 H   0  0  0  0  0  0  0  0  0  0  0  0
   47.3938  -16.4906   -9.1492 H   0  0  0  0  0  0  0  0  0  0  0  0
   40.2279  -11.8184  -11.8641 H   0  0  0  0  0  0  0  0  0  0  0  0
   46.0353  -18.5366   -9.5045 H   0  0  0  0  0  0  0  0  0  0  0  0
  2  1  1  0
  3  1  1  0
  4  1  2  3
  5  9  1  0
  6  8  1  0
  7 13  1  0
  8  3  2  0
  9  2  2  0
 10  4  1  0
 11  4  1  0
 12 10  1  0
 13 11  1  0
 14  2  1  0
 15  3  1  0
 16  7  1  0
 17  8  1  0
 18  9  1  0
 19 15  2  0
 20 14  2  0
 21 19  1  0
 22 20  1  0
  7 12  1  0
  6  5  2  0
 21 17  2  0
 22 18  2  0
  5 23  1  0
  6 24  1  0
 10 25  1  0
 10 26  1  0
 11 27  1  0
 11 28  1  0
 12 29  1  0
 12 30  1  0
 13 31  1  0
 13 32  1  0
 14 33  1  0
 15 34  1  0
 16 35  1  0
 16 36  1  0
 16 37  1  0
 17 38  1  0
 18 39  1  0
 19 40  1  0
 20 41  1  0
 21 42  1  0
 22 43  1  0
M  END
> <Uni-Dock RESULT> 
ENERGY=   -4.219  LOWER_BOUND=    6.601  UPPER_BOUND=    8.878
INTER + INTRA:          -4.219
INTER:                  -4.219
INTRA:                   0.000
UNBOUND:                 0.000

$$$$

     RDKit          3D

 43 46  0  0  0  0  0  0  0  0999 V2000
   49.7931  -18.1129   -7.3505 C   0  0  0  0  0  0  0  0  0  0  0  0
   49.9256  -17.6572   -8.7583 C   0  0  0  0  0  0  0  0  0  0  0  0
   48.4376  -18.4843   -6.8692 C   0  0  0  0  0  0  0  0  0  0  0  0
   50.8499  -18.0366   -6.4965 C   0  0  0  0  0  0  0  0  0  0  0  0
   48.3745  -15.6972   -8.3138 C   0  0  0  0  0  0  0  0  0  0  0  0
   47.5939  -16.1305   -7.3078 C   0  0  0  0  0  0  0  0  0  0  0  0
   53.1380  -17.6540   -4.5375 N   0  0  0  0  0  0  0  0  0  0  0  0
   47.4035  -17.5267   -6.8683 C   0  0  0  0  0  0  0  0  0  0  0  0
   49.2259  -16.5159   -9.1999 C   0  0  0  0  0  0  0  0  0  0  0  0
   52.2277  -17.5183   -6.8994 C   0  0  0  0  0  0  0  0  0  0  0  0
   50.7762  -18.3726   -5.0105 C   0  0  0  0  0  0  0  0  0  0  0  0
   52.9406  -16.8149   -5.7318 C   0  0  0  0  0  0  0  0  0  0  0  0
   52.1568  -18.7489   -4.4462 C   0  0  0  0  0  0  0  0  0  0  0  0
   50.7156  -18.3877   -9.6611 C   0  0  0  0  0  0  0  0  0  0  0  0
   48.1622  -19.8064   -6.4842 C   0  0  0  0  0  0  0  0  0  0  0  0
   54.4999  -18.1732   -4.4512 C   0  0  0  0  0  0  0  0  0  0  0  0
   46.1332  -17.9007   -6.4018 C   0  0  0  0  0  0  0  0  0  0  0  0
   49.3812  -16.1014  -10.5319 C   0  0  0  0  0  0  0  0  0  0  0  0
   46.8903  -20.1653   -6.0391 C   0  0  0  0  0  0  0  0  0  0  0  0
   50.8459  -17.9695  -10.9848 C   0  0  0  0  0  0  0  0  0  0  0  0
   45.8789  -19.2106   -5.9892 C   0  0  0  0  0  0  0  0  0  0  0  0
   50.1838  -16.8243  -11.4182 C   0  0  0  0  0  0  0  0  0  0  0  0
   48.3821  -14.6306   -8.5289 H   0  0  0  0  0  0  0  0  0  0  0  0
   47.0094  -15.3934   -6.7612 H   0  0  0  0  0  0  0  0  0  0  0  0
   52.1626  -16.7974   -7.7211 H   0  0  0  0  0  0  0  0  0  0  0  0
   52.8392  -18.3610   -7.2456 H   0  0  0  0  0  0  0  0  0  0  0  0
   50.3824  -17.5045   -4.4665 H   0  0  0  0  0  0  0  0  0  0  0  0
   50.1065  -19.2134   -4.8147 H   0  0  0  0  0  0  0  0  0  0  0  0
   52.3368  -15.9495   -5.4273 H   0  0  0  0  0  0  0  0  0  0  0  0
   53.8914  -16.3944   -6.0834 H   0  0  0  0  0  0  0  0  0  0  0  0
   52.0463  -19.0310   -3.3923 H   0  0  0  0  0  0  0  0  0  0  0  0
   52.5149  -19.6406   -4.9798 H   0  0  0  0  0  0  0  0  0  0  0  0
   51.2314  -19.2861   -9.3310 H   0  0  0  0  0  0  0  0  0  0  0  0
   48.9434  -20.5612   -6.5304 H   0  0  0  0  0  0  0  0  0  0  0  0
   54.7562  -18.8042   -5.3098 H   0  0  0  0  0  0  0  0  0  0  0  0
   54.6310  -18.7627   -3.5370 H   0  0  0  0  0  0  0  0  0  0  0  0
   55.2225  -17.3512   -4.3992 H   0  0  0  0  0  0  0  0  0  0  0  0
   45.3224  -17.1760   -6.3747 H   0  0  0  0  0  0  0  0  0  0  0  0
   48.8645  -15.2160  -10.8956 H   0  0  0  0  0  0  0  0  0  0  0  0
   46.6897  -21.1890   -5.7348 H   0  0  0  0  0  0  0  0  0  0  0  0
   51.4619  -18.5381  -11.6763 H   0  0  0  0  0  0  0  0  0  0  0  0
   44.8867  -19.4865   -5.6416 H   0  0  0  0  0  0  0  0  0  0  0  0
   50.2845  -16.4952  -12.4492 H   0  0  0  0  0  0  0  0  0  0  0  0
  2  1  1  0
  3  1  1  0
  4  1  2  3
  5  9  1  0
  6  8  1  0
  7 13  1  0
  8  3  2  0
  9  2  2  0
 10  4  1  0
 11  4  1  0
 12 10  1  0
 13 11  1  0
 14  2  1  0
 15  3  1  0
 16  7  1  0
 17  8  1  0
 18  9  1  0
 19 15  2  0
 20 14  2  0
 21 19  1  0
 22 20  1  0
  7 12  1  0
  6  5  2  0
 21 17  2  0
 22 18  2  0
  5 23  1  0
  6 24  1  0
 10 25  1  0
 10 26  1  0
 11 27  1  0
 11 28  1  0
 12 29  1  0
 12 30  1  0
 13 31  1  0
 13 32  1  0
 14 33  1  0
 15 34  1  0
 16 35  1  0
 16 36  1  0
 16 37  1  0
 17 38  1  0
 18 39  1  0
 19 40  1  0
 20 41  1  0
 21 42  1  0
 22 43  1  0
M  END
> <Uni-Dock RESULT> 
ENERGY=   -3.996  LOWER_BOUND=    2.106  UPPER_BOUND=    5.160
INTER + INTRA:          -3.996
INTER:                  -3.996
INTRA:                   0.000
UNBOUND:                 0.000

$$$$
