
     RDKit          3D

 43 46  0  0  0  0  0  0  0  0999 V2000
   50.2232  -17.3335   -7.4833 C   0  0  0  0  0  0  0  0  0  0  0  0
   48.7773  -17.2177   -7.1628 C   0  0  0  0  0  0  0  0  0  0  0  0
   51.1898  -16.6821   -6.5621 C   0  0  0  0  0  0  0  0  0  0  0  0
   50.6458  -17.8775   -8.6570 C   0  0  0  0  0  0  0  0  0  0  0  0
   48.8940  -14.6894   -7.3585 C   0  0  0  0  0  0  0  0  0  0  0  0
   50.1671  -14.4058   -7.0302 C   0  0  0  0  0  0  0  0  0  0  0  0
   51.6182  -18.9857  -11.3116 N   0  0  0  0  0  0  0  0  0  0  0  0
   51.1318  -15.2902   -6.3463 C   0  0  0  0  0  0  0  0  0  0  0  0
   48.1685  -15.9482   -7.0988 C   0  0  0  0  0  0  0  0  0  0  0  0
   52.1050  -17.8920   -9.1050 C   0  0  0  0  0  0  0  0  0  0  0  0
   49.7159  -18.4611   -9.7154 C   0  0  0  0  0  0  0  0  0  0  0  0
   52.2238  -17.8243  -10.6362 C   0  0  0  0  0  0  0  0  0  0  0  0
   50.4293  -19.4934  -10.6060 C   0  0  0  0  0  0  0  0  0  0  0  0
   48.0296  -18.3645   -6.8497 C   0  0  0  0  0  0  0  0  0  0  0  0
   52.1358  -17.4590   -5.8735 C   0  0  0  0  0  0  0  0  0  0  0  0
   51.3322  -18.6737  -12.7095 C   0  0  0  0  0  0  0  0  0  0  0  0
   52.0664  -14.7011   -5.4804 C   0  0  0  0  0  0  0  0  0  0  0  0
   46.7988  -15.8671   -6.8010 C   0  0  0  0  0  0  0  0  0  0  0  0
   53.0467  -16.8583   -5.0055 C   0  0  0  0  0  0  0  0  0  0  0  0
   46.6738  -18.2649   -6.5395 C   0  0  0  0  0  0  0  0  0  0  0  0
   53.0154  -15.4799   -4.8133 C   0  0  0  0  0  0  0  0  0  0  0  0
   46.0566  -17.0176   -6.5245 C   0  0  0  0  0  0  0  0  0  0  0  0
   48.3067  -13.9123   -7.8433 H   0  0  0  0  0  0  0  0  0  0  0  0
   50.5451  -13.4135   -7.2678 H   0  0  0  0  0  0  0  0  0  0  0  0
   52.6606  -17.0410   -8.6970 H   0  0  0  0  0  0  0  0  0  0  0  0
   52.5848  -18.8086   -8.7393 H   0  0  0  0  0  0  0  0  0  0  0  0
   49.3340  -17.6444  -10.3412 H   0  0  0  0  0  0  0  0  0  0  0  0
   48.8528  -18.9615   -9.2698 H   0  0  0  0  0  0  0  0  0  0  0  0
   51.7619  -16.8871  -10.9776 H   0  0  0  0  0  0  0  0  0  0  0  0
   53.2845  -17.7757  -10.9099 H   0  0  0  0  0  0  0  0  0  0  0  0
   50.7585  -20.3278   -9.9722 H   0  0  0  0  0  0  0  0  0  0  0  0
   49.7077  -19.9314  -11.3074 H   0  0  0  0  0  0  0  0  0  0  0  0
   48.5067  -19.3417   -6.8477 H   0  0  0  0  0  0  0  0  0  0  0  0
   52.1635  -18.5368   -6.0154 H   0  0  0  0  0  0  0  0  0  0  0  0
   50.5636  -17.8992  -12.8110 H   0  0  0  0  0  0  0  0  0  0  0  0
   50.9922  -19.5692  -13.2416 H   0  0  0  0  0  0  0  0  0  0  0  0
   52.2386  -18.3314  -13.2216 H   0  0  0  0  0  0  0  0  0  0  0  0
   52.0539  -13.6275   -5.3064 H   0  0  0  0  0  0  0  0  0  0  0  0
   46.3012  -14.9007   -6.7612 H   0  0  0  0  0  0  0  0  0  0  0  0
   53.7783  -17.4662   -4.4802 H   0  0  0  0  0  0  0  0  0  0  0  0
   46.1023  -19.1594   -6.3069 H   0  0  0  0  0  0  0  0  0  0  0  0
   53.7254  -15.0089   -4.1385 H   0  0  0  0  0  0  0  0  0  0  0  0
   44.9999  -16.9362   -6.2836 H   0  0  0  0  0  0  0  0  0  0  0  0
  2  1  1  0
  3  1  1  0
  4  1  2  3
  5  9  1  0
  6  8  1  0
  7 13  1  0
  8  3  2  0
  9  2  2  0
 10  4  1  0
 11  4  1  0
 12 10  1  0
 13 11  1  0
 14  2  1  0
 15  3  1  0
 16  7  1  0
 17  8  1  0
 18  9  1  0
 19 15  2  0
 20 14  2  0
 21 19  1  0
 22 20  1  0
  7 12  1  0
  6  5  2  0
 21 17  2  0
 22 18  2  0
  5 23  1  0
  6 24  1  0
 10 25  1  0
 10 26  1  0
 11 27  1  0
 11 28  1  0
 12 29  1  0
 12 30  1  0
 13 31  1  0
 13 32  1  0
 14 33  1  0
 15 34  1  0
 16 35  1  0
 16 36  1  0
 16 37  1  0
 17 38  1  0
 18 39  1  0
 19 40  1  0
 20 41  1  0
 21 42  1  0
 22 43  1  0
M  END
> <Uni-Dock RESULT> 
ENERGY=   -6.279  LOWER_BOUND=    0.000  UPPER_BOUND=    0.000
INTER + INTRA:          -6.279
INTER:                  -6.279
INTRA:                   0.000
UNBOUND:                 0.000

$$$$

     RDKit          3D

 43 46  0  0  0  0  0  0  0  0999 V2000
   48.0608  -17.1259   -7.9762 C   0  0  0  0  0  0  0  0  0  0  0  0
   49.0793  -16.1887   -7.4368 C   0  0  0  0  0  0  0  0  0  0  0  0
   47.4792  -18.1260   -7.0441 C   0  0  0  0  0  0  0  0  0  0  0  0
   47.7819  -17.1773   -9.3072 C   0  0  0  0  0  0  0  0  0  0  0  0
   50.6164  -18.1251   -6.8605 C   0  0  0  0  0  0  0  0  0  0  0  0
   49.7690  -19.1466   -6.6423 C   0  0  0  0  0  0  0  0  0  0  0  0
   47.2144  -17.3930  -12.2825 N   0  0  0  0  0  0  0  0  0  0  0  0
   48.3138  -19.0653   -6.4052 C   0  0  0  0  0  0  0  0  0  0  0  0
   50.2837  -16.6877   -6.9014 C   0  0  0  0  0  0  0  0  0  0  0  0
   46.8557  -18.2143   -9.9374 C   0  0  0  0  0  0  0  0  0  0  0  0
   48.4213  -16.2699  -10.3528 C   0  0  0  0  0  0  0  0  0  0  0  0
   47.2847  -18.5518  -11.3746 C   0  0  0  0  0  0  0  0  0  0  0  0
   47.5431  -16.1257  -11.6081 C   0  0  0  0  0  0  0  0  0  0  0  0
   48.8154  -14.8102   -7.3899 C   0  0  0  0  0  0  0  0  0  0  0  0
   46.1024  -18.1093   -6.7669 C   0  0  0  0  0  0  0  0  0  0  0  0
   48.0459  -17.6157  -13.4625 C   0  0  0  0  0  0  0  0  0  0  0  0
   47.7338  -20.0061   -5.5398 C   0  0  0  0  0  0  0  0  0  0  0  0
   51.2327  -15.7799   -6.4047 C   0  0  0  0  0  0  0  0  0  0  0  0
   45.5460  -19.0422   -5.8926 C   0  0  0  0  0  0  0  0  0  0  0  0
   49.7620  -13.9235   -6.8778 C   0  0  0  0  0  0  0  0  0  0  0  0
   46.3604  -19.9930   -5.2839 C   0  0  0  0  0  0  0  0  0  0  0  0
   50.9739  -14.4074   -6.3941 C   0  0  0  0  0  0  0  0  0  0  0  0
   51.6708  -18.3566   -6.9960 H   0  0  0  0  0  0  0  0  0  0  0  0
   50.1816  -20.1530   -6.6140 H   0  0  0  0  0  0  0  0  0  0  0  0
   46.8531  -19.1507   -9.3696 H   0  0  0  0  0  0  0  0  0  0  0  0
   45.8298  -17.8251   -9.9419 H   0  0  0  0  0  0  0  0  0  0  0  0
   49.3951  -16.6881  -10.6376 H   0  0  0  0  0  0  0  0  0  0  0  0
   48.5991  -15.2634   -9.9664 H   0  0  0  0  0  0  0  0  0  0  0  0
   48.3030  -18.9646  -11.3434 H   0  0  0  0  0  0  0  0  0  0  0  0
   46.6319  -19.3413  -11.7656 H   0  0  0  0  0  0  0  0  0  0  0  0
   46.5939  -15.6578  -11.3138 H   0  0  0  0  0  0  0  0  0  0  0  0
   48.0114  -15.4160  -12.3020 H   0  0  0  0  0  0  0  0  0  0  0  0
   47.8663  -14.4248   -7.7550 H   0  0  0  0  0  0  0  0  0  0  0  0
   45.4607  -17.3669   -7.2355 H   0  0  0  0  0  0  0  0  0  0  0  0
   49.1114  -17.6707  -13.2126 H   0  0  0  0  0  0  0  0  0  0  0  0
   47.9033  -16.8097  -14.1909 H   0  0  0  0  0  0  0  0  0  0  0  0
   47.7597  -18.5460  -13.9661 H   0  0  0  0  0  0  0  0  0  0  0  0
   48.3519  -20.7515   -5.0445 H   0  0  0  0  0  0  0  0  0  0  0  0
   52.1770  -16.1379   -6.0007 H   0  0  0  0  0  0  0  0  0  0  0  0
   44.4791  -19.0252   -5.6872 H   0  0  0  0  0  0  0  0  0  0  0  0
   49.5512  -12.8577   -6.8537 H   0  0  0  0  0  0  0  0  0  0  0  0
   45.9290  -20.7224   -4.6032 H   0  0  0  0  0  0  0  0  0  0  0  0
   51.7142  -13.7191   -5.9946 H   0  0  0  0  0  0  0  0  0  0  0  0
  2  1  1  0
  3  1  1  0
  4  1  2  3
  5  9  1  0
  6  8  1  0
  7 13  1  0
  8  3  2  0
  9  2  2  0
 10  4  1  0
 11  4  1  0
 12 10  1  0
 13 11  1  0
 14  2  1  0
 15  3  1  0
 16  7  1  0
 17  8  1  0
 18  9  1  0
 19 15  2  0
 20 14  2  0
 21 19  1  0
 22 20  1  0
  7 12  1  0
  6  5  2  0
 21 17  2  0
 22 18  2  0
  5 23  1  0
  6 24  1  0
 10 25  1  0
 10 26  1  0
 11 27  1  0
 11 28  1  0
 12 29  1  0
 12 30  1  0
 13 31  1  0
 13 32  1  0
 14 33  1  0
 15 34  1  0
 16 35  1  0
 16 36  1  0
 16 37  1  0
 17 38  1  0
 18 39  1  0
 19 40  1  0
 20 41  1  0
 21 42  1  0
 22 43  1  0
M  END
> <Uni-Dock RESULT> 
ENERGY=   -5.246  LOWER_BOUND=    2.225  UPPER_BOUND=    4.849
INTER + INTRA:          -5.246
INTER:                  -5.246
INTRA:                   0.000
UNBOUND:                 0.000

$$$$

     RDKit          3D

 43 46  0  0  0  0  0  0  0  0999 V2000
   50.4634  -17.4083   -7.5357 C   0  0  0  0  0  0  0  0  0  0  0  0
   51.2565  -17.7274   -6.3209 C   0  0  0  0  0  0  0  0  0  0  0  0
   49.0415  -17.0194   -7.3506 C   0  0  0  0  0  0  0  0  0  0  0  0
   50.9668  -17.6148   -8.7831 C   0  0  0  0  0  0  0  0  0  0  0  0
   49.6943  -19.6467   -5.7547 C   0  0  0  0  0  0  0  0  0  0  0  0
   48.5204  -19.2667   -6.2901 C   0  0  0  0  0  0  0  0  0  0  0  0
   52.0189  -18.1654  -11.5779 N   0  0  0  0  0  0  0  0  0  0  0  0
   48.1391  -17.9120   -6.7373 C   0  0  0  0  0  0  0  0  0  0  0  0
   50.8655  -18.7907   -5.4825 C   0  0  0  0  0  0  0  0  0  0  0  0
   50.1518  -17.4441  -10.0625 C   0  0  0  0  0  0  0  0  0  0  0  0
   52.3752  -18.1269   -9.0653 C   0  0  0  0  0  0  0  0  0  0  0  0
   50.6254  -18.4069  -11.1635 C   0  0  0  0  0  0  0  0  0  0  0  0
   52.8704  -17.7167  -10.4632 C   0  0  0  0  0  0  0  0  0  0  0  0
   52.3530  -16.9263   -5.9632 C   0  0  0  0  0  0  0  0  0  0  0  0
   48.6048  -15.7453   -7.7491 C   0  0  0  0  0  0  0  0  0  0  0  0
   52.5668  -19.3441  -12.2440 C   0  0  0  0  0  0  0  0  0  0  0  0
   46.7990  -17.5218   -6.5877 C   0  0  0  0  0  0  0  0  0  0  0  0
   51.6368  -19.0759   -4.3444 C   0  0  0  0  0  0  0  0  0  0  0  0
   47.2730  -15.3693   -7.5788 C   0  0  0  0  0  0  0  0  0  0  0  0
   53.0985  -17.2131   -4.8202 C   0  0  0  0  0  0  0  0  0  0  0  0
   46.3699  -16.2589   -7.0035 C   0  0  0  0  0  0  0  0  0  0  0  0
   52.7461  -18.2932   -4.0164 C   0  0  0  0  0  0  0  0  0  0  0  0
   49.8061  -20.6868   -5.4558 H   0  0  0  0  0  0  0  0  0  0  0  0
   47.7427  -20.0200   -6.3982 H   0  0  0  0  0  0  0  0  0  0  0  0
   49.0881  -17.6414   -9.8924 H   0  0  0  0  0  0  0  0  0  0  0  0
   50.2461  -16.4090  -10.4140 H   0  0  0  0  0  0  0  0  0  0  0  0
   52.3769  -19.2216   -8.9866 H   0  0  0  0  0  0  0  0  0  0  0  0
   53.1006  -17.7469   -8.3419 H   0  0  0  0  0  0  0  0  0  0  0  0
   50.4967  -19.4366  -10.8010 H   0  0  0  0  0  0  0  0  0  0  0  0
   49.9762  -18.2936  -12.0399 H   0  0  0  0  0  0  0  0  0  0  0  0
   52.9126  -16.6200  -10.5067 H   0  0  0  0  0  0  0  0  0  0  0  0
   53.9074  -18.0505  -10.5959 H   0  0  0  0  0  0  0  0  0  0  0  0
   52.6282  -16.0734   -6.5792 H   0  0  0  0  0  0  0  0  0  0  0  0
   49.3055  -15.0437   -8.1955 H   0  0  0  0  0  0  0  0  0  0  0  0
   52.6549  -20.1992  -11.5642 H   0  0  0  0  0  0  0  0  0  0  0  0
   53.5588  -19.1268  -12.6556 H   0  0  0  0  0  0  0  0  0  0  0  0
   51.9352  -19.6378  -13.0899 H   0  0  0  0  0  0  0  0  0  0  0  0
   46.0780  -18.1960   -6.1311 H   0  0  0  0  0  0  0  0  0  0  0  0
   51.3660  -19.9012   -3.6896 H   0  0  0  0  0  0  0  0  0  0  0  0
   46.9424  -14.3834   -7.8942 H   0  0  0  0  0  0  0  0  0  0  0  0
   53.9503  -16.5918   -4.5568 H   0  0  0  0  0  0  0  0  0  0  0  0
   45.3308  -15.9689   -6.8711 H   0  0  0  0  0  0  0  0  0  0  0  0
   53.3251  -18.5199   -3.1250 H   0  0  0  0  0  0  0  0  0  0  0  0
  2  1  1  0
  3  1  1  0
  4  1  2  3
  5  9  1  0
  6  8  1  0
  7 13  1  0
  8  3  2  0
  9  2  2  0
 10  4  1  0
 11  4  1  0
 12 10  1  0
 13 11  1  0
 14  2  1  0
 15  3  1  0
 16  7  1  0
 17  8  1  0
 18  9  1  0
 19 15  2  0
 20 14  2  0
 21 19  1  0
 22 20  1  0
  7 12  1  0
  6  5  2  0
 21 17  2  0
 22 18  2  0
  5 23  1  0
  6 24  1  0
 10 25  1  0
 10 26  1  0
 11 27  1  0
 11 28  1  0
 12 29  1  0
 12 30  1  0
 13 31  1  0
 13 32  1  0
 14 33  1  0
 15 34  1  0
 16 35  1  0
 16 36  1  0
 16 37  1  0
 17 38  1  0
 18 39  1  0
 19 40  1  0
 20 41  1  0
 21 42  1  0
 22 43  1  0
M  END
> <Uni-Dock RESULT> 
ENERGY=   -5.081  LOWER_BOUND=    1.173  UPPER_BOUND=    4.453
INTER + INTRA:          -5.081
INTER:                  -5.081
INTRA:                   0.000
UNBOUND:                 0.000

$$$$

     RDKit          3D

 43 46  0  0  0  0  0  0  0  0999 V2000
   47.0789  -15.9636  -10.7117 C   0  0  0  0  0  0  0  0  0  0  0  0
   46.8648  -16.2666   -9.2732 C   0  0  0  0  0  0  0  0  0  0  0  0
   45.9126  -15.4862  -11.4986 C   0  0  0  0  0  0  0  0  0  0  0  0
   48.2549  -16.2596  -11.3291 C   0  0  0  0  0  0  0  0  0  0  0  0
   45.1713  -18.0641   -9.8613 C   0  0  0  0  0  0  0  0  0  0  0  0
   44.6603  -17.6452  -11.0329 C   0  0  0  0  0  0  0  0  0  0  0  0
   50.8259  -17.0064  -12.7620 N   0  0  0  0  0  0  0  0  0  0  0  0
   44.7645  -16.2949  -11.6214 C   0  0  0  0  0  0  0  0  0  0  0  0
   45.9443  -17.2634   -8.8919 C   0  0  0  0  0  0  0  0  0  0  0  0
   48.4832  -16.1066  -12.8308 C   0  0  0  0  0  0  0  0  0  0  0  0
   49.4648  -16.8640  -10.6245 C   0  0  0  0  0  0  0  0  0  0  0  0
   49.4847  -17.1479  -13.3562 C   0  0  0  0  0  0  0  0  0  0  0  0
   50.7789  -16.5520  -11.3619 C   0  0  0  0  0  0  0  0  0  0  0  0
   47.5215  -15.5121   -8.2876 C   0  0  0  0  0  0  0  0  0  0  0  0
   45.9372  -14.2108  -12.0863 C   0  0  0  0  0  0  0  0  0  0  0  0
   51.5847  -18.2457  -12.9091 C   0  0  0  0  0  0  0  0  0  0  0  0
   43.6833  -15.8226  -12.3819 C   0  0  0  0  0  0  0  0  0  0  0  0
   45.7661  -17.5352   -7.5259 C   0  0  0  0  0  0  0  0  0  0  0  0
   44.8478  -13.7520  -12.8256 C   0  0  0  0  0  0  0  0  0  0  0  0
   47.3206  -15.7838   -6.9347 C   0  0  0  0  0  0  0  0  0  0  0  0
   43.7241  -14.5595  -12.9777 C   0  0  0  0  0  0  0  0  0  0  0  0
   46.4504  -16.8011   -6.5544 C   0  0  0  0  0  0  0  0  0  0  0  0
   44.9834  -19.0928   -9.5611 H   0  0  0  0  0  0  0  0  0  0  0  0
   44.0859  -18.3577  -11.6214 H   0  0  0  0  0  0  0  0  0  0  0  0
   47.5535  -16.2348  -13.3951 H   0  0  0  0  0  0  0  0  0  0  0  0
   48.8608  -15.0971  -13.0364 H   0  0  0  0  0  0  0  0  0  0  0  0
   49.3327  -17.9517  -10.5631 H   0  0  0  0  0  0  0  0  0  0  0  0
   49.5715  -16.4903   -9.6034 H   0  0  0  0  0  0  0  0  0  0  0  0
   49.0744  -18.1495  -13.1646 H   0  0  0  0  0  0  0  0  0  0  0  0
   49.5722  -17.0415  -14.4440 H   0  0  0  0  0  0  0  0  0  0  0  0
   50.9214  -15.4630  -11.3680 H   0  0  0  0  0  0  0  0  0  0  0  0
   51.6241  -16.9501  -10.7861 H   0  0  0  0  0  0  0  0  0  0  0  0
   48.1942  -14.7077   -8.5759 H   0  0  0  0  0  0  0  0  0  0  0  0
   46.8099  -13.5728  -11.9683 H   0  0  0  0  0  0  0  0  0  0  0  0
   51.1451  -19.0697  -12.3357 H   0  0  0  0  0  0  0  0  0  0  0  0
   52.6187  -18.1054  -12.5745 H   0  0  0  0  0  0  0  0  0  0  0  0
   51.6350  -18.5446  -13.9621 H   0  0  0  0  0  0  0  0  0  0  0  0
   42.7906  -16.4316  -12.5053 H   0  0  0  0  0  0  0  0  0  0  0  0
   45.0737  -18.3104   -7.2055 H   0  0  0  0  0  0  0  0  0  0  0  0
   44.8769  -12.7658  -13.2809 H   0  0  0  0  0  0  0  0  0  0  0  0
   47.8401  -15.1994   -6.1801 H   0  0  0  0  0  0  0  0  0  0  0  0
   42.8740  -14.2050  -13.5549 H   0  0  0  0  0  0  0  0  0  0  0  0
   46.2917  -17.0159   -5.5008 H   0  0  0  0  0  0  0  0  0  0  0  0
  2  1  1  0
  3  1  1  0
  4  1  2  3
  5  9  1  0
  6  8  1  0
  7 13  1  0
  8  3  2  0
  9  2  2  0
 10  4  1  0
 11  4  1  0
 12 10  1  0
 13 11  1  0
 14  2  1  0
 15  3  1  0
 16  7  1  0
 17  8  1  0
 18  9  1  0
 19 15  2  0
 20 14  2  0
 21 19  1  0
 22 20  1  0
  7 12  1  0
  6  5  2  0
 21 17  2  0
 22 18  2  0
  5 23  1  0
  6 24  1  0
 10 25  1  0
 10 26  1  0
 11 27  1  0
 11 28  1  0
 12 29  1  0
 12 30  1  0
 13 31  1  0
 13 32  1  0
 14 33  1  0
 15 34  1  0
 16 35  1  0
 16 36  1  0
 16 37  1  0
 17 38  1  0
 18 39  1  0
 19 40  1  0
 20 41  1  0
 21 42  1  0
 22 43  1  0
M  END
> <Uni-Dock RESULT> 
ENERGY=   -4.905  LOWER_BOUND=    3.858  UPPER_BOUND=    6.229
INTER + INTRA:          -4.905
INTER:                  -4.905
INTRA:                   0.000
UNBOUND:                 0.000

$$$$

     RDKit          3D

 43 46  0  0  0  0  0  0  0  0999 V2000
   50.6195  -17.3109   -7.7636 C   0  0  0  0  0  0  0  0  0  0  0  0
   49.2506  -16.8873   -7.3719 C   0  0  0  0  0  0  0  0  0  0  0  0
   50.7606  -18.1587   -8.9754 C   0  0  0  0  0  0  0  0  0  0  0  0
   51.6914  -17.0685   -6.9609 C   0  0  0  0  0  0  0  0  0  0  0  0
   48.5451  -19.3065   -7.0650 C   0  0  0  0  0  0  0  0  0  0  0  0
   49.3364  -19.9771   -7.9212 C   0  0  0  0  0  0  0  0  0  0  0  0
   54.0863  -16.6399   -5.1439 N   0  0  0  0  0  0  0  0  0  0  0  0
   50.1248  -19.4154   -9.0362 C   0  0  0  0  0  0  0  0  0  0  0  0
   48.2768  -17.8552   -7.0537 C   0  0  0  0  0  0  0  0  0  0  0  0
   53.0937  -17.6042   -7.2385 C   0  0  0  0  0  0  0  0  0  0  0  0
   51.6190  -16.3106   -5.6396 C   0  0  0  0  0  0  0  0  0  0  0  0
   53.8647  -17.8640   -5.9341 C   0  0  0  0  0  0  0  0  0  0  0  0
   52.9716  -15.6841   -5.2575 C   0  0  0  0  0  0  0  0  0  0  0  0
   48.9005  -15.5275   -7.3892 C   0  0  0  0  0  0  0  0  0  0  0  0
   51.4937  -17.6904  -10.0781 C   0  0  0  0  0  0  0  0  0  0  0  0
   54.3797  -16.9744   -3.7527 C   0  0  0  0  0  0  0  0  0  0  0  0
   50.2868  -20.1997  -10.1891 C   0  0  0  0  0  0  0  0  0  0  0  0
   46.9927  -17.4278   -6.6795 C   0  0  0  0  0  0  0  0  0  0  0  0
   51.6314  -18.4770  -11.2210 C   0  0  0  0  0  0  0  0  0  0  0  0
   47.6156  -15.1209   -7.0311 C   0  0  0  0  0  0  0  0  0  0  0  0
   51.0329  -19.7327  -11.2742 C   0  0  0  0  0  0  0  0  0  0  0  0
   46.6650  -16.0701   -6.6673 C   0  0  0  0  0  0  0  0  0  0  0  0
   48.0123  -19.8780   -6.3079 H   0  0  0  0  0  0  0  0  0  0  0  0
   49.4043  -21.0576   -7.8116 H   0  0  0  0  0  0  0  0  0  0  0  0
   53.0623  -18.5484   -7.7922 H   0  0  0  0  0  0  0  0  0  0  0  0
   53.6419  -16.8774   -7.8510 H   0  0  0  0  0  0  0  0  0  0  0  0
   51.3045  -17.0043   -4.8496 H   0  0  0  0  0  0  0  0  0  0  0  0
   50.8865  -15.5005   -5.6729 H   0  0  0  0  0  0  0  0  0  0  0  0
   53.3127  -18.6137   -5.3498 H   0  0  0  0  0  0  0  0  0  0  0  0
   54.8395  -18.3032   -6.1774 H   0  0  0  0  0  0  0  0  0  0  0  0
   53.2456  -14.9548   -6.0317 H   0  0  0  0  0  0  0  0  0  0  0  0
   52.8555  -15.0977   -4.3371 H   0  0  0  0  0  0  0  0  0  0  0  0
   49.6337  -14.7801   -7.6834 H   0  0  0  0  0  0  0  0  0  0  0  0
   51.9605  -16.7088  -10.0454 H   0  0  0  0  0  0  0  0  0  0  0  0
   53.5249  -17.4420   -3.2512 H   0  0  0  0  0  0  0  0  0  0  0  0
   54.6596  -16.0756   -3.1920 H   0  0  0  0  0  0  0  0  0  0  0  0
   55.2336  -17.6586   -3.6923 H   0  0  0  0  0  0  0  0  0  0  0  0
   49.8194  -21.1794  -10.2575 H   0  0  0  0  0  0  0  0  0  0  0  0
   46.2276  -18.1537   -6.4136 H   0  0  0  0  0  0  0  0  0  0  0  0
   52.2042  -18.1090  -12.0679 H   0  0  0  0  0  0  0  0  0  0  0  0
   47.3573  -14.0654   -7.0397 H   0  0  0  0  0  0  0  0  0  0  0  0
   51.1400  -20.3487  -12.1634 H   0  0  0  0  0  0  0  0  0  0  0  0
   45.6627  -15.7568   -6.3872 H   0  0  0  0  0  0  0  0  0  0  0  0
  2  1  1  0
  3  1  1  0
  4  1  2  3
  5  9  1  0
  6  8  1  0
  7 13  1  0
  8  3  2  0
  9  2  2  0
 10  4  1  0
 11  4  1  0
 12 10  1  0
 13 11  1  0
 14  2  1  0
 15  3  1  0
 16  7  1  0
 17  8  1  0
 18  9  1  0
 19 15  2  0
 20 14  2  0
 21 19  1  0
 22 20  1  0
  7 12  1  0
  6  5  2  0
 21 17  2  0
 22 18  2  0
  5 23  1  0
  6 24  1  0
 10 25  1  0
 10 26  1  0
 11 27  1  0
 11 28  1  0
 12 29  1  0
 12 30  1  0
 13 31  1  0
 13 32  1  0
 14 33  1  0
 15 34  1  0
 16 35  1  0
 16 36  1  0
 16 37  1  0
 17 38  1  0
 18 39  1  0
 19 40  1  0
 20 41  1  0
 21 42  1  0
 22 43  1  0
M  END
> <Uni-Dock RESULT> 
ENERGY=   -4.599  LOWER_BOUND=    1.856  UPPER_BOUND=    4.986
INTER + INTRA:          -4.599
INTER:                  -4.599
INTRA:                   0.000
UNBOUND:                 0.000

$$$$

     RDKit          3D

 43 46  0  0  0  0  0  0  0  0999 V2000
   49.6130  -16.8045   -8.4441 C   0  0  0  0  0  0  0  0  0  0  0  0
   50.2729  -17.2724   -9.6900 C   0  0  0  0  0  0  0  0  0  0  0  0
   50.4766  -16.2446   -7.3727 C   0  0  0  0  0  0  0  0  0  0  0  0
   48.2883  -17.0221   -8.2211 C   0  0  0  0  0  0  0  0  0  0  0  0
   51.6033  -18.9975   -8.3867 C   0  0  0  0  0  0  0  0  0  0  0  0
   51.7201  -18.4485   -7.1644 C   0  0  0  0  0  0  0  0  0  0  0  0
   45.3608  -17.5872   -7.6450 N   0  0  0  0  0  0  0  0  0  0  0  0
   51.4862  -17.0388   -6.7919 C   0  0  0  0  0  0  0  0  0  0  0  0
   51.2246  -18.3106   -9.6369 C   0  0  0  0  0  0  0  0  0  0  0  0
   47.5879  -16.6958   -6.9044 C   0  0  0  0  0  0  0  0  0  0  0  0
   47.3511  -17.6983   -9.2160 C   0  0  0  0  0  0  0  0  0  0  0  0
   46.4266  -17.6651   -6.6301 C   0  0  0  0  0  0  0  0  0  0  0  0
   45.8825  -17.2976   -8.9914 C   0  0  0  0  0  0  0  0  0  0  0  0
   50.0072  -16.6338  -10.9121 C   0  0  0  0  0  0  0  0  0  0  0  0
   50.3150  -14.9098   -6.9667 C   0  0  0  0  0  0  0  0  0  0  0  0
   44.5441  -18.7979   -7.6241 C   0  0  0  0  0  0  0  0  0  0  0  0
   52.2780  -16.4867   -5.7728 C   0  0  0  0  0  0  0  0  0  0  0  0
   51.8282  -18.7389  -10.8301 C   0  0  0  0  0  0  0  0  0  0  0  0
   51.1209  -14.3736   -5.9632 C   0  0  0  0  0  0  0  0  0  0  0  0
   50.6280  -17.0606  -12.0855 C   0  0  0  0  0  0  0  0  0  0  0  0
   52.0979  -15.1631   -5.3632 C   0  0  0  0  0  0  0  0  0  0  0  0
   51.5310  -18.1189  -12.0459 C   0  0  0  0  0  0  0  0  0  0  0  0
   51.8355  -20.0548   -8.4956 H   0  0  0  0  0  0  0  0  0  0  0  0
   52.0397  -19.0908   -6.3463 H   0  0  0  0  0  0  0  0  0  0  0  0
   48.2755  -16.7621   -6.0547 H   0  0  0  0  0  0  0  0  0  0  0  0
   47.2068  -15.6677   -6.9446 H   0  0  0  0  0  0  0  0  0  0  0  0
   47.4500  -18.7865   -9.1131 H   0  0  0  0  0  0  0  0  0  0  0  0
   47.6002  -17.4445  -10.2491 H   0  0  0  0  0  0  0  0  0  0  0  0
   46.8344  -18.6839   -6.5668 H   0  0  0  0  0  0  0  0  0  0  0  0
   45.9926  -17.4335   -5.6501 H   0  0  0  0  0  0  0  0  0  0  0  0
   45.7919  -16.2145   -9.1497 H   0  0  0  0  0  0  0  0  0  0  0  0
   45.2561  -17.7558   -9.7674 H   0  0  0  0  0  0  0  0  0  0  0  0
   49.3118  -15.7985  -10.9501 H   0  0  0  0  0  0  0  0  0  0  0  0
   49.5567  -14.2858   -7.4338 H   0  0  0  0  0  0  0  0  0  0  0  0
   45.1119  -19.6845   -7.9282 H   0  0  0  0  0  0  0  0  0  0  0  0
   43.6834  -18.6926   -8.2939 H   0  0  0  0  0  0  0  0  0  0  0  0
   44.1395  -18.9730   -6.6208 H   0  0  0  0  0  0  0  0  0  0  0  0
   53.0546  -17.0812   -5.2971 H   0  0  0  0  0  0  0  0  0  0  0  0
   52.5540  -19.5490  -10.8189 H   0  0  0  0  0  0  0  0  0  0  0  0
   50.9861  -13.3413   -5.6519 H   0  0  0  0  0  0  0  0  0  0  0  0
   50.4091  -16.5650  -13.0275 H   0  0  0  0  0  0  0  0  0  0  0  0
   52.7264  -14.7481   -4.5795 H   0  0  0  0  0  0  0  0  0  0  0  0
   52.0164  -18.4545  -12.9586 H   0  0  0  0  0  0  0  0  0  0  0  0
  2  1  1  0
  3  1  1  0
  4  1  2  3
  5  9  1  0
  6  8  1  0
  7 13  1  0
  8  3  2  0
  9  2  2  0
 10  4  1  0
 11  4  1  0
 12 10  1  0
 13 11  1  0
 14  2  1  0
 15  3  1  0
 16  7  1  0
 17  8  1  0
 18  9  1  0
 19 15  2  0
 20 14  2  0
 21 19  1  0
 22 20  1  0
  7 12  1  0
  6  5  2  0
 21 17  2  0
 22 18  2  0
  5 23  1  0
  6 24  1  0
 10 25  1  0
 10 26  1  0
 11 27  1  0
 11 28  1  0
 12 29  1  0
 12 30  1  0
 13 31  1  0
 13 32  1  0
 14 33  1  0
 15 34  1  0
 16 35  1  0
 16 36  1  0
 16 37  1  0
 17 38  1  0
 18 39  1  0
 19 40  1  0
 20 41  1  0
 21 42  1  0
 22 43  1  0
M  END
> <Uni-Dock RESULT> 
ENERGY=   -4.250  LOWER_BOUND=    2.124  UPPER_BOUND=    4.931
INTER + INTRA:          -4.250
INTER:                  -4.250
INTRA:                   0.000
UNBOUND:                 0.000

$$$$

     RDKit          3D

 43 46  0  0  0  0  0  0  0  0999 V2000
   46.3482  -16.0207  -11.0023 C   0  0  0  0  0  0  0  0  0  0  0  0
   46.6487  -15.1388  -12.1594 C   0  0  0  0  0  0  0  0  0  0  0  0
   47.2776  -15.9819   -9.8439 C   0  0  0  0  0  0  0  0  0  0  0  0
   45.3522  -16.9463  -11.0588 C   0  0  0  0  0  0  0  0  0  0  0  0
   48.8657  -16.3171  -12.5348 C   0  0  0  0  0  0  0  0  0  0  0  0
   49.2031  -16.7533  -11.3081 C   0  0  0  0  0  0  0  0  0  0  0  0
   43.2099  -19.0943  -11.1908 N   0  0  0  0  0  0  0  0  0  0  0  0
   48.6363  -16.3153  -10.0168 C   0  0  0  0  0  0  0  0  0  0  0  0
   47.8577  -15.2915  -12.8673 C   0  0  0  0  0  0  0  0  0  0  0  0
   45.0911  -17.9751   -9.9616 C   0  0  0  0  0  0  0  0  0  0  0  0
   44.4266  -17.1379  -12.2555 C   0  0  0  0  0  0  0  0  0  0  0  0
   44.5186  -19.2798  -10.5389 C   0  0  0  0  0  0  0  0  0  0  0  0
   43.0895  -17.7851  -11.8545 C   0  0  0  0  0  0  0  0  0  0  0  0
   45.7657  -14.1031  -12.5055 C   0  0  0  0  0  0  0  0  0  0  0  0
   46.8116  -15.5726   -8.5837 C   0  0  0  0  0  0  0  0  0  0  0  0
   42.9323  -20.1984  -12.1058 C   0  0  0  0  0  0  0  0  0  0  0  0
   49.4876  -16.2819   -8.9012 C   0  0  0  0  0  0  0  0  0  0  0  0
   48.1138  -14.4497  -13.9615 C   0  0  0  0  0  0  0  0  0  0  0  0
   47.6753  -15.5310   -7.4900 C   0  0  0  0  0  0  0  0  0  0  0  0
   46.0432  -13.2650  -13.5848 C   0  0  0  0  0  0  0  0  0  0  0  0
   49.0109  -15.8905   -7.6476 C   0  0  0  0  0  0  0  0  0  0  0  0
   47.2122  -13.4444  -14.3183 C   0  0  0  0  0  0  0  0  0  0  0  0
   49.3998  -16.7298  -13.3881 H   0  0  0  0  0  0  0  0  0  0  0  0
   49.9926  -17.4982  -11.2320 H   0  0  0  0  0  0  0  0  0  0  0  0
   46.0094  -18.2322   -9.4231 H   0  0  0  0  0  0  0  0  0  0  0  0
   44.3856  -17.5543   -9.2341 H   0  0  0  0  0  0  0  0  0  0  0  0
   44.9300  -17.7736  -12.9950 H   0  0  0  0  0  0  0  0  0  0  0  0
   44.1918  -16.1902  -12.7461 H   0  0  0  0  0  0  0  0  0  0  0  0
   45.2520  -19.6973  -11.2432 H   0  0  0  0  0  0  0  0  0  0  0  0
   44.4039  -20.0087   -9.7278 H   0  0  0  0  0  0  0  0  0  0  0  0
   42.5756  -17.1117  -11.1554 H   0  0  0  0  0  0  0  0  0  0  0  0
   42.4341  -17.8436  -12.7329 H   0  0  0  0  0  0  0  0  0  0  0  0
   44.8556  -13.9486  -11.9305 H   0  0  0  0  0  0  0  0  0  0  0  0
   45.7705  -15.2863   -8.4540 H   0  0  0  0  0  0  0  0  0  0  0  0
   43.6296  -20.2198  -12.9509 H   0  0  0  0  0  0  0  0  0  0  0  0
   41.9131  -20.1233  -12.5010 H   0  0  0  0  0  0  0  0  0  0  0  0
   42.9940  -21.1587  -11.5815 H   0  0  0  0  0  0  0  0  0  0  0  0
   50.5373  -16.5481   -9.0027 H   0  0  0  0  0  0  0  0  0  0  0  0
   49.0321  -14.5573  -14.5346 H   0  0  0  0  0  0  0  0  0  0  0  0
   47.3054  -15.2175   -6.5174 H   0  0  0  0  0  0  0  0  0  0  0  0
   45.3491  -12.4719  -13.8495 H   0  0  0  0  0  0  0  0  0  0  0  0
   49.6859  -15.8605   -6.7962 H   0  0  0  0  0  0  0  0  0  0  0  0
   47.4315  -12.7933  -15.1605 H   0  0  0  0  0  0  0  0  0  0  0  0
  2  1  1  0
  3  1  1  0
  4  1  2  3
  5  9  1  0
  6  8  1  0
  7 13  1  0
  8  3  2  0
  9  2  2  0
 10  4  1  0
 11  4  1  0
 12 10  1  0
 13 11  1  0
 14  2  1  0
 15  3  1  0
 16  7  1  0
 17  8  1  0
 18  9  1  0
 19 15  2  0
 20 14  2  0
 21 19  1  0
 22 20  1  0
  7 12  1  0
  6  5  2  0
 21 17  2  0
 22 18  2  0
  5 23  1  0
  6 24  1  0
 10 25  1  0
 10 26  1  0
 11 27  1  0
 11 28  1  0
 12 29  1  0
 12 30  1  0
 13 31  1  0
 13 32  1  0
 14 33  1  0
 15 34  1  0
 16 35  1  0
 16 36  1  0
 16 37  1  0
 17 38  1  0
 18 39  1  0
 19 40  1  0
 20 41  1  0
 21 42  1  0
 22 43  1  0
M  END
> <Uni-Dock RESULT> 
ENERGY=   -4.143  LOWER_BOUND=    4.858  UPPER_BOUND=    6.620
INTER + INTRA:          -4.143
INTER:                  -4.143
INTRA:                   0.000
UNBOUND:                 0.000

$$$$

     RDKit          3D

 43 46  0  0  0  0  0  0  0  0999 V2000
   50.0390  -18.1280   -7.4939 C   0  0  0  0  0  0  0  0  0  0  0  0
   50.0415  -17.6599   -8.9037 C   0  0  0  0  0  0  0  0  0  0  0  0
   48.7344  -18.5115   -6.8952 C   0  0  0  0  0  0  0  0  0  0  0  0
   51.1595  -18.0609   -6.7247 C   0  0  0  0  0  0  0  0  0  0  0  0
   48.5333  -15.7086   -8.3020 C   0  0  0  0  0  0  0  0  0  0  0  0
   47.8345  -16.1635   -7.2466 C   0  0  0  0  0  0  0  0  0  0  0  0
   53.6120  -17.8242   -4.9497 N   0  0  0  0  0  0  0  0  0  0  0  0
   47.6929  -17.5657   -6.8060 C   0  0  0  0  0  0  0  0  0  0  0  0
   49.3093  -16.5117   -9.2670 C   0  0  0  0  0  0  0  0  0  0  0  0
   51.1825  -18.3894   -5.2340 C   0  0  0  0  0  0  0  0  0  0  0  0
   52.5133  -17.5665   -7.2231 C   0  0  0  0  0  0  0  0  0  0  0  0
   52.2378  -17.5546   -4.4905 C   0  0  0  0  0  0  0  0  0  0  0  0
   53.6774  -18.1295   -6.3890 C   0  0  0  0  0  0  0  0  0  0  0  0
   50.7111  -18.3996   -9.8919 C   0  0  0  0  0  0  0  0  0  0  0  0
   48.5242  -19.8288   -6.4556 C   0  0  0  0  0  0  0  0  0  0  0  0
   54.4996  -16.7235   -4.5836 C   0  0  0  0  0  0  0  0  0  0  0  0
   46.4759  -17.9535   -6.2237 C   0  0  0  0  0  0  0  0  0  0  0  0
   49.3344  -16.0865  -10.6049 C   0  0  0  0  0  0  0  0  0  0  0  0
   47.3034  -20.2000   -5.8935 C   0  0  0  0  0  0  0  0  0  0  0  0
   50.7122  -17.9726  -11.2194 C   0  0  0  0  0  0  0  0  0  0  0  0
   46.2821  -19.2617   -5.7729 C   0  0  0  0  0  0  0  0  0  0  0  0
   50.0320  -16.8113  -11.5738 C   0  0  0  0  0  0  0  0  0  0  0  0
   48.5163  -14.6394   -8.5029 H   0  0  0  0  0  0  0  0  0  0  0  0
   47.2889  -15.4381   -6.6466 H   0  0  0  0  0  0  0  0  0  0  0  0
   50.2153  -18.1877   -4.7617 H   0  0  0  0  0  0  0  0  0  0  0  0
   51.4001  -19.4570   -5.1040 H   0  0  0  0  0  0  0  0  0  0  0  0
   52.5299  -16.4702   -7.1755 H   0  0  0  0  0  0  0  0  0  0  0  0
   52.6945  -17.8506   -8.2624 H   0  0  0  0  0  0  0  0  0  0  0  0
   51.9853  -16.4916   -4.6110 H   0  0  0  0  0  0  0  0  0  0  0  0
   52.1783  -17.7773   -3.4185 H   0  0  0  0  0  0  0  0  0  0  0  0
   53.6776  -19.2232   -6.4901 H   0  0  0  0  0  0  0  0  0  0  0  0
   54.6302  -17.7997   -6.8223 H   0  0  0  0  0  0  0  0  0  0  0  0
   51.2353  -19.3145   -9.6256 H   0  0  0  0  0  0  0  0  0  0  0  0
   49.3158  -20.5682   -6.5504 H   0  0  0  0  0  0  0  0  0  0  0  0
   54.2419  -15.7944   -5.1044 H   0  0  0  0  0  0  0  0  0  0  0  0
   55.5400  -16.9741   -4.8191 H   0  0  0  0  0  0  0  0  0  0  0  0
   54.4595  -16.5382   -3.5043 H   0  0  0  0  0  0  0  0  0  0  0  0
   45.6602  -17.2405   -6.1289 H   0  0  0  0  0  0  0  0  0  0  0  0
   48.7909  -15.1945  -10.9084 H   0  0  0  0  0  0  0  0  0  0  0  0
   47.1506  -21.2201   -5.5517 H   0  0  0  0  0  0  0  0  0  0  0  0
   51.2405  -18.5479  -11.9749 H   0  0  0  0  0  0  0  0  0  0  0  0
   45.3300  -19.5480   -5.3336 H   0  0  0  0  0  0  0  0  0  0  0  0
   50.0311  -16.4752  -12.6074 H   0  0  0  0  0  0  0  0  0  0  0  0
  2  1  1  0
  3  1  1  0
  4  1  2  3
  5  9  1  0
  6  8  1  0
  7 13  1  0
  8  3  2  0
  9  2  2  0
 10  4  1  0
 11  4  1  0
 12 10  1  0
 13 11  1  0
 14  2  1  0
 15  3  1  0
 16  7  1  0
 17  8  1  0
 18  9  1  0
 19 15  2  0
 20 14  2  0
 21 19  1  0
 22 20  1  0
  7 12  1  0
  6  5  2  0
 21 17  2  0
 22 18  2  0
  5 23  1  0
  6 24  1  0
 10 25  1  0
 10 26  1  0
 11 27  1  0
 11 28  1  0
 12 29  1  0
 12 30  1  0
 13 31  1  0
 13 32  1  0
 14 33  1  0
 15 34  1  0
 16 35  1  0
 16 36  1  0
 16 37  1  0
 17 38  1  0
 18 39  1  0
 19 40  1  0
 20 41  1  0
 21 42  1  0
 22 43  1  0
M  END
> <Uni-Dock RESULT> 
ENERGY=   -4.142  LOWER_BOUND=    2.103  UPPER_BOUND=    5.053
INTER + INTRA:          -4.142
INTER:                  -4.142
INTRA:                   0.000
UNBOUND:                 0.000

$$$$

     RDKit          3D

 43 46  0  0  0  0  0  0  0  0999 V2000
   45.9319  -15.1469  -12.0051 C   0  0  0  0  0  0  0  0  0  0  0  0
   46.3069  -13.9895  -12.8574 C   0  0  0  0  0  0  0  0  0  0  0  0
   46.9370  -15.6409  -11.0289 C   0  0  0  0  0  0  0  0  0  0  0  0
   44.7753  -15.8331  -12.2136 C   0  0  0  0  0  0  0  0  0  0  0  0
   48.2212  -15.3082  -13.8777 C   0  0  0  0  0  0  0  0  0  0  0  0
   48.5612  -16.1740  -12.9062 C   0  0  0  0  0  0  0  0  0  0  0  0
   42.2568  -17.4517  -12.7213 N   0  0  0  0  0  0  0  0  0  0  0  0
   48.1892  -16.1065  -11.4787 C   0  0  0  0  0  0  0  0  0  0  0  0
   47.4066  -14.0859  -13.7336 C   0  0  0  0  0  0  0  0  0  0  0  0
   44.4060  -17.1134  -11.4687 C   0  0  0  0  0  0  0  0  0  0  0  0
   43.7417  -15.4690  -13.2740 C   0  0  0  0  0  0  0  0  0  0  0  0
   43.5513  -18.0457  -12.3427 C   0  0  0  0  0  0  0  0  0  0  0  0
   42.3397  -15.9947  -12.9195 C   0  0  0  0  0  0  0  0  0  0  0  0
   45.6154  -12.7729  -12.7399 C   0  0  0  0  0  0  0  0  0  0  0  0
   46.6557  -15.6055   -9.6532 C   0  0  0  0  0  0  0  0  0  0  0  0
   41.7034  -18.1315  -13.8897 C   0  0  0  0  0  0  0  0  0  0  0  0
   49.1137  -16.5792  -10.5340 C   0  0  0  0  0  0  0  0  0  0  0  0
   47.7354  -12.9798  -14.5335 C   0  0  0  0  0  0  0  0  0  0  0  0
   47.5922  -16.0653   -8.7282 C   0  0  0  0  0  0  0  0  0  0  0  0
   45.9655  -11.6784  -13.5298 C   0  0  0  0  0  0  0  0  0  0  0  0
   48.8179  -16.5566   -9.1688 C   0  0  0  0  0  0  0  0  0  0  0  0
   47.0190  -11.7849  -14.4330 C   0  0  0  0  0  0  0  0  0  0  0  0
   48.5996  -15.4925  -14.8810 H   0  0  0  0  0  0  0  0  0  0  0  0
   49.1965  -17.0158  -13.1741 H   0  0  0  0  0  0  0  0  0  0  0  0
   45.2962  -17.6752  -11.1666 H   0  0  0  0  0  0  0  0  0  0  0  0
   43.8520  -16.8530  -10.5581 H   0  0  0  0  0  0  0  0  0  0  0  0
   44.0558  -15.8937  -14.2360 H   0  0  0  0  0  0  0  0  0  0  0  0
   43.6565  -14.3879  -13.4071 H   0  0  0  0  0  0  0  0  0  0  0  0
   44.1351  -18.3152  -13.2342 H   0  0  0  0  0  0  0  0  0  0  0  0
   43.3611  -18.9751  -11.7927 H   0  0  0  0  0  0  0  0  0  0  0  0
   42.0195  -15.5199  -11.9823 H   0  0  0  0  0  0  0  0  0  0  0  0
   41.6202  -15.6548  -13.6753 H   0  0  0  0  0  0  0  0  0  0  0  0
   44.7985  -12.6775  -12.0284 H   0  0  0  0  0  0  0  0  0  0  0  0
   45.7020  -15.2193   -9.3015 H   0  0  0  0  0  0  0  0  0  0  0  0
   42.3171  -17.9800  -14.7848 H   0  0  0  0  0  0  0  0  0  0  0  0
   40.6905  -17.7708  -14.1004 H   0  0  0  0  0  0  0  0  0  0  0  0
   41.6194  -19.2085  -13.7055 H   0  0  0  0  0  0  0  0  0  0  0  0
   50.0819  -16.9575  -10.8542 H   0  0  0  0  0  0  0  0  0  0  0  0
   48.5694  -13.0334  -15.2297 H   0  0  0  0  0  0  0  0  0  0  0  0
   47.3646  -16.0386   -7.6660 H   0  0  0  0  0  0  0  0  0  0  0  0
   45.4185  -10.7441  -13.4371 H   0  0  0  0  0  0  0  0  0  0  0  0
   49.5491  -16.9171   -8.4499 H   0  0  0  0  0  0  0  0  0  0  0  0
   47.2943  -10.9341  -15.0506 H   0  0  0  0  0  0  0  0  0  0  0  0
  2  1  1  0
  3  1  1  0
  4  1  2  3
  5  9  1  0
  6  8  1  0
  7 13  1  0
  8  3  2  0
  9  2  2  0
 10  4  1  0
 11  4  1  0
 12 10  1  0
 13 11  1  0
 14  2  1  0
 15  3  1  0
 16  7  1  0
 17  8  1  0
 18  9  1  0
 19 15  2  0
 20 14  2  0
 21 19  1  0
 22 20  1  0
  7 12  1  0
  6  5  2  0
 21 17  2  0
 22 18  2  0
  5 23  1  0
  6 24  1  0
 10 25  1  0
 10 26  1  0
 11 27  1  0
 11 28  1  0
 12 29  1  0
 12 30  1  0
 13 31  1  0
 13 32  1  0
 14 33  1  0
 15 34  1  0
 16 35  1  0
 16 36  1  0
 16 37  1  0
 17 38  1  0
 18 39  1  0
 19 40  1  0
 20 41  1  0
 21 42  1  0
 22 43  1  0
M  END
> <Uni-Dock RESULT> 
ENERGY=   -4.014  LOWER_BOUND=    5.928  UPPER_BOUND=    7.724
INTER + INTRA:          -4.014
INTER:                  -4.014
INTRA:                   0.000
UNBOUND:                 0.000

$$$$
