
     RDKit          3D

 43 46  0  0  0  0  0  0  0  0999 V2000
   50.1660  -17.5024   -7.4548 C   0  0  0  0  0  0  0  0  0  0  0  0
   48.7218  -17.4802   -7.1074 C   0  0  0  0  0  0  0  0  0  0  0  0
   51.0891  -16.7193   -6.5939 C   0  0  0  0  0  0  0  0  0  0  0  0
   50.6065  -18.1051   -8.5923 C   0  0  0  0  0  0  0  0  0  0  0  0
   48.6329  -14.9690   -7.4660 C   0  0  0  0  0  0  0  0  0  0  0  0
   49.8869  -14.5660   -7.1940 C   0  0  0  0  0  0  0  0  0  0  0  0
   51.3004  -18.3017  -11.5000 N   0  0  0  0  0  0  0  0  0  0  0  0
   50.9282  -15.3243   -6.4728 C   0  0  0  0  0  0  0  0  0  0  0  0
   48.0155  -16.2605   -7.1047 C   0  0  0  0  0  0  0  0  0  0  0  0
   52.0499  -18.0833   -9.0814 C   0  0  0  0  0  0  0  0  0  0  0  0
   49.7126  -18.8344   -9.5885 C   0  0  0  0  0  0  0  0  0  0  0  0
   52.1550  -17.5886  -10.5358 C   0  0  0  0  0  0  0  0  0  0  0  0
   49.9070  -18.3110  -11.0235 C   0  0  0  0  0  0  0  0  0  0  0  0
   48.0724  -18.6655   -6.7246 C   0  0  0  0  0  0  0  0  0  0  0  0
   52.0868  -17.3752   -5.8538 C   0  0  0  0  0  0  0  0  0  0  0  0
   51.7940  -19.6469  -11.7827 C   0  0  0  0  0  0  0  0  0  0  0  0
   51.8210  -14.6083   -5.6601 C   0  0  0  0  0  0  0  0  0  0  0  0
   46.6495  -16.2705   -6.7819 C   0  0  0  0  0  0  0  0  0  0  0  0
   52.9547  -16.6499   -5.0385 C   0  0  0  0  0  0  0  0  0  0  0  0
   46.7186  -18.6542   -6.3913 C   0  0  0  0  0  0  0  0  0  0  0  0
   52.8264  -15.2667   -4.9476 C   0  0  0  0  0  0  0  0  0  0  0  0
   46.0062  -17.4588   -6.4271 C   0  0  0  0  0  0  0  0  0  0  0  0
   47.9761  -14.2764   -7.9883 H   0  0  0  0  0  0  0  0  0  0  0  0
   50.1819  -13.5675   -7.5097 H   0  0  0  0  0  0  0  0  0  0  0  0
   52.6945  -17.4397   -8.4771 H   0  0  0  0  0  0  0  0  0  0  0  0
   52.4616  -19.0963   -8.9968 H   0  0  0  0  0  0  0  0  0  0  0  0
   48.6490  -18.7401   -9.3546 H   0  0  0  0  0  0  0  0  0  0  0  0
   49.9427  -19.9060   -9.5432 H   0  0  0  0  0  0  0  0  0  0  0  0
   51.8865  -16.5237  -10.5656 H   0  0  0  0  0  0  0  0  0  0  0  0
   53.2019  -17.6331  -10.8617 H   0  0  0  0  0  0  0  0  0  0  0  0
   49.2816  -18.8931  -11.7121 H   0  0  0  0  0  0  0  0  0  0  0  0
   49.5215  -17.2839  -11.0787 H   0  0  0  0  0  0  0  0  0  0  0  0
   48.6240  -19.6019   -6.6895 H   0  0  0  0  0  0  0  0  0  0  0  0
   52.1894  -18.4559   -5.9160 H   0  0  0  0  0  0  0  0  0  0  0  0
   51.8128  -20.2984  -10.9035 H   0  0  0  0  0  0  0  0  0  0  0  0
   52.8092  -19.6012  -12.1925 H   0  0  0  0  0  0  0  0  0  0  0  0
   51.1732  -20.1270  -12.5474 H   0  0  0  0  0  0  0  0  0  0  0  0
   51.7292  -13.5290   -5.5610 H   0  0  0  0  0  0  0  0  0  0  0  0
   46.0769  -15.3457   -6.7871 H   0  0  0  0  0  0  0  0  0  0  0  0
   53.7281  -17.1643   -4.4745 H   0  0  0  0  0  0  0  0  0  0  0  0
   46.2221  -19.5768   -6.1027 H   0  0  0  0  0  0  0  0  0  0  0  0
   53.5023  -14.6983   -4.3139 H   0  0  0  0  0  0  0  0  0  0  0  0
   44.9504  -17.4470   -6.1690 H   0  0  0  0  0  0  0  0  0  0  0  0
  2  1  1  0
  3  1  1  0
  4  1  2  3
  5  9  1  0
  6  8  1  0
  7 13  1  0
  8  3  2  0
  9  2  2  0
 10  4  1  0
 11  4  1  0
 12 10  1  0
 13 11  1  0
 14  2  1  0
 15  3  1  0
 16  7  1  0
 17  8  1  0
 18  9  1  0
 19 15  2  0
 20 14  2  0
 21 19  1  0
 22 20  1  0
  7 12  1  0
  6  5  2  0
 21 17  2  0
 22 18  2  0
  5 23  1  0
  6 24  1  0
 10 25  1  0
 10 26  1  0
 11 27  1  0
 11 28  1  0
 12 29  1  0
 12 30  1  0
 13 31  1  0
 13 32  1  0
 14 33  1  0
 15 34  1  0
 16 35  1  0
 16 36  1  0
 16 37  1  0
 17 38  1  0
 18 39  1  0
 19 40  1  0
 20 41  1  0
 21 42  1  0
 22 43  1  0
M  END
> <Uni-Dock RESULT> 
ENERGY=   -6.136  LOWER_BOUND=    0.000  UPPER_BOUND=    0.000
INTER + INTRA:          -6.136
INTER:                  -6.136
INTRA:                   0.000
UNBOUND:                 0.000

$$$$

     RDKit          3D

 43 46  0  0  0  0  0  0  0  0999 V2000
   48.0681  -17.1513   -7.9661 C   0  0  0  0  0  0  0  0  0  0  0  0
   49.0763  -16.2009   -7.4303 C   0  0  0  0  0  0  0  0  0  0  0  0
   47.5079  -18.1563   -7.0267 C   0  0  0  0  0  0  0  0  0  0  0  0
   47.7705  -17.1865   -9.2933 C   0  0  0  0  0  0  0  0  0  0  0  0
   50.6432  -18.1169   -6.8684 C   0  0  0  0  0  0  0  0  0  0  0  0
   49.8123  -19.1528   -6.6546 C   0  0  0  0  0  0  0  0  0  0  0  0
   48.0808  -18.0256  -12.1524 N   0  0  0  0  0  0  0  0  0  0  0  0
   48.3591  -19.0900   -6.4020 C   0  0  0  0  0  0  0  0  0  0  0  0
   50.2890  -16.6841   -6.8988 C   0  0  0  0  0  0  0  0  0  0  0  0
   46.8335  -18.1969   -9.9447 C   0  0  0  0  0  0  0  0  0  0  0  0
   48.3822  -16.2664  -10.3433 C   0  0  0  0  0  0  0  0  0  0  0  0
   47.5008  -18.9151  -11.1321 C   0  0  0  0  0  0  0  0  0  0  0  0
   48.9903  -17.0583  -11.5154 C   0  0  0  0  0  0  0  0  0  0  0  0
   48.7981  -14.8243   -7.3991 C   0  0  0  0  0  0  0  0  0  0  0  0
   46.1383  -18.1402   -6.7146 C   0  0  0  0  0  0  0  0  0  0  0  0
   47.0542  -17.3681  -12.9566 C   0  0  0  0  0  0  0  0  0  0  0  0
   47.8010  -20.0344   -5.5264 C   0  0  0  0  0  0  0  0  0  0  0  0
   51.2274  -15.7627   -6.4083 C   0  0  0  0  0  0  0  0  0  0  0  0
   45.6035  -19.0757   -5.8296 C   0  0  0  0  0  0  0  0  0  0  0  0
   49.7354  -13.9247   -6.8931 C   0  0  0  0  0  0  0  0  0  0  0  0
   46.4332  -20.0266   -5.2419 C   0  0  0  0  0  0  0  0  0  0  0  0
   50.9520  -14.3930   -6.4049 C   0  0  0  0  0  0  0  0  0  0  0  0
   51.6997  -18.3319   -7.0147 H   0  0  0  0  0  0  0  0  0  0  0  0
   50.2382  -20.1538   -6.6385 H   0  0  0  0  0  0  0  0  0  0  0  0
   46.4944  -18.9713   -9.2518 H   0  0  0  0  0  0  0  0  0  0  0  0
   45.9323  -17.6698  -10.2807 H   0  0  0  0  0  0  0  0  0  0  0  0
   49.1748  -15.6297   -9.9416 H   0  0  0  0  0  0  0  0  0  0  0  0
   47.6012  -15.5892  -10.7102 H   0  0  0  0  0  0  0  0  0  0  0  0
   48.3025  -19.5603  -10.7476 H   0  0  0  0  0  0  0  0  0  0  0  0
   46.7786  -19.5966  -11.5990 H   0  0  0  0  0  0  0  0  0  0  0  0
   49.3761  -16.3585  -12.2675 H   0  0  0  0  0  0  0  0  0  0  0  0
   49.8695  -17.6068  -11.1509 H   0  0  0  0  0  0  0  0  0  0  0  0
   47.8478  -14.4521   -7.7741 H   0  0  0  0  0  0  0  0  0  0  0  0
   45.4854  -17.3971   -7.1660 H   0  0  0  0  0  0  0  0  0  0  0  0
   46.3936  -16.7181  -12.3743 H   0  0  0  0  0  0  0  0  0  0  0  0
   46.4333  -18.1143  -13.4650 H   0  0  0  0  0  0  0  0  0  0  0  0
   47.5173  -16.7629  -13.7439 H   0  0  0  0  0  0  0  0  0  0  0  0
   48.4327  -20.7761   -5.0429 H   0  0  0  0  0  0  0  0  0  0  0  0
   52.1777  -16.1073   -6.0067 H   0  0  0  0  0  0  0  0  0  0  0  0
   44.5417  -19.0606   -5.5988 H   0  0  0  0  0  0  0  0  0  0  0  0
   49.5151  -12.8606   -6.8787 H   0  0  0  0  0  0  0  0  0  0  0  0
   46.0191  -20.7579   -4.5526 H   0  0  0  0  0  0  0  0  0  0  0  0
   51.6853  -13.6940   -6.0109 H   0  0  0  0  0  0  0  0  0  0  0  0
  2  1  1  0
  3  1  1  0
  4  1  2  3
  5  9  1  0
  6  8  1  0
  7 13  1  0
  8  3  2  0
  9  2  2  0
 10  4  1  0
 11  4  1  0
 12 10  1  0
 13 11  1  0
 14  2  1  0
 15  3  1  0
 16  7  1  0
 17  8  1  0
 18  9  1  0
 19 15  2  0
 20 14  2  0
 21 19  1  0
 22 20  1  0
  7 12  1  0
  6  5  2  0
 21 17  2  0
 22 18  2  0
  5 23  1  0
  6 24  1  0
 10 25  1  0
 10 26  1  0
 11 27  1  0
 11 28  1  0
 12 29  1  0
 12 30  1  0
 13 31  1  0
 13 32  1  0
 14 33  1  0
 15 34  1  0
 16 35  1  0
 16 36  1  0
 16 37  1  0
 17 38  1  0
 18 39  1  0
 19 40  1  0
 20 41  1  0
 21 42  1  0
 22 43  1  0
M  END
> <Uni-Dock RESULT> 
ENERGY=   -5.203  LOWER_BOUND=    1.929  UPPER_BOUND=    4.793
INTER + INTRA:          -5.203
INTER:                  -5.203
INTRA:                   0.000
UNBOUND:                 0.000

$$$$

     RDKit          3D

 43 46  0  0  0  0  0  0  0  0999 V2000
   50.4490  -17.3953   -7.3088 C   0  0  0  0  0  0  0  0  0  0  0  0
   51.1771  -17.8263   -6.0878 C   0  0  0  0  0  0  0  0  0  0  0  0
   49.0109  -17.0527   -7.1629 C   0  0  0  0  0  0  0  0  0  0  0  0
   51.0401  -17.4419   -8.5334 C   0  0  0  0  0  0  0  0  0  0  0  0
   49.6326  -19.8229   -5.8226 C   0  0  0  0  0  0  0  0  0  0  0  0
   48.4851  -19.4131   -6.3922 C   0  0  0  0  0  0  0  0  0  0  0  0
   51.8838  -18.6830  -11.1261 N   0  0  0  0  0  0  0  0  0  0  0  0
   48.0962  -18.0249   -6.7105 C   0  0  0  0  0  0  0  0  0  0  0  0
   50.7615  -18.9768   -5.3877 C   0  0  0  0  0  0  0  0  0  0  0  0
   50.3370  -17.1236   -9.8477 C   0  0  0  0  0  0  0  0  0  0  0  0
   52.4756  -17.8875   -8.7861 C   0  0  0  0  0  0  0  0  0  0  0  0
   50.4957  -18.2613  -10.8731 C   0  0  0  0  0  0  0  0  0  0  0  0
   52.5527  -18.9960   -9.8520 C   0  0  0  0  0  0  0  0  0  0  0  0
   52.2437  -17.0555   -5.5964 C   0  0  0  0  0  0  0  0  0  0  0  0
   48.5704  -15.7437   -7.4197 C   0  0  0  0  0  0  0  0  0  0  0  0
   52.6244  -17.6968  -11.9084 C   0  0  0  0  0  0  0  0  0  0  0  0
   46.7418  -17.6762   -6.5915 C   0  0  0  0  0  0  0  0  0  0  0  0
   51.4740  -19.3661   -4.2427 C   0  0  0  0  0  0  0  0  0  0  0  0
   47.2237  -15.4106   -7.2803 C   0  0  0  0  0  0  0  0  0  0  0  0
   52.9299  -17.4485   -4.4480 C   0  0  0  0  0  0  0  0  0  0  0  0
   46.3091  -16.3781   -6.8737 C   0  0  0  0  0  0  0  0  0  0  0  0
   52.5499  -18.6068   -3.7760 C   0  0  0  0  0  0  0  0  0  0  0  0
   49.7556  -20.8868   -5.6306 H   0  0  0  0  0  0  0  0  0  0  0  0
   47.7373  -20.1659   -6.6324 H   0  0  0  0  0  0  0  0  0  0  0  0
   49.2647  -16.9500   -9.7257 H   0  0  0  0  0  0  0  0  0  0  0  0
   50.7548  -16.1925  -10.2495 H   0  0  0  0  0  0  0  0  0  0  0  0
   52.9665  -18.2719   -7.8882 H   0  0  0  0  0  0  0  0  0  0  0  0
   53.0597  -17.0156   -9.1055 H   0  0  0  0  0  0  0  0  0  0  0  0
   49.9337  -19.1359  -10.5181 H   0  0  0  0  0  0  0  0  0  0  0  0
   50.0164  -17.9717  -11.8167 H   0  0  0  0  0  0  0  0  0  0  0  0
   53.6035  -19.2528  -10.0361 H   0  0  0  0  0  0  0  0  0  0  0  0
   52.0978  -19.9087   -9.4440 H   0  0  0  0  0  0  0  0  0  0  0  0
   52.5426  -16.1469   -6.1134 H   0  0  0  0  0  0  0  0  0  0  0  0
   49.2801  -14.9817   -7.7327 H   0  0  0  0  0  0  0  0  0  0  0  0
   52.7223  -16.7280  -11.4088 H   0  0  0  0  0  0  0  0  0  0  0  0
   52.1344  -17.5319  -12.8745 H   0  0  0  0  0  0  0  0  0  0  0  0
   53.6314  -18.0665  -12.1315 H   0  0  0  0  0  0  0  0  0  0  0  0
   46.0122  -18.4114   -6.2595 H   0  0  0  0  0  0  0  0  0  0  0  0
   51.1843  -20.2584   -3.6923 H   0  0  0  0  0  0  0  0  0  0  0  0
   46.8901  -14.3973   -7.4874 H   0  0  0  0  0  0  0  0  0  0  0  0
   53.7584  -16.8502   -4.0783 H   0  0  0  0  0  0  0  0  0  0  0  0
   45.2584  -16.1218   -6.7653 H   0  0  0  0  0  0  0  0  0  0  0  0
   53.0837  -18.9164   -2.8812 H   0  0  0  0  0  0  0  0  0  0  0  0
  2  1  1  0
  3  1  1  0
  4  1  2  3
  5  9  1  0
  6  8  1  0
  7 13  1  0
  8  3  2  0
  9  2  2  0
 10  4  1  0
 11  4  1  0
 12 10  1  0
 13 11  1  0
 14  2  1  0
 15  3  1  0
 16  7  1  0
 17  8  1  0
 18  9  1  0
 19 15  2  0
 20 14  2  0
 21 19  1  0
 22 20  1  0
  7 12  1  0
  6  5  2  0
 21 17  2  0
 22 18  2  0
  5 23  1  0
  6 24  1  0
 10 25  1  0
 10 26  1  0
 11 27  1  0
 11 28  1  0
 12 29  1  0
 12 30  1  0
 13 31  1  0
 13 32  1  0
 14 33  1  0
 15 34  1  0
 16 35  1  0
 16 36  1  0
 16 37  1  0
 17 38  1  0
 18 39  1  0
 19 40  1  0
 20 41  1  0
 21 42  1  0
 22 43  1  0
M  END
> <Uni-Dock RESULT> 
ENERGY=   -5.198  LOWER_BOUND=    1.289  UPPER_BOUND=    4.401
INTER + INTRA:          -5.198
INTER:                  -5.198
INTRA:                   0.000
UNBOUND:                 0.000

$$$$

     RDKit          3D

 43 46  0  0  0  0  0  0  0  0999 V2000
   49.2414  -17.8733   -7.6491 C   0  0  0  0  0  0  0  0  0  0  0  0
   48.1214  -18.4785   -6.8835 C   0  0  0  0  0  0  0  0  0  0  0  0
   49.6606  -16.4979   -7.2763 C   0  0  0  0  0  0  0  0  0  0  0  0
   49.7712  -18.5002   -8.7342 C   0  0  0  0  0  0  0  0  0  0  0  0
   46.5477  -16.6435   -7.6571 C   0  0  0  0  0  0  0  0  0  0  0  0
   47.3631  -15.5943   -7.8652 C   0  0  0  0  0  0  0  0  0  0  0  0
   50.0035  -19.2538  -11.6243 N   0  0  0  0  0  0  0  0  0  0  0  0
   48.7452  -15.4305   -7.3727 C   0  0  0  0  0  0  0  0  0  0  0  0
   46.8513  -17.8676   -6.8896 C   0  0  0  0  0  0  0  0  0  0  0  0
   50.8438  -17.9066   -9.6399 C   0  0  0  0  0  0  0  0  0  0  0  0
   49.3240  -19.8621   -9.2522 C   0  0  0  0  0  0  0  0  0  0  0  0
   50.4237  -17.9351  -11.1211 C   0  0  0  0  0  0  0  0  0  0  0  0
   48.9619  -19.8160  -10.7481 C   0  0  0  0  0  0  0  0  0  0  0  0
   48.3413  -19.6275   -6.1059 C   0  0  0  0  0  0  0  0  0  0  0  0
   50.9516  -16.2687   -6.7718 C   0  0  0  0  0  0  0  0  0  0  0  0
   51.1330  -20.1646  -11.7905 C   0  0  0  0  0  0  0  0  0  0  0  0
   49.1715  -14.1397   -7.0231 C   0  0  0  0  0  0  0  0  0  0  0  0
   45.8090  -18.4667   -6.1652 C   0  0  0  0  0  0  0  0  0  0  0  0
   51.3529  -14.9823   -6.4137 C   0  0  0  0  0  0  0  0  0  0  0  0
   47.2981  -20.2000   -5.3793 C   0  0  0  0  0  0  0  0  0  0  0  0
   50.4659  -13.9177   -6.5464 C   0  0  0  0  0  0  0  0  0  0  0  0
   46.0313  -19.6241   -5.4149 C   0  0  0  0  0  0  0  0  0  0  0  0
   45.5421  -16.5983   -8.0703 H   0  0  0  0  0  0  0  0  0  0  0  0
   46.9764  -14.7528   -8.4362 H   0  0  0  0  0  0  0  0  0  0  0  0
   51.0813  -16.8682   -9.3946 H   0  0  0  0  0  0  0  0  0  0  0  0
   51.7714  -18.4748   -9.4998 H   0  0  0  0  0  0  0  0  0  0  0  0
   48.4509  -20.2530   -8.7234 H   0  0  0  0  0  0  0  0  0  0  0  0
   50.1336  -20.5824   -9.0819 H   0  0  0  0  0  0  0  0  0  0  0  0
   49.5895  -17.2347  -11.2638 H   0  0  0  0  0  0  0  0  0  0  0  0
   51.2408  -17.5433  -11.7398 H   0  0  0  0  0  0  0  0  0  0  0  0
   48.6917  -20.8232  -11.0894 H   0  0  0  0  0  0  0  0  0  0  0  0
   48.0518  -19.2136  -10.8715 H   0  0  0  0  0  0  0  0  0  0  0  0
   49.3295  -20.0796   -6.0694 H   0  0  0  0  0  0  0  0  0  0  0  0
   51.6479  -17.0964   -6.6608 H   0  0  0  0  0  0  0  0  0  0  0  0
   51.6564  -20.3858  -10.8551 H   0  0  0  0  0  0  0  0  0  0  0  0
   51.8601  -19.7445  -12.4945 H   0  0  0  0  0  0  0  0  0  0  0  0
   50.7963  -21.1133  -12.2231 H   0  0  0  0  0  0  0  0  0  0  0  0
   48.4903  -13.2956   -7.1028 H   0  0  0  0  0  0  0  0  0  0  0  0
   44.8151  -18.0248   -6.1651 H   0  0  0  0  0  0  0  0  0  0  0  0
   52.3556  -14.8126   -6.0307 H   0  0  0  0  0  0  0  0  0  0  0  0
   47.4750  -21.0928   -4.7855 H   0  0  0  0  0  0  0  0  0  0  0  0
   50.7762  -12.9135   -6.2693 H   0  0  0  0  0  0  0  0  0  0  0  0
   45.2156  -20.0688   -4.8505 H   0  0  0  0  0  0  0  0  0  0  0  0
  2  1  1  0
  3  1  1  0
  4  1  2  3
  5  9  1  0
  6  8  1  0
  7 13  1  0
  8  3  2  0
  9  2  2  0
 10  4  1  0
 11  4  1  0
 12 10  1  0
 13 11  1  0
 14  2  1  0
 15  3  1  0
 16  7  1  0
 17  8  1  0
 18  9  1  0
 19 15  2  0
 20 14  2  0
 21 19  1  0
 22 20  1  0
  7 12  1  0
  6  5  2  0
 21 17  2  0
 22 18  2  0
  5 23  1  0
  6 24  1  0
 10 25  1  0
 10 26  1  0
 11 27  1  0
 11 28  1  0
 12 29  1  0
 12 30  1  0
 13 31  1  0
 13 32  1  0
 14 33  1  0
 15 34  1  0
 16 35  1  0
 16 36  1  0
 16 37  1  0
 17 38  1  0
 18 39  1  0
 19 40  1  0
 20 41  1  0
 21 42  1  0
 22 43  1  0
M  END
> <Uni-Dock RESULT> 
ENERGY=   -5.171  LOWER_BOUND=    1.229  UPPER_BOUND=    2.023
INTER + INTRA:          -5.171
INTER:                  -5.171
INTRA:                   0.000
UNBOUND:                 0.000

$$$$

     RDKit          3D

 43 46  0  0  0  0  0  0  0  0999 V2000
   46.9153  -15.9796  -10.6054 C   0  0  0  0  0  0  0  0  0  0  0  0
   46.7267  -16.3137   -9.1703 C   0  0  0  0  0  0  0  0  0  0  0  0
   45.6988  -15.6823  -11.4044 C   0  0  0  0  0  0  0  0  0  0  0  0
   48.1380  -16.0738  -11.1947 C   0  0  0  0  0  0  0  0  0  0  0  0
   45.3378  -18.3474   -9.7846 C   0  0  0  0  0  0  0  0  0  0  0  0
   44.7933  -18.0128  -10.9681 C   0  0  0  0  0  0  0  0  0  0  0  0
   50.3996  -17.4280  -12.6180 N   0  0  0  0  0  0  0  0  0  0  0  0
   44.6944  -16.6602  -11.5512 C   0  0  0  0  0  0  0  0  0  0  0  0
   45.9593  -17.4372   -8.8024 C   0  0  0  0  0  0  0  0  0  0  0  0
   48.4033  -15.8565  -12.6798 C   0  0  0  0  0  0  0  0  0  0  0  0
   49.4182  -16.4800  -10.4740 C   0  0  0  0  0  0  0  0  0  0  0  0
   49.1563  -17.0439  -13.3075 C   0  0  0  0  0  0  0  0  0  0  0  0
   50.1324  -17.6436  -11.1859 C   0  0  0  0  0  0  0  0  0  0  0  0
   47.2638  -15.4778   -8.1773 C   0  0  0  0  0  0  0  0  0  0  0  0
   45.5207  -14.4069  -11.9659 C   0  0  0  0  0  0  0  0  0  0  0  0
   51.4719  -16.4612  -12.8381 C   0  0  0  0  0  0  0  0  0  0  0  0
   43.5602  -16.3552  -12.3198 C   0  0  0  0  0  0  0  0  0  0  0  0
   45.8059  -17.7346   -7.4392 C   0  0  0  0  0  0  0  0  0  0  0  0
   44.3798  -14.1160  -12.7128 C   0  0  0  0  0  0  0  0  0  0  0  0
   47.0877  -15.7796   -6.8275 C   0  0  0  0  0  0  0  0  0  0  0  0
   43.4040  -15.0919  -12.8956 C   0  0  0  0  0  0  0  0  0  0  0  0
   46.3655  -16.9112   -6.4591 C   0  0  0  0  0  0  0  0  0  0  0  0
   45.3086  -19.3935   -9.4868 H   0  0  0  0  0  0  0  0  0  0  0  0
   44.3508  -18.8050  -11.5684 H   0  0  0  0  0  0  0  0  0  0  0  0
   47.4875  -15.7157  -13.2597 H   0  0  0  0  0  0  0  0  0  0  0  0
   48.9862  -14.9350  -12.7981 H   0  0  0  0  0  0  0  0  0  0  0  0
   49.2441  -16.7948   -9.4418 H   0  0  0  0  0  0  0  0  0  0  0  0
   50.0799  -15.6069  -10.4210 H   0  0  0  0  0  0  0  0  0  0  0  0
   48.4897  -17.9170  -13.3189 H   0  0  0  0  0  0  0  0  0  0  0  0
   49.3672  -16.8260  -14.3621 H   0  0  0  0  0  0  0  0  0  0  0  0
   51.0694  -17.8717  -10.6624 H   0  0  0  0  0  0  0  0  0  0  0  0
   49.5167  -18.5478  -11.0869 H   0  0  0  0  0  0  0  0  0  0  0  0
   47.8247  -14.5895   -8.4579 H   0  0  0  0  0  0  0  0  0  0  0  0
   46.2764  -13.6384  -11.8227 H   0  0  0  0  0  0  0  0  0  0  0  0
   51.2451  -15.4627  -12.4516 H   0  0  0  0  0  0  0  0  0  0  0  0
   51.6876  -16.3694  -13.9085 H   0  0  0  0  0  0  0  0  0  0  0  0
   52.3980  -16.8058  -12.3645 H   0  0  0  0  0  0  0  0  0  0  0  0
   42.7773  -17.0966  -12.4622 H   0  0  0  0  0  0  0  0  0  0  0  0
   45.2317  -18.6044   -7.1278 H   0  0  0  0  0  0  0  0  0  0  0  0
   44.2529  -13.1290  -13.1494 H   0  0  0  0  0  0  0  0  0  0  0  0
   47.5122  -15.1314   -6.0656 H   0  0  0  0  0  0  0  0  0  0  0  0
   42.5141  -14.8686  -13.4784 H   0  0  0  0  0  0  0  0  0  0  0  0
   46.2276  -17.1498   -5.4077 H   0  0  0  0  0  0  0  0  0  0  0  0
  2  1  1  0
  3  1  1  0
  4  1  2  3
  5  9  1  0
  6  8  1  0
  7 13  1  0
  8  3  2  0
  9  2  2  0
 10  4  1  0
 11  4  1  0
 12 10  1  0
 13 11  1  0
 14  2  1  0
 15  3  1  0
 16  7  1  0
 17  8  1  0
 18  9  1  0
 19 15  2  0
 20 14  2  0
 21 19  1  0
 22 20  1  0
  7 12  1  0
  6  5  2  0
 21 17  2  0
 22 18  2  0
  5 23  1  0
  6 24  1  0
 10 25  1  0
 10 26  1  0
 11 27  1  0
 11 28  1  0
 12 29  1  0
 12 30  1  0
 13 31  1  0
 13 32  1  0
 14 33  1  0
 15 34  1  0
 16 35  1  0
 16 36  1  0
 16 37  1  0
 17 38  1  0
 18 39  1  0
 19 40  1  0
 20 41  1  0
 21 42  1  0
 22 43  1  0
M  END
> <Uni-Dock RESULT> 
ENERGY=   -5.143  LOWER_BOUND=    3.808  UPPER_BOUND=    6.207
INTER + INTRA:          -5.143
INTER:                  -5.143
INTRA:                   0.000
UNBOUND:                 0.000

$$$$

     RDKit          3D

 43 46  0  0  0  0  0  0  0  0999 V2000
   48.8006  -17.1112   -7.8381 C   0  0  0  0  0  0  0  0  0  0  0  0
   49.8601  -16.3434   -7.1347 C   0  0  0  0  0  0  0  0  0  0  0  0
   47.9685  -18.0335   -7.0234 C   0  0  0  0  0  0  0  0  0  0  0  0
   48.6860  -17.0722   -9.1933 C   0  0  0  0  0  0  0  0  0  0  0  0
   51.0207  -18.4944   -6.4501 C   0  0  0  0  0  0  0  0  0  0  0  0
   50.0186  -19.3896   -6.3912 C   0  0  0  0  0  0  0  0  0  0  0  0
   49.2525  -17.8923  -12.0184 N   0  0  0  0  0  0  0  0  0  0  0  0
   48.5718  -19.1026   -6.3308 C   0  0  0  0  0  0  0  0  0  0  0  0
   50.8992  -17.0232   -6.4678 C   0  0  0  0  0  0  0  0  0  0  0  0
   47.7028  -17.9082  -10.0042 C   0  0  0  0  0  0  0  0  0  0  0  0
   49.5704  -16.2397  -10.1141 C   0  0  0  0  0  0  0  0  0  0  0  0
   48.4079  -18.6991  -11.1215 C   0  0  0  0  0  0  0  0  0  0  0  0
   50.2042  -17.0942  -11.2272 C   0  0  0  0  0  0  0  0  0  0  0  0
   49.7957  -14.9411   -7.0837 C   0  0  0  0  0  0  0  0  0  0  0  0
   46.5880  -17.8070   -6.8950 C   0  0  0  0  0  0  0  0  0  0  0  0
   48.4597  -17.0644  -12.9235 C   0  0  0  0  0  0  0  0  0  0  0  0
   47.7599  -19.9641   -5.5766 C   0  0  0  0  0  0  0  0  0  0  0  0
   51.8921  -16.2720   -5.8197 C   0  0  0  0  0  0  0  0  0  0  0  0
   45.7992  -18.6636   -6.1281 C   0  0  0  0  0  0  0  0  0  0  0  0
   50.7821  -14.2116   -6.4212 C   0  0  0  0  0  0  0  0  0  0  0  0
   46.3837  -19.7455   -5.4756 C   0  0  0  0  0  0  0  0  0  0  0  0
   51.8333  -14.8764   -5.7961 C   0  0  0  0  0  0  0  0  0  0  0  0
   52.0414  -18.8709   -6.4641 H   0  0  0  0  0  0  0  0  0  0  0  0
   50.2789  -20.4456   -6.3604 H   0  0  0  0  0  0  0  0  0  0  0  0
   47.1565  -18.6329   -9.3949 H   0  0  0  0  0  0  0  0  0  0  0  0
   46.9484  -17.2384  -10.4345 H   0  0  0  0  0  0  0  0  0  0  0  0
   50.3890  -15.7447   -9.5850 H   0  0  0  0  0  0  0  0  0  0  0  0
   48.9610  -15.4401  -10.5528 H   0  0  0  0  0  0  0  0  0  0  0  0
   49.0402  -19.4706  -10.6614 H   0  0  0  0  0  0  0  0  0  0  0  0
   47.6603  -19.2481  -11.7078 H   0  0  0  0  0  0  0  0  0  0  0  0
   50.7927  -16.4494  -11.8919 H   0  0  0  0  0  0  0  0  0  0  0  0
   50.9299  -17.7822  -10.7726 H   0  0  0  0  0  0  0  0  0  0  0  0
   48.9747  -14.4156   -7.5654 H   0  0  0  0  0  0  0  0  0  0  0  0
   46.1257  -16.9610   -7.3977 H   0  0  0  0  0  0  0  0  0  0  0  0
   47.8337  -16.3299  -12.4074 H   0  0  0  0  0  0  0  0  0  0  0  0
   47.8070  -17.6926  -13.5400 H   0  0  0  0  0  0  0  0  0  0  0  0
   49.1142  -16.5246  -13.6169 H   0  0  0  0  0  0  0  0  0  0  0  0
   48.1973  -20.8061   -5.0449 H   0  0  0  0  0  0  0  0  0  0  0  0
   52.7138  -16.7708   -5.3105 H   0  0  0  0  0  0  0  0  0  0  0  0
   44.7309  -18.4852   -6.0394 H   0  0  0  0  0  0  0  0  0  0  0  0
   50.7286  -13.1266   -6.3921 H   0  0  0  0  0  0  0  0  0  0  0  0
   45.7712  -20.4157   -4.8780 H   0  0  0  0  0  0  0  0  0  0  0  0
   52.6046  -14.3104   -5.2800 H   0  0  0  0  0  0  0  0  0  0  0  0
  2  1  1  0
  3  1  1  0
  4  1  2  3
  5  9  1  0
  6  8  1  0
  7 13  1  0
  8  3  2  0
  9  2  2  0
 10  4  1  0
 11  4  1  0
 12 10  1  0
 13 11  1  0
 14  2  1  0
 15  3  1  0
 16  7  1  0
 17  8  1  0
 18  9  1  0
 19 15  2  0
 20 14  2  0
 21 19  1  0
 22 20  1  0
  7 12  1  0
  6  5  2  0
 21 17  2  0
 22 18  2  0
  5 23  1  0
  6 24  1  0
 10 25  1  0
 10 26  1  0
 11 27  1  0
 11 28  1  0
 12 29  1  0
 12 30  1  0
 13 31  1  0
 13 32  1  0
 14 33  1  0
 15 34  1  0
 16 35  1  0
 16 36  1  0
 16 37  1  0
 17 38  1  0
 18 39  1  0
 19 40  1  0
 20 41  1  0
 21 42  1  0
 22 43  1  0
M  END
> <Uni-Dock RESULT> 
ENERGY=   -5.109  LOWER_BOUND=    1.565  UPPER_BOUND=    4.667
INTER + INTRA:          -5.109
INTER:                  -5.109
INTRA:                   0.000
UNBOUND:                 0.000

$$$$

     RDKit          3D

 43 46  0  0  0  0  0  0  0  0999 V2000
   46.1850  -16.1804  -10.4514 C   0  0  0  0  0  0  0  0  0  0  0  0
   46.2759  -15.2863  -11.6342 C   0  0  0  0  0  0  0  0  0  0  0  0
   47.2173  -16.0246   -9.3947 C   0  0  0  0  0  0  0  0  0  0  0  0
   45.2743  -17.1900  -10.4014 C   0  0  0  0  0  0  0  0  0  0  0  0
   48.5535  -16.2363  -12.2278 C   0  0  0  0  0  0  0  0  0  0  0  0
   49.0521  -16.6274  -11.0414 C   0  0  0  0  0  0  0  0  0  0  0  0
   44.2143  -19.9531  -10.8669 N   0  0  0  0  0  0  0  0  0  0  0  0
   48.5778  -16.2276   -9.7018 C   0  0  0  0  0  0  0  0  0  0  0  0
   47.4196  -15.3193  -12.4573 C   0  0  0  0  0  0  0  0  0  0  0  0
   45.1818  -18.2190   -9.2808 C   0  0  0  0  0  0  0  0  0  0  0  0
   44.2525  -17.4901  -11.4920 C   0  0  0  0  0  0  0  0  0  0  0  0
   45.2099  -19.6603   -9.8220 C   0  0  0  0  0  0  0  0  0  0  0  0
   44.3161  -18.9591  -11.9488 C   0  0  0  0  0  0  0  0  0  0  0  0
   45.2487  -14.3658  -11.9004 C   0  0  0  0  0  0  0  0  0  0  0  0
   46.8450  -15.6178   -8.1026 C   0  0  0  0  0  0  0  0  0  0  0  0
   42.8602  -20.0417  -10.3270 C   0  0  0  0  0  0  0  0  0  0  0  0
   49.5306  -16.0831   -8.6813 C   0  0  0  0  0  0  0  0  0  0  0  0
   47.4742  -14.4702  -13.5737 C   0  0  0  0  0  0  0  0  0  0  0  0
   47.8069  -15.4632   -7.1052 C   0  0  0  0  0  0  0  0  0  0  0  0
   45.3273  -13.5183  -13.0047 C   0  0  0  0  0  0  0  0  0  0  0  0
   49.1477  -15.7029   -7.3926 C   0  0  0  0  0  0  0  0  0  0  0  0
   46.4358  -13.5757  -13.8447 C   0  0  0  0  0  0  0  0  0  0  0  0
   49.0361  -16.6047  -13.1307 H   0  0  0  0  0  0  0  0  0  0  0  0
   49.9131  -17.2926  -11.0440 H   0  0  0  0  0  0  0  0  0  0  0  0
   45.9956  -18.1334   -8.5561 H   0  0  0  0  0  0  0  0  0  0  0  0
   44.2541  -18.0436   -8.7227 H   0  0  0  0  0  0  0  0  0  0  0  0
   44.3870  -16.8715  -12.3832 H   0  0  0  0  0  0  0  0  0  0  0  0
   43.2525  -17.2579  -11.1056 H   0  0  0  0  0  0  0  0  0  0  0  0
   46.2073  -19.8612  -10.2364 H   0  0  0  0  0  0  0  0  0  0  0  0
   45.0942  -20.3652   -8.9891 H   0  0  0  0  0  0  0  0  0  0  0  0
   43.5355  -19.1425  -12.6978 H   0  0  0  0  0  0  0  0  0  0  0  0
   45.2668  -19.1236  -12.4737 H   0  0  0  0  0  0  0  0  0  0  0  0
   44.3824  -14.3120  -11.2455 H   0  0  0  0  0  0  0  0  0  0  0  0
   45.8001  -15.4239   -7.8725 H   0  0  0  0  0  0  0  0  0  0  0  0
   42.5098  -19.1098   -9.8725 H   0  0  0  0  0  0  0  0  0  0  0  0
   42.8039  -20.8308   -9.5688 H   0  0  0  0  0  0  0  0  0  0  0  0
   42.1533  -20.3206  -11.1165 H   0  0  0  0  0  0  0  0  0  0  0  0
   50.5857  -16.2491   -8.8871 H   0  0  0  0  0  0  0  0  0  0  0  0
   48.3382  -14.4861  -14.2344 H   0  0  0  0  0  0  0  0  0  0  0  0
   47.5097  -15.1547   -6.1064 H   0  0  0  0  0  0  0  0  0  0  0  0
   44.5251  -12.8137  -13.2074 H   0  0  0  0  0  0  0  0  0  0  0  0
   49.8998  -15.5845   -6.6169 H   0  0  0  0  0  0  0  0  0  0  0  0
   46.4993  -12.9172  -14.7072 H   0  0  0  0  0  0  0  0  0  0  0  0
  2  1  1  0
  3  1  1  0
  4  1  2  3
  5  9  1  0
  6  8  1  0
  7 13  1  0
  8  3  2  0
  9  2  2  0
 10  4  1  0
 11  4  1  0
 12 10  1  0
 13 11  1  0
 14  2  1  0
 15  3  1  0
 16  7  1  0
 17  8  1  0
 18  9  1  0
 19 15  2  0
 20 14  2  0
 21 19  1  0
 22 20  1  0
  7 12  1  0
  6  5  2  0
 21 17  2  0
 22 18  2  0
  5 23  1  0
  6 24  1  0
 10 25  1  0
 10 26  1  0
 11 27  1  0
 11 28  1  0
 12 29  1  0
 12 30  1  0
 13 31  1  0
 13 32  1  0
 14 33  1  0
 15 34  1  0
 16 35  1  0
 16 36  1  0
 16 37  1  0
 17 38  1  0
 18 39  1  0
 19 40  1  0
 20 41  1  0
 21 42  1  0
 22 43  1  0
M  END
> <Uni-Dock RESULT> 
ENERGY=   -4.562  LOWER_BOUND=    4.348  UPPER_BOUND=    6.243
INTER + INTRA:          -4.562
INTER:                  -4.562
INTRA:                   0.000
UNBOUND:                 0.000

$$$$

     RDKit          3D

 43 46  0  0  0  0  0  0  0  0999 V2000
   45.0340  -14.0113  -12.3412 C   0  0  0  0  0  0  0  0  0  0  0  0
   45.2198  -15.3139  -11.6516 C   0  0  0  0  0  0  0  0  0  0  0  0
   43.7156  -13.3424  -12.1967 C   0  0  0  0  0  0  0  0  0  0  0  0
   45.9851  -13.5175  -13.1796 C   0  0  0  0  0  0  0  0  0  0  0  0
   43.3491  -16.3502  -13.0187 C   0  0  0  0  0  0  0  0  0  0  0  0
   42.5523  -15.3058  -13.3075 C   0  0  0  0  0  0  0  0  0  0  0  0
   47.4195  -13.1429  -15.7828 N   0  0  0  0  0  0  0  0  0  0  0  0
   42.5454  -13.9839  -12.6503 C   0  0  0  0  0  0  0  0  0  0  0  0
   44.3962  -16.4096  -11.9797 C   0  0  0  0  0  0  0  0  0  0  0  0
   45.8339  -12.2481  -14.0095 C   0  0  0  0  0  0  0  0  0  0  0  0
   47.3190  -14.1947  -13.4714 C   0  0  0  0  0  0  0  0  0  0  0  0
   46.1251  -12.4998  -15.5005 C   0  0  0  0  0  0  0  0  0  0  0  0
   47.5534  -14.3721  -14.9829 C   0  0  0  0  0  0  0  0  0  0  0  0
   46.1769  -15.4390  -10.6311 C   0  0  0  0  0  0  0  0  0  0  0  0
   43.6262  -12.0957  -11.5554 C   0  0  0  0  0  0  0  0  0  0  0  0
   48.5423  -12.2308  -15.5818 C   0  0  0  0  0  0  0  0  0  0  0  0
   41.3144  -13.3242  -12.5098 C   0  0  0  0  0  0  0  0  0  0  0  0
   44.6004  -17.6311  -11.3190 C   0  0  0  0  0  0  0  0  0  0  0  0
   42.3927  -11.4622  -11.4098 C   0  0  0  0  0  0  0  0  0  0  0  0
   46.3551  -16.6558   -9.9739 C   0  0  0  0  0  0  0  0  0  0  0  0
   41.2388  -12.0727  -11.8933 C   0  0  0  0  0  0  0  0  0  0  0  0
   45.5724  -17.7528  -10.3229 C   0  0  0  0  0  0  0  0  0  0  0  0
   43.2101  -17.2697  -13.5835 H   0  0  0  0  0  0  0  0  0  0  0  0
   41.8086  -15.4327  -14.0914 H   0  0  0  0  0  0  0  0  0  0  0  0
   44.8319  -11.8157  -13.9477 H   0  0  0  0  0  0  0  0  0  0  0  0
   46.5204  -11.4896  -13.6139 H   0  0  0  0  0  0  0  0  0  0  0  0
   47.4024  -15.1849  -13.0161 H   0  0  0  0  0  0  0  0  0  0  0  0
   48.1209  -13.5874  -13.0339 H   0  0  0  0  0  0  0  0  0  0  0  0
   45.3311  -13.1384  -15.9112 H   0  0  0  0  0  0  0  0  0  0  0  0
   46.0509  -11.5539  -16.0516 H   0  0  0  0  0  0  0  0  0  0  0  0
   48.5418  -14.8188  -15.1490 H   0  0  0  0  0  0  0  0  0  0  0  0
   46.8339  -15.1080  -15.3666 H   0  0  0  0  0  0  0  0  0  0  0  0
   46.7882  -14.5849  -10.3499 H   0  0  0  0  0  0  0  0  0  0  0  0
   44.5226  -11.6155  -11.1708 H   0  0  0  0  0  0  0  0  0  0  0  0
   48.6358  -11.8744  -14.5512 H   0  0  0  0  0  0  0  0  0  0  0  0
   48.4438  -11.3566  -16.2351 H   0  0  0  0  0  0  0  0  0  0  0  0
   49.4833  -12.7191  -15.8584 H   0  0  0  0  0  0  0  0  0  0  0  0
   40.3978  -13.7896  -12.8652 H   0  0  0  0  0  0  0  0  0  0  0  0
   43.9893  -18.4970  -11.5637 H   0  0  0  0  0  0  0  0  0  0  0  0
   42.3331  -10.4947  -10.9185 H   0  0  0  0  0  0  0  0  0  0  0  0
   47.1024  -16.7460   -9.1902 H   0  0  0  0  0  0  0  0  0  0  0  0
   40.2759  -11.5808  -11.7825 H   0  0  0  0  0  0  0  0  0  0  0  0
   45.7099  -18.7030   -9.8133 H   0  0  0  0  0  0  0  0  0  0  0  0
  2  1  1  0
  3  1  1  0
  4  1  2  3
  5  9  1  0
  6  8  1  0
  7 13  1  0
  8  3  2  0
  9  2  2  0
 10  4  1  0
 11  4  1  0
 12 10  1  0
 13 11  1  0
 14  2  1  0
 15  3  1  0
 16  7  1  0
 17  8  1  0
 18  9  1  0
 19 15  2  0
 20 14  2  0
 21 19  1  0
 22 20  1  0
  7 12  1  0
  6  5  2  0
 21 17  2  0
 22 18  2  0
  5 23  1  0
  6 24  1  0
 10 25  1  0
 10 26  1  0
 11 27  1  0
 11 28  1  0
 12 29  1  0
 12 30  1  0
 13 31  1  0
 13 32  1  0
 14 33  1  0
 15 34  1  0
 16 35  1  0
 16 36  1  0
 16 37  1  0
 17 38  1  0
 18 39  1  0
 19 40  1  0
 20 41  1  0
 21 42  1  0
 22 43  1  0
M  END
> <Uni-Dock RESULT> 
ENERGY=   -4.033  LOWER_BOUND=    6.695  UPPER_BOUND=    8.827
INTER + INTRA:          -4.033
INTER:                  -4.033
INTRA:                   0.000
UNBOUND:                 0.000

$$$$

     RDKit          3D

 43 46  0  0  0  0  0  0  0  0999 V2000
   46.6912  -17.0762   -8.9047 C   0  0  0  0  0  0  0  0  0  0  0  0
   46.6000  -17.0851  -10.3874 C   0  0  0  0  0  0  0  0  0  0  0  0
   47.8580  -16.3881   -8.2950 C   0  0  0  0  0  0  0  0  0  0  0  0
   45.8147  -17.7840   -8.1419 C   0  0  0  0  0  0  0  0  0  0  0  0
   48.7891  -18.3589  -10.5546 C   0  0  0  0  0  0  0  0  0  0  0  0
   49.4554  -17.9896   -9.4461 C   0  0  0  0  0  0  0  0  0  0  0  0
   44.7499  -20.1855   -6.7018 N   0  0  0  0  0  0  0  0  0  0  0  0
   49.1657  -16.8307   -8.5787 C   0  0  0  0  0  0  0  0  0  0  0  0
   47.6179  -17.6884  -11.1532 C   0  0  0  0  0  0  0  0  0  0  0  0
   45.8981  -17.9195   -6.6261 C   0  0  0  0  0  0  0  0  0  0  0  0
   44.6562  -18.6078   -8.6920 C   0  0  0  0  0  0  0  0  0  0  0  0
   45.8762  -19.3932   -6.1801 C   0  0  0  0  0  0  0  0  0  0  0  0
   44.6817  -20.0551   -8.1671 C   0  0  0  0  0  0  0  0  0  0  0  0
   45.5293  -16.4416  -11.0299 C   0  0  0  0  0  0  0  0  0  0  0  0
   47.6625  -15.2595   -7.4815 C   0  0  0  0  0  0  0  0  0  0  0  0
   43.4862  -19.8348   -6.0590 C   0  0  0  0  0  0  0  0  0  0  0  0
   50.2490  -16.1679   -7.9809 C   0  0  0  0  0  0  0  0  0  0  0  0
   47.5009  -17.6906  -12.5520 C   0  0  0  0  0  0  0  0  0  0  0  0
   48.7514  -14.6032   -6.9091 C   0  0  0  0  0  0  0  0  0  0  0  0
   45.4376  -16.4395  -12.4212 C   0  0  0  0  0  0  0  0  0  0  0  0
   50.0430  -15.0617   -7.1527 C   0  0  0  0  0  0  0  0  0  0  0  0
   46.4188  -17.0699  -13.1811 C   0  0  0  0  0  0  0  0  0  0  0  0
   49.1473  -19.2301  -11.0991 H   0  0  0  0  0  0  0  0  0  0  0  0
   50.3194  -18.5805   -9.1494 H   0  0  0  0  0  0  0  0  0  0  0  0
   46.8035  -17.4720   -6.2079 H   0  0  0  0  0  0  0  0  0  0  0  0
   45.0545  -17.3781   -6.1811 H   0  0  0  0  0  0  0  0  0  0  0  0
   44.6538  -18.6631   -9.7837 H   0  0  0  0  0  0  0  0  0  0  0  0
   43.7160  -18.1197   -8.4076 H   0  0  0  0  0  0  0  0  0  0  0  0
   46.8094  -19.8731   -6.5051 H   0  0  0  0  0  0  0  0  0  0  0  0
   45.8907  -19.4430   -5.0840 H   0  0  0  0  0  0  0  0  0  0  0  0
   43.8076  -20.5974   -8.5491 H   0  0  0  0  0  0  0  0  0  0  0  0
   45.5526  -20.5695   -8.5955 H   0  0  0  0  0  0  0  0  0  0  0  0
   44.7621  -15.9429  -10.4426 H   0  0  0  0  0  0  0  0  0  0  0  0
   46.6567  -14.8929   -7.2912 H   0  0  0  0  0  0  0  0  0  0  0  0
   43.1861  -18.7955   -6.2248 H   0  0  0  0  0  0  0  0  0  0  0  0
   43.5506  -20.0008   -4.9778 H   0  0  0  0  0  0  0  0  0  0  0  0
   42.6812  -20.4825   -6.4239 H   0  0  0  0  0  0  0  0  0  0  0  0
   51.2677  -16.4983   -8.1704 H   0  0  0  0  0  0  0  0  0  0  0  0
   48.2642  -18.1627  -13.1665 H   0  0  0  0  0  0  0  0  0  0  0  0
   48.5910  -13.7350   -6.2755 H   0  0  0  0  0  0  0  0  0  0  0  0
   44.6025  -15.9452  -12.9102 H   0  0  0  0  0  0  0  0  0  0  0  0
   50.8938  -14.5530   -6.7068 H   0  0  0  0  0  0  0  0  0  0  0  0
   46.3494  -17.0711  -14.2659 H   0  0  0  0  0  0  0  0  0  0  0  0
  2  1  1  0
  3  1  1  0
  4  1  2  3
  5  9  1  0
  6  8  1  0
  7 13  1  0
  8  3  2  0
  9  2  2  0
 10  4  1  0
 11  4  1  0
 12 10  1  0
 13 11  1  0
 14  2  1  0
 15  3  1  0
 16  7  1  0
 17  8  1  0
 18  9  1  0
 19 15  2  0
 20 14  2  0
 21 19  1  0
 22 20  1  0
  7 12  1  0
  6  5  2  0
 21 17  2  0
 22 18  2  0
  5 23  1  0
  6 24  1  0
 10 25  1  0
 10 26  1  0
 11 27  1  0
 11 28  1  0
 12 29  1  0
 12 30  1  0
 13 31  1  0
 13 32  1  0
 14 33  1  0
 15 34  1  0
 16 35  1  0
 16 36  1  0
 16 37  1  0
 17 38  1  0
 18 39  1  0
 19 40  1  0
 20 41  1  0
 21 42  1  0
 22 43  1  0
M  END
> <Uni-Dock RESULT> 
ENERGY=   -4.023  LOWER_BOUND=    3.083  UPPER_BOUND=    5.659
INTER + INTRA:          -4.023
INTER:                  -4.023
INTRA:                   0.000
UNBOUND:                 0.000

$$$$
