
     RDKit          3D

 43 46  0  0  0  0  0  0  0  0999 V2000
   50.1618  -17.4921   -7.4609 C   0  0  0  0  0  0  0  0  0  0  0  0
   51.0909  -16.7187   -6.5979 C   0  0  0  0  0  0  0  0  0  0  0  0
   48.7180  -17.4630   -7.1142 C   0  0  0  0  0  0  0  0  0  0  0  0
   50.5978  -18.0910   -8.6016 C   0  0  0  0  0  0  0  0  0  0  0  0
   49.8995  -14.5546   -7.1818 C   0  0  0  0  0  0  0  0  0  0  0  0
   48.6430  -14.9488   -7.4552 C   0  0  0  0  0  0  0  0  0  0  0  0
   51.2840  -18.2888  -11.4713 N   0  0  0  0  0  0  0  0  0  0  0  0
   48.0187  -16.2393   -7.1028 C   0  0  0  0  0  0  0  0  0  0  0  0
   50.9379  -15.3236   -6.4678 C   0  0  0  0  0  0  0  0  0  0  0  0
   52.0378  -18.0795   -9.0987 C   0  0  0  0  0  0  0  0  0  0  0  0
   49.7065  -18.8108   -9.6059 C   0  0  0  0  0  0  0  0  0  0  0  0
   52.1357  -17.5349  -10.5341 C   0  0  0  0  0  0  0  0  0  0  0  0
   49.8803  -18.2424  -11.0247 C   0  0  0  0  0  0  0  0  0  0  0  0
   52.0866  -17.3845   -5.8641 C   0  0  0  0  0  0  0  0  0  0  0  0
   48.0614  -18.6470   -6.7396 C   0  0  0  0  0  0  0  0  0  0  0  0
   51.4090  -17.7492  -12.8242 C   0  0  0  0  0  0  0  0  0  0  0  0
   46.6527  -16.2435   -6.7794 C   0  0  0  0  0  0  0  0  0  0  0  0
   51.8361  -14.6177   -5.6520 C   0  0  0  0  0  0  0  0  0  0  0  0
   46.7078  -18.6303   -6.4058 C   0  0  0  0  0  0  0  0  0  0  0  0
   52.9601  -16.6691   -5.0459 C   0  0  0  0  0  0  0  0  0  0  0  0
   46.0024  -17.4305   -6.4328 C   0  0  0  0  0  0  0  0  0  0  0  0
   52.8393  -15.2859   -4.9458 C   0  0  0  0  0  0  0  0  0  0  0  0
   50.1990  -13.5547   -7.4888 H   0  0  0  0  0  0  0  0  0  0  0  0
   47.9888  -14.2479   -7.9695 H   0  0  0  0  0  0  0  0  0  0  0  0
   52.7032  -17.4774   -8.4750 H   0  0  0  0  0  0  0  0  0  0  0  0
   52.4255  -19.1061   -9.0661 H   0  0  0  0  0  0  0  0  0  0  0  0
   48.6439  -18.7508   -9.3579 H   0  0  0  0  0  0  0  0  0  0  0  0
   49.9671  -19.8772   -9.6008 H   0  0  0  0  0  0  0  0  0  0  0  0
   53.1824  -17.6101  -10.8539 H   0  0  0  0  0  0  0  0  0  0  0  0
   51.8702  -16.4688  -10.5386 H   0  0  0  0  0  0  0  0  0  0  0  0
   49.4962  -17.2135  -11.0549 H   0  0  0  0  0  0  0  0  0  0  0  0
   49.2624  -18.8398  -11.7064 H   0  0  0  0  0  0  0  0  0  0  0  0
   52.1835  -18.4654   -5.9341 H   0  0  0  0  0  0  0  0  0  0  0  0
   48.6076  -19.5870   -6.7119 H   0  0  0  0  0  0  0  0  0  0  0  0
   50.8043  -18.3325  -13.5277 H   0  0  0  0  0  0  0  0  0  0  0  0
   52.4462  -17.8174  -13.1705 H   0  0  0  0  0  0  0  0  0  0  0  0
   51.0934  -16.7012  -12.8851 H   0  0  0  0  0  0  0  0  0  0  0  0
   46.0854  -15.3155   -6.7775 H   0  0  0  0  0  0  0  0  0  0  0  0
   51.7501  -13.5386   -5.5453 H   0  0  0  0  0  0  0  0  0  0  0  0
   46.2063  -19.5522   -6.1240 H   0  0  0  0  0  0  0  0  0  0  0  0
   53.7318  -17.1916   -4.4871 H   0  0  0  0  0  0  0  0  0  0  0  0
   44.9467  -17.4145   -6.1740 H   0  0  0  0  0  0  0  0  0  0  0  0
   53.5194  -14.7255   -4.3095 H   0  0  0  0  0  0  0  0  0  0  0  0
  2  1  1  0
  3  1  1  0
  4  1  2  3
  5  9  1  0
  6  8  1  0
  7 13  1  0
  8  3  2  0
  9  2  2  0
 10  4  1  0
 11  4  1  0
 12 10  1  0
 13 11  1  0
 14  2  1  0
 15  3  1  0
 16  7  1  0
 17  8  1  0
 18  9  1  0
 19 15  2  0
 20 14  2  0
 21 19  1  0
 22 20  1  0
  7 12  1  0
  6  5  2  0
 21 17  2  0
 22 18  2  0
  5 23  1  0
  6 24  1  0
 10 25  1  0
 10 26  1  0
 11 27  1  0
 11 28  1  0
 12 29  1  0
 12 30  1  0
 13 31  1  0
 13 32  1  0
 14 33  1  0
 15 34  1  0
 16 35  1  0
 16 36  1  0
 16 37  1  0
 17 38  1  0
 18 39  1  0
 19 40  1  0
 20 41  1  0
 21 42  1  0
 22 43  1  0
M  END
> <Uni-Dock RESULT> 
ENERGY=   -6.137  LOWER_BOUND=    0.000  UPPER_BOUND=    0.000
INTER + INTRA:          -6.137
INTER:                  -6.137
INTRA:                   0.000
UNBOUND:                 0.000

$$$$

     RDKit          3D

 43 46  0  0  0  0  0  0  0  0999 V2000
   48.0877  -17.1520   -7.9606 C   0  0  0  0  0  0  0  0  0  0  0  0
   47.5204  -18.1550   -7.0234 C   0  0  0  0  0  0  0  0  0  0  0  0
   49.0972  -16.2043   -7.4235 C   0  0  0  0  0  0  0  0  0  0  0  0
   47.7958  -17.1884   -9.2885 C   0  0  0  0  0  0  0  0  0  0  0  0
   49.8205  -19.1567   -6.6359 C   0  0  0  0  0  0  0  0  0  0  0  0
   50.6554  -18.1237   -6.8478 C   0  0  0  0  0  0  0  0  0  0  0  0
   48.0995  -18.0128  -12.1123 N   0  0  0  0  0  0  0  0  0  0  0  0
   50.3057  -16.6898   -6.8846 C   0  0  0  0  0  0  0  0  0  0  0  0
   48.3659  -19.0896   -6.3925 C   0  0  0  0  0  0  0  0  0  0  0  0
   46.8609  -18.1930   -9.9501 C   0  0  0  0  0  0  0  0  0  0  0  0
   48.4100  -16.2765  -10.3432 C   0  0  0  0  0  0  0  0  0  0  0  0
   47.5564  -18.9384  -11.1021 C   0  0  0  0  0  0  0  0  0  0  0  0
   49.0550  -17.0844  -11.4823 C   0  0  0  0  0  0  0  0  0  0  0  0
   46.1492  -18.1355   -6.7193 C   0  0  0  0  0  0  0  0  0  0  0  0
   48.8238  -14.8267   -7.3978 C   0  0  0  0  0  0  0  0  0  0  0  0
   48.7444  -18.7559  -13.1935 C   0  0  0  0  0  0  0  0  0  0  0  0
   51.2447  -15.7701   -6.3919 C   0  0  0  0  0  0  0  0  0  0  0  0
   47.8005  -20.0311   -5.5181 C   0  0  0  0  0  0  0  0  0  0  0  0
   49.7616  -13.9286   -6.8898 C   0  0  0  0  0  0  0  0  0  0  0  0
   45.6071  -19.0682   -5.8359 C   0  0  0  0  0  0  0  0  0  0  0  0
   50.9741  -14.3995   -6.3940 C   0  0  0  0  0  0  0  0  0  0  0  0
   46.4311  -20.0198   -5.2415 C   0  0  0  0  0  0  0  0  0  0  0  0
   50.2438  -20.1586   -6.6126 H   0  0  0  0  0  0  0  0  0  0  0  0
   51.7124  -18.3418   -6.9851 H   0  0  0  0  0  0  0  0  0  0  0  0
   46.4794  -18.9466   -9.2568 H   0  0  0  0  0  0  0  0  0  0  0  0
   45.9859  -17.6531  -10.3349 H   0  0  0  0  0  0  0  0  0  0  0  0
   49.1767  -15.6096   -9.9411 H   0  0  0  0  0  0  0  0  0  0  0  0
   47.6194  -15.6321  -10.7493 H   0  0  0  0  0  0  0  0  0  0  0  0
   46.8171  -19.5975  -11.5738 H   0  0  0  0  0  0  0  0  0  0  0  0
   48.3504  -19.5794  -10.6950 H   0  0  0  0  0  0  0  0  0  0  0  0
   49.9278  -17.6278  -11.0951 H   0  0  0  0  0  0  0  0  0  0  0  0
   49.4217  -16.3751  -12.2346 H   0  0  0  0  0  0  0  0  0  0  0  0
   45.5006  -17.3919   -7.1766 H   0  0  0  0  0  0  0  0  0  0  0  0
   47.8767  -14.4524   -7.7793 H   0  0  0  0  0  0  0  0  0  0  0  0
   49.1158  -18.0696  -13.9628 H   0  0  0  0  0  0  0  0  0  0  0  0
   48.0249  -19.4194  -13.6859 H   0  0  0  0  0  0  0  0  0  0  0  0
   49.5852  -19.3625  -12.8378 H   0  0  0  0  0  0  0  0  0  0  0  0
   52.1917  -16.1165   -5.9841 H   0  0  0  0  0  0  0  0  0  0  0  0
   48.4276  -20.7732   -5.0291 H   0  0  0  0  0  0  0  0  0  0  0  0
   49.5445  -12.8638   -6.8804 H   0  0  0  0  0  0  0  0  0  0  0  0
   44.5439  -19.0501   -5.6118 H   0  0  0  0  0  0  0  0  0  0  0  0
   51.7075  -13.7016   -5.9983 H   0  0  0  0  0  0  0  0  0  0  0  0
   46.0111  -20.7487   -4.5532 H   0  0  0  0  0  0  0  0  0  0  0  0
  2  1  1  0
  3  1  1  0
  4  1  2  3
  5  9  1  0
  6  8  1  0
  7 13  1  0
  8  3  2  0
  9  2  2  0
 10  4  1  0
 11  4  1  0
 12 10  1  0
 13 11  1  0
 14  2  1  0
 15  3  1  0
 16  7  1  0
 17  8  1  0
 18  9  1  0
 19 15  2  0
 20 14  2  0
 21 19  1  0
 22 20  1  0
  7 12  1  0
  6  5  2  0
 21 17  2  0
 22 18  2  0
  5 23  1  0
  6 24  1  0
 10 25  1  0
 10 26  1  0
 11 27  1  0
 11 28  1  0
 12 29  1  0
 12 30  1  0
 13 31  1  0
 13 32  1  0
 14 33  1  0
 15 34  1  0
 16 35  1  0
 16 36  1  0
 16 37  1  0
 17 38  1  0
 18 39  1  0
 19 40  1  0
 20 41  1  0
 21 42  1  0
 22 43  1  0
M  END
> <Uni-Dock RESULT> 
ENERGY=   -5.200  LOWER_BOUND=    1.828  UPPER_BOUND=    4.682
INTER + INTRA:          -5.200
INTER:                  -5.200
INTRA:                   0.000
UNBOUND:                 0.000

$$$$

     RDKit          3D

 43 46  0  0  0  0  0  0  0  0999 V2000
   50.4523  -17.3657   -7.4012 C   0  0  0  0  0  0  0  0  0  0  0  0
   49.0149  -17.0320   -7.2321 C   0  0  0  0  0  0  0  0  0  0  0  0
   51.2178  -17.7404   -6.1849 C   0  0  0  0  0  0  0  0  0  0  0  0
   51.0108  -17.4571   -8.6379 C   0  0  0  0  0  0  0  0  0  0  0  0
   48.5340  -19.3622   -6.3477 C   0  0  0  0  0  0  0  0  0  0  0  0
   49.7006  -19.7373   -5.7931 C   0  0  0  0  0  0  0  0  0  0  0  0
   51.7949  -18.7651  -11.1717 N   0  0  0  0  0  0  0  0  0  0  0  0
   50.8329  -18.8641   -5.4261 C   0  0  0  0  0  0  0  0  0  0  0  0
   48.1228  -17.9926   -6.7145 C   0  0  0  0  0  0  0  0  0  0  0  0
   50.2773  -17.2023   -9.9486 C   0  0  0  0  0  0  0  0  0  0  0  0
   52.4416  -17.8983   -8.9198 C   0  0  0  0  0  0  0  0  0  0  0  0
   50.3917  -18.4034  -10.9029 C   0  0  0  0  0  0  0  0  0  0  0  0
   52.4854  -19.0767   -9.9076 C   0  0  0  0  0  0  0  0  0  0  0  0
   48.5538  -15.7395   -7.5324 C   0  0  0  0  0  0  0  0  0  0  0  0
   52.2904  -16.9412   -5.7560 C   0  0  0  0  0  0  0  0  0  0  0  0
   51.8640  -19.9030  -12.0869 C   0  0  0  0  0  0  0  0  0  0  0  0
   51.5803  -19.1991   -4.2861 C   0  0  0  0  0  0  0  0  0  0  0  0
   46.7684  -17.6517   -6.5737 C   0  0  0  0  0  0  0  0  0  0  0  0
   53.0119  -17.2799   -4.6119 C   0  0  0  0  0  0  0  0  0  0  0  0
   47.2077  -15.4134   -7.3713 C   0  0  0  0  0  0  0  0  0  0  0  0
   52.6615  -18.4120   -3.8818 C   0  0  0  0  0  0  0  0  0  0  0  0
   46.3146  -16.3710   -6.8992 C   0  0  0  0  0  0  0  0  0  0  0  0
   47.7865  -20.1307   -6.5330 H   0  0  0  0  0  0  0  0  0  0  0  0
   49.8383  -20.7905   -5.5575 H   0  0  0  0  0  0  0  0  0  0  0  0
   49.2133  -16.9936   -9.8123 H   0  0  0  0  0  0  0  0  0  0  0  0
   50.7106  -16.3118  -10.4225 H   0  0  0  0  0  0  0  0  0  0  0  0
   52.9817  -18.2054   -8.0208 H   0  0  0  0  0  0  0  0  0  0  0  0
   52.9928  -17.0456   -9.3375 H   0  0  0  0  0  0  0  0  0  0  0  0
   49.8990  -18.1347  -11.8456 H   0  0  0  0  0  0  0  0  0  0  0  0
   49.8435  -19.2574  -10.4817 H   0  0  0  0  0  0  0  0  0  0  0  0
   52.0474  -19.9660   -9.4339 H   0  0  0  0  0  0  0  0  0  0  0  0
   53.5381  -19.3048  -10.1155 H   0  0  0  0  0  0  0  0  0  0  0  0
   49.2470  -14.9852   -7.8973 H   0  0  0  0  0  0  0  0  0  0  0  0
   52.5666  -16.0528   -6.3190 H   0  0  0  0  0  0  0  0  0  0  0  0
   52.9070  -20.1488  -12.3158 H   0  0  0  0  0  0  0  0  0  0  0  0
   51.3827  -19.6587  -13.0404 H   0  0  0  0  0  0  0  0  0  0  0  0
   51.3813  -20.7973  -11.6763 H   0  0  0  0  0  0  0  0  0  0  0  0
   51.3144  -20.0696   -3.6907 H   0  0  0  0  0  0  0  0  0  0  0  0
   46.0556  -18.3785   -6.1907 H   0  0  0  0  0  0  0  0  0  0  0  0
   53.8447  -16.6597   -4.2914 H   0  0  0  0  0  0  0  0  0  0  0  0
   46.8585  -14.4130   -7.6127 H   0  0  0  0  0  0  0  0  0  0  0  0
   53.2228  -18.6791   -2.9900 H   0  0  0  0  0  0  0  0  0  0  0  0
   45.2645  -16.1200   -6.7735 H   0  0  0  0  0  0  0  0  0  0  0  0
  2  1  1  0
  3  1  1  0
  4  1  2  3
  5  9  1  0
  6  8  1  0
  7 13  1  0
  8  3  2  0
  9  2  2  0
 10  4  1  0
 11  4  1  0
 12 10  1  0
 13 11  1  0
 14  2  1  0
 15  3  1  0
 16  7  1  0
 17  8  1  0
 18  9  1  0
 19 15  2  0
 20 14  2  0
 21 19  1  0
 22 20  1  0
  7 12  1  0
  6  5  2  0
 21 17  2  0
 22 18  2  0
  5 23  1  0
  6 24  1  0
 10 25  1  0
 10 26  1  0
 11 27  1  0
 11 28  1  0
 12 29  1  0
 12 30  1  0
 13 31  1  0
 13 32  1  0
 14 33  1  0
 15 34  1  0
 16 35  1  0
 16 36  1  0
 16 37  1  0
 17 38  1  0
 18 39  1  0
 19 40  1  0
 20 41  1  0
 21 42  1  0
 22 43  1  0
M  END
> <Uni-Dock RESULT> 
ENERGY=   -5.146  LOWER_BOUND=    1.294  UPPER_BOUND=    4.415
INTER + INTRA:          -5.146
INTER:                  -5.146
INTRA:                   0.000
UNBOUND:                 0.000

$$$$

     RDKit          3D

 43 46  0  0  0  0  0  0  0  0999 V2000
   46.8827  -15.9850  -10.6067 C   0  0  0  0  0  0  0  0  0  0  0  0
   45.6604  -15.7048  -11.4026 C   0  0  0  0  0  0  0  0  0  0  0  0
   46.7046  -16.3253   -9.1720 C   0  0  0  0  0  0  0  0  0  0  0  0
   48.1043  -16.0609  -11.1996 C   0  0  0  0  0  0  0  0  0  0  0  0
   44.7865  -18.0475  -10.9648 C   0  0  0  0  0  0  0  0  0  0  0  0
   45.3395  -18.3760   -9.7835 C   0  0  0  0  0  0  0  0  0  0  0  0
   50.3593  -17.3499  -12.6136 N   0  0  0  0  0  0  0  0  0  0  0  0
   45.9534  -17.4592   -8.8027 C   0  0  0  0  0  0  0  0  0  0  0  0
   44.6688  -16.6959  -11.5470 C   0  0  0  0  0  0  0  0  0  0  0  0
   48.3704  -15.8396  -12.6833 C   0  0  0  0  0  0  0  0  0  0  0  0
   49.3963  -16.4492  -10.4917 C   0  0  0  0  0  0  0  0  0  0  0  0
   49.0989  -17.0399  -13.3118 C   0  0  0  0  0  0  0  0  0  0  0  0
   50.0914  -17.6295  -11.1917 C   0  0  0  0  0  0  0  0  0  0  0  0
   45.4637  -14.4320  -11.9634 C   0  0  0  0  0  0  0  0  0  0  0  0
   47.2350  -15.4843   -8.1795 C   0  0  0  0  0  0  0  0  0  0  0  0
   51.0265  -18.4884  -13.2426 C   0  0  0  0  0  0  0  0  0  0  0  0
   45.8091  -17.7607   -7.4394 C   0  0  0  0  0  0  0  0  0  0  0  0
   43.5282  -16.4055  -12.3120 C   0  0  0  0  0  0  0  0  0  0  0  0
   47.0683  -15.7905   -6.8295 C   0  0  0  0  0  0  0  0  0  0  0  0
   44.3170  -14.1559  -12.7070 C   0  0  0  0  0  0  0  0  0  0  0  0
   46.3621  -16.9318   -6.4600 C   0  0  0  0  0  0  0  0  0  0  0  0
   43.3536  -15.1443  -12.8872 C   0  0  0  0  0  0  0  0  0  0  0  0
   44.3499  -18.8444  -11.5632 H   0  0  0  0  0  0  0  0  0  0  0  0
   45.3224  -19.4222   -9.4855 H   0  0  0  0  0  0  0  0  0  0  0  0
   47.4594  -15.6706  -13.2629 H   0  0  0  0  0  0  0  0  0  0  0  0
   48.9830  -14.9356  -12.7960 H   0  0  0  0  0  0  0  0  0  0  0  0
   49.2458  -16.7318   -9.4469 H   0  0  0  0  0  0  0  0  0  0  0  0
   50.0647  -15.5783  -10.4850 H   0  0  0  0  0  0  0  0  0  0  0  0
   49.3148  -16.7941  -14.3589 H   0  0  0  0  0  0  0  0  0  0  0  0
   48.4306  -17.9120  -13.3139 H   0  0  0  0  0  0  0  0  0  0  0  0
   49.4753  -18.5325  -11.0821 H   0  0  0  0  0  0  0  0  0  0  0  0
   51.0398  -17.8189  -10.6739 H   0  0  0  0  0  0  0  0  0  0  0  0
   46.2103  -13.6538  -11.8227 H   0  0  0  0  0  0  0  0  0  0  0  0
   47.7838  -14.5887   -8.4610 H   0  0  0  0  0  0  0  0  0  0  0  0
   51.9813  -18.6959  -12.7467 H   0  0  0  0  0  0  0  0  0  0  0  0
   51.2588  -18.2666  -14.2902 H   0  0  0  0  0  0  0  0  0  0  0  0
   50.4163  -19.3984  -13.2100 H   0  0  0  0  0  0  0  0  0  0  0  0
   45.2471  -18.6379   -7.1269 H   0  0  0  0  0  0  0  0  0  0  0  0
   42.7543  -17.1569  -12.4520 H   0  0  0  0  0  0  0  0  0  0  0  0
   47.4880  -15.1381   -6.0686 H   0  0  0  0  0  0  0  0  0  0  0  0
   44.1764  -13.1705  -13.1430 H   0  0  0  0  0  0  0  0  0  0  0  0
   46.2314  -17.1736   -5.4084 H   0  0  0  0  0  0  0  0  0  0  0  0
   42.4591  -14.9323  -13.4672 H   0  0  0  0  0  0  0  0  0  0  0  0
  2  1  1  0
  3  1  1  0
  4  1  2  3
  5  9  1  0
  6  8  1  0
  7 13  1  0
  8  3  2  0
  9  2  2  0
 10  4  1  0
 11  4  1  0
 12 10  1  0
 13 11  1  0
 14  2  1  0
 15  3  1  0
 16  7  1  0
 17  8  1  0
 18  9  1  0
 19 15  2  0
 20 14  2  0
 21 19  1  0
 22 20  1  0
  7 12  1  0
  6  5  2  0
 21 17  2  0
 22 18  2  0
  5 23  1  0
  6 24  1  0
 10 25  1  0
 10 26  1  0
 11 27  1  0
 11 28  1  0
 12 29  1  0
 12 30  1  0
 13 31  1  0
 13 32  1  0
 14 33  1  0
 15 34  1  0
 16 35  1  0
 16 36  1  0
 16 37  1  0
 17 38  1  0
 18 39  1  0
 19 40  1  0
 20 41  1  0
 21 42  1  0
 22 43  1  0
M  END
> <Uni-Dock RESULT> 
ENERGY=   -4.977  LOWER_BOUND=    3.766  UPPER_BOUND=    6.190
INTER + INTRA:          -4.977
INTER:                  -4.977
INTRA:                   0.000
UNBOUND:                 0.000

$$$$

     RDKit          3D

 43 46  0  0  0  0  0  0  0  0999 V2000
   48.7886  -16.5170   -8.6695 C   0  0  0  0  0  0  0  0  0  0  0  0
   49.7825  -16.0058   -7.6912 C   0  0  0  0  0  0  0  0  0  0  0  0
   49.2902  -16.9325  -10.0043 C   0  0  0  0  0  0  0  0  0  0  0  0
   47.4933  -16.7246   -8.3107 C   0  0  0  0  0  0  0  0  0  0  0  0
   51.0167  -18.2237   -7.7215 C   0  0  0  0  0  0  0  0  0  0  0  0
   50.7560  -18.7144   -8.9464 C   0  0  0  0  0  0  0  0  0  0  0  0
   45.1848  -18.2179   -7.2214 N   0  0  0  0  0  0  0  0  0  0  0  0
   50.2379  -17.9702  -10.1114 C   0  0  0  0  0  0  0  0  0  0  0  0
   50.8434  -16.8302   -7.2657 C   0  0  0  0  0  0  0  0  0  0  0  0
   46.9116  -16.4356   -6.9326 C   0  0  0  0  0  0  0  0  0  0  0  0
   46.4280  -17.3460   -9.2052 C   0  0  0  0  0  0  0  0  0  0  0  0
   46.2313  -17.6790   -6.3345 C   0  0  0  0  0  0  0  0  0  0  0  0
   45.7635  -18.5597   -8.5330 C   0  0  0  0  0  0  0  0  0  0  0  0
   49.7002  -14.6802   -7.2338 C   0  0  0  0  0  0  0  0  0  0  0  0
   48.8652  -16.2520  -11.1574 C   0  0  0  0  0  0  0  0  0  0  0  0
   44.5562  -19.3915   -6.6175 C   0  0  0  0  0  0  0  0  0  0  0  0
   50.6875  -18.3471  -11.3866 C   0  0  0  0  0  0  0  0  0  0  0  0
   51.7627  -16.3230   -6.3340 C   0  0  0  0  0  0  0  0  0  0  0  0
   49.3346  -16.6292  -12.4150 C   0  0  0  0  0  0  0  0  0  0  0  0
   50.6315  -14.1878   -6.3204 C   0  0  0  0  0  0  0  0  0  0  0  0
   50.2395  -17.6807  -12.5299 C   0  0  0  0  0  0  0  0  0  0  0  0
   51.6576  -15.0110   -5.8654 C   0  0  0  0  0  0  0  0  0  0  0  0
   51.4234  -18.9032   -6.9754 H   0  0  0  0  0  0  0  0  0  0  0  0
   50.9650  -19.7662   -9.1299 H   0  0  0  0  0  0  0  0  0  0  0  0
   47.6600  -16.0949   -6.2129 H   0  0  0  0  0  0  0  0  0  0  0  0
   46.1789  -15.6236   -7.0274 H   0  0  0  0  0  0  0  0  0  0  0  0
   46.8179  -17.6799  -10.1699 H   0  0  0  0  0  0  0  0  0  0  0  0
   45.6690  -16.5835   -9.4238 H   0  0  0  0  0  0  0  0  0  0  0  0
   45.7820  -17.3907   -5.3761 H   0  0  0  0  0  0  0  0  0  0  0  0
   46.9913  -18.4430   -6.1204 H   0  0  0  0  0  0  0  0  0  0  0  0
   46.4989  -19.3699   -8.4346 H   0  0  0  0  0  0  0  0  0  0  0  0
   44.9689  -18.9213   -9.1973 H   0  0  0  0  0  0  0  0  0  0  0  0
   48.9037  -14.0302   -7.5887 H   0  0  0  0  0  0  0  0  0  0  0  0
   48.1620  -15.4266  -11.0745 H   0  0  0  0  0  0  0  0  0  0  0  0
   43.7534  -19.7703   -7.2598 H   0  0  0  0  0  0  0  0  0  0  0  0
   44.0940  -19.1292   -5.6593 H   0  0  0  0  0  0  0  0  0  0  0  0
   45.2714  -20.2039   -6.4443 H   0  0  0  0  0  0  0  0  0  0  0  0
   51.4074  -19.1546  -11.4992 H   0  0  0  0  0  0  0  0  0  0  0  0
   52.5825  -16.9426   -5.9774 H   0  0  0  0  0  0  0  0  0  0  0  0
   48.9950  -16.1018  -13.3023 H   0  0  0  0  0  0  0  0  0  0  0  0
   50.5560  -13.1631   -5.9666 H   0  0  0  0  0  0  0  0  0  0  0  0
   50.6064  -17.9777  -13.5091 H   0  0  0  0  0  0  0  0  0  0  0  0
   52.3845  -14.6302   -5.1526 H   0  0  0  0  0  0  0  0  0  0  0  0
  2  1  1  0
  3  1  1  0
  4  1  2  3
  5  9  1  0
  6  8  1  0
  7 13  1  0
  8  3  2  0
  9  2  2  0
 10  4  1  0
 11  4  1  0
 12 10  1  0
 13 11  1  0
 14  2  1  0
 15  3  1  0
 16  7  1  0
 17  8  1  0
 18  9  1  0
 19 15  2  0
 20 14  2  0
 21 19  1  0
 22 20  1  0
  7 12  1  0
  6  5  2  0
 21 17  2  0
 22 18  2  0
  5 23  1  0
  6 24  1  0
 10 25  1  0
 10 26  1  0
 11 27  1  0
 11 28  1  0
 12 29  1  0
 12 30  1  0
 13 31  1  0
 13 32  1  0
 14 33  1  0
 15 34  1  0
 16 35  1  0
 16 36  1  0
 16 37  1  0
 17 38  1  0
 18 39  1  0
 19 40  1  0
 20 41  1  0
 21 42  1  0
 22 43  1  0
M  END
> <Uni-Dock RESULT> 
ENERGY=   -4.631  LOWER_BOUND=    2.147  UPPER_BOUND=    5.017
INTER + INTRA:          -4.631
INTER:                  -4.631
INTRA:                   0.000
UNBOUND:                 0.000

$$$$

     RDKit          3D

 43 46  0  0  0  0  0  0  0  0999 V2000
   50.9673  -17.9754   -6.7838 C   0  0  0  0  0  0  0  0  0  0  0  0
   51.0945  -18.5740   -5.4304 C   0  0  0  0  0  0  0  0  0  0  0  0
   50.5597  -16.5497   -6.8684 C   0  0  0  0  0  0  0  0  0  0  0  0
   51.3413  -18.6655   -7.8945 C   0  0  0  0  0  0  0  0  0  0  0  0
   52.9107  -16.9095   -4.8183 C   0  0  0  0  0  0  0  0  0  0  0  0
   52.6274  -15.8376   -5.5798 C   0  0  0  0  0  0  0  0  0  0  0  0
   53.1897  -19.6575   -9.9789 N   0  0  0  0  0  0  0  0  0  0  0  0
   51.3570  -15.5505   -6.2748 C   0  0  0  0  0  0  0  0  0  0  0  0
   52.0151  -18.0408   -4.5059 C   0  0  0  0  0  0  0  0  0  0  0  0
   51.8779  -20.0913   -7.8975 C   0  0  0  0  0  0  0  0  0  0  0  0
   51.3524  -18.1025   -9.3102 C   0  0  0  0  0  0  0  0  0  0  0  0
   53.2426  -20.1799   -8.6018 C   0  0  0  0  0  0  0  0  0  0  0  0
   52.7342  -18.2559   -9.9684 C   0  0  0  0  0  0  0  0  0  0  0  0
   50.2559  -19.6347   -5.0499 C   0  0  0  0  0  0  0  0  0  0  0  0
   49.3486  -16.2009   -7.4888 C   0  0  0  0  0  0  0  0  0  0  0  0
   54.5000  -19.7653  -10.6182 C   0  0  0  0  0  0  0  0  0  0  0  0
   50.9510  -14.2107   -6.3780 C   0  0  0  0  0  0  0  0  0  0  0  0
   52.1195  -18.6325   -3.2372 C   0  0  0  0  0  0  0  0  0  0  0  0
   48.9528  -14.8663   -7.5681 C   0  0  0  0  0  0  0  0  0  0  0  0
   50.3622  -20.2000   -3.7797 C   0  0  0  0  0  0  0  0  0  0  0  0
   49.7572  -13.8715   -7.0194 C   0  0  0  0  0  0  0  0  0  0  0  0
   51.2984  -19.7039   -2.8768 C   0  0  0  0  0  0  0  0  0  0  0  0
   53.8920  -16.9587   -4.3510 H   0  0  0  0  0  0  0  0  0  0  0  0
   53.3937  -15.0733   -5.6902 H   0  0  0  0  0  0  0  0  0  0  0  0
   52.0007  -20.5065   -6.8941 H   0  0  0  0  0  0  0  0  0  0  0  0
   51.1536  -20.7347   -8.4138 H   0  0  0  0  0  0  0  0  0  0  0  0
   51.0856  -17.0437   -9.3538 H   0  0  0  0  0  0  0  0  0  0  0  0
   50.5993  -18.6375   -9.9034 H   0  0  0  0  0  0  0  0  0  0  0  0
   53.5436  -21.2346   -8.6249 H   0  0  0  0  0  0  0  0  0  0  0  0
   53.9945  -19.6403   -8.0096 H   0  0  0  0  0  0  0  0  0  0  0  0
   53.4592  -17.6151   -9.4481 H   0  0  0  0  0  0  0  0  0  0  0  0
   52.6599  -17.8906  -11.0002 H   0  0  0  0  0  0  0  0  0  0  0  0
   49.5193  -20.0241   -5.7487 H   0  0  0  0  0  0  0  0  0  0  0  0
   48.7132  -16.9735   -7.9154 H   0  0  0  0  0  0  0  0  0  0  0  0
   54.4522  -19.4111  -11.6540 H   0  0  0  0  0  0  0  0  0  0  0  0
   54.8223  -20.8117  -10.6591 H   0  0  0  0  0  0  0  0  0  0  0  0
   55.2688  -19.1881  -10.0917 H   0  0  0  0  0  0  0  0  0  0  0  0
   51.5550  -13.4182   -5.9420 H   0  0  0  0  0  0  0  0  0  0  0  0
   52.8320  -18.2506   -2.5095 H   0  0  0  0  0  0  0  0  0  0  0  0
   48.0177  -14.6050   -8.0562 H   0  0  0  0  0  0  0  0  0  0  0  0
   49.7142  -21.0249   -3.4962 H   0  0  0  0  0  0  0  0  0  0  0  0
   49.4517  -12.8300   -7.0807 H   0  0  0  0  0  0  0  0  0  0  0  0
   51.3842  -20.1432   -1.8863 H   0  0  0  0  0  0  0  0  0  0  0  0
  2  1  1  0
  3  1  1  0
  4  1  2  3
  5  9  1  0
  6  8  1  0
  7 13  1  0
  8  3  2  0
  9  2  2  0
 10  4  1  0
 11  4  1  0
 12 10  1  0
 13 11  1  0
 14  2  1  0
 15  3  1  0
 16  7  1  0
 17  8  1  0
 18  9  1  0
 19 15  2  0
 20 14  2  0
 21 19  1  0
 22 20  1  0
  7 12  1  0
  6  5  2  0
 21 17  2  0
 22 18  2  0
  5 23  1  0
  6 24  1  0
 10 25  1  0
 10 26  1  0
 11 27  1  0
 11 28  1  0
 12 29  1  0
 12 30  1  0
 13 31  1  0
 13 32  1  0
 14 33  1  0
 15 34  1  0
 16 35  1  0
 16 36  1  0
 16 37  1  0
 17 38  1  0
 18 39  1  0
 19 40  1  0
 20 41  1  0
 21 42  1  0
 22 43  1  0
M  END
> <Uni-Dock RESULT> 
ENERGY=   -4.593  LOWER_BOUND=    2.036  UPPER_BOUND=    3.630
INTER + INTRA:          -4.593
INTER:                  -4.593
INTRA:                   0.000
UNBOUND:                 0.000

$$$$

     RDKit          3D

 43 46  0  0  0  0  0  0  0  0999 V2000
   50.4579  -17.3865   -8.0673 C   0  0  0  0  0  0  0  0  0  0  0  0
   50.4802  -18.1919   -9.3151 C   0  0  0  0  0  0  0  0  0  0  0  0
   49.1312  -16.9948   -7.5266 C   0  0  0  0  0  0  0  0  0  0  0  0
   51.6005  -17.1347   -7.3740 C   0  0  0  0  0  0  0  0  0  0  0  0
   49.1982  -20.0655   -8.1794 C   0  0  0  0  0  0  0  0  0  0  0  0
   48.4838  -19.4315   -7.2323 C   0  0  0  0  0  0  0  0  0  0  0  0
   53.7515  -17.6453   -5.4097 N   0  0  0  0  0  0  0  0  0  0  0  0
   48.2014  -17.9848   -7.1500 C   0  0  0  0  0  0  0  0  0  0  0  0
   49.8610  -19.4575   -9.3502 C   0  0  0  0  0  0  0  0  0  0  0  0
   52.9931  -17.5920   -7.7895 C   0  0  0  0  0  0  0  0  0  0  0  0
   51.6678  -16.4159   -6.0324 C   0  0  0  0  0  0  0  0  0  0  0  0
   53.6790  -18.3992   -6.6740 C   0  0  0  0  0  0  0  0  0  0  0  0
   52.3969  -17.2614   -4.9742 C   0  0  0  0  0  0  0  0  0  0  0  0
   51.0670  -17.6680  -10.4789 C   0  0  0  0  0  0  0  0  0  0  0  0
   48.7788  -15.6374   -7.4453 C   0  0  0  0  0  0  0  0  0  0  0  0
   54.4155  -18.4393   -4.3773 C   0  0  0  0  0  0  0  0  0  0  0  0
   46.9586  -17.5848   -6.6343 C   0  0  0  0  0  0  0  0  0  0  0  0
   49.9053  -20.1997  -10.5408 C   0  0  0  0  0  0  0  0  0  0  0  0
   47.5335  -15.2585   -6.9455 C   0  0  0  0  0  0  0  0  0  0  0  0
   51.0879  -18.4126  -11.6576 C   0  0  0  0  0  0  0  0  0  0  0  0
   46.6271  -16.2313   -6.5336 C   0  0  0  0  0  0  0  0  0  0  0  0
   50.5139  -19.6805  -11.6862 C   0  0  0  0  0  0  0  0  0  0  0  0
   49.2912  -21.1472   -8.1100 H   0  0  0  0  0  0  0  0  0  0  0  0
   48.0347  -20.0322   -6.4443 H   0  0  0  0  0  0  0  0  0  0  0  0
   52.9912  -18.2135   -8.6884 H   0  0  0  0  0  0  0  0  0  0  0  0
   53.5946  -16.7046   -8.0263 H   0  0  0  0  0  0  0  0  0  0  0  0
   50.6835  -16.1655   -5.6290 H   0  0  0  0  0  0  0  0  0  0  0  0
   52.1970  -15.4644   -6.1736 H   0  0  0  0  0  0  0  0  0  0  0  0
   54.6944  -18.6444   -7.0092 H   0  0  0  0  0  0  0  0  0  0  0  0
   53.1458  -19.3491   -6.5305 H   0  0  0  0  0  0  0  0  0  0  0  0
   51.7962  -18.1513   -4.7414 H   0  0  0  0  0  0  0  0  0  0  0  0
   52.4659  -16.6667   -4.0549 H   0  0  0  0  0  0  0  0  0  0  0  0
   51.5133  -16.6764  -10.4647 H   0  0  0  0  0  0  0  0  0  0  0  0
   49.4803  -14.8724   -7.7696 H   0  0  0  0  0  0  0  0  0  0  0  0
   54.5023  -17.8653   -3.4480 H   0  0  0  0  0  0  0  0  0  0  0  0
   55.4357  -18.6937   -4.6855 H   0  0  0  0  0  0  0  0  0  0  0  0
   53.8792  -19.3699   -4.1588 H   0  0  0  0  0  0  0  0  0  0  0  0
   46.2282  -18.3277   -6.3221 H   0  0  0  0  0  0  0  0  0  0  0  0
   49.4485  -21.1855  -10.5914 H   0  0  0  0  0  0  0  0  0  0  0  0
   47.2720  -14.2058   -6.8795 H   0  0  0  0  0  0  0  0  0  0  0  0
   51.5503  -18.0023  -12.5513 H   0  0  0  0  0  0  0  0  0  0  0  0
   45.6559  -15.9388   -6.1425 H   0  0  0  0  0  0  0  0  0  0  0  0
   50.5295  -20.2637  -12.6034 H   0  0  0  0  0  0  0  0  0  0  0  0
  2  1  1  0
  3  1  1  0
  4  1  2  3
  5  9  1  0
  6  8  1  0
  7 13  1  0
  8  3  2  0
  9  2  2  0
 10  4  1  0
 11  4  1  0
 12 10  1  0
 13 11  1  0
 14  2  1  0
 15  3  1  0
 16  7  1  0
 17  8  1  0
 18  9  1  0
 19 15  2  0
 20 14  2  0
 21 19  1  0
 22 20  1  0
  7 12  1  0
  6  5  2  0
 21 17  2  0
 22 18  2  0
  5 23  1  0
  6 24  1  0
 10 25  1  0
 10 26  1  0
 11 27  1  0
 11 28  1  0
 12 29  1  0
 12 30  1  0
 13 31  1  0
 13 32  1  0
 14 33  1  0
 15 34  1  0
 16 35  1  0
 16 36  1  0
 16 37  1  0
 17 38  1  0
 18 39  1  0
 19 40  1  0
 20 41  1  0
 21 42  1  0
 22 43  1  0
M  END
> <Uni-Dock RESULT> 
ENERGY=   -4.335  LOWER_BOUND=    1.878  UPPER_BOUND=    4.932
INTER + INTRA:          -4.335
INTER:                  -4.335
INTRA:                   0.000
UNBOUND:                 0.000

$$$$

     RDKit          3D

 43 46  0  0  0  0  0  0  0  0999 V2000
   46.1037  -18.3290  -10.2134 C   0  0  0  0  0  0  0  0  0  0  0  0
   46.2756  -17.6274   -8.9156 C   0  0  0  0  0  0  0  0  0  0  0  0
   44.9851  -17.8921  -11.0872 C   0  0  0  0  0  0  0  0  0  0  0  0
   47.0159  -19.2413  -10.6442 C   0  0  0  0  0  0  0  0  0  0  0  0
   46.6579  -15.4207  -10.1107 C   0  0  0  0  0  0  0  0  0  0  0  0
   45.9745  -15.5610  -11.2606 C   0  0  0  0  0  0  0  0  0  0  0  0
   49.4708  -20.1988  -11.9866 N   0  0  0  0  0  0  0  0  0  0  0  0
   44.9356  -16.5658  -11.5615 C   0  0  0  0  0  0  0  0  0  0  0  0
   46.5234  -16.2401   -8.8900 C   0  0  0  0  0  0  0  0  0  0  0  0
   48.2550  -19.6708   -9.8690 C   0  0  0  0  0  0  0  0  0  0  0  0
   46.9871  -19.9308  -12.0025 C   0  0  0  0  0  0  0  0  0  0  0  0
   49.5354  -19.4819  -10.7005 C   0  0  0  0  0  0  0  0  0  0  0  0
   48.3087  -19.7335  -12.7644 C   0  0  0  0  0  0  0  0  0  0  0  0
   46.1329  -18.3346   -7.7103 C   0  0  0  0  0  0  0  0  0  0  0  0
   43.9437  -18.7836  -11.3938 C   0  0  0  0  0  0  0  0  0  0  0  0
   50.7057  -20.0034  -12.7443 C   0  0  0  0  0  0  0  0  0  0  0  0
   43.8709  -16.1836  -12.3925 C   0  0  0  0  0  0  0  0  0  0  0  0
   46.6900  -15.6053   -7.6491 C   0  0  0  0  0  0  0  0  0  0  0  0
   42.8853  -18.3821  -12.2079 C   0  0  0  0  0  0  0  0  0  0  0  0
   46.2858  -17.6847   -6.4862 C   0  0  0  0  0  0  0  0  0  0  0  0
   42.8528  -17.0852  -12.7126 C   0  0  0  0  0  0  0  0  0  0  0  0
   46.5713  -16.3226   -6.4560 C   0  0  0  0  0  0  0  0  0  0  0  0
   47.3762  -14.6066  -10.0398 H   0  0  0  0  0  0  0  0  0  0  0  0
   46.1741  -14.8531  -12.0624 H   0  0  0  0  0  0  0  0  0  0  0  0
   48.3890  -19.1213   -8.9338 H   0  0  0  0  0  0  0  0  0  0  0  0
   48.1452  -20.7282   -9.5953 H   0  0  0  0  0  0  0  0  0  0  0  0
   46.1812  -19.5742  -12.6486 H   0  0  0  0  0  0  0  0  0  0  0  0
   46.8081  -21.0025  -11.8450 H   0  0  0  0  0  0  0  0  0  0  0  0
   50.3795  -19.8645  -10.1135 H   0  0  0  0  0  0  0  0  0  0  0  0
   49.7109  -18.4093  -10.8613 H   0  0  0  0  0  0  0  0  0  0  0  0
   48.4197  -18.6742  -13.0338 H   0  0  0  0  0  0  0  0  0  0  0  0
   48.2475  -20.3019  -13.7008 H   0  0  0  0  0  0  0  0  0  0  0  0
   45.9053  -19.3979   -7.7267 H   0  0  0  0  0  0  0  0  0  0  0  0
   43.9604  -19.7968  -10.9991 H   0  0  0  0  0  0  0  0  0  0  0  0
   50.6727  -20.5660  -13.6840 H   0  0  0  0  0  0  0  0  0  0  0  0
   51.5657  -20.3828  -12.1814 H   0  0  0  0  0  0  0  0  0  0  0  0
   50.8865  -18.9484  -12.9805 H   0  0  0  0  0  0  0  0  0  0  0  0
   43.8159  -15.1706  -12.7847 H   0  0  0  0  0  0  0  0  0  0  0  0
   46.8968  -14.5386   -7.6007 H   0  0  0  0  0  0  0  0  0  0  0  0
   42.0875  -19.0806  -12.4456 H   0  0  0  0  0  0  0  0  0  0  0  0
   46.1805  -18.2411   -5.5588 H   0  0  0  0  0  0  0  0  0  0  0  0
   42.0295  -16.7697  -13.3484 H   0  0  0  0  0  0  0  0  0  0  0  0
   46.6920  -15.8134   -5.5033 H   0  0  0  0  0  0  0  0  0  0  0  0
  2  1  1  0
  3  1  1  0
  4  1  2  3
  5  9  1  0
  6  8  1  0
  7 13  1  0
  8  3  2  0
  9  2  2  0
 10  4  1  0
 11  4  1  0
 12 10  1  0
 13 11  1  0
 14  2  1  0
 15  3  1  0
 16  7  1  0
 17  8  1  0
 18  9  1  0
 19 15  2  0
 20 14  2  0
 21 19  1  0
 22 20  1  0
  7 12  1  0
  6  5  2  0
 21 17  2  0
 22 18  2  0
  5 23  1  0
  6 24  1  0
 10 25  1  0
 10 26  1  0
 11 27  1  0
 11 28  1  0
 12 29  1  0
 12 30  1  0
 13 31  1  0
 13 32  1  0
 14 33  1  0
 15 34  1  0
 16 35  1  0
 16 36  1  0
 16 37  1  0
 17 38  1  0
 18 39  1  0
 19 40  1  0
 20 41  1  0
 21 42  1  0
 22 43  1  0
M  END
> <Uni-Dock RESULT> 
ENERGY=   -4.177  LOWER_BOUND=    3.802  UPPER_BOUND=    5.222
INTER + INTRA:          -4.177
INTER:                  -4.177
INTRA:                   0.000
UNBOUND:                 0.000

$$$$
