
     RDKit          3D

 43 46  0  0  0  0  0  0  0  0999 V2000
   50.2188  -17.3414   -7.4816 C   0  0  0  0  0  0  0  0  0  0  0  0
   48.7729  -17.2247   -7.1607 C   0  0  0  0  0  0  0  0  0  0  0  0
   51.1856  -16.6886   -6.5617 C   0  0  0  0  0  0  0  0  0  0  0  0
   50.6405  -17.8850   -8.6557 C   0  0  0  0  0  0  0  0  0  0  0  0
   48.8915  -14.6971   -7.3634 C   0  0  0  0  0  0  0  0  0  0  0  0
   50.1649  -14.4130   -7.0365 C   0  0  0  0  0  0  0  0  0  0  0  0
   51.5479  -18.8935  -11.3722 N   0  0  0  0  0  0  0  0  0  0  0  0
   51.1290  -15.2960   -6.3500 C   0  0  0  0  0  0  0  0  0  0  0  0
   48.1652  -15.9547   -7.0994 C   0  0  0  0  0  0  0  0  0  0  0  0
   52.0984  -17.8969   -9.1074 C   0  0  0  0  0  0  0  0  0  0  0  0
   49.7089  -18.4723   -9.7111 C   0  0  0  0  0  0  0  0  0  0  0  0
   52.2260  -17.8116  -10.6380 C   0  0  0  0  0  0  0  0  0  0  0  0
   50.4379  -19.4877  -10.6075 C   0  0  0  0  0  0  0  0  0  0  0  0
   48.0246  -18.3703   -6.8452 C   0  0  0  0  0  0  0  0  0  0  0  0
   52.1299  -17.4647   -5.8699 C   0  0  0  0  0  0  0  0  0  0  0  0
   52.4816  -19.9259  -11.8129 C   0  0  0  0  0  0  0  0  0  0  0  0
   52.0639  -14.7053   -5.4856 C   0  0  0  0  0  0  0  0  0  0  0  0
   46.7957  -15.8717   -6.8013 C   0  0  0  0  0  0  0  0  0  0  0  0
   53.0409  -16.8624   -5.0032 C   0  0  0  0  0  0  0  0  0  0  0  0
   46.6688  -18.2688   -6.5347 C   0  0  0  0  0  0  0  0  0  0  0  0
   53.0115  -15.4833   -4.8156 C   0  0  0  0  0  0  0  0  0  0  0  0
   46.0528  -17.0209   -6.5221 C   0  0  0  0  0  0  0  0  0  0  0  0
   48.3048  -13.9221   -7.8524 H   0  0  0  0  0  0  0  0  0  0  0  0
   50.5437  -13.4222   -7.2790 H   0  0  0  0  0  0  0  0  0  0  0  0
   52.5748  -18.8193   -8.7524 H   0  0  0  0  0  0  0  0  0  0  0  0
   52.6569  -17.0535   -8.6880 H   0  0  0  0  0  0  0  0  0  0  0  0
   48.8577  -18.9895   -9.2621 H   0  0  0  0  0  0  0  0  0  0  0  0
   49.3104  -17.6579  -10.3295 H   0  0  0  0  0  0  0  0  0  0  0  0
   53.2863  -17.7481  -10.9138 H   0  0  0  0  0  0  0  0  0  0  0  0
   51.7834  -16.8631  -10.9709 H   0  0  0  0  0  0  0  0  0  0  0  0
   50.7963  -20.3109   -9.9733 H   0  0  0  0  0  0  0  0  0  0  0  0
   49.7194  -19.9196  -11.3143 H   0  0  0  0  0  0  0  0  0  0  0  0
   48.5004  -19.3480   -6.8420 H   0  0  0  0  0  0  0  0  0  0  0  0
   52.1553  -18.5429   -6.0073 H   0  0  0  0  0  0  0  0  0  0  0  0
   53.2392  -19.5000  -12.4801 H   0  0  0  0  0  0  0  0  0  0  0  0
   51.9591  -20.6992  -12.3871 H   0  0  0  0  0  0  0  0  0  0  0  0
   52.9935  -20.4061  -10.9713 H   0  0  0  0  0  0  0  0  0  0  0  0
   52.0524  -13.6311   -5.3151 H   0  0  0  0  0  0  0  0  0  0  0  0
   46.2989  -14.9048   -6.7646 H   0  0  0  0  0  0  0  0  0  0  0  0
   53.7710  -17.4694   -4.4745 H   0  0  0  0  0  0  0  0  0  0  0  0
   46.0963  -19.1623   -6.3009 H   0  0  0  0  0  0  0  0  0  0  0  0
   53.7214  -15.0108   -4.1416 H   0  0  0  0  0  0  0  0  0  0  0  0
   44.9959  -16.9382   -6.2819 H   0  0  0  0  0  0  0  0  0  0  0  0
  2  1  1  0
  3  1  1  0
  4  1  2  3
  5  9  1  0
  6  8  1  0
  7 13  1  0
  8  3  2  0
  9  2  2  0
 10  4  1  0
 11  4  1  0
 12 10  1  0
 13 11  1  0
 14  2  1  0
 15  3  1  0
 16  7  1  0
 17  8  1  0
 18  9  1  0
 19 15  2  0
 20 14  2  0
 21 19  1  0
 22 20  1  0
  7 12  1  0
  6  5  2  0
 21 17  2  0
 22 18  2  0
  5 23  1  0
  6 24  1  0
 10 25  1  0
 10 26  1  0
 11 27  1  0
 11 28  1  0
 12 29  1  0
 12 30  1  0
 13 31  1  0
 13 32  1  0
 14 33  1  0
 15 34  1  0
 16 35  1  0
 16 36  1  0
 16 37  1  0
 17 38  1  0
 18 39  1  0
 19 40  1  0
 20 41  1  0
 21 42  1  0
 22 43  1  0
M  END
> <Uni-Dock RESULT> 
ENERGY=   -6.273  LOWER_BOUND=    0.000  UPPER_BOUND=    0.000
INTER + INTRA:          -6.273
INTER:                  -6.273
INTRA:                   0.000
UNBOUND:                 0.000

$$$$

     RDKit          3D

 43 46  0  0  0  0  0  0  0  0999 V2000
   48.0514  -17.1295   -7.9730 C   0  0  0  0  0  0  0  0  0  0  0  0
   49.0698  -16.1906   -7.4363 C   0  0  0  0  0  0  0  0  0  0  0  0
   47.4744  -18.1308   -7.0394 C   0  0  0  0  0  0  0  0  0  0  0  0
   47.7706  -17.1825   -9.3035 C   0  0  0  0  0  0  0  0  0  0  0  0
   50.6117  -18.1255   -6.8682 C   0  0  0  0  0  0  0  0  0  0  0  0
   49.7670  -19.1489   -6.6483 C   0  0  0  0  0  0  0  0  0  0  0  0
   47.3247  -17.4390  -12.2961 N   0  0  0  0  0  0  0  0  0  0  0  0
   48.3128  -19.0701   -6.4051 C   0  0  0  0  0  0  0  0  0  0  0  0
   50.2767  -16.6885   -6.9054 C   0  0  0  0  0  0  0  0  0  0  0  0
   46.8485  -18.2232   -9.9330 C   0  0  0  0  0  0  0  0  0  0  0  0
   48.4043  -16.2710  -10.3496 C   0  0  0  0  0  0  0  0  0  0  0  0
   47.2793  -18.5802  -11.3660 C   0  0  0  0  0  0  0  0  0  0  0  0
   47.5240  -16.1532  -11.6055 C   0  0  0  0  0  0  0  0  0  0  0  0
   48.8042  -14.8125   -7.3875 C   0  0  0  0  0  0  0  0  0  0  0  0
   46.0990  -18.1151   -6.7557 C   0  0  0  0  0  0  0  0  0  0  0  0
   46.1461  -17.3855  -13.1562 C   0  0  0  0  0  0  0  0  0  0  0  0
   47.7375  -20.0125   -5.5384 C   0  0  0  0  0  0  0  0  0  0  0  0
   51.2261  -15.7800   -6.4109 C   0  0  0  0  0  0  0  0  0  0  0  0
   45.5475  -19.0493   -5.8799 C   0  0  0  0  0  0  0  0  0  0  0  0
   49.7514  -13.9250   -6.8775 C   0  0  0  0  0  0  0  0  0  0  0  0
   46.3651  -20.0006   -5.2763 C   0  0  0  0  0  0  0  0  0  0  0  0
   50.9654  -14.4079   -6.3982 C   0  0  0  0  0  0  0  0  0  0  0  0
   51.6658  -18.3550   -7.0104 H   0  0  0  0  0  0  0  0  0  0  0  0
   50.1814  -20.1548   -6.6249 H   0  0  0  0  0  0  0  0  0  0  0  0
   45.8240  -17.8308   -9.9471 H   0  0  0  0  0  0  0  0  0  0  0  0
   46.8384  -19.1539   -9.3562 H   0  0  0  0  0  0  0  0  0  0  0  0
   48.5611  -15.2592   -9.9683 H   0  0  0  0  0  0  0  0  0  0  0  0
   49.3865  -16.6740  -10.6275 H   0  0  0  0  0  0  0  0  0  0  0  0
   46.6371  -19.3820  -11.7521 H   0  0  0  0  0  0  0  0  0  0  0  0
   48.2887  -19.0113  -11.3278 H   0  0  0  0  0  0  0  0  0  0  0  0
   46.5604  -15.7145  -11.3100 H   0  0  0  0  0  0  0  0  0  0  0  0
   47.9928  -15.4507  -12.3048 H   0  0  0  0  0  0  0  0  0  0  0  0
   47.8540  -14.4277   -7.7498 H   0  0  0  0  0  0  0  0  0  0  0  0
   45.4551  -17.3718   -7.2193 H   0  0  0  0  0  0  0  0  0  0  0  0
   46.0673  -18.2977  -13.7580 H   0  0  0  0  0  0  0  0  0  0  0  0
   46.2211  -16.5509  -13.8622 H   0  0  0  0  0  0  0  0  0  0  0  0
   45.2203  -17.2704  -12.5811 H   0  0  0  0  0  0  0  0  0  0  0  0
   48.3586  -20.7578   -5.0468 H   0  0  0  0  0  0  0  0  0  0  0  0
   52.1726  -16.1373   -6.0115 H   0  0  0  0  0  0  0  0  0  0  0  0
   44.4816  -19.0331   -5.6685 H   0  0  0  0  0  0  0  0  0  0  0  0
   49.5400  -12.8594   -6.8527 H   0  0  0  0  0  0  0  0  0  0  0  0
   45.9377  -20.7311   -4.5941 H   0  0  0  0  0  0  0  0  0  0  0  0
   51.7066  -13.7190   -6.0013 H   0  0  0  0  0  0  0  0  0  0  0  0
  2  1  1  0
  3  1  1  0
  4  1  2  3
  5  9  1  0
  6  8  1  0
  7 13  1  0
  8  3  2  0
  9  2  2  0
 10  4  1  0
 11  4  1  0
 12 10  1  0
 13 11  1  0
 14  2  1  0
 15  3  1  0
 16  7  1  0
 17  8  1  0
 18  9  1  0
 19 15  2  0
 20 14  2  0
 21 19  1  0
 22 20  1  0
  7 12  1  0
  6  5  2  0
 21 17  2  0
 22 18  2  0
  5 23  1  0
  6 24  1  0
 10 25  1  0
 10 26  1  0
 11 27  1  0
 11 28  1  0
 12 29  1  0
 12 30  1  0
 13 31  1  0
 13 32  1  0
 14 33  1  0
 15 34  1  0
 16 35  1  0
 16 36  1  0
 16 37  1  0
 17 38  1  0
 18 39  1  0
 19 40  1  0
 20 41  1  0
 21 42  1  0
 22 43  1  0
M  END
> <Uni-Dock RESULT> 
ENERGY=   -5.246  LOWER_BOUND=    2.369  UPPER_BOUND=    5.004
INTER + INTRA:          -5.246
INTER:                  -5.246
INTRA:                   0.000
UNBOUND:                 0.000

$$$$

     RDKit          3D

 43 46  0  0  0  0  0  0  0  0999 V2000
   50.5424  -17.5779   -7.1835 C   0  0  0  0  0  0  0  0  0  0  0  0
   51.1474  -18.0950   -5.9291 C   0  0  0  0  0  0  0  0  0  0  0  0
   49.1454  -17.0765   -7.1213 C   0  0  0  0  0  0  0  0  0  0  0  0
   51.1792  -17.7040   -8.3795 C   0  0  0  0  0  0  0  0  0  0  0  0
   49.3748  -19.9056   -5.7739 C   0  0  0  0  0  0  0  0  0  0  0  0
   48.3128  -19.3625   -6.3956 C   0  0  0  0  0  0  0  0  0  0  0  0
   52.5149  -18.1970  -11.0615 N   0  0  0  0  0  0  0  0  0  0  0  0
   48.1027  -17.9385   -6.7249 C   0  0  0  0  0  0  0  0  0  0  0  0
   50.5678  -19.1975   -5.2697 C   0  0  0  0  0  0  0  0  0  0  0  0
   50.5479  -17.3300   -9.7179 C   0  0  0  0  0  0  0  0  0  0  0  0
   52.5666  -18.3143   -8.5511 C   0  0  0  0  0  0  0  0  0  0  0  0
   51.0558  -18.2241  -10.8620 C   0  0  0  0  0  0  0  0  0  0  0  0
   53.2466  -17.8209   -9.8396 C   0  0  0  0  0  0  0  0  0  0  0  0
   52.2520  -17.4438   -5.3566 C   0  0  0  0  0  0  0  0  0  0  0  0
   48.8685  -15.7316   -7.4171 C   0  0  0  0  0  0  0  0  0  0  0  0
   52.8997  -17.3387  -12.1781 C   0  0  0  0  0  0  0  0  0  0  0  0
   46.7910  -17.4403   -6.6884 C   0  0  0  0  0  0  0  0  0  0  0  0
   51.1628  -19.6717   -4.0897 C   0  0  0  0  0  0  0  0  0  0  0  0
   47.5612  -15.2504   -7.3605 C   0  0  0  0  0  0  0  0  0  0  0  0
   52.8209  -17.9176   -4.1748 C   0  0  0  0  0  0  0  0  0  0  0  0
   46.5228  -16.1053   -7.0020 C   0  0  0  0  0  0  0  0  0  0  0  0
   52.2821  -19.0367   -3.5470 C   0  0  0  0  0  0  0  0  0  0  0  0
   49.3642  -20.9775   -5.5875 H   0  0  0  0  0  0  0  0  0  0  0  0
   47.4974  -20.0238   -6.6813 H   0  0  0  0  0  0  0  0  0  0  0  0
   50.7817  -16.2819   -9.9427 H   0  0  0  0  0  0  0  0  0  0  0  0
   49.4576  -17.4272   -9.6901 H   0  0  0  0  0  0  0  0  0  0  0  0
   53.2288  -18.0632   -7.7191 H   0  0  0  0  0  0  0  0  0  0  0  0
   52.4753  -19.4076   -8.5808 H   0  0  0  0  0  0  0  0  0  0  0  0
   50.5235  -17.9713  -11.7878 H   0  0  0  0  0  0  0  0  0  0  0  0
   50.7751  -19.2628  -10.6416 H   0  0  0  0  0  0  0  0  0  0  0  0
   53.3602  -16.7296   -9.7720 H   0  0  0  0  0  0  0  0  0  0  0  0
   54.2568  -18.2437   -9.8939 H   0  0  0  0  0  0  0  0  0  0  0  0
   52.6726  -16.5624   -5.8346 H   0  0  0  0  0  0  0  0  0  0  0  0
   49.6751  -15.0568   -7.6927 H   0  0  0  0  0  0  0  0  0  0  0  0
   52.4467  -17.6940  -13.1104 H   0  0  0  0  0  0  0  0  0  0  0  0
   53.9848  -17.3644  -12.3286 H   0  0  0  0  0  0  0  0  0  0  0  0
   52.5964  -16.2973  -12.0219 H   0  0  0  0  0  0  0  0  0  0  0  0
   45.9654  -18.0871   -6.4002 H   0  0  0  0  0  0  0  0  0  0  0  0
   50.7451  -20.5316   -3.5708 H   0  0  0  0  0  0  0  0  0  0  0  0
   47.3546  -14.2094   -7.5945 H   0  0  0  0  0  0  0  0  0  0  0  0
   53.6813  -17.4120   -3.7448 H   0  0  0  0  0  0  0  0  0  0  0  0
   45.5023  -15.7333   -6.9583 H   0  0  0  0  0  0  0  0  0  0  0  0
   52.7237  -19.4097   -2.6265 H   0  0  0  0  0  0  0  0  0  0  0  0
  2  1  1  0
  3  1  1  0
  4  1  2  3
  5  9  1  0
  6  8  1  0
  7 13  1  0
  8  3  2  0
  9  2  2  0
 10  4  1  0
 11  4  1  0
 12 10  1  0
 13 11  1  0
 14  2  1  0
 15  3  1  0
 16  7  1  0
 17  8  1  0
 18  9  1  0
 19 15  2  0
 20 14  2  0
 21 19  1  0
 22 20  1  0
  7 12  1  0
  6  5  2  0
 21 17  2  0
 22 18  2  0
  5 23  1  0
  6 24  1  0
 10 25  1  0
 10 26  1  0
 11 27  1  0
 11 28  1  0
 12 29  1  0
 12 30  1  0
 13 31  1  0
 13 32  1  0
 14 33  1  0
 15 34  1  0
 16 35  1  0
 16 36  1  0
 16 37  1  0
 17 38  1  0
 18 39  1  0
 19 40  1  0
 20 41  1  0
 21 42  1  0
 22 43  1  0
M  END
> <Uni-Dock RESULT> 
ENERGY=   -5.131  LOWER_BOUND=    1.442  UPPER_BOUND=    4.455
INTER + INTRA:          -5.131
INTER:                  -5.131
INTRA:                   0.000
UNBOUND:                 0.000

$$$$

     RDKit          3D

 43 46  0  0  0  0  0  0  0  0999 V2000
   47.0862  -15.9692  -10.6973 C   0  0  0  0  0  0  0  0  0  0  0  0
   46.8672  -16.2674   -9.2585 C   0  0  0  0  0  0  0  0  0  0  0  0
   45.9224  -15.4950  -11.4897 C   0  0  0  0  0  0  0  0  0  0  0  0
   48.2636  -16.2695  -11.3100 C   0  0  0  0  0  0  0  0  0  0  0  0
   45.1785  -18.0687   -9.8482 C   0  0  0  0  0  0  0  0  0  0  0  0
   44.6716  -17.6545  -11.0232 C   0  0  0  0  0  0  0  0  0  0  0  0
   50.8123  -17.1526  -12.7045 N   0  0  0  0  0  0  0  0  0  0  0  0
   44.7760  -16.3058  -11.6152 C   0  0  0  0  0  0  0  0  0  0  0  0
   45.9460  -17.2637   -8.8778 C   0  0  0  0  0  0  0  0  0  0  0  0
   48.4968  -16.1267  -12.8116 C   0  0  0  0  0  0  0  0  0  0  0  0
   49.4717  -16.8688  -10.5972 C   0  0  0  0  0  0  0  0  0  0  0  0
   49.4848  -17.1796  -13.3420 C   0  0  0  0  0  0  0  0  0  0  0  0
   50.7789  -16.5714  -11.3514 C   0  0  0  0  0  0  0  0  0  0  0  0
   47.5197  -15.5095   -8.2727 C   0  0  0  0  0  0  0  0  0  0  0  0
   45.9473  -14.2205  -12.0794 C   0  0  0  0  0  0  0  0  0  0  0  0
   51.8047  -16.4741  -13.5331 C   0  0  0  0  0  0  0  0  0  0  0  0
   43.6973  -15.8369  -12.3810 C   0  0  0  0  0  0  0  0  0  0  0  0
   45.7624  -17.5315   -7.5119 C   0  0  0  0  0  0  0  0  0  0  0  0
   44.8600  -13.7651  -12.8239 C   0  0  0  0  0  0  0  0  0  0  0  0
   47.3134  -15.7772   -6.9197 C   0  0  0  0  0  0  0  0  0  0  0  0
   43.7384  -14.5749  -12.9792 C   0  0  0  0  0  0  0  0  0  0  0  0
   46.4423  -16.7940   -6.5399 C   0  0  0  0  0  0  0  0  0  0  0  0
   44.9929  -19.0974   -9.5463 H   0  0  0  0  0  0  0  0  0  0  0  0
   44.1024  -18.3705  -11.6126 H   0  0  0  0  0  0  0  0  0  0  0  0
   48.8878  -15.1226  -13.0184 H   0  0  0  0  0  0  0  0  0  0  0  0
   47.5658  -16.2420  -13.3766 H   0  0  0  0  0  0  0  0  0  0  0  0
   49.5854  -16.4745   -9.5846 H   0  0  0  0  0  0  0  0  0  0  0  0
   49.3358  -17.9547  -10.5142 H   0  0  0  0  0  0  0  0  0  0  0  0
   49.5660  -17.0886  -14.4327 H   0  0  0  0  0  0  0  0  0  0  0  0
   49.0577  -18.1761  -13.1661 H   0  0  0  0  0  0  0  0  0  0  0  0
   50.9126  -15.4810  -11.3906 H   0  0  0  0  0  0  0  0  0  0  0  0
   51.6214  -16.9753  -10.7774 H   0  0  0  0  0  0  0  0  0  0  0  0
   48.1936  -14.7061   -8.5603 H   0  0  0  0  0  0  0  0  0  0  0  0
   46.8177  -13.5805  -11.9580 H   0  0  0  0  0  0  0  0  0  0  0  0
   51.9131  -16.9827  -14.4975 H   0  0  0  0  0  0  0  0  0  0  0  0
   52.7899  -16.4996  -13.0540 H   0  0  0  0  0  0  0  0  0  0  0  0
   51.5387  -15.4280  -13.7225 H   0  0  0  0  0  0  0  0  0  0  0  0
   42.8061  -16.4477  -12.5066 H   0  0  0  0  0  0  0  0  0  0  0  0
   45.0700  -18.3070   -7.1921 H   0  0  0  0  0  0  0  0  0  0  0  0
   44.8885  -12.7793  -13.2803 H   0  0  0  0  0  0  0  0  0  0  0  0
   47.8302  -15.1911   -6.1646 H   0  0  0  0  0  0  0  0  0  0  0  0
   42.8897  -14.2230  -13.5602 H   0  0  0  0  0  0  0  0  0  0  0  0
   46.2802  -17.0064   -5.4864 H   0  0  0  0  0  0  0  0  0  0  0  0
  2  1  1  0
  3  1  1  0
  4  1  2  3
  5  9  1  0
  6  8  1  0
  7 13  1  0
  8  3  2  0
  9  2  2  0
 10  4  1  0
 11  4  1  0
 12 10  1  0
 13 11  1  0
 14  2  1  0
 15  3  1  0
 16  7  1  0
 17  8  1  0
 18  9  1  0
 19 15  2  0
 20 14  2  0
 21 19  1  0
 22 20  1  0
  7 12  1  0
  6  5  2  0
 21 17  2  0
 22 18  2  0
  5 23  1  0
  6 24  1  0
 10 25  1  0
 10 26  1  0
 11 27  1  0
 11 28  1  0
 12 29  1  0
 12 30  1  0
 13 31  1  0
 13 32  1  0
 14 33  1  0
 15 34  1  0
 16 35  1  0
 16 36  1  0
 16 37  1  0
 17 38  1  0
 18 39  1  0
 19 40  1  0
 20 41  1  0
 21 42  1  0
 22 43  1  0
M  END
> <Uni-Dock RESULT> 
ENERGY=   -5.024  LOWER_BOUND=    3.955  UPPER_BOUND=    6.266
INTER + INTRA:          -5.024
INTER:                  -5.024
INTRA:                   0.000
UNBOUND:                 0.000

$$$$

     RDKit          3D

 43 46  0  0  0  0  0  0  0  0999 V2000
   49.3862  -17.6602   -7.5119 C   0  0  0  0  0  0  0  0  0  0  0  0
   50.4885  -17.0473   -6.7269 C   0  0  0  0  0  0  0  0  0  0  0  0
   48.3337  -18.3973   -6.7662 C   0  0  0  0  0  0  0  0  0  0  0  0
   49.4177  -17.6877   -8.8721 C   0  0  0  0  0  0  0  0  0  0  0  0
   51.1964  -19.3281   -5.8659 C   0  0  0  0  0  0  0  0  0  0  0  0
   50.0544  -20.0387   -5.8771 C   0  0  0  0  0  0  0  0  0  0  0  0
   49.6184  -17.9363  -11.8917 N   0  0  0  0  0  0  0  0  0  0  0  0
   48.6776  -19.5149   -5.9788 C   0  0  0  0  0  0  0  0  0  0  0  0
   51.3309  -17.8601   -5.9420 C   0  0  0  0  0  0  0  0  0  0  0  0
   48.3949  -18.4308   -9.7274 C   0  0  0  0  0  0  0  0  0  0  0  0
   50.5213  -17.0584   -9.7162 C   0  0  0  0  0  0  0  0  0  0  0  0
   49.0158  -18.9666  -11.0288 C   0  0  0  0  0  0  0  0  0  0  0  0
   50.0331  -16.7395  -11.1396 C   0  0  0  0  0  0  0  0  0  0  0  0
   50.6495  -15.6525   -6.7049 C   0  0  0  0  0  0  0  0  0  0  0  0
   47.0013  -17.9555   -6.8117 C   0  0  0  0  0  0  0  0  0  0  0  0
   48.7435  -17.5705  -13.0019 C   0  0  0  0  0  0  0  0  0  0  0  0
   47.6600  -20.1994   -5.2961 C   0  0  0  0  0  0  0  0  0  0  0  0
   52.3699  -17.2575   -5.2151 C   0  0  0  0  0  0  0  0  0  0  0  0
   46.0060  -18.6390   -6.1145 C   0  0  0  0  0  0  0  0  0  0  0  0
   51.6765  -15.0685   -5.9640 C   0  0  0  0  0  0  0  0  0  0  0  0
   46.3342  -19.7632   -5.3620 C   0  0  0  0  0  0  0  0  0  0  0  0
   52.5420  -15.8715   -5.2271 C   0  0  0  0  0  0  0  0  0  0  0  0
   52.1342  -19.8703   -5.7637 H   0  0  0  0  0  0  0  0  0  0  0  0
   50.1272  -21.1204   -5.7843 H   0  0  0  0  0  0  0  0  0  0  0  0
   47.5699  -17.7494   -9.9702 H   0  0  0  0  0  0  0  0  0  0  0  0
   47.9703  -19.2876   -9.1940 H   0  0  0  0  0  0  0  0  0  0  0  0
   50.8851  -16.1241   -9.2819 H   0  0  0  0  0  0  0  0  0  0  0  0
   51.3715  -17.7506   -9.7673 H   0  0  0  0  0  0  0  0  0  0  0  0
   48.2681  -19.5551  -11.5757 H   0  0  0  0  0  0  0  0  0  0  0  0
   49.8095  -19.6792  -10.7671 H   0  0  0  0  0  0  0  0  0  0  0  0
   49.2070  -16.0180  -11.0660 H   0  0  0  0  0  0  0  0  0  0  0  0
   50.8409  -16.2437  -11.6908 H   0  0  0  0  0  0  0  0  0  0  0  0
   49.9712  -15.0169   -7.2690 H   0  0  0  0  0  0  0  0  0  0  0  0
   46.7383  -17.0752   -7.3931 H   0  0  0  0  0  0  0  0  0  0  0  0
   48.5331  -18.4435  -13.6296 H   0  0  0  0  0  0  0  0  0  0  0  0
   49.2289  -16.8307  -13.6483 H   0  0  0  0  0  0  0  0  0  0  0  0
   47.7897  -17.1558  -12.6565 H   0  0  0  0  0  0  0  0  0  0  0  0
   47.8948  -21.0736   -4.6929 H   0  0  0  0  0  0  0  0  0  0  0  0
   53.0445  -17.8641   -4.6151 H   0  0  0  0  0  0  0  0  0  0  0  0
   44.9767  -18.2932   -6.1579 H   0  0  0  0  0  0  0  0  0  0  0  0
   51.7984  -13.9886   -5.9608 H   0  0  0  0  0  0  0  0  0  0  0  0
   45.5601  -20.2990   -4.8185 H   0  0  0  0  0  0  0  0  0  0  0  0
   53.3445  -15.4199   -4.6496 H   0  0  0  0  0  0  0  0  0  0  0  0
  2  1  1  0
  3  1  1  0
  4  1  2  3
  5  9  1  0
  6  8  1  0
  7 13  1  0
  8  3  2  0
  9  2  2  0
 10  4  1  0
 11  4  1  0
 12 10  1  0
 13 11  1  0
 14  2  1  0
 15  3  1  0
 16  7  1  0
 17  8  1  0
 18  9  1  0
 19 15  2  0
 20 14  2  0
 21 19  1  0
 22 20  1  0
  7 12  1  0
  6  5  2  0
 21 17  2  0
 22 18  2  0
  5 23  1  0
  6 24  1  0
 10 25  1  0
 10 26  1  0
 11 27  1  0
 11 28  1  0
 12 29  1  0
 12 30  1  0
 13 31  1  0
 13 32  1  0
 14 33  1  0
 15 34  1  0
 16 35  1  0
 16 36  1  0
 16 37  1  0
 17 38  1  0
 18 39  1  0
 19 40  1  0
 20 41  1  0
 21 42  1  0
 22 43  1  0
M  END
> <Uni-Dock RESULT> 
ENERGY=   -4.753  LOWER_BOUND=    1.642  UPPER_BOUND=    4.791
INTER + INTRA:          -4.753
INTER:                  -4.753
INTRA:                   0.000
UNBOUND:                 0.000

$$$$

     RDKit          3D

 43 46  0  0  0  0  0  0  0  0999 V2000
   46.3185  -16.2506  -10.6247 C   0  0  0  0  0  0  0  0  0  0  0  0
   46.4725  -15.3699  -11.8111 C   0  0  0  0  0  0  0  0  0  0  0  0
   47.2858  -16.0832   -9.5096 C   0  0  0  0  0  0  0  0  0  0  0  0
   45.4294  -17.2808  -10.6199 C   0  0  0  0  0  0  0  0  0  0  0  0
   48.7856  -16.3139  -12.2609 C   0  0  0  0  0  0  0  0  0  0  0  0
   49.2196  -16.6816  -11.0420 C   0  0  0  0  0  0  0  0  0  0  0  0
   43.6036  -19.7052  -10.7168 N   0  0  0  0  0  0  0  0  0  0  0  0
   48.6641  -16.2745   -9.7359 C   0  0  0  0  0  0  0  0  0  0  0  0
   47.6603  -15.4096  -12.5685 C   0  0  0  0  0  0  0  0  0  0  0  0
   45.3302  -18.3079   -9.4952 C   0  0  0  0  0  0  0  0  0  0  0  0
   44.4794  -17.5977  -11.7705 C   0  0  0  0  0  0  0  0  0  0  0  0
   44.8989  -19.6896  -10.0158 C   0  0  0  0  0  0  0  0  0  0  0  0
   43.2542  -18.3939  -11.2899 C   0  0  0  0  0  0  0  0  0  0  0  0
   45.4689  -14.4439  -12.1387 C   0  0  0  0  0  0  0  0  0  0  0  0
   46.8318  -15.6932   -8.2391 C   0  0  0  0  0  0  0  0  0  0  0  0
   42.5255  -20.2000   -9.8656 C   0  0  0  0  0  0  0  0  0  0  0  0
   49.5529  -16.1225   -8.6602 C   0  0  0  0  0  0  0  0  0  0  0  0
   47.7784  -14.5726  -13.6895 C   0  0  0  0  0  0  0  0  0  0  0  0
   47.7312  -15.5319   -7.1861 C   0  0  0  0  0  0  0  0  0  0  0  0
   45.6092  -13.6076  -13.2458 C   0  0  0  0  0  0  0  0  0  0  0  0
   49.0898  -15.7518   -7.3951 C   0  0  0  0  0  0  0  0  0  0  0  0
   46.7593  -13.6788  -14.0262 C   0  0  0  0  0  0  0  0  0  0  0  0
   49.3230  -16.6899  -13.1290 H   0  0  0  0  0  0  0  0  0  0  0  0
   50.0859  -17.3377  -10.9867 H   0  0  0  0  0  0  0  0  0  0  0  0
   44.6040  -17.9550   -8.7523 H   0  0  0  0  0  0  0  0  0  0  0  0
   46.2895  -18.4391   -8.9838 H   0  0  0  0  0  0  0  0  0  0  0  0
   44.1071  -16.6914  -12.2540 H   0  0  0  0  0  0  0  0  0  0  0  0
   45.0184  -18.1782  -12.5300 H   0  0  0  0  0  0  0  0  0  0  0  0
   44.9124  -20.4123   -9.1901 H   0  0  0  0  0  0  0  0  0  0  0  0
   45.6585  -20.0461  -10.7245 H   0  0  0  0  0  0  0  0  0  0  0  0
   42.7104  -17.7796  -10.5583 H   0  0  0  0  0  0  0  0  0  0  0  0
   42.5775  -18.5531  -12.1379 H   0  0  0  0  0  0  0  0  0  0  0  0
   44.5719  -14.3740  -11.5281 H   0  0  0  0  0  0  0  0  0  0  0  0
   45.7728  -15.5145   -8.0697 H   0  0  0  0  0  0  0  0  0  0  0  0
   42.7342  -21.2242   -9.5370 H   0  0  0  0  0  0  0  0  0  0  0  0
   41.5813  -20.2362  -10.4205 H   0  0  0  0  0  0  0  0  0  0  0  0
   42.3811  -19.5751   -8.9770 H   0  0  0  0  0  0  0  0  0  0  0  0
   50.6199  -16.2781   -8.8029 H   0  0  0  0  0  0  0  0  0  0  0  0
   48.6778  -14.5962  -14.3007 H   0  0  0  0  0  0  0  0  0  0  0  0
   47.3716  -15.2336   -6.2049 H   0  0  0  0  0  0  0  0  0  0  0  0
   44.8227  -12.9008  -13.4963 H   0  0  0  0  0  0  0  0  0  0  0  0
   49.7933  -15.6282   -6.5757 H   0  0  0  0  0  0  0  0  0  0  0  0
   46.8714  -13.0295  -14.8907 H   0  0  0  0  0  0  0  0  0  0  0  0
  2  1  1  0
  3  1  1  0
  4  1  2  3
  5  9  1  0
  6  8  1  0
  7 13  1  0
  8  3  2  0
  9  2  2  0
 10  4  1  0
 11  4  1  0
 12 10  1  0
 13 11  1  0
 14  2  1  0
 15  3  1  0
 16  7  1  0
 17  8  1  0
 18  9  1  0
 19 15  2  0
 20 14  2  0
 21 19  1  0
 22 20  1  0
  7 12  1  0
  6  5  2  0
 21 17  2  0
 22 18  2  0
  5 23  1  0
  6 24  1  0
 10 25  1  0
 10 26  1  0
 11 27  1  0
 11 28  1  0
 12 29  1  0
 12 30  1  0
 13 31  1  0
 13 32  1  0
 14 33  1  0
 15 34  1  0
 16 35  1  0
 16 36  1  0
 16 37  1  0
 17 38  1  0
 18 39  1  0
 19 40  1  0
 20 41  1  0
 21 42  1  0
 22 43  1  0
M  END
> <Uni-Dock RESULT> 
ENERGY=   -4.416  LOWER_BOUND=    4.600  UPPER_BOUND=    6.447
INTER + INTRA:          -4.416
INTER:                  -4.416
INTRA:                   0.000
UNBOUND:                 0.000

$$$$

     RDKit          3D

 43 46  0  0  0  0  0  0  0  0999 V2000
   49.4826  -17.9787   -7.9701 C   0  0  0  0  0  0  0  0  0  0  0  0
   49.2050  -17.5165   -9.3544 C   0  0  0  0  0  0  0  0  0  0  0  0
   48.3309  -18.4346   -7.1498 C   0  0  0  0  0  0  0  0  0  0  0  0
   50.7167  -17.8416   -7.4133 C   0  0  0  0  0  0  0  0  0  0  0  0
   47.7219  -15.6525   -8.4768 C   0  0  0  0  0  0  0  0  0  0  0  0
   47.2517  -16.1426   -7.3159 C   0  0  0  0  0  0  0  0  0  0  0  0
   53.4130  -17.3208   -6.1176 N   0  0  0  0  0  0  0  0  0  0  0  0
   47.2709  -17.5492   -6.8672 C   0  0  0  0  0  0  0  0  0  0  0  0
   48.3550  -16.4135   -9.5717 C   0  0  0  0  0  0  0  0  0  0  0  0
   51.0259  -18.1576   -5.9525 C   0  0  0  0  0  0  0  0  0  0  0  0
   51.9284  -17.2737   -8.1455 C   0  0  0  0  0  0  0  0  0  0  0  0
   52.1339  -17.2503   -5.3908 C   0  0  0  0  0  0  0  0  0  0  0  0
   53.2468  -17.7544   -7.5156 C   0  0  0  0  0  0  0  0  0  0  0  0
   49.7271  -18.2197  -10.4521 C   0  0  0  0  0  0  0  0  0  0  0  0
   48.2775  -19.7608   -6.6906 C   0  0  0  0  0  0  0  0  0  0  0  0
   54.3890  -18.1609   -5.4295 C   0  0  0  0  0  0  0  0  0  0  0  0
   46.2025  -18.0040   -6.0785 C   0  0  0  0  0  0  0  0  0  0  0  0
   48.1144  -15.9918  -10.8890 C   0  0  0  0  0  0  0  0  0  0  0  0
   47.2006  -20.1994   -5.9213 C   0  0  0  0  0  0  0  0  0  0  0  0
   49.4646  -17.7975  -11.7550 C   0  0  0  0  0  0  0  0  0  0  0  0
   46.1669  -19.3202   -5.6109 C   0  0  0  0  0  0  0  0  0  0  0  0
   48.6663  -16.6784  -11.9728 C   0  0  0  0  0  0  0  0  0  0  0  0
   47.6109  -14.5862   -8.6632 H   0  0  0  0  0  0  0  0  0  0  0  0
   46.7849  -15.4468   -6.6216 H   0  0  0  0  0  0  0  0  0  0  0  0
   51.3377  -19.2065   -5.8722 H   0  0  0  0  0  0  0  0  0  0  0  0
   50.1446  -18.0248   -5.3163 H   0  0  0  0  0  0  0  0  0  0  0  0
   51.9455  -17.5693   -9.1972 H   0  0  0  0  0  0  0  0  0  0  0  0
   51.8850  -16.1775   -8.1123 H   0  0  0  0  0  0  0  0  0  0  0  0
   52.2720  -17.4599   -4.3225 H   0  0  0  0  0  0  0  0  0  0  0  0
   51.7875  -16.2091   -5.4387 H   0  0  0  0  0  0  0  0  0  0  0  0
   53.2850  -18.8502   -7.5925 H   0  0  0  0  0  0  0  0  0  0  0  0
   54.0859  -17.3643   -8.1038 H   0  0  0  0  0  0  0  0  0  0  0  0
   50.3427  -19.1014  -10.2913 H   0  0  0  0  0  0  0  0  0  0  0  0
   49.0785  -20.4545   -6.9336 H   0  0  0  0  0  0  0  0  0  0  0  0
   54.6000  -17.7654   -4.4297 H   0  0  0  0  0  0  0  0  0  0  0  0
   55.3420  -18.1675   -5.9703 H   0  0  0  0  0  0  0  0  0  0  0  0
   54.0428  -19.1954   -5.3255 H   0  0  0  0  0  0  0  0  0  0  0  0
   45.3784  -17.3380   -5.8329 H   0  0  0  0  0  0  0  0  0  0  0  0
   47.4759  -15.1328  -11.0831 H   0  0  0  0  0  0  0  0  0  0  0  0
   47.1685  -21.2261   -5.5666 H   0  0  0  0  0  0  0  0  0  0  0  0
   49.8808  -18.3431  -12.5976 H   0  0  0  0  0  0  0  0  0  0  0  0
   45.3267  -19.6589   -5.0101 H   0  0  0  0  0  0  0  0  0  0  0  0
   48.4608  -16.3456  -12.9869 H   0  0  0  0  0  0  0  0  0  0  0  0
  2  1  1  0
  3  1  1  0
  4  1  2  3
  5  9  1  0
  6  8  1  0
  7 13  1  0
  8  3  2  0
  9  2  2  0
 10  4  1  0
 11  4  1  0
 12 10  1  0
 13 11  1  0
 14  2  1  0
 15  3  1  0
 16  7  1  0
 17  8  1  0
 18  9  1  0
 19 15  2  0
 20 14  2  0
 21 19  1  0
 22 20  1  0
  7 12  1  0
  6  5  2  0
 21 17  2  0
 22 18  2  0
  5 23  1  0
  6 24  1  0
 10 25  1  0
 10 26  1  0
 11 27  1  0
 11 28  1  0
 12 29  1  0
 12 30  1  0
 13 31  1  0
 13 32  1  0
 14 33  1  0
 15 34  1  0
 16 35  1  0
 16 36  1  0
 16 37  1  0
 17 38  1  0
 18 39  1  0
 19 40  1  0
 20 41  1  0
 21 42  1  0
 22 43  1  0
M  END
> <Uni-Dock RESULT> 
ENERGY=   -4.187  LOWER_BOUND=    2.097  UPPER_BOUND=    4.726
INTER + INTRA:          -4.187
INTER:                  -4.187
INTRA:                   0.000
UNBOUND:                 0.000

$$$$

     RDKit          3D

 43 46  0  0  0  0  0  0  0  0999 V2000
   45.0522  -14.2809  -12.4777 C   0  0  0  0  0  0  0  0  0  0  0  0
   45.3088  -15.4748  -11.6318 C   0  0  0  0  0  0  0  0  0  0  0  0
   43.7369  -13.6045  -12.3374 C   0  0  0  0  0  0  0  0  0  0  0  0
   45.9186  -13.9111  -13.4597 C   0  0  0  0  0  0  0  0  0  0  0  0
   43.3631  -16.7024  -12.7048 C   0  0  0  0  0  0  0  0  0  0  0  0
   42.5273  -15.7134  -13.0687 C   0  0  0  0  0  0  0  0  0  0  0  0
   47.7497  -13.2387  -15.7868 N   0  0  0  0  0  0  0  0  0  0  0  0
   42.5471  -14.3116  -12.6053 C   0  0  0  0  0  0  0  0  0  0  0  0
   44.4849  -16.6121  -11.7497 C   0  0  0  0  0  0  0  0  0  0  0  0
   45.6396  -12.7889  -14.4560 C   0  0  0  0  0  0  0  0  0  0  0  0
   47.2369  -14.6210  -13.7509 C   0  0  0  0  0  0  0  0  0  0  0  0
   46.2880  -13.0613  -15.8241 C   0  0  0  0  0  0  0  0  0  0  0  0
   48.2314  -13.6949  -14.4716 C   0  0  0  0  0  0  0  0  0  0  0  0
   46.3239  -15.4484  -10.6617 C   0  0  0  0  0  0  0  0  0  0  0  0
   43.6762  -12.2721  -11.8972 C   0  0  0  0  0  0  0  0  0  0  0  0
   48.4591  -12.0335  -16.2064 C   0  0  0  0  0  0  0  0  0  0  0  0
   41.3199  -13.6424  -12.4771 C   0  0  0  0  0  0  0  0  0  0  0  0
   44.7528  -17.7303  -10.9441 C   0  0  0  0  0  0  0  0  0  0  0  0
   42.4471  -11.6283  -11.7608 C   0  0  0  0  0  0  0  0  0  0  0  0
   46.5661  -16.5618   -9.8577 C   0  0  0  0  0  0  0  0  0  0  0  0
   41.2705  -12.3111  -12.0559 C   0  0  0  0  0  0  0  0  0  0  0  0
   45.7869  -17.7054  -10.0055 C   0  0  0  0  0  0  0  0  0  0  0  0
   43.1980  -17.6917  -13.1268 H   0  0  0  0  0  0  0  0  0  0  0  0
   41.7287  -15.9534  -13.7678 H   0  0  0  0  0  0  0  0  0  0  0  0
   46.0271  -11.8461  -14.0498 H   0  0  0  0  0  0  0  0  0  0  0  0
   44.5657  -12.6592  -14.6263 H   0  0  0  0  0  0  0  0  0  0  0  0
   47.7234  -14.9698  -12.8369 H   0  0  0  0  0  0  0  0  0  0  0  0
   47.0386  -15.5018  -14.3749 H   0  0  0  0  0  0  0  0  0  0  0  0
   46.0017  -12.2702  -16.5287 H   0  0  0  0  0  0  0  0  0  0  0  0
   45.8570  -13.9842  -16.2349 H   0  0  0  0  0  0  0  0  0  0  0  0
   48.4429  -12.8396  -13.8142 H   0  0  0  0  0  0  0  0  0  0  0  0
   49.1781  -14.2296  -14.6132 H   0  0  0  0  0  0  0  0  0  0  0  0
   46.9303  -14.5553  -10.5320 H   0  0  0  0  0  0  0  0  0  0  0  0
   44.5907  -11.7342  -11.6599 H   0  0  0  0  0  0  0  0  0  0  0  0
   48.1863  -11.7643  -17.2328 H   0  0  0  0  0  0  0  0  0  0  0  0
   49.5417  -12.2026  -16.2050 H   0  0  0  0  0  0  0  0  0  0  0  0
   48.2413  -11.1788  -15.5559 H   0  0  0  0  0  0  0  0  0  0  0  0
   40.3872  -14.1594  -12.6913 H   0  0  0  0  0  0  0  0  0  0  0  0
   44.1425  -18.6268  -11.0276 H   0  0  0  0  0  0  0  0  0  0  0  0
   42.4088  -10.5960  -11.4232 H   0  0  0  0  0  0  0  0  0  0  0  0
   47.3600  -16.5346   -9.1162 H   0  0  0  0  0  0  0  0  0  0  0  0
   40.3108  -11.8113  -11.9518 H   0  0  0  0  0  0  0  0  0  0  0  0
   45.9737  -18.5756   -9.3816 H   0  0  0  0  0  0  0  0  0  0  0  0
  2  1  1  0
  3  1  1  0
  4  1  2  3
  5  9  1  0
  6  8  1  0
  7 13  1  0
  8  3  2  0
  9  2  2  0
 10  4  1  0
 11  4  1  0
 12 10  1  0
 13 11  1  0
 14  2  1  0
 15  3  1  0
 16  7  1  0
 17  8  1  0
 18  9  1  0
 19 15  2  0
 20 14  2  0
 21 19  1  0
 22 20  1  0
  7 12  1  0
  6  5  2  0
 21 17  2  0
 22 18  2  0
  5 23  1  0
  6 24  1  0
 10 25  1  0
 10 26  1  0
 11 27  1  0
 11 28  1  0
 12 29  1  0
 12 30  1  0
 13 31  1  0
 13 32  1  0
 14 33  1  0
 15 34  1  0
 16 35  1  0
 16 36  1  0
 16 37  1  0
 17 38  1  0
 18 39  1  0
 19 40  1  0
 20 41  1  0
 21 42  1  0
 22 43  1  0
M  END
> <Uni-Dock RESULT> 
ENERGY=   -4.062  LOWER_BOUND=    6.815  UPPER_BOUND=    8.952
INTER + INTRA:          -4.062
INTER:                  -4.062
INTRA:                   0.000
UNBOUND:                 0.000

$$$$

     RDKit          3D

 43 46  0  0  0  0  0  0  0  0999 V2000
   46.6993  -16.7272   -9.2987 C   0  0  0  0  0  0  0  0  0  0  0  0
   46.5938  -16.4641  -10.7570 C   0  0  0  0  0  0  0  0  0  0  0  0
   47.8327  -16.1075   -8.5649 C   0  0  0  0  0  0  0  0  0  0  0  0
   45.8873  -17.6289   -8.6828 C   0  0  0  0  0  0  0  0  0  0  0  0
   48.8469  -17.5627  -11.1583 C   0  0  0  0  0  0  0  0  0  0  0  0
   49.5055  -17.3649  -10.0023 C   0  0  0  0  0  0  0  0  0  0  0  0
   44.2197  -19.8046   -7.3766 N   0  0  0  0  0  0  0  0  0  0  0  0
   49.1602  -16.4106   -8.9297 C   0  0  0  0  0  0  0  0  0  0  0  0
   47.6336  -16.8613  -11.6215 C   0  0  0  0  0  0  0  0  0  0  0  0
   46.0447  -18.0519   -7.2247 C   0  0  0  0  0  0  0  0  0  0  0  0
   44.7737  -18.3989   -9.3855 C   0  0  0  0  0  0  0  0  0  0  0  0
   45.6132  -19.5112   -7.0004 C   0  0  0  0  0  0  0  0  0  0  0  0
   43.6993  -18.8730   -8.3921 C   0  0  0  0  0  0  0  0  0  0  0  0
   45.4955  -15.7547  -11.2693 C   0  0  0  0  0  0  0  0  0  0  0  0
   47.5820  -15.1866   -7.5345 C   0  0  0  0  0  0  0  0  0  0  0  0
   43.3358  -19.8482   -6.2153 C   0  0  0  0  0  0  0  0  0  0  0  0
   50.2105  -15.8202   -8.2097 C   0  0  0  0  0  0  0  0  0  0  0  0
   47.5066  -16.6076  -12.9965 C   0  0  0  0  0  0  0  0  0  0  0  0
   48.6383  -14.5981   -6.8404 C   0  0  0  0  0  0  0  0  0  0  0  0
   45.3928  -15.4961  -12.6358 C   0  0  0  0  0  0  0  0  0  0  0  0
   49.9512  -14.9189   -7.1740 C   0  0  0  0  0  0  0  0  0  0  0  0
   46.3934  -15.9307  -13.5000 C   0  0  0  0  0  0  0  0  0  0  0  0
   49.2480  -18.2954  -11.8555 H   0  0  0  0  0  0  0  0  0  0  0  0
   50.4059  -17.9490   -9.8232 H   0  0  0  0  0  0  0  0  0  0  0  0
   45.4378  -17.3908   -6.5935 H   0  0  0  0  0  0  0  0  0  0  0  0
   47.0839  -17.9661   -6.8903 H   0  0  0  0  0  0  0  0  0  0  0  0
   44.2704  -17.7905  -10.1407 H   0  0  0  0  0  0  0  0  0  0  0  0
   45.2074  -19.2672   -9.8978 H   0  0  0  0  0  0  0  0  0  0  0  0
   45.8118  -19.7956   -5.9592 H   0  0  0  0  0  0  0  0  0  0  0  0
   46.2591  -20.1612   -7.6058 H   0  0  0  0  0  0  0  0  0  0  0  0
   43.2542  -17.9866   -7.9183 H   0  0  0  0  0  0  0  0  0  0  0  0
   42.8973  -19.3743   -8.9469 H   0  0  0  0  0  0  0  0  0  0  0  0
   44.7146  -15.4020  -10.5999 H   0  0  0  0  0  0  0  0  0  0  0  0
   46.5594  -14.9272   -7.2720 H   0  0  0  0  0  0  0  0  0  0  0  0
   43.6585  -20.6269   -5.5153 H   0  0  0  0  0  0  0  0  0  0  0  0
   42.3140  -20.1037   -6.5174 H   0  0  0  0  0  0  0  0  0  0  0  0
   43.3098  -18.8922   -5.6802 H   0  0  0  0  0  0  0  0  0  0  0  0
   51.2443  -16.0473   -8.4603 H   0  0  0  0  0  0  0  0  0  0  0  0
   48.2870  -16.9191  -13.6872 H   0  0  0  0  0  0  0  0  0  0  0  0
   48.4360  -13.8893   -6.0418 H   0  0  0  0  0  0  0  0  0  0  0  0
   44.5343  -14.9544  -13.0236 H   0  0  0  0  0  0  0  0  0  0  0  0
   50.7767  -14.4627   -6.6336 H   0  0  0  0  0  0  0  0  0  0  0  0
   46.3160  -15.7322  -14.5658 H   0  0  0  0  0  0  0  0  0  0  0  0
  2  1  1  0
  3  1  1  0
  4  1  2  3
  5  9  1  0
  6  8  1  0
  7 13  1  0
  8  3  2  0
  9  2  2  0
 10  4  1  0
 11  4  1  0
 12 10  1  0
 13 11  1  0
 14  2  1  0
 15  3  1  0
 16  7  1  0
 17  8  1  0
 18  9  1  0
 19 15  2  0
 20 14  2  0
 21 19  1  0
 22 20  1  0
  7 12  1  0
  6  5  2  0
 21 17  2  0
 22 18  2  0
  5 23  1  0
  6 24  1  0
 10 25  1  0
 10 26  1  0
 11 27  1  0
 11 28  1  0
 12 29  1  0
 12 30  1  0
 13 31  1  0
 13 32  1  0
 14 33  1  0
 15 34  1  0
 16 35  1  0
 16 36  1  0
 16 37  1  0
 17 38  1  0
 18 39  1  0
 19 40  1  0
 20 41  1  0
 21 42  1  0
 22 43  1  0
M  END
> <Uni-Dock RESULT> 
ENERGY=   -4.016  LOWER_BOUND=    3.530  UPPER_BOUND=    5.877
INTER + INTRA:          -4.016
INTER:                  -4.016
INTRA:                   0.000
UNBOUND:                 0.000

$$$$
