
     RDKit          3D

 43 46  0  0  0  0  0  0  0  0999 V2000
   50.2256  -17.3294   -7.4827 C   0  0  0  0  0  0  0  0  0  0  0  0
   51.1928  -16.6792   -6.5614 C   0  0  0  0  0  0  0  0  0  0  0  0
   48.7795  -17.2132   -7.1622 C   0  0  0  0  0  0  0  0  0  0  0  0
   50.6478  -17.8736   -8.6564 C   0  0  0  0  0  0  0  0  0  0  0  0
   50.1696  -14.4020   -7.0245 C   0  0  0  0  0  0  0  0  0  0  0  0
   48.8968  -14.6848   -7.3550 C   0  0  0  0  0  0  0  0  0  0  0  0
   51.6211  -18.9956  -11.3051 N   0  0  0  0  0  0  0  0  0  0  0  0
   48.1708  -15.9439   -7.0986 C   0  0  0  0  0  0  0  0  0  0  0  0
   51.1343  -15.2875   -6.3427 C   0  0  0  0  0  0  0  0  0  0  0  0
   49.7181  -18.4579   -9.7147 C   0  0  0  0  0  0  0  0  0  0  0  0
   52.1074  -17.8903   -9.1038 C   0  0  0  0  0  0  0  0  0  0  0  0
   50.4303  -19.4972  -10.5981 C   0  0  0  0  0  0  0  0  0  0  0  0
   52.2282  -17.8315  -10.6354 C   0  0  0  0  0  0  0  0  0  0  0  0
   52.1403  -17.4566   -5.8759 C   0  0  0  0  0  0  0  0  0  0  0  0
   48.0316  -18.3600   -6.8498 C   0  0  0  0  0  0  0  0  0  0  0  0
   51.3372  -18.6902  -12.7050 C   0  0  0  0  0  0  0  0  0  0  0  0
   46.8003  -15.8630   -6.8037 C   0  0  0  0  0  0  0  0  0  0  0  0
   52.0696  -14.6995   -5.4768 C   0  0  0  0  0  0  0  0  0  0  0  0
   46.6750  -18.2608   -6.5422 C   0  0  0  0  0  0  0  0  0  0  0  0
   53.0526  -16.8570   -5.0086 C   0  0  0  0  0  0  0  0  0  0  0  0
   46.0576  -17.0138   -6.5292 C   0  0  0  0  0  0  0  0  0  0  0  0
   53.0205  -15.4790   -4.8133 C   0  0  0  0  0  0  0  0  0  0  0  0
   50.5477  -13.4093   -7.2601 H   0  0  0  0  0  0  0  0  0  0  0  0
   48.3103  -13.9070   -7.8390 H   0  0  0  0  0  0  0  0  0  0  0  0
   48.8514  -18.9525   -9.2699 H   0  0  0  0  0  0  0  0  0  0  0  0
   49.3415  -17.6423  -10.3452 H   0  0  0  0  0  0  0  0  0  0  0  0
   52.5865  -18.8050   -8.7330 H   0  0  0  0  0  0  0  0  0  0  0  0
   52.6623  -17.0367   -8.7000 H   0  0  0  0  0  0  0  0  0  0  0  0
   50.7575  -20.3281   -9.9587 H   0  0  0  0  0  0  0  0  0  0  0  0
   49.7088  -19.9387  -11.2971 H   0  0  0  0  0  0  0  0  0  0  0  0
   53.2893  -17.7866  -10.9081 H   0  0  0  0  0  0  0  0  0  0  0  0
   51.7687  -16.8953  -10.9827 H   0  0  0  0  0  0  0  0  0  0  0  0
   52.1687  -18.5340   -6.0199 H   0  0  0  0  0  0  0  0  0  0  0  0
   48.5087  -19.3371   -6.8460 H   0  0  0  0  0  0  0  0  0  0  0  0
   50.9929  -19.5871  -13.2322 H   0  0  0  0  0  0  0  0  0  0  0  0
   50.5723  -17.9126  -12.8108 H   0  0  0  0  0  0  0  0  0  0  0  0
   52.2456  -18.3552  -13.2184 H   0  0  0  0  0  0  0  0  0  0  0  0
   46.3024  -14.8966   -6.7647 H   0  0  0  0  0  0  0  0  0  0  0  0
   52.0567  -13.6262   -5.3002 H   0  0  0  0  0  0  0  0  0  0  0  0
   46.1033  -19.1555   -6.3106 H   0  0  0  0  0  0  0  0  0  0  0  0
   53.7860  -17.4655   -4.4863 H   0  0  0  0  0  0  0  0  0  0  0  0
   45.0002  -16.9324   -6.2908 H   0  0  0  0  0  0  0  0  0  0  0  0
   53.7313  -15.0089   -4.1386 H   0  0  0  0  0  0  0  0  0  0  0  0
  2  1  1  0
  3  1  1  0
  4  1  2  3
  5  9  1  0
  6  8  1  0
  7 13  1  0
  8  3  2  0
  9  2  2  0
 10  4  1  0
 11  4  1  0
 12 10  1  0
 13 11  1  0
 14  2  1  0
 15  3  1  0
 16  7  1  0
 17  8  1  0
 18  9  1  0
 19 15  2  0
 20 14  2  0
 21 19  1  0
 22 20  1  0
  7 12  1  0
  6  5  2  0
 21 17  2  0
 22 18  2  0
  5 23  1  0
  6 24  1  0
 10 25  1  0
 10 26  1  0
 11 27  1  0
 11 28  1  0
 12 29  1  0
 12 30  1  0
 13 31  1  0
 13 32  1  0
 14 33  1  0
 15 34  1  0
 16 35  1  0
 16 36  1  0
 16 37  1  0
 17 38  1  0
 18 39  1  0
 19 40  1  0
 20 41  1  0
 21 42  1  0
 22 43  1  0
M  END
> <Uni-Dock RESULT> 
ENERGY=   -6.283  LOWER_BOUND=    0.000  UPPER_BOUND=    0.000
INTER + INTRA:          -6.283
INTER:                  -6.283
INTRA:                   0.000
UNBOUND:                 0.000

$$$$

     RDKit          3D

 43 46  0  0  0  0  0  0  0  0999 V2000
   48.0539  -17.1277   -7.9754 C   0  0  0  0  0  0  0  0  0  0  0  0
   47.4733  -18.1283   -7.0434 C   0  0  0  0  0  0  0  0  0  0  0  0
   49.0719  -16.1893   -7.4365 C   0  0  0  0  0  0  0  0  0  0  0  0
   47.7741  -17.1787   -9.3062 C   0  0  0  0  0  0  0  0  0  0  0  0
   49.7642  -19.1454   -6.6388 C   0  0  0  0  0  0  0  0  0  0  0  0
   50.6109  -18.1239   -6.8593 C   0  0  0  0  0  0  0  0  0  0  0  0
   47.1935  -17.3844  -12.2799 N   0  0  0  0  0  0  0  0  0  0  0  0
   50.2775  -16.6868   -6.9026 C   0  0  0  0  0  0  0  0  0  0  0  0
   48.3090  -19.0659   -6.4027 C   0  0  0  0  0  0  0  0  0  0  0  0
   48.4108  -16.2697  -10.3523 C   0  0  0  0  0  0  0  0  0  0  0  0
   46.8470  -18.2153   -9.9360 C   0  0  0  0  0  0  0  0  0  0  0  0
   47.5256  -16.1197  -11.6019 C   0  0  0  0  0  0  0  0  0  0  0  0
   47.2684  -18.5469  -11.3770 C   0  0  0  0  0  0  0  0  0  0  0  0
   46.0962  -18.1147   -6.7683 C   0  0  0  0  0  0  0  0  0  0  0  0
   48.8066  -14.8111   -7.3896 C   0  0  0  0  0  0  0  0  0  0  0  0
   48.0192  -17.6025  -13.4647 C   0  0  0  0  0  0  0  0  0  0  0  0
   51.2270  -15.7775   -6.4092 C   0  0  0  0  0  0  0  0  0  0  0  0
   47.7299  -20.0073   -5.5375 C   0  0  0  0  0  0  0  0  0  0  0  0
   49.7534  -13.9228   -6.8805 C   0  0  0  0  0  0  0  0  0  0  0  0
   45.5405  -19.0488   -5.8950 C   0  0  0  0  0  0  0  0  0  0  0  0
   50.9671  -14.4051   -6.3999 C   0  0  0  0  0  0  0  0  0  0  0  0
   46.3559  -19.9974   -5.2842 C   0  0  0  0  0  0  0  0  0  0  0  0
   50.1778  -20.1515   -6.6090 H   0  0  0  0  0  0  0  0  0  0  0  0
   51.6652  -18.3549   -6.9948 H   0  0  0  0  0  0  0  0  0  0  0  0
   48.5939  -15.2649   -9.9642 H   0  0  0  0  0  0  0  0  0  0  0  0
   49.3820  -16.6900  -10.6434 H   0  0  0  0  0  0  0  0  0  0  0  0
   45.8206  -17.8279   -9.9340 H   0  0  0  0  0  0  0  0  0  0  0  0
   46.8496  -19.1539   -9.3715 H   0  0  0  0  0  0  0  0  0  0  0  0
   46.5779  -15.6536  -11.3001 H   0  0  0  0  0  0  0  0  0  0  0  0
   47.9894  -15.4064  -12.2949 H   0  0  0  0  0  0  0  0  0  0  0  0
   46.6135  -19.3346  -11.7679 H   0  0  0  0  0  0  0  0  0  0  0  0
   48.2867  -18.9600  -11.3530 H   0  0  0  0  0  0  0  0  0  0  0  0
   45.4535  -17.3740   -7.2381 H   0  0  0  0  0  0  0  0  0  0  0  0
   47.8562  -14.4268   -7.7520 H   0  0  0  0  0  0  0  0  0  0  0  0
   47.8757  -16.7918  -14.1881 H   0  0  0  0  0  0  0  0  0  0  0  0
   49.0856  -17.6614  -13.2195 H   0  0  0  0  0  0  0  0  0  0  0  0
   47.7284  -18.5292  -13.9722 H   0  0  0  0  0  0  0  0  0  0  0  0
   52.1726  -16.1343   -6.0068 H   0  0  0  0  0  0  0  0  0  0  0  0
   48.3488  -20.7511   -5.0404 H   0  0  0  0  0  0  0  0  0  0  0  0
   49.5416  -12.8572   -6.8570 H   0  0  0  0  0  0  0  0  0  0  0  0
   44.4730  -19.0345   -5.6919 H   0  0  0  0  0  0  0  0  0  0  0  0
   51.7080  -13.7157   -6.0032 H   0  0  0  0  0  0  0  0  0  0  0  0
   45.9251  -20.7275   -4.6039 H   0  0  0  0  0  0  0  0  0  0  0  0
  2  1  1  0
  3  1  1  0
  4  1  2  3
  5  9  1  0
  6  8  1  0
  7 13  1  0
  8  3  2  0
  9  2  2  0
 10  4  1  0
 11  4  1  0
 12 10  1  0
 13 11  1  0
 14  2  1  0
 15  3  1  0
 16  7  1  0
 17  8  1  0
 18  9  1  0
 19 15  2  0
 20 14  2  0
 21 19  1  0
 22 20  1  0
  7 12  1  0
  6  5  2  0
 21 17  2  0
 22 18  2  0
  5 23  1  0
  6 24  1  0
 10 25  1  0
 10 26  1  0
 11 27  1  0
 11 28  1  0
 12 29  1  0
 12 30  1  0
 13 31  1  0
 13 32  1  0
 14 33  1  0
 15 34  1  0
 16 35  1  0
 16 36  1  0
 16 37  1  0
 17 38  1  0
 18 39  1  0
 19 40  1  0
 20 41  1  0
 21 42  1  0
 22 43  1  0
M  END
> <Uni-Dock RESULT> 
ENERGY=   -5.253  LOWER_BOUND=    2.235  UPPER_BOUND=    4.857
INTER + INTRA:          -5.253
INTER:                  -5.253
INTRA:                   0.000
UNBOUND:                 0.000

$$$$

     RDKit          3D

 43 46  0  0  0  0  0  0  0  0999 V2000
   50.4657  -17.4060   -7.5519 C   0  0  0  0  0  0  0  0  0  0  0  0
   49.0435  -17.0179   -7.3675 C   0  0  0  0  0  0  0  0  0  0  0  0
   51.2612  -17.7166   -6.3361 C   0  0  0  0  0  0  0  0  0  0  0  0
   50.9680  -17.6187   -8.7986 C   0  0  0  0  0  0  0  0  0  0  0  0
   48.5268  -19.2577   -6.2890 C   0  0  0  0  0  0  0  0  0  0  0  0
   49.7024  -19.6338   -5.7546 C   0  0  0  0  0  0  0  0  0  0  0  0
   52.0225  -18.1699  -11.5926 N   0  0  0  0  0  0  0  0  0  0  0  0
   50.8741  -18.7759   -5.4912 C   0  0  0  0  0  0  0  0  0  0  0  0
   48.1433  -17.9070   -6.7454 C   0  0  0  0  0  0  0  0  0  0  0  0
   52.3774  -18.1290   -9.0801 C   0  0  0  0  0  0  0  0  0  0  0  0
   50.1516  -17.4553  -10.0782 C   0  0  0  0  0  0  0  0  0  0  0  0
   52.8718  -17.7167  -10.4777 C   0  0  0  0  0  0  0  0  0  0  0  0
   50.6297  -18.4168  -11.1785 C   0  0  0  0  0  0  0  0  0  0  0  0
   48.6040  -15.7483   -7.7762 C   0  0  0  0  0  0  0  0  0  0  0  0
   52.3571  -16.9115   -5.9852 C   0  0  0  0  0  0  0  0  0  0  0  0
   52.5753  -19.3471  -12.2573 C   0  0  0  0  0  0  0  0  0  0  0  0
   51.6494  -19.0546   -4.3542 C   0  0  0  0  0  0  0  0  0  0  0  0
   46.8029  -17.5177   -6.5968 C   0  0  0  0  0  0  0  0  0  0  0  0
   53.1067  -17.1915   -4.8430 C   0  0  0  0  0  0  0  0  0  0  0  0
   47.2717  -15.3733   -7.6077 C   0  0  0  0  0  0  0  0  0  0  0  0
   52.7589  -18.2687   -4.0336 C   0  0  0  0  0  0  0  0  0  0  0  0
   46.3710  -16.2593   -7.0232 C   0  0  0  0  0  0  0  0  0  0  0  0
   47.7494  -20.0122   -6.3900 H   0  0  0  0  0  0  0  0  0  0  0  0
   49.8155  -20.6717   -5.4494 H   0  0  0  0  0  0  0  0  0  0  0  0
   53.1023  -17.7489   -8.3565 H   0  0  0  0  0  0  0  0  0  0  0  0
   52.3803  -19.2238   -9.0021 H   0  0  0  0  0  0  0  0  0  0  0  0
   50.2404  -16.4205  -10.4315 H   0  0  0  0  0  0  0  0  0  0  0  0
   49.0890  -17.6585   -9.9069 H   0  0  0  0  0  0  0  0  0  0  0  0
   52.9086  -16.6199  -10.5216 H   0  0  0  0  0  0  0  0  0  0  0  0
   53.9105  -18.0452  -10.6096 H   0  0  0  0  0  0  0  0  0  0  0  0
   49.9806  -18.3066  -12.0554 H   0  0  0  0  0  0  0  0  0  0  0  0
   50.5050  -19.4469  -10.8157 H   0  0  0  0  0  0  0  0  0  0  0  0
   49.3027  -15.0491   -8.2295 H   0  0  0  0  0  0  0  0  0  0  0  0
   52.6287  -16.0607   -6.6054 H   0  0  0  0  0  0  0  0  0  0  0  0
   53.5681  -19.1274  -12.6660 H   0  0  0  0  0  0  0  0  0  0  0  0
   52.6635  -20.2018  -11.5771 H   0  0  0  0  0  0  0  0  0  0  0  0
   51.9466  -19.6420  -13.1051 H   0  0  0  0  0  0  0  0  0  0  0  0
   51.3819  -19.8771   -3.6944 H   0  0  0  0  0  0  0  0  0  0  0  0
   46.0835  -18.1890   -6.1330 H   0  0  0  0  0  0  0  0  0  0  0  0
   53.9583  -16.5675   -4.5853 H   0  0  0  0  0  0  0  0  0  0  0  0
   46.9389  -14.3909   -7.9318 H   0  0  0  0  0  0  0  0  0  0  0  0
   53.3413  -18.4907   -3.1431 H   0  0  0  0  0  0  0  0  0  0  0  0
   45.3315  -15.9699   -6.8918 H   0  0  0  0  0  0  0  0  0  0  0  0
  2  1  1  0
  3  1  1  0
  4  1  2  3
  5  9  1  0
  6  8  1  0
  7 13  1  0
  8  3  2  0
  9  2  2  0
 10  4  1  0
 11  4  1  0
 12 10  1  0
 13 11  1  0
 14  2  1  0
 15  3  1  0
 16  7  1  0
 17  8  1  0
 18  9  1  0
 19 15  2  0
 20 14  2  0
 21 19  1  0
 22 20  1  0
  7 12  1  0
  6  5  2  0
 21 17  2  0
 22 18  2  0
  5 23  1  0
  6 24  1  0
 10 25  1  0
 10 26  1  0
 11 27  1  0
 11 28  1  0
 12 29  1  0
 12 30  1  0
 13 31  1  0
 13 32  1  0
 14 33  1  0
 15 34  1  0
 16 35  1  0
 16 36  1  0
 16 37  1  0
 17 38  1  0
 18 39  1  0
 19 40  1  0
 20 41  1  0
 21 42  1  0
 22 43  1  0
M  END
> <Uni-Dock RESULT> 
ENERGY=   -5.072  LOWER_BOUND=    1.170  UPPER_BOUND=    4.454
INTER + INTRA:          -5.072
INTER:                  -5.072
INTRA:                   0.000
UNBOUND:                 0.000

$$$$

     RDKit          3D

 43 46  0  0  0  0  0  0  0  0999 V2000
   47.0776  -15.9664  -10.7125 C   0  0  0  0  0  0  0  0  0  0  0  0
   45.9128  -15.4872  -11.5003 C   0  0  0  0  0  0  0  0  0  0  0  0
   46.8623  -16.2694   -9.2740 C   0  0  0  0  0  0  0  0  0  0  0  0
   48.2540  -16.2633  -11.3289 C   0  0  0  0  0  0  0  0  0  0  0  0
   44.6549  -17.6427  -11.0333 C   0  0  0  0  0  0  0  0  0  0  0  0
   45.1658  -18.0637   -9.8625 C   0  0  0  0  0  0  0  0  0  0  0  0
   50.8310  -16.9987  -12.7573 N   0  0  0  0  0  0  0  0  0  0  0  0
   45.9413  -17.2656   -8.8930 C   0  0  0  0  0  0  0  0  0  0  0  0
   44.7625  -16.2933  -11.6224 C   0  0  0  0  0  0  0  0  0  0  0  0
   49.4635  -16.8679  -10.6235 C   0  0  0  0  0  0  0  0  0  0  0  0
   48.4843  -16.1087  -12.8301 C   0  0  0  0  0  0  0  0  0  0  0  0
   50.7782  -16.5477  -11.3561 C   0  0  0  0  0  0  0  0  0  0  0  0
   49.4919  -17.1444  -13.3554 C   0  0  0  0  0  0  0  0  0  0  0  0
   45.9411  -14.2132  -12.0904 C   0  0  0  0  0  0  0  0  0  0  0  0
   47.5196  -15.5158   -8.2880 C   0  0  0  0  0  0  0  0  0  0  0  0
   51.5950  -18.2347  -12.9052 C   0  0  0  0  0  0  0  0  0  0  0  0
   45.7645  -17.5392   -7.5272 C   0  0  0  0  0  0  0  0  0  0  0  0
   43.6828  -15.8193  -12.3840 C   0  0  0  0  0  0  0  0  0  0  0  0
   47.3199  -15.7888   -6.9351 C   0  0  0  0  0  0  0  0  0  0  0  0
   44.8535  -13.7531  -12.8316 C   0  0  0  0  0  0  0  0  0  0  0  0
   46.4504  -16.8068   -6.5554 C   0  0  0  0  0  0  0  0  0  0  0  0
   43.7275  -14.5576  -12.9825 C   0  0  0  0  0  0  0  0  0  0  0  0
   44.0785  -18.3538  -11.6218 H   0  0  0  0  0  0  0  0  0  0  0  0
   44.9757  -19.0920   -9.5629 H   0  0  0  0  0  0  0  0  0  0  0  0
   49.5666  -16.4996   -9.6001 H   0  0  0  0  0  0  0  0  0  0  0  0
   49.3343  -17.9564  -10.5681 H   0  0  0  0  0  0  0  0  0  0  0  0
   48.8578  -15.0975  -13.0341 H   0  0  0  0  0  0  0  0  0  0  0  0
   47.5559  -16.2410  -13.3959 H   0  0  0  0  0  0  0  0  0  0  0  0
   50.9153  -15.4580  -11.3595 H   0  0  0  0  0  0  0  0  0  0  0  0
   51.6238  -16.9424  -10.7788 H   0  0  0  0  0  0  0  0  0  0  0  0
   49.5820  -17.0349  -14.4427 H   0  0  0  0  0  0  0  0  0  0  0  0
   49.0854  -18.1482  -13.1676 H   0  0  0  0  0  0  0  0  0  0  0  0
   46.8153  -13.5772  -11.9732 H   0  0  0  0  0  0  0  0  0  0  0  0
   48.1916  -14.7107   -8.5755 H   0  0  0  0  0  0  0  0  0  0  0  0
   52.6268  -18.0923  -12.5645 H   0  0  0  0  0  0  0  0  0  0  0  0
   51.1551  -19.0622  -12.3372 H   0  0  0  0  0  0  0  0  0  0  0  0
   51.6517  -18.5292  -13.9592 H   0  0  0  0  0  0  0  0  0  0  0  0
   45.0719  -18.3145   -7.2069 H   0  0  0  0  0  0  0  0  0  0  0  0
   42.7881  -16.4258  -12.5066 H   0  0  0  0  0  0  0  0  0  0  0  0
   47.8403  -15.2055   -6.1803 H   0  0  0  0  0  0  0  0  0  0  0  0
   44.8859  -12.7680  -13.2893 H   0  0  0  0  0  0  0  0  0  0  0  0
   46.2929  -17.0233   -5.5018 H   0  0  0  0  0  0  0  0  0  0  0  0
   42.8787  -14.2019  -13.5609 H   0  0  0  0  0  0  0  0  0  0  0  0
  2  1  1  0
  3  1  1  0
  4  1  2  3
  5  9  1  0
  6  8  1  0
  7 13  1  0
  8  3  2  0
  9  2  2  0
 10  4  1  0
 11  4  1  0
 12 10  1  0
 13 11  1  0
 14  2  1  0
 15  3  1  0
 16  7  1  0
 17  8  1  0
 18  9  1  0
 19 15  2  0
 20 14  2  0
 21 19  1  0
 22 20  1  0
  7 12  1  0
  6  5  2  0
 21 17  2  0
 22 18  2  0
  5 23  1  0
  6 24  1  0
 10 25  1  0
 10 26  1  0
 11 27  1  0
 11 28  1  0
 12 29  1  0
 12 30  1  0
 13 31  1  0
 13 32  1  0
 14 33  1  0
 15 34  1  0
 16 35  1  0
 16 36  1  0
 16 37  1  0
 17 38  1  0
 18 39  1  0
 19 40  1  0
 20 41  1  0
 21 42  1  0
 22 43  1  0
M  END
> <Uni-Dock RESULT> 
ENERGY=   -4.899  LOWER_BOUND=    3.859  UPPER_BOUND=    6.232
INTER + INTRA:          -4.899
INTER:                  -4.899
INTRA:                   0.000
UNBOUND:                 0.000

$$$$

     RDKit          3D

 43 46  0  0  0  0  0  0  0  0999 V2000
   50.6213  -17.3135   -7.7628 C   0  0  0  0  0  0  0  0  0  0  0  0
   50.7638  -18.1603   -8.9751 C   0  0  0  0  0  0  0  0  0  0  0  0
   49.2521  -16.8882   -7.3730 C   0  0  0  0  0  0  0  0  0  0  0  0
   51.6920  -17.0727   -6.9581 C   0  0  0  0  0  0  0  0  0  0  0  0
   49.3321  -19.9769   -7.9277 C   0  0  0  0  0  0  0  0  0  0  0  0
   48.5414  -19.3064   -7.0709 C   0  0  0  0  0  0  0  0  0  0  0  0
   54.0875  -16.6353   -5.1437 N   0  0  0  0  0  0  0  0  0  0  0  0
   48.2765  -17.8545   -7.0563 C   0  0  0  0  0  0  0  0  0  0  0  0
   50.1246  -19.4153   -9.0397 C   0  0  0  0  0  0  0  0  0  0  0  0
   51.6190  -16.3145   -5.6368 C   0  0  0  0  0  0  0  0  0  0  0  0
   53.0946  -17.6085   -7.2344 C   0  0  0  0  0  0  0  0  0  0  0  0
   52.9701  -15.6827   -5.2588 C   0  0  0  0  0  0  0  0  0  0  0  0
   53.8681  -17.8623   -5.9302 C   0  0  0  0  0  0  0  0  0  0  0  0
   51.5023  -17.6932  -10.0744 C   0  0  0  0  0  0  0  0  0  0  0  0
   48.9042  -15.5278   -7.3897 C   0  0  0  0  0  0  0  0  0  0  0  0
   54.3831  -16.9654   -3.7519 C   0  0  0  0  0  0  0  0  0  0  0  0
   46.9934  -17.4251   -6.6813 C   0  0  0  0  0  0  0  0  0  0  0  0
   50.2882  -20.1987  -10.1929 C   0  0  0  0  0  0  0  0  0  0  0  0
   47.6201  -15.1190   -7.0309 C   0  0  0  0  0  0  0  0  0  0  0  0
   51.6424  -18.4792  -11.2175 C   0  0  0  0  0  0  0  0  0  0  0  0
   46.6683  -16.0667   -6.6672 C   0  0  0  0  0  0  0  0  0  0  0  0
   51.0401  -19.7329  -11.2745 C   0  0  0  0  0  0  0  0  0  0  0  0
   49.3972  -21.0578   -7.8203 H   0  0  0  0  0  0  0  0  0  0  0  0
   48.0065  -19.8783   -6.3158 H   0  0  0  0  0  0  0  0  0  0  0  0
   50.8831  -15.5075   -5.6683 H   0  0  0  0  0  0  0  0  0  0  0  0
   51.3089  -17.0093   -4.8459 H   0  0  0  0  0  0  0  0  0  0  0  0
   53.6415  -16.8834   -7.8499 H   0  0  0  0  0  0  0  0  0  0  0  0
   53.0632  -18.5552   -7.7843 H   0  0  0  0  0  0  0  0  0  0  0  0
   53.2411  -14.9555   -6.0360 H   0  0  0  0  0  0  0  0  0  0  0  0
   52.8537  -15.0929   -4.3408 H   0  0  0  0  0  0  0  0  0  0  0  0
   54.8438  -18.2996   -6.1734 H   0  0  0  0  0  0  0  0  0  0  0  0
   53.3191  -18.6118   -5.3429 H   0  0  0  0  0  0  0  0  0  0  0  0
   51.9720  -16.7130  -10.0391 H   0  0  0  0  0  0  0  0  0  0  0  0
   49.6382  -14.7815   -7.6842 H   0  0  0  0  0  0  0  0  0  0  0  0
   54.6581  -16.0639   -3.1928 H   0  0  0  0  0  0  0  0  0  0  0  0
   53.5307  -17.4365   -3.2495 H   0  0  0  0  0  0  0  0  0  0  0  0
   55.2406  -17.6450   -3.6905 H   0  0  0  0  0  0  0  0  0  0  0  0
   46.2267  -18.1499   -6.4160 H   0  0  0  0  0  0  0  0  0  0  0  0
   49.8179  -21.1769  -10.2645 H   0  0  0  0  0  0  0  0  0  0  0  0
   47.3638  -14.0629   -7.0387 H   0  0  0  0  0  0  0  0  0  0  0  0
   52.2201  -18.1121  -12.0615 H   0  0  0  0  0  0  0  0  0  0  0  0
   45.6666  -15.7519   -6.3860 H   0  0  0  0  0  0  0  0  0  0  0  0
   51.1488  -20.3483  -12.1639 H   0  0  0  0  0  0  0  0  0  0  0  0
  2  1  1  0
  3  1  1  0
  4  1  2  3
  5  9  1  0
  6  8  1  0
  7 13  1  0
  8  3  2  0
  9  2  2  0
 10  4  1  0
 11  4  1  0
 12 10  1  0
 13 11  1  0
 14  2  1  0
 15  3  1  0
 16  7  1  0
 17  8  1  0
 18  9  1  0
 19 15  2  0
 20 14  2  0
 21 19  1  0
 22 20  1  0
  7 12  1  0
  6  5  2  0
 21 17  2  0
 22 18  2  0
  5 23  1  0
  6 24  1  0
 10 25  1  0
 10 26  1  0
 11 27  1  0
 11 28  1  0
 12 29  1  0
 12 30  1  0
 13 31  1  0
 13 32  1  0
 14 33  1  0
 15 34  1  0
 16 35  1  0
 16 36  1  0
 16 37  1  0
 17 38  1  0
 18 39  1  0
 19 40  1  0
 20 41  1  0
 21 42  1  0
 22 43  1  0
M  END
> <Uni-Dock RESULT> 
ENERGY=   -4.597  LOWER_BOUND=    1.856  UPPER_BOUND=    4.986
INTER + INTRA:          -4.597
INTER:                  -4.597
INTRA:                   0.000
UNBOUND:                 0.000

$$$$

     RDKit          3D

 43 46  0  0  0  0  0  0  0  0999 V2000
   49.6229  -16.8078   -8.4425 C   0  0  0  0  0  0  0  0  0  0  0  0
   50.4859  -16.2478   -7.3707 C   0  0  0  0  0  0  0  0  0  0  0  0
   50.2830  -17.2750   -9.6889 C   0  0  0  0  0  0  0  0  0  0  0  0
   48.2981  -17.0256   -8.2201 C   0  0  0  0  0  0  0  0  0  0  0  0
   51.7336  -18.4495   -7.1649 C   0  0  0  0  0  0  0  0  0  0  0  0
   51.6156  -18.9992   -8.3868 C   0  0  0  0  0  0  0  0  0  0  0  0
   45.3668  -17.5781   -7.6506 N   0  0  0  0  0  0  0  0  0  0  0  0
   51.2343  -18.3133   -9.6368 C   0  0  0  0  0  0  0  0  0  0  0  0
   51.4975  -17.0408   -6.7914 C   0  0  0  0  0  0  0  0  0  0  0  0
   47.3605  -17.7004   -9.2159 C   0  0  0  0  0  0  0  0  0  0  0  0
   47.5969  -16.6986   -6.9040 C   0  0  0  0  0  0  0  0  0  0  0  0
   45.8937  -17.2911   -8.9958 C   0  0  0  0  0  0  0  0  0  0  0  0
   46.4295  -17.6616   -6.6328 C   0  0  0  0  0  0  0  0  0  0  0  0
   50.3211  -14.9144   -6.9621 C   0  0  0  0  0  0  0  0  0  0  0  0
   50.0168  -16.6358  -10.9107 C   0  0  0  0  0  0  0  0  0  0  0  0
   44.5441  -18.7848   -7.6319 C   0  0  0  0  0  0  0  0  0  0  0  0
   51.8356  -18.7427  -10.8308 C   0  0  0  0  0  0  0  0  0  0  0  0
   52.2885  -16.4886   -5.7717 C   0  0  0  0  0  0  0  0  0  0  0  0
   50.6356  -17.0633  -12.0850 C   0  0  0  0  0  0  0  0  0  0  0  0
   51.1256  -14.3783   -5.9574 C   0  0  0  0  0  0  0  0  0  0  0  0
   51.5369  -18.1228  -12.0465 C   0  0  0  0  0  0  0  0  0  0  0  0
   52.1050  -15.1664   -5.3593 C   0  0  0  0  0  0  0  0  0  0  0  0
   52.0550  -19.0916   -6.3473 H   0  0  0  0  0  0  0  0  0  0  0  0
   51.8487  -20.0561   -8.4957 H   0  0  0  0  0  0  0  0  0  0  0  0
   47.6133  -17.4514  -10.2492 H   0  0  0  0  0  0  0  0  0  0  0  0
   47.4539  -18.7888   -9.1093 H   0  0  0  0  0  0  0  0  0  0  0  0
   47.2210  -15.6686   -6.9434 H   0  0  0  0  0  0  0  0  0  0  0  0
   48.2830  -16.7702   -6.0533 H   0  0  0  0  0  0  0  0  0  0  0  0
   45.8099  -16.2074   -9.1538 H   0  0  0  0  0  0  0  0  0  0  0  0
   45.2669  -17.7448   -9.7739 H   0  0  0  0  0  0  0  0  0  0  0  0
   45.9940  -17.4276   -5.6541 H   0  0  0  0  0  0  0  0  0  0  0  0
   46.8315  -18.6826   -6.5682 H   0  0  0  0  0  0  0  0  0  0  0  0
   49.5613  -14.2913   -7.4277 H   0  0  0  0  0  0  0  0  0  0  0  0
   49.3230  -15.7994  -10.9480 H   0  0  0  0  0  0  0  0  0  0  0  0
   43.6873  -18.6767   -8.3065 H   0  0  0  0  0  0  0  0  0  0  0  0
   45.1095  -19.6744   -7.9317 H   0  0  0  0  0  0  0  0  0  0  0  0
   44.1336  -18.9561   -6.6303 H   0  0  0  0  0  0  0  0  0  0  0  0
   52.5609  -19.5534  -10.8206 H   0  0  0  0  0  0  0  0  0  0  0  0
   53.0672  -17.0819   -5.2974 H   0  0  0  0  0  0  0  0  0  0  0  0
   50.4158  -16.5675  -13.0267 H   0  0  0  0  0  0  0  0  0  0  0  0
   50.9878  -13.3470   -5.6437 H   0  0  0  0  0  0  0  0  0  0  0  0
   52.0205  -18.4595  -12.9599 H   0  0  0  0  0  0  0  0  0  0  0  0
   52.7327  -14.7513   -4.5750 H   0  0  0  0  0  0  0  0  0  0  0  0
  2  1  1  0
  3  1  1  0
  4  1  2  3
  5  9  1  0
  6  8  1  0
  7 13  1  0
  8  3  2  0
  9  2  2  0
 10  4  1  0
 11  4  1  0
 12 10  1  0
 13 11  1  0
 14  2  1  0
 15  3  1  0
 16  7  1  0
 17  8  1  0
 18  9  1  0
 19 15  2  0
 20 14  2  0
 21 19  1  0
 22 20  1  0
  7 12  1  0
  6  5  2  0
 21 17  2  0
 22 18  2  0
  5 23  1  0
  6 24  1  0
 10 25  1  0
 10 26  1  0
 11 27  1  0
 11 28  1  0
 12 29  1  0
 12 30  1  0
 13 31  1  0
 13 32  1  0
 14 33  1  0
 15 34  1  0
 16 35  1  0
 16 36  1  0
 16 37  1  0
 17 38  1  0
 18 39  1  0
 19 40  1  0
 20 41  1  0
 21 42  1  0
 22 43  1  0
M  END
> <Uni-Dock RESULT> 
ENERGY=   -4.248  LOWER_BOUND=    2.123  UPPER_BOUND=    4.931
INTER + INTRA:          -4.248
INTER:                  -4.248
INTRA:                   0.000
UNBOUND:                 0.000

$$$$

     RDKit          3D

 43 46  0  0  0  0  0  0  0  0999 V2000
   46.3487  -16.0224  -10.9945 C   0  0  0  0  0  0  0  0  0  0  0  0
   47.2753  -15.9793   -9.8341 C   0  0  0  0  0  0  0  0  0  0  0  0
   46.6494  -15.1420  -12.1529 C   0  0  0  0  0  0  0  0  0  0  0  0
   45.3545  -16.9499  -11.0510 C   0  0  0  0  0  0  0  0  0  0  0  0
   49.2072  -16.7456  -11.2926 C   0  0  0  0  0  0  0  0  0  0  0  0
   48.8705  -16.3145  -12.5214 C   0  0  0  0  0  0  0  0  0  0  0  0
   43.2065  -19.0929  -11.1768 N   0  0  0  0  0  0  0  0  0  0  0  0
   47.8594  -15.2938  -12.8591 C   0  0  0  0  0  0  0  0  0  0  0  0
   48.6360  -16.3077  -10.0036 C   0  0  0  0  0  0  0  0  0  0  0  0
   44.4304  -17.1452  -12.2485 C   0  0  0  0  0  0  0  0  0  0  0  0
   45.0921  -17.9760   -9.9515 C   0  0  0  0  0  0  0  0  0  0  0  0
   43.0906  -17.7854  -11.8450 C   0  0  0  0  0  0  0  0  0  0  0  0
   44.5146  -19.2807  -10.5243 C   0  0  0  0  0  0  0  0  0  0  0  0
   46.8049  -15.5717   -8.5752 C   0  0  0  0  0  0  0  0  0  0  0  0
   45.7645  -14.1092  -12.5027 C   0  0  0  0  0  0  0  0  0  0  0  0
   42.9255  -20.1991  -12.0881 C   0  0  0  0  0  0  0  0  0  0  0  0
   48.1141  -14.4554  -13.9563 C   0  0  0  0  0  0  0  0  0  0  0  0
   49.4846  -16.2705   -8.8860 C   0  0  0  0  0  0  0  0  0  0  0  0
   46.0404  -13.2740  -13.5849 C   0  0  0  0  0  0  0  0  0  0  0  0
   47.6656  -15.5272   -7.4793 C   0  0  0  0  0  0  0  0  0  0  0  0
   47.2099  -13.4538  -14.3174 C   0  0  0  0  0  0  0  0  0  0  0  0
   49.0031  -15.8812   -7.6336 C   0  0  0  0  0  0  0  0  0  0  0  0
   49.9993  -17.4874  -11.2132 H   0  0  0  0  0  0  0  0  0  0  0  0
   49.4078  -16.7277  -13.3722 H   0  0  0  0  0  0  0  0  0  0  0  0
   44.1995  -16.2000  -12.7455 H   0  0  0  0  0  0  0  0  0  0  0  0
   44.9330  -17.7870  -12.9833 H   0  0  0  0  0  0  0  0  0  0  0  0
   44.3886  -17.5517   -9.2244 H   0  0  0  0  0  0  0  0  0  0  0  0
   46.0108  -18.2344   -9.4141 H   0  0  0  0  0  0  0  0  0  0  0  0
   42.5799  -17.1077  -11.1477 H   0  0  0  0  0  0  0  0  0  0  0  0
   42.4343  -17.8436  -12.7225 H   0  0  0  0  0  0  0  0  0  0  0  0
   44.3973  -20.0064   -9.7107 H   0  0  0  0  0  0  0  0  0  0  0  0
   45.2465  -19.7035  -11.2270 H   0  0  0  0  0  0  0  0  0  0  0  0
   45.7625  -15.2894   -8.4478 H   0  0  0  0  0  0  0  0  0  0  0  0
   44.8542  -13.9540  -11.9285 H   0  0  0  0  0  0  0  0  0  0  0  0
   41.9076  -20.1203  -12.4865 H   0  0  0  0  0  0  0  0  0  0  0  0
   43.6249  -20.2270  -12.9313 H   0  0  0  0  0  0  0  0  0  0  0  0
   42.9811  -21.1576  -11.5598 H   0  0  0  0  0  0  0  0  0  0  0  0
   49.0330  -14.5626  -14.5285 H   0  0  0  0  0  0  0  0  0  0  0  0
   50.5358  -16.5323   -8.9848 H   0  0  0  0  0  0  0  0  0  0  0  0
   45.3446  -12.4834  -13.8526 H   0  0  0  0  0  0  0  0  0  0  0  0
   47.2919  -15.2157   -6.5075 H   0  0  0  0  0  0  0  0  0  0  0  0
   47.4281  -12.8054  -15.1622 H   0  0  0  0  0  0  0  0  0  0  0  0
   49.6760  -15.8486   -6.7806 H   0  0  0  0  0  0  0  0  0  0  0  0
  2  1  1  0
  3  1  1  0
  4  1  2  3
  5  9  1  0
  6  8  1  0
  7 13  1  0
  8  3  2  0
  9  2  2  0
 10  4  1  0
 11  4  1  0
 12 10  1  0
 13 11  1  0
 14  2  1  0
 15  3  1  0
 16  7  1  0
 17  8  1  0
 18  9  1  0
 19 15  2  0
 20 14  2  0
 21 19  1  0
 22 20  1  0
  7 12  1  0
  6  5  2  0
 21 17  2  0
 22 18  2  0
  5 23  1  0
  6 24  1  0
 10 25  1  0
 10 26  1  0
 11 27  1  0
 11 28  1  0
 12 29  1  0
 12 30  1  0
 13 31  1  0
 13 32  1  0
 14 33  1  0
 15 34  1  0
 16 35  1  0
 16 36  1  0
 16 37  1  0
 17 38  1  0
 18 39  1  0
 19 40  1  0
 20 41  1  0
 21 42  1  0
 22 43  1  0
M  END
> <Uni-Dock RESULT> 
ENERGY=   -4.146  LOWER_BOUND=    4.855  UPPER_BOUND=    6.617
INTER + INTRA:          -4.146
INTER:                  -4.146
INTRA:                   0.000
UNBOUND:                 0.000

$$$$

     RDKit          3D

 43 46  0  0  0  0  0  0  0  0999 V2000
   50.0077  -18.1505   -7.5098 C   0  0  0  0  0  0  0  0  0  0  0  0
   48.7038  -18.5244   -6.9039 C   0  0  0  0  0  0  0  0  0  0  0  0
   50.0071  -17.6870   -8.9215 C   0  0  0  0  0  0  0  0  0  0  0  0
   51.1323  -18.0882   -6.7461 C   0  0  0  0  0  0  0  0  0  0  0  0
   47.8140  -16.1735   -7.2621 C   0  0  0  0  0  0  0  0  0  0  0  0
   48.5120  -15.7254   -8.3208 C   0  0  0  0  0  0  0  0  0  0  0  0
   53.5982  -17.8752   -4.9865 N   0  0  0  0  0  0  0  0  0  0  0  0
   49.2813  -16.5353   -9.2855 C   0  0  0  0  0  0  0  0  0  0  0  0
   47.6671  -17.5729   -6.8151 C   0  0  0  0  0  0  0  0  0  0  0  0
   52.4875  -17.6051   -7.2522 C   0  0  0  0  0  0  0  0  0  0  0  0
   51.1605  -18.4136   -5.2548 C   0  0  0  0  0  0  0  0  0  0  0  0
   53.6507  -18.1816   -6.4262 C   0  0  0  0  0  0  0  0  0  0  0  0
   52.2300  -17.5904   -4.5183 C   0  0  0  0  0  0  0  0  0  0  0  0
   48.4891  -19.8379   -6.4560 C   0  0  0  0  0  0  0  0  0  0  0  0
   50.6679  -18.4343   -9.9099 C   0  0  0  0  0  0  0  0  0  0  0  0
   54.4999  -16.7840   -4.6267 C   0  0  0  0  0  0  0  0  0  0  0  0
   49.3058  -16.1132  -10.6245 C   0  0  0  0  0  0  0  0  0  0  0  0
   46.4508  -17.9517   -6.2257 C   0  0  0  0  0  0  0  0  0  0  0  0
   50.6685  -18.0105  -11.2385 C   0  0  0  0  0  0  0  0  0  0  0  0
   47.2692  -20.2000   -5.8861 C   0  0  0  0  0  0  0  0  0  0  0  0
   49.9961  -16.8451  -11.5936 C   0  0  0  0  0  0  0  0  0  0  0  0
   46.2529  -19.2562   -5.7664 C   0  0  0  0  0  0  0  0  0  0  0  0
   47.2739  -15.4432   -6.6629 H   0  0  0  0  0  0  0  0  0  0  0  0
   48.5000  -14.6570   -8.5250 H   0  0  0  0  0  0  0  0  0  0  0  0
   52.6599  -17.8879   -8.2933 H   0  0  0  0  0  0  0  0  0  0  0  0
   52.5145  -16.5090   -7.2021 H   0  0  0  0  0  0  0  0  0  0  0  0
   51.3666  -19.4832   -5.1242 H   0  0  0  0  0  0  0  0  0  0  0  0
   50.1983  -18.1993   -4.7774 H   0  0  0  0  0  0  0  0  0  0  0  0
   53.6374  -19.2752   -6.5270 H   0  0  0  0  0  0  0  0  0  0  0  0
   54.6043  -17.8636   -6.8663 H   0  0  0  0  0  0  0  0  0  0  0  0
   52.1753  -17.8124   -3.4459 H   0  0  0  0  0  0  0  0  0  0  0  0
   51.9885  -16.5247   -4.6371 H   0  0  0  0  0  0  0  0  0  0  0  0
   49.2766  -20.5818   -6.5502 H   0  0  0  0  0  0  0  0  0  0  0  0
   51.1858  -19.3525   -9.6433 H   0  0  0  0  0  0  0  0  0  0  0  0
   55.5358  -17.0442   -4.8719 H   0  0  0  0  0  0  0  0  0  0  0  0
   54.2465  -15.8517   -5.1440 H   0  0  0  0  0  0  0  0  0  0  0  0
   54.4710  -16.6001   -3.5467 H   0  0  0  0  0  0  0  0  0  0  0  0
   48.7675  -15.2182  -10.9288 H   0  0  0  0  0  0  0  0  0  0  0  0
   45.6385  -17.2343   -6.1315 H   0  0  0  0  0  0  0  0  0  0  0  0
   51.1905  -18.5915  -11.9941 H   0  0  0  0  0  0  0  0  0  0  0  0
   47.1134  -21.2173   -5.5373 H   0  0  0  0  0  0  0  0  0  0  0  0
   49.9950  -16.5110  -12.6280 H   0  0  0  0  0  0  0  0  0  0  0  0
   45.3013  -19.5355   -5.3213 H   0  0  0  0  0  0  0  0  0  0  0  0
  2  1  1  0
  3  1  1  0
  4  1  2  3
  5  9  1  0
  6  8  1  0
  7 13  1  0
  8  3  2  0
  9  2  2  0
 10  4  1  0
 11  4  1  0
 12 10  1  0
 13 11  1  0
 14  2  1  0
 15  3  1  0
 16  7  1  0
 17  8  1  0
 18  9  1  0
 19 15  2  0
 20 14  2  0
 21 19  1  0
 22 20  1  0
  7 12  1  0
  6  5  2  0
 21 17  2  0
 22 18  2  0
  5 23  1  0
  6 24  1  0
 10 25  1  0
 10 26  1  0
 11 27  1  0
 11 28  1  0
 12 29  1  0
 12 30  1  0
 13 31  1  0
 13 32  1  0
 14 33  1  0
 15 34  1  0
 16 35  1  0
 16 36  1  0
 16 37  1  0
 17 38  1  0
 18 39  1  0
 19 40  1  0
 20 41  1  0
 21 42  1  0
 22 43  1  0
M  END
> <Uni-Dock RESULT> 
ENERGY=   -4.146  LOWER_BOUND=    2.107  UPPER_BOUND=    5.047
INTER + INTRA:          -4.146
INTER:                  -4.146
INTRA:                   0.000
UNBOUND:                 0.000

$$$$

     RDKit          3D

 43 46  0  0  0  0  0  0  0  0999 V2000
   45.9845  -15.2245  -11.9539 C   0  0  0  0  0  0  0  0  0  0  0  0
   46.9751  -15.6821  -10.9458 C   0  0  0  0  0  0  0  0  0  0  0  0
   46.3705  -14.0966  -12.8406 C   0  0  0  0  0  0  0  0  0  0  0  0
   44.8320  -15.9194  -12.1555 C   0  0  0  0  0  0  0  0  0  0  0  0
   48.6308  -16.2740  -12.7775 C   0  0  0  0  0  0  0  0  0  0  0  0
   48.3032  -15.4448  -13.7845 C   0  0  0  0  0  0  0  0  0  0  0  0
   42.3157  -17.5507  -12.6342 N   0  0  0  0  0  0  0  0  0  0  0  0
   47.4826  -14.2212  -13.6971 C   0  0  0  0  0  0  0  0  0  0  0  0
   48.2360  -16.1585  -11.3595 C   0  0  0  0  0  0  0  0  0  0  0  0
   43.8128  -15.5941  -13.2425 C   0  0  0  0  0  0  0  0  0  0  0  0
   44.4523  -17.1727  -11.3708 C   0  0  0  0  0  0  0  0  0  0  0  0
   42.4052  -16.1020  -12.8842 C   0  0  0  0  0  0  0  0  0  0  0  0
   43.6042  -18.1339  -12.2197 C   0  0  0  0  0  0  0  0  0  0  0  0
   46.6713  -15.6023   -9.5770 C   0  0  0  0  0  0  0  0  0  0  0  0
   45.6751  -12.8782  -12.7760 C   0  0  0  0  0  0  0  0  0  0  0  0
   41.7738  -18.2712  -13.7834 C   0  0  0  0  0  0  0  0  0  0  0  0
   47.8195  -13.1438  -14.5322 C   0  0  0  0  0  0  0  0  0  0  0  0
   49.1463  -16.5963  -10.3848 C   0  0  0  0  0  0  0  0  0  0  0  0
   46.0333  -11.8118  -13.6002 C   0  0  0  0  0  0  0  0  0  0  0  0
   47.5936  -16.0286   -8.6221 C   0  0  0  0  0  0  0  0  0  0  0  0
   47.0987  -11.9483  -14.4850 C   0  0  0  0  0  0  0  0  0  0  0  0
   48.8279  -16.5299   -9.0261 C   0  0  0  0  0  0  0  0  0  0  0  0
   49.2727  -17.1225  -13.0056 H   0  0  0  0  0  0  0  0  0  0  0  0
   48.6975  -15.6634  -14.7745 H   0  0  0  0  0  0  0  0  0  0  0  0
   43.7324  -14.5189  -13.4193 H   0  0  0  0  0  0  0  0  0  0  0  0
   44.1376  -16.0570  -14.1831 H   0  0  0  0  0  0  0  0  0  0  0  0
   43.8892  -16.8797  -10.4760 H   0  0  0  0  0  0  0  0  0  0  0  0
   45.3385  -17.7251  -11.0403 H   0  0  0  0  0  0  0  0  0  0  0  0
   42.0769  -15.5927  -11.9681 H   0  0  0  0  0  0  0  0  0  0  0  0
   41.6948  -15.7871  -13.6590 H   0  0  0  0  0  0  0  0  0  0  0  0
   43.4049  -19.0421  -11.6384 H   0  0  0  0  0  0  0  0  0  0  0  0
   44.1969  -18.4375  -13.0942 H   0  0  0  0  0  0  0  0  0  0  0  0
   45.7111  -15.2077   -9.2536 H   0  0  0  0  0  0  0  0  0  0  0  0
   44.8490  -12.7589  -12.0791 H   0  0  0  0  0  0  0  0  0  0  0  0
   40.7655  -17.9136  -14.0210 H   0  0  0  0  0  0  0  0  0  0  0  0
   42.4000  -18.1560  -14.6754 H   0  0  0  0  0  0  0  0  0  0  0  0
   41.6818  -19.3401  -13.5600 H   0  0  0  0  0  0  0  0  0  0  0  0
   48.6634  -13.2200  -15.2145 H   0  0  0  0  0  0  0  0  0  0  0  0
   50.1209  -16.9816  -10.6762 H   0  0  0  0  0  0  0  0  0  0  0  0
   45.4829  -10.8762  -13.5486 H   0  0  0  0  0  0  0  0  0  0  0  0
   47.3482  -15.9682   -7.5652 H   0  0  0  0  0  0  0  0  0  0  0  0
   47.3803  -11.1196  -15.1297 H   0  0  0  0  0  0  0  0  0  0  0  0
   49.5482  -16.8641   -8.2838 H   0  0  0  0  0  0  0  0  0  0  0  0
  2  1  1  0
  3  1  1  0
  4  1  2  3
  5  9  1  0
  6  8  1  0
  7 13  1  0
  8  3  2  0
  9  2  2  0
 10  4  1  0
 11  4  1  0
 12 10  1  0
 13 11  1  0
 14  2  1  0
 15  3  1  0
 16  7  1  0
 17  8  1  0
 18  9  1  0
 19 15  2  0
 20 14  2  0
 21 19  1  0
 22 20  1  0
  7 12  1  0
  6  5  2  0
 21 17  2  0
 22 18  2  0
  5 23  1  0
  6 24  1  0
 10 25  1  0
 10 26  1  0
 11 27  1  0
 11 28  1  0
 12 29  1  0
 12 30  1  0
 13 31  1  0
 13 32  1  0
 14 33  1  0
 15 34  1  0
 16 35  1  0
 16 36  1  0
 16 37  1  0
 17 38  1  0
 18 39  1  0
 19 40  1  0
 20 41  1  0
 21 42  1  0
 22 43  1  0
M  END
> <Uni-Dock RESULT> 
ENERGY=   -4.015  LOWER_BOUND=    5.847  UPPER_BOUND=    7.645
INTER + INTRA:          -4.015
INTER:                  -4.015
INTRA:                   0.000
UNBOUND:                 0.000

$$$$
