
     RDKit          3D

 43 46  0  0  0  0  0  0  0  0999 V2000
   50.2415  -17.2679   -7.4853 C   0  0  0  0  0  0  0  0  0  0  0  0
   48.7946  -17.1747   -7.1612 C   0  0  0  0  0  0  0  0  0  0  0  0
   51.2007  -16.6118   -6.5599 C   0  0  0  0  0  0  0  0  0  0  0  0
   50.6519  -17.7997   -8.6687 C   0  0  0  0  0  0  0  0  0  0  0  0
   48.8778  -14.6422   -7.3224 C   0  0  0  0  0  0  0  0  0  0  0  0
   50.1530  -14.3446   -7.0152 C   0  0  0  0  0  0  0  0  0  0  0  0
   51.5169  -18.8979  -11.3645 N   0  0  0  0  0  0  0  0  0  0  0  0
   51.1330  -15.2207   -6.3439 C   0  0  0  0  0  0  0  0  0  0  0  0
   48.1710  -15.9138   -7.0693 C   0  0  0  0  0  0  0  0  0  0  0  0
   49.6971  -18.3547   -9.7225 C   0  0  0  0  0  0  0  0  0  0  0  0
   52.1028  -17.8310   -9.1373 C   0  0  0  0  0  0  0  0  0  0  0  0
   50.2562  -18.1677  -11.1423 C   0  0  0  0  0  0  0  0  0  0  0  0
   52.3572  -18.9555  -10.1564 C   0  0  0  0  0  0  0  0  0  0  0  0
   48.0561  -18.3417   -6.9051 C   0  0  0  0  0  0  0  0  0  0  0  0
   52.1284  -17.3833   -5.8414 C   0  0  0  0  0  0  0  0  0  0  0  0
   52.2379  -18.3397  -12.5055 C   0  0  0  0  0  0  0  0  0  0  0  0
   52.0560  -14.6244   -5.4699 C   0  0  0  0  0  0  0  0  0  0  0  0
   46.7999  -15.8578   -6.7741 C   0  0  0  0  0  0  0  0  0  0  0  0
   53.0272  -16.7773   -4.9644 C   0  0  0  0  0  0  0  0  0  0  0  0
   46.6982  -18.2659   -6.5985 C   0  0  0  0  0  0  0  0  0  0  0  0
   52.9972  -15.3973   -4.7860 C   0  0  0  0  0  0  0  0  0  0  0  0
   46.0695  -17.0253   -6.5384 C   0  0  0  0  0  0  0  0  0  0  0  0
   48.2741  -13.8691   -7.7934 H   0  0  0  0  0  0  0  0  0  0  0  0
   50.5156  -13.3464   -7.2517 H   0  0  0  0  0  0  0  0  0  0  0  0
   49.5307  -19.4223   -9.5308 H   0  0  0  0  0  0  0  0  0  0  0  0
   48.7231  -17.8554   -9.6872 H   0  0  0  0  0  0  0  0  0  0  0  0
   52.7967  -17.9847   -8.3077 H   0  0  0  0  0  0  0  0  0  0  0  0
   52.3486  -16.8642   -9.5950 H   0  0  0  0  0  0  0  0  0  0  0  0
   49.5146  -18.5234  -11.8675 H   0  0  0  0  0  0  0  0  0  0  0  0
   50.3891  -17.0915  -11.3224 H   0  0  0  0  0  0  0  0  0  0  0  0
   52.1571  -19.9176   -9.6661 H   0  0  0  0  0  0  0  0  0  0  0  0
   53.4236  -18.9800  -10.4147 H   0  0  0  0  0  0  0  0  0  0  0  0
   48.5414  -19.3140   -6.9462 H   0  0  0  0  0  0  0  0  0  0  0  0
   52.1509  -18.4633   -5.9661 H   0  0  0  0  0  0  0  0  0  0  0  0
   51.6042  -18.3392  -13.3996 H   0  0  0  0  0  0  0  0  0  0  0  0
   52.5750  -17.3138  -12.3193 H   0  0  0  0  0  0  0  0  0  0  0  0
   53.1139  -18.9530  -12.7440 H   0  0  0  0  0  0  0  0  0  0  0  0
   52.0357  -13.5506   -5.2980 H   0  0  0  0  0  0  0  0  0  0  0  0
   46.2899  -14.8992   -6.7110 H   0  0  0  0  0  0  0  0  0  0  0  0
   53.7467  -17.3825   -4.4195 H   0  0  0  0  0  0  0  0  0  0  0  0
   46.1332  -19.1740   -6.4063 H   0  0  0  0  0  0  0  0  0  0  0  0
   53.6967  -14.9215   -4.1035 H   0  0  0  0  0  0  0  0  0  0  0  0
   45.0106  -16.9634   -6.3011 H   0  0  0  0  0  0  0  0  0  0  0  0
  2  1  1  0
  3  1  1  0
  4  1  2  3
  5  9  1  0
  6  8  1  0
  7 13  1  0
  8  3  2  0
  9  2  2  0
 10  4  1  0
 11  4  1  0
 12 10  1  0
 13 11  1  0
 14  2  1  0
 15  3  1  0
 16  7  1  0
 17  8  1  0
 18  9  1  0
 19 15  2  0
 20 14  2  0
 21 19  1  0
 22 20  1  0
  7 12  1  0
  6  5  2  0
 21 17  2  0
 22 18  2  0
  5 23  1  0
  6 24  1  0
 10 25  1  0
 10 26  1  0
 11 27  1  0
 11 28  1  0
 12 29  1  0
 12 30  1  0
 13 31  1  0
 13 32  1  0
 14 33  1  0
 15 34  1  0
 16 35  1  0
 16 36  1  0
 16 37  1  0
 17 38  1  0
 18 39  1  0
 19 40  1  0
 20 41  1  0
 21 42  1  0
 22 43  1  0
M  END
> <Uni-Dock RESULT> 
ENERGY=   -6.240  LOWER_BOUND=    0.000  UPPER_BOUND=    0.000
INTER + INTRA:          -6.240
INTER:                  -6.240
INTRA:                   0.000
UNBOUND:                 0.000

$$$$

     RDKit          3D

 43 46  0  0  0  0  0  0  0  0999 V2000
   50.2390  -17.2681   -7.4910 C   0  0  0  0  0  0  0  0  0  0  0  0
   48.7925  -17.1769   -7.1648 C   0  0  0  0  0  0  0  0  0  0  0  0
   51.1989  -16.6128   -6.5658 C   0  0  0  0  0  0  0  0  0  0  0  0
   50.6482  -17.7972   -8.6761 C   0  0  0  0  0  0  0  0  0  0  0  0
   48.8731  -14.6440   -7.3212 C   0  0  0  0  0  0  0  0  0  0  0  0
   50.1484  -14.3458   -7.0152 C   0  0  0  0  0  0  0  0  0  0  0  0
   51.5105  -18.8894  -11.3752 N   0  0  0  0  0  0  0  0  0  0  0  0
   51.1302  -15.2222   -6.3470 C   0  0  0  0  0  0  0  0  0  0  0  0
   48.1678  -15.9167   -7.0695 C   0  0  0  0  0  0  0  0  0  0  0  0
   49.6925  -18.3511   -9.7296 C   0  0  0  0  0  0  0  0  0  0  0  0
   52.0985  -17.8262   -9.1468 C   0  0  0  0  0  0  0  0  0  0  0  0
   50.2494  -18.1608  -11.1499 C   0  0  0  0  0  0  0  0  0  0  0  0
   52.3526  -18.9486  -10.1684 C   0  0  0  0  0  0  0  0  0  0  0  0
   48.0555  -18.3451   -6.9099 C   0  0  0  0  0  0  0  0  0  0  0  0
   52.1283  -17.3848   -5.8501 C   0  0  0  0  0  0  0  0  0  0  0  0
   52.2294  -18.3283  -12.5161 C   0  0  0  0  0  0  0  0  0  0  0  0
   52.0539  -14.6268   -5.4732 C   0  0  0  0  0  0  0  0  0  0  0  0
   46.7971  -15.8626   -6.7723 C   0  0  0  0  0  0  0  0  0  0  0  0
   53.0278  -16.7796   -4.9732 C   0  0  0  0  0  0  0  0  0  0  0  0
   46.6979  -18.2711   -6.6013 C   0  0  0  0  0  0  0  0  0  0  0  0
   52.9967  -15.4001   -4.7920 C   0  0  0  0  0  0  0  0  0  0  0  0
   46.0681  -17.0312   -6.5379 C   0  0  0  0  0  0  0  0  0  0  0  0
   48.2680  -13.8706   -7.7899 H   0  0  0  0  0  0  0  0  0  0  0  0
   50.5097  -13.3468   -7.2503 H   0  0  0  0  0  0  0  0  0  0  0  0
   49.5274  -19.4192   -9.5397 H   0  0  0  0  0  0  0  0  0  0  0  0
   48.7181  -17.8528   -9.6920 H   0  0  0  0  0  0  0  0  0  0  0  0
   52.7937  -17.9808   -8.3184 H   0  0  0  0  0  0  0  0  0  0  0  0
   52.3428  -16.8583   -9.6030 H   0  0  0  0  0  0  0  0  0  0  0  0
   49.5072  -18.5159  -11.8746 H   0  0  0  0  0  0  0  0  0  0  0  0
   50.3810  -17.0842  -11.3280 H   0  0  0  0  0  0  0  0  0  0  0  0
   52.1541  -19.9118   -9.6797 H   0  0  0  0  0  0  0  0  0  0  0  0
   53.4186  -18.9715  -10.4282 H   0  0  0  0  0  0  0  0  0  0  0  0
   48.5416  -19.3168   -6.9535 H   0  0  0  0  0  0  0  0  0  0  0  0
   52.1516  -18.4646   -5.9769 H   0  0  0  0  0  0  0  0  0  0  0  0
   51.5944  -18.3267  -13.4093 H   0  0  0  0  0  0  0  0  0  0  0  0
   52.5658  -17.3024  -12.3284 H   0  0  0  0  0  0  0  0  0  0  0  0
   53.1056  -18.9403  -12.7571 H   0  0  0  0  0  0  0  0  0  0  0  0
   52.0327  -13.5532   -5.2991 H   0  0  0  0  0  0  0  0  0  0  0  0
   46.2862  -14.9046   -6.7067 H   0  0  0  0  0  0  0  0  0  0  0  0
   53.7487  -17.3852   -4.4304 H   0  0  0  0  0  0  0  0  0  0  0  0
   46.1340  -19.1802   -6.4100 H   0  0  0  0  0  0  0  0  0  0  0  0
   53.6967  -14.9249   -4.1096 H   0  0  0  0  0  0  0  0  0  0  0  0
   45.0095  -16.9708   -6.2990 H   0  0  0  0  0  0  0  0  0  0  0  0
  2  1  1  0
  3  1  1  0
  4  1  2  3
  5  9  1  0
  6  8  1  0
  7 13  1  0
  8  3  2  0
  9  2  2  0
 10  4  1  0
 11  4  1  0
 12 10  1  0
 13 11  1  0
 14  2  1  0
 15  3  1  0
 16  7  1  0
 17  8  1  0
 18  9  1  0
 19 15  2  0
 20 14  2  0
 21 19  1  0
 22 20  1  0
  7 12  1  0
  6  5  2  0
 21 17  2  0
 22 18  2  0
  5 23  1  0
  6 24  1  0
 10 25  1  0
 10 26  1  0
 11 27  1  0
 11 28  1  0
 12 29  1  0
 12 30  1  0
 13 31  1  0
 13 32  1  0
 14 33  1  0
 15 34  1  0
 16 35  1  0
 16 36  1  0
 16 37  1  0
 17 38  1  0
 18 39  1  0
 19 40  1  0
 20 41  1  0
 21 42  1  0
 22 43  1  0
M  END
> <Uni-Dock RESULT> 
ENERGY=   -6.238  LOWER_BOUND=    0.009  UPPER_BOUND=    0.009
INTER + INTRA:          -6.238
INTER:                  -6.238
INTRA:                   0.000
UNBOUND:                 0.000

$$$$

     RDKit          3D

 43 46  0  0  0  0  0  0  0  0999 V2000
   50.3664  -17.2699   -7.5792 C   0  0  0  0  0  0  0  0  0  0  0  0
   51.2247  -17.5467   -6.3985 C   0  0  0  0  0  0  0  0  0  0  0  0
   48.9247  -17.0044   -7.3387 C   0  0  0  0  0  0  0  0  0  0  0  0
   50.8585  -17.4121   -8.8399 C   0  0  0  0  0  0  0  0  0  0  0  0
   49.8400  -19.5942   -5.8183 C   0  0  0  0  0  0  0  0  0  0  0  0
   48.6263  -19.3127   -6.3249 C   0  0  0  0  0  0  0  0  0  0  0  0
   51.9676  -17.8429  -11.6338 N   0  0  0  0  0  0  0  0  0  0  0  0
   48.1183  -17.9877   -6.7310 C   0  0  0  0  0  0  0  0  0  0  0  0
   50.9435  -18.6468   -5.5631 C   0  0  0  0  0  0  0  0  0  0  0  0
   52.2953  -17.8277   -9.1448 C   0  0  0  0  0  0  0  0  0  0  0  0
   50.0239  -17.2641  -10.1078 C   0  0  0  0  0  0  0  0  0  0  0  0
   52.3839  -18.6251  -10.4562 C   0  0  0  0  0  0  0  0  0  0  0  0
   50.8856  -16.8920  -11.3271 C   0  0  0  0  0  0  0  0  0  0  0  0
   52.2923  -16.6877   -6.0901 C   0  0  0  0  0  0  0  0  0  0  0  0
   48.3773  -15.7485   -7.6469 C   0  0  0  0  0  0  0  0  0  0  0  0
   51.6183  -18.7298  -12.7405 C   0  0  0  0  0  0  0  0  0  0  0  0
   46.7572  -17.7141   -6.5216 C   0  0  0  0  0  0  0  0  0  0  0  0
   51.7796  -18.8905   -4.4622 C   0  0  0  0  0  0  0  0  0  0  0  0
   47.0270  -15.4873   -7.4171 C   0  0  0  0  0  0  0  0  0  0  0  0
   53.1032  -16.9370   -4.9837 C   0  0  0  0  0  0  0  0  0  0  0  0
   46.2153  -16.4730   -6.8634 C   0  0  0  0  0  0  0  0  0  0  0  0
   52.8502  -18.0405   -4.1736 C   0  0  0  0  0  0  0  0  0  0  0  0
   50.0487  -20.6253   -5.5402 H   0  0  0  0  0  0  0  0  0  0  0  0
   47.9148  -20.1292   -6.4296 H   0  0  0  0  0  0  0  0  0  0  0  0
   52.9220  -16.9299   -9.2176 H   0  0  0  0  0  0  0  0  0  0  0  0
   52.7097  -18.4583   -8.3511 H   0  0  0  0  0  0  0  0  0  0  0  0
   49.2592  -16.4907  -10.0053 H   0  0  0  0  0  0  0  0  0  0  0  0
   49.5068  -18.2119  -10.3046 H   0  0  0  0  0  0  0  0  0  0  0  0
   53.4193  -18.9542  -10.6043 H   0  0  0  0  0  0  0  0  0  0  0  0
   51.7718  -19.5321  -10.3512 H   0  0  0  0  0  0  0  0  0  0  0  0
   51.3535  -15.9172  -11.1349 H   0  0  0  0  0  0  0  0  0  0  0  0
   50.2369  -16.7336  -12.1981 H   0  0  0  0  0  0  0  0  0  0  0  0
   52.4934  -15.8214   -6.7159 H   0  0  0  0  0  0  0  0  0  0  0  0
   49.0070  -14.9688   -8.0690 H   0  0  0  0  0  0  0  0  0  0  0  0
   52.4508  -19.4037  -12.9723 H   0  0  0  0  0  0  0  0  0  0  0  0
   50.7327  -19.3363  -12.5199 H   0  0  0  0  0  0  0  0  0  0  0  0
   51.4226  -18.1509  -13.6499 H   0  0  0  0  0  0  0  0  0  0  0  0
   46.1095  -18.4617   -6.0692 H   0  0  0  0  0  0  0  0  0  0  0  0
   51.5946  -19.7403   -3.8090 H   0  0  0  0  0  0  0  0  0  0  0  0
   46.6114  -14.5148   -7.6670 H   0  0  0  0  0  0  0  0  0  0  0  0
   53.9300  -16.2699   -4.7549 H   0  0  0  0  0  0  0  0  0  0  0  0
   45.1622  -16.2729   -6.6834 H   0  0  0  0  0  0  0  0  0  0  0  0
   53.4817  -18.2380   -3.3114 H   0  0  0  0  0  0  0  0  0  0  0  0
  2  1  1  0
  3  1  1  0
  4  1  2  3
  5  9  1  0
  6  8  1  0
  7 13  1  0
  8  3  2  0
  9  2  2  0
 10  4  1  0
 11  4  1  0
 12 10  1  0
 13 11  1  0
 14  2  1  0
 15  3  1  0
 16  7  1  0
 17  8  1  0
 18  9  1  0
 19 15  2  0
 20 14  2  0
 21 19  1  0
 22 20  1  0
  7 12  1  0
  6  5  2  0
 21 17  2  0
 22 18  2  0
  5 23  1  0
  6 24  1  0
 10 25  1  0
 10 26  1  0
 11 27  1  0
 11 28  1  0
 12 29  1  0
 12 30  1  0
 13 31  1  0
 13 32  1  0
 14 33  1  0
 15 34  1  0
 16 35  1  0
 16 36  1  0
 16 37  1  0
 17 38  1  0
 18 39  1  0
 19 40  1  0
 20 41  1  0
 21 42  1  0
 22 43  1  0
M  END
> <Uni-Dock RESULT> 
ENERGY=   -5.296  LOWER_BOUND=    1.110  UPPER_BOUND=    4.486
INTER + INTRA:          -5.296
INTER:                  -5.296
INTRA:                   0.000
UNBOUND:                 0.000

$$$$

     RDKit          3D

 43 46  0  0  0  0  0  0  0  0999 V2000
   49.3232  -17.9724   -7.5242 C   0  0  0  0  0  0  0  0  0  0  0  0
   48.1444  -18.5268   -6.8097 C   0  0  0  0  0  0  0  0  0  0  0  0
   49.7450  -16.5876   -7.1909 C   0  0  0  0  0  0  0  0  0  0  0  0
   49.8910  -18.6558   -8.5548 C   0  0  0  0  0  0  0  0  0  0  0  0
   46.6582  -16.6972   -7.7533 C   0  0  0  0  0  0  0  0  0  0  0  0
   47.5062  -15.6749   -7.9654 C   0  0  0  0  0  0  0  0  0  0  0  0
   51.0605  -20.1665  -10.9152 N   0  0  0  0  0  0  0  0  0  0  0  0
   48.8597  -15.5110   -7.3998 C   0  0  0  0  0  0  0  0  0  0  0  0
   46.8903  -17.8920   -6.9171 C   0  0  0  0  0  0  0  0  0  0  0  0
   49.4024  -20.0197   -9.0359 C   0  0  0  0  0  0  0  0  0  0  0  0
   51.0255  -18.1163   -9.4195 C   0  0  0  0  0  0  0  0  0  0  0  0
   49.6344  -20.2000  -10.5449 C   0  0  0  0  0  0  0  0  0  0  0  0
   51.8419  -19.2453  -10.0727 C   0  0  0  0  0  0  0  0  0  0  0  0
   48.2881  -19.6604   -5.9929 C   0  0  0  0  0  0  0  0  0  0  0  0
   50.9966  -16.3543   -6.5984 C   0  0  0  0  0  0  0  0  0  0  0  0
   51.2136  -19.8695  -12.3371 C   0  0  0  0  0  0  0  0  0  0  0  0
   49.2859  -14.2113   -7.0832 C   0  0  0  0  0  0  0  0  0  0  0  0
   45.7922  -18.4461   -6.2409 C   0  0  0  0  0  0  0  0  0  0  0  0
   51.3980  -15.0588   -6.2745 C   0  0  0  0  0  0  0  0  0  0  0  0
   47.1890  -20.1881   -5.3166 C   0  0  0  0  0  0  0  0  0  0  0  0
   50.5466  -13.9868   -6.5255 C   0  0  0  0  0  0  0  0  0  0  0  0
   45.9411  -19.5846   -5.4449 C   0  0  0  0  0  0  0  0  0  0  0  0
   45.6786  -16.6519   -8.2247 H   0  0  0  0  0  0  0  0  0  0  0  0
   47.1695  -14.8546   -8.5958 H   0  0  0  0  0  0  0  0  0  0  0  0
   49.9335  -20.8068   -8.4858 H   0  0  0  0  0  0  0  0  0  0  0  0
   48.3309  -20.1518   -8.8526 H   0  0  0  0  0  0  0  0  0  0  0  0
   51.7239  -17.5057   -8.8425 H   0  0  0  0  0  0  0  0  0  0  0  0
   50.6005  -17.4758  -10.2029 H   0  0  0  0  0  0  0  0  0  0  0  0
   49.2155  -21.1639  -10.8575 H   0  0  0  0  0  0  0  0  0  0  0  0
   49.0724  -19.4192  -11.0767 H   0  0  0  0  0  0  0  0  0  0  0  0
   52.3023  -19.8442   -9.2756 H   0  0  0  0  0  0  0  0  0  0  0  0
   52.6824  -18.8127  -10.6303 H   0  0  0  0  0  0  0  0  0  0  0  0
   49.2606  -20.1347   -5.8846 H   0  0  0  0  0  0  0  0  0  0  0  0
   51.6632  -17.1874   -6.3881 H   0  0  0  0  0  0  0  0  0  0  0  0
   50.6516  -20.5884  -12.9441 H   0  0  0  0  0  0  0  0  0  0  0  0
   50.8684  -18.8601  -12.5877 H   0  0  0  0  0  0  0  0  0  0  0  0
   52.2632  -19.9601  -12.6379 H   0  0  0  0  0  0  0  0  0  0  0  0
   48.6280  -13.3612   -7.2497 H   0  0  0  0  0  0  0  0  0  0  0  0
   44.8099  -17.9854   -6.3175 H   0  0  0  0  0  0  0  0  0  0  0  0
   52.3721  -14.8882   -5.8240 H   0  0  0  0  0  0  0  0  0  0  0  0
   47.3079  -21.0682   -4.6903 H   0  0  0  0  0  0  0  0  0  0  0  0
   50.8564  -12.9756   -6.2748 H   0  0  0  0  0  0  0  0  0  0  0  0
   45.0823  -19.9949   -4.9199 H   0  0  0  0  0  0  0  0  0  0  0  0
  2  1  1  0
  3  1  1  0
  4  1  2  3
  5  9  1  0
  6  8  1  0
  7 13  1  0
  8  3  2  0
  9  2  2  0
 10  4  1  0
 11  4  1  0
 12 10  1  0
 13 11  1  0
 14  2  1  0
 15  3  1  0
 16  7  1  0
 17  8  1  0
 18  9  1  0
 19 15  2  0
 20 14  2  0
 21 19  1  0
 22 20  1  0
  7 12  1  0
  6  5  2  0
 21 17  2  0
 22 18  2  0
  5 23  1  0
  6 24  1  0
 10 25  1  0
 10 26  1  0
 11 27  1  0
 11 28  1  0
 12 29  1  0
 12 30  1  0
 13 31  1  0
 13 32  1  0
 14 33  1  0
 15 34  1  0
 16 35  1  0
 16 36  1  0
 16 37  1  0
 17 38  1  0
 18 39  1  0
 19 40  1  0
 20 41  1  0
 21 42  1  0
 22 43  1  0
M  END
> <Uni-Dock RESULT> 
ENERGY=   -5.245  LOWER_BOUND=    1.285  UPPER_BOUND=    2.231
INTER + INTRA:          -5.245
INTER:                  -5.245
INTRA:                   0.000
UNBOUND:                 0.000

$$$$

     RDKit          3D

 43 46  0  0  0  0  0  0  0  0999 V2000
   48.0279  -17.1847   -7.9205 C   0  0  0  0  0  0  0  0  0  0  0  0
   49.0370  -16.2239   -7.4049 C   0  0  0  0  0  0  0  0  0  0  0  0
   47.5009  -18.2054   -6.9786 C   0  0  0  0  0  0  0  0  0  0  0  0
   47.7219  -17.2207   -9.2459 C   0  0  0  0  0  0  0  0  0  0  0  0
   50.6376  -18.1227   -6.8764 C   0  0  0  0  0  0  0  0  0  0  0  0
   49.8262  -19.1736   -6.6616 C   0  0  0  0  0  0  0  0  0  0  0  0
   47.1472  -17.3365  -12.2255 N   0  0  0  0  0  0  0  0  0  0  0  0
   48.3771  -19.1353   -6.3836 C   0  0  0  0  0  0  0  0  0  0  0  0
   50.2640  -16.6942   -6.8942 C   0  0  0  0  0  0  0  0  0  0  0  0
   48.3459  -16.2907  -10.2832 C   0  0  0  0  0  0  0  0  0  0  0  0
   46.7895  -18.2457   -9.8830 C   0  0  0  0  0  0  0  0  0  0  0  0
   48.4572  -16.9736  -11.6561 C   0  0  0  0  0  0  0  0  0  0  0  0
   46.1718  -17.7291  -11.1943 C   0  0  0  0  0  0  0  0  0  0  0  0
   48.7520  -14.8486   -7.3873 C   0  0  0  0  0  0  0  0  0  0  0  0
   46.1431  -18.2010   -6.6204 C   0  0  0  0  0  0  0  0  0  0  0  0
   47.3017  -18.3647  -13.2512 C   0  0  0  0  0  0  0  0  0  0  0  0
   47.8521  -20.0941   -5.5026 C   0  0  0  0  0  0  0  0  0  0  0  0
   51.2029  -15.7618   -6.4258 C   0  0  0  0  0  0  0  0  0  0  0  0
   45.6408  -19.1501   -5.7308 C   0  0  0  0  0  0  0  0  0  0  0  0
   49.6910  -13.9383   -6.9043 C   0  0  0  0  0  0  0  0  0  0  0  0
   46.4933  -20.1020   -5.1795 C   0  0  0  0  0  0  0  0  0  0  0  0
   50.9174  -14.3941   -6.4289 C   0  0  0  0  0  0  0  0  0  0  0  0
   51.6951  -18.3210   -7.0386 H   0  0  0  0  0  0  0  0  0  0  0  0
   50.2681  -20.1678   -6.6595 H   0  0  0  0  0  0  0  0  0  0  0  0
   47.7312  -15.3860  -10.3715 H   0  0  0  0  0  0  0  0  0  0  0  0
   49.3544  -15.9796   -9.9911 H   0  0  0  0  0  0  0  0  0  0  0  0
   45.9629  -18.5131   -9.2206 H   0  0  0  0  0  0  0  0  0  0  0  0
   47.3566  -19.1632  -10.0858 H   0  0  0  0  0  0  0  0  0  0  0  0
   48.9640  -16.2946  -12.3522 H   0  0  0  0  0  0  0  0  0  0  0  0
   49.0982  -17.8602  -11.5501 H   0  0  0  0  0  0  0  0  0  0  0  0
   45.5658  -16.8424  -10.9647 H   0  0  0  0  0  0  0  0  0  0  0  0
   45.4617  -18.4714  -11.5807 H   0  0  0  0  0  0  0  0  0  0  0  0
   47.7944  -14.4856   -7.7531 H   0  0  0  0  0  0  0  0  0  0  0  0
   45.4724  -17.4535   -7.0376 H   0  0  0  0  0  0  0  0  0  0  0  0
   48.0051  -18.0358  -14.0245 H   0  0  0  0  0  0  0  0  0  0  0  0
   47.6624  -19.3122  -12.8352 H   0  0  0  0  0  0  0  0  0  0  0  0
   46.3472  -18.5505  -13.7561 H   0  0  0  0  0  0  0  0  0  0  0  0
   48.5042  -20.8332   -5.0424 H   0  0  0  0  0  0  0  0  0  0  0  0
   52.1634  -16.0955   -6.0397 H   0  0  0  0  0  0  0  0  0  0  0  0
   44.5867  -19.1432   -5.4667 H   0  0  0  0  0  0  0  0  0  0  0  0
   49.4641  -12.8756   -6.8986 H   0  0  0  0  0  0  0  0  0  0  0  0
   46.1051  -20.8436   -4.4860 H   0  0  0  0  0  0  0  0  0  0  0  0
   51.6518  -13.6864   -6.0532 H   0  0  0  0  0  0  0  0  0  0  0  0
  2  1  1  0
  3  1  1  0
  4  1  2  3
  5  9  1  0
  6  8  1  0
  7 13  1  0
  8  3  2  0
  9  2  2  0
 10  4  1  0
 11  4  1  0
 12 10  1  0
 13 11  1  0
 14  2  1  0
 15  3  1  0
 16  7  1  0
 17  8  1  0
 18  9  1  0
 19 15  2  0
 20 14  2  0
 21 19  1  0
 22 20  1  0
  7 12  1  0
  6  5  2  0
 21 17  2  0
 22 18  2  0
  5 23  1  0
  6 24  1  0
 10 25  1  0
 10 26  1  0
 11 27  1  0
 11 28  1  0
 12 29  1  0
 12 30  1  0
 13 31  1  0
 13 32  1  0
 14 33  1  0
 15 34  1  0
 16 35  1  0
 16 36  1  0
 16 37  1  0
 17 38  1  0
 18 39  1  0
 19 40  1  0
 20 41  1  0
 21 42  1  0
 22 43  1  0
M  END
> <Uni-Dock RESULT> 
ENERGY=   -5.212  LOWER_BOUND=    2.174  UPPER_BOUND=    4.898
INTER + INTRA:          -5.212
INTER:                  -5.212
INTRA:                   0.000
UNBOUND:                 0.000

$$$$

     RDKit          3D

 43 46  0  0  0  0  0  0  0  0999 V2000
   48.7766  -17.0814   -7.8276 C   0  0  0  0  0  0  0  0  0  0  0  0
   49.8410  -16.3165   -7.1281 C   0  0  0  0  0  0  0  0  0  0  0  0
   47.9548  -18.0189   -7.0199 C   0  0  0  0  0  0  0  0  0  0  0  0
   48.6704  -17.0361   -9.1835 C   0  0  0  0  0  0  0  0  0  0  0  0
   51.0117  -18.4694   -6.4644 C   0  0  0  0  0  0  0  0  0  0  0  0
   50.0162  -19.3727   -6.4177 C   0  0  0  0  0  0  0  0  0  0  0  0
   48.5361  -16.9875  -12.2168 N   0  0  0  0  0  0  0  0  0  0  0  0
   48.5680  -19.0963   -6.3493 C   0  0  0  0  0  0  0  0  0  0  0  0
   50.8840  -16.9983   -6.4691 C   0  0  0  0  0  0  0  0  0  0  0  0
   49.5861  -16.2022  -10.0758 C   0  0  0  0  0  0  0  0  0  0  0  0
   47.6884  -17.8745   -9.9950 C   0  0  0  0  0  0  0  0  0  0  0  0
   49.7879  -16.8637  -11.4489 C   0  0  0  0  0  0  0  0  0  0  0  0
   47.3666  -17.2323  -11.3558 C   0  0  0  0  0  0  0  0  0  0  0  0
   49.7857  -14.9135   -7.0875 C   0  0  0  0  0  0  0  0  0  0  0  0
   46.5779  -17.7931   -6.8606 C   0  0  0  0  0  0  0  0  0  0  0  0
   48.6716  -18.0042  -13.2566 C   0  0  0  0  0  0  0  0  0  0  0  0
   47.7673  -19.9718   -5.5985 C   0  0  0  0  0  0  0  0  0  0  0  0
   51.8824  -16.2485   -5.8277 C   0  0  0  0  0  0  0  0  0  0  0  0
   45.7998  -18.6630   -6.0976 C   0  0  0  0  0  0  0  0  0  0  0  0
   50.7783  -14.1857   -6.4326 C   0  0  0  0  0  0  0  0  0  0  0  0
   46.3927  -19.7572   -5.4746 C   0  0  0  0  0  0  0  0  0  0  0  0
   51.8285  -14.8525   -5.8079 C   0  0  0  0  0  0  0  0  0  0  0  0
   52.0346  -18.8400   -6.4822 H   0  0  0  0  0  0  0  0  0  0  0  0
   50.2840  -20.4271   -6.3986 H   0  0  0  0  0  0  0  0  0  0  0  0
   49.1481  -15.2050  -10.2092 H   0  0  0  0  0  0  0  0  0  0  0  0
   50.5769  -16.0724   -9.6277 H   0  0  0  0  0  0  0  0  0  0  0  0
   46.7397  -18.0129   -9.4714 H   0  0  0  0  0  0  0  0  0  0  0  0
   48.1214  -18.8699  -10.1569 H   0  0  0  0  0  0  0  0  0  0  0  0
   50.4973  -16.2650  -12.0325 H   0  0  0  0  0  0  0  0  0  0  0  0
   50.2519  -17.8480  -11.2935 H   0  0  0  0  0  0  0  0  0  0  0  0
   46.8867  -16.2613  -11.1746 H   0  0  0  0  0  0  0  0  0  0  0  0
   46.6104  -17.8353  -11.8745 H   0  0  0  0  0  0  0  0  0  0  0  0
   48.9661  -14.3860   -7.5697 H   0  0  0  0  0  0  0  0  0  0  0  0
   46.1087  -16.9340   -7.3344 H   0  0  0  0  0  0  0  0  0  0  0  0
   49.5269  -17.7819  -13.9046 H   0  0  0  0  0  0  0  0  0  0  0  0
   48.8060  -19.0079  -12.8378 H   0  0  0  0  0  0  0  0  0  0  0  0
   47.7858  -18.0150  -13.9014 H   0  0  0  0  0  0  0  0  0  0  0  0
   48.2133  -20.8203   -5.0844 H   0  0  0  0  0  0  0  0  0  0  0  0
   52.7066  -16.7481   -5.3236 H   0  0  0  0  0  0  0  0  0  0  0  0
   44.7336  -18.4839   -5.9876 H   0  0  0  0  0  0  0  0  0  0  0  0
   50.7304  -13.1003   -6.4099 H   0  0  0  0  0  0  0  0  0  0  0  0
   45.7891  -20.4375   -4.8794 H   0  0  0  0  0  0  0  0  0  0  0  0
   52.6044  -14.2875   -5.2979 H   0  0  0  0  0  0  0  0  0  0  0  0
  2  1  1  0
  3  1  1  0
  4  1  2  3
  5  9  1  0
  6  8  1  0
  7 13  1  0
  8  3  2  0
  9  2  2  0
 10  4  1  0
 11  4  1  0
 12 10  1  0
 13 11  1  0
 14  2  1  0
 15  3  1  0
 16  7  1  0
 17  8  1  0
 18  9  1  0
 19 15  2  0
 20 14  2  0
 21 19  1  0
 22 20  1  0
  7 12  1  0
  6  5  2  0
 21 17  2  0
 22 18  2  0
  5 23  1  0
  6 24  1  0
 10 25  1  0
 10 26  1  0
 11 27  1  0
 11 28  1  0
 12 29  1  0
 12 30  1  0
 13 31  1  0
 13 32  1  0
 14 33  1  0
 15 34  1  0
 16 35  1  0
 16 36  1  0
 16 37  1  0
 17 38  1  0
 18 39  1  0
 19 40  1  0
 20 41  1  0
 21 42  1  0
 22 43  1  0
M  END
> <Uni-Dock RESULT> 
ENERGY=   -5.122  LOWER_BOUND=    1.811  UPPER_BOUND=    4.735
INTER + INTRA:          -5.122
INTER:                  -5.122
INTRA:                   0.000
UNBOUND:                 0.000

$$$$

     RDKit          3D

 43 46  0  0  0  0  0  0  0  0999 V2000
   47.0639  -16.0024  -10.7193 C   0  0  0  0  0  0  0  0  0  0  0  0
   46.8769  -16.2292   -9.2630 C   0  0  0  0  0  0  0  0  0  0  0  0
   45.8716  -15.6183  -11.5178 C   0  0  0  0  0  0  0  0  0  0  0  0
   48.2518  -16.2915  -11.3169 C   0  0  0  0  0  0  0  0  0  0  0  0
   45.2418  -18.1162   -9.7233 C   0  0  0  0  0  0  0  0  0  0  0  0
   44.7177  -17.7994  -10.9208 C   0  0  0  0  0  0  0  0  0  0  0  0
   50.8851  -17.0485  -12.6262 N   0  0  0  0  0  0  0  0  0  0  0  0
   44.7626  -16.4850  -11.5908 C   0  0  0  0  0  0  0  0  0  0  0  0
   45.9896  -17.2272   -8.8117 C   0  0  0  0  0  0  0  0  0  0  0  0
   49.4668  -16.8304  -10.5661 C   0  0  0  0  0  0  0  0  0  0  0  0
   48.5001  -16.2022  -12.8190 C   0  0  0  0  0  0  0  0  0  0  0  0
   50.3184  -17.7475  -11.4591 C   0  0  0  0  0  0  0  0  0  0  0  0
   49.9899  -16.0020  -13.1480 C   0  0  0  0  0  0  0  0  0  0  0  0
   47.5530  -15.4208   -8.3344 C   0  0  0  0  0  0  0  0  0  0  0  0
   45.8143  -14.3609  -12.1405 C   0  0  0  0  0  0  0  0  0  0  0  0
   51.2677  -18.0060  -13.6606 C   0  0  0  0  0  0  0  0  0  0  0  0
   43.6512  -16.1010  -12.3581 C   0  0  0  0  0  0  0  0  0  0  0  0
   45.8432  -17.4269   -7.4300 C   0  0  0  0  0  0  0  0  0  0  0  0
   44.6959  -13.9882  -12.8853 C   0  0  0  0  0  0  0  0  0  0  0  0
   47.3837  -15.6238   -6.9655 C   0  0  0  0  0  0  0  0  0  0  0  0
   43.6188  -14.8618  -13.0017 C   0  0  0  0  0  0  0  0  0  0  0  0
   46.5337  -16.6295   -6.5138 C   0  0  0  0  0  0  0  0  0  0  0  0
   45.0948  -19.1297   -9.3555 H   0  0  0  0  0  0  0  0  0  0  0  0
   44.1726  -18.5713  -11.4600 H   0  0  0  0  0  0  0  0  0  0  0  0
   50.0770  -15.9878  -10.2170 H   0  0  0  0  0  0  0  0  0  0  0  0
   49.1719  -17.4134   -9.6873 H   0  0  0  0  0  0  0  0  0  0  0  0
   47.9550  -15.3722  -13.2744 H   0  0  0  0  0  0  0  0  0  0  0  0
   48.1450  -17.1264  -13.2926 H   0  0  0  0  0  0  0  0  0  0  0  0
   51.1429  -18.1587  -10.8646 H   0  0  0  0  0  0  0  0  0  0  0  0
   49.6965  -18.5972  -11.7744 H   0  0  0  0  0  0  0  0  0  0  0  0
   50.3148  -15.0481  -12.7114 H   0  0  0  0  0  0  0  0  0  0  0  0
   50.1112  -15.8791  -14.2318 H   0  0  0  0  0  0  0  0  0  0  0  0
   48.2153  -14.6306   -8.6798 H   0  0  0  0  0  0  0  0  0  0  0  0
   46.6467  -13.6676  -12.0449 H   0  0  0  0  0  0  0  0  0  0  0  0
   51.9602  -18.7536  -13.2574 H   0  0  0  0  0  0  0  0  0  0  0  0
   50.4008  -18.5281  -14.0811 H   0  0  0  0  0  0  0  0  0  0  0  0
   51.7951  -17.4999  -14.4768 H   0  0  0  0  0  0  0  0  0  0  0  0
   42.7890  -16.7585  -12.4441 H   0  0  0  0  0  0  0  0  0  0  0  0
   45.1763  -18.1994   -7.0538 H   0  0  0  0  0  0  0  0  0  0  0  0
   44.6651  -13.0162  -13.3702 H   0  0  0  0  0  0  0  0  0  0  0  0
   47.9141  -14.9969   -6.2537 H   0  0  0  0  0  0  0  0  0  0  0  0
   42.7456  -14.5747  -13.5818 H   0  0  0  0  0  0  0  0  0  0  0  0
   46.4011  -16.7908   -5.4471 H   0  0  0  0  0  0  0  0  0  0  0  0
  2  1  1  0
  3  1  1  0
  4  1  2  3
  5  9  1  0
  6  8  1  0
  7 13  1  0
  8  3  2  0
  9  2  2  0
 10  4  1  0
 11  4  1  0
 12 10  1  0
 13 11  1  0
 14  2  1  0
 15  3  1  0
 16  7  1  0
 17  8  1  0
 18  9  1  0
 19 15  2  0
 20 14  2  0
 21 19  1  0
 22 20  1  0
  7 12  1  0
  6  5  2  0
 21 17  2  0
 22 18  2  0
  5 23  1  0
  6 24  1  0
 10 25  1  0
 10 26  1  0
 11 27  1  0
 11 28  1  0
 12 29  1  0
 12 30  1  0
 13 31  1  0
 13 32  1  0
 14 33  1  0
 15 34  1  0
 16 35  1  0
 16 36  1  0
 16 37  1  0
 17 38  1  0
 18 39  1  0
 19 40  1  0
 20 41  1  0
 21 42  1  0
 22 43  1  0
M  END
> <Uni-Dock RESULT> 
ENERGY=   -4.839  LOWER_BOUND=    3.803  UPPER_BOUND=    6.245
INTER + INTRA:          -4.839
INTER:                  -4.839
INTRA:                   0.000
UNBOUND:                 0.000

$$$$

     RDKit          3D

 43 46  0  0  0  0  0  0  0  0999 V2000
   47.0397  -16.0318  -10.7192 C   0  0  0  0  0  0  0  0  0  0  0  0
   46.8419  -16.2660   -9.2655 C   0  0  0  0  0  0  0  0  0  0  0  0
   45.8520  -15.6504  -11.5258 C   0  0  0  0  0  0  0  0  0  0  0  0
   48.2341  -16.3119  -11.3081 C   0  0  0  0  0  0  0  0  0  0  0  0
   45.2207  -18.1596   -9.7476 C   0  0  0  0  0  0  0  0  0  0  0  0
   44.7049  -17.8402  -10.9481 C   0  0  0  0  0  0  0  0  0  0  0  0
   50.8821  -17.0491  -12.5987 N   0  0  0  0  0  0  0  0  0  0  0  0
   44.7483  -16.5226  -11.6119 C   0  0  0  0  0  0  0  0  0  0  0  0
   45.9561  -17.2707   -8.8259 C   0  0  0  0  0  0  0  0  0  0  0  0
   49.4456  -16.8477  -10.5496 C   0  0  0  0  0  0  0  0  0  0  0  0
   48.4943  -16.2146  -12.8076 C   0  0  0  0  0  0  0  0  0  0  0  0
   50.3095  -17.7563  -11.4395 C   0  0  0  0  0  0  0  0  0  0  0  0
   49.9857  -16.0050  -13.1233 C   0  0  0  0  0  0  0  0  0  0  0  0
   47.5059  -15.4582   -8.3277 C   0  0  0  0  0  0  0  0  0  0  0  0
   45.7932  -14.3906  -12.1435 C   0  0  0  0  0  0  0  0  0  0  0  0
   51.2784  -18.0000  -13.6342 C   0  0  0  0  0  0  0  0  0  0  0  0
   43.6413  -16.1412  -12.3867 C   0  0  0  0  0  0  0  0  0  0  0  0
   45.7994  -17.4773   -7.4464 C   0  0  0  0  0  0  0  0  0  0  0  0
   44.6790  -14.0205  -12.8958 C   0  0  0  0  0  0  0  0  0  0  0  0
   47.3263  -15.6681   -6.9611 C   0  0  0  0  0  0  0  0  0  0  0  0
   43.6076  -14.8993  -13.0251 C   0  0  0  0  0  0  0  0  0  0  0  0
   46.4779  -16.6803   -6.5210 C   0  0  0  0  0  0  0  0  0  0  0  0
   45.0760  -19.1754   -9.3856 H   0  0  0  0  0  0  0  0  0  0  0  0
   44.1684  -18.6127  -11.4952 H   0  0  0  0  0  0  0  0  0  0  0  0
   50.0484  -16.0034  -10.1917 H   0  0  0  0  0  0  0  0  0  0  0  0
   49.1465  -17.4361   -9.6758 H   0  0  0  0  0  0  0  0  0  0  0  0
   47.9486  -15.3855  -13.2639 H   0  0  0  0  0  0  0  0  0  0  0  0
   48.1481  -17.1386  -13.2883 H   0  0  0  0  0  0  0  0  0  0  0  0
   51.1312  -18.1657  -10.8399 H   0  0  0  0  0  0  0  0  0  0  0  0
   49.6948  -18.6078  -11.7637 H   0  0  0  0  0  0  0  0  0  0  0  0
   50.3018  -15.0514  -12.6799 H   0  0  0  0  0  0  0  0  0  0  0  0
   50.1154  -15.8767  -14.2056 H   0  0  0  0  0  0  0  0  0  0  0  0
   48.1668  -14.6629   -8.6641 H   0  0  0  0  0  0  0  0  0  0  0  0
   46.6210  -13.6933  -12.0379 H   0  0  0  0  0  0  0  0  0  0  0  0
   51.9715  -18.7456  -13.2285 H   0  0  0  0  0  0  0  0  0  0  0  0
   50.4178  -18.5248  -14.0641 H   0  0  0  0  0  0  0  0  0  0  0  0
   51.8099  -17.4875  -14.4437 H   0  0  0  0  0  0  0  0  0  0  0  0
   42.7833  -16.8029  -12.4827 H   0  0  0  0  0  0  0  0  0  0  0  0
   45.1335  -18.2550   -7.0792 H   0  0  0  0  0  0  0  0  0  0  0  0
   44.6471  -13.0465  -13.3767 H   0  0  0  0  0  0  0  0  0  0  0  0
   47.8474  -15.0416   -6.2422 H   0  0  0  0  0  0  0  0  0  0  0  0
   42.7377  -14.6143  -13.6112 H   0  0  0  0  0  0  0  0  0  0  0  0
   46.3374  -16.8471   -5.4562 H   0  0  0  0  0  0  0  0  0  0  0  0
  2  1  1  0
  3  1  1  0
  4  1  2  3
  5  9  1  0
  6  8  1  0
  7 13  1  0
  8  3  2  0
  9  2  2  0
 10  4  1  0
 11  4  1  0
 12 10  1  0
 13 11  1  0
 14  2  1  0
 15  3  1  0
 16  7  1  0
 17  8  1  0
 18  9  1  0
 19 15  2  0
 20 14  2  0
 21 19  1  0
 22 20  1  0
  7 12  1  0
  6  5  2  0
 21 17  2  0
 22 18  2  0
  5 23  1  0
  6 24  1  0
 10 25  1  0
 10 26  1  0
 11 27  1  0
 11 28  1  0
 12 29  1  0
 12 30  1  0
 13 31  1  0
 13 32  1  0
 14 33  1  0
 15 34  1  0
 16 35  1  0
 16 36  1  0
 16 37  1  0
 17 38  1  0
 18 39  1  0
 19 40  1  0
 20 41  1  0
 21 42  1  0
 22 43  1  0
M  END
> <Uni-Dock RESULT> 
ENERGY=   -4.830  LOWER_BOUND=    3.811  UPPER_BOUND=    6.257
INTER + INTRA:          -4.830
INTER:                  -4.830
INTRA:                   0.000
UNBOUND:                 0.000

$$$$
