
     RDKit          3D

 43 46  0  0  0  0  0  0  0  0999 V2000
   50.1533  -16.9927   -7.9057 C   0  0  0  0  0  0  0  0  0  0  0  0
   48.7243  -16.9089   -7.5106 C   0  0  0  0  0  0  0  0  0  0  0  0
   51.1685  -16.6181   -6.8888 C   0  0  0  0  0  0  0  0  0  0  0  0
   50.5115  -17.2586   -9.1896 C   0  0  0  0  0  0  0  0  0  0  0  0
   48.9436  -14.4132   -7.1035 C   0  0  0  0  0  0  0  0  0  0  0  0
   50.2387  -14.2590   -6.7741 C   0  0  0  0  0  0  0  0  0  0  0  0
   51.2957  -18.9120  -11.4988 N   0  0  0  0  0  0  0  0  0  0  0  0
   51.1811  -15.3145   -6.3525 C   0  0  0  0  0  0  0  0  0  0  0  0
   48.1731  -15.6725   -7.1178 C   0  0  0  0  0  0  0  0  0  0  0  0
   49.5498  -17.5571  -10.3312 C   0  0  0  0  0  0  0  0  0  0  0  0
   51.9368  -17.2731   -9.7240 C   0  0  0  0  0  0  0  0  0  0  0  0
   49.9067  -18.8944  -11.0025 C   0  0  0  0  0  0  0  0  0  0  0  0
   52.2438  -18.6162  -10.4079 C   0  0  0  0  0  0  0  0  0  0  0  0
   47.9374  -18.0716   -7.4646 C   0  0  0  0  0  0  0  0  0  0  0  0
   52.0752  -17.5792   -6.4120 C   0  0  0  0  0  0  0  0  0  0  0  0
   51.6064  -20.1989  -12.1178 C   0  0  0  0  0  0  0  0  0  0  0  0
   52.1557  -14.9852   -5.3977 C   0  0  0  0  0  0  0  0  0  0  0  0
   46.8180  -15.6203   -6.7557 C   0  0  0  0  0  0  0  0  0  0  0  0
   53.0263  -17.2389   -5.4509 C   0  0  0  0  0  0  0  0  0  0  0  0
   46.5969  -18.0040   -7.0864 C   0  0  0  0  0  0  0  0  0  0  0  0
   53.0715  -15.9407   -4.9502 C   0  0  0  0  0  0  0  0  0  0  0  0
   46.0359  -16.7779   -6.7400 C   0  0  0  0  0  0  0  0  0  0  0  0
   48.3755  -13.5246   -7.3709 H   0  0  0  0  0  0  0  0  0  0  0  0
   50.6538  -13.2534   -6.7914 H   0  0  0  0  0  0  0  0  0  0  0  0
   49.6199  -16.7460  -11.0684 H   0  0  0  0  0  0  0  0  0  0  0  0
   48.5023  -17.5879  -10.0233 H   0  0  0  0  0  0  0  0  0  0  0  0
   52.6927  -17.0891   -8.9572 H   0  0  0  0  0  0  0  0  0  0  0  0
   52.0458  -16.4573  -10.4513 H   0  0  0  0  0  0  0  0  0  0  0  0
   49.7386  -19.7155  -10.2922 H   0  0  0  0  0  0  0  0  0  0  0  0
   49.2200  -19.0460  -11.8443 H   0  0  0  0  0  0  0  0  0  0  0  0
   53.2604  -18.5652  -10.8164 H   0  0  0  0  0  0  0  0  0  0  0  0
   52.2335  -19.4186   -9.6575 H   0  0  0  0  0  0  0  0  0  0  0  0
   48.3708  -19.0334   -7.7271 H   0  0  0  0  0  0  0  0  0  0  0  0
   52.0410  -18.5967   -6.7934 H   0  0  0  0  0  0  0  0  0  0  0  0
   50.9305  -20.3945  -12.9576 H   0  0  0  0  0  0  0  0  0  0  0  0
   51.5250  -21.0308  -11.4088 H   0  0  0  0  0  0  0  0  0  0  0  0
   52.6226  -20.1931  -12.5272 H   0  0  0  0  0  0  0  0  0  0  0  0
   52.1983  -13.9819   -4.9796 H   0  0  0  0  0  0  0  0  0  0  0  0
   46.3632  -14.6764   -6.4640 H   0  0  0  0  0  0  0  0  0  0  0  0
   53.7289  -17.9863   -5.0926 H   0  0  0  0  0  0  0  0  0  0  0  0
   45.9930  -18.9068   -7.0606 H   0  0  0  0  0  0  0  0  0  0  0  0
   53.8127  -15.6718   -4.2020 H   0  0  0  0  0  0  0  0  0  0  0  0
   44.9909  -16.7215   -6.4461 H   0  0  0  0  0  0  0  0  0  0  0  0
  2  1  1  0
  3  1  1  0
  4  1  2  3
  5  9  1  0
  6  8  1  0
  7 13  1  0
  8  3  2  0
  9  2  2  0
 10  4  1  0
 11  4  1  0
 12 10  1  0
 13 11  1  0
 14  2  1  0
 15  3  1  0
 16  7  1  0
 17  8  1  0
 18  9  1  0
 19 15  2  0
 20 14  2  0
 21 19  1  0
 22 20  1  0
  7 12  1  0
  6  5  2  0
 21 17  2  0
 22 18  2  0
  5 23  1  0
  6 24  1  0
 10 25  1  0
 10 26  1  0
 11 27  1  0
 11 28  1  0
 12 29  1  0
 12 30  1  0
 13 31  1  0
 13 32  1  0
 14 33  1  0
 15 34  1  0
 16 35  1  0
 16 36  1  0
 16 37  1  0
 17 38  1  0
 18 39  1  0
 19 40  1  0
 20 41  1  0
 21 42  1  0
 22 43  1  0
M  END
> <Uni-Dock RESULT> 
ENERGY=   -5.710  LOWER_BOUND=    0.000  UPPER_BOUND=    0.000
INTER + INTRA:          -5.710
INTER:                  -5.710
INTRA:                   0.000
UNBOUND:                 0.000

$$$$

     RDKit          3D

 43 46  0  0  0  0  0  0  0  0999 V2000
   50.1470  -17.0078   -7.9954 C   0  0  0  0  0  0  0  0  0  0  0  0
   48.7112  -16.9506   -7.6206 C   0  0  0  0  0  0  0  0  0  0  0  0
   51.1403  -16.6098   -6.9658 C   0  0  0  0  0  0  0  0  0  0  0  0
   50.5284  -17.2712   -9.2731 C   0  0  0  0  0  0  0  0  0  0  0  0
   48.8760  -14.4496   -7.2202 C   0  0  0  0  0  0  0  0  0  0  0  0
   50.1632  -14.2690   -6.8732 C   0  0  0  0  0  0  0  0  0  0  0  0
   51.3772  -18.9172  -11.5647 N   0  0  0  0  0  0  0  0  0  0  0  0
   51.1199  -15.3043   -6.4344 C   0  0  0  0  0  0  0  0  0  0  0  0
   48.1305  -15.7238   -7.2404 C   0  0  0  0  0  0  0  0  0  0  0  0
   49.5889  -17.5926  -10.4269 C   0  0  0  0  0  0  0  0  0  0  0  0
   51.9611  -17.2598   -9.7874 C   0  0  0  0  0  0  0  0  0  0  0  0
   49.9812  -18.9250  -11.0880 C   0  0  0  0  0  0  0  0  0  0  0  0
   52.3038  -18.5991  -10.4618 C   0  0  0  0  0  0  0  0  0  0  0  0
   47.9466  -18.1282   -7.5812 C   0  0  0  0  0  0  0  0  0  0  0  0
   52.0587  -17.5512   -6.4726 C   0  0  0  0  0  0  0  0  0  0  0  0
   51.7216  -20.2000  -12.1743 C   0  0  0  0  0  0  0  0  0  0  0  0
   52.0744  -14.9526   -5.4673 C   0  0  0  0  0  0  0  0  0  0  0  0
   46.7697  -15.6968   -6.8975 C   0  0  0  0  0  0  0  0  0  0  0  0
   52.9894  -17.1890   -5.4996 C   0  0  0  0  0  0  0  0  0  0  0  0
   46.5999  -18.0855   -7.2222 C   0  0  0  0  0  0  0  0  0  0  0  0
   53.0022  -15.8884   -5.0033 C   0  0  0  0  0  0  0  0  0  0  0  0
   46.0102  -16.8694   -6.8883 C   0  0  0  0  0  0  0  0  0  0  0  0
   48.2946  -13.5732   -7.4989 H   0  0  0  0  0  0  0  0  0  0  0  0
   50.5587  -13.2555   -6.8885 H   0  0  0  0  0  0  0  0  0  0  0  0
   49.6535  -16.7829  -11.1662 H   0  0  0  0  0  0  0  0  0  0  0  0
   48.5379  -17.6427  -10.1336 H   0  0  0  0  0  0  0  0  0  0  0  0
   52.7024  -17.0583   -9.0108 H   0  0  0  0  0  0  0  0  0  0  0  0
   52.0644  -16.4446  -10.5162 H   0  0  0  0  0  0  0  0  0  0  0  0
   49.8192  -19.7467  -10.3770 H   0  0  0  0  0  0  0  0  0  0  0  0
   49.3096  -19.0930  -11.9388 H   0  0  0  0  0  0  0  0  0  0  0  0
   53.3250  -18.5296  -10.8562 H   0  0  0  0  0  0  0  0  0  0  0  0
   52.2986  -19.3988   -9.7085 H   0  0  0  0  0  0  0  0  0  0  0  0
   48.4023  -19.0823   -7.8340 H   0  0  0  0  0  0  0  0  0  0  0  0
   52.0498  -18.5706   -6.8505 H   0  0  0  0  0  0  0  0  0  0  0  0
   51.0616  -20.4118  -13.0228 H   0  0  0  0  0  0  0  0  0  0  0  0
   51.6464  -21.0308  -11.4634 H   0  0  0  0  0  0  0  0  0  0  0  0
   52.7432  -20.1758  -12.5695 H   0  0  0  0  0  0  0  0  0  0  0  0
   52.0914  -13.9471   -5.0525 H   0  0  0  0  0  0  0  0  0  0  0  0
   46.2925  -14.7609   -6.6159 H   0  0  0  0  0  0  0  0  0  0  0  0
   53.7014  -17.9213   -5.1286 H   0  0  0  0  0  0  0  0  0  0  0  0
   46.0134  -18.9999   -7.2014 H   0  0  0  0  0  0  0  0  0  0  0  0
   53.7274  -15.6024   -4.2458 H   0  0  0  0  0  0  0  0  0  0  0  0
   44.9603  -16.8324   -6.6094 H   0  0  0  0  0  0  0  0  0  0  0  0
  2  1  1  0
  3  1  1  0
  4  1  2  3
  5  9  1  0
  6  8  1  0
  7 13  1  0
  8  3  2  0
  9  2  2  0
 10  4  1  0
 11  4  1  0
 12 10  1  0
 13 11  1  0
 14  2  1  0
 15  3  1  0
 16  7  1  0
 17  8  1  0
 18  9  1  0
 19 15  2  0
 20 14  2  0
 21 19  1  0
 22 20  1  0
  7 12  1  0
  6  5  2  0
 21 17  2  0
 22 18  2  0
  5 23  1  0
  6 24  1  0
 10 25  1  0
 10 26  1  0
 11 27  1  0
 11 28  1  0
 12 29  1  0
 12 30  1  0
 13 31  1  0
 13 32  1  0
 14 33  1  0
 15 34  1  0
 16 35  1  0
 16 36  1  0
 16 37  1  0
 17 38  1  0
 18 39  1  0
 19 40  1  0
 20 41  1  0
 21 42  1  0
 22 43  1  0
M  END
> <Uni-Dock RESULT> 
ENERGY=   -5.639  LOWER_BOUND=    0.117  UPPER_BOUND=    0.117
INTER + INTRA:          -5.639
INTER:                  -5.639
INTRA:                   0.000
UNBOUND:                 0.000

$$$$

     RDKit          3D

 43 46  0  0  0  0  0  0  0  0999 V2000
   47.8467  -17.2256   -7.9008 C   0  0  0  0  0  0  0  0  0  0  0  0
   48.8630  -16.2486   -7.4342 C   0  0  0  0  0  0  0  0  0  0  0  0
   47.3986  -18.2617   -6.9360 C   0  0  0  0  0  0  0  0  0  0  0  0
   47.4530  -17.2611   -9.2013 C   0  0  0  0  0  0  0  0  0  0  0  0
   50.5334  -18.1179   -7.0372 C   0  0  0  0  0  0  0  0  0  0  0  0
   49.7575  -19.1847   -6.7732 C   0  0  0  0  0  0  0  0  0  0  0  0
   45.7870  -16.6301  -11.5480 N   0  0  0  0  0  0  0  0  0  0  0  0
   48.3290  -19.1752   -6.4003 C   0  0  0  0  0  0  0  0  0  0  0  0
   50.1311  -16.6976   -7.0134 C   0  0  0  0  0  0  0  0  0  0  0  0
   47.9249  -16.3113  -10.2932 C   0  0  0  0  0  0  0  0  0  0  0  0
   46.4948  -18.2774   -9.8067 C   0  0  0  0  0  0  0  0  0  0  0  0
   46.7241  -15.6411  -10.9824 C   0  0  0  0  0  0  0  0  0  0  0  0
   45.3239  -17.5661  -10.5060 C   0  0  0  0  0  0  0  0  0  0  0  0
   48.5407  -14.8840   -7.3494 C   0  0  0  0  0  0  0  0  0  0  0  0
   46.0617  -18.2921   -6.5060 C   0  0  0  0  0  0  0  0  0  0  0  0
   44.6526  -15.9621  -12.1826 C   0  0  0  0  0  0  0  0  0  0  0  0
   47.8773  -20.1485   -5.4955 C   0  0  0  0  0  0  0  0  0  0  0  0
   51.0752  -15.7521   -6.5836 C   0  0  0  0  0  0  0  0  0  0  0  0
   45.6338  -19.2559   -5.5937 C   0  0  0  0  0  0  0  0  0  0  0  0
   49.4857  -13.9604   -6.9043 C   0  0  0  0  0  0  0  0  0  0  0  0
   46.5394  -20.1883   -5.0951 C   0  0  0  0  0  0  0  0  0  0  0  0
   50.7545  -14.3934   -6.5293 C   0  0  0  0  0  0  0  0  0  0  0  0
   51.5803  -18.2944   -7.2751 H   0  0  0  0  0  0  0  0  0  0  0  0
   50.2154  -20.1709   -6.8107 H   0  0  0  0  0  0  0  0  0  0  0  0
   48.4987  -16.8862  -11.0325 H   0  0  0  0  0  0  0  0  0  0  0  0
   48.6016  -15.5332   -9.9330 H   0  0  0  0  0  0  0  0  0  0  0  0
   46.0912  -18.9847   -9.0788 H   0  0  0  0  0  0  0  0  0  0  0  0
   47.0454  -18.8843  -10.5380 H   0  0  0  0  0  0  0  0  0  0  0  0
   46.2104  -14.9866  -10.2651 H   0  0  0  0  0  0  0  0  0  0  0  0
   47.1072  -15.0038  -11.7887 H   0  0  0  0  0  0  0  0  0  0  0  0
   44.6865  -18.3316  -10.9651 H   0  0  0  0  0  0  0  0  0  0  0  0
   44.7156  -17.0415   -9.7565 H   0  0  0  0  0  0  0  0  0  0  0  0
   47.5496  -14.5397   -7.6341 H   0  0  0  0  0  0  0  0  0  0  0  0
   45.3507  -17.5626   -6.8858 H   0  0  0  0  0  0  0  0  0  0  0  0
   44.9960  -15.3028  -12.9876 H   0  0  0  0  0  0  0  0  0  0  0  0
   44.0722  -15.3637  -11.4710 H   0  0  0  0  0  0  0  0  0  0  0  0
   43.9823  -16.6965  -12.6427 H   0  0  0  0  0  0  0  0  0  0  0  0
   48.5710  -20.8758   -5.0794 H   0  0  0  0  0  0  0  0  0  0  0  0
   52.0667  -16.0697   -6.2688 H   0  0  0  0  0  0  0  0  0  0  0  0
   44.5962  -19.2772   -5.2718 H   0  0  0  0  0  0  0  0  0  0  0  0
   49.2309  -12.9056   -6.8487 H   0  0  0  0  0  0  0  0  0  0  0  0
   46.2087  -20.9418   -4.3850 H   0  0  0  0  0  0  0  0  0  0  0  0
   51.4939  -13.6758   -6.1832 H   0  0  0  0  0  0  0  0  0  0  0  0
  2  1  1  0
  3  1  1  0
  4  1  2  3
  5  9  1  0
  6  8  1  0
  7 13  1  0
  8  3  2  0
  9  2  2  0
 10  4  1  0
 11  4  1  0
 12 10  1  0
 13 11  1  0
 14  2  1  0
 15  3  1  0
 16  7  1  0
 17  8  1  0
 18  9  1  0
 19 15  2  0
 20 14  2  0
 21 19  1  0
 22 20  1  0
  7 12  1  0
  6  5  2  0
 21 17  2  0
 22 18  2  0
  5 23  1  0
  6 24  1  0
 10 25  1  0
 10 26  1  0
 11 27  1  0
 11 28  1  0
 12 29  1  0
 12 30  1  0
 13 31  1  0
 13 32  1  0
 14 33  1  0
 15 34  1  0
 16 35  1  0
 16 36  1  0
 16 37  1  0
 17 38  1  0
 18 39  1  0
 19 40  1  0
 20 41  1  0
 21 42  1  0
 22 43  1  0
M  END
> <Uni-Dock RESULT> 
ENERGY=   -5.480  LOWER_BOUND=    2.555  UPPER_BOUND=    5.178
INTER + INTRA:          -5.480
INTER:                  -5.480
INTRA:                   0.000
UNBOUND:                 0.000

$$$$

     RDKit          3D

 43 46  0  0  0  0  0  0  0  0999 V2000
   50.2427  -17.6674   -7.6424 C   0  0  0  0  0  0  0  0  0  0  0  0
   51.0616  -18.0069   -6.4510 C   0  0  0  0  0  0  0  0  0  0  0  0
   48.8740  -17.1423   -7.4060 C   0  0  0  0  0  0  0  0  0  0  0  0
   50.6731  -17.9643   -8.8970 C   0  0  0  0  0  0  0  0  0  0  0  0
   49.3661  -19.7553   -5.7362 C   0  0  0  0  0  0  0  0  0  0  0  0
   48.2069  -19.2971   -6.2423 C   0  0  0  0  0  0  0  0  0  0  0  0
   51.9888  -17.5018  -11.4925 N   0  0  0  0  0  0  0  0  0  0  0  0
   47.9249  -17.9302   -6.7238 C   0  0  0  0  0  0  0  0  0  0  0  0
   50.6173  -18.9942   -5.5485 C   0  0  0  0  0  0  0  0  0  0  0  0
   52.0144  -18.5945   -9.2447 C   0  0  0  0  0  0  0  0  0  0  0  0
   49.8779  -17.7502  -10.1773 C   0  0  0  0  0  0  0  0  0  0  0  0
   52.7722  -17.7252  -10.2627 C   0  0  0  0  0  0  0  0  0  0  0  0
   50.6803  -16.8985  -11.1757 C   0  0  0  0  0  0  0  0  0  0  0  0
   52.2463  -17.2999   -6.1866 C   0  0  0  0  0  0  0  0  0  0  0  0
   48.5427  -15.8363   -7.8032 C   0  0  0  0  0  0  0  0  0  0  0  0
   52.7302  -16.6626  -12.4315 C   0  0  0  0  0  0  0  0  0  0  0  0
   46.6366  -17.4120   -6.5197 C   0  0  0  0  0  0  0  0  0  0  0  0
   51.4141  -19.3002   -4.4343 C   0  0  0  0  0  0  0  0  0  0  0  0
   47.2627  -15.3315   -7.5776 C   0  0  0  0  0  0  0  0  0  0  0  0
   53.0173  -17.6057   -5.0657 C   0  0  0  0  0  0  0  0  0  0  0  0
   46.3081  -16.1219   -6.9435 C   0  0  0  0  0  0  0  0  0  0  0  0
   52.6053  -18.6106   -4.1947 C   0  0  0  0  0  0  0  0  0  0  0  0
   49.4037  -20.7899   -5.4017 H   0  0  0  0  0  0  0  0  0  0  0  0
   47.3646  -19.9840   -6.2918 H   0  0  0  0  0  0  0  0  0  0  0  0
   51.8324  -19.5888   -9.6745 H   0  0  0  0  0  0  0  0  0  0  0  0
   52.6574  -18.7599   -8.3773 H   0  0  0  0  0  0  0  0  0  0  0  0
   48.9067  -17.2777  -10.0145 H   0  0  0  0  0  0  0  0  0  0  0  0
   49.6611  -18.7307  -10.6222 H   0  0  0  0  0  0  0  0  0  0  0  0
   53.0418  -16.7680   -9.7958 H   0  0  0  0  0  0  0  0  0  0  0  0
   53.7075  -18.2381  -10.5180 H   0  0  0  0  0  0  0  0  0  0  0  0
   50.0911  -16.8089  -12.0965 H   0  0  0  0  0  0  0  0  0  0  0  0
   50.8087  -15.8854  -10.7705 H   0  0  0  0  0  0  0  0  0  0  0  0
   52.5704  -16.5093   -6.8587 H   0  0  0  0  0  0  0  0  0  0  0  0
   49.2853  -15.2110   -8.2926 H   0  0  0  0  0  0  0  0  0  0  0  0
   53.6810  -17.1354  -12.7014 H   0  0  0  0  0  0  0  0  0  0  0  0
   52.9437  -15.6691  -12.0209 H   0  0  0  0  0  0  0  0  0  0  0  0
   52.1665  -16.5370  -13.3625 H   0  0  0  0  0  0  0  0  0  0  0  0
   45.8802  -18.0052   -6.0105 H   0  0  0  0  0  0  0  0  0  0  0  0
   51.1029  -20.0691   -3.7308 H   0  0  0  0  0  0  0  0  0  0  0  0
   47.0122  -14.3228   -7.8946 H   0  0  0  0  0  0  0  0  0  0  0  0
   53.9362  -17.0592   -4.8722 H   0  0  0  0  0  0  0  0  0  0  0  0
   45.3089  -15.7319   -6.7675 H   0  0  0  0  0  0  0  0  0  0  0  0
   53.2048  -18.8525   -3.3209 H   0  0  0  0  0  0  0  0  0  0  0  0
  2  1  1  0
  3  1  1  0
  4  1  2  3
  5  9  1  0
  6  8  1  0
  7 13  1  0
  8  3  2  0
  9  2  2  0
 10  4  1  0
 11  4  1  0
 12 10  1  0
 13 11  1  0
 14  2  1  0
 15  3  1  0
 16  7  1  0
 17  8  1  0
 18  9  1  0
 19 15  2  0
 20 14  2  0
 21 19  1  0
 22 20  1  0
  7 12  1  0
  6  5  2  0
 21 17  2  0
 22 18  2  0
  5 23  1  0
  6 24  1  0
 10 25  1  0
 10 26  1  0
 11 27  1  0
 11 28  1  0
 12 29  1  0
 12 30  1  0
 13 31  1  0
 13 32  1  0
 14 33  1  0
 15 34  1  0
 16 35  1  0
 16 36  1  0
 16 37  1  0
 17 38  1  0
 18 39  1  0
 19 40  1  0
 20 41  1  0
 21 42  1  0
 22 43  1  0
M  END
> <Uni-Dock RESULT> 
ENERGY=   -5.065  LOWER_BOUND=    1.488  UPPER_BOUND=    4.588
INTER + INTRA:          -5.065
INTER:                  -5.065
INTRA:                   0.000
UNBOUND:                 0.000

$$$$

     RDKit          3D

 43 46  0  0  0  0  0  0  0  0999 V2000
   47.1992  -16.4007  -10.7467 C   0  0  0  0  0  0  0  0  0  0  0  0
   46.9976  -16.4403   -9.2760 C   0  0  0  0  0  0  0  0  0  0  0  0
   46.0683  -15.9207  -11.5807 C   0  0  0  0  0  0  0  0  0  0  0  0
   48.3185  -16.9215  -11.3155 C   0  0  0  0  0  0  0  0  0  0  0  0
   45.0988  -18.1034   -9.5425 C   0  0  0  0  0  0  0  0  0  0  0  0
   44.6064  -17.8281  -10.7638 C   0  0  0  0  0  0  0  0  0  0  0  0
   51.0510  -16.9217  -12.4175 N   0  0  0  0  0  0  0  0  0  0  0  0
   44.8375  -16.6076  -11.5618 C   0  0  0  0  0  0  0  0  0  0  0  0
   45.9813  -17.2471   -8.7255 C   0  0  0  0  0  0  0  0  0  0  0  0
   49.4925  -17.5287  -10.5602 C   0  0  0  0  0  0  0  0  0  0  0  0
   48.5848  -17.0212  -12.8109 C   0  0  0  0  0  0  0  0  0  0  0  0
   50.8083  -16.8421  -10.9646 C   0  0  0  0  0  0  0  0  0  0  0  0
   49.9195  -16.3453  -13.1683 C   0  0  0  0  0  0  0  0  0  0  0  0
   47.7750  -15.6250   -8.4368 C   0  0  0  0  0  0  0  0  0  0  0  0
   46.2015  -14.7454  -12.3384 C   0  0  0  0  0  0  0  0  0  0  0  0
   52.2999  -16.2495  -12.7697 C   0  0  0  0  0  0  0  0  0  0  0  0
   43.7872  -16.1362  -12.3648 C   0  0  0  0  0  0  0  0  0  0  0  0
   45.8170  -17.2710   -7.3317 C   0  0  0  0  0  0  0  0  0  0  0  0
   45.1421  -14.2823  -13.1177 C   0  0  0  0  0  0  0  0  0  0  0  0
   47.5869  -15.6490   -7.0553 C   0  0  0  0  0  0  0  0  0  0  0  0
   43.9387  -14.9818  -13.1369 C   0  0  0  0  0  0  0  0  0  0  0  0
   46.6140  -16.4775   -6.5029 C   0  0  0  0  0  0  0  0  0  0  0  0
   44.8120  -19.0437   -9.0764 H   0  0  0  0  0  0  0  0  0  0  0  0
   43.9457  -18.5595  -11.2246 H   0  0  0  0  0  0  0  0  0  0  0  0
   49.5474  -18.5987  -10.8014 H   0  0  0  0  0  0  0  0  0  0  0  0
   49.3882  -17.4747   -9.4742 H   0  0  0  0  0  0  0  0  0  0  0  0
   47.7947  -16.5840  -13.4254 H   0  0  0  0  0  0  0  0  0  0  0  0
   48.6249  -18.0831  -13.0888 H   0  0  0  0  0  0  0  0  0  0  0  0
   50.7911  -15.7954  -10.6314 H   0  0  0  0  0  0  0  0  0  0  0  0
   51.6286  -17.3398  -10.4332 H   0  0  0  0  0  0  0  0  0  0  0  0
   50.0922  -16.4809  -14.2430 H   0  0  0  0  0  0  0  0  0  0  0  0
   49.8423  -15.2650  -12.9839 H   0  0  0  0  0  0  0  0  0  0  0  0
   48.5318  -14.9706   -8.8619 H   0  0  0  0  0  0  0  0  0  0  0  0
   47.1362  -14.1903  -12.3226 H   0  0  0  0  0  0  0  0  0  0  0  0
   53.1452  -16.7101  -12.2463 H   0  0  0  0  0  0  0  0  0  0  0  0
   52.2811  -15.1821  -12.5214 H   0  0  0  0  0  0  0  0  0  0  0  0
   52.5017  -16.3505  -13.8418 H   0  0  0  0  0  0  0  0  0  0  0  0
   42.8322  -16.6567  -12.3815 H   0  0  0  0  0  0  0  0  0  0  0  0
   45.0511  -17.8971   -6.8795 H   0  0  0  0  0  0  0  0  0  0  0  0
   45.2558  -13.3763  -13.7068 H   0  0  0  0  0  0  0  0  0  0  0  0
   48.1975  -15.0209   -6.4124 H   0  0  0  0  0  0  0  0  0  0  0  0
   43.1114  -14.6242  -13.7445 H   0  0  0  0  0  0  0  0  0  0  0  0
   46.4659  -16.4996   -5.4263 H   0  0  0  0  0  0  0  0  0  0  0  0
  2  1  1  0
  3  1  1  0
  4  1  2  3
  5  9  1  0
  6  8  1  0
  7 13  1  0
  8  3  2  0
  9  2  2  0
 10  4  1  0
 11  4  1  0
 12 10  1  0
 13 11  1  0
 14  2  1  0
 15  3  1  0
 16  7  1  0
 17  8  1  0
 18  9  1  0
 19 15  2  0
 20 14  2  0
 21 19  1  0
 22 20  1  0
  7 12  1  0
  6  5  2  0
 21 17  2  0
 22 18  2  0
  5 23  1  0
  6 24  1  0
 10 25  1  0
 10 26  1  0
 11 27  1  0
 11 28  1  0
 12 29  1  0
 12 30  1  0
 13 31  1  0
 13 32  1  0
 14 33  1  0
 15 34  1  0
 16 35  1  0
 16 36  1  0
 16 37  1  0
 17 38  1  0
 18 39  1  0
 19 40  1  0
 20 41  1  0
 21 42  1  0
 22 43  1  0
M  END
> <Uni-Dock RESULT> 
ENERGY=   -4.596  LOWER_BOUND=    3.497  UPPER_BOUND=    6.094
INTER + INTRA:          -4.596
INTER:                  -4.596
INTRA:                   0.000
UNBOUND:                 0.000

$$$$

     RDKit          3D

 43 46  0  0  0  0  0  0  0  0999 V2000
   46.2803  -16.7280  -10.1649 C   0  0  0  0  0  0  0  0  0  0  0  0
   46.1939  -15.9587  -11.4322 C   0  0  0  0  0  0  0  0  0  0  0  0
   47.1956  -16.2161   -9.1137 C   0  0  0  0  0  0  0  0  0  0  0  0
   45.6603  -17.9301  -10.0305 C   0  0  0  0  0  0  0  0  0  0  0  0
   48.6584  -16.3595  -11.8881 C   0  0  0  0  0  0  0  0  0  0  0  0
   49.1893  -16.4959  -10.6596 C   0  0  0  0  0  0  0  0  0  0  0  0
   43.5038  -19.8026   -9.3065 N   0  0  0  0  0  0  0  0  0  0  0  0
   48.5756  -16.0999   -9.3764 C   0  0  0  0  0  0  0  0  0  0  0  0
   47.3428  -15.7832  -12.2297 C   0  0  0  0  0  0  0  0  0  0  0  0
   44.7815  -18.5932  -11.0818 C   0  0  0  0  0  0  0  0  0  0  0  0
   45.7598  -18.8445   -8.8175 C   0  0  0  0  0  0  0  0  0  0  0  0
   43.4012  -18.9347  -10.4949 C   0  0  0  0  0  0  0  0  0  0  0  0
   44.3592  -19.1808   -8.2780 C   0  0  0  0  0  0  0  0  0  0  0  0
   44.9841  -15.3500  -11.8050 C   0  0  0  0  0  0  0  0  0  0  0  0
   46.6800  -15.7856   -7.8800 C   0  0  0  0  0  0  0  0  0  0  0  0
   42.1781  -20.0968   -8.7663 C   0  0  0  0  0  0  0  0  0  0  0  0
   49.4192  -15.6194   -8.3627 C   0  0  0  0  0  0  0  0  0  0  0  0
   47.2315  -15.0575  -13.4260 C   0  0  0  0  0  0  0  0  0  0  0  0
   47.5308  -15.2954   -6.8901 C   0  0  0  0  0  0  0  0  0  0  0  0
   44.8957  -14.6185  -12.9888 C   0  0  0  0  0  0  0  0  0  0  0  0
   48.9003  -15.2199   -7.1286 C   0  0  0  0  0  0  0  0  0  0  0  0
   46.0167  -14.4792  -13.8025 C   0  0  0  0  0  0  0  0  0  0  0  0
   49.2536  -16.6815  -12.7401 H   0  0  0  0  0  0  0  0  0  0  0  0
   50.1874  -16.9214  -10.5790 H   0  0  0  0  0  0  0  0  0  0  0  0
   45.2751  -19.5144  -11.4194 H   0  0  0  0  0  0  0  0  0  0  0  0
   44.6406  -17.9866  -11.9792 H   0  0  0  0  0  0  0  0  0  0  0  0
   46.3582  -18.4278   -8.0043 H   0  0  0  0  0  0  0  0  0  0  0  0
   46.2694  -19.7698   -9.1183 H   0  0  0  0  0  0  0  0  0  0  0  0
   42.8683  -18.0055  -10.2513 H   0  0  0  0  0  0  0  0  0  0  0  0
   42.8205  -19.4499  -11.2698 H   0  0  0  0  0  0  0  0  0  0  0  0
   44.4765  -19.8752   -7.4371 H   0  0  0  0  0  0  0  0  0  0  0  0
   43.8909  -18.2681   -7.8846 H   0  0  0  0  0  0  0  0  0  0  0  0
   44.1065  -15.4488  -11.1710 H   0  0  0  0  0  0  0  0  0  0  0  0
   45.6108  -15.8351   -7.6895 H   0  0  0  0  0  0  0  0  0  0  0  0
   41.5602  -20.6010   -9.5176 H   0  0  0  0  0  0  0  0  0  0  0  0
   41.6532  -19.1920   -8.4392 H   0  0  0  0  0  0  0  0  0  0  0  0
   42.2537  -20.7792   -7.9125 H   0  0  0  0  0  0  0  0  0  0  0  0
   50.4902  -15.5351   -8.5333 H   0  0  0  0  0  0  0  0  0  0  0  0
   48.0986  -14.9207  -14.0683 H   0  0  0  0  0  0  0  0  0  0  0  0
   47.1248  -14.9713   -5.9356 H   0  0  0  0  0  0  0  0  0  0  0  0
   43.9542  -14.1569  -13.2738 H   0  0  0  0  0  0  0  0  0  0  0  0
   49.5664  -14.8396   -6.3585 H   0  0  0  0  0  0  0  0  0  0  0  0
   45.9508  -13.9109  -14.7266 H   0  0  0  0  0  0  0  0  0  0  0  0
  2  1  1  0
  3  1  1  0
  4  1  2  3
  5  9  1  0
  6  8  1  0
  7 13  1  0
  8  3  2  0
  9  2  2  0
 10  4  1  0
 11  4  1  0
 12 10  1  0
 13 11  1  0
 14  2  1  0
 15  3  1  0
 16  7  1  0
 17  8  1  0
 18  9  1  0
 19 15  2  0
 20 14  2  0
 21 19  1  0
 22 20  1  0
  7 12  1  0
  6  5  2  0
 21 17  2  0
 22 18  2  0
  5 23  1  0
  6 24  1  0
 10 25  1  0
 10 26  1  0
 11 27  1  0
 11 28  1  0
 12 29  1  0
 12 30  1  0
 13 31  1  0
 13 32  1  0
 14 33  1  0
 15 34  1  0
 16 35  1  0
 16 36  1  0
 16 37  1  0
 17 38  1  0
 18 39  1  0
 19 40  1  0
 20 41  1  0
 21 42  1  0
 22 43  1  0
M  END
> <Uni-Dock RESULT> 
ENERGY=   -4.289  LOWER_BOUND=    3.907  UPPER_BOUND=    6.090
INTER + INTRA:          -4.289
INTER:                  -4.289
INTRA:                   0.000
UNBOUND:                 0.000

$$$$

     RDKit          3D

 43 46  0  0  0  0  0  0  0  0999 V2000
   49.7083  -18.0357   -7.5551 C   0  0  0  0  0  0  0  0  0  0  0  0
   49.6429  -17.5972   -8.9723 C   0  0  0  0  0  0  0  0  0  0  0  0
   48.4402  -18.4619   -6.9105 C   0  0  0  0  0  0  0  0  0  0  0  0
   50.8541  -17.9116   -6.8346 C   0  0  0  0  0  0  0  0  0  0  0  0
   48.0801  -15.6958   -8.3517 C   0  0  0  0  0  0  0  0  0  0  0  0
   47.4428  -16.1540   -7.2591 C   0  0  0  0  0  0  0  0  0  0  0  0
   53.4336  -18.7430   -5.6786 N   0  0  0  0  0  0  0  0  0  0  0  0
   47.3689  -17.5532   -6.7937 C   0  0  0  0  0  0  0  0  0  0  0  0
   48.8491  -16.4890   -9.3311 C   0  0  0  0  0  0  0  0  0  0  0  0
   52.1818  -17.3931   -7.3691 C   0  0  0  0  0  0  0  0  0  0  0  0
   51.0072  -18.2376   -5.3556 C   0  0  0  0  0  0  0  0  0  0  0  0
   53.3037  -18.4133   -7.1106 C   0  0  0  0  0  0  0  0  0  0  0  0
   52.1537  -19.2400   -5.1391 C   0  0  0  0  0  0  0  0  0  0  0  0
   50.3187  -18.3243   -9.9661 C   0  0  0  0  0  0  0  0  0  0  0  0
   48.2826  -19.7882   -6.4756 C   0  0  0  0  0  0  0  0  0  0  0  0
   54.4972  -19.7230   -5.4691 C   0  0  0  0  0  0  0  0  0  0  0  0
   46.1841  -17.9802   -6.1742 C   0  0  0  0  0  0  0  0  0  0  0  0
   48.8107  -16.0917  -10.6768 C   0  0  0  0  0  0  0  0  0  0  0  0
   47.0924  -20.1998   -5.8772 C   0  0  0  0  0  0  0  0  0  0  0  0
   50.2561  -17.9251  -11.3006 C   0  0  0  0  0  0  0  0  0  0  0  0
   46.0470  -19.2941   -5.7194 C   0  0  0  0  0  0  0  0  0  0  0  0
   49.5090  -16.8049  -11.6543 C   0  0  0  0  0  0  0  0  0  0  0  0
   48.0181  -14.6318   -8.5703 H   0  0  0  0  0  0  0  0  0  0  0  0
   46.8970  -15.4378   -6.6485 H   0  0  0  0  0  0  0  0  0  0  0  0
   52.4190  -16.4494   -6.8598 H   0  0  0  0  0  0  0  0  0  0  0  0
   52.1613  -17.1572   -8.4355 H   0  0  0  0  0  0  0  0  0  0  0  0
   50.0992  -18.6397   -4.9006 H   0  0  0  0  0  0  0  0  0  0  0  0
   51.2253  -17.3076   -4.8134 H   0  0  0  0  0  0  0  0  0  0  0  0
   53.1156  -19.3200   -7.7015 H   0  0  0  0  0  0  0  0  0  0  0  0
   54.2458  -17.9804   -7.4688 H   0  0  0  0  0  0  0  0  0  0  0  0
   52.2576  -19.4099   -4.0605 H   0  0  0  0  0  0  0  0  0  0  0  0
   51.8879  -20.2027   -5.5970 H   0  0  0  0  0  0  0  0  0  0  0  0
   50.8983  -19.2042   -9.6980 H   0  0  0  0  0  0  0  0  0  0  0  0
   49.0923  -20.5027   -6.6021 H   0  0  0  0  0  0  0  0  0  0  0  0
   55.4559  -19.3325   -5.8282 H   0  0  0  0  0  0  0  0  0  0  0  0
   54.2964  -20.6698   -5.9834 H   0  0  0  0  0  0  0  0  0  0  0  0
   54.6232  -19.9310   -4.4008 H   0  0  0  0  0  0  0  0  0  0  0  0
   45.3478  -17.2946   -6.0564 H   0  0  0  0  0  0  0  0  0  0  0  0
   48.2191  -15.2303  -10.9786 H   0  0  0  0  0  0  0  0  0  0  0  0
   46.9812  -21.2257   -5.5367 H   0  0  0  0  0  0  0  0  0  0  0  0
   50.7878  -18.4887  -12.0624 H   0  0  0  0  0  0  0  0  0  0  0  0
   45.1184  -19.6113   -5.2519 H   0  0  0  0  0  0  0  0  0  0  0  0
   49.4593  -16.4902  -12.6935 H   0  0  0  0  0  0  0  0  0  0  0  0
  2  1  1  0
  3  1  1  0
  4  1  2  3
  5  9  1  0
  6  8  1  0
  7 13  1  0
  8  3  2  0
  9  2  2  0
 10  4  1  0
 11  4  1  0
 12 10  1  0
 13 11  1  0
 14  2  1  0
 15  3  1  0
 16  7  1  0
 17  8  1  0
 18  9  1  0
 19 15  2  0
 20 14  2  0
 21 19  1  0
 22 20  1  0
  7 12  1  0
  6  5  2  0
 21 17  2  0
 22 18  2  0
  5 23  1  0
  6 24  1  0
 10 25  1  0
 10 26  1  0
 11 27  1  0
 11 28  1  0
 12 29  1  0
 12 30  1  0
 13 31  1  0
 13 32  1  0
 14 33  1  0
 15 34  1  0
 16 35  1  0
 16 36  1  0
 16 37  1  0
 17 38  1  0
 18 39  1  0
 19 40  1  0
 20 41  1  0
 21 42  1  0
 22 43  1  0
M  END
> <Uni-Dock RESULT> 
ENERGY=   -4.019  LOWER_BOUND=    2.246  UPPER_BOUND=    4.838
INTER + INTRA:          -4.019
INTER:                  -4.019
INTRA:                   0.000
UNBOUND:                 0.000

$$$$

     RDKit          3D

 43 46  0  0  0  0  0  0  0  0999 V2000
   48.0211  -18.1421   -8.0136 C   0  0  0  0  0  0  0  0  0  0  0  0
   49.1969  -18.3318   -7.1266 C   0  0  0  0  0  0  0  0  0  0  0  0
   48.2832  -17.8510   -9.4459 C   0  0  0  0  0  0  0  0  0  0  0  0
   46.7611  -18.0903   -7.5065 C   0  0  0  0  0  0  0  0  0  0  0  0
   49.9832  -15.9651   -7.5988 C   0  0  0  0  0  0  0  0  0  0  0  0
   49.4990  -15.7103   -8.8278 C   0  0  0  0  0  0  0  0  0  0  0  0
   44.1260  -19.1183   -6.6817 N   0  0  0  0  0  0  0  0  0  0  0  0
   49.0022  -16.6944   -9.8099 C   0  0  0  0  0  0  0  0  0  0  0  0
   50.1266  -17.2863   -6.9555 C   0  0  0  0  0  0  0  0  0  0  0  0
   46.3902  -18.2751   -6.0418 C   0  0  0  0  0  0  0  0  0  0  0  0
   45.4979  -17.8055   -8.3068 C   0  0  0  0  0  0  0  0  0  0  0  0
   45.3391  -19.3876   -5.8868 C   0  0  0  0  0  0  0  0  0  0  0  0
   44.4656  -18.9277   -8.1046 C   0  0  0  0  0  0  0  0  0  0  0  0
   49.4196  -19.5737   -6.5091 C   0  0  0  0  0  0  0  0  0  0  0  0
   47.8729  -18.7596  -10.4355 C   0  0  0  0  0  0  0  0  0  0  0  0
   43.1548  -20.1988   -6.5232 C   0  0  0  0  0  0  0  0  0  0  0  0
   49.2301  -16.4399  -11.1713 C   0  0  0  0  0  0  0  0  0  0  0  0
   51.2253  -17.4901   -6.1061 C   0  0  0  0  0  0  0  0  0  0  0  0
   48.1224  -18.4989  -11.7824 C   0  0  0  0  0  0  0  0  0  0  0  0
   50.5256  -19.7638   -5.6814 C   0  0  0  0  0  0  0  0  0  0  0  0
   48.7934  -17.3359  -12.1502 C   0  0  0  0  0  0  0  0  0  0  0  0
   51.4232  -18.7201   -5.4740 C   0  0  0  0  0  0  0  0  0  0  0  0
   50.3338  -15.1245   -7.0037 H   0  0  0  0  0  0  0  0  0  0  0  0
   49.4822  -14.6762   -9.1656 H   0  0  0  0  0  0  0  0  0  0  0  0
   45.9817  -17.3287   -5.6626 H   0  0  0  0  0  0  0  0  0  0  0  0
   47.2437  -18.5073   -5.4009 H   0  0  0  0  0  0  0  0  0  0  0  0
   45.6774  -17.6828   -9.3773 H   0  0  0  0  0  0  0  0  0  0  0  0
   45.0750  -16.8514   -7.9645 H   0  0  0  0  0  0  0  0  0  0  0  0
   45.7832  -20.3512   -6.1718 H   0  0  0  0  0  0  0  0  0  0  0  0
   45.0688  -19.4544   -4.8259 H   0  0  0  0  0  0  0  0  0  0  0  0
   43.5586  -18.6595   -8.6599 H   0  0  0  0  0  0  0  0  0  0  0  0
   44.8506  -19.8603   -8.5393 H   0  0  0  0  0  0  0  0  0  0  0  0
   48.7265  -20.3952   -6.6721 H   0  0  0  0  0  0  0  0  0  0  0  0
   47.3547  -19.6731  -10.1549 H   0  0  0  0  0  0  0  0  0  0  0  0
   42.8688  -20.3073   -5.4711 H   0  0  0  0  0  0  0  0  0  0  0  0
   43.5433  -21.1611   -6.8757 H   0  0  0  0  0  0  0  0  0  0  0  0
   42.2363  -19.9743   -7.0767 H   0  0  0  0  0  0  0  0  0  0  0  0
   49.7680  -15.5465  -11.4806 H   0  0  0  0  0  0  0  0  0  0  0  0
   51.9491  -16.6946   -5.9436 H   0  0  0  0  0  0  0  0  0  0  0  0
   47.7951  -19.2033  -12.5423 H   0  0  0  0  0  0  0  0  0  0  0  0
   50.6867  -20.7252   -5.2015 H   0  0  0  0  0  0  0  0  0  0  0  0
   48.9880  -17.1291  -13.1994 H   0  0  0  0  0  0  0  0  0  0  0  0
   52.2856  -18.8647   -4.8283 H   0  0  0  0  0  0  0  0  0  0  0  0
  2  1  1  0
  3  1  1  0
  4  1  2  3
  5  9  1  0
  6  8  1  0
  7 13  1  0
  8  3  2  0
  9  2  2  0
 10  4  1  0
 11  4  1  0
 12 10  1  0
 13 11  1  0
 14  2  1  0
 15  3  1  0
 16  7  1  0
 17  8  1  0
 18  9  1  0
 19 15  2  0
 20 14  2  0
 21 19  1  0
 22 20  1  0
  7 12  1  0
  6  5  2  0
 21 17  2  0
 22 18  2  0
  5 23  1  0
  6 24  1  0
 10 25  1  0
 10 26  1  0
 11 27  1  0
 11 28  1  0
 12 29  1  0
 12 30  1  0
 13 31  1  0
 13 32  1  0
 14 33  1  0
 15 34  1  0
 16 35  1  0
 16 36  1  0
 16 37  1  0
 17 38  1  0
 18 39  1  0
 19 40  1  0
 20 41  1  0
 21 42  1  0
 22 43  1  0
M  END
> <Uni-Dock RESULT> 
ENERGY=   -3.998  LOWER_BOUND=    2.778  UPPER_BOUND=    5.807
INTER + INTRA:          -3.998
INTER:                  -3.998
INTRA:                   0.000
UNBOUND:                 0.000

$$$$

     RDKit          3D

 43 46  0  0  0  0  0  0  0  0999 V2000
   44.4925  -14.7638  -12.8127 C   0  0  0  0  0  0  0  0  0  0  0  0
   44.8326  -15.8718  -11.8844 C   0  0  0  0  0  0  0  0  0  0  0  0
   43.1496  -14.1446  -12.6779 C   0  0  0  0  0  0  0  0  0  0  0  0
   45.3189  -14.4300  -13.8390 C   0  0  0  0  0  0  0  0  0  0  0  0
   42.9241  -17.2739  -12.7979 C   0  0  0  0  0  0  0  0  0  0  0  0
   42.0323  -16.3587  -13.2184 C   0  0  0  0  0  0  0  0  0  0  0  0
   47.4712  -12.9679  -15.2215 N   0  0  0  0  0  0  0  0  0  0  0  0
   41.9913  -14.9268  -12.8608 C   0  0  0  0  0  0  0  0  0  0  0  0
   44.0625  -17.0524  -11.8843 C   0  0  0  0  0  0  0  0  0  0  0  0
   46.6704  -15.0680  -14.1280 C   0  0  0  0  0  0  0  0  0  0  0  0
   45.0268  -13.3812  -14.9029 C   0  0  0  0  0  0  0  0  0  0  0  0
   47.7694  -13.9943  -14.2048 C   0  0  0  0  0  0  0  0  0  0  0  0
   46.1601  -12.3428  -14.9635 C   0  0  0  0  0  0  0  0  0  0  0  0
   45.8798  -15.7198  -10.9606 C   0  0  0  0  0  0  0  0  0  0  0  0
   43.0307  -12.7958  -12.3039 C   0  0  0  0  0  0  0  0  0  0  0  0
   48.5261  -11.9573  -15.2595 C   0  0  0  0  0  0  0  0  0  0  0  0
   40.7346  -14.3147  -12.7340 C   0  0  0  0  0  0  0  0  0  0  0  0
   44.4100  -18.0867  -11.0013 C   0  0  0  0  0  0  0  0  0  0  0  0
   41.7737  -12.2081  -12.1663 C   0  0  0  0  0  0  0  0  0  0  0  0
   46.2008  -16.7515  -10.0792 C   0  0  0  0  0  0  0  0  0  0  0  0
   40.6269  -12.9651  -12.3891 C   0  0  0  0  0  0  0  0  0  0  0  0
   45.4713  -17.9370  -10.1052 C   0  0  0  0  0  0  0  0  0  0  0  0
   42.8008  -18.3003  -13.1370 H   0  0  0  0  0  0  0  0  0  0  0  0
   41.2321  -16.6904  -13.8767 H   0  0  0  0  0  0  0  0  0  0  0  0
   46.6083  -15.5990  -15.0875 H   0  0  0  0  0  0  0  0  0  0  0  0
   46.9652  -15.8195  -13.3921 H   0  0  0  0  0  0  0  0  0  0  0  0
   44.0797  -12.8583  -14.7525 H   0  0  0  0  0  0  0  0  0  0  0  0
   44.9378  -13.8847  -15.8750 H   0  0  0  0  0  0  0  0  0  0  0  0
   47.8993  -13.5339  -13.2158 H   0  0  0  0  0  0  0  0  0  0  0  0
   48.7133  -14.4917  -14.4592 H   0  0  0  0  0  0  0  0  0  0  0  0
   45.9312  -11.6365  -15.7708 H   0  0  0  0  0  0  0  0  0  0  0  0
   46.1813  -11.7709  -14.0257 H   0  0  0  0  0  0  0  0  0  0  0  0
   46.4491  -14.7942  -10.9301 H   0  0  0  0  0  0  0  0  0  0  0  0
   43.9219  -12.2006  -12.1215 H   0  0  0  0  0  0  0  0  0  0  0  0
   49.4913  -12.4180  -15.4976 H   0  0  0  0  0  0  0  0  0  0  0  0
   48.6245  -11.4241  -14.3070 H   0  0  0  0  0  0  0  0  0  0  0  0
   48.3262  -11.2224  -16.0470 H   0  0  0  0  0  0  0  0  0  0  0  0
   39.8249  -14.8913  -12.8860 H   0  0  0  0  0  0  0  0  0  0  0  0
   43.8427  -19.0146  -10.9917 H   0  0  0  0  0  0  0  0  0  0  0  0
   41.6904  -11.1621  -11.8840 H   0  0  0  0  0  0  0  0  0  0  0  0
   47.0171  -16.6289   -9.3727 H   0  0  0  0  0  0  0  0  0  0  0  0
   39.6456  -12.5096  -12.2841 H   0  0  0  0  0  0  0  0  0  0  0  0
   45.7199  -18.7436   -9.4204 H   0  0  0  0  0  0  0  0  0  0  0  0
  2  1  1  0
  3  1  1  0
  4  1  2  3
  5  9  1  0
  6  8  1  0
  7 13  1  0
  8  3  2  0
  9  2  2  0
 10  4  1  0
 11  4  1  0
 12 10  1  0
 13 11  1  0
 14  2  1  0
 15  3  1  0
 16  7  1  0
 17  8  1  0
 18  9  1  0
 19 15  2  0
 20 14  2  0
 21 19  1  0
 22 20  1  0
  7 12  1  0
  6  5  2  0
 21 17  2  0
 22 18  2  0
  5 23  1  0
  6 24  1  0
 10 25  1  0
 10 26  1  0
 11 27  1  0
 11 28  1  0
 12 29  1  0
 12 30  1  0
 13 31  1  0
 13 32  1  0
 14 33  1  0
 15 34  1  0
 16 35  1  0
 16 36  1  0
 16 37  1  0
 17 38  1  0
 18 39  1  0
 19 40  1  0
 20 41  1  0
 21 42  1  0
 22 43  1  0
M  END
> <Uni-Dock RESULT> 
ENERGY=   -3.952  LOWER_BOUND=    6.650  UPPER_BOUND=    9.138
INTER + INTRA:          -3.952
INTER:                  -3.952
INTRA:                   0.000
UNBOUND:                 0.000

$$$$
