
     RDKit          3D

 43 46  0  0  0  0  0  0  0  0999 V2000
   50.2389  -17.2685   -7.4910 C   0  0  0  0  0  0  0  0  0  0  0  0
   51.1990  -16.6133   -6.5659 C   0  0  0  0  0  0  0  0  0  0  0  0
   48.7924  -17.1772   -7.1647 C   0  0  0  0  0  0  0  0  0  0  0  0
   50.6480  -17.7976   -8.6762 C   0  0  0  0  0  0  0  0  0  0  0  0
   50.1488  -14.3462   -7.0152 C   0  0  0  0  0  0  0  0  0  0  0  0
   48.8735  -14.6442   -7.3211 C   0  0  0  0  0  0  0  0  0  0  0  0
   51.5099  -18.8901  -11.3752 N   0  0  0  0  0  0  0  0  0  0  0  0
   48.1680  -15.9168   -7.0693 C   0  0  0  0  0  0  0  0  0  0  0  0
   51.1305  -15.2227   -6.3470 C   0  0  0  0  0  0  0  0  0  0  0  0
   52.0983  -17.8267   -9.1470 C   0  0  0  0  0  0  0  0  0  0  0  0
   49.6921  -18.3513   -9.7295 C   0  0  0  0  0  0  0  0  0  0  0  0
   52.3521  -18.9492  -10.1685 C   0  0  0  0  0  0  0  0  0  0  0  0
   50.2490  -18.1611  -11.1499 C   0  0  0  0  0  0  0  0  0  0  0  0
   52.1284  -17.3855   -5.8502 C   0  0  0  0  0  0  0  0  0  0  0  0
   48.0554  -18.3452   -6.9097 C   0  0  0  0  0  0  0  0  0  0  0  0
   52.2286  -18.3296  -12.5164 C   0  0  0  0  0  0  0  0  0  0  0  0
   46.7972  -15.8625   -6.7721 C   0  0  0  0  0  0  0  0  0  0  0  0
   52.0544  -14.6274   -5.4734 C   0  0  0  0  0  0  0  0  0  0  0  0
   46.6977  -18.2711   -6.6011 C   0  0  0  0  0  0  0  0  0  0  0  0
   53.0282  -16.7804   -4.9733 C   0  0  0  0  0  0  0  0  0  0  0  0
   46.0682  -17.0311   -6.5377 C   0  0  0  0  0  0  0  0  0  0  0  0
   52.9973  -15.4008   -4.7924 C   0  0  0  0  0  0  0  0  0  0  0  0
   50.5101  -13.3473   -7.2503 H   0  0  0  0  0  0  0  0  0  0  0  0
   48.2684  -13.8706   -7.7898 H   0  0  0  0  0  0  0  0  0  0  0  0
   52.7936  -17.9814   -8.3186 H   0  0  0  0  0  0  0  0  0  0  0  0
   52.3426  -16.8590   -9.6033 H   0  0  0  0  0  0  0  0  0  0  0  0
   49.5267  -19.4194   -9.5396 H   0  0  0  0  0  0  0  0  0  0  0  0
   48.7177  -17.8527   -9.6920 H   0  0  0  0  0  0  0  0  0  0  0  0
   53.4180  -18.9722  -10.4285 H   0  0  0  0  0  0  0  0  0  0  0  0
   52.1535  -19.9125   -9.6797 H   0  0  0  0  0  0  0  0  0  0  0  0
   49.5066  -18.5161  -11.8746 H   0  0  0  0  0  0  0  0  0  0  0  0
   50.3809  -17.0846  -11.3280 H   0  0  0  0  0  0  0  0  0  0  0  0
   52.1516  -18.4653   -5.9770 H   0  0  0  0  0  0  0  0  0  0  0  0
   48.5414  -19.3170   -6.9534 H   0  0  0  0  0  0  0  0  0  0  0  0
   53.1047  -18.9418  -12.7574 H   0  0  0  0  0  0  0  0  0  0  0  0
   52.5654  -17.3036  -12.3290 H   0  0  0  0  0  0  0  0  0  0  0  0
   51.5935  -18.3279  -13.4094 H   0  0  0  0  0  0  0  0  0  0  0  0
   46.2865  -14.9044   -6.7065 H   0  0  0  0  0  0  0  0  0  0  0  0
   52.0333  -13.5538   -5.2993 H   0  0  0  0  0  0  0  0  0  0  0  0
   46.1338  -19.1801   -6.4097 H   0  0  0  0  0  0  0  0  0  0  0  0
   53.7489  -17.3861   -4.4307 H   0  0  0  0  0  0  0  0  0  0  0  0
   45.0096  -16.9706   -6.2987 H   0  0  0  0  0  0  0  0  0  0  0  0
   53.6973  -14.9257   -4.1100 H   0  0  0  0  0  0  0  0  0  0  0  0
  2  1  1  0
  3  1  1  0
  4  1  2  3
  5  9  1  0
  6  8  1  0
  7 13  1  0
  8  3  2  0
  9  2  2  0
 10  4  1  0
 11  4  1  0
 12 10  1  0
 13 11  1  0
 14  2  1  0
 15  3  1  0
 16  7  1  0
 17  8  1  0
 18  9  1  0
 19 15  2  0
 20 14  2  0
 21 19  1  0
 22 20  1  0
  7 12  1  0
  6  5  2  0
 21 17  2  0
 22 18  2  0
  5 23  1  0
  6 24  1  0
 10 25  1  0
 10 26  1  0
 11 27  1  0
 11 28  1  0
 12 29  1  0
 12 30  1  0
 13 31  1  0
 13 32  1  0
 14 33  1  0
 15 34  1  0
 16 35  1  0
 16 36  1  0
 16 37  1  0
 17 38  1  0
 18 39  1  0
 19 40  1  0
 20 41  1  0
 21 42  1  0
 22 43  1  0
M  END
> <Uni-Dock RESULT> 
ENERGY=   -6.240  LOWER_BOUND=    0.000  UPPER_BOUND=    0.000
INTER + INTRA:          -6.240
INTER:                  -6.240
INTRA:                   0.000
UNBOUND:                 0.000

$$$$

     RDKit          3D

 43 46  0  0  0  0  0  0  0  0999 V2000
   50.3664  -17.2698   -7.5790 C   0  0  0  0  0  0  0  0  0  0  0  0
   48.9246  -17.0046   -7.3386 C   0  0  0  0  0  0  0  0  0  0  0  0
   51.2247  -17.5465   -6.3984 C   0  0  0  0  0  0  0  0  0  0  0  0
   50.8585  -17.4120   -8.8398 C   0  0  0  0  0  0  0  0  0  0  0  0
   48.6265  -19.3128   -6.3248 C   0  0  0  0  0  0  0  0  0  0  0  0
   49.8401  -19.5942   -5.8182 C   0  0  0  0  0  0  0  0  0  0  0  0
   51.9678  -17.8425  -11.6336 N   0  0  0  0  0  0  0  0  0  0  0  0
   50.9436  -18.6467   -5.5629 C   0  0  0  0  0  0  0  0  0  0  0  0
   48.1183  -17.9879   -6.7308 C   0  0  0  0  0  0  0  0  0  0  0  0
   50.0239  -17.2642  -10.1076 C   0  0  0  0  0  0  0  0  0  0  0  0
   52.2953  -17.8276   -9.1445 C   0  0  0  0  0  0  0  0  0  0  0  0
   50.8855  -16.8919  -11.3269 C   0  0  0  0  0  0  0  0  0  0  0  0
   52.3840  -18.6249  -10.4560 C   0  0  0  0  0  0  0  0  0  0  0  0
   48.3770  -15.7486   -7.6468 C   0  0  0  0  0  0  0  0  0  0  0  0
   52.2922  -16.6874   -6.0900 C   0  0  0  0  0  0  0  0  0  0  0  0
   51.6190  -18.7293  -12.7405 C   0  0  0  0  0  0  0  0  0  0  0  0
   51.7797  -18.8904   -4.4621 C   0  0  0  0  0  0  0  0  0  0  0  0
   46.7572  -17.7145   -6.5216 C   0  0  0  0  0  0  0  0  0  0  0  0
   53.1032  -16.9367   -4.9836 C   0  0  0  0  0  0  0  0  0  0  0  0
   47.0267  -15.4876   -7.4171 C   0  0  0  0  0  0  0  0  0  0  0  0
   52.8503  -18.0403   -4.1736 C   0  0  0  0  0  0  0  0  0  0  0  0
   46.2151  -16.4734   -6.8635 C   0  0  0  0  0  0  0  0  0  0  0  0
   47.9151  -20.1294   -6.4295 H   0  0  0  0  0  0  0  0  0  0  0  0
   50.0490  -20.6253   -5.5400 H   0  0  0  0  0  0  0  0  0  0  0  0
   49.2589  -16.4908  -10.0052 H   0  0  0  0  0  0  0  0  0  0  0  0
   49.5070  -18.2121  -10.3045 H   0  0  0  0  0  0  0  0  0  0  0  0
   52.9220  -16.9297   -9.2173 H   0  0  0  0  0  0  0  0  0  0  0  0
   52.7097  -18.4583   -8.3509 H   0  0  0  0  0  0  0  0  0  0  0  0
   50.2369  -16.7337  -12.1979 H   0  0  0  0  0  0  0  0  0  0  0  0
   51.3533  -15.9170  -11.1347 H   0  0  0  0  0  0  0  0  0  0  0  0
   53.4195  -18.9539  -10.6041 H   0  0  0  0  0  0  0  0  0  0  0  0
   51.7720  -19.5319  -10.3511 H   0  0  0  0  0  0  0  0  0  0  0  0
   49.0067  -14.9689   -8.0689 H   0  0  0  0  0  0  0  0  0  0  0  0
   52.4932  -15.8212   -6.7158 H   0  0  0  0  0  0  0  0  0  0  0  0
   51.4233  -18.1503  -13.6498 H   0  0  0  0  0  0  0  0  0  0  0  0
   50.7334  -19.3361  -12.5202 H   0  0  0  0  0  0  0  0  0  0  0  0
   52.4516  -19.4030  -12.9722 H   0  0  0  0  0  0  0  0  0  0  0  0
   51.5949  -19.7403   -3.8090 H   0  0  0  0  0  0  0  0  0  0  0  0
   46.1096  -18.4622   -6.0691 H   0  0  0  0  0  0  0  0  0  0  0  0
   53.9299  -16.2695   -4.7548 H   0  0  0  0  0  0  0  0  0  0  0  0
   46.6110  -14.5151   -7.6669 H   0  0  0  0  0  0  0  0  0  0  0  0
   53.4819  -18.2377   -3.3113 H   0  0  0  0  0  0  0  0  0  0  0  0
   45.1620  -16.2736   -6.6834 H   0  0  0  0  0  0  0  0  0  0  0  0
  2  1  1  0
  3  1  1  0
  4  1  2  3
  5  9  1  0
  6  8  1  0
  7 13  1  0
  8  3  2  0
  9  2  2  0
 10  4  1  0
 11  4  1  0
 12 10  1  0
 13 11  1  0
 14  2  1  0
 15  3  1  0
 16  7  1  0
 17  8  1  0
 18  9  1  0
 19 15  2  0
 20 14  2  0
 21 19  1  0
 22 20  1  0
  7 12  1  0
  6  5  2  0
 21 17  2  0
 22 18  2  0
  5 23  1  0
  6 24  1  0
 10 25  1  0
 10 26  1  0
 11 27  1  0
 11 28  1  0
 12 29  1  0
 12 30  1  0
 13 31  1  0
 13 32  1  0
 14 33  1  0
 15 34  1  0
 16 35  1  0
 16 36  1  0
 16 37  1  0
 17 38  1  0
 18 39  1  0
 19 40  1  0
 20 41  1  0
 21 42  1  0
 22 43  1  0
M  END
> <Uni-Dock RESULT> 
ENERGY=   -5.294  LOWER_BOUND=    1.109  UPPER_BOUND=    4.485
INTER + INTRA:          -5.294
INTER:                  -5.294
INTRA:                   0.000
UNBOUND:                 0.000

$$$$

     RDKit          3D

 43 46  0  0  0  0  0  0  0  0999 V2000
   49.3204  -17.9751   -7.5250 C   0  0  0  0  0  0  0  0  0  0  0  0
   49.7386  -16.5890   -7.1922 C   0  0  0  0  0  0  0  0  0  0  0  0
   48.1458  -18.5340   -6.8073 C   0  0  0  0  0  0  0  0  0  0  0  0
   49.8874  -18.6559   -8.5579 C   0  0  0  0  0  0  0  0  0  0  0  0
   47.4945  -15.6835   -7.9592 C   0  0  0  0  0  0  0  0  0  0  0  0
   46.6506  -16.7087   -7.7453 C   0  0  0  0  0  0  0  0  0  0  0  0
   51.0550  -20.1613  -10.9226 N   0  0  0  0  0  0  0  0  0  0  0  0
   46.8893  -17.9032   -6.9106 C   0  0  0  0  0  0  0  0  0  0  0  0
   48.8491  -15.5154   -7.3976 C   0  0  0  0  0  0  0  0  0  0  0  0
   51.0174  -18.1120   -9.4257 C   0  0  0  0  0  0  0  0  0  0  0  0
   49.4020  -20.0211   -9.0382 C   0  0  0  0  0  0  0  0  0  0  0  0
   51.8357  -19.2378  -10.0819 C   0  0  0  0  0  0  0  0  0  0  0  0
   49.6301  -20.1997  -10.5481 C   0  0  0  0  0  0  0  0  0  0  0  0
   50.9913  -16.3519   -6.6032 C   0  0  0  0  0  0  0  0  0  0  0  0
   48.2957  -19.6675   -5.9917 C   0  0  0  0  0  0  0  0  0  0  0  0
   51.2029  -19.8634  -12.3448 C   0  0  0  0  0  0  0  0  0  0  0  0
   45.7950  -18.4616   -6.2315 C   0  0  0  0  0  0  0  0  0  0  0  0
   49.2718  -14.2144   -7.0816 C   0  0  0  0  0  0  0  0  0  0  0  0
   47.2004  -20.1995   -5.3125 C   0  0  0  0  0  0  0  0  0  0  0  0
   51.3893  -15.0552   -6.2798 C   0  0  0  0  0  0  0  0  0  0  0  0
   45.9502  -19.6001   -5.4366 C   0  0  0  0  0  0  0  0  0  0  0  0
   50.5336  -13.9860   -6.5277 C   0  0  0  0  0  0  0  0  0  0  0  0
   47.1530  -14.8640   -8.5881 H   0  0  0  0  0  0  0  0  0  0  0  0
   45.6693  -16.6664   -8.2137 H   0  0  0  0  0  0  0  0  0  0  0  0
   51.7156  -17.4993   -8.8504 H   0  0  0  0  0  0  0  0  0  0  0  0
   50.5880  -17.4726  -10.2074 H   0  0  0  0  0  0  0  0  0  0  0  0
   49.9372  -20.8067   -8.4903 H   0  0  0  0  0  0  0  0  0  0  0  0
   48.3313  -20.1569   -8.8521 H   0  0  0  0  0  0  0  0  0  0  0  0
   52.6729  -18.8021  -10.6419 H   0  0  0  0  0  0  0  0  0  0  0  0
   52.3007  -19.8357   -9.2866 H   0  0  0  0  0  0  0  0  0  0  0  0
   49.2134  -21.1648  -10.8601 H   0  0  0  0  0  0  0  0  0  0  0  0
   49.0640  -19.4205  -11.0777 H   0  0  0  0  0  0  0  0  0  0  0  0
   51.6614  -17.1829   -6.3955 H   0  0  0  0  0  0  0  0  0  0  0  0
   49.2701  -20.1385   -5.8867 H   0  0  0  0  0  0  0  0  0  0  0  0
   52.2520  -19.9503  -12.6486 H   0  0  0  0  0  0  0  0  0  0  0  0
   50.8537  -18.8549  -12.5939 H   0  0  0  0  0  0  0  0  0  0  0  0
   50.6415  -20.5838  -12.9503 H   0  0  0  0  0  0  0  0  0  0  0  0
   44.8109  -18.0041   -6.3049 H   0  0  0  0  0  0  0  0  0  0  0  0
   48.6105  -13.3664   -7.2456 H   0  0  0  0  0  0  0  0  0  0  0  0
   47.3243  -21.0795   -4.6871 H   0  0  0  0  0  0  0  0  0  0  0  0
   52.3642  -14.8817   -5.8321 H   0  0  0  0  0  0  0  0  0  0  0  0
   45.0944  -20.0136   -4.9094 H   0  0  0  0  0  0  0  0  0  0  0  0
   50.8407  -12.9739   -6.2772 H   0  0  0  0  0  0  0  0  0  0  0  0
  2  1  1  0
  3  1  1  0
  4  1  2  3
  5  9  1  0
  6  8  1  0
  7 13  1  0
  8  3  2  0
  9  2  2  0
 10  4  1  0
 11  4  1  0
 12 10  1  0
 13 11  1  0
 14  2  1  0
 15  3  1  0
 16  7  1  0
 17  8  1  0
 18  9  1  0
 19 15  2  0
 20 14  2  0
 21 19  1  0
 22 20  1  0
  7 12  1  0
  6  5  2  0
 21 17  2  0
 22 18  2  0
  5 23  1  0
  6 24  1  0
 10 25  1  0
 10 26  1  0
 11 27  1  0
 11 28  1  0
 12 29  1  0
 12 30  1  0
 13 31  1  0
 13 32  1  0
 14 33  1  0
 15 34  1  0
 16 35  1  0
 16 36  1  0
 16 37  1  0
 17 38  1  0
 18 39  1  0
 19 40  1  0
 20 41  1  0
 21 42  1  0
 22 43  1  0
M  END
> <Uni-Dock RESULT> 
ENERGY=   -5.254  LOWER_BOUND=    1.286  UPPER_BOUND=    2.237
INTER + INTRA:          -5.254
INTER:                  -5.254
INTRA:                   0.000
UNBOUND:                 0.000

$$$$

     RDKit          3D

 43 46  0  0  0  0  0  0  0  0999 V2000
   48.0417  -17.1800   -7.9240 C   0  0  0  0  0  0  0  0  0  0  0  0
   47.5091  -18.1995   -6.9840 C   0  0  0  0  0  0  0  0  0  0  0  0
   49.0500  -16.2205   -7.4047 C   0  0  0  0  0  0  0  0  0  0  0  0
   47.7414  -17.2163   -9.2508 C   0  0  0  0  0  0  0  0  0  0  0  0
   49.8314  -19.1711   -6.6565 C   0  0  0  0  0  0  0  0  0  0  0  0
   50.6454  -18.1216   -6.8684 C   0  0  0  0  0  0  0  0  0  0  0  0
   47.1791  -17.3326  -12.2327 N   0  0  0  0  0  0  0  0  0  0  0  0
   50.2741  -16.6925   -6.8886 C   0  0  0  0  0  0  0  0  0  0  0  0
   48.3812  -19.1303   -6.3847 C   0  0  0  0  0  0  0  0  0  0  0  0
   46.8101  -18.2402   -9.8914 C   0  0  0  0  0  0  0  0  0  0  0  0
   48.3713  -16.2879  -10.2859 C   0  0  0  0  0  0  0  0  0  0  0  0
   46.1988  -17.7233  -11.2054 C   0  0  0  0  0  0  0  0  0  0  0  0
   48.4873  -16.9716  -11.6580 C   0  0  0  0  0  0  0  0  0  0  0  0
   46.1496  -18.1927   -6.6316 C   0  0  0  0  0  0  0  0  0  0  0  0
   48.7671  -14.8448   -7.3892 C   0  0  0  0  0  0  0  0  0  0  0  0
   47.3362  -18.3612  -13.2576 C   0  0  0  0  0  0  0  0  0  0  0  0
   51.2125  -15.7613   -6.4167 C   0  0  0  0  0  0  0  0  0  0  0  0
   47.8510  -20.0879   -5.5055 C   0  0  0  0  0  0  0  0  0  0  0  0
   49.7055  -13.9357   -6.9026 C   0  0  0  0  0  0  0  0  0  0  0  0
   45.6420  -19.1406   -5.7436 C   0  0  0  0  0  0  0  0  0  0  0  0
   50.9292  -14.3932   -6.4218 C   0  0  0  0  0  0  0  0  0  0  0  0
   46.4907  -20.0936   -5.1883 C   0  0  0  0  0  0  0  0  0  0  0  0
   50.2718  -20.1659   -6.6520 H   0  0  0  0  0  0  0  0  0  0  0  0
   51.7033  -18.3217   -7.0259 H   0  0  0  0  0  0  0  0  0  0  0  0
   45.9802  -18.5060   -9.2323 H   0  0  0  0  0  0  0  0  0  0  0  0
   47.3766  -19.1586  -10.0914 H   0  0  0  0  0  0  0  0  0  0  0  0
   47.7585  -15.3822  -10.3773 H   0  0  0  0  0  0  0  0  0  0  0  0
   49.3792  -15.9783   -9.9897 H   0  0  0  0  0  0  0  0  0  0  0  0
   45.4893  -18.4646  -11.5947 H   0  0  0  0  0  0  0  0  0  0  0  0
   45.5931  -16.8355  -10.9790 H   0  0  0  0  0  0  0  0  0  0  0  0
   48.9982  -16.2938  -12.3522 H   0  0  0  0  0  0  0  0  0  0  0  0
   49.1264  -17.8592  -11.5488 H   0  0  0  0  0  0  0  0  0  0  0  0
   45.4819  -17.4444   -7.0520 H   0  0  0  0  0  0  0  0  0  0  0  0
   47.8117  -14.4805   -7.7592 H   0  0  0  0  0  0  0  0  0  0  0  0
   46.3836  -18.5456  -13.7664 H   0  0  0  0  0  0  0  0  0  0  0  0
   47.6936  -19.3093  -12.8398 H   0  0  0  0  0  0  0  0  0  0  0  0
   48.0435  -18.0336  -14.0279 H   0  0  0  0  0  0  0  0  0  0  0  0
   52.1709  -16.0964   -6.0263 H   0  0  0  0  0  0  0  0  0  0  0  0
   48.5000  -20.8277   -5.0421 H   0  0  0  0  0  0  0  0  0  0  0  0
   49.4803  -12.8725   -6.8984 H   0  0  0  0  0  0  0  0  0  0  0  0
   44.5868  -19.1318   -5.4841 H   0  0  0  0  0  0  0  0  0  0  0  0
   51.6631  -13.6864   -6.0433 H   0  0  0  0  0  0  0  0  0  0  0  0
   46.0984  -20.8342   -4.4960 H   0  0  0  0  0  0  0  0  0  0  0  0
  2  1  1  0
  3  1  1  0
  4  1  2  3
  5  9  1  0
  6  8  1  0
  7 13  1  0
  8  3  2  0
  9  2  2  0
 10  4  1  0
 11  4  1  0
 12 10  1  0
 13 11  1  0
 14  2  1  0
 15  3  1  0
 16  7  1  0
 17  8  1  0
 18  9  1  0
 19 15  2  0
 20 14  2  0
 21 19  1  0
 22 20  1  0
  7 12  1  0
  6  5  2  0
 21 17  2  0
 22 18  2  0
  5 23  1  0
  6 24  1  0
 10 25  1  0
 10 26  1  0
 11 27  1  0
 11 28  1  0
 12 29  1  0
 12 30  1  0
 13 31  1  0
 13 32  1  0
 14 33  1  0
 15 34  1  0
 16 35  1  0
 16 36  1  0
 16 37  1  0
 17 38  1  0
 18 39  1  0
 19 40  1  0
 20 41  1  0
 21 42  1  0
 22 43  1  0
M  END
> <Uni-Dock RESULT> 
ENERGY=   -5.214  LOWER_BOUND=    2.164  UPPER_BOUND=    4.889
INTER + INTRA:          -5.214
INTER:                  -5.214
INTRA:                   0.000
UNBOUND:                 0.000

$$$$

     RDKit          3D

 43 46  0  0  0  0  0  0  0  0999 V2000
   47.0639  -16.0023  -10.7193 C   0  0  0  0  0  0  0  0  0  0  0  0
   45.8715  -15.6183  -11.5178 C   0  0  0  0  0  0  0  0  0  0  0  0
   46.8769  -16.2291   -9.2630 C   0  0  0  0  0  0  0  0  0  0  0  0
   48.2518  -16.2915  -11.3169 C   0  0  0  0  0  0  0  0  0  0  0  0
   44.7177  -17.7993  -10.9209 C   0  0  0  0  0  0  0  0  0  0  0  0
   45.2418  -18.1162   -9.7234 C   0  0  0  0  0  0  0  0  0  0  0  0
   50.8852  -17.0483  -12.6260 N   0  0  0  0  0  0  0  0  0  0  0  0
   45.9895  -17.2272   -8.8117 C   0  0  0  0  0  0  0  0  0  0  0  0
   44.7625  -16.4849  -11.5908 C   0  0  0  0  0  0  0  0  0  0  0  0
   48.5001  -16.2023  -12.8190 C   0  0  0  0  0  0  0  0  0  0  0  0
   49.4667  -16.8304  -10.5661 C   0  0  0  0  0  0  0  0  0  0  0  0
   49.9898  -16.0019  -13.1478 C   0  0  0  0  0  0  0  0  0  0  0  0
   50.3184  -17.7475  -11.4590 C   0  0  0  0  0  0  0  0  0  0  0  0
   45.8143  -14.3608  -12.1405 C   0  0  0  0  0  0  0  0  0  0  0  0
   47.5529  -15.4208   -8.3344 C   0  0  0  0  0  0  0  0  0  0  0  0
   51.2683  -18.0056  -13.6603 C   0  0  0  0  0  0  0  0  0  0  0  0
   45.8432  -17.4269   -7.4300 C   0  0  0  0  0  0  0  0  0  0  0  0
   43.6513  -16.1011  -12.3582 C   0  0  0  0  0  0  0  0  0  0  0  0
   47.3837  -15.6238   -6.9654 C   0  0  0  0  0  0  0  0  0  0  0  0
   44.6959  -13.9881  -12.8853 C   0  0  0  0  0  0  0  0  0  0  0  0
   46.5337  -16.6296   -6.5138 C   0  0  0  0  0  0  0  0  0  0  0  0
   43.6189  -14.8618  -13.0019 C   0  0  0  0  0  0  0  0  0  0  0  0
   44.1727  -18.5713  -11.4600 H   0  0  0  0  0  0  0  0  0  0  0  0
   45.0947  -19.1297   -9.3556 H   0  0  0  0  0  0  0  0  0  0  0  0
   47.9549  -15.3722  -13.2744 H   0  0  0  0  0  0  0  0  0  0  0  0
   48.1451  -17.1264  -13.2926 H   0  0  0  0  0  0  0  0  0  0  0  0
   50.0768  -15.9879  -10.2167 H   0  0  0  0  0  0  0  0  0  0  0  0
   49.1717  -17.4136   -9.6873 H   0  0  0  0  0  0  0  0  0  0  0  0
   50.1113  -15.8791  -14.2316 H   0  0  0  0  0  0  0  0  0  0  0  0
   50.3147  -15.0479  -12.7113 H   0  0  0  0  0  0  0  0  0  0  0  0
   51.1428  -18.1587  -10.8644 H   0  0  0  0  0  0  0  0  0  0  0  0
   49.6965  -18.5971  -11.7745 H   0  0  0  0  0  0  0  0  0  0  0  0
   46.6466  -13.6675  -12.0449 H   0  0  0  0  0  0  0  0  0  0  0  0
   48.2152  -14.6306   -8.6797 H   0  0  0  0  0  0  0  0  0  0  0  0
   51.7957  -17.4994  -14.4764 H   0  0  0  0  0  0  0  0  0  0  0  0
   50.4015  -18.5279  -14.0811 H   0  0  0  0  0  0  0  0  0  0  0  0
   51.9607  -18.7530  -13.2570 H   0  0  0  0  0  0  0  0  0  0  0  0
   45.1763  -18.1995   -7.0539 H   0  0  0  0  0  0  0  0  0  0  0  0
   42.7890  -16.7586  -12.4441 H   0  0  0  0  0  0  0  0  0  0  0  0
   47.9141  -14.9969   -6.2536 H   0  0  0  0  0  0  0  0  0  0  0  0
   44.6652  -13.0160  -13.3702 H   0  0  0  0  0  0  0  0  0  0  0  0
   46.4011  -16.7909   -5.4471 H   0  0  0  0  0  0  0  0  0  0  0  0
   42.7456  -14.5748  -13.5820 H   0  0  0  0  0  0  0  0  0  0  0  0
  2  1  1  0
  3  1  1  0
  4  1  2  3
  5  9  1  0
  6  8  1  0
  7 13  1  0
  8  3  2  0
  9  2  2  0
 10  4  1  0
 11  4  1  0
 12 10  1  0
 13 11  1  0
 14  2  1  0
 15  3  1  0
 16  7  1  0
 17  8  1  0
 18  9  1  0
 19 15  2  0
 20 14  2  0
 21 19  1  0
 22 20  1  0
  7 12  1  0
  6  5  2  0
 21 17  2  0
 22 18  2  0
  5 23  1  0
  6 24  1  0
 10 25  1  0
 10 26  1  0
 11 27  1  0
 11 28  1  0
 12 29  1  0
 12 30  1  0
 13 31  1  0
 13 32  1  0
 14 33  1  0
 15 34  1  0
 16 35  1  0
 16 36  1  0
 16 37  1  0
 17 38  1  0
 18 39  1  0
 19 40  1  0
 20 41  1  0
 21 42  1  0
 22 43  1  0
M  END
> <Uni-Dock RESULT> 
ENERGY=   -4.839  LOWER_BOUND=    3.802  UPPER_BOUND=    6.241
INTER + INTRA:          -4.839
INTER:                  -4.839
INTRA:                   0.000
UNBOUND:                 0.000

$$$$

     RDKit          3D

 43 46  0  0  0  0  0  0  0  0999 V2000
   45.1111  -14.0848  -12.3142 C   0  0  0  0  0  0  0  0  0  0  0  0
   43.7782  -13.4360  -12.2174 C   0  0  0  0  0  0  0  0  0  0  0  0
   45.3138  -15.3607  -11.5806 C   0  0  0  0  0  0  0  0  0  0  0  0
   46.0643  -13.6184  -13.1661 C   0  0  0  0  0  0  0  0  0  0  0  0
   42.6703  -15.4593  -13.2773 C   0  0  0  0  0  0  0  0  0  0  0  0
   43.4769  -16.4783  -12.9310 C   0  0  0  0  0  0  0  0  0  0  0  0
   48.1728  -12.6696  -15.1347 N   0  0  0  0  0  0  0  0  0  0  0  0
   44.5110  -16.4810  -11.8769 C   0  0  0  0  0  0  0  0  0  0  0  0
   42.6293  -14.1134  -12.6727 C   0  0  0  0  0  0  0  0  0  0  0  0
   45.8973  -12.3847  -14.0471 C   0  0  0  0  0  0  0  0  0  0  0  0
   47.3939  -14.3253  -13.4157 C   0  0  0  0  0  0  0  0  0  0  0  0
   47.2506  -11.7616  -14.4318 C   0  0  0  0  0  0  0  0  0  0  0  0
   47.8962  -14.0888  -14.8494 C   0  0  0  0  0  0  0  0  0  0  0  0
   43.6479  -12.1788  -11.6052 C   0  0  0  0  0  0  0  0  0  0  0  0
   46.2777  -15.4391  -10.5621 C   0  0  0  0  0  0  0  0  0  0  0  0
   48.1839  -12.4295  -16.5753 C   0  0  0  0  0  0  0  0  0  0  0  0
   44.7343  -17.6767  -11.1762 C   0  0  0  0  0  0  0  0  0  0  0  0
   41.3827  -13.4748  -12.5764 C   0  0  0  0  0  0  0  0  0  0  0  0
   46.4752  -16.6311   -9.8662 C   0  0  0  0  0  0  0  0  0  0  0  0
   42.3998  -11.5655  -11.5024 C   0  0  0  0  0  0  0  0  0  0  0  0
   45.7079  -17.7502  -10.1768 C   0  0  0  0  0  0  0  0  0  0  0  0
   41.2691  -12.2093  -11.9964 C   0  0  0  0  0  0  0  0  0  0  0  0
   41.9415  -15.6307  -14.0667 H   0  0  0  0  0  0  0  0  0  0  0  0
   43.3599  -17.4223  -13.4596 H   0  0  0  0  0  0  0  0  0  0  0  0
   45.3127  -11.6056  -13.5522 H   0  0  0  0  0  0  0  0  0  0  0  0
   45.3572  -12.6703  -14.9587 H   0  0  0  0  0  0  0  0  0  0  0  0
   48.1384  -13.9550  -12.6998 H   0  0  0  0  0  0  0  0  0  0  0  0
   47.3078  -15.4080  -13.2750 H   0  0  0  0  0  0  0  0  0  0  0  0
   47.0793  -10.8440  -15.0091 H   0  0  0  0  0  0  0  0  0  0  0  0
   47.7540  -11.4341  -13.5122 H   0  0  0  0  0  0  0  0  0  0  0  0
   48.8184  -14.6617  -15.0034 H   0  0  0  0  0  0  0  0  0  0  0  0
   47.1491  -14.4912  -15.5481 H   0  0  0  0  0  0  0  0  0  0  0  0
   44.5247  -11.6740  -11.2062 H   0  0  0  0  0  0  0  0  0  0  0  0
   46.8779  -14.5678  -10.3111 H   0  0  0  0  0  0  0  0  0  0  0  0
   48.5043  -11.4043  -16.7917 H   0  0  0  0  0  0  0  0  0  0  0  0
   47.1980  -12.5858  -17.0277 H   0  0  0  0  0  0  0  0  0  0  0  0
   48.9017  -13.0924  -17.0714 H   0  0  0  0  0  0  0  0  0  0  0  0
   44.1395  -18.5608  -11.3942 H   0  0  0  0  0  0  0  0  0  0  0  0
   40.4826  -13.9692  -12.9351 H   0  0  0  0  0  0  0  0  0  0  0  0
   47.2263  -16.6845   -9.0826 H   0  0  0  0  0  0  0  0  0  0  0  0
   42.3112  -10.5888  -11.0343 H   0  0  0  0  0  0  0  0  0  0  0  0
   45.8609  -18.6811   -9.6368 H   0  0  0  0  0  0  0  0  0  0  0  0
   40.2947  -11.7340  -11.9183 H   0  0  0  0  0  0  0  0  0  0  0  0
  2  1  1  0
  3  1  1  0
  4  1  2  3
  5  9  1  0
  6  8  1  0
  7 13  1  0
  8  3  2  0
  9  2  2  0
 10  4  1  0
 11  4  1  0
 12 10  1  0
 13 11  1  0
 14  2  1  0
 15  3  1  0
 16  7  1  0
 17  8  1  0
 18  9  1  0
 19 15  2  0
 20 14  2  0
 21 19  1  0
 22 20  1  0
  7 12  1  0
  6  5  2  0
 21 17  2  0
 22 18  2  0
  5 23  1  0
  6 24  1  0
 10 25  1  0
 10 26  1  0
 11 27  1  0
 11 28  1  0
 12 29  1  0
 12 30  1  0
 13 31  1  0
 13 32  1  0
 14 33  1  0
 15 34  1  0
 16 35  1  0
 16 36  1  0
 16 37  1  0
 17 38  1  0
 18 39  1  0
 19 40  1  0
 20 41  1  0
 21 42  1  0
 22 43  1  0
M  END
> <Uni-Dock RESULT> 
ENERGY=   -4.295  LOWER_BOUND=    6.629  UPPER_BOUND=    8.818
INTER + INTRA:          -4.295
INTER:                  -4.295
INTRA:                   0.000
UNBOUND:                 0.000

$$$$

     RDKit          3D

 43 46  0  0  0  0  0  0  0  0999 V2000
   45.1263  -14.1649  -12.3341 C   0  0  0  0  0  0  0  0  0  0  0  0
   43.7816  -13.5374  -12.2628 C   0  0  0  0  0  0  0  0  0  0  0  0
   45.3425  -15.4245  -11.5767 C   0  0  0  0  0  0  0  0  0  0  0  0
   46.0808  -13.6967  -13.1837 C   0  0  0  0  0  0  0  0  0  0  0  0
   42.7199  -15.5970  -13.2997 C   0  0  0  0  0  0  0  0  0  0  0  0
   43.5398  -16.5961  -12.9274 C   0  0  0  0  0  0  0  0  0  0  0  0
   48.1945  -12.7454  -15.1454 N   0  0  0  0  0  0  0  0  0  0  0  0
   44.5622  -16.5633  -11.8624 C   0  0  0  0  0  0  0  0  0  0  0  0
   42.6494  -14.2420  -12.7187 C   0  0  0  0  0  0  0  0  0  0  0  0
   45.9027  -12.4811  -14.0872 C   0  0  0  0  0  0  0  0  0  0  0  0
   47.4249  -14.3849  -13.4068 C   0  0  0  0  0  0  0  0  0  0  0  0
   47.2494  -11.8415  -14.4680 C   0  0  0  0  0  0  0  0  0  0  0  0
   47.9388  -14.1641  -14.8389 C   0  0  0  0  0  0  0  0  0  0  0  0
   43.6234  -12.2725  -11.6735 C   0  0  0  0  0  0  0  0  0  0  0  0
   46.2963  -15.4693  -10.5467 C   0  0  0  0  0  0  0  0  0  0  0  0
   48.2174  -12.5295  -16.5897 C   0  0  0  0  0  0  0  0  0  0  0  0
   44.7979  -17.7429  -11.1390 C   0  0  0  0  0  0  0  0  0  0  0  0
   41.3912  -13.6234  -12.6467 C   0  0  0  0  0  0  0  0  0  0  0  0
   46.5063  -16.6457   -9.8285 C   0  0  0  0  0  0  0  0  0  0  0  0
   42.3640  -11.6790  -11.5946 C   0  0  0  0  0  0  0  0  0  0  0  0
   45.7615  -17.7829  -10.1281 C   0  0  0  0  0  0  0  0  0  0  0  0
   41.2499  -12.3503  -12.0896 C   0  0  0  0  0  0  0  0  0  0  0  0
   42.0029  -15.7942  -14.0939 H   0  0  0  0  0  0  0  0  0  0  0  0
   43.4447  -17.5508  -13.4410 H   0  0  0  0  0  0  0  0  0  0  0  0
   45.2995  -11.7039  -13.6121 H   0  0  0  0  0  0  0  0  0  0  0  0
   45.3775  -12.7913  -14.9996 H   0  0  0  0  0  0  0  0  0  0  0  0
   48.1551  -13.9898  -12.6894 H   0  0  0  0  0  0  0  0  0  0  0  0
   47.3555  -15.4663  -13.2486 H   0  0  0  0  0  0  0  0  0  0  0  0
   47.0689  -10.9369  -15.0627 H   0  0  0  0  0  0  0  0  0  0  0  0
   47.7370  -11.4899  -13.5489 H   0  0  0  0  0  0  0  0  0  0  0  0
   48.8722  -14.7236  -14.9731 H   0  0  0  0  0  0  0  0  0  0  0  0
   47.2064  -14.5909  -15.5386 H   0  0  0  0  0  0  0  0  0  0  0  0
   44.4870  -11.7462  -11.2738 H   0  0  0  0  0  0  0  0  0  0  0  0
   46.8789  -14.5837  -10.3043 H   0  0  0  0  0  0  0  0  0  0  0  0
   48.5228  -11.5028  -16.8201 H   0  0  0  0  0  0  0  0  0  0  0  0
   47.2393  -12.7103  -17.0499 H   0  0  0  0  0  0  0  0  0  0  0  0
   48.9518  -13.1883  -17.0667 H   0  0  0  0  0  0  0  0  0  0  0  0
   44.2206  -18.6407  -11.3483 H   0  0  0  0  0  0  0  0  0  0  0  0
   40.5036  -14.1391  -13.0065 H   0  0  0  0  0  0  0  0  0  0  0  0
   47.2496  -16.6730   -9.0361 H   0  0  0  0  0  0  0  0  0  0  0  0
   42.2536  -10.6962  -11.1443 H   0  0  0  0  0  0  0  0  0  0  0  0
   45.9243  -18.7018   -9.5707 H   0  0  0  0  0  0  0  0  0  0  0  0
   40.2667  -11.8906  -12.0301 H   0  0  0  0  0  0  0  0  0  0  0  0
  2  1  1  0
  3  1  1  0
  4  1  2  3
  5  9  1  0
  6  8  1  0
  7 13  1  0
  8  3  2  0
  9  2  2  0
 10  4  1  0
 11  4  1  0
 12 10  1  0
 13 11  1  0
 14  2  1  0
 15  3  1  0
 16  7  1  0
 17  8  1  0
 18  9  1  0
 19 15  2  0
 20 14  2  0
 21 19  1  0
 22 20  1  0
  7 12  1  0
  6  5  2  0
 21 17  2  0
 22 18  2  0
  5 23  1  0
  6 24  1  0
 10 25  1  0
 10 26  1  0
 11 27  1  0
 11 28  1  0
 12 29  1  0
 12 30  1  0
 13 31  1  0
 13 32  1  0
 14 33  1  0
 15 34  1  0
 16 35  1  0
 16 36  1  0
 16 37  1  0
 17 38  1  0
 18 39  1  0
 19 40  1  0
 20 41  1  0
 21 42  1  0
 22 43  1  0
M  END
> <Uni-Dock RESULT> 
ENERGY=   -4.289  LOWER_BOUND=    6.604  UPPER_BOUND=    8.801
INTER + INTRA:          -4.289
INTER:                  -4.289
INTRA:                   0.000
UNBOUND:                 0.000

$$$$

     RDKit          3D

 43 46  0  0  0  0  0  0  0  0999 V2000
   49.8114  -18.2091   -7.5109 C   0  0  0  0  0  0  0  0  0  0  0  0
   48.4982  -18.5488   -6.9051 C   0  0  0  0  0  0  0  0  0  0  0  0
   49.8209  -17.7302   -8.9172 C   0  0  0  0  0  0  0  0  0  0  0  0
   50.9490  -18.1837   -6.7645 C   0  0  0  0  0  0  0  0  0  0  0  0
   47.6886  -16.1637   -7.2214 C   0  0  0  0  0  0  0  0  0  0  0  0
   48.3804  -15.7349   -8.2922 C   0  0  0  0  0  0  0  0  0  0  0  0
   53.4864  -18.0119   -5.1051 N   0  0  0  0  0  0  0  0  0  0  0  0
   49.1163  -16.5612   -9.2700 C   0  0  0  0  0  0  0  0  0  0  0  0
   47.4994  -17.5616   -6.7872 C   0  0  0  0  0  0  0  0  0  0  0  0
   51.0112  -18.5439   -5.2838 C   0  0  0  0  0  0  0  0  0  0  0  0
   52.2974  -17.7033   -7.2946 C   0  0  0  0  0  0  0  0  0  0  0  0
   52.4188  -18.9957   -4.8573 C   0  0  0  0  0  0  0  0  0  0  0  0
   53.1444  -17.0651   -6.1815 C   0  0  0  0  0  0  0  0  0  0  0  0
   48.2206  -19.8695   -6.5168 C   0  0  0  0  0  0  0  0  0  0  0  0
   50.4977  -18.4651   -9.9044 C   0  0  0  0  0  0  0  0  0  0  0  0
   53.8598  -17.2927   -3.8900 C   0  0  0  0  0  0  0  0  0  0  0  0
   49.1541  -16.1261  -10.6041 C   0  0  0  0  0  0  0  0  0  0  0  0
   46.2698  -17.9071   -6.2043 C   0  0  0  0  0  0  0  0  0  0  0  0
   50.5118  -18.0256  -11.2275 C   0  0  0  0  0  0  0  0  0  0  0  0
   46.9878  -20.1997   -5.9548 C   0  0  0  0  0  0  0  0  0  0  0  0
   49.8451  -16.8543  -11.5759 C   0  0  0  0  0  0  0  0  0  0  0  0
   46.0164  -19.2168   -5.7900 C   0  0  0  0  0  0  0  0  0  0  0  0
   47.1813  -15.4201   -6.6103 H   0  0  0  0  0  0  0  0  0  0  0  0
   48.3983  -14.6653   -8.4917 H   0  0  0  0  0  0  0  0  0  0  0  0
   50.3223  -19.3534   -5.0312 H   0  0  0  0  0  0  0  0  0  0  0  0
   50.7170  -17.6672   -4.6929 H   0  0  0  0  0  0  0  0  0  0  0  0
   52.8388  -18.5549   -7.7258 H   0  0  0  0  0  0  0  0  0  0  0  0
   52.1767  -16.9530   -8.0832 H   0  0  0  0  0  0  0  0  0  0  0  0
   52.3998  -19.3048   -3.8044 H   0  0  0  0  0  0  0  0  0  0  0  0
   52.6756  -19.9034   -5.4198 H   0  0  0  0  0  0  0  0  0  0  0  0
   54.0746  -16.6810   -6.6168 H   0  0  0  0  0  0  0  0  0  0  0  0
   52.5961  -16.1996   -5.7834 H   0  0  0  0  0  0  0  0  0  0  0  0
   48.9698  -20.6460   -6.6527 H   0  0  0  0  0  0  0  0  0  0  0  0
   51.0172  -19.3831   -9.6405 H   0  0  0  0  0  0  0  0  0  0  0  0
   54.2261  -17.9896   -3.1280 H   0  0  0  0  0  0  0  0  0  0  0  0
   53.0189  -16.7306   -3.4679 H   0  0  0  0  0  0  0  0  0  0  0  0
   54.6780  -16.5924   -4.0921 H   0  0  0  0  0  0  0  0  0  0  0  0
   48.6316  -15.2197  -10.9016 H   0  0  0  0  0  0  0  0  0  0  0  0
   45.4878  -17.1601   -6.0869 H   0  0  0  0  0  0  0  0  0  0  0  0
   51.0417  -18.5978  -11.9843 H   0  0  0  0  0  0  0  0  0  0  0  0
   46.7862  -21.2231   -5.6500 H   0  0  0  0  0  0  0  0  0  0  0  0
   49.8558  -16.5087  -12.6063 H   0  0  0  0  0  0  0  0  0  0  0  0
   45.0545  -19.4704   -5.3520 H   0  0  0  0  0  0  0  0  0  0  0  0
  2  1  1  0
  3  1  1  0
  4  1  2  3
  5  9  1  0
  6  8  1  0
  7 13  1  0
  8  3  2  0
  9  2  2  0
 10  4  1  0
 11  4  1  0
 12 10  1  0
 13 11  1  0
 14  2  1  0
 15  3  1  0
 16  7  1  0
 17  8  1  0
 18  9  1  0
 19 15  2  0
 20 14  2  0
 21 19  1  0
 22 20  1  0
  7 12  1  0
  6  5  2  0
 21 17  2  0
 22 18  2  0
  5 23  1  0
  6 24  1  0
 10 25  1  0
 10 26  1  0
 11 27  1  0
 11 28  1  0
 12 29  1  0
 12 30  1  0
 13 31  1  0
 13 32  1  0
 14 33  1  0
 15 34  1  0
 16 35  1  0
 16 36  1  0
 16 37  1  0
 17 38  1  0
 18 39  1  0
 19 40  1  0
 20 41  1  0
 21 42  1  0
 22 43  1  0
M  END
> <Uni-Dock RESULT> 
ENERGY=   -4.165  LOWER_BOUND=    2.108  UPPER_BOUND=    5.058
INTER + INTRA:          -4.165
INTER:                  -4.165
INTRA:                   0.000
UNBOUND:                 0.000

$$$$
