
     RDKit          3D

 59 64  0  0  0  0  0  0  0  0999 V2000
   45.6611    5.3176   12.3281 C   0  0  2  0  0  0  0  0  0  0  0  0
   46.8902    6.0198   12.9639 C   0  0  0  0  0  0  0  0  0  0  0  0
   47.5406    7.0811   12.2895 C   0  0  0  0  0  0  0  0  0  0  0  0
   53.2037   13.0394    8.8880 C   0  0  0  0  0  0  0  0  0  0  0  0
   48.6589    7.7549   12.8146 C   0  0  0  0  0  0  0  0  0  0  0  0
   52.5156   11.9561    9.6306 C   0  0  0  0  0  0  0  0  0  0  0  0
   49.2981    8.8547   12.0745 C   0  0  0  0  0  0  0  0  0  0  0  0
   45.2606    5.9023   10.9288 C   0  0  0  0  0  0  0  0  0  0  0  0
   44.4025    5.4737   13.2358 C   0  0  0  0  0  0  0  0  0  0  0  0
   45.9460    3.8021   12.0956 C   0  0  0  0  0  0  0  0  0  0  0  0
   51.1522   12.0199    9.9445 C   0  0  0  0  0  0  0  0  0  0  0  0
   50.6651    8.8105   11.7515 C   0  0  0  0  0  0  0  0  0  0  0  0
   50.5303   10.9757   10.6497 C   0  0  0  0  0  0  0  0  0  0  0  0
   51.2912    9.8528   11.0453 C   0  0  0  0  0  0  0  0  0  0  0  0
   44.0395    5.1856   10.3271 C   0  0  2  0  0  0  0  0  0  0  0  0
   43.1872    4.7385   12.6427 C   0  0  1  0  0  0  0  0  0  0  0  0
   44.7167    3.0821   11.5129 C   0  0  2  0  0  0  0  0  0  0  0  0
   47.4148    5.6421   14.2255 C   0  0  0  0  0  0  0  0  0  0  0  0
   54.3814   13.0566    8.5812 O   0  0  0  0  0  0  0  0  0  0  0  0
   53.2651   10.8433   10.0222 C   0  0  0  0  0  0  0  0  0  0  0  0
   49.1428    7.3491   14.0581 C   0  0  0  0  0  0  0  0  0  0  0  0
   48.5608    9.9768   11.6720 C   0  0  0  0  0  0  0  0  0  0  0  0
   52.6567    9.8000   10.7240 C   0  0  0  0  0  0  0  0  0  0  0  0
   49.1666   11.0233   10.9704 C   0  0  0  0  0  0  0  0  0  0  0  0
   48.5294    6.3077   14.7549 C   0  0  0  0  0  0  0  0  0  0  0  0
   42.8441    5.3422   11.2751 C   0  0  0  0  0  0  0  0  0  0  0  0
   44.3636    3.6966   10.1526 C   0  0  0  0  0  0  0  0  0  0  0  0
   43.5274    3.2488   12.4728 C   0  0  0  0  0  0  0  0  0  0  0  0
   52.3839   14.0544    8.5626 O   0  0  0  0  0  0  0  0  0  0  0  0
   46.7858    4.6159   14.8804 O   0  0  0  0  0  0  0  0  0  0  0  0
   47.2841    4.2116   16.1479 C   0  0  0  0  0  0  0  0  0  0  0  0
   47.1930    7.4086   11.3130 H   0  0  0  0  0  0  0  0  0  0  0  0
   46.0975    5.8106   10.2235 H   0  0  0  0  0  0  0  0  0  0  0  0
   45.0264    6.9719   11.0153 H   0  0  0  0  0  0  0  0  0  0  0  0
   44.5721    5.0803   14.2427 H   0  0  0  0  0  0  0  0  0  0  0  0
   44.1652    6.5385   13.3648 H   0  0  0  0  0  0  0  0  0  0  0  0
   46.8018    3.6831   11.4173 H   0  0  0  0  0  0  0  0  0  0  0  0
   46.2245    3.2907   13.0220 H   0  0  0  0  0  0  0  0  0  0  0  0
   50.5678   12.8854    9.6396 H   0  0  0  0  0  0  0  0  0  0  0  0
   51.2490    7.9397   12.0468 H   0  0  0  0  0  0  0  0  0  0  0  0
   43.7967    5.6258    9.3533 H   0  0  0  0  0  0  0  0  0  0  0  0
   42.3295    4.8459   13.3164 H   0  0  0  0  0  0  0  0  0  0  0  0
   44.9417    2.0170   11.3867 H   0  0  0  0  0  0  0  0  0  0  0  0
   54.3252   10.7826    9.7832 H   0  0  0  0  0  0  0  0  0  0  0  0
   49.9987    7.8507   14.5046 H   0  0  0  0  0  0  0  0  0  0  0  0
   47.5020   10.0496   11.9139 H   0  0  0  0  0  0  0  0  0  0  0  0
   53.2594    8.9430   11.0180 H   0  0  0  0  0  0  0  0  0  0  0  0
   48.5602   11.8782   10.6787 H   0  0  0  0  0  0  0  0  0  0  0  0
   48.9502    6.0418   15.7188 H   0  0  0  0  0  0  0  0  0  0  0  0
   41.9622    4.8439   10.8544 H   0  0  0  0  0  0  0  0  0  0  0  0
   42.5877    6.4030   11.3858 H   0  0  0  0  0  0  0  0  0  0  0  0
   45.2009    3.5727    9.4550 H   0  0  0  0  0  0  0  0  0  0  0  0
   43.5047    3.1734    9.7148 H   0  0  0  0  0  0  0  0  0  0  0  0
   42.6552    2.7096   12.0828 H   0  0  0  0  0  0  0  0  0  0  0  0
   43.7661    2.8047   13.4471 H   0  0  0  0  0  0  0  0  0  0  0  0
   52.9668   14.6816    8.0854 H   0  0  0  0  0  0  0  0  0  0  0  0
   48.3092    3.8354   16.0680 H   0  0  0  0  0  0  0  0  0  0  0  0
   46.6568    3.3895   16.5055 H   0  0  0  0  0  0  0  0  0  0  0  0
   47.2129    5.0243   16.8781 H   0  0  0  0  0  0  0  0  0  0  0  0
  1  2  1  6
  3  2  2  0
  4  6  1  0
  5  3  1  0
  6 11  2  0
  7  5  1  0
  8  1  1  0
  9  1  1  0
 10  1  1  0
 11 13  1  0
 12  7  1  0
 13 24  2  0
 14 12  2  0
 15  8  1  0
 16  9  1  0
 17 10  1  0
 18  2  1  0
 19  4  2  0
 20 23  2  0
 21 25  1  0
 22  7  2  0
 23 14  1  0
 24 22  1  0
 25 18  2  0
 26 16  1  0
 27 17  1  0
 28 17  1  0
 29  4  1  0
 30 18  1  0
 31 30  1  0
 28 16  1  0
 27 15  1  0
 26 15  1  0
 21  5  2  0
 13 14  1  0
  6 20  1  0
  3 32  1  0
  8 33  1  0
  8 34  1  0
  9 35  1  0
  9 36  1  0
 10 37  1  0
 10 38  1  0
 11 39  1  0
 12 40  1  0
 15 41  1  1
 16 42  1  1
 17 43  1  6
 20 44  1  0
 21 45  1  0
 22 46  1  0
 23 47  1  0
 24 48  1  0
 25 49  1  0
 26 50  1  0
 26 51  1  0
 27 52  1  0
 27 53  1  0
 28 54  1  0
 28 55  1  0
 29 56  1  0
 31 57  1  0
 31 58  1  0
 31 59  1  0
M  END
> <Uni-Dock RESULT> 
ENERGY=   -5.794  LOWER_BOUND=    0.000  UPPER_BOUND=    0.000
INTER + INTRA:          -5.794
INTER:                  -5.794
INTRA:                   0.000
UNBOUND:                 0.000

$$$$

     RDKit          3D

 59 64  0  0  0  0  0  0  0  0999 V2000
   49.3931   11.3817   17.3074 C   0  0  2  0  0  0  0  0  0  0  0  0
   49.7272   10.3156   16.2304 C   0  0  0  0  0  0  0  0  0  0  0  0
   48.6964    9.5568   15.6256 C   0  0  0  0  0  0  0  0  0  0  0  0
   43.5494    3.4041   11.7792 C   0  0  0  0  0  0  0  0  0  0  0  0
   48.9375    8.5764   14.6452 C   0  0  0  0  0  0  0  0  0  0  0  0
   44.6421    4.2133   12.3705 C   0  0  0  0  0  0  0  0  0  0  0  0
   47.8299    7.8159   14.0447 C   0  0  0  0  0  0  0  0  0  0  0  0
   47.8598   11.4994   17.6170 C   0  0  0  0  0  0  0  0  0  0  0  0
   49.8485   12.7994   16.8439 C   0  0  0  0  0  0  0  0  0  0  0  0
   50.0806   11.0355   18.6636 C   0  0  0  0  0  0  0  0  0  0  0  0
   44.6444    5.6127   12.3150 C   0  0  0  0  0  0  0  0  0  0  0  0
   47.8098    6.4113   14.0883 C   0  0  0  0  0  0  0  0  0  0  0  0
   45.6957    6.3500   12.8855 C   0  0  0  0  0  0  0  0  0  0  0  0
   46.7594    5.6696   13.5194 C   0  0  0  0  0  0  0  0  0  0  0  0
   47.5629   12.5644   18.6868 C   0  0  2  0  0  0  0  0  0  0  0  0
   49.5697   13.8602   17.9238 C   0  0  1  0  0  0  0  0  0  0  0  0
   49.7996   12.1123   19.7270 C   0  0  2  0  0  0  0  0  0  0  0  0
   51.0538   10.0512   15.8065 C   0  0  0  0  0  0  0  0  0  0  0  0
   43.4784    2.1890   11.7859 O   0  0  0  0  0  0  0  0  0  0  0  0
   45.6952    3.5433   12.9994 C   0  0  0  0  0  0  0  0  0  0  0  0
   50.2581    8.3479   14.2594 C   0  0  0  0  0  0  0  0  0  0  0  0
   46.7647    8.4717   13.4124 C   0  0  0  0  0  0  0  0  0  0  0  0
   46.7454    4.2668   13.5694 C   0  0  0  0  0  0  0  0  0  0  0  0
   45.7125    7.7509   12.8400 C   0  0  0  0  0  0  0  0  0  0  0  0
   51.3024    9.0752   14.8310 C   0  0  0  0  0  0  0  0  0  0  0  0
   48.0614   13.9285   18.1936 C   0  0  0  0  0  0  0  0  0  0  0  0
   48.2898   12.1920   19.9850 C   0  0  0  0  0  0  0  0  0  0  0  0
   50.3033   13.4729   19.2183 C   0  0  0  0  0  0  0  0  0  0  0  0
   42.5928    4.1549   11.2051 O   0  0  0  0  0  0  0  0  0  0  0  0
   52.0528   10.7856   16.3898 O   0  0  0  0  0  0  0  0  0  0  0  0
   53.3946   10.5478   15.9881 C   0  0  0  0  0  0  0  0  0  0  0  0
   47.6597    9.7045   15.9173 H   0  0  0  0  0  0  0  0  0  0  0  0
   47.4669   10.5364   17.9695 H   0  0  0  0  0  0  0  0  0  0  0  0
   47.3057   11.7606   16.7053 H   0  0  0  0  0  0  0  0  0  0  0  0
   50.9176   12.8312   16.6127 H   0  0  0  0  0  0  0  0  0  0  0  0
   49.3313   13.0721   15.9139 H   0  0  0  0  0  0  0  0  0  0  0  0
   49.7278   10.0590   19.0222 H   0  0  0  0  0  0  0  0  0  0  0  0
   51.1660   10.9428   18.5609 H   0  0  0  0  0  0  0  0  0  0  0  0
   43.8248    6.1350   11.8262 H   0  0  0  0  0  0  0  0  0  0  0  0
   48.6244    5.8874   14.5868 H   0  0  0  0  0  0  0  0  0  0  0  0
   46.4835   12.6117   18.8701 H   0  0  0  0  0  0  0  0  0  0  0  0
   49.9248   14.8376   17.5776 H   0  0  0  0  0  0  0  0  0  0  0  0
   50.3173   11.8523   20.6573 H   0  0  0  0  0  0  0  0  0  0  0  0
   45.7036    2.4561   13.0492 H   0  0  0  0  0  0  0  0  0  0  0  0
   50.4869    7.6064   13.4969 H   0  0  0  0  0  0  0  0  0  0  0  0
   46.7522    9.5584   13.3508 H   0  0  0  0  0  0  0  0  0  0  0  0
   47.5544    3.7244   14.0547 H   0  0  0  0  0  0  0  0  0  0  0  0
   44.9059    8.2974   12.3556 H   0  0  0  0  0  0  0  0  0  0  0  0
   52.3067    8.8541   14.4858 H   0  0  0  0  0  0  0  0  0  0  0  0
   47.8477   14.7006   18.9427 H   0  0  0  0  0  0  0  0  0  0  0  0
   47.5283   14.2161   17.2791 H   0  0  0  0  0  0  0  0  0  0  0  0
   47.9209   11.2296   20.3604 H   0  0  0  0  0  0  0  0  0  0  0  0
   48.0794   12.9378   20.7613 H   0  0  0  0  0  0  0  0  0  0  0  0
   50.1388   14.2412   19.9839 H   0  0  0  0  0  0  0  0  0  0  0  0
   51.3846   13.4297   19.0385 H   0  0  0  0  0  0  0  0  0  0  0  0
   41.9512    3.4961   10.8657 H   0  0  0  0  0  0  0  0  0  0  0  0
   53.7011    9.5227   16.2205 H   0  0  0  0  0  0  0  0  0  0  0  0
   54.0380   11.2234   16.5599 H   0  0  0  0  0  0  0  0  0  0  0  0
   53.5357   10.7758   14.9266 H   0  0  0  0  0  0  0  0  0  0  0  0
  1  2  1  6
  3  2  2  0
  4  6  1  0
  5  3  1  0
  6 11  2  0
  7  5  1  0
  8  1  1  0
  9  1  1  0
 10  1  1  0
 11 13  1  0
 12  7  1  0
 13 24  2  0
 14 12  2  0
 15  8  1  0
 16  9  1  0
 17 10  1  0
 18  2  1  0
 19  4  2  0
 20 23  2  0
 21 25  1  0
 22  7  2  0
 23 14  1  0
 24 22  1  0
 25 18  2  0
 26 16  1  0
 27 17  1  0
 28 17  1  0
 29  4  1  0
 30 18  1  0
 31 30  1  0
 28 16  1  0
 27 15  1  0
 26 15  1  0
 21  5  2  0
 13 14  1  0
  6 20  1  0
  3 32  1  0
  8 33  1  0
  8 34  1  0
  9 35  1  0
  9 36  1  0
 10 37  1  0
 10 38  1  0
 11 39  1  0
 12 40  1  0
 15 41  1  1
 16 42  1  1
 17 43  1  6
 20 44  1  0
 21 45  1  0
 22 46  1  0
 23 47  1  0
 24 48  1  0
 25 49  1  0
 26 50  1  0
 26 51  1  0
 27 52  1  0
 27 53  1  0
 28 54  1  0
 28 55  1  0
 29 56  1  0
 31 57  1  0
 31 58  1  0
 31 59  1  0
M  END
> <Uni-Dock RESULT> 
ENERGY=   -5.217  LOWER_BOUND=    4.741  UPPER_BOUND=    9.550
INTER + INTRA:          -5.217
INTER:                  -5.217
INTRA:                   0.000
UNBOUND:                 0.000

$$$$

     RDKit          3D

 59 64  0  0  0  0  0  0  0  0999 V2000
   49.1013   10.9824   18.1699 C   0  0  2  0  0  0  0  0  0  0  0  0
   49.5803    9.8646   17.2059 C   0  0  0  0  0  0  0  0  0  0  0  0
   48.6696    9.2404   16.3198 C   0  0  0  0  0  0  0  0  0  0  0  0
   44.0421    3.7682   11.0488 C   0  0  0  0  0  0  0  0  0  0  0  0
   49.0442    8.2215   15.4244 C   0  0  0  0  0  0  0  0  0  0  0  0
   45.0221    4.4338   11.9404 C   0  0  0  0  0  0  0  0  0  0  0  0
   48.0592    7.6058   14.5208 C   0  0  0  0  0  0  0  0  0  0  0  0
   47.5724   11.3080   18.0403 C   0  0  0  0  0  0  0  0  0  0  0  0
   49.8517   12.3195   17.8845 C   0  0  0  0  0  0  0  0  0  0  0  0
   49.3288   10.5691   19.6563 C   0  0  0  0  0  0  0  0  0  0  0  0
   45.2248    5.8195   11.9192 C   0  0  0  0  0  0  0  0  0  0  0  0
   47.8423    6.2173   14.5255 C   0  0  0  0  0  0  0  0  0  0  0  0
   46.1617    6.4191   12.7777 C   0  0  0  0  0  0  0  0  0  0  0  0
   46.9053    5.6132   13.6687 C   0  0  0  0  0  0  0  0  0  0  0  0
   47.1307   12.4197   19.0079 C   0  0  2  0  0  0  0  0  0  0  0  0
   49.4238   13.4247   18.8667 C   0  0  1  0  0  0  0  0  0  0  0  0
   48.9058   11.6902   20.6224 C   0  0  2  0  0  0  0  0  0  0  0  0
   50.9254    9.4195   17.1646 C   0  0  0  0  0  0  0  0  0  0  0  0
   43.8123    2.5736   11.0080 O   0  0  0  0  0  0  0  0  0  0  0  0
   45.7584    3.6396   12.8238 C   0  0  0  0  0  0  0  0  0  0  0  0
   50.3778    7.8133   15.4187 C   0  0  0  0  0  0  0  0  0  0  0  0
   47.3105    8.3876   13.6304 C   0  0  0  0  0  0  0  0  0  0  0  0
   46.6925    4.2257   13.6812 C   0  0  0  0  0  0  0  0  0  0  0  0
   46.3754    7.8044   12.7702 C   0  0  0  0  0  0  0  0  0  0  0  0
   51.3064    8.4039   16.2761 C   0  0  0  0  0  0  0  0  0  0  0  0
   47.9232   13.6973   18.7048 C   0  0  0  0  0  0  0  0  0  0  0  0
   47.4084   11.9741   20.4490 C   0  0  0  0  0  0  0  0  0  0  0  0
   49.7071   12.9635   20.3058 C   0  0  0  0  0  0  0  0  0  0  0  0
   43.3930    4.6305   10.2468 O   0  0  0  0  0  0  0  0  0  0  0  0
   51.8086   10.0234   18.0207 O   0  0  0  0  0  0  0  0  0  0  0  0
   53.1656    9.6028   18.0055 C   0  0  0  0  0  0  0  0  0  0  0  0
   47.6217    9.5294   16.3127 H   0  0  0  0  0  0  0  0  0  0  0  0
   46.9727   10.4115   18.2470 H   0  0  0  0  0  0  0  0  0  0  0  0
   47.3358   11.6264   17.0161 H   0  0  0  0  0  0  0  0  0  0  0  0
   50.9371   12.2050   17.9627 H   0  0  0  0  0  0  0  0  0  0  0  0
   49.6568   12.6440   16.8533 H   0  0  0  0  0  0  0  0  0  0  0  0
   48.7638    9.6539   19.8797 H   0  0  0  0  0  0  0  0  0  0  0  0
   50.3774   10.3311   19.8596 H   0  0  0  0  0  0  0  0  0  0  0  0
   44.6516    6.4386   11.2324 H   0  0  0  0  0  0  0  0  0  0  0  0
   48.4077    5.5975   15.2202 H   0  0  0  0  0  0  0  0  0  0  0  0
   46.0594   12.6130   18.8826 H   0  0  0  0  0  0  0  0  0  0  0  0
   49.9877   14.3406   18.6558 H   0  0  0  0  0  0  0  0  0  0  0  0
   49.1026   11.3781   21.6543 H   0  0  0  0  0  0  0  0  0  0  0  0
   45.6088    2.5619   12.8495 H   0  0  0  0  0  0  0  0  0  0  0  0
   50.7113    7.0361   14.7343 H   0  0  0  0  0  0  0  0  0  0  0  0
   47.4594    9.4653   13.5922 H   0  0  0  0  0  0  0  0  0  0  0  0
   47.2539    3.5881   14.3613 H   0  0  0  0  0  0  0  0  0  0  0  0
   45.8167    8.4457   12.0917 H   0  0  0  0  0  0  0  0  0  0  0  0
   52.3289    8.0457   16.2210 H   0  0  0  0  0  0  0  0  0  0  0  0
   47.6119   14.5027   19.3812 H   0  0  0  0  0  0  0  0  0  0  0  0
   47.7109   14.0390   17.6843 H   0  0  0  0  0  0  0  0  0  0  0  0
   46.8253   11.0754   20.6843 H   0  0  0  0  0  0  0  0  0  0  0  0
   47.0893   12.7534   21.1519 H   0  0  0  0  0  0  0  0  0  0  0  0
   49.4374   13.7587   21.0118 H   0  0  0  0  0  0  0  0  0  0  0  0
   50.7798   12.7739   20.4350 H   0  0  0  0  0  0  0  0  0  0  0  0
   42.7911    4.0578    9.7266 H   0  0  0  0  0  0  0  0  0  0  0  0
   53.2563    8.5498   18.2913 H   0  0  0  0  0  0  0  0  0  0  0  0
   53.7061   10.1956   18.7497 H   0  0  0  0  0  0  0  0  0  0  0  0
   53.6276    9.7934   17.0314 H   0  0  0  0  0  0  0  0  0  0  0  0
  1  2  1  6
  3  2  2  0
  4  6  1  0
  5  3  1  0
  6 11  2  0
  7  5  1  0
  8  1  1  0
  9  1  1  0
 10  1  1  0
 11 13  1  0
 12  7  1  0
 13 24  2  0
 14 12  2  0
 15  8  1  0
 16  9  1  0
 17 10  1  0
 18  2  1  0
 19  4  2  0
 20 23  2  0
 21 25  1  0
 22  7  2  0
 23 14  1  0
 24 22  1  0
 25 18  2  0
 26 16  1  0
 27 17  1  0
 28 17  1  0
 29  4  1  0
 30 18  1  0
 31 30  1  0
 28 16  1  0
 27 15  1  0
 26 15  1  0
 21  5  2  0
 13 14  1  0
  6 20  1  0
  3 32  1  0
  8 33  1  0
  8 34  1  0
  9 35  1  0
  9 36  1  0
 10 37  1  0
 10 38  1  0
 11 39  1  0
 12 40  1  0
 15 41  1  1
 16 42  1  1
 17 43  1  6
 20 44  1  0
 21 45  1  0
 22 46  1  0
 23 47  1  0
 24 48  1  0
 25 49  1  0
 26 50  1  0
 26 51  1  0
 27 52  1  0
 27 53  1  0
 28 54  1  0
 28 55  1  0
 29 56  1  0
 31 57  1  0
 31 58  1  0
 31 59  1  0
M  END
> <Uni-Dock RESULT> 
ENERGY=   -5.177  LOWER_BOUND=    4.944  UPPER_BOUND=    9.391
INTER + INTRA:          -5.177
INTER:                  -5.177
INTRA:                   0.000
UNBOUND:                 0.000

$$$$

     RDKit          3D

 59 64  0  0  0  0  0  0  0  0999 V2000
   47.7506    8.6750   13.1552 C   0  0  2  0  0  0  0  0  0  0  0  0
   46.3866    8.2244   12.5680 C   0  0  0  0  0  0  0  0  0  0  0  0
   45.5415    9.1549   11.9169 C   0  0  0  0  0  0  0  0  0  0  0  0
   38.8225   13.9267    8.5661 C   0  0  0  0  0  0  0  0  0  0  0  0
   44.2942    8.8063   11.3662 C   0  0  0  0  0  0  0  0  0  0  0  0
   39.7076   12.9262    9.2095 C   0  0  0  0  0  0  0  0  0  0  0  0
   43.4534    9.8113   10.6963 C   0  0  0  0  0  0  0  0  0  0  0  0
   48.0494   10.2004   12.9448 C   0  0  0  0  0  0  0  0  0  0  0  0
   48.9268    7.9085   12.4760 C   0  0  0  0  0  0  0  0  0  0  0  0
   47.7985    8.4355   14.6954 C   0  0  0  0  0  0  0  0  0  0  0  0
   41.0191   12.7033    8.7717 C   0  0  0  0  0  0  0  0  0  0  0  0
   42.1344   10.0486   11.1193 C   0  0  0  0  0  0  0  0  0  0  0  0
   41.8321   11.7473    9.4038 C   0  0  0  0  0  0  0  0  0  0  0  0
   41.3177   11.0049   10.4903 C   0  0  0  0  0  0  0  0  0  0  0  0
   49.4079   10.6137   13.5370 C   0  0  2  0  0  0  0  0  0  0  0  0
   50.2833    8.3079   13.0840 C   0  0  1  0  0  0  0  0  0  0  0  0
   49.1652    8.8302   15.2832 C   0  0  2  0  0  0  0  0  0  0  0  0
   45.9258    6.8866   12.6527 C   0  0  0  0  0  0  0  0  0  0  0  0
   37.6750   14.1747    8.8876 O   0  0  0  0  0  0  0  0  0  0  0  0
   39.2022   12.1910   10.2855 C   0  0  0  0  0  0  0  0  0  0  0  0
   43.8795    7.4791   11.4738 C   0  0  0  0  0  0  0  0  0  0  0  0
   43.9450   10.5592    9.6176 C   0  0  0  0  0  0  0  0  0  0  0  0
   40.0019   11.2380   10.9205 C   0  0  0  0  0  0  0  0  0  0  0  0
   43.1472   11.5132    8.9790 C   0  0  0  0  0  0  0  0  0  0  0  0
   44.6838    6.5315   12.1075 C   0  0  0  0  0  0  0  0  0  0  0  0
   50.5213    9.8062   12.8585 C   0  0  0  0  0  0  0  0  0  0  0  0
   49.4106   10.3251   15.0434 C   0  0  0  0  0  0  0  0  0  0  0  0
   50.2703    8.0140   14.5931 C   0  0  0  0  0  0  0  0  0  0  0  0
   39.4157   14.5727    7.5468 O   0  0  0  0  0  0  0  0  0  0  0  0
   46.7430    5.9842   13.2815 O   0  0  0  0  0  0  0  0  0  0  0  0
   46.3133    4.6339   13.3836 C   0  0  0  0  0  0  0  0  0  0  0  0
   45.8336   10.1985   11.8309 H   0  0  0  0  0  0  0  0  0  0  0  0
   47.2670   10.8107   13.4155 H   0  0  0  0  0  0  0  0  0  0  0  0
   48.0497   10.4447   11.8740 H   0  0  0  0  0  0  0  0  0  0  0  0
   48.8218    6.8240   12.5772 H   0  0  0  0  0  0  0  0  0  0  0  0
   48.9301    8.1110   11.3964 H   0  0  0  0  0  0  0  0  0  0  0  0
   47.0028    9.0112   15.1874 H   0  0  0  0  0  0  0  0  0  0  0  0
   47.6139    7.3882   14.9533 H   0  0  0  0  0  0  0  0  0  0  0  0
   41.4135   13.2756    7.9348 H   0  0  0  0  0  0  0  0  0  0  0  0
   41.7417    9.4840   11.9641 H   0  0  0  0  0  0  0  0  0  0  0  0
   49.5736   11.6836   13.3671 H   0  0  0  0  0  0  0  0  0  0  0  0
   51.0834    7.7332   12.6037 H   0  0  0  0  0  0  0  0  0  0  0  0
   49.1738    8.6254   16.3598 H   0  0  0  0  0  0  0  0  0  0  0  0
   38.1847   12.3562   10.6347 H   0  0  0  0  0  0  0  0  0  0  0  0
   42.9269    7.1655   11.0520 H   0  0  0  0  0  0  0  0  0  0  0  0
   44.9587   10.3948    9.2564 H   0  0  0  0  0  0  0  0  0  0  0  0
   39.5880   10.6778   11.7566 H   0  0  0  0  0  0  0  0  0  0  0  0
   43.5651   12.0706    8.1433 H   0  0  0  0  0  0  0  0  0  0  0  0
   44.3074    5.5152   12.1552 H   0  0  0  0  0  0  0  0  0  0  0  0
   51.4980   10.0973   13.2640 H   0  0  0  0  0  0  0  0  0  0  0  0
   50.5446   10.0258   11.7840 H   0  0  0  0  0  0  0  0  0  0  0  0
   48.6344   10.9185   15.5419 H   0  0  0  0  0  0  0  0  0  0  0  0
   50.3704   10.6241   15.4820 H   0  0  0  0  0  0  0  0  0  0  0  0
   51.2454    8.2633   15.0296 H   0  0  0  0  0  0  0  0  0  0  0  0
   50.1093    6.9427   14.7656 H   0  0  0  0  0  0  0  0  0  0  0  0
   38.7241   15.1893    7.2269 H   0  0  0  0  0  0  0  0  0  0  0  0
   45.3932    4.5552   13.9718 H   0  0  0  0  0  0  0  0  0  0  0  0
   47.0924    4.0756   13.9114 H   0  0  0  0  0  0  0  0  0  0  0  0
   46.1943    4.1810   12.3939 H   0  0  0  0  0  0  0  0  0  0  0  0
  1  2  1  6
  3  2  2  0
  4  6  1  0
  5  3  1  0
  6 11  2  0
  7  5  1  0
  8  1  1  0
  9  1  1  0
 10  1  1  0
 11 13  1  0
 12  7  1  0
 13 24  2  0
 14 12  2  0
 15  8  1  0
 16  9  1  0
 17 10  1  0
 18  2  1  0
 19  4  2  0
 20 23  2  0
 21 25  1  0
 22  7  2  0
 23 14  1  0
 24 22  1  0
 25 18  2  0
 26 16  1  0
 27 17  1  0
 28 17  1  0
 29  4  1  0
 30 18  1  0
 31 30  1  0
 28 16  1  0
 27 15  1  0
 26 15  1  0
 21  5  2  0
 13 14  1  0
  6 20  1  0
  3 32  1  0
  8 33  1  0
  8 34  1  0
  9 35  1  0
  9 36  1  0
 10 37  1  0
 10 38  1  0
 11 39  1  0
 12 40  1  0
 15 41  1  1
 16 42  1  1
 17 43  1  6
 20 44  1  0
 21 45  1  0
 22 46  1  0
 23 47  1  0
 24 48  1  0
 25 49  1  0
 26 50  1  0
 26 51  1  0
 27 52  1  0
 27 53  1  0
 28 54  1  0
 28 55  1  0
 29 56  1  0
 31 57  1  0
 31 58  1  0
 31 59  1  0
M  END
> <Uni-Dock RESULT> 
ENERGY=   -4.879  LOWER_BOUND=    5.594  UPPER_BOUND=    8.631
INTER + INTRA:          -4.879
INTER:                  -4.879
INTRA:                   0.000
UNBOUND:                 0.000

$$$$

     RDKit          3D

 59 64  0  0  0  0  0  0  0  0999 V2000
   50.0336   12.9102   15.4484 C   0  0  2  0  0  0  0  0  0  0  0  0
   50.2065   11.6620   14.5428 C   0  0  0  0  0  0  0  0  0  0  0  0
   49.1041   10.8197   14.2610 C   0  0  0  0  0  0  0  0  0  0  0  0
   43.5050    4.1397   12.4807 C   0  0  0  0  0  0  0  0  0  0  0  0
   49.1995    9.6745   13.4487 C   0  0  0  0  0  0  0  0  0  0  0  0
   44.6654    5.0282   12.7302 C   0  0  0  0  0  0  0  0  0  0  0  0
   48.0220    8.8324   13.1838 C   0  0  0  0  0  0  0  0  0  0  0  0
   48.5690   13.1025   15.9761 C   0  0  0  0  0  0  0  0  0  0  0  0
   50.3843   14.2141   14.6679 C   0  0  0  0  0  0  0  0  0  0  0  0
   50.9373   12.8069   16.7150 C   0  0  0  0  0  0  0  0  0  0  0  0
   44.6355    6.3942   12.4223 C   0  0  0  0  0  0  0  0  0  0  0  0
   48.0326    7.4595   13.4840 C   0  0  0  0  0  0  0  0  0  0  0  0
   45.7529    7.2088   12.6715 C   0  0  0  0  0  0  0  0  0  0  0  0
   46.9164    6.6408   13.2370 C   0  0  0  0  0  0  0  0  0  0  0  0
   48.4316   14.3479   16.8689 C   0  0  2  0  0  0  0  0  0  0  0  0
   50.2665   15.4569   15.5683 C   0  0  1  0  0  0  0  0  0  0  0  0
   50.8145   14.0626   17.5969 C   0  0  2  0  0  0  0  0  0  0  0  0
   51.4511   11.3075   13.9643 C   0  0  0  0  0  0  0  0  0  0  0  0
   43.4562    2.9471   12.7190 O   0  0  0  0  0  0  0  0  0  0  0  0
   45.8175    4.4697   13.2908 C   0  0  0  0  0  0  0  0  0  0  0  0
   50.4438    9.3623   12.9015 C   0  0  0  0  0  0  0  0  0  0  0  0
   46.8577    9.3765   12.6245 C   0  0  0  0  0  0  0  0  0  0  0  0
   46.9339    5.2707   13.5422 C   0  0  0  0  0  0  0  0  0  0  0  0
   45.7388    8.5778   12.3707 C   0  0  0  0  0  0  0  0  0  0  0  0
   51.5546   10.1674   13.1547 C   0  0  0  0  0  0  0  0  0  0  0  0
   48.8209   15.5930   16.0624 C   0  0  0  0  0  0  0  0  0  0  0  0
   49.3652   14.2077   18.0777 C   0  0  0  0  0  0  0  0  0  0  0  0
   51.2064   15.3013   16.7751 C   0  0  0  0  0  0  0  0  0  0  0  0
   42.4558    4.7863   11.9430 O   0  0  0  0  0  0  0  0  0  0  0  0
   52.5191   12.1223   14.2348 O   0  0  0  0  0  0  0  0  0  0  0  0
   53.7819   11.7978   13.6705 C   0  0  0  0  0  0  0  0  0  0  0  0
   48.1260   11.0317   14.6853 H   0  0  0  0  0  0  0  0  0  0  0  0
   48.2544   12.2248   16.5564 H   0  0  0  0  0  0  0  0  0  0  0  0
   47.8702   13.2012   15.1344 H   0  0  0  0  0  0  0  0  0  0  0  0
   51.4012   14.1892   14.2644 H   0  0  0  0  0  0  0  0  0  0  0  0
   49.7189   14.3202   13.8004 H   0  0  0  0  0  0  0  0  0  0  0  0
   50.6635   11.9165   17.2971 H   0  0  0  0  0  0  0  0  0  0  0  0
   51.9932   12.6827   16.4561 H   0  0  0  0  0  0  0  0  0  0  0  0
   43.7390    6.8299   11.9866 H   0  0  0  0  0  0  0  0  0  0  0  0
   48.9258    7.0240   13.9303 H   0  0  0  0  0  0  0  0  0  0  0  0
   47.3955   14.4419   17.2133 H   0  0  0  0  0  0  0  0  0  0  0  0
   50.5446   16.3504   14.9977 H   0  0  0  0  0  0  0  0  0  0  0  0
   51.4802   13.9689   18.4623 H   0  0  0  0  0  0  0  0  0  0  0  0
   45.8519    3.4096   13.5348 H   0  0  0  0  0  0  0  0  0  0  0  0
   50.5584    8.4917   12.2592 H   0  0  0  0  0  0  0  0  0  0  0  0
   46.8173   10.4341   12.3697 H   0  0  0  0  0  0  0  0  0  0  0  0
   47.8198    4.8147   13.9799 H   0  0  0  0  0  0  0  0  0  0  0  0
   44.8555    9.0379   11.9326 H   0  0  0  0  0  0  0  0  0  0  0  0
   52.4933    9.8739   12.6969 H   0  0  0  0  0  0  0  0  0  0  0  0
   48.7185   16.4911   16.6837 H   0  0  0  0  0  0  0  0  0  0  0  0
   48.1420   15.7168   15.2097 H   0  0  0  0  0  0  0  0  0  0  0  0
   49.0780   13.3344   18.6761 H   0  0  0  0  0  0  0  0  0  0  0  0
   49.2710   15.0848   18.7296 H   0  0  0  0  0  0  0  0  0  0  0  0
   51.1554   16.1980   17.4051 H   0  0  0  0  0  0  0  0  0  0  0  0
   52.2449   15.2119   16.4331 H   0  0  0  0  0  0  0  0  0  0  0  0
   41.7786    4.0855   11.8373 H   0  0  0  0  0  0  0  0  0  0  0  0
   54.1389   10.8279   14.0320 H   0  0  0  0  0  0  0  0  0  0  0  0
   54.4981   12.5573   13.9983 H   0  0  0  0  0  0  0  0  0  0  0  0
   53.7454   11.8273   12.5767 H   0  0  0  0  0  0  0  0  0  0  0  0
  1  2  1  6
  3  2  2  0
  4  6  1  0
  5  3  1  0
  6 11  2  0
  7  5  1  0
  8  1  1  0
  9  1  1  0
 10  1  1  0
 11 13  1  0
 12  7  1  0
 13 24  2  0
 14 12  2  0
 15  8  1  0
 16  9  1  0
 17 10  1  0
 18  2  1  0
 19  4  2  0
 20 23  2  0
 21 25  1  0
 22  7  2  0
 23 14  1  0
 24 22  1  0
 25 18  2  0
 26 16  1  0
 27 17  1  0
 28 17  1  0
 29  4  1  0
 30 18  1  0
 31 30  1  0
 28 16  1  0
 27 15  1  0
 26 15  1  0
 21  5  2  0
 13 14  1  0
  6 20  1  0
  3 32  1  0
  8 33  1  0
  8 34  1  0
  9 35  1  0
  9 36  1  0
 10 37  1  0
 10 38  1  0
 11 39  1  0
 12 40  1  0
 15 41  1  1
 16 42  1  1
 17 43  1  6
 20 44  1  0
 21 45  1  0
 22 46  1  0
 23 47  1  0
 24 48  1  0
 25 49  1  0
 26 50  1  0
 26 51  1  0
 27 52  1  0
 27 53  1  0
 28 54  1  0
 28 55  1  0
 29 56  1  0
 31 57  1  0
 31 58  1  0
 31 59  1  0
M  END
> <Uni-Dock RESULT> 
ENERGY=   -4.746  LOWER_BOUND=    4.330  UPPER_BOUND=    9.780
INTER + INTRA:          -4.746
INTER:                  -4.746
INTRA:                   0.000
UNBOUND:                 0.000

$$$$

     RDKit          3D

 59 64  0  0  0  0  0  0  0  0999 V2000
   43.4940   13.2459    7.7679 C   0  0  2  0  0  0  0  0  0  0  0  0
   42.8379   12.2848    8.7944 C   0  0  0  0  0  0  0  0  0  0  0  0
   43.6246   11.3483    9.5073 C   0  0  0  0  0  0  0  0  0  0  0  0
   46.9939    4.3689   13.8752 C   0  0  0  0  0  0  0  0  0  0  0  0
   43.0869   10.4512   10.4489 C   0  0  0  0  0  0  0  0  0  0  0  0
   46.1553    5.3672   13.1691 C   0  0  0  0  0  0  0  0  0  0  0  0
   43.9486    9.4978   11.1662 C   0  0  0  0  0  0  0  0  0  0  0  0
   45.0450   13.0545    7.6337 C   0  0  0  0  0  0  0  0  0  0  0  0
   43.2785   14.7332    8.1849 C   0  0  0  0  0  0  0  0  0  0  0  0
   42.9073   13.0190    6.3409 C   0  0  0  0  0  0  0  0  0  0  0  0
   46.4231    6.7404   13.2316 C   0  0  0  0  0  0  0  0  0  0  0  0
   43.6957    8.1163   11.1173 C   0  0  0  0  0  0  0  0  0  0  0  0
   45.6084    7.6605   12.5504 C   0  0  0  0  0  0  0  0  0  0  0  0
   44.5088    7.1921   11.7969 C   0  0  0  0  0  0  0  0  0  0  0  0
   45.6638   14.0220    6.6100 C   0  0  2  0  0  0  0  0  0  0  0  0
   43.8800   15.7000    7.1491 C   0  0  1  0  0  0  0  0  0  0  0  0
   43.5121   14.0014    5.3219 C   0  0  2  0  0  0  0  0  0  0  0  0
   41.4465   12.2938    9.0647 C   0  0  0  0  0  0  0  0  0  0  0  0
   46.8239    3.1637   13.8699 O   0  0  0  0  0  0  0  0  0  0  0  0
   45.0675    4.9070   12.4218 C   0  0  0  0  0  0  0  0  0  0  0  0
   41.7126   10.4936   10.6822 C   0  0  0  0  0  0  0  0  0  0  0  0
   45.0450    9.9418   11.9181 C   0  0  0  0  0  0  0  0  0  0  0  0
   44.2512    5.8133   11.7410 C   0  0  0  0  0  0  0  0  0  0  0  0
   45.8636    9.0378   12.6014 C   0  0  0  0  0  0  0  0  0  0  0  0
   40.9028   11.4024   10.0005 C   0  0  0  0  0  0  0  0  0  0  0  0
   45.3926   15.4656    7.0514 C   0  0  0  0  0  0  0  0  0  0  0  0
   45.0272   13.7780    5.2361 C   0  0  0  0  0  0  0  0  0  0  0  0
   43.2334   15.4428    5.7781 C   0  0  0  0  0  0  0  0  0  0  0  0
   48.0097    4.9263   14.5576 O   0  0  0  0  0  0  0  0  0  0  0  0
   40.6835   13.2005    8.3766 O   0  0  0  0  0  0  0  0  0  0  0  0
   39.2849   13.2382    8.6233 C   0  0  0  0  0  0  0  0  0  0  0  0
   44.6960   11.2842    9.3352 H   0  0  0  0  0  0  0  0  0  0  0  0
   45.2769   12.0271    7.3224 H   0  0  0  0  0  0  0  0  0  0  0  0
   45.5346   13.2168    8.6034 H   0  0  0  0  0  0  0  0  0  0  0  0
   42.2178   14.9786    8.2943 H   0  0  0  0  0  0  0  0  0  0  0  0
   43.7323   14.9144    9.1687 H   0  0  0  0  0  0  0  0  0  0  0  0
   43.0981   11.9863    6.0190 H   0  0  0  0  0  0  0  0  0  0  0  0
   41.8204   13.1434    6.3202 H   0  0  0  0  0  0  0  0  0  0  0  0
   47.2700    7.0994   13.8125 H   0  0  0  0  0  0  0  0  0  0  0  0
   42.8544    7.7545   10.5274 H   0  0  0  0  0  0  0  0  0  0  0  0
   46.7449   13.8528    6.5498 H   0  0  0  0  0  0  0  0  0  0  0  0
   43.6885   16.7338    7.4585 H   0  0  0  0  0  0  0  0  0  0  0  0
   43.0604   13.8326    4.3378 H   0  0  0  0  0  0  0  0  0  0  0  0
   44.8503    3.8421   12.3654 H   0  0  0  0  0  0  0  0  0  0  0  0
   41.2582    9.8246   11.4100 H   0  0  0  0  0  0  0  0  0  0  0  0
   45.2648   11.0057   11.9867 H   0  0  0  0  0  0  0  0  0  0  0  0
   43.4103    5.4325   11.1647 H   0  0  0  0  0  0  0  0  0  0  0  0
   46.7030    9.4230   13.1767 H   0  0  0  0  0  0  0  0  0  0  0  0
   39.8425   11.3890   10.2292 H   0  0  0  0  0  0  0  0  0  0  0  0
   45.8367   16.1678    6.3354 H   0  0  0  0  0  0  0  0  0  0  0  0
   45.8665   15.6581    8.0217 H   0  0  0  0  0  0  0  0  0  0  0  0
   45.2383   12.7556    4.8994 H   0  0  0  0  0  0  0  0  0  0  0  0
   45.4658   14.4547    4.4926 H   0  0  0  0  0  0  0  0  0  0  0  0
   43.6307   16.1507    5.0401 H   0  0  0  0  0  0  0  0  0  0  0  0
   42.1517   15.6163    5.8346 H   0  0  0  0  0  0  0  0  0  0  0  0
   48.4667    4.1601   14.9635 H   0  0  0  0  0  0  0  0  0  0  0  0
   38.8099   12.2896    8.3521 H   0  0  0  0  0  0  0  0  0  0  0  0
   38.8554   14.0173    7.9863 H   0  0  0  0  0  0  0  0  0  0  0  0
   39.0741   13.5073    9.6634 H   0  0  0  0  0  0  0  0  0  0  0  0
  1  2  1  6
  3  2  2  0
  4  6  1  0
  5  3  1  0
  6 11  2  0
  7  5  1  0
  8  1  1  0
  9  1  1  0
 10  1  1  0
 11 13  1  0
 12  7  1  0
 13 24  2  0
 14 12  2  0
 15  8  1  0
 16  9  1  0
 17 10  1  0
 18  2  1  0
 19  4  2  0
 20 23  2  0
 21 25  1  0
 22  7  2  0
 23 14  1  0
 24 22  1  0
 25 18  2  0
 26 16  1  0
 27 17  1  0
 28 17  1  0
 29  4  1  0
 30 18  1  0
 31 30  1  0
 28 16  1  0
 27 15  1  0
 26 15  1  0
 21  5  2  0
 13 14  1  0
  6 20  1  0
  3 32  1  0
  8 33  1  0
  8 34  1  0
  9 35  1  0
  9 36  1  0
 10 37  1  0
 10 38  1  0
 11 39  1  0
 12 40  1  0
 15 41  1  1
 16 42  1  1
 17 43  1  6
 20 44  1  0
 21 45  1  0
 22 46  1  0
 23 47  1  0
 24 48  1  0
 25 49  1  0
 26 50  1  0
 26 51  1  0
 27 52  1  0
 27 53  1  0
 28 54  1  0
 28 55  1  0
 29 56  1  0
 31 57  1  0
 31 58  1  0
 31 59  1  0
M  END
> <Uni-Dock RESULT> 
ENERGY=   -4.740  LOWER_BOUND=    5.885  UPPER_BOUND=    9.934
INTER + INTRA:          -4.740
INTER:                  -4.740
INTRA:                   0.000
UNBOUND:                 0.000

$$$$

     RDKit          3D

 59 64  0  0  0  0  0  0  0  0999 V2000
   45.2168    6.0349   12.2035 C   0  0  2  0  0  0  0  0  0  0  0  0
   45.9254    7.3750   12.5355 C   0  0  0  0  0  0  0  0  0  0  0  0
   47.0781    7.3946   13.3572 C   0  0  0  0  0  0  0  0  0  0  0  0
   53.6260    9.2125   19.0984 C   0  0  0  0  0  0  0  0  0  0  0  0
   47.7623    8.5774   13.6936 C   0  0  0  0  0  0  0  0  0  0  0  0
   52.4432    9.2130   18.2044 C   0  0  0  0  0  0  0  0  0  0  0  0
   48.9586    8.5441   14.5500 C   0  0  0  0  0  0  0  0  0  0  0  0
   45.9034    4.7851   12.8572 C   0  0  0  0  0  0  0  0  0  0  0  0
   45.2197    5.7724   10.6662 C   0  0  0  0  0  0  0  0  0  0  0  0
   43.7469    6.0400   12.7243 C   0  0  0  0  0  0  0  0  0  0  0  0
   52.4024    8.4586   17.0251 C   0  0  0  0  0  0  0  0  0  0  0  0
   49.0199    9.2952   15.7363 C   0  0  0  0  0  0  0  0  0  0  0  0
   51.2655    8.4813   16.1997 C   0  0  0  0  0  0  0  0  0  0  0  0
   50.1552    9.2748   16.5656 C   0  0  0  0  0  0  0  0  0  0  0  0
   45.1777    3.4743   12.5080 C   0  0  2  0  0  0  0  0  0  0  0  0
   44.4752    4.4712   10.3169 C   0  0  1  0  0  0  0  0  0  0  0  0
   43.0159    4.7364   12.3563 C   0  0  2  0  0  0  0  0  0  0  0  0
   45.4642    8.6222   12.0447 C   0  0  0  0  0  0  0  0  0  0  0  0
   53.7363    9.8410   20.1349 O   0  0  0  0  0  0  0  0  0  0  0  0
   51.3426    9.9959   18.5641 C   0  0  0  0  0  0  0  0  0  0  0  0
   47.2725    9.7823   13.1901 C   0  0  0  0  0  0  0  0  0  0  0  0
   50.0700    7.7626   14.2057 C   0  0  0  0  0  0  0  0  0  0  0  0
   50.2077   10.0258   17.7504 C   0  0  0  0  0  0  0  0  0  0  0  0
   51.2080    7.7310   15.0171 C   0  0  0  0  0  0  0  0  0  0  0  0
   46.1396    9.8053   12.3763 C   0  0  0  0  0  0  0  0  0  0  0  0
   45.1809    3.2852   10.9859 C   0  0  0  0  0  0  0  0  0  0  0  0
   43.7310    3.5485   13.0121 C   0  0  0  0  0  0  0  0  0  0  0  0
   43.0283    4.5602   10.8291 C   0  0  0  0  0  0  0  0  0  0  0  0
   54.6194    8.4232   18.6530 O   0  0  0  0  0  0  0  0  0  0  0  0
   44.3493    8.6051   11.2481 O   0  0  0  0  0  0  0  0  0  0  0  0
   43.8597    9.8372   10.7375 C   0  0  0  0  0  0  0  0  0  0  0  0
   47.4733    6.4718   13.7743 H   0  0  0  0  0  0  0  0  0  0  0  0
   45.9228    4.8890   13.9503 H   0  0  0  0  0  0  0  0  0  0  0  0
   46.9460    4.7037   12.5215 H   0  0  0  0  0  0  0  0  0  0  0  0
   44.7463    6.5875   10.1104 H   0  0  0  0  0  0  0  0  0  0  0  0
   46.2535    5.7184   10.2988 H   0  0  0  0  0  0  0  0  0  0  0  0
   43.7378    6.1754   13.8144 H   0  0  0  0  0  0  0  0  0  0  0  0
   43.1696    6.8739   12.3139 H   0  0  0  0  0  0  0  0  0  0  0  0
   53.2583    7.8484   16.7447 H   0  0  0  0  0  0  0  0  0  0  0  0
   48.1595    9.8982   16.0239 H   0  0  0  0  0  0  0  0  0  0  0  0
   45.6905    2.6311   12.9844 H   0  0  0  0  0  0  0  0  0  0  0  0
   44.4731    4.3309    9.2299 H   0  0  0  0  0  0  0  0  0  0  0  0
   41.9808    4.7836   12.7133 H   0  0  0  0  0  0  0  0  0  0  0  0
   51.3628   10.5857   19.4786 H   0  0  0  0  0  0  0  0  0  0  0  0
   47.7782   10.7184   13.4174 H   0  0  0  0  0  0  0  0  0  0  0  0
   50.0617    7.1760   13.2887 H   0  0  0  0  0  0  0  0  0  0  0  0
   49.3623   10.6417   18.0505 H   0  0  0  0  0  0  0  0  0  0  0  0
   52.0510    7.1140   14.7130 H   0  0  0  0  0  0  0  0  0  0  0  0
   45.8109   10.7731   12.0128 H   0  0  0  0  0  0  0  0  0  0  0  0
   44.6748    2.3486   10.7220 H   0  0  0  0  0  0  0  0  0  0  0  0
   46.2113    3.2045   10.6186 H   0  0  0  0  0  0  0  0  0  0  0  0
   43.7177    3.6572   14.1035 H   0  0  0  0  0  0  0  0  0  0  0  0
   43.2030    2.6158   12.7789 H   0  0  0  0  0  0  0  0  0  0  0  0
   42.4793    3.6510   10.5543 H   0  0  0  0  0  0  0  0  0  0  0  0
   42.5114    5.4007   10.3499 H   0  0  0  0  0  0  0  0  0  0  0  0
   55.3187    8.5218   19.3327 H   0  0  0  0  0  0  0  0  0  0  0  0
   43.5498   10.5055   11.5474 H   0  0  0  0  0  0  0  0  0  0  0  0
   42.9749    9.6185   10.1320 H   0  0  0  0  0  0  0  0  0  0  0  0
   44.5973   10.3157   10.0851 H   0  0  0  0  0  0  0  0  0  0  0  0
  1  2  1  6
  3  2  2  0
  4  6  1  0
  5  3  1  0
  6 11  2  0
  7  5  1  0
  8  1  1  0
  9  1  1  0
 10  1  1  0
 11 13  1  0
 12  7  1  0
 13 24  2  0
 14 12  2  0
 15  8  1  0
 16  9  1  0
 17 10  1  0
 18  2  1  0
 19  4  2  0
 20 23  2  0
 21 25  1  0
 22  7  2  0
 23 14  1  0
 24 22  1  0
 25 18  2  0
 26 16  1  0
 27 17  1  0
 28 17  1  0
 29  4  1  0
 30 18  1  0
 31 30  1  0
 28 16  1  0
 27 15  1  0
 26 15  1  0
 21  5  2  0
 13 14  1  0
  6 20  1  0
  3 32  1  0
  8 33  1  0
  8 34  1  0
  9 35  1  0
  9 36  1  0
 10 37  1  0
 10 38  1  0
 11 39  1  0
 12 40  1  0
 15 41  1  1
 16 42  1  1
 17 43  1  6
 20 44  1  0
 21 45  1  0
 22 46  1  0
 23 47  1  0
 24 48  1  0
 25 49  1  0
 26 50  1  0
 26 51  1  0
 27 52  1  0
 27 53  1  0
 28 54  1  0
 28 55  1  0
 29 56  1  0
 31 57  1  0
 31 58  1  0
 31 59  1  0
M  END
> <Uni-Dock RESULT> 
ENERGY=   -4.718  LOWER_BOUND=    4.229  UPPER_BOUND=    5.833
INTER + INTRA:          -4.718
INTER:                  -4.718
INTRA:                   0.000
UNBOUND:                 0.000

$$$$

     RDKit          3D

 59 64  0  0  0  0  0  0  0  0999 V2000
   44.6201   15.5290   12.4009 C   0  0  2  0  0  0  0  0  0  0  0  0
   45.6138   14.4908   11.8154 C   0  0  0  0  0  0  0  0  0  0  0  0
   45.4285   13.1069   12.0491 C   0  0  0  0  0  0  0  0  0  0  0  0
   46.1842    4.3620   13.4975 C   0  0  0  0  0  0  0  0  0  0  0  0
   46.2958   12.1194   11.5459 C   0  0  0  0  0  0  0  0  0  0  0  0
   46.3773    5.8031   13.2070 C   0  0  0  0  0  0  0  0  0  0  0  0
   46.0577   10.6923   11.8151 C   0  0  0  0  0  0  0  0  0  0  0  0
   43.4576   14.8829   13.2325 C   0  0  0  0  0  0  0  0  0  0  0  0
   43.9333   16.3427   11.2614 C   0  0  0  0  0  0  0  0  0  0  0  0
   45.3487   16.5101   13.3697 C   0  0  0  0  0  0  0  0  0  0  0  0
   45.3843    6.5773   12.5937 C   0  0  0  0  0  0  0  0  0  0  0  0
   47.0418    9.8980   12.4280 C   0  0  0  0  0  0  0  0  0  0  0  0
   45.5993    7.9410   12.3323 C   0  0  0  0  0  0  0  0  0  0  0  0
   46.8306    8.5332   12.6921 C   0  0  0  0  0  0  0  0  0  0  0  0
   42.4909   15.9381   13.7974 C   0  0  2  0  0  0  0  0  0  0  0  0
   42.9822   17.4117   11.8288 C   0  0  1  0  0  0  0  0  0  0  0  0
   44.3848   17.5776   13.9180 C   0  0  2  0  0  0  0  0  0  0  0  0
   46.7352   14.8666   11.0340 C   0  0  0  0  0  0  0  0  0  0  0  0
   46.9979    3.6258   14.0242 O   0  0  0  0  0  0  0  0  0  0  0  0
   47.5937    6.3923   13.5628 C   0  0  0  0  0  0  0  0  0  0  0  0
   47.3875   12.5343   10.7835 C   0  0  0  0  0  0  0  0  0  0  0  0
   44.8428   10.0861   11.4672 C   0  0  0  0  0  0  0  0  0  0  0  0
   47.8177    7.7471   13.3071 C   0  0  0  0  0  0  0  0  0  0  0  0
   44.6154    8.7301   11.7207 C   0  0  0  0  0  0  0  0  0  0  0  0
   47.6046   13.8889   10.5300 C   0  0  0  0  0  0  0  0  0  0  0  0
   41.8725   16.7287   12.6378 C   0  0  0  0  0  0  0  0  0  0  0  0
   43.2659   16.8935   14.7134 C   0  0  0  0  0  0  0  0  0  0  0  0
   43.7725   18.3603   12.7450 C   0  0  0  0  0  0  0  0  0  0  0  0
   44.9782    3.9070   13.1143 O   0  0  0  0  0  0  0  0  0  0  0  0
   46.9155   16.2057   10.8056 O   0  0  0  0  0  0  0  0  0  0  0  0
   48.0288   16.6184   10.0254 C   0  0  0  0  0  0  0  0  0  0  0  0
   44.5940   12.7566   12.6511 H   0  0  0  0  0  0  0  0  0  0  0  0
   43.8655   14.3033   14.0715 H   0  0  0  0  0  0  0  0  0  0  0  0
   42.8830   14.1863   12.6073 H   0  0  0  0  0  0  0  0  0  0  0  0
   44.6629   16.8498   10.6228 H   0  0  0  0  0  0  0  0  0  0  0  0
   43.3764   15.6636   10.6014 H   0  0  0  0  0  0  0  0  0  0  0  0
   45.7942   15.9496   14.2027 H   0  0  0  0  0  0  0  0  0  0  0  0
   46.1782   17.0291   12.8800 H   0  0  0  0  0  0  0  0  0  0  0  0
   44.4369    6.1197   12.3170 H   0  0  0  0  0  0  0  0  0  0  0  0
   47.9868   10.3574   12.7154 H   0  0  0  0  0  0  0  0  0  0  0  0
   41.6979   15.4427   14.3690 H   0  0  0  0  0  0  0  0  0  0  0  0
   42.5377   17.9811   11.0046 H   0  0  0  0  0  0  0  0  0  0  0  0
   44.9330   18.2643   14.5729 H   0  0  0  0  0  0  0  0  0  0  0  0
   48.3723    5.8006   14.0406 H   0  0  0  0  0  0  0  0  0  0  0  0
   48.0761   11.8024   10.3668 H   0  0  0  0  0  0  0  0  0  0  0  0
   44.0616   10.6683   10.9816 H   0  0  0  0  0  0  0  0  0  0  0  0
   48.7719    8.1849   13.5935 H   0  0  0  0  0  0  0  0  0  0  0  0
   43.6601    8.2966   11.4324 H   0  0  0  0  0  0  0  0  0  0  0  0
   48.4686   14.1473    9.9271 H   0  0  0  0  0  0  0  0  0  0  0  0
   41.1727   17.4793   13.0249 H   0  0  0  0  0  0  0  0  0  0  0  0
   41.2938   16.0579   11.9909 H   0  0  0  0  0  0  0  0  0  0  0  0
   43.6901   16.3414   15.5610 H   0  0  0  0  0  0  0  0  0  0  0  0
   42.5871   17.6466   15.1321 H   0  0  0  0  0  0  0  0  0  0  0  0
   43.1101   19.1469   13.1272 H   0  0  0  0  0  0  0  0  0  0  0  0
   44.5640   18.8611   12.1739 H   0  0  0  0  0  0  0  0  0  0  0  0
   44.9953    2.9597   13.3656 H   0  0  0  0  0  0  0  0  0  0  0  0
   48.9727   16.3409   10.5057 H   0  0  0  0  0  0  0  0  0  0  0  0
   48.0008   17.7101    9.9567 H   0  0  0  0  0  0  0  0  0  0  0  0
   47.9669   16.2209    9.0071 H   0  0  0  0  0  0  0  0  0  0  0  0
  1  2  1  6
  3  2  2  0
  4  6  1  0
  5  3  1  0
  6 11  2  0
  7  5  1  0
  8  1  1  0
  9  1  1  0
 10  1  1  0
 11 13  1  0
 12  7  1  0
 13 24  2  0
 14 12  2  0
 15  8  1  0
 16  9  1  0
 17 10  1  0
 18  2  1  0
 19  4  2  0
 20 23  2  0
 21 25  1  0
 22  7  2  0
 23 14  1  0
 24 22  1  0
 25 18  2  0
 26 16  1  0
 27 17  1  0
 28 17  1  0
 29  4  1  0
 30 18  1  0
 31 30  1  0
 28 16  1  0
 27 15  1  0
 26 15  1  0
 21  5  2  0
 13 14  1  0
  6 20  1  0
  3 32  1  0
  8 33  1  0
  8 34  1  0
  9 35  1  0
  9 36  1  0
 10 37  1  0
 10 38  1  0
 11 39  1  0
 12 40  1  0
 15 41  1  1
 16 42  1  1
 17 43  1  6
 20 44  1  0
 21 45  1  0
 22 46  1  0
 23 47  1  0
 24 48  1  0
 25 49  1  0
 26 50  1  0
 26 51  1  0
 27 52  1  0
 27 53  1  0
 28 54  1  0
 28 55  1  0
 29 56  1  0
 31 57  1  0
 31 58  1  0
 31 59  1  0
M  END
> <Uni-Dock RESULT> 
ENERGY=   -4.713  LOWER_BOUND=    5.411  UPPER_BOUND=   10.042
INTER + INTRA:          -4.713
INTER:                  -4.713
INTRA:                   0.000
UNBOUND:                 0.000

$$$$

     RDKit          3D

 59 64  0  0  0  0  0  0  0  0999 V2000
   48.4197    6.2925   19.3211 C   0  0  2  0  0  0  0  0  0  0  0  0
   48.1777    7.3581   20.4229 C   0  0  0  0  0  0  0  0  0  0  0  0
   48.4368    8.7265   20.1691 C   0  0  0  0  0  0  0  0  0  0  0  0
   50.5511   17.3638   20.4319 C   0  0  0  0  0  0  0  0  0  0  0  0
   48.2380    9.7373   21.1278 C   0  0  0  0  0  0  0  0  0  0  0  0
   50.2360   15.9417   20.7086 C   0  0  0  0  0  0  0  0  0  0  0  0
   48.5201   11.1470   20.8133 C   0  0  0  0  0  0  0  0  0  0  0  0
   48.9551    6.8943   17.9751 C   0  0  0  0  0  0  0  0  0  0  0  0
   47.0938    5.5530   18.9645 C   0  0  0  0  0  0  0  0  0  0  0  0
   49.4852    5.2506   19.7805 C   0  0  0  0  0  0  0  0  0  0  0  0
   49.3391   15.2117   19.9185 C   0  0  0  0  0  0  0  0  0  0  0  0
   49.4154   11.8971   21.5948 C   0  0  0  0  0  0  0  0  0  0  0  0
   49.0623   13.8649   20.2080 C   0  0  0  0  0  0  0  0  0  0  0  0
   49.6959   13.2448   21.3082 C   0  0  0  0  0  0  0  0  0  0  0  0
   49.1833    5.8128   16.9049 C   0  0  2  0  0  0  0  0  0  0  0  0
   47.3277    4.4574   17.9089 C   0  0  1  0  0  0  0  0  0  0  0  0
   49.6974    4.1578   18.7175 C   0  0  2  0  0  0  0  0  0  0  0  0
   47.6962    7.0233   21.7134 C   0  0  0  0  0  0  0  0  0  0  0  0
   51.3154   18.0621   21.0720 O   0  0  0  0  0  0  0  0  0  0  0  0
   50.8620   15.3249   21.7954 C   0  0  0  0  0  0  0  0  0  0  0  0
   47.7646    9.3625   22.3850 C   0  0  0  0  0  0  0  0  0  0  0  0
   47.9031   11.7803   19.7258 C   0  0  0  0  0  0  0  0  0  0  0  0
   50.5936   13.9866   22.0921 C   0  0  0  0  0  0  0  0  0  0  0  0
   48.1686   13.1199   19.4264 C   0  0  0  0  0  0  0  0  0  0  0  0
   47.4965    8.0244   22.6745 C   0  0  0  0  0  0  0  0  0  0  0  0
   47.8572    5.0971   16.6194 C   0  0  0  0  0  0  0  0  0  0  0  0
   50.2115    4.7995   17.4227 C   0  0  0  0  0  0  0  0  0  0  0  0
   48.3605    3.4507   18.4414 C   0  0  0  0  0  0  0  0  0  0  0  0
   49.8935   17.8482   19.3636 O   0  0  0  0  0  0  0  0  0  0  0  0
   47.4436    5.6994   21.9606 O   0  0  0  0  0  0  0  0  0  0  0  0
   46.9588    5.3278   23.2432 C   0  0  0  0  0  0  0  0  0  0  0  0
   48.8192    9.0450   19.2026 H   0  0  0  0  0  0  0  0  0  0  0  0
   49.9045    7.4199   18.1434 H   0  0  0  0  0  0  0  0  0  0  0  0
   48.2439    7.6306   17.5771 H   0  0  0  0  0  0  0  0  0  0  0  0
   46.6394    5.0808   19.8408 H   0  0  0  0  0  0  0  0  0  0  0  0
   46.3527    6.2738   18.5930 H   0  0  0  0  0  0  0  0  0  0  0  0
   50.4377    5.7573   19.9870 H   0  0  0  0  0  0  0  0  0  0  0  0
   49.1997    4.7571   20.7145 H   0  0  0  0  0  0  0  0  0  0  0  0
   48.8518   15.6907   19.0720 H   0  0  0  0  0  0  0  0  0  0  0  0
   49.9122   11.4157   22.4363 H   0  0  0  0  0  0  0  0  0  0  0  0
   49.5558    6.2776   15.9850 H   0  0  0  0  0  0  0  0  0  0  0  0
   46.3835    3.9412   17.7011 H   0  0  0  0  0  0  0  0  0  0  0  0
   50.4309    3.4297   19.0822 H   0  0  0  0  0  0  0  0  0  0  0  0
   51.5613   15.8822   22.4159 H   0  0  0  0  0  0  0  0  0  0  0  0
   47.5871   10.1141   23.1514 H   0  0  0  0  0  0  0  0  0  0  0  0
   47.1961   11.2330   19.1047 H   0  0  0  0  0  0  0  0  0  0  0  0
   51.0931   13.5267   22.9425 H   0  0  0  0  0  0  0  0  0  0  0  0
   47.6666   13.5757   18.5755 H   0  0  0  0  0  0  0  0  0  0  0  0
   47.1265    7.7976   23.6687 H   0  0  0  0  0  0  0  0  0  0  0  0
   48.0022    4.3287   15.8502 H   0  0  0  0  0  0  0  0  0  0  0  0
   47.1226    5.8090   16.2234 H   0  0  0  0  0  0  0  0  0  0  0  0
   51.1719    5.2971   17.6048 H   0  0  0  0  0  0  0  0  0  0  0  0
   50.3923    4.0266   16.6656 H   0  0  0  0  0  0  0  0  0  0  0  0
   48.5084    2.6465   17.7099 H   0  0  0  0  0  0  0  0  0  0  0  0
   47.9877    2.9805   19.3597 H   0  0  0  0  0  0  0  0  0  0  0  0
   50.1964   18.7786   19.3049 H   0  0  0  0  0  0  0  0  0  0  0  0
   47.6851    5.5702   24.0258 H   0  0  0  0  0  0  0  0  0  0  0  0
   46.8202    4.2423   23.2451 H   0  0  0  0  0  0  0  0  0  0  0  0
   45.9854    5.7861   23.4460 H   0  0  0  0  0  0  0  0  0  0  0  0
  1  2  1  6
  3  2  2  0
  4  6  1  0
  5  3  1  0
  6 11  2  0
  7  5  1  0
  8  1  1  0
  9  1  1  0
 10  1  1  0
 11 13  1  0
 12  7  1  0
 13 24  2  0
 14 12  2  0
 15  8  1  0
 16  9  1  0
 17 10  1  0
 18  2  1  0
 19  4  2  0
 20 23  2  0
 21 25  1  0
 22  7  2  0
 23 14  1  0
 24 22  1  0
 25 18  2  0
 26 16  1  0
 27 17  1  0
 28 17  1  0
 29  4  1  0
 30 18  1  0
 31 30  1  0
 28 16  1  0
 27 15  1  0
 26 15  1  0
 21  5  2  0
 13 14  1  0
  6 20  1  0
  3 32  1  0
  8 33  1  0
  8 34  1  0
  9 35  1  0
  9 36  1  0
 10 37  1  0
 10 38  1  0
 11 39  1  0
 12 40  1  0
 15 41  1  1
 16 42  1  1
 17 43  1  6
 20 44  1  0
 21 45  1  0
 22 46  1  0
 23 47  1  0
 24 48  1  0
 25 49  1  0
 26 50  1  0
 26 51  1  0
 27 52  1  0
 27 53  1  0
 28 54  1  0
 28 55  1  0
 29 56  1  0
 31 57  1  0
 31 58  1  0
 31 59  1  0
M  END
> <Uni-Dock RESULT> 
ENERGY=   -4.506  LOWER_BOUND=    7.608  UPPER_BOUND=    9.413
INTER + INTRA:          -4.506
INTER:                  -4.506
INTRA:                   0.000
UNBOUND:                 0.000

$$$$
