
     RDKit          3D

 59 64  0  0  0  0  0  0  0  0999 V2000
   45.5036    5.7304   12.4260 C   0  0  2  0  0  0  0  0  0  0  0  0
   46.3873    6.8296   13.0731 C   0  0  0  0  0  0  0  0  0  0  0  0
   47.4818    6.4783   13.8995 C   0  0  0  0  0  0  0  0  0  0  0  0
   53.6012    4.5714   19.7739 C   0  0  0  0  0  0  0  0  0  0  0  0
   48.3186    7.4292   14.5127 C   0  0  0  0  0  0  0  0  0  0  0  0
   52.4394    4.9669   18.9421 C   0  0  0  0  0  0  0  0  0  0  0  0
   49.4419    7.0120   15.3671 C   0  0  0  0  0  0  0  0  0  0  0  0
   45.5515    5.8236   10.8701 C   0  0  0  0  0  0  0  0  0  0  0  0
   44.0249    5.8544   12.9061 C   0  0  0  0  0  0  0  0  0  0  0  0
   45.9547    4.2719   12.7864 C   0  0  0  0  0  0  0  0  0  0  0  0
   52.6675    5.7978   17.8377 C   0  0  0  0  0  0  0  0  0  0  0  0
   49.2327    6.1778   16.4789 C   0  0  0  0  0  0  0  0  0  0  0  0
   51.6052    6.2050   17.0142 C   0  0  0  0  0  0  0  0  0  0  0  0
   50.2937    5.7688   17.3058 C   0  0  0  0  0  0  0  0  0  0  0  0
   44.6382    4.7714   10.2157 C   0  0  2  0  0  0  0  0  0  0  0  0
   43.1255    4.8020   12.2333 C   0  0  1  0  0  0  0  0  0  0  0  0
   45.0582    3.2074   12.1307 C   0  0  2  0  0  0  0  0  0  0  0  0
   46.1506    8.2128   12.8729 C   0  0  0  0  0  0  0  0  0  0  0  0
   54.7570    4.9053   19.5896 O   0  0  0  0  0  0  0  0  0  0  0  0
   51.1408    4.5375   19.2293 C   0  0  0  0  0  0  0  0  0  0  0  0
   48.0501    8.7790   14.2870 C   0  0  0  0  0  0  0  0  0  0  0  0
   50.7506    7.4344   15.0961 C   0  0  0  0  0  0  0  0  0  0  0  0
   50.0769    4.9368   18.4159 C   0  0  0  0  0  0  0  0  0  0  0  0
   51.8183    7.0369   15.9065 C   0  0  0  0  0  0  0  0  0  0  0  0
   46.9807    9.1665   13.4792 C   0  0  0  0  0  0  0  0  0  0  0  0
   43.1955    4.9743   10.7070 C   0  0  0  0  0  0  0  0  0  0  0  0
   45.1169    3.3675   10.6064 C   0  0  0  0  0  0  0  0  0  0  0  0
   43.6141    3.3980   12.6108 C   0  0  0  0  0  0  0  0  0  0  0  0
   53.2614    3.7734   20.8015 O   0  0  0  0  0  0  0  0  0  0  0  0
   45.0908    8.5548   12.0746 O   0  0  0  0  0  0  0  0  0  0  0  0
   44.8288    9.9325   11.8461 C   0  0  0  0  0  0  0  0  0  0  0  0
   47.7225    5.4337   14.0803 H   0  0  0  0  0  0  0  0  0  0  0  0
   46.5838    5.6882   10.5197 H   0  0  0  0  0  0  0  0  0  0  0  0
   45.2390    6.8081   10.5088 H   0  0  0  0  0  0  0  0  0  0  0  0
   43.6048    6.8410   12.6884 H   0  0  0  0  0  0  0  0  0  0  0  0
   43.9762    5.7407   13.9976 H   0  0  0  0  0  0  0  0  0  0  0  0
   45.9300    4.1230   13.8743 H   0  0  0  0  0  0  0  0  0  0  0  0
   46.9893    4.1013   12.4600 H   0  0  0  0  0  0  0  0  0  0  0  0
   53.6819    6.1288   17.6200 H   0  0  0  0  0  0  0  0  0  0  0  0
   48.2195    5.8503   16.7091 H   0  0  0  0  0  0  0  0  0  0  0  0
   44.6751    4.8812    9.1260 H   0  0  0  0  0  0  0  0  0  0  0  0
   42.0915    4.9336   12.5717 H   0  0  0  0  0  0  0  0  0  0  0  0
   45.4095    2.2074   12.4093 H   0  0  0  0  0  0  0  0  0  0  0  0
   50.9435    3.8928   20.0822 H   0  0  0  0  0  0  0  0  0  0  0  0
   48.6665    9.5464   14.7505 H   0  0  0  0  0  0  0  0  0  0  0  0
   50.9520    8.0715   14.2370 H   0  0  0  0  0  0  0  0  0  0  0  0
   49.0734    4.5916   18.6569 H   0  0  0  0  0  0  0  0  0  0  0  0
   52.8202    7.3828   15.6605 H   0  0  0  0  0  0  0  0  0  0  0  0
   46.8212   10.2312   13.3461 H   0  0  0  0  0  0  0  0  0  0  0  0
   42.5306    4.2506   10.2195 H   0  0  0  0  0  0  0  0  0  0  0  0
   42.8398    5.9729   10.4252 H   0  0  0  0  0  0  0  0  0  0  0  0
   44.4895    2.6081   10.1238 H   0  0  0  0  0  0  0  0  0  0  0  0
   46.1417    3.2067   10.2500 H   0  0  0  0  0  0  0  0  0  0  0  0
   42.9640    2.6391   12.1586 H   0  0  0  0  0  0  0  0  0  0  0  0
   43.5570    3.2593   13.6974 H   0  0  0  0  0  0  0  0  0  0  0  0
   54.1136    3.5973   21.2526 H   0  0  0  0  0  0  0  0  0  0  0  0
   43.9569   10.0007   11.1883 H   0  0  0  0  0  0  0  0  0  0  0  0
   45.6680   10.4151   11.3347 H   0  0  0  0  0  0  0  0  0  0  0  0
   44.5804   10.4476   12.7797 H   0  0  0  0  0  0  0  0  0  0  0  0
  1  2  1  6
  3  2  2  0
  4  6  1  0
  5  3  1  0
  6 11  2  0
  7  5  1  0
  8  1  1  0
  9  1  1  0
 10  1  1  0
 11 13  1  0
 12  7  1  0
 13 24  2  0
 14 12  2  0
 15  8  1  0
 16  9  1  0
 17 10  1  0
 18  2  1  0
 19  4  2  0
 20 23  2  0
 21 25  1  0
 22  7  2  0
 23 14  1  0
 24 22  1  0
 25 18  2  0
 26 16  1  0
 27 17  1  0
 28 17  1  0
 29  4  1  0
 30 18  1  0
 31 30  1  0
 28 16  1  0
 27 15  1  0
 26 15  1  0
 21  5  2  0
 13 14  1  0
  6 20  1  0
  3 32  1  0
  8 33  1  0
  8 34  1  0
  9 35  1  0
  9 36  1  0
 10 37  1  0
 10 38  1  0
 11 39  1  0
 12 40  1  0
 15 41  1  6
 16 42  1  1
 17 43  1  1
 20 44  1  0
 21 45  1  0
 22 46  1  0
 23 47  1  0
 24 48  1  0
 25 49  1  0
 26 50  1  0
 26 51  1  0
 27 52  1  0
 27 53  1  0
 28 54  1  0
 28 55  1  0
 29 56  1  0
 31 57  1  0
 31 58  1  0
 31 59  1  0
M  END
> <Uni-Dock RESULT> 
ENERGY=   -6.246  LOWER_BOUND=    0.000  UPPER_BOUND=    0.000
INTER + INTRA:          -6.246
INTER:                  -6.246
INTRA:                   0.000
UNBOUND:                 0.000

$$$$

     RDKit          3D

 59 64  0  0  0  0  0  0  0  0999 V2000
   52.1667    6.4556   17.5918 C   0  0  2  0  0  0  0  0  0  0  0  0
   51.7890    7.1331   16.2479 C   0  0  0  0  0  0  0  0  0  0  0  0
   50.4840    6.9974   15.7159 C   0  0  0  0  0  0  0  0  0  0  0  0
   42.8743    5.4767   11.7953 C   0  0  0  0  0  0  0  0  0  0  0  0
   50.0827    7.5883   14.5034 C   0  0  0  0  0  0  0  0  0  0  0  0
   44.2581    5.6045   12.3119 C   0  0  0  0  0  0  0  0  0  0  0  0
   48.7141    7.4133   13.9910 C   0  0  0  0  0  0  0  0  0  0  0  0
   52.5956    7.5191   18.6488 C   0  0  0  0  0  0  0  0  0  0  0  0
   53.3251    5.4312   17.3897 C   0  0  0  0  0  0  0  0  0  0  0  0
   50.9864    5.6517   18.2409 C   0  0  0  0  0  0  0  0  0  0  0  0
   44.7720    6.8912   12.5182 C   0  0  0  0  0  0  0  0  0  0  0  0
   48.1810    6.1302   13.7786 C   0  0  0  0  0  0  0  0  0  0  0  0
   46.0765    7.0735   13.0054 C   0  0  0  0  0  0  0  0  0  0  0  0
   46.8757    5.9441   13.2903 C   0  0  0  0  0  0  0  0  0  0  0  0
   53.0225    6.8567   19.9710 C   0  0  2  0  0  0  0  0  0  0  0  0
   53.7455    4.7879   18.7233 C   0  0  1  0  0  0  0  0  0  0  0  0
   51.3939    4.9923   19.5699 C   0  0  2  0  0  0  0  0  0  0  0  0
   52.7108    7.9079   15.5001 C   0  0  0  0  0  0  0  0  0  0  0  0
   42.1258    6.3977   11.5256 O   0  0  0  0  0  0  0  0  0  0  0  0
   45.0511    4.4886   12.5934 C   0  0  0  0  0  0  0  0  0  0  0  0
   51.0218    8.3435   13.8014 C   0  0  0  0  0  0  0  0  0  0  0  0
   47.9050    8.5205   13.7010 C   0  0  0  0  0  0  0  0  0  0  0  0
   46.3503    4.6593   13.0789 C   0  0  0  0  0  0  0  0  0  0  0  0
   46.6043    8.3547   13.2158 C   0  0  0  0  0  0  0  0  0  0  0  0
   52.3183    8.5011   14.2918 C   0  0  0  0  0  0  0  0  0  0  0  0
   54.1863    5.8886   19.7022 C   0  0  0  0  0  0  0  0  0  0  0  0
   51.8376    6.0789   20.5572 C   0  0  0  0  0  0  0  0  0  0  0  0
   52.5559    4.0236   19.3176 C   0  0  0  0  0  0  0  0  0  0  0  0
   42.4901    4.1974   11.6398 O   0  0  0  0  0  0  0  0  0  0  0  0
   53.9749    8.0391   16.0125 O   0  0  0  0  0  0  0  0  0  0  0  0
   54.9228    8.8152   15.2929 C   0  0  0  0  0  0  0  0  0  0  0  0
   49.7283    6.4266   16.2495 H   0  0  0  0  0  0  0  0  0  0  0  0
   51.7673    8.2165   18.8337 H   0  0  0  0  0  0  0  0  0  0  0  0
   53.4310    8.1322   18.2973 H   0  0  0  0  0  0  0  0  0  0  0  0
   54.2119    5.8971   16.9495 H   0  0  0  0  0  0  0  0  0  0  0  0
   53.0134    4.6501   16.6830 H   0  0  0  0  0  0  0  0  0  0  0  0
   50.6386    4.8659   17.5569 H   0  0  0  0  0  0  0  0  0  0  0  0
   50.1326    6.3155   18.4319 H   0  0  0  0  0  0  0  0  0  0  0  0
   44.1486    7.7562   12.2964 H   0  0  0  0  0  0  0  0  0  0  0  0
   48.8016    5.2599   13.9888 H   0  0  0  0  0  0  0  0  0  0  0  0
   53.3418    7.6283   20.6808 H   0  0  0  0  0  0  0  0  0  0  0  0
   54.5766    4.0949   18.5498 H   0  0  0  0  0  0  0  0  0  0  0  0
   50.5412    4.4436   19.9856 H   0  0  0  0  0  0  0  0  0  0  0  0
   44.6703    3.4820   12.4393 H   0  0  0  0  0  0  0  0  0  0  0  0
   50.7554    8.8088   12.8547 H   0  0  0  0  0  0  0  0  0  0  0  0
   48.2804    9.5290   13.8640 H   0  0  0  0  0  0  0  0  0  0  0  0
   46.9514    3.7774   13.2915 H   0  0  0  0  0  0  0  0  0  0  0  0
   46.0063    9.2394   13.0065 H   0  0  0  0  0  0  0  0  0  0  0  0
   53.0034    9.0963   13.6974 H   0  0  0  0  0  0  0  0  0  0  0  0
   54.5207    5.4371   20.6444 H   0  0  0  0  0  0  0  0  0  0  0  0
   55.0428    6.4363   19.2903 H   0  0  0  0  0  0  0  0  0  0  0  0
   52.1223    5.6245   21.5141 H   0  0  0  0  0  0  0  0  0  0  0  0
   51.0049    6.7621   20.7648 H   0  0  0  0  0  0  0  0  0  0  0  0
   52.8513    3.5379   20.2556 H   0  0  0  0  0  0  0  0  0  0  0  0
   52.2403    3.2272   18.6326 H   0  0  0  0  0  0  0  0  0  0  0  0
   41.5736    4.2682   11.2996 H   0  0  0  0  0  0  0  0  0  0  0  0
   55.8596    8.8045   15.8584 H   0  0  0  0  0  0  0  0  0  0  0  0
   54.5985    9.8575   15.2091 H   0  0  0  0  0  0  0  0  0  0  0  0
   55.1249    8.3795   14.3091 H   0  0  0  0  0  0  0  0  0  0  0  0
  1  2  1  6
  3  2  2  0
  4  6  1  0
  5  3  1  0
  6 11  2  0
  7  5  1  0
  8  1  1  0
  9  1  1  0
 10  1  1  0
 11 13  1  0
 12  7  1  0
 13 24  2  0
 14 12  2  0
 15  8  1  0
 16  9  1  0
 17 10  1  0
 18  2  1  0
 19  4  2  0
 20 23  2  0
 21 25  1  0
 22  7  2  0
 23 14  1  0
 24 22  1  0
 25 18  2  0
 26 16  1  0
 27 17  1  0
 28 17  1  0
 29  4  1  0
 30 18  1  0
 31 30  1  0
 28 16  1  0
 27 15  1  0
 26 15  1  0
 21  5  2  0
 13 14  1  0
  6 20  1  0
  3 32  1  0
  8 33  1  0
  8 34  1  0
  9 35  1  0
  9 36  1  0
 10 37  1  0
 10 38  1  0
 11 39  1  0
 12 40  1  0
 15 41  1  6
 16 42  1  1
 17 43  1  1
 20 44  1  0
 21 45  1  0
 22 46  1  0
 23 47  1  0
 24 48  1  0
 25 49  1  0
 26 50  1  0
 26 51  1  0
 27 52  1  0
 27 53  1  0
 28 54  1  0
 28 55  1  0
 29 56  1  0
 31 57  1  0
 31 58  1  0
 31 59  1  0
M  END
> <Uni-Dock RESULT> 
ENERGY=   -5.193  LOWER_BOUND=    2.005  UPPER_BOUND=    9.283
INTER + INTRA:          -5.193
INTER:                  -5.193
INTRA:                   0.000
UNBOUND:                 0.000

$$$$

     RDKit          3D

 59 64  0  0  0  0  0  0  0  0999 V2000
   53.6998    7.0694    9.7094 C   0  0  2  0  0  0  0  0  0  0  0  0
   53.1191    7.7151   10.9954 C   0  0  0  0  0  0  0  0  0  0  0  0
   51.8268    8.2934   10.9893 C   0  0  0  0  0  0  0  0  0  0  0  0
   44.3671   12.7585   10.9101 C   0  0  0  0  0  0  0  0  0  0  0  0
   51.2471    8.8923   12.1231 C   0  0  0  0  0  0  0  0  0  0  0  0
   45.7371   12.1923   10.9340 C   0  0  0  0  0  0  0  0  0  0  0  0
   49.9007    9.4838   12.0635 C   0  0  0  0  0  0  0  0  0  0  0  0
   54.0014    5.5561    9.9351 C   0  0  0  0  0  0  0  0  0  0  0  0
   55.0063    7.7964    9.2657 C   0  0  0  0  0  0  0  0  0  0  0  0
   52.7274    7.1385    8.4804 C   0  0  0  0  0  0  0  0  0  0  0  0
   46.0260   11.1964   11.8758 C   0  0  0  0  0  0  0  0  0  0  0  0
   49.5919   10.4834   11.1247 C   0  0  0  0  0  0  0  0  0  0  0  0
   47.3065   10.6238   11.9452 C   0  0  0  0  0  0  0  0  0  0  0  0
   48.3112   11.0592   11.0530 C   0  0  0  0  0  0  0  0  0  0  0  0
   54.6263    4.9149    8.6831 C   0  0  2  0  0  0  0  0  0  0  0  0
   55.6221    7.1348    8.0199 C   0  0  1  0  0  0  0  0  0  0  0  0
   53.3331    6.4913    7.2230 C   0  0  2  0  0  0  0  0  0  0  0  0
   53.8364    7.7569   12.2173 C   0  0  0  0  0  0  0  0  0  0  0  0
   43.4501   12.4385   11.6436 O   0  0  0  0  0  0  0  0  0  0  0  0
   46.7332   12.6223   10.0530 C   0  0  0  0  0  0  0  0  0  0  0  0
   51.9879    8.9096   13.3046 C   0  0  0  0  0  0  0  0  0  0  0  0
   48.8898    9.0669   12.9403 C   0  0  0  0  0  0  0  0  0  0  0  0
   48.0104   12.0587   10.1137 C   0  0  0  0  0  0  0  0  0  0  0  0
   47.6102    9.6273   12.8829 C   0  0  0  0  0  0  0  0  0  0  0  0
   53.2652    8.3505   13.3519 C   0  0  0  0  0  0  0  0  0  0  0  0
   55.9236    5.6583    8.3248 C   0  0  0  0  0  0  0  0  0  0  0  0
   53.6405    5.0168    7.5124 C   0  0  0  0  0  0  0  0  0  0  0  0
   54.6299    7.2223    6.8536 C   0  0  0  0  0  0  0  0  0  0  0  0
   44.2076   13.7024    9.9656 O   0  0  0  0  0  0  0  0  0  0  0  0
   55.0880    7.1991   12.2248 O   0  0  0  0  0  0  0  0  0  0  0  0
   55.8325    7.2165   13.4348 C   0  0  0  0  0  0  0  0  0  0  0  0
   51.2220    8.2808   10.0861 H   0  0  0  0  0  0  0  0  0  0  0  0
   53.0761    5.0268   10.2005 H   0  0  0  0  0  0  0  0  0  0  0  0
   54.6889    5.3957   10.7711 H   0  0  0  0  0  0  0  0  0  0  0  0
   55.7646    7.7939   10.0545 H   0  0  0  0  0  0  0  0  0  0  0  0
   54.7926    8.8535    9.0570 H   0  0  0  0  0  0  0  0  0  0  0  0
   52.4807    8.1831    8.2476 H   0  0  0  0  0  0  0  0  0  0  0  0
   51.7835    6.6270    8.7119 H   0  0  0  0  0  0  0  0  0  0  0  0
   45.2451   10.8664   12.5594 H   0  0  0  0  0  0  0  0  0  0  0  0
   50.3703   10.8259   10.4438 H   0  0  0  0  0  0  0  0  0  0  0  0
   54.8493    3.8608    8.8839 H   0  0  0  0  0  0  0  0  0  0  0  0
   56.5501    7.6523    7.7512 H   0  0  0  0  0  0  0  0  0  0  0  0
   52.6213    6.5625    6.3927 H   0  0  0  0  0  0  0  0  0  0  0  0
   46.5285   13.3944    9.3154 H   0  0  0  0  0  0  0  0  0  0  0  0
   51.5806    9.3719   14.2013 H   0  0  0  0  0  0  0  0  0  0  0  0
   49.0893    8.2870   13.6727 H   0  0  0  0  0  0  0  0  0  0  0  0
   48.7719   12.4076    9.4189 H   0  0  0  0  0  0  0  0  0  0  0  0
   46.8515    9.2739   13.5782 H   0  0  0  0  0  0  0  0  0  0  0  0
   53.7922    8.3995   14.2988 H   0  0  0  0  0  0  0  0  0  0  0  0
   56.3948    5.1866    7.4536 H   0  0  0  0  0  0  0  0  0  0  0  0
   56.6395    5.5844    9.1525 H   0  0  0  0  0  0  0  0  0  0  0  0
   54.0645    4.5387    6.6208 H   0  0  0  0  0  0  0  0  0  0  0  0
   52.7150    4.4790    7.7520 H   0  0  0  0  0  0  0  0  0  0  0  0
   55.0687    6.7777    5.9520 H   0  0  0  0  0  0  0  0  0  0  0  0
   54.4165    8.2723    6.6190 H   0  0  0  0  0  0  0  0  0  0  0  0
   43.2726   13.9787   10.0667 H   0  0  0  0  0  0  0  0  0  0  0  0
   56.7917    6.7260   13.2424 H   0  0  0  0  0  0  0  0  0  0  0  0
   55.3228    6.6500   14.2210 H   0  0  0  0  0  0  0  0  0  0  0  0
   56.0433    8.2421   13.7543 H   0  0  0  0  0  0  0  0  0  0  0  0
  1  2  1  6
  3  2  2  0
  4  6  1  0
  5  3  1  0
  6 11  2  0
  7  5  1  0
  8  1  1  0
  9  1  1  0
 10  1  1  0
 11 13  1  0
 12  7  1  0
 13 24  2  0
 14 12  2  0
 15  8  1  0
 16  9  1  0
 17 10  1  0
 18  2  1  0
 19  4  2  0
 20 23  2  0
 21 25  1  0
 22  7  2  0
 23 14  1  0
 24 22  1  0
 25 18  2  0
 26 16  1  0
 27 17  1  0
 28 17  1  0
 29  4  1  0
 30 18  1  0
 31 30  1  0
 28 16  1  0
 27 15  1  0
 26 15  1  0
 21  5  2  0
 13 14  1  0
  6 20  1  0
  3 32  1  0
  8 33  1  0
  8 34  1  0
  9 35  1  0
  9 36  1  0
 10 37  1  0
 10 38  1  0
 11 39  1  0
 12 40  1  0
 15 41  1  6
 16 42  1  1
 17 43  1  1
 20 44  1  0
 21 45  1  0
 22 46  1  0
 23 47  1  0
 24 48  1  0
 25 49  1  0
 26 50  1  0
 26 51  1  0
 27 52  1  0
 27 53  1  0
 28 54  1  0
 28 55  1  0
 29 56  1  0
 31 57  1  0
 31 58  1  0
 31 59  1  0
M  END
> <Uni-Dock RESULT> 
ENERGY=   -4.904  LOWER_BOUND=    5.468  UPPER_BOUND=   10.153
INTER + INTRA:          -4.904
INTER:                  -4.904
INTRA:                   0.000
UNBOUND:                 0.000

$$$$

     RDKit          3D

 59 64  0  0  0  0  0  0  0  0999 V2000
   45.9719    5.2250   12.6250 C   0  0  2  0  0  0  0  0  0  0  0  0
   47.1898    5.7938   13.4004 C   0  0  0  0  0  0  0  0  0  0  0  0
   48.0841    6.6948   12.7738 C   0  0  0  0  0  0  0  0  0  0  0  0
   54.2214   11.4287    8.8348 C   0  0  0  0  0  0  0  0  0  0  0  0
   49.2043    7.2439   13.4250 C   0  0  0  0  0  0  0  0  0  0  0  0
   53.3209   10.4588    9.5030 C   0  0  0  0  0  0  0  0  0  0  0  0
   50.1068    8.1739   12.7272 C   0  0  0  0  0  0  0  0  0  0  0  0
   44.6344    5.6290   13.3178 C   0  0  0  0  0  0  0  0  0  0  0  0
   46.0543    3.6707   12.5268 C   0  0  0  0  0  0  0  0  0  0  0  0
   45.8701    5.7471   11.1493 C   0  0  0  0  0  0  0  0  0  0  0  0
   52.7070   10.8422   10.7023 C   0  0  0  0  0  0  0  0  0  0  0  0
   50.7309    7.8073   11.5224 C   0  0  0  0  0  0  0  0  0  0  0  0
   51.8446    9.9649   11.3797 C   0  0  0  0  0  0  0  0  0  0  0  0
   51.5954    8.6828   10.8419 C   0  0  0  0  0  0  0  0  0  0  0  0
   43.4197    5.0279   12.5880 C   0  0  2  0  0  0  0  0  0  0  0  0
   44.8268    3.0874   11.8043 C   0  0  1  0  0  0  0  0  0  0  0  0
   44.6539    5.1639   10.4091 C   0  0  2  0  0  0  0  0  0  0  0  0
   47.4630    5.4494   14.7480 C   0  0  0  0  0  0  0  0  0  0  0  0
   54.4869   12.5474    9.2340 O   0  0  0  0  0  0  0  0  0  0  0  0
   53.0737    9.1893    8.9734 C   0  0  0  0  0  0  0  0  0  0  0  0
   49.4340    6.8788   14.7512 C   0  0  0  0  0  0  0  0  0  0  0  0
   50.3684    9.4502   13.2443 C   0  0  0  0  0  0  0  0  0  0  0  0
   52.2169    8.3090    9.6396 C   0  0  0  0  0  0  0  0  0  0  0  0
   51.2242   10.3345   12.5810 C   0  0  0  0  0  0  0  0  0  0  0  0
   48.5763    5.9933   15.4043 C   0  0  0  0  0  0  0  0  0  0  0  0
   43.5510    3.4962   12.5587 C   0  0  0  0  0  0  0  0  0  0  0  0
   43.3724    5.5629   11.1513 C   0  0  0  0  0  0  0  0  0  0  0  0
   44.7703    3.6351   10.3728 C   0  0  0  0  0  0  0  0  0  0  0  0
   54.7497   10.9519    7.6938 O   0  0  0  0  0  0  0  0  0  0  0  0
   46.5994    4.5762   15.3557 O   0  0  0  0  0  0  0  0  0  0  0  0
   46.8387    4.2148   16.7088 C   0  0  0  0  0  0  0  0  0  0  0  0
   47.9206    7.0076   11.7456 H   0  0  0  0  0  0  0  0  0  0  0  0
   44.5452    6.7234   13.3473 H   0  0  0  0  0  0  0  0  0  0  0  0
   44.5961    5.2968   14.3597 H   0  0  0  0  0  0  0  0  0  0  0  0
   46.1161    3.2005   13.5129 H   0  0  0  0  0  0  0  0  0  0  0  0
   46.9707    3.3784   11.9961 H   0  0  0  0  0  0  0  0  0  0  0  0
   46.7764    5.4830   10.5880 H   0  0  0  0  0  0  0  0  0  0  0  0
   45.7896    6.8423   11.1371 H   0  0  0  0  0  0  0  0  0  0  0  0
   52.9045   11.8329   11.1093 H   0  0  0  0  0  0  0  0  0  0  0  0
   50.5463    6.8145   11.1137 H   0  0  0  0  0  0  0  0  0  0  0  0
   42.5004    5.3087   13.1143 H   0  0  0  0  0  0  0  0  0  0  0  0
   44.9035    1.9945   11.7759 H   0  0  0  0  0  0  0  0  0  0  0  0
   44.6232    5.5550    9.3858 H   0  0  0  0  0  0  0  0  0  0  0  0
   53.5411    8.8731    8.0441 H   0  0  0  0  0  0  0  0  0  0  0  0
   50.2946    7.2726   15.2880 H   0  0  0  0  0  0  0  0  0  0  0  0
   49.8937    9.7727   14.1691 H   0  0  0  0  0  0  0  0  0  0  0  0
   52.0379    7.3250    9.2106 H   0  0  0  0  0  0  0  0  0  0  0  0
   51.3986   11.3181   13.0125 H   0  0  0  0  0  0  0  0  0  0  0  0
   48.8114    5.7451   16.4338 H   0  0  0  0  0  0  0  0  0  0  0  0
   42.6724    3.0563   12.0707 H   0  0  0  0  0  0  0  0  0  0  0  0
   43.5772    3.1020   13.5819 H   0  0  0  0  0  0  0  0  0  0  0  0
   42.4948    5.1621   10.6293 H   0  0  0  0  0  0  0  0  0  0  0  0
   43.2663    6.6547   11.1597 H   0  0  0  0  0  0  0  0  0  0  0  0
   43.9140    3.2051    9.8388 H   0  0  0  0  0  0  0  0  0  0  0  0
   45.6707    3.3389    9.8208 H   0  0  0  0  0  0  0  0  0  0  0  0
   55.3109   11.6875    7.3705 H   0  0  0  0  0  0  0  0  0  0  0  0
   46.0481    3.5219   17.0129 H   0  0  0  0  0  0  0  0  0  0  0  0
   46.7847    5.0881   17.3669 H   0  0  0  0  0  0  0  0  0  0  0  0
   47.7953    3.6931   16.8152 H   0  0  0  0  0  0  0  0  0  0  0  0
  1  2  1  6
  3  2  2  0
  4  6  1  0
  5  3  1  0
  6 11  2  0
  7  5  1  0
  8  1  1  0
  9  1  1  0
 10  1  1  0
 11 13  1  0
 12  7  1  0
 13 24  2  0
 14 12  2  0
 15  8  1  0
 16  9  1  0
 17 10  1  0
 18  2  1  0
 19  4  2  0
 20 23  2  0
 21 25  1  0
 22  7  2  0
 23 14  1  0
 24 22  1  0
 25 18  2  0
 26 16  1  0
 27 17  1  0
 28 17  1  0
 29  4  1  0
 30 18  1  0
 31 30  1  0
 28 16  1  0
 27 15  1  0
 26 15  1  0
 21  5  2  0
 13 14  1  0
  6 20  1  0
  3 32  1  0
  8 33  1  0
  8 34  1  0
  9 35  1  0
  9 36  1  0
 10 37  1  0
 10 38  1  0
 11 39  1  0
 12 40  1  0
 15 41  1  6
 16 42  1  1
 17 43  1  1
 20 44  1  0
 21 45  1  0
 22 46  1  0
 23 47  1  0
 24 48  1  0
 25 49  1  0
 26 50  1  0
 26 51  1  0
 27 52  1  0
 27 53  1  0
 28 54  1  0
 28 55  1  0
 29 56  1  0
 31 57  1  0
 31 58  1  0
 31 59  1  0
M  END
> <Uni-Dock RESULT> 
ENERGY=   -4.750  LOWER_BOUND=    4.367  UPPER_BOUND=    6.564
INTER + INTRA:          -4.750
INTER:                  -4.750
INTRA:                   0.000
UNBOUND:                 0.000

$$$$

     RDKit          3D

 59 64  0  0  0  0  0  0  0  0999 V2000
   43.6762   12.7919    7.2577 C   0  0  2  0  0  0  0  0  0  0  0  0
   43.6920   12.6348    8.8014 C   0  0  0  0  0  0  0  0  0  0  0  0
   44.1589   11.4387    9.3977 C   0  0  0  0  0  0  0  0  0  0  0  0
   46.0349    3.8556   13.2147 C   0  0  0  0  0  0  0  0  0  0  0  0
   44.1977   11.2380   10.7901 C   0  0  0  0  0  0  0  0  0  0  0  0
   45.5070    5.1045   12.6150 C   0  0  0  0  0  0  0  0  0  0  0  0
   44.6887    9.9732   11.3606 C   0  0  0  0  0  0  0  0  0  0  0  0
   44.5809   13.9810    6.8111 C   0  0  0  0  0  0  0  0  0  0  0  0
   42.2238   13.0241    6.7390 C   0  0  0  0  0  0  0  0  0  0  0  0
   44.2116   11.5302    6.4947 C   0  0  0  0  0  0  0  0  0  0  0  0
   46.0930    6.3197   12.9920 C   0  0  0  0  0  0  0  0  0  0  0  0
   44.1139    8.7441   10.9935 C   0  0  0  0  0  0  0  0  0  0  0  0
   45.6342    7.5344   12.4570 C   0  0  0  0  0  0  0  0  0  0  0  0
   44.5703    7.5263   11.5278 C   0  0  0  0  0  0  0  0  0  0  0  0
   44.5339   14.1808    5.2855 C   0  0  2  0  0  0  0  0  0  0  0  0
   42.1982   13.2326    5.2143 C   0  0  1  0  0  0  0  0  0  0  0  0
   44.1817   11.7182    4.9680 C   0  0  2  0  0  0  0  0  0  0  0  0
   43.2507   13.6595    9.6757 C   0  0  0  0  0  0  0  0  0  0  0  0
   46.9444    3.7800   14.0200 O   0  0  0  0  0  0  0  0  0  0  0  0
   44.4538    5.0991   11.6964 C   0  0  0  0  0  0  0  0  0  0  0  0
   43.7555   12.2737   11.6128 C   0  0  0  0  0  0  0  0  0  0  0  0
   45.7423    9.9592   12.2847 C   0  0  0  0  0  0  0  0  0  0  0  0
   43.9901    6.3023   11.1579 C   0  0  0  0  0  0  0  0  0  0  0  0
   46.2101    8.7579   12.8257 C   0  0  0  0  0  0  0  0  0  0  0  0
   43.2876   13.4679   11.0642 C   0  0  0  0  0  0  0  0  0  0  0  0
   43.0816   14.4374    4.8509 C   0  0  0  0  0  0  0  0  0  0  0  0
   45.0585   12.9184    4.5899 C   0  0  0  0  0  0  0  0  0  0  0  0
   42.7381   11.9765    4.5192 C   0  0  0  0  0  0  0  0  0  0  0  0
   45.3977    2.7552   12.7772 O   0  0  0  0  0  0  0  0  0  0  0  0
   42.7969   14.8174    9.1003 O   0  0  0  0  0  0  0  0  0  0  0  0
   42.3539   15.8688    9.9470 C   0  0  0  0  0  0  0  0  0  0  0  0
   44.5230   10.6212    8.7806 H   0  0  0  0  0  0  0  0  0  0  0  0
   45.6167   13.8021    7.1300 H   0  0  0  0  0  0  0  0  0  0  0  0
   44.2811   14.9228    7.2807 H   0  0  0  0  0  0  0  0  0  0  0  0
   41.7578   13.8983    7.2036 H   0  0  0  0  0  0  0  0  0  0  0  0
   41.5905   12.1675    7.0070 H   0  0  0  0  0  0  0  0  0  0  0  0
   43.6085   10.6477    6.7468 H   0  0  0  0  0  0  0  0  0  0  0  0
   45.2451   11.3126    6.7960 H   0  0  0  0  0  0  0  0  0  0  0  0
   46.9131    6.3165   13.7086 H   0  0  0  0  0  0  0  0  0  0  0  0
   43.2866    8.7396   10.2848 H   0  0  0  0  0  0  0  0  0  0  0  0
   45.1581   15.0380    5.0090 H   0  0  0  0  0  0  0  0  0  0  0  0
   41.1689   13.4187    4.8873 H   0  0  0  0  0  0  0  0  0  0  0  0
   44.5633   10.8151    4.4781 H   0  0  0  0  0  0  0  0  0  0  0  0
   43.9857    4.1663   11.3917 H   0  0  0  0  0  0  0  0  0  0  0  0
   43.7593   12.1555   12.6944 H   0  0  0  0  0  0  0  0  0  0  0  0
   46.2192   10.8908   12.5836 H   0  0  0  0  0  0  0  0  0  0  0  0
   43.1688    6.2763   10.4443 H   0  0  0  0  0  0  0  0  0  0  0  0
   47.0328    8.7886   13.5372 H   0  0  0  0  0  0  0  0  0  0  0  0
   42.9534   14.2333   11.7566 H   0  0  0  0  0  0  0  0  0  0  0  0
   43.0424   14.6154    3.7691 H   0  0  0  0  0  0  0  0  0  0  0  0
   42.6989   15.3435    5.3363 H   0  0  0  0  0  0  0  0  0  0  0  0
   45.0551   13.0593    3.5021 H   0  0  0  0  0  0  0  0  0  0  0  0
   46.0990   12.7321    4.8832 H   0  0  0  0  0  0  0  0  0  0  0  0
   42.6994   12.1029    3.4303 H   0  0  0  0  0  0  0  0  0  0  0  0
   42.1079   11.1120    4.7616 H   0  0  0  0  0  0  0  0  0  0  0  0
   45.8454    2.0223   13.2496 H   0  0  0  0  0  0  0  0  0  0  0  0
   42.0386   16.6998    9.3085 H   0  0  0  0  0  0  0  0  0  0  0  0
   43.1661   16.2314   10.5854 H   0  0  0  0  0  0  0  0  0  0  0  0
   41.4872   15.5599   10.5403 H   0  0  0  0  0  0  0  0  0  0  0  0
  1  2  1  6
  3  2  2  0
  4  6  1  0
  5  3  1  0
  6 11  2  0
  7  5  1  0
  8  1  1  0
  9  1  1  0
 10  1  1  0
 11 13  1  0
 12  7  1  0
 13 24  2  0
 14 12  2  0
 15  8  1  0
 16  9  1  0
 17 10  1  0
 18  2  1  0
 19  4  2  0
 20 23  2  0
 21 25  1  0
 22  7  2  0
 23 14  1  0
 24 22  1  0
 25 18  2  0
 26 16  1  0
 27 17  1  0
 28 17  1  0
 29  4  1  0
 30 18  1  0
 31 30  1  0
 28 16  1  0
 27 15  1  0
 26 15  1  0
 21  5  2  0
 13 14  1  0
  6 20  1  0
  3 32  1  0
  8 33  1  0
  8 34  1  0
  9 35  1  0
  9 36  1  0
 10 37  1  0
 10 38  1  0
 11 39  1  0
 12 40  1  0
 15 41  1  6
 16 42  1  1
 17 43  1  1
 20 44  1  0
 21 45  1  0
 22 46  1  0
 23 47  1  0
 24 48  1  0
 25 49  1  0
 26 50  1  0
 26 51  1  0
 27 52  1  0
 27 53  1  0
 28 54  1  0
 28 55  1  0
 29 56  1  0
 31 57  1  0
 31 58  1  0
 31 59  1  0
M  END
> <Uni-Dock RESULT> 
ENERGY=   -4.702  LOWER_BOUND=    5.061  UPPER_BOUND=    8.936
INTER + INTRA:          -4.702
INTER:                  -4.702
INTRA:                   0.000
UNBOUND:                 0.000

$$$$

     RDKit          3D

 59 64  0  0  0  0  0  0  0  0999 V2000
   49.7395    6.5214   17.5591 C   0  0  2  0  0  0  0  0  0  0  0  0
   50.1168    7.2424   16.2378 C   0  0  0  0  0  0  0  0  0  0  0  0
   49.1265    7.9015   15.4702 C   0  0  0  0  0  0  0  0  0  0  0  0
   43.0800   11.1349   10.1245 C   0  0  0  0  0  0  0  0  0  0  0  0
   49.4077    8.5722   14.2654 C   0  0  0  0  0  0  0  0  0  0  0  0
   44.1299   10.4214   10.8905 C   0  0  0  0  0  0  0  0  0  0  0  0
   48.3407    9.2390   13.5018 C   0  0  0  0  0  0  0  0  0  0  0  0
   50.4969    7.1481   18.7697 C   0  0  0  0  0  0  0  0  0  0  0  0
   50.0702    4.9997   17.4740 C   0  0  0  0  0  0  0  0  0  0  0  0
   48.2131    6.6137   17.9087 C   0  0  0  0  0  0  0  0  0  0  0  0
   45.2557   11.1453   11.3039 C   0  0  0  0  0  0  0  0  0  0  0  0
   47.2033    8.5294   13.0794 C   0  0  0  0  0  0  0  0  0  0  0  0
   46.2822   10.5221   12.0320 C   0  0  0  0  0  0  0  0  0  0  0  0
   46.1741    9.1500   12.3497 C   0  0  0  0  0  0  0  0  0  0  0  0
   50.1713    6.4088   20.0800 C   0  0  2  0  0  0  0  0  0  0  0  0
   49.7486    4.2799   18.7959 C   0  0  1  0  0  0  0  0  0  0  0  0
   47.8729    5.8887   19.2223 C   0  0  2  0  0  0  0  0  0  0  0  0
   51.4444    7.2791   15.7425 C   0  0  0  0  0  0  0  0  0  0  0  0
   43.1003   12.3108    9.8114 O   0  0  0  0  0  0  0  0  0  0  0  0
   44.0256    9.0637   11.2050 C   0  0  0  0  0  0  0  0  0  0  0  0
   50.7280    8.5846   13.8163 C   0  0  0  0  0  0  0  0  0  0  0  0
   48.4289   10.5992   13.1753 C   0  0  0  0  0  0  0  0  0  0  0  0
   45.0415    8.4343   11.9294 C   0  0  0  0  0  0  0  0  0  0  0  0
   47.4147   11.2334   12.4514 C   0  0  0  0  0  0  0  0  0  0  0  0
   51.7330    7.9465   14.5437 C   0  0  0  0  0  0  0  0  0  0  0  0
   50.5530    4.9264   19.9357 C   0  0  0  0  0  0  0  0  0  0  0  0
   48.6694    6.5225   20.3695 C   0  0  0  0  0  0  0  0  0  0  0  0
   48.2495    4.4075   19.0939 C   0  0  0  0  0  0  0  0  0  0  0  0
   42.0494   10.3406    9.7848 O   0  0  0  0  0  0  0  0  0  0  0  0
   52.4041    6.6403   16.4833 O   0  0  0  0  0  0  0  0  0  0  0  0
   53.7472    6.6634   16.0204 C   0  0  0  0  0  0  0  0  0  0  0  0
   48.0923    7.9200   15.8044 H   0  0  0  0  0  0  0  0  0  0  0  0
   50.2315    8.2096   18.8669 H   0  0  0  0  0  0  0  0  0  0  0  0
   51.5822    7.1218   18.6321 H   0  0  0  0  0  0  0  0  0  0  0  0
   51.1253    4.8219   17.2450 H   0  0  0  0  0  0  0  0  0  0  0  0
   49.5027    4.5398   16.6536 H   0  0  0  0  0  0  0  0  0  0  0  0
   47.6102    6.1726   17.1035 H   0  0  0  0  0  0  0  0  0  0  0  0
   47.9066    7.6639   18.0040 H   0  0  0  0  0  0  0  0  0  0  0  0
   45.3304   12.2029   11.0551 H   0  0  0  0  0  0  0  0  0  0  0  0
   47.1255    7.4688   13.3159 H   0  0  0  0  0  0  0  0  0  0  0  0
   50.7385    6.8567   20.9039 H   0  0  0  0  0  0  0  0  0  0  0  0
   50.0166    3.2207   18.7109 H   0  0  0  0  0  0  0  0  0  0  0  0
   46.7997    5.9791   19.4256 H   0  0  0  0  0  0  0  0  0  0  0  0
   43.1600    8.4848   10.8926 H   0  0  0  0  0  0  0  0  0  0  0  0
   50.9863    9.0830   12.8844 H   0  0  0  0  0  0  0  0  0  0  0  0
   49.2896   11.1832   13.4956 H   0  0  0  0  0  0  0  0  0  0  0  0
   44.9411    7.3763   12.1638 H   0  0  0  0  0  0  0  0  0  0  0  0
   47.5184   12.2918   12.2211 H   0  0  0  0  0  0  0  0  0  0  0  0
   52.7389    7.9879   14.1395 H   0  0  0  0  0  0  0  0  0  0  0  0
   50.3567    4.3979   20.8767 H   0  0  0  0  0  0  0  0  0  0  0  0
   51.6277    4.8331   19.7367 H   0  0  0  0  0  0  0  0  0  0  0  0
   48.4296    6.0219   21.3157 H   0  0  0  0  0  0  0  0  0  0  0  0
   48.3875    7.5761   20.4868 H   0  0  0  0  0  0  0  0  0  0  0  0
   48.0033    3.8749   20.0206 H   0  0  0  0  0  0  0  0  0  0  0  0
   47.6654    3.9385   18.2926 H   0  0  0  0  0  0  0  0  0  0  0  0
   41.4464   10.9371    9.2937 H   0  0  0  0  0  0  0  0  0  0  0  0
   54.3571    6.1103   16.7413 H   0  0  0  0  0  0  0  0  0  0  0  0
   54.1329    7.6871   15.9768 H   0  0  0  0  0  0  0  0  0  0  0  0
   53.8403    6.1599   15.0528 H   0  0  0  0  0  0  0  0  0  0  0  0
  1  2  1  6
  3  2  2  0
  4  6  1  0
  5  3  1  0
  6 11  2  0
  7  5  1  0
  8  1  1  0
  9  1  1  0
 10  1  1  0
 11 13  1  0
 12  7  1  0
 13 24  2  0
 14 12  2  0
 15  8  1  0
 16  9  1  0
 17 10  1  0
 18  2  1  0
 19  4  2  0
 20 23  2  0
 21 25  1  0
 22  7  2  0
 23 14  1  0
 24 22  1  0
 25 18  2  0
 26 16  1  0
 27 17  1  0
 28 17  1  0
 29  4  1  0
 30 18  1  0
 31 30  1  0
 28 16  1  0
 27 15  1  0
 26 15  1  0
 21  5  2  0
 13 14  1  0
  6 20  1  0
  3 32  1  0
  8 33  1  0
  8 34  1  0
  9 35  1  0
  9 36  1  0
 10 37  1  0
 10 38  1  0
 11 39  1  0
 12 40  1  0
 15 41  1  6
 16 42  1  1
 17 43  1  1
 20 44  1  0
 21 45  1  0
 22 46  1  0
 23 47  1  0
 24 48  1  0
 25 49  1  0
 26 50  1  0
 26 51  1  0
 27 52  1  0
 27 53  1  0
 28 54  1  0
 28 55  1  0
 29 56  1  0
 31 57  1  0
 31 58  1  0
 31 59  1  0
M  END
> <Uni-Dock RESULT> 
ENERGY=   -4.530  LOWER_BOUND=    3.019  UPPER_BOUND=    9.286
INTER + INTRA:          -4.530
INTER:                  -4.530
INTRA:                   0.000
UNBOUND:                 0.000

$$$$

     RDKit          3D

 59 64  0  0  0  0  0  0  0  0999 V2000
   45.3025   16.3852   13.7213 C   0  0  2  0  0  0  0  0  0  0  0  0
   46.6794   15.9454   14.2859 C   0  0  0  0  0  0  0  0  0  0  0  0
   46.7787   14.8280   15.1494 C   0  0  0  0  0  0  0  0  0  0  0  0
   47.4801    8.6458   21.2223 C   0  0  0  0  0  0  0  0  0  0  0  0
   47.9982   14.3814   15.6918 C   0  0  0  0  0  0  0  0  0  0  0  0
   47.3991    9.8412   20.3492 C   0  0  0  0  0  0  0  0  0  0  0  0
   48.0475   13.2158   16.5889 C   0  0  0  0  0  0  0  0  0  0  0  0
   45.2922   16.3136   12.1636 C   0  0  0  0  0  0  0  0  0  0  0  0
   44.9558   17.8368   14.1745 C   0  0  0  0  0  0  0  0  0  0  0  0
   44.1117   15.4853   14.2039 C   0  0  0  0  0  0  0  0  0  0  0  0
   48.1751    9.8639   19.1832 C   0  0  0  0  0  0  0  0  0  0  0  0
   47.2752   13.1746   17.7627 C   0  0  0  0  0  0  0  0  0  0  0  0
   48.1392   10.9698   18.3184 C   0  0  0  0  0  0  0  0  0  0  0  0
   47.3093   12.0693   18.6310 C   0  0  0  0  0  0  0  0  0  0  0  0
   43.9490   16.7967   11.5876 C   0  0  2  0  0  0  0  0  0  0  0  0
   43.6157   18.3060   13.5803 C   0  0  1  0  0  0  0  0  0  0  0  0
   42.7625   15.9484   13.6277 C   0  0  2  0  0  0  0  0  0  0  0  0
   47.8833   16.6242   13.9714 C   0  0  0  0  0  0  0  0  0  0  0  0
   48.1695    7.6626   21.0234 O   0  0  0  0  0  0  0  0  0  0  0  0
   46.5795   10.9307   20.6570 C   0  0  0  0  0  0  0  0  0  0  0  0
   49.1583   15.0781   15.3542 C   0  0  0  0  0  0  0  0  0  0  0  0
   48.8650   12.1151   16.2979 C   0  0  0  0  0  0  0  0  0  0  0  0
   46.5364   12.0358   19.8028 C   0  0  0  0  0  0  0  0  0  0  0  0
   48.9109   11.0068   17.1490 C   0  0  0  0  0  0  0  0  0  0  0  0
   49.1025   16.1847   14.5065 C   0  0  0  0  0  0  0  0  0  0  0  0
   43.6893   18.2412   12.0459 C   0  0  0  0  0  0  0  0  0  0  0  0
   42.8210   15.8902   12.0962 C   0  0  0  0  0  0  0  0  0  0  0  0
   42.4900   17.3897   14.0758 C   0  0  0  0  0  0  0  0  0  0  0  0
   46.6917    8.7365   22.3080 O   0  0  0  0  0  0  0  0  0  0  0  0
   47.7890   17.7070   13.1370 O   0  0  0  0  0  0  0  0  0  0  0  0
   48.9772   18.4066   12.7945 C   0  0  0  0  0  0  0  0  0  0  0  0
   45.8925   14.2582   15.4171 H   0  0  0  0  0  0  0  0  0  0  0  0
   45.4872   15.2834   11.8361 H   0  0  0  0  0  0  0  0  0  0  0  0
   46.0847   16.9242   11.7202 H   0  0  0  0  0  0  0  0  0  0  0  0
   45.7245   18.5547   13.8729 H   0  0  0  0  0  0  0  0  0  0  0  0
   44.9126   17.8850   15.2710 H   0  0  0  0  0  0  0  0  0  0  0  0
   44.0432   15.4990   15.3000 H   0  0  0  0  0  0  0  0  0  0  0  0
   44.2762   14.4419   13.9032 H   0  0  0  0  0  0  0  0  0  0  0  0
   48.8117    9.0116   18.9498 H   0  0  0  0  0  0  0  0  0  0  0  0
   46.6433   14.0273   18.0083 H   0  0  0  0  0  0  0  0  0  0  0  0
   43.9848   16.7583   10.4930 H   0  0  0  0  0  0  0  0  0  0  0  0
   43.4157   19.3362   13.8962 H   0  0  0  0  0  0  0  0  0  0  0  0
   41.9625   15.2930   13.9904 H   0  0  0  0  0  0  0  0  0  0  0  0
   45.9703   10.9321   21.5574 H   0  0  0  0  0  0  0  0  0  0  0  0
   50.1202   14.7720   15.7601 H   0  0  0  0  0  0  0  0  0  0  0  0
   49.4680   12.1070   15.3919 H   0  0  0  0  0  0  0  0  0  0  0  0
   45.8920   12.8740   20.0608 H   0  0  0  0  0  0  0  0  0  0  0  0
   49.5551   10.1703   16.8860 H   0  0  0  0  0  0  0  0  0  0  0  0
   50.0386   16.6865   14.2856 H   0  0  0  0  0  0  0  0  0  0  0  0
   42.7503   18.6066   11.6120 H   0  0  0  0  0  0  0  0  0  0  0  0
   44.4863   18.9001   11.6801 H   0  0  0  0  0  0  0  0  0  0  0  0
   41.8615   16.2086   11.6705 H   0  0  0  0  0  0  0  0  0  0  0  0
   42.9893   14.8583   11.7646 H   0  0  0  0  0  0  0  0  0  0  0  0
   41.5255   17.7308   13.6803 H   0  0  0  0  0  0  0  0  0  0  0  0
   42.4201   17.4372   15.1695 H   0  0  0  0  0  0  0  0  0  0  0  0
   46.8465    7.8919   22.7806 H   0  0  0  0  0  0  0  0  0  0  0  0
   48.6994   19.2260   12.1243 H   0  0  0  0  0  0  0  0  0  0  0  0
   49.6755   17.7593   12.2542 H   0  0  0  0  0  0  0  0  0  0  0  0
   49.4454   18.8477   13.6804 H   0  0  0  0  0  0  0  0  0  0  0  0
  1  2  1  6
  3  2  2  0
  4  6  1  0
  5  3  1  0
  6 11  2  0
  7  5  1  0
  8  1  1  0
  9  1  1  0
 10  1  1  0
 11 13  1  0
 12  7  1  0
 13 24  2  0
 14 12  2  0
 15  8  1  0
 16  9  1  0
 17 10  1  0
 18  2  1  0
 19  4  2  0
 20 23  2  0
 21 25  1  0
 22  7  2  0
 23 14  1  0
 24 22  1  0
 25 18  2  0
 26 16  1  0
 27 17  1  0
 28 17  1  0
 29  4  1  0
 30 18  1  0
 31 30  1  0
 28 16  1  0
 27 15  1  0
 26 15  1  0
 21  5  2  0
 13 14  1  0
  6 20  1  0
  3 32  1  0
  8 33  1  0
  8 34  1  0
  9 35  1  0
  9 36  1  0
 10 37  1  0
 10 38  1  0
 11 39  1  0
 12 40  1  0
 15 41  1  6
 16 42  1  1
 17 43  1  1
 20 44  1  0
 21 45  1  0
 22 46  1  0
 23 47  1  0
 24 48  1  0
 25 49  1  0
 26 50  1  0
 26 51  1  0
 27 52  1  0
 27 53  1  0
 28 54  1  0
 28 55  1  0
 29 56  1  0
 31 57  1  0
 31 58  1  0
 31 59  1  0
M  END
> <Uni-Dock RESULT> 
ENERGY=   -4.496  LOWER_BOUND=    7.273  UPPER_BOUND=    9.402
INTER + INTRA:          -4.496
INTER:                  -4.496
INTRA:                   0.000
UNBOUND:                 0.000

$$$$

     RDKit          3D

 59 64  0  0  0  0  0  0  0  0999 V2000
   48.2095   10.1868   18.4550 C   0  0  2  0  0  0  0  0  0  0  0  0
   48.6696    9.3954   17.2021 C   0  0  0  0  0  0  0  0  0  0  0  0
   48.6377    9.9959   15.9204 C   0  0  0  0  0  0  0  0  0  0  0  0
   47.5889   13.1298    7.8786 C   0  0  0  0  0  0  0  0  0  0  0  0
   49.0423    9.3295   14.7488 C   0  0  0  0  0  0  0  0  0  0  0  0
   47.5982   12.4653    9.2039 C   0  0  0  0  0  0  0  0  0  0  0  0
   48.9858    9.9975   13.4385 C   0  0  0  0  0  0  0  0  0  0  0  0
   49.3754   10.3296   19.4809 C   0  0  0  0  0  0  0  0  0  0  0  0
   46.9997    9.4823   19.1422 C   0  0  0  0  0  0  0  0  0  0  0  0
   47.7345   11.6468   18.1335 C   0  0  0  0  0  0  0  0  0  0  0  0
   48.8060   11.9281    9.6673 C   0  0  0  0  0  0  0  0  0  0  0  0
   47.7832   10.5434   12.9574 C   0  0  0  0  0  0  0  0  0  0  0  0
   48.8747   11.2869   10.9148 C   0  0  0  0  0  0  0  0  0  0  0  0
   47.7107   11.1854   11.7086 C   0  0  0  0  0  0  0  0  0  0  0  0
   48.9183   11.0682   20.7517 C   0  0  2  0  0  0  0  0  0  0  0  0
   46.5642   10.2284   20.4160 C   0  0  1  0  0  0  0  0  0  0  0  0
   47.2846   12.4028   19.3957 C   0  0  2  0  0  0  0  0  0  0  0  0
   49.1373    8.0592   17.2746 C   0  0  0  0  0  0  0  0  0  0  0  0
   48.5459   13.2560    7.1373 O   0  0  0  0  0  0  0  0  0  0  0  0
   46.4475   12.3627    9.9906 C   0  0  0  0  0  0  0  0  0  0  0  0
   49.4971    8.0165   14.8670 C   0  0  0  0  0  0  0  0  0  0  0  0
   50.1288   10.1079   12.6348 C   0  0  0  0  0  0  0  0  0  0  0  0
   46.5054   11.7269   11.2336 C   0  0  0  0  0  0  0  0  0  0  0  0
   50.0760   10.7438   11.3908 C   0  0  0  0  0  0  0  0  0  0  0  0
   49.5436    7.3889   16.1121 C   0  0  0  0  0  0  0  0  0  0  0  0
   47.7496   10.3018   21.3925 C   0  0  0  0  0  0  0  0  0  0  0  0
   48.4574   12.4833   20.3807 C   0  0  0  0  0  0  0  0  0  0  0  0
   46.1187   11.6489   20.0473 C   0  0  0  0  0  0  0  0  0  0  0  0
   46.3779   13.6074    7.5414 O   0  0  0  0  0  0  0  0  0  0  0  0
   49.1675    7.4757   18.5141 O   0  0  0  0  0  0  0  0  0  0  0  0
   49.6378    6.1396   18.6249 C   0  0  0  0  0  0  0  0  0  0  0  0
   48.3016   11.0228   15.8015 H   0  0  0  0  0  0  0  0  0  0  0  0
   50.2141   10.8688   19.0199 H   0  0  0  0  0  0  0  0  0  0  0  0
   49.7749    9.3574   19.7850 H   0  0  0  0  0  0  0  0  0  0  0  0
   47.2316    8.4503   19.4224 H   0  0  0  0  0  0  0  0  0  0  0  0
   46.1561    9.4214   18.4412 H   0  0  0  0  0  0  0  0  0  0  0  0
   46.8962   11.6276   17.4242 H   0  0  0  0  0  0  0  0  0  0  0  0
   48.5457   12.2161   17.6603 H   0  0  0  0  0  0  0  0  0  0  0  0
   49.6986   12.0113    9.0489 H   0  0  0  0  0  0  0  0  0  0  0  0
   46.8837   10.4556   13.5657 H   0  0  0  0  0  0  0  0  0  0  0  0
   49.7521   11.1281   21.4604 H   0  0  0  0  0  0  0  0  0  0  0  0
   45.7316    9.6938   20.8871 H   0  0  0  0  0  0  0  0  0  0  0  0
   46.9625   13.4145   19.1239 H   0  0  0  0  0  0  0  0  0  0  0  0
   45.5007   12.7729    9.6481 H   0  0  0  0  0  0  0  0  0  0  0  0
   49.8096    7.4621   13.9846 H   0  0  0  0  0  0  0  0  0  0  0  0
   51.0800    9.7071   12.9799 H   0  0  0  0  0  0  0  0  0  0  0  0
   45.5982   11.6574   11.8306 H   0  0  0  0  0  0  0  0  0  0  0  0
   50.9860   10.8127   10.7983 H   0  0  0  0  0  0  0  0  0  0  0  0
   49.9028    6.3656   16.1375 H   0  0  0  0  0  0  0  0  0  0  0  0
   47.4392   10.8019   22.3183 H   0  0  0  0  0  0  0  0  0  0  0  0
   48.0709    9.2903   21.6698 H   0  0  0  0  0  0  0  0  0  0  0  0
   48.1545   13.0289   21.2829 H   0  0  0  0  0  0  0  0  0  0  0  0
   49.2873   13.0441   19.9335 H   0  0  0  0  0  0  0  0  0  0  0  0
   45.7803   12.1820   20.9442 H   0  0  0  0  0  0  0  0  0  0  0  0
   45.2649   11.6090   19.3598 H   0  0  0  0  0  0  0  0  0  0  0  0
   46.5229   14.0112    6.6601 H   0  0  0  0  0  0  0  0  0  0  0  0
   49.5907    5.8568   19.6811 H   0  0  0  0  0  0  0  0  0  0  0  0
   50.6826    6.0605   18.3073 H   0  0  0  0  0  0  0  0  0  0  0  0
   48.9976    5.4478   18.0681 H   0  0  0  0  0  0  0  0  0  0  0  0
  1  2  1  6
  3  2  2  0
  4  6  1  0
  5  3  1  0
  6 11  2  0
  7  5  1  0
  8  1  1  0
  9  1  1  0
 10  1  1  0
 11 13  1  0
 12  7  1  0
 13 24  2  0
 14 12  2  0
 15  8  1  0
 16  9  1  0
 17 10  1  0
 18  2  1  0
 19  4  2  0
 20 23  2  0
 21 25  1  0
 22  7  2  0
 23 14  1  0
 24 22  1  0
 25 18  2  0
 26 16  1  0
 27 17  1  0
 28 17  1  0
 29  4  1  0
 30 18  1  0
 31 30  1  0
 28 16  1  0
 27 15  1  0
 26 15  1  0
 21  5  2  0
 13 14  1  0
  6 20  1  0
  3 32  1  0
  8 33  1  0
  8 34  1  0
  9 35  1  0
  9 36  1  0
 10 37  1  0
 10 38  1  0
 11 39  1  0
 12 40  1  0
 15 41  1  6
 16 42  1  1
 17 43  1  1
 20 44  1  0
 21 45  1  0
 22 46  1  0
 23 47  1  0
 24 48  1  0
 25 49  1  0
 26 50  1  0
 26 51  1  0
 27 52  1  0
 27 53  1  0
 28 54  1  0
 28 55  1  0
 29 56  1  0
 31 57  1  0
 31 58  1  0
 31 59  1  0
M  END
> <Uni-Dock RESULT> 
ENERGY=   -4.491  LOWER_BOUND=    4.710  UPPER_BOUND=   10.009
INTER + INTRA:          -4.491
INTER:                  -4.491
INTRA:                   0.000
UNBOUND:                 0.000

$$$$

     RDKit          3D

 59 64  0  0  0  0  0  0  0  0999 V2000
   49.7177   12.7542   11.0024 C   0  0  2  0  0  0  0  0  0  0  0  0
   49.4187   11.9457   12.2928 C   0  0  0  0  0  0  0  0  0  0  0  0
   48.7527   10.6985   12.2217 C   0  0  0  0  0  0  0  0  0  0  0  0
   43.8200    3.5398   12.1058 C   0  0  0  0  0  0  0  0  0  0  0  0
   48.4549    9.9202   13.3557 C   0  0  0  0  0  0  0  0  0  0  0  0
   44.4863    4.8600   12.2114 C   0  0  0  0  0  0  0  0  0  0  0  0
   47.7562    8.6311   13.2285 C   0  0  0  0  0  0  0  0  0  0  0  0
   51.2526   12.9602   10.8191 C   0  0  0  0  0  0  0  0  0  0  0  0
   49.0108   14.1438   11.0428 C   0  0  0  0  0  0  0  0  0  0  0  0
   49.2159   12.0513    9.6930 C   0  0  0  0  0  0  0  0  0  0  0  0
   45.7311    4.9246   12.8506 C   0  0  0  0  0  0  0  0  0  0  0  0
   46.5071    8.5465   12.5896 C   0  0  0  0  0  0  0  0  0  0  0  0
   46.4087    6.1478   12.9804 C   0  0  0  0  0  0  0  0  0  0  0  0
   45.8256    7.3237   12.4585 C   0  0  0  0  0  0  0  0  0  0  0  0
   51.5610   13.8053    9.5701 C   0  0  2  0  0  0  0  0  0  0  0  0
   49.3395   14.9781    9.7919 C   0  0  1  0  0  0  0  0  0  0  0  0
   49.5266   12.8786    8.4336 C   0  0  2  0  0  0  0  0  0  0  0  0
   49.7906   12.4036   13.5817 C   0  0  0  0  0  0  0  0  0  0  0  0
   44.2553    2.4852   12.5295 O   0  0  0  0  0  0  0  0  0  0  0  0
   43.9108    6.0250   11.6968 C   0  0  0  0  0  0  0  0  0  0  0  0
   48.8407   10.4084   14.6038 C   0  0  0  0  0  0  0  0  0  0  0  0
   48.3168    7.4528   13.7403 C   0  0  0  0  0  0  0  0  0  0  0  0
   44.5771    7.2470   11.8205 C   0  0  0  0  0  0  0  0  0  0  0  0
   47.6542    6.2277   13.6183 C   0  0  0  0  0  0  0  0  0  0  0  0
   49.4988   11.6333   14.7163 C   0  0  0  0  0  0  0  0  0  0  0  0
   50.8619   15.1692    9.6937 C   0  0  0  0  0  0  0  0  0  0  0  0
   51.0432   13.0785    8.3226 C   0  0  0  0  0  0  0  0  0  0  0  0
   48.8363   14.2437    8.5430 C   0  0  0  0  0  0  0  0  0  0  0  0
   42.6353    3.6010   11.4724 O   0  0  0  0  0  0  0  0  0  0  0  0
   50.4340   13.6113   13.6526 O   0  0  0  0  0  0  0  0  0  0  0  0
   50.8281   14.0975   14.9282 C   0  0  0  0  0  0  0  0  0  0  0  0
   48.4539   10.2876   11.2607 H   0  0  0  0  0  0  0  0  0  0  0  0
   51.7532   11.9856   10.7404 H   0  0  0  0  0  0  0  0  0  0  0  0
   51.7046   13.4606   11.6809 H   0  0  0  0  0  0  0  0  0  0  0  0
   49.3047   14.7276   11.9204 H   0  0  0  0  0  0  0  0  0  0  0  0
   47.9238   14.0072   11.1226 H   0  0  0  0  0  0  0  0  0  0  0  0
   48.1310   11.8869    9.7403 H   0  0  0  0  0  0  0  0  0  0  0  0
   49.6880   11.0657    9.5844 H   0  0  0  0  0  0  0  0  0  0  0  0
   46.1735    4.0129   13.2495 H   0  0  0  0  0  0  0  0  0  0  0  0
   46.0533    9.4555   12.1965 H   0  0  0  0  0  0  0  0  0  0  0  0
   52.6436   13.9527    9.4857 H   0  0  0  0  0  0  0  0  0  0  0  0
   48.8496   15.9558    9.8646 H   0  0  0  0  0  0  0  0  0  0  0  0
   49.1593   12.3506    7.5462 H   0  0  0  0  0  0  0  0  0  0  0  0
   42.9452    5.9954   11.1979 H   0  0  0  0  0  0  0  0  0  0  0  0
   48.6204    9.8427   15.5067 H   0  0  0  0  0  0  0  0  0  0  0  0
   49.2878    7.4782   14.2312 H   0  0  0  0  0  0  0  0  0  0  0  0
   44.1117    8.1425   11.4132 H   0  0  0  0  0  0  0  0  0  0  0  0
   48.1244    5.3347   14.0253 H   0  0  0  0  0  0  0  0  0  0  0  0
   49.7687   11.9603   15.7149 H   0  0  0  0  0  0  0  0  0  0  0  0
   51.1040   15.7921    8.8238 H   0  0  0  0  0  0  0  0  0  0  0  0
   51.2314   15.7016   10.5788 H   0  0  0  0  0  0  0  0  0  0  0  0
   51.2814   13.6591    7.4229 H   0  0  0  0  0  0  0  0  0  0  0  0
   51.5444   12.1085    8.2171 H   0  0  0  0  0  0  0  0  0  0  0  0
   49.0409   14.8418    7.6466 H   0  0  0  0  0  0  0  0  0  0  0  0
   47.7485   14.1125    8.5964 H   0  0  0  0  0  0  0  0  0  0  0  0
   42.3191    2.6732   11.4776 H   0  0  0  0  0  0  0  0  0  0  0  0
   51.3246   15.0611   14.7781 H   0  0  0  0  0  0  0  0  0  0  0  0
   51.5491   13.4239   15.4026 H   0  0  0  0  0  0  0  0  0  0  0  0
   49.9591   14.2694   15.5713 H   0  0  0  0  0  0  0  0  0  0  0  0
  1  2  1  6
  3  2  2  0
  4  6  1  0
  5  3  1  0
  6 11  2  0
  7  5  1  0
  8  1  1  0
  9  1  1  0
 10  1  1  0
 11 13  1  0
 12  7  1  0
 13 24  2  0
 14 12  2  0
 15  8  1  0
 16  9  1  0
 17 10  1  0
 18  2  1  0
 19  4  2  0
 20 23  2  0
 21 25  1  0
 22  7  2  0
 23 14  1  0
 24 22  1  0
 25 18  2  0
 26 16  1  0
 27 17  1  0
 28 17  1  0
 29  4  1  0
 30 18  1  0
 31 30  1  0
 28 16  1  0
 27 15  1  0
 26 15  1  0
 21  5  2  0
 13 14  1  0
  6 20  1  0
  3 32  1  0
  8 33  1  0
  8 34  1  0
  9 35  1  0
  9 36  1  0
 10 37  1  0
 10 38  1  0
 11 39  1  0
 12 40  1  0
 15 41  1  6
 16 42  1  1
 17 43  1  1
 20 44  1  0
 21 45  1  0
 22 46  1  0
 23 47  1  0
 24 48  1  0
 25 49  1  0
 26 50  1  0
 26 51  1  0
 27 52  1  0
 27 53  1  0
 28 54  1  0
 28 55  1  0
 29 56  1  0
 31 57  1  0
 31 58  1  0
 31 59  1  0
M  END
> <Uni-Dock RESULT> 
ENERGY=   -4.428  LOWER_BOUND=    4.669  UPPER_BOUND=    8.947
INTER + INTRA:          -4.428
INTER:                  -4.428
INTRA:                   0.000
UNBOUND:                 0.000

$$$$
