
     RDKit          3D

 59 64  0  0  0  0  0  0  0  0999 V2000
   45.4846    5.7521   12.4069 C   0  0  2  0  0  0  0  0  0  0  0  0
   46.3726    6.8673   13.0201 C   0  0  0  0  0  0  0  0  0  0  0  0
   47.4833    6.5363   13.8332 C   0  0  0  0  0  0  0  0  0  0  0  0
   55.2367    6.0340   18.1660 C   0  0  0  0  0  0  0  0  0  0  0  0
   48.3248    7.5025   14.4153 C   0  0  0  0  0  0  0  0  0  0  0  0
   54.0562    6.4059   17.3496 C   0  0  0  0  0  0  0  0  0  0  0  0
   49.4661    7.1067   15.2558 C   0  0  0  0  0  0  0  0  0  0  0  0
   45.9510    4.3026   12.7837 C   0  0  0  0  0  0  0  0  0  0  0  0
   45.5053    5.8195   10.8490 C   0  0  0  0  0  0  0  0  0  0  0  0
   44.0137    5.8752   12.9102 C   0  0  0  0  0  0  0  0  0  0  0  0
   52.7634    5.9744   17.6721 C   0  0  0  0  0  0  0  0  0  0  0  0
   50.7706    7.5305   14.9500 C   0  0  0  0  0  0  0  0  0  0  0  0
   51.6658    6.3449   16.8770 C   0  0  0  0  0  0  0  0  0  0  0  0
   51.8720    7.1616   15.7426 C   0  0  0  0  0  0  0  0  0  0  0  0
   45.0501    3.2219   12.1612 C   0  0  2  0  0  0  0  0  0  0  0  0
   44.5876    4.7510   10.2281 C   0  0  1  0  0  0  0  0  0  0  0  0
   43.1094    4.8063   12.2707 C   0  0  2  0  0  0  0  0  0  0  0  0
   46.1236    8.2454   12.8013 C   0  0  0  0  0  0  0  0  0  0  0  0
   56.3865    6.3705   17.9513 O   0  0  0  0  0  0  0  0  0  0  0  0
   54.2569    7.2126   16.2259 C   0  0  0  0  0  0  0  0  0  0  0  0
   48.0437    8.8468   14.1722 C   0  0  0  0  0  0  0  0  0  0  0  0
   49.2832    6.2961   16.3846 C   0  0  0  0  0  0  0  0  0  0  0  0
   53.1725    7.5869   15.4290 C   0  0  0  0  0  0  0  0  0  0  0  0
   50.3660    5.9203   17.1850 C   0  0  0  0  0  0  0  0  0  0  0  0
   46.9580    9.2141   13.3769 C   0  0  0  0  0  0  0  0  0  0  0  0
   45.0816    3.3568   10.6337 C   0  0  0  0  0  0  0  0  0  0  0  0
   43.6133    3.4118   12.6629 C   0  0  0  0  0  0  0  0  0  0  0  0
   43.1522    4.9535   10.7407 C   0  0  0  0  0  0  0  0  0  0  0  0
   54.9229    5.2559   19.2170 O   0  0  0  0  0  0  0  0  0  0  0  0
   45.0482    8.5676   12.0155 O   0  0  0  0  0  0  0  0  0  0  0  0
   44.7682    9.9398   11.7761 C   0  0  0  0  0  0  0  0  0  0  0  0
   47.7333    5.4965   14.0279 H   0  0  0  0  0  0  0  0  0  0  0  0
   45.9459    4.1717   13.8741 H   0  0  0  0  0  0  0  0  0  0  0  0
   46.9810    4.1326   12.4423 H   0  0  0  0  0  0  0  0  0  0  0  0
   45.1806    6.7959   10.4768 H   0  0  0  0  0  0  0  0  0  0  0  0
   46.5322    5.6844   10.4832 H   0  0  0  0  0  0  0  0  0  0  0  0
   43.5837    6.8555   12.6834 H   0  0  0  0  0  0  0  0  0  0  0  0
   43.9844    5.7795   14.0041 H   0  0  0  0  0  0  0  0  0  0  0  0
   52.6064    5.3459   18.5461 H   0  0  0  0  0  0  0  0  0  0  0  0
   50.9308    8.1508   14.0692 H   0  0  0  0  0  0  0  0  0  0  0  0
   45.4125    2.2288   12.4502 H   0  0  0  0  0  0  0  0  0  0  0  0
   44.6050    4.8428    9.1362 H   0  0  0  0  0  0  0  0  0  0  0  0
   42.0806    4.9374   12.6245 H   0  0  0  0  0  0  0  0  0  0  0  0
   55.2571    7.5533   15.9651 H   0  0  0  0  0  0  0  0  0  0  0  0
   48.6631    9.6255   14.6122 H   0  0  0  0  0  0  0  0  0  0  0  0
   48.2851    5.9576   16.6575 H   0  0  0  0  0  0  0  0  0  0  0  0
   53.3523    8.2147   14.5585 H   0  0  0  0  0  0  0  0  0  0  0  0
   50.1815    5.2929   18.0546 H   0  0  0  0  0  0  0  0  0  0  0  0
   46.7895   10.2755   13.2288 H   0  0  0  0  0  0  0  0  0  0  0  0
   44.4509    2.5857   10.1746 H   0  0  0  0  0  0  0  0  0  0  0  0
   46.1012    3.1963   10.2623 H   0  0  0  0  0  0  0  0  0  0  0  0
   42.9602    2.6415   12.2346 H   0  0  0  0  0  0  0  0  0  0  0  0
   43.5757    3.2909   13.7525 H   0  0  0  0  0  0  0  0  0  0  0  0
   42.4837    4.2178   10.2768 H   0  0  0  0  0  0  0  0  0  0  0  0
   42.7855    5.9451   10.4486 H   0  0  0  0  0  0  0  0  0  0  0  0
   55.7855    5.0942   19.6536 H   0  0  0  0  0  0  0  0  0  0  0  0
   45.5924   10.4242   11.2425 H   0  0  0  0  0  0  0  0  0  0  0  0
   43.8829    9.9919   11.1349 H   0  0  0  0  0  0  0  0  0  0  0  0
   44.5332   10.4639   12.7082 H   0  0  0  0  0  0  0  0  0  0  0  0
  1  2  1  1
  3  2  2  0
  4  6  1  0
  5  3  1  0
  6 11  2  0
  7  5  1  0
  8  1  1  0
  9  1  1  0
 10  1  1  0
 11 13  1  0
 12  7  1  0
 13 24  2  0
 14 12  2  0
 15  8  1  0
 16  9  1  0
 17 10  1  0
 18  2  1  0
 19  4  2  0
 20 23  2  0
 21 25  1  0
 22  7  2  0
 23 14  1  0
 24 22  1  0
 25 18  2  0
 26 16  1  0
 27 17  1  0
 28 17  1  0
 29  4  1  0
 30 18  1  0
 31 30  1  0
 28 16  1  0
 27 15  1  0
 26 15  1  0
 21  5  2  0
 13 14  1  0
  6 20  1  0
  3 32  1  0
  8 33  1  0
  8 34  1  0
  9 35  1  0
  9 36  1  0
 10 37  1  0
 10 38  1  0
 11 39  1  0
 12 40  1  0
 15 41  1  6
 16 42  1  6
 17 43  1  1
 20 44  1  0
 21 45  1  0
 22 46  1  0
 23 47  1  0
 24 48  1  0
 25 49  1  0
 26 50  1  0
 26 51  1  0
 27 52  1  0
 27 53  1  0
 28 54  1  0
 28 55  1  0
 29 56  1  0
 31 57  1  0
 31 58  1  0
 31 59  1  0
M  END
> <Uni-Dock RESULT> 
ENERGY=   -6.065  LOWER_BOUND=    0.000  UPPER_BOUND=    0.000
INTER + INTRA:          -6.065
INTER:                  -6.065
INTRA:                   0.000
UNBOUND:                 0.000

$$$$

     RDKit          3D

 59 64  0  0  0  0  0  0  0  0999 V2000
   49.5400    6.2878   17.4397 C   0  0  2  0  0  0  0  0  0  0  0  0
   49.7096    6.9862   16.0644 C   0  0  0  0  0  0  0  0  0  0  0  0
   48.5760    7.3792   15.3128 C   0  0  0  0  0  0  0  0  0  0  0  0
   42.5837   11.2982   10.0332 C   0  0  0  0  0  0  0  0  0  0  0  0
   48.6667    8.0164   14.0614 C   0  0  0  0  0  0  0  0  0  0  0  0
   43.7852   10.8610   10.7841 C   0  0  0  0  0  0  0  0  0  0  0  0
   47.4570    8.4029   13.3177 C   0  0  0  0  0  0  0  0  0  0  0  0
   48.0419    6.0876   17.8595 C   0  0  0  0  0  0  0  0  0  0  0  0
   50.1962    7.1311   18.5756 C   0  0  0  0  0  0  0  0  0  0  0  0
   50.1752    4.8636   17.4204 C   0  0  0  0  0  0  0  0  0  0  0  0
   43.9756    9.5287   11.1718 C   0  0  0  0  0  0  0  0  0  0  0  0
   47.2482    9.7340   12.9183 C   0  0  0  0  0  0  0  0  0  0  0  0
   45.1259    9.1475   11.8829 C   0  0  0  0  0  0  0  0  0  0  0  0
   46.0982   10.1200   12.2071 C   0  0  0  0  0  0  0  0  0  0  0  0
   47.9088    5.3927   19.2256 C   0  0  2  0  0  0  0  0  0  0  0  0
   50.0804    6.4249   19.9383 C   0  0  1  0  0  0  0  0  0  0  0  0
   50.0597    4.1779   18.7936 C   0  0  2  0  0  0  0  0  0  0  0  0
   50.9812    7.2620   15.5022 C   0  0  0  0  0  0  0  0  0  0  0  0
   42.3495   12.4331    9.6612 O   0  0  0  0  0  0  0  0  0  0  0  0
   44.7483   11.8209   11.1077 C   0  0  0  0  0  0  0  0  0  0  0  0
   49.9380    8.2699   13.5468 C   0  0  0  0  0  0  0  0  0  0  0  0
   46.4800    7.4538   12.9874 C   0  0  0  0  0  0  0  0  0  0  0  0
   45.8956   11.4523   11.8140 C   0  0  0  0  0  0  0  0  0  0  0  0
   45.3309    7.8189   12.2797 C   0  0  0  0  0  0  0  0  0  0  0  0
   51.0800    7.8976   14.2563 C   0  0  0  0  0  0  0  0  0  0  0  0
   48.5995    6.2470   20.2960 C   0  0  0  0  0  0  0  0  0  0  0  0
   48.5790    4.0148   19.1586 C   0  0  0  0  0  0  0  0  0  0  0  0
   50.7551    5.0459   19.8553 C   0  0  0  0  0  0  0  0  0  0  0  0
   41.7281   10.2917    9.7815 O   0  0  0  0  0  0  0  0  0  0  0  0
   52.0796    6.8812   16.2277 O   0  0  0  0  0  0  0  0  0  0  0  0
   53.3703    7.1410   15.6938 C   0  0  0  0  0  0  0  0  0  0  0  0
   47.5737    7.2062   15.6962 H   0  0  0  0  0  0  0  0  0  0  0  0
   47.5135    5.4828   17.1104 H   0  0  0  0  0  0  0  0  0  0  0  0
   47.5282    7.0570   17.9134 H   0  0  0  0  0  0  0  0  0  0  0  0
   51.2573    7.3188   18.3857 H   0  0  0  0  0  0  0  0  0  0  0  0
   49.7206    8.1199   18.6285 H   0  0  0  0  0  0  0  0  0  0  0  0
   51.2349    4.8912   17.1490 H   0  0  0  0  0  0  0  0  0  0  0  0
   49.6847    4.2466   16.6554 H   0  0  0  0  0  0  0  0  0  0  0  0
   43.2261    8.7811   10.9210 H   0  0  0  0  0  0  0  0  0  0  0  0
   47.9925   10.4857   13.1781 H   0  0  0  0  0  0  0  0  0  0  0  0
   46.8488    5.2744   19.4772 H   0  0  0  0  0  0  0  0  0  0  0  0
   50.5731    7.0302   20.7076 H   0  0  0  0  0  0  0  0  0  0  0  0
   50.5379    3.1928   18.7525 H   0  0  0  0  0  0  0  0  0  0  0  0
   44.6106   12.8593   10.8122 H   0  0  0  0  0  0  0  0  0  0  0  0
   50.0522    8.7509   12.5777 H   0  0  0  0  0  0  0  0  0  0  0  0
   46.6134    6.4115   13.2717 H   0  0  0  0  0  0  0  0  0  0  0  0
   46.6317   12.2165   12.0557 H   0  0  0  0  0  0  0  0  0  0  0  0
   44.5978    7.0515   12.0396 H   0  0  0  0  0  0  0  0  0  0  0  0
   52.0396    8.1185   13.8011 H   0  0  0  0  0  0  0  0  0  0  0  0
   48.5045    5.7687   21.2785 H   0  0  0  0  0  0  0  0  0  0  0  0
   48.1102    7.2259   20.3701 H   0  0  0  0  0  0  0  0  0  0  0  0
   48.4836    3.5026   20.1239 H   0  0  0  0  0  0  0  0  0  0  0  0
   48.0749    3.3866   18.4139 H   0  0  0  0  0  0  0  0  0  0  0  0
   50.7082    4.5487   20.8320 H   0  0  0  0  0  0  0  0  0  0  0  0
   51.8175    5.1619   19.6082 H   0  0  0  0  0  0  0  0  0  0  0  0
   40.9979   10.7233    9.2901 H   0  0  0  0  0  0  0  0  0  0  0  0
   53.5393    8.2161   15.5735 H   0  0  0  0  0  0  0  0  0  0  0  0
   54.1083    6.7682   16.4107 H   0  0  0  0  0  0  0  0  0  0  0  0
   53.5238    6.6048   14.7517 H   0  0  0  0  0  0  0  0  0  0  0  0
  1  2  1  1
  3  2  2  0
  4  6  1  0
  5  3  1  0
  6 11  2  0
  7  5  1  0
  8  1  1  0
  9  1  1  0
 10  1  1  0
 11 13  1  0
 12  7  1  0
 13 24  2  0
 14 12  2  0
 15  8  1  0
 16  9  1  0
 17 10  1  0
 18  2  1  0
 19  4  2  0
 20 23  2  0
 21 25  1  0
 22  7  2  0
 23 14  1  0
 24 22  1  0
 25 18  2  0
 26 16  1  0
 27 17  1  0
 28 17  1  0
 29  4  1  0
 30 18  1  0
 31 30  1  0
 28 16  1  0
 27 15  1  0
 26 15  1  0
 21  5  2  0
 13 14  1  0
  6 20  1  0
  3 32  1  0
  8 33  1  0
  8 34  1  0
  9 35  1  0
  9 36  1  0
 10 37  1  0
 10 38  1  0
 11 39  1  0
 12 40  1  0
 15 41  1  6
 16 42  1  6
 17 43  1  1
 20 44  1  0
 21 45  1  0
 22 46  1  0
 23 47  1  0
 24 48  1  0
 25 49  1  0
 26 50  1  0
 26 51  1  0
 27 52  1  0
 27 53  1  0
 28 54  1  0
 28 55  1  0
 29 56  1  0
 31 57  1  0
 31 58  1  0
 31 59  1  0
M  END
> <Uni-Dock RESULT> 
ENERGY=   -4.956  LOWER_BOUND=    2.732  UPPER_BOUND=    9.278
INTER + INTRA:          -4.956
INTER:                  -4.956
INTRA:                   0.000
UNBOUND:                 0.000

$$$$

     RDKit          3D

 59 64  0  0  0  0  0  0  0  0999 V2000
   45.8879    5.2032   12.5817 C   0  0  2  0  0  0  0  0  0  0  0  0
   47.1046    5.7964   13.3406 C   0  0  0  0  0  0  0  0  0  0  0  0
   47.9534    6.7396   12.7129 C   0  0  0  0  0  0  0  0  0  0  0  0
   53.4486   13.3898   10.5406 C   0  0  0  0  0  0  0  0  0  0  0  0
   49.0698    7.3126   13.3499 C   0  0  0  0  0  0  0  0  0  0  0  0
   52.5966   12.3746   11.2054 C   0  0  0  0  0  0  0  0  0  0  0  0
   49.9234    8.2876   12.6524 C   0  0  0  0  0  0  0  0  0  0  0  0
   45.7337    5.7520   11.1203 C   0  0  0  0  0  0  0  0  0  0  0  0
   44.5548    5.5479   13.3137 C   0  0  0  0  0  0  0  0  0  0  0  0
   46.0191    3.6549   12.4482 C   0  0  0  0  0  0  0  0  0  0  0  0
   52.3837   11.1055   10.6527 C   0  0  0  0  0  0  0  0  0  0  0  0
   50.1507    9.5654   13.1913 C   0  0  0  0  0  0  0  0  0  0  0  0
   51.5701   10.1663   11.3086 C   0  0  0  0  0  0  0  0  0  0  0  0
   50.9636   10.5086   12.5379 C   0  0  0  0  0  0  0  0  0  0  0  0
   44.5201    5.1441   10.3961 C   0  0  2  0  0  0  0  0  0  0  0  0
   43.3435    4.9218   12.5996 C   0  0  1  0  0  0  0  0  0  0  0  0
   44.7945    3.0459   11.7419 C   0  0  2  0  0  0  0  0  0  0  0  0
   47.4212    5.4332   14.6737 C   0  0  0  0  0  0  0  0  0  0  0  0
   53.6817   14.5089   10.9584 O   0  0  0  0  0  0  0  0  0  0  0  0
   51.9940   12.7106   12.4210 C   0  0  0  0  0  0  0  0  0  0  0  0
   49.3432    6.9277   14.6623 C   0  0  0  0  0  0  0  0  0  0  0  0
   50.5332    7.9682   11.4315 C   0  0  0  0  0  0  0  0  0  0  0  0
   51.1837   11.7841   13.0813 C   0  0  0  0  0  0  0  0  0  0  0  0
   51.3456    8.8926   10.7682 C   0  0  0  0  0  0  0  0  0  0  0  0
   48.5312    6.0004   15.3157 C   0  0  0  0  0  0  0  0  0  0  0  0
   43.2441    5.4845   11.1762 C   0  0  0  0  0  0  0  0  0  0  0  0
   44.6857    3.6210   10.3243 C   0  0  0  0  0  0  0  0  0  0  0  0
   43.5243    3.3964   12.5343 C   0  0  0  0  0  0  0  0  0  0  0  0
   53.9715   12.9562    9.3800 O   0  0  0  0  0  0  0  0  0  0  0  0
   46.6013    4.5194   15.2824 O   0  0  0  0  0  0  0  0  0  0  0  0
   46.8898    4.1314   16.6184 C   0  0  0  0  0  0  0  0  0  0  0  0
   47.7558    7.0675   11.6956 H   0  0  0  0  0  0  0  0  0  0  0  0
   46.6346    5.5300   10.5325 H   0  0  0  0  0  0  0  0  0  0  0  0
   45.6170    6.8440   11.1334 H   0  0  0  0  0  0  0  0  0  0  0  0
   44.5523    5.1933   14.3489 H   0  0  0  0  0  0  0  0  0  0  0  0
   44.4304    6.6379   13.3688 H   0  0  0  0  0  0  0  0  0  0  0  0
   46.1198    3.1667   13.4222 H   0  0  0  0  0  0  0  0  0  0  0  0
   46.9315    3.4044   11.8902 H   0  0  0  0  0  0  0  0  0  0  0  0
   52.8518   10.8434    9.7062 H   0  0  0  0  0  0  0  0  0  0  0  0
   49.6741    9.8331   14.1334 H   0  0  0  0  0  0  0  0  0  0  0  0
   44.4520    5.5549    9.3824 H   0  0  0  0  0  0  0  0  0  0  0  0
   42.4282    5.1608   13.1530 H   0  0  0  0  0  0  0  0  0  0  0  0
   44.9063    1.9571   11.6883 H   0  0  0  0  0  0  0  0  0  0  0  0
   52.1517   13.6941   12.8596 H   0  0  0  0  0  0  0  0  0  0  0  0
   50.2029    7.3387   15.1872 H   0  0  0  0  0  0  0  0  0  0  0  0
   50.3876    6.9840   10.9896 H   0  0  0  0  0  0  0  0  0  0  0  0
   50.7241   12.0676   14.0261 H   0  0  0  0  0  0  0  0  0  0  0  0
   51.8036    8.6047    9.8241 H   0  0  0  0  0  0  0  0  0  0  0  0
   48.7986    5.7390   16.3340 H   0  0  0  0  0  0  0  0  0  0  0  0
   42.3680    5.0656   10.6662 H   0  0  0  0  0  0  0  0  0  0  0  0
   43.1025    6.5717   11.2106 H   0  0  0  0  0  0  0  0  0  0  0  0
   43.8315    3.1738    9.8012 H   0  0  0  0  0  0  0  0  0  0  0  0
   45.5820    3.3665    9.7452 H   0  0  0  0  0  0  0  0  0  0  0  0
   42.6493    2.9375   12.0576 H   0  0  0  0  0  0  0  0  0  0  0  0
   43.5879    2.9821   13.5480 H   0  0  0  0  0  0  0  0  0  0  0  0
   54.4993   13.7188    9.0624 H   0  0  0  0  0  0  0  0  0  0  0  0
   46.8245    4.9850   17.3009 H   0  0  0  0  0  0  0  0  0  0  0  0
   46.1318    3.4040   16.9248 H   0  0  0  0  0  0  0  0  0  0  0  0
   47.8660    3.6403   16.6855 H   0  0  0  0  0  0  0  0  0  0  0  0
  1  2  1  1
  3  2  2  0
  4  6  1  0
  5  3  1  0
  6 11  2  0
  7  5  1  0
  8  1  1  0
  9  1  1  0
 10  1  1  0
 11 13  1  0
 12  7  1  0
 13 24  2  0
 14 12  2  0
 15  8  1  0
 16  9  1  0
 17 10  1  0
 18  2  1  0
 19  4  2  0
 20 23  2  0
 21 25  1  0
 22  7  2  0
 23 14  1  0
 24 22  1  0
 25 18  2  0
 26 16  1  0
 27 17  1  0
 28 17  1  0
 29  4  1  0
 30 18  1  0
 31 30  1  0
 28 16  1  0
 27 15  1  0
 26 15  1  0
 21  5  2  0
 13 14  1  0
  6 20  1  0
  3 32  1  0
  8 33  1  0
  8 34  1  0
  9 35  1  0
  9 36  1  0
 10 37  1  0
 10 38  1  0
 11 39  1  0
 12 40  1  0
 15 41  1  6
 16 42  1  6
 17 43  1  1
 20 44  1  0
 21 45  1  0
 22 46  1  0
 23 47  1  0
 24 48  1  0
 25 49  1  0
 26 50  1  0
 26 51  1  0
 27 52  1  0
 27 53  1  0
 28 54  1  0
 28 55  1  0
 29 56  1  0
 31 57  1  0
 31 58  1  0
 31 59  1  0
M  END
> <Uni-Dock RESULT> 
ENERGY=   -4.833  LOWER_BOUND=    4.146  UPPER_BOUND=    5.626
INTER + INTRA:          -4.833
INTER:                  -4.833
INTRA:                   0.000
UNBOUND:                 0.000

$$$$

     RDKit          3D

 59 64  0  0  0  0  0  0  0  0999 V2000
   50.3494   12.6122   11.2995 C   0  0  2  0  0  0  0  0  0  0  0  0
   49.7996   11.7658   12.4783 C   0  0  0  0  0  0  0  0  0  0  0  0
   48.8292   10.7604   12.2506 C   0  0  0  0  0  0  0  0  0  0  0  0
   43.6258    3.5449   12.2629 C   0  0  0  0  0  0  0  0  0  0  0  0
   48.2948    9.9611   13.2781 C   0  0  0  0  0  0  0  0  0  0  0  0
   44.6129    4.6181   12.5316 C   0  0  0  0  0  0  0  0  0  0  0  0
   47.2851    8.9301   12.9896 C   0  0  0  0  0  0  0  0  0  0  0  0
   49.7268   12.2305    9.9112 C   0  0  0  0  0  0  0  0  0  0  0  0
   51.8895   12.4193   11.1481 C   0  0  0  0  0  0  0  0  0  0  0  0
   50.0361   14.1253   11.5100 C   0  0  0  0  0  0  0  0  0  0  0  0
   44.3812    5.9500   12.1655 C   0  0  0  0  0  0  0  0  0  0  0  0
   47.4979    7.5887   13.3503 C   0  0  0  0  0  0  0  0  0  0  0  0
   45.3380    6.9432   12.4347 C   0  0  0  0  0  0  0  0  0  0  0  0
   46.5435    6.5914   13.0822 C   0  0  0  0  0  0  0  0  0  0  0  0
   50.2918   13.0876    8.7654 C   0  0  2  0  0  0  0  0  0  0  0  0
   52.4564   13.2930   10.0148 C   0  0  1  0  0  0  0  0  0  0  0  0
   50.6199   14.9837   10.3735 C   0  0  2  0  0  0  0  0  0  0  0  0
   50.2325   11.9508   13.8154 C   0  0  0  0  0  0  0  0  0  0  0  0
   43.7543    2.3695   12.5517 O   0  0  0  0  0  0  0  0  0  0  0  0
   45.8072    4.2732   13.1706 C   0  0  0  0  0  0  0  0  0  0  0  0
   48.7505   10.1763   14.5786 C   0  0  0  0  0  0  0  0  0  0  0  0
   46.0833    9.2581   12.3471 C   0  0  0  0  0  0  0  0  0  0  0  0
   46.7646    5.2530   13.4433 C   0  0  0  0  0  0  0  0  0  0  0  0
   45.1223    8.2803   12.0735 C   0  0  0  0  0  0  0  0  0  0  0  0
   49.7056   11.1578   14.8446 C   0  0  0  0  0  0  0  0  0  0  0  0
   51.8101   12.8854    8.6849 C   0  0  0  0  0  0  0  0  0  0  0  0
   49.9855   14.5649    9.0414 C   0  0  0  0  0  0  0  0  0  0  0  0
   52.1410   14.7696   10.3048 C   0  0  0  0  0  0  0  0  0  0  0  0
   42.5197    3.9934   11.6433 O   0  0  0  0  0  0  0  0  0  0  0  0
   51.1708   12.9244   14.0378 O   0  0  0  0  0  0  0  0  0  0  0  0
   51.6266   13.1381   15.3665 C   0  0  0  0  0  0  0  0  0  0  0  0
   48.4665   10.5624   11.2452 H   0  0  0  0  0  0  0  0  0  0  0  0
   48.6362   12.3585    9.9342 H   0  0  0  0  0  0  0  0  0  0  0  0
   49.9237   11.1744    9.6824 H   0  0  0  0  0  0  0  0  0  0  0  0
   52.4265   12.6739   12.0668 H   0  0  0  0  0  0  0  0  0  0  0  0
   52.1155   11.3626   10.9505 H   0  0  0  0  0  0  0  0  0  0  0  0
   50.4424   14.5004   12.4543 H   0  0  0  0  0  0  0  0  0  0  0  0
   48.9497   14.2769   11.5686 H   0  0  0  0  0  0  0  0  0  0  0  0
   43.4523    6.2192   11.6674 H   0  0  0  0  0  0  0  0  0  0  0  0
   48.4321    7.3158   13.8393 H   0  0  0  0  0  0  0  0  0  0  0  0
   49.8301   12.7870    7.8180 H   0  0  0  0  0  0  0  0  0  0  0  0
   53.5417   13.1536    9.9528 H   0  0  0  0  0  0  0  0  0  0  0  0
   50.4052   16.0409   10.5655 H   0  0  0  0  0  0  0  0  0  0  0  0
   45.9984    3.2413   13.4591 H   0  0  0  0  0  0  0  0  0  0  0  0
   48.3552    9.5873   15.4034 H   0  0  0  0  0  0  0  0  0  0  0  0
   45.8802   10.2890   12.0625 H   0  0  0  0  0  0  0  0  0  0  0  0
   47.6874    4.9615   13.9410 H   0  0  0  0  0  0  0  0  0  0  0  0
   44.2009    8.5762   11.5762 H   0  0  0  0  0  0  0  0  0  0  0  0
   50.0163   11.2793   15.8768 H   0  0  0  0  0  0  0  0  0  0  0  0
   52.2265   13.4834    7.8651 H   0  0  0  0  0  0  0  0  0  0  0  0
   52.0390   11.8362    8.4614 H   0  0  0  0  0  0  0  0  0  0  0  0
   50.3743   15.1884    8.2269 H   0  0  0  0  0  0  0  0  0  0  0  0
   48.9008   14.7248    9.0745 H   0  0  0  0  0  0  0  0  0  0  0  0
   52.5713   15.4036    9.5198 H   0  0  0  0  0  0  0  0  0  0  0  0
   52.6061   15.0743   11.2503 H   0  0  0  0  0  0  0  0  0  0  0  0
   41.9709    3.1886   11.5336 H   0  0  0  0  0  0  0  0  0  0  0  0
   52.1259   12.2472   15.7612 H   0  0  0  0  0  0  0  0  0  0  0  0
   52.3642   13.9461   15.3394 H   0  0  0  0  0  0  0  0  0  0  0  0
   50.8079   13.4590   16.0186 H   0  0  0  0  0  0  0  0  0  0  0  0
  1  2  1  1
  3  2  2  0
  4  6  1  0
  5  3  1  0
  6 11  2  0
  7  5  1  0
  8  1  1  0
  9  1  1  0
 10  1  1  0
 11 13  1  0
 12  7  1  0
 13 24  2  0
 14 12  2  0
 15  8  1  0
 16  9  1  0
 17 10  1  0
 18  2  1  0
 19  4  2  0
 20 23  2  0
 21 25  1  0
 22  7  2  0
 23 14  1  0
 24 22  1  0
 25 18  2  0
 26 16  1  0
 27 17  1  0
 28 17  1  0
 29  4  1  0
 30 18  1  0
 31 30  1  0
 28 16  1  0
 27 15  1  0
 26 15  1  0
 21  5  2  0
 13 14  1  0
  6 20  1  0
  3 32  1  0
  8 33  1  0
  8 34  1  0
  9 35  1  0
  9 36  1  0
 10 37  1  0
 10 38  1  0
 11 39  1  0
 12 40  1  0
 15 41  1  6
 16 42  1  6
 17 43  1  1
 20 44  1  0
 21 45  1  0
 22 46  1  0
 23 47  1  0
 24 48  1  0
 25 49  1  0
 26 50  1  0
 26 51  1  0
 27 52  1  0
 27 53  1  0
 28 54  1  0
 28 55  1  0
 29 56  1  0
 31 57  1  0
 31 58  1  0
 31 59  1  0
M  END
> <Uni-Dock RESULT> 
ENERGY=   -4.695  LOWER_BOUND=    4.726  UPPER_BOUND=    9.312
INTER + INTRA:          -4.695
INTER:                  -4.695
INTRA:                   0.000
UNBOUND:                 0.000

$$$$

     RDKit          3D

 59 64  0  0  0  0  0  0  0  0999 V2000
   45.4993    5.3410   12.4741 C   0  0  2  0  0  0  0  0  0  0  0  0
   46.6558    6.0517   13.2261 C   0  0  0  0  0  0  0  0  0  0  0  0
   47.1286    7.3132   12.7908 C   0  0  0  0  0  0  0  0  0  0  0  0
   50.3994   15.5411   11.9284 C   0  0  0  0  0  0  0  0  0  0  0  0
   48.1723    8.0060   13.4319 C   0  0  0  0  0  0  0  0  0  0  0  0
   49.9475   14.2030   12.3797 C   0  0  0  0  0  0  0  0  0  0  0  0
   48.6294    9.3148   12.9382 C   0  0  0  0  0  0  0  0  0  0  0  0
   44.9585    6.1537   11.2462 C   0  0  0  0  0  0  0  0  0  0  0  0
   44.2765    5.1208   13.4167 C   0  0  0  0  0  0  0  0  0  0  0  0
   45.9690    3.9663   11.9070 C   0  0  0  0  0  0  0  0  0  0  0  0
   49.9470   13.0918   11.5272 C   0  0  0  0  0  0  0  0  0  0  0  0
   48.6390   10.4413   13.7782 C   0  0  0  0  0  0  0  0  0  0  0  0
   49.5120   11.8372   11.9867 C   0  0  0  0  0  0  0  0  0  0  0  0
   49.0729   11.6989   13.3224 C   0  0  0  0  0  0  0  0  0  0  0  0
   43.8147    5.4219   10.5231 C   0  0  2  0  0  0  0  0  0  0  0  0
   43.1410    4.3705   12.6979 C   0  0  1  0  0  0  0  0  0  0  0  0
   44.8182    3.2263   11.2020 C   0  0  2  0  0  0  0  0  0  0  0  0
   47.2844    5.4872   14.3643 C   0  0  0  0  0  0  0  0  0  0  0  0
   50.4306   16.5499   12.6087 O   0  0  0  0  0  0  0  0  0  0  0  0
   49.5110   14.0630   13.7002 C   0  0  0  0  0  0  0  0  0  0  0  0
   48.7610    7.4141   14.5492 C   0  0  0  0  0  0  0  0  0  0  0  0
   49.0678    9.4734   11.6164 C   0  0  0  0  0  0  0  0  0  0  0  0
   49.0770   12.8202   14.1670 C   0  0  0  0  0  0  0  0  0  0  0  0
   49.5038   10.7156   11.1460 C   0  0  0  0  0  0  0  0  0  0  0  0
   48.3242    6.1716   15.0093 C   0  0  0  0  0  0  0  0  0  0  0  0
   42.6561    5.2023   11.5040 C   0  0  0  0  0  0  0  0  0  0  0  0
   44.3224    4.0657   10.0179 C   0  0  0  0  0  0  0  0  0  0  0  0
   43.6649    3.0146   12.1967 C   0  0  0  0  0  0  0  0  0  0  0  0
   50.7929   15.5551   10.6425 O   0  0  0  0  0  0  0  0  0  0  0  0
   46.8289    4.2656   14.7863 O   0  0  0  0  0  0  0  0  0  0  0  0
   47.4370    3.6694   15.9237 C   0  0  0  0  0  0  0  0  0  0  0  0
   46.6788    7.8035   11.9312 H   0  0  0  0  0  0  0  0  0  0  0  0
   45.7655    6.3346   10.5234 H   0  0  0  0  0  0  0  0  0  0  0  0
   44.5895    7.1357   11.5715 H   0  0  0  0  0  0  0  0  0  0  0  0
   44.5448    4.5461   14.3083 H   0  0  0  0  0  0  0  0  0  0  0  0
   43.9082    6.0890   13.7824 H   0  0  0  0  0  0  0  0  0  0  0  0
   46.3567    3.3100   12.6921 H   0  0  0  0  0  0  0  0  0  0  0  0
   46.7991    4.1168   11.2035 H   0  0  0  0  0  0  0  0  0  0  0  0
   50.2859   13.2000   10.4991 H   0  0  0  0  0  0  0  0  0  0  0  0
   48.2899   10.3370   14.8046 H   0  0  0  0  0  0  0  0  0  0  0  0
   43.4695    6.0245    9.6753 H   0  0  0  0  0  0  0  0  0  0  0  0
   42.3101    4.2095   13.3941 H   0  0  0  0  0  0  0  0  0  0  0  0
   45.1745    2.2555   10.8394 H   0  0  0  0  0  0  0  0  0  0  0  0
   49.5063   14.9197   14.3715 H   0  0  0  0  0  0  0  0  0  0  0  0
   49.5781    7.9114   15.0675 H   0  0  0  0  0  0  0  0  0  0  0  0
   49.0836    8.6202   10.9404 H   0  0  0  0  0  0  0  0  0  0  0  0
   48.7408   12.7347   15.1984 H   0  0  0  0  0  0  0  0  0  0  0  0
   49.8396   10.7965   10.1142 H   0  0  0  0  0  0  0  0  0  0  0  0
   48.8249    5.7624   15.8804 H   0  0  0  0  0  0  0  0  0  0  0  0
   41.8279    4.6897   10.9996 H   0  0  0  0  0  0  0  0  0  0  0  0
   42.2683    6.1679   11.8510 H   0  0  0  0  0  0  0  0  0  0  0  0
   43.5194    3.5358    9.4909 H   0  0  0  0  0  0  0  0  0  0  0  0
   45.1342    4.2130    9.2951 H   0  0  0  0  0  0  0  0  0  0  0  0
   42.8533    2.4572   11.7130 H   0  0  0  0  0  0  0  0  0  0  0  0
   44.0067    2.4076   13.0440 H   0  0  0  0  0  0  0  0  0  0  0  0
   51.0580   16.4864   10.4897 H   0  0  0  0  0  0  0  0  0  0  0  0
   47.2942    4.2859   16.8171 H   0  0  0  0  0  0  0  0  0  0  0  0
   46.9417    2.7098   16.1012 H   0  0  0  0  0  0  0  0  0  0  0  0
   48.4976    3.4663   15.7440 H   0  0  0  0  0  0  0  0  0  0  0  0
  1  2  1  1
  3  2  2  0
  4  6  1  0
  5  3  1  0
  6 11  2  0
  7  5  1  0
  8  1  1  0
  9  1  1  0
 10  1  1  0
 11 13  1  0
 12  7  1  0
 13 24  2  0
 14 12  2  0
 15  8  1  0
 16  9  1  0
 17 10  1  0
 18  2  1  0
 19  4  2  0
 20 23  2  0
 21 25  1  0
 22  7  2  0
 23 14  1  0
 24 22  1  0
 25 18  2  0
 26 16  1  0
 27 17  1  0
 28 17  1  0
 29  4  1  0
 30 18  1  0
 31 30  1  0
 28 16  1  0
 27 15  1  0
 26 15  1  0
 21  5  2  0
 13 14  1  0
  6 20  1  0
  3 32  1  0
  8 33  1  0
  8 34  1  0
  9 35  1  0
  9 36  1  0
 10 37  1  0
 10 38  1  0
 11 39  1  0
 12 40  1  0
 15 41  1  6
 16 42  1  6
 17 43  1  1
 20 44  1  0
 21 45  1  0
 22 46  1  0
 23 47  1  0
 24 48  1  0
 25 49  1  0
 26 50  1  0
 26 51  1  0
 27 52  1  0
 27 53  1  0
 28 54  1  0
 28 55  1  0
 29 56  1  0
 31 57  1  0
 31 58  1  0
 31 59  1  0
M  END
> <Uni-Dock RESULT> 
ENERGY=   -4.692  LOWER_BOUND=    3.877  UPPER_BOUND=    6.339
INTER + INTRA:          -4.692
INTER:                  -4.692
INTRA:                   0.000
UNBOUND:                 0.000

$$$$

     RDKit          3D

 59 64  0  0  0  0  0  0  0  0999 V2000
   45.9329   15.7639   14.0861 C   0  0  2  0  0  0  0  0  0  0  0  0
   47.1469   15.0313   14.7168 C   0  0  0  0  0  0  0  0  0  0  0  0
   46.9768   14.2055   15.8542 C   0  0  0  0  0  0  0  0  0  0  0  0
   47.3226    7.9873   22.2067 C   0  0  0  0  0  0  0  0  0  0  0  0
   48.0383   13.5156   16.4688 C   0  0  0  0  0  0  0  0  0  0  0  0
   47.5318    8.8774   21.0395 C   0  0  0  0  0  0  0  0  0  0  0  0
   47.8097   12.6710   17.6520 C   0  0  0  0  0  0  0  0  0  0  0  0
   44.5794   15.4860   14.8287 C   0  0  0  0  0  0  0  0  0  0  0  0
   45.7154   15.3093   12.6103 C   0  0  0  0  0  0  0  0  0  0  0  0
   46.1363   17.3096   14.1264 C   0  0  0  0  0  0  0  0  0  0  0  0
   47.1580   10.2269   21.0572 C   0  0  0  0  0  0  0  0  0  0  0  0
   48.1791   11.3151   17.6548 C   0  0  0  0  0  0  0  0  0  0  0  0
   47.3703   11.0434   19.9334 C   0  0  0  0  0  0  0  0  0  0  0  0
   47.9679   10.4943   18.7769 C   0  0  0  0  0  0  0  0  0  0  0  0
   43.3976   16.2269   14.1796 C   0  0  2  0  0  0  0  0  0  0  0  0
   44.5458   16.0662   11.9559 C   0  0  1  0  0  0  0  0  0  0  0  0
   44.9629   18.0484   13.4581 C   0  0  2  0  0  0  0  0  0  0  0  0
   48.4605   15.1475   14.1970 C   0  0  0  0  0  0  0  0  0  0  0  0
   47.6217    6.8091   22.2675 O   0  0  0  0  0  0  0  0  0  0  0  0
   48.1215    8.3369   19.8932 C   0  0  0  0  0  0  0  0  0  0  0  0
   49.3139   13.6575   15.9230 C   0  0  0  0  0  0  0  0  0  0  0  0
   47.2172   13.1959   18.8088 C   0  0  0  0  0  0  0  0  0  0  0  0
   48.3373    9.1400   18.7709 C   0  0  0  0  0  0  0  0  0  0  0  0
   47.0006   12.3954   19.9342 C   0  0  0  0  0  0  0  0  0  0  0  0
   49.5232   14.4626   14.8031 C   0  0  0  0  0  0  0  0  0  0  0  0
   43.2520   15.7672   12.7235 C   0  0  0  0  0  0  0  0  0  0  0  0
   43.6665   17.7364   14.2160 C   0  0  0  0  0  0  0  0  0  0  0  0
   44.8290   17.5767   12.0008 C   0  0  0  0  0  0  0  0  0  0  0  0
   46.7470    8.6148   23.2477 O   0  0  0  0  0  0  0  0  0  0  0  0
   48.6271   15.9474   13.0969 O   0  0  0  0  0  0  0  0  0  0  0  0
   49.9309   16.0879   12.5500 C   0  0  0  0  0  0  0  0  0  0  0  0
   45.9916   14.0663   16.2917 H   0  0  0  0  0  0  0  0  0  0  0  0
   44.6495   15.7990   15.8791 H   0  0  0  0  0  0  0  0  0  0  0  0
   44.3567   14.4105   14.8258 H   0  0  0  0  0  0  0  0  0  0  0  0
   46.6055   15.4738   11.9955 H   0  0  0  0  0  0  0  0  0  0  0  0
   45.5225   14.2284   12.5774 H   0  0  0  0  0  0  0  0  0  0  0  0
   47.0560   17.6153   13.6185 H   0  0  0  0  0  0  0  0  0  0  0  0
   46.2413   17.6452   15.1670 H   0  0  0  0  0  0  0  0  0  0  0  0
   46.6984   10.6482   21.9487 H   0  0  0  0  0  0  0  0  0  0  0  0
   48.6295   10.8892   16.7592 H   0  0  0  0  0  0  0  0  0  0  0  0
   42.4762   16.0040   14.7294 H   0  0  0  0  0  0  0  0  0  0  0  0
   44.4371   15.7427   10.9144 H   0  0  0  0  0  0  0  0  0  0  0  0
   45.1496   19.1280   13.4800 H   0  0  0  0  0  0  0  0  0  0  0  0
   48.4153    7.2893   19.8678 H   0  0  0  0  0  0  0  0  0  0  0  0
   50.1638   13.1498   16.3743 H   0  0  0  0  0  0  0  0  0  0  0  0
   46.9277   14.2447   18.8459 H   0  0  0  0  0  0  0  0  0  0  0  0
   48.7971    8.6979   17.8892 H   0  0  0  0  0  0  0  0  0  0  0  0
   46.5410   12.8417   20.8137 H   0  0  0  0  0  0  0  0  0  0  0  0
   50.5387   14.5353   14.4285 H   0  0  0  0  0  0  0  0  0  0  0  0
   42.4061   16.2802   12.2497 H   0  0  0  0  0  0  0  0  0  0  0  0
   43.0331   14.6930   12.6878 H   0  0  0  0  0  0  0  0  0  0  0  0
   42.8268   18.2792   13.7648 H   0  0  0  0  0  0  0  0  0  0  0  0
   43.7460   18.0799   15.2547 H   0  0  0  0  0  0  0  0  0  0  0  0
   44.0168   18.1230   11.5055 H   0  0  0  0  0  0  0  0  0  0  0  0
   45.7484   17.8030   11.4470 H   0  0  0  0  0  0  0  0  0  0  0  0
   46.6732    7.9152   23.9302 H   0  0  0  0  0  0  0  0  0  0  0  0
   50.3152   15.1271   12.1924 H   0  0  0  0  0  0  0  0  0  0  0  0
   49.8595   16.7575   11.6874 H   0  0  0  0  0  0  0  0  0  0  0  0
   50.6145   16.5481   13.2707 H   0  0  0  0  0  0  0  0  0  0  0  0
  1  2  1  1
  3  2  2  0
  4  6  1  0
  5  3  1  0
  6 11  2  0
  7  5  1  0
  8  1  1  0
  9  1  1  0
 10  1  1  0
 11 13  1  0
 12  7  1  0
 13 24  2  0
 14 12  2  0
 15  8  1  0
 16  9  1  0
 17 10  1  0
 18  2  1  0
 19  4  2  0
 20 23  2  0
 21 25  1  0
 22  7  2  0
 23 14  1  0
 24 22  1  0
 25 18  2  0
 26 16  1  0
 27 17  1  0
 28 17  1  0
 29  4  1  0
 30 18  1  0
 31 30  1  0
 28 16  1  0
 27 15  1  0
 26 15  1  0
 21  5  2  0
 13 14  1  0
  6 20  1  0
  3 32  1  0
  8 33  1  0
  8 34  1  0
  9 35  1  0
  9 36  1  0
 10 37  1  0
 10 38  1  0
 11 39  1  0
 12 40  1  0
 15 41  1  6
 16 42  1  6
 17 43  1  1
 20 44  1  0
 21 45  1  0
 22 46  1  0
 23 47  1  0
 24 48  1  0
 25 49  1  0
 26 50  1  0
 26 51  1  0
 27 52  1  0
 27 53  1  0
 28 54  1  0
 28 55  1  0
 29 56  1  0
 31 57  1  0
 31 58  1  0
 31 59  1  0
M  END
> <Uni-Dock RESULT> 
ENERGY=   -4.670  LOWER_BOUND=    7.261  UPPER_BOUND=    9.277
INTER + INTRA:          -4.670
INTER:                  -4.670
INTRA:                   0.000
UNBOUND:                 0.000

$$$$

     RDKit          3D

 59 64  0  0  0  0  0  0  0  0999 V2000
   53.6597    8.8924   13.5381 C   0  0  2  0  0  0  0  0  0  0  0  0
   52.5348    8.2686   14.4063 C   0  0  0  0  0  0  0  0  0  0  0  0
   51.2221    8.1333   13.8937 C   0  0  0  0  0  0  0  0  0  0  0  0
   42.9376    5.6972   11.7554 C   0  0  0  0  0  0  0  0  0  0  0  0
   50.1622    7.5752   14.6323 C   0  0  0  0  0  0  0  0  0  0  0  0
   44.2952    5.8639   12.3277 C   0  0  0  0  0  0  0  0  0  0  0  0
   48.8137    7.4592   14.0545 C   0  0  0  0  0  0  0  0  0  0  0  0
   53.1797    9.3256   12.1089 C   0  0  0  0  0  0  0  0  0  0  0  0
   54.8174    7.8722   13.3125 C   0  0  0  0  0  0  0  0  0  0  0  0
   54.2286   10.1799   14.2095 C   0  0  0  0  0  0  0  0  0  0  0  0
   44.9260    7.1126   12.3935 C   0  0  0  0  0  0  0  0  0  0  0  0
   48.1632    6.2157   13.9808 C   0  0  0  0  0  0  0  0  0  0  0  0
   46.2137    7.2360   12.9421 C   0  0  0  0  0  0  0  0  0  0  0  0
   46.8748    6.0875   13.4320 C   0  0  0  0  0  0  0  0  0  0  0  0
   54.3173    9.9402   11.2752 C   0  0  2  0  0  0  0  0  0  0  0  0
   55.9638    8.4950   12.4957 C   0  0  1  0  0  0  0  0  0  0  0  0
   55.3804   10.7818   13.3847 C   0  0  2  0  0  0  0  0  0  0  0  0
   52.7592    7.8106   15.7289 C   0  0  0  0  0  0  0  0  0  0  0  0
   42.3255    4.6490   11.6658 O   0  0  0  0  0  0  0  0  0  0  0  0
   44.9526    4.7294   12.8120 C   0  0  0  0  0  0  0  0  0  0  0  0
   50.4284    7.1360   15.9290 C   0  0  0  0  0  0  0  0  0  0  0  0
   48.1413    8.5860   13.5618 C   0  0  0  0  0  0  0  0  0  0  0  0
   46.2326    4.8413   13.3596 C   0  0  0  0  0  0  0  0  0  0  0  0
   46.8596    8.4780   13.0139 C   0  0  0  0  0  0  0  0  0  0  0  0
   51.7086    7.2523   16.4709 C   0  0  0  0  0  0  0  0  0  0  0  0
   55.4400    8.9076   11.1144 C   0  0  0  0  0  0  0  0  0  0  0  0
   54.8603   11.1793   11.9977 C   0  0  0  0  0  0  0  0  0  0  0  0
   56.4967    9.7355   13.2314 C   0  0  0  0  0  0  0  0  0  0  0  0
   42.4066    6.8536   11.3204 O   0  0  0  0  0  0  0  0  0  0  0  0
   54.0289    7.9419   16.2271 O   0  0  0  0  0  0  0  0  0  0  0  0
   54.2895    7.4943   17.5502 C   0  0  0  0  0  0  0  0  0  0  0  0
   50.9900    8.4547   12.8816 H   0  0  0  0  0  0  0  0  0  0  0  0
   52.3695   10.0631   12.1860 H   0  0  0  0  0  0  0  0  0  0  0  0
   52.7792    8.4609   11.5628 H   0  0  0  0  0  0  0  0  0  0  0  0
   55.2369    7.5131   14.2571 H   0  0  0  0  0  0  0  0  0  0  0  0
   54.4347    6.9818   12.7954 H   0  0  0  0  0  0  0  0  0  0  0  0
   54.6066    9.9836   15.2174 H   0  0  0  0  0  0  0  0  0  0  0  0
   53.4290   10.9237   14.3276 H   0  0  0  0  0  0  0  0  0  0  0  0
   44.4154    7.9960   12.0161 H   0  0  0  0  0  0  0  0  0  0  0  0
   48.6774    5.3287   14.3483 H   0  0  0  0  0  0  0  0  0  0  0  0
   53.9373   10.2269   10.2881 H   0  0  0  0  0  0  0  0  0  0  0  0
   56.7701    7.7621   12.3781 H   0  0  0  0  0  0  0  0  0  0  0  0
   55.7737   11.6674   13.8965 H   0  0  0  0  0  0  0  0  0  0  0  0
   44.4724    3.7538   12.7653 H   0  0  0  0  0  0  0  0  0  0  0  0
   49.6345    6.7083   16.5376 H   0  0  0  0  0  0  0  0  0  0  0  0
   48.6107    9.5670   13.6119 H   0  0  0  0  0  0  0  0  0  0  0  0
   46.7258    3.9447   13.7298 H   0  0  0  0  0  0  0  0  0  0  0  0
   46.3701    9.3771   12.6455 H   0  0  0  0  0  0  0  0  0  0  0  0
   51.8509    6.8962   17.4857 H   0  0  0  0  0  0  0  0  0  0  0  0
   56.2551    9.3284   10.5131 H   0  0  0  0  0  0  0  0  0  0  0  0
   55.0682    8.0278   10.5750 H   0  0  0  0  0  0  0  0  0  0  0  0
   55.6667   11.6346   11.4096 H   0  0  0  0  0  0  0  0  0  0  0  0
   54.0712   11.9350   12.0942 H   0  0  0  0  0  0  0  0  0  0  0  0
   57.3374   10.1667   12.6741 H   0  0  0  0  0  0  0  0  0  0  0  0
   56.8820    9.4504   14.2180 H   0  0  0  0  0  0  0  0  0  0  0  0
   41.5271    6.5917   10.9757 H   0  0  0  0  0  0  0  0  0  0  0  0
   54.1192    6.4168   17.6437 H   0  0  0  0  0  0  0  0  0  0  0  0
   55.3464    7.6820   17.7629 H   0  0  0  0  0  0  0  0  0  0  0  0
   53.6997    8.0567   18.2812 H   0  0  0  0  0  0  0  0  0  0  0  0
  1  2  1  1
  3  2  2  0
  4  6  1  0
  5  3  1  0
  6 11  2  0
  7  5  1  0
  8  1  1  0
  9  1  1  0
 10  1  1  0
 11 13  1  0
 12  7  1  0
 13 24  2  0
 14 12  2  0
 15  8  1  0
 16  9  1  0
 17 10  1  0
 18  2  1  0
 19  4  2  0
 20 23  2  0
 21 25  1  0
 22  7  2  0
 23 14  1  0
 24 22  1  0
 25 18  2  0
 26 16  1  0
 27 17  1  0
 28 17  1  0
 29  4  1  0
 30 18  1  0
 31 30  1  0
 28 16  1  0
 27 15  1  0
 26 15  1  0
 21  5  2  0
 13 14  1  0
  6 20  1  0
  3 32  1  0
  8 33  1  0
  8 34  1  0
  9 35  1  0
  9 36  1  0
 10 37  1  0
 10 38  1  0
 11 39  1  0
 12 40  1  0
 15 41  1  6
 16 42  1  6
 17 43  1  1
 20 44  1  0
 21 45  1  0
 22 46  1  0
 23 47  1  0
 24 48  1  0
 25 49  1  0
 26 50  1  0
 26 51  1  0
 27 52  1  0
 27 53  1  0
 28 54  1  0
 28 55  1  0
 29 56  1  0
 31 57  1  0
 31 58  1  0
 31 59  1  0
M  END
> <Uni-Dock RESULT> 
ENERGY=   -4.649  LOWER_BOUND=    2.726  UPPER_BOUND=    9.737
INTER + INTRA:          -4.649
INTER:                  -4.649
INTRA:                   0.000
UNBOUND:                 0.000

$$$$

     RDKit          3D

 59 64  0  0  0  0  0  0  0  0999 V2000
   53.6213    9.3688   10.6220 C   0  0  2  0  0  0  0  0  0  0  0  0
   52.8299    8.9788   11.8986 C   0  0  0  0  0  0  0  0  0  0  0  0
   51.4642    8.6149   11.8149 C   0  0  0  0  0  0  0  0  0  0  0  0
   43.3213    5.1555   12.7454 C   0  0  0  0  0  0  0  0  0  0  0  0
   50.6956    8.2511   12.9361 C   0  0  0  0  0  0  0  0  0  0  0  0
   44.7400    5.5703   12.8631 C   0  0  0  0  0  0  0  0  0  0  0  0
   49.2775    7.8833   12.7965 C   0  0  0  0  0  0  0  0  0  0  0  0
   52.7623    9.3104    9.3108 C   0  0  0  0  0  0  0  0  0  0  0  0
   54.8209    8.3987   10.3943 C   0  0  0  0  0  0  0  0  0  0  0  0
   54.1518   10.8318   10.7240 C   0  0  0  0  0  0  0  0  0  0  0  0
   45.1920    6.8130   12.4018 C   0  0  0  0  0  0  0  0  0  0  0  0
   48.8040    6.6420   13.2544 C   0  0  0  0  0  0  0  0  0  0  0  0
   46.5437    7.1752   12.5286 C   0  0  0  0  0  0  0  0  0  0  0  0
   47.4523    6.2751   13.1289 C   0  0  0  0  0  0  0  0  0  0  0  0
   53.5755    9.7031    8.0653 C   0  0  2  0  0  0  0  0  0  0  0  0
   55.6454    8.8049    9.1596 C   0  0  1  0  0  0  0  0  0  0  0  0
   54.9825   11.2161    9.4865 C   0  0  2  0  0  0  0  0  0  0  0  0
   53.4212    8.9657   13.1868 C   0  0  0  0  0  0  0  0  0  0  0  0
   42.8545    4.0968   13.1230 O   0  0  0  0  0  0  0  0  0  0  0  0
   45.6418    4.6815   13.4552 C   0  0  0  0  0  0  0  0  0  0  0  0
   51.3185    8.2504   14.1841 C   0  0  0  0  0  0  0  0  0  0  0  0
   48.3603    8.7613   12.2029 C   0  0  0  0  0  0  0  0  0  0  0  0
   46.9875    5.0321   13.5865 C   0  0  0  0  0  0  0  0  0  0  0  0
   47.0125    8.4143   12.0707 C   0  0  0  0  0  0  0  0  0  0  0  0
   52.6623    8.6033   14.3087 C   0  0  0  0  0  0  0  0  0  0  0  0
   54.7584    8.7391    7.9101 C   0  0  0  0  0  0  0  0  0  0  0  0
   54.0997   11.1344    8.2349 C   0  0  0  0  0  0  0  0  0  0  0  0
   56.1628   10.2411    9.3438 C   0  0  0  0  0  0  0  0  0  0  0  0
   42.5498    6.0877   12.1587 O   0  0  0  0  0  0  0  0  0  0  0  0
   54.7426    9.3188   13.2699 O   0  0  0  0  0  0  0  0  0  0  0  0
   55.3674    9.3179   14.5459 C   0  0  0  0  0  0  0  0  0  0  0  0
   50.9576    8.5938   10.8534 H   0  0  0  0  0  0  0  0  0  0  0  0
   51.9005    9.9867    9.3891 H   0  0  0  0  0  0  0  0  0  0  0  0
   52.3659    8.2974    9.1595 H   0  0  0  0  0  0  0  0  0  0  0  0
   55.4970    8.3742   11.2542 H   0  0  0  0  0  0  0  0  0  0  0  0
   54.4519    7.3713   10.2723 H   0  0  0  0  0  0  0  0  0  0  0  0
   54.7807   10.9790   11.6073 H   0  0  0  0  0  0  0  0  0  0  0  0
   53.3090   11.5274   10.8355 H   0  0  0  0  0  0  0  0  0  0  0  0
   44.4909    7.5050   11.9401 H   0  0  0  0  0  0  0  0  0  0  0  0
   49.5068    5.9437   13.7070 H   0  0  0  0  0  0  0  0  0  0  0  0
   52.9373    9.6480    7.1761 H   0  0  0  0  0  0  0  0  0  0  0  0
   56.4932    8.1202    9.0438 H   0  0  0  0  0  0  0  0  0  0  0  0
   55.3610   12.2379    9.6021 H   0  0  0  0  0  0  0  0  0  0  0  0
   45.3020    3.7128   13.8167 H   0  0  0  0  0  0  0  0  0  0  0  0
   50.7572    7.9857   15.0777 H   0  0  0  0  0  0  0  0  0  0  0  0
   48.6898    9.7356   11.8460 H   0  0  0  0  0  0  0  0  0  0  0  0
   47.6719    4.3242   14.0499 H   0  0  0  0  0  0  0  0  0  0  0  0
   46.3316    9.1253   11.6072 H   0  0  0  0  0  0  0  0  0  0  0  0
   53.0879    8.5871   15.3065 H   0  0  0  0  0  0  0  0  0  0  0  0
   55.3428    9.0007    7.0195 H   0  0  0  0  0  0  0  0  0  0  0  0
   54.3932    7.7155    7.7616 H   0  0  0  0  0  0  0  0  0  0  0  0
   54.6741   11.4323    7.3491 H   0  0  0  0  0  0  0  0  0  0  0  0
   53.2602   11.8353    8.3203 H   0  0  0  0  0  0  0  0  0  0  0  0
   56.7809   10.5276    8.4840 H   0  0  0  0  0  0  0  0  0  0  0  0
   56.8059   10.2977   10.2306 H   0  0  0  0  0  0  0  0  0  0  0  0
   41.6580    5.6810   12.1500 H   0  0  0  0  0  0  0  0  0  0  0  0
   55.3728    8.3140   14.9827 H   0  0  0  0  0  0  0  0  0  0  0  0
   56.4088    9.6239   14.4068 H   0  0  0  0  0  0  0  0  0  0  0  0
   54.8962   10.0430   15.2174 H   0  0  0  0  0  0  0  0  0  0  0  0
  1  2  1  1
  3  2  2  0
  4  6  1  0
  5  3  1  0
  6 11  2  0
  7  5  1  0
  8  1  1  0
  9  1  1  0
 10  1  1  0
 11 13  1  0
 12  7  1  0
 13 24  2  0
 14 12  2  0
 15  8  1  0
 16  9  1  0
 17 10  1  0
 18  2  1  0
 19  4  2  0
 20 23  2  0
 21 25  1  0
 22  7  2  0
 23 14  1  0
 24 22  1  0
 25 18  2  0
 26 16  1  0
 27 17  1  0
 28 17  1  0
 29  4  1  0
 30 18  1  0
 31 30  1  0
 28 16  1  0
 27 15  1  0
 26 15  1  0
 21  5  2  0
 13 14  1  0
  6 20  1  0
  3 32  1  0
  8 33  1  0
  8 34  1  0
  9 35  1  0
  9 36  1  0
 10 37  1  0
 10 38  1  0
 11 39  1  0
 12 40  1  0
 15 41  1  6
 16 42  1  6
 17 43  1  1
 20 44  1  0
 21 45  1  0
 22 46  1  0
 23 47  1  0
 24 48  1  0
 25 49  1  0
 26 50  1  0
 26 51  1  0
 27 52  1  0
 27 53  1  0
 28 54  1  0
 28 55  1  0
 29 56  1  0
 31 57  1  0
 31 58  1  0
 31 59  1  0
M  END
> <Uni-Dock RESULT> 
ENERGY=   -4.549  LOWER_BOUND=    4.408  UPPER_BOUND=    9.570
INTER + INTRA:          -4.549
INTER:                  -4.549
INTRA:                   0.000
UNBOUND:                 0.000

$$$$

     RDKit          3D

 59 64  0  0  0  0  0  0  0  0999 V2000
   49.3554   12.4523   16.1245 C   0  0  2  0  0  0  0  0  0  0  0  0
   49.1217   11.8622   14.7083 C   0  0  0  0  0  0  0  0  0  0  0  0
   48.4863   10.6072   14.5482 C   0  0  0  0  0  0  0  0  0  0  0  0
   43.7981    3.5125   11.9356 C   0  0  0  0  0  0  0  0  0  0  0  0
   48.2463   10.0221   13.2910 C   0  0  0  0  0  0  0  0  0  0  0  0
   44.5003    4.8104   12.0798 C   0  0  0  0  0  0  0  0  0  0  0  0
   47.5840    8.7128   13.1780 C   0  0  0  0  0  0  0  0  0  0  0  0
   48.8283   11.5324   17.2806 C   0  0  0  0  0  0  0  0  0  0  0  0
   48.6151   13.8151   16.2873 C   0  0  0  0  0  0  0  0  0  0  0  0
   50.8776   12.6551   16.3961 C   0  0  0  0  0  0  0  0  0  0  0  0
   45.6673    4.9436   12.8425 C   0  0  0  0  0  0  0  0  0  0  0  0
   46.4131    8.5581   12.4163 C   0  0  0  0  0  0  0  0  0  0  0  0
   46.3083    6.1886   12.9588 C   0  0  0  0  0  0  0  0  0  0  0  0
   45.7680    7.3143   12.2977 C   0  0  0  0  0  0  0  0  0  0  0  0
   49.0760   12.1453   18.6698 C   0  0  2  0  0  0  0  0  0  0  0  0
   48.8804   14.4370   17.6701 C   0  0  1  0  0  0  0  0  0  0  0  0
   51.1226   13.2876   17.7779 C   0  0  2  0  0  0  0  0  0  0  0  0
   49.5225   12.5356   13.5272 C   0  0  0  0  0  0  0  0  0  0  0  0
   42.7842    3.3183   11.2909 O   0  0  0  0  0  0  0  0  0  0  0  0
   43.9676    5.9264   11.4282 C   0  0  0  0  0  0  0  0  0  0  0  0
   48.6559   10.7205   12.1554 C   0  0  0  0  0  0  0  0  0  0  0  0
   48.1030    7.5841   13.8269 C   0  0  0  0  0  0  0  0  0  0  0  0
   44.5973    7.1684   11.5371 C   0  0  0  0  0  0  0  0  0  0  0  0
   47.4760    6.3391   13.7194 C   0  0  0  0  0  0  0  0  0  0  0  0
   49.2860   11.9598   12.2709 C   0  0  0  0  0  0  0  0  0  0  0  0
   48.3549   13.4960   18.7615 C   0  0  0  0  0  0  0  0  0  0  0  0
   50.5824   12.3541   18.8684 C   0  0  0  0  0  0  0  0  0  0  0  0
   50.3934   14.6390   17.8549 C   0  0  0  0  0  0  0  0  0  0  0  0
   44.3991    2.5141   12.6068 O   0  0  0  0  0  0  0  0  0  0  0  0
   50.1388   13.7499   13.6804 O   0  0  0  0  0  0  0  0  0  0  0  0
   50.5551   14.4523   12.5177 C   0  0  0  0  0  0  0  0  0  0  0  0
   48.1448   10.0479   15.4154 H   0  0  0  0  0  0  0  0  0  0  0  0
   49.3208   10.5515   17.2421 H   0  0  0  0  0  0  0  0  0  0  0  0
   47.7499   11.3576   17.1672 H   0  0  0  0  0  0  0  0  0  0  0  0
   48.9232   14.5419   15.5296 H   0  0  0  0  0  0  0  0  0  0  0  0
   47.5351   13.6724   16.1458 H   0  0  0  0  0  0  0  0  0  0  0  0
   51.3454   13.3001   15.6461 H   0  0  0  0  0  0  0  0  0  0  0  0
   51.3999   11.6909   16.3318 H   0  0  0  0  0  0  0  0  0  0  0  0
   46.0822    4.0757   13.3506 H   0  0  0  0  0  0  0  0  0  0  0  0
   45.9906    9.4284   11.9158 H   0  0  0  0  0  0  0  0  0  0  0  0
   48.6928   11.4707   19.4438 H   0  0  0  0  0  0  0  0  0  0  0  0
   48.3684   15.4033   17.7416 H   0  0  0  0  0  0  0  0  0  0  0  0
   52.1976   13.4403   17.9256 H   0  0  0  0  0  0  0  0  0  0  0  0
   43.0607    5.8349   10.8334 H   0  0  0  0  0  0  0  0  0  0  0  0
   48.4988   10.2985   11.1650 H   0  0  0  0  0  0  0  0  0  0  0  0
   49.0141    7.6646   14.4172 H   0  0  0  0  0  0  0  0  0  0  0  0
   44.1644    8.0237   11.0219 H   0  0  0  0  0  0  0  0  0  0  0  0
   47.9125    5.4866   14.2358 H   0  0  0  0  0  0  0  0  0  0  0  0
   49.5843   12.4511   11.3509 H   0  0  0  0  0  0  0  0  0  0  0  0
   48.5143   13.9414   19.7511 H   0  0  0  0  0  0  0  0  0  0  0  0
   47.2733   13.3541   18.6470 H   0  0  0  0  0  0  0  0  0  0  0  0
   50.7755   12.7821   19.8598 H   0  0  0  0  0  0  0  0  0  0  0  0
   51.1043   11.3900   18.8309 H   0  0  0  0  0  0  0  0  0  0  0  0
   50.5902   15.1139   18.8240 H   0  0  0  0  0  0  0  0  0  0  0  0
   50.7785   15.3178   17.0841 H   0  0  0  0  0  0  0  0  0  0  0  0
   43.8336    1.7350   12.4221 H   0  0  0  0  0  0  0  0  0  0  0  0
   49.7001   14.7100   11.8842 H   0  0  0  0  0  0  0  0  0  0  0  0
   51.0200   15.3881   12.8428 H   0  0  0  0  0  0  0  0  0  0  0  0
   51.3078   13.8846   11.9611 H   0  0  0  0  0  0  0  0  0  0  0  0
  1  2  1  1
  3  2  2  0
  4  6  1  0
  5  3  1  0
  6 11  2  0
  7  5  1  0
  8  1  1  0
  9  1  1  0
 10  1  1  0
 11 13  1  0
 12  7  1  0
 13 24  2  0
 14 12  2  0
 15  8  1  0
 16  9  1  0
 17 10  1  0
 18  2  1  0
 19  4  2  0
 20 23  2  0
 21 25  1  0
 22  7  2  0
 23 14  1  0
 24 22  1  0
 25 18  2  0
 26 16  1  0
 27 17  1  0
 28 17  1  0
 29  4  1  0
 30 18  1  0
 31 30  1  0
 28 16  1  0
 27 15  1  0
 26 15  1  0
 21  5  2  0
 13 14  1  0
  6 20  1  0
  3 32  1  0
  8 33  1  0
  8 34  1  0
  9 35  1  0
  9 36  1  0
 10 37  1  0
 10 38  1  0
 11 39  1  0
 12 40  1  0
 15 41  1  6
 16 42  1  6
 17 43  1  1
 20 44  1  0
 21 45  1  0
 22 46  1  0
 23 47  1  0
 24 48  1  0
 25 49  1  0
 26 50  1  0
 26 51  1  0
 27 52  1  0
 27 53  1  0
 28 54  1  0
 28 55  1  0
 29 56  1  0
 31 57  1  0
 31 58  1  0
 31 59  1  0
M  END
> <Uni-Dock RESULT> 
ENERGY=   -4.447  LOWER_BOUND=    4.401  UPPER_BOUND=    9.427
INTER + INTRA:          -4.447
INTER:                  -4.447
INTRA:                   0.000
UNBOUND:                 0.000

$$$$
