
     RDKit          3D

 59 64  0  0  0  0  0  0  0  0999 V2000
   45.6610    5.3176   12.3281 C   0  0  2  0  0  0  0  0  0  0  0  0
   46.8901    6.0198   12.9639 C   0  0  0  0  0  0  0  0  0  0  0  0
   47.5405    7.0811   12.2895 C   0  0  0  0  0  0  0  0  0  0  0  0
   53.2036   13.0393    8.8880 C   0  0  0  0  0  0  0  0  0  0  0  0
   48.6589    7.7548   12.8145 C   0  0  0  0  0  0  0  0  0  0  0  0
   52.5156   11.9560    9.6306 C   0  0  0  0  0  0  0  0  0  0  0  0
   49.2981    8.8547   12.0746 C   0  0  0  0  0  0  0  0  0  0  0  0
   44.4025    5.4736   13.2357 C   0  0  0  0  0  0  0  0  0  0  0  0
   45.9460    3.8022   12.0955 C   0  0  0  0  0  0  0  0  0  0  0  0
   45.2606    5.9024   10.9287 C   0  0  0  0  0  0  0  0  0  0  0  0
   51.1522   12.0198    9.9445 C   0  0  0  0  0  0  0  0  0  0  0  0
   50.6650    8.8104   11.7515 C   0  0  0  0  0  0  0  0  0  0  0  0
   50.5303   10.9756   10.6497 C   0  0  0  0  0  0  0  0  0  0  0  0
   51.2912    9.8528   11.0452 C   0  0  0  0  0  0  0  0  0  0  0  0
   43.1871    4.7385   12.6427 C   0  0  2  0  0  0  0  0  0  0  0  0
   44.7166    3.0821   11.5127 C   0  0  1  0  0  0  0  0  0  0  0  0
   44.0395    5.1856   10.3271 C   0  0  2  0  0  0  0  0  0  0  0  0
   47.4147    5.6421   14.2254 C   0  0  0  0  0  0  0  0  0  0  0  0
   54.3814   13.0565    8.5812 O   0  0  0  0  0  0  0  0  0  0  0  0
   53.2651   10.8432   10.0222 C   0  0  0  0  0  0  0  0  0  0  0  0
   49.1427    7.3491   14.0582 C   0  0  0  0  0  0  0  0  0  0  0  0
   48.5608    9.9768   11.6721 C   0  0  0  0  0  0  0  0  0  0  0  0
   52.6567    9.8000   10.7239 C   0  0  0  0  0  0  0  0  0  0  0  0
   49.1666   11.0233   10.9704 C   0  0  0  0  0  0  0  0  0  0  0  0
   48.5294    6.3076   14.7549 C   0  0  0  0  0  0  0  0  0  0  0  0
   43.5273    3.2488   12.4728 C   0  0  0  0  0  0  0  0  0  0  0  0
   42.8441    5.3422   11.2751 C   0  0  0  0  0  0  0  0  0  0  0  0
   44.3636    3.6967   10.1525 C   0  0  0  0  0  0  0  0  0  0  0  0
   52.3838   14.0543    8.5626 O   0  0  0  0  0  0  0  0  0  0  0  0
   46.7857    4.6158   14.8803 O   0  0  0  0  0  0  0  0  0  0  0  0
   47.2841    4.2115   16.1479 C   0  0  0  0  0  0  0  0  0  0  0  0
   47.1930    7.4086   11.3130 H   0  0  0  0  0  0  0  0  0  0  0  0
   44.1651    6.5384   13.3648 H   0  0  0  0  0  0  0  0  0  0  0  0
   44.5721    5.0801   14.2426 H   0  0  0  0  0  0  0  0  0  0  0  0
   46.8018    3.6831   11.4172 H   0  0  0  0  0  0  0  0  0  0  0  0
   46.2245    3.2907   13.0219 H   0  0  0  0  0  0  0  0  0  0  0  0
   45.0263    6.9720   11.0154 H   0  0  0  0  0  0  0  0  0  0  0  0
   46.0975    5.8107   10.2235 H   0  0  0  0  0  0  0  0  0  0  0  0
   50.5678   12.8854    9.6395 H   0  0  0  0  0  0  0  0  0  0  0  0
   51.2489    7.9396   12.0468 H   0  0  0  0  0  0  0  0  0  0  0  0
   42.3295    4.8458   13.3164 H   0  0  0  0  0  0  0  0  0  0  0  0
   44.9416    2.0170   11.3865 H   0  0  0  0  0  0  0  0  0  0  0  0
   43.7967    5.6259    9.3532 H   0  0  0  0  0  0  0  0  0  0  0  0
   54.3252   10.7824    9.7831 H   0  0  0  0  0  0  0  0  0  0  0  0
   49.9987    7.8507   14.5046 H   0  0  0  0  0  0  0  0  0  0  0  0
   47.5020   10.0496   11.9140 H   0  0  0  0  0  0  0  0  0  0  0  0
   53.2594    8.9430   11.0180 H   0  0  0  0  0  0  0  0  0  0  0  0
   48.5603   11.8782   10.6788 H   0  0  0  0  0  0  0  0  0  0  0  0
   48.9502    6.0417   15.7188 H   0  0  0  0  0  0  0  0  0  0  0  0
   43.7661    2.8046   13.4470 H   0  0  0  0  0  0  0  0  0  0  0  0
   42.6552    2.7096   12.0828 H   0  0  0  0  0  0  0  0  0  0  0  0
   42.5876    6.4029   11.3858 H   0  0  0  0  0  0  0  0  0  0  0  0
   41.9622    4.8439   10.8543 H   0  0  0  0  0  0  0  0  0  0  0  0
   43.5046    3.1734    9.7147 H   0  0  0  0  0  0  0  0  0  0  0  0
   45.2009    3.5728    9.4549 H   0  0  0  0  0  0  0  0  0  0  0  0
   52.9667   14.6815    8.0854 H   0  0  0  0  0  0  0  0  0  0  0  0
   47.2128    5.0242   16.8781 H   0  0  0  0  0  0  0  0  0  0  0  0
   46.6568    3.3894   16.5053 H   0  0  0  0  0  0  0  0  0  0  0  0
   48.3092    3.8353   16.0679 H   0  0  0  0  0  0  0  0  0  0  0  0
  1  2  1  6
  3  2  2  0
  4  6  1  0
  5  3  1  0
  6 11  2  0
  7  5  1  0
  8  1  1  0
  9  1  1  0
 10  1  1  0
 11 13  1  0
 12  7  1  0
 13 24  2  0
 14 12  2  0
 15  8  1  0
 16  9  1  0
 17 10  1  0
 18  2  1  0
 19  4  2  0
 20 23  2  0
 21 25  1  0
 22  7  2  0
 23 14  1  0
 24 22  1  0
 25 18  2  0
 26 16  1  0
 27 17  1  0
 28 17  1  0
 29  4  1  0
 30 18  1  0
 31 30  1  0
 28 16  1  0
 27 15  1  0
 26 15  1  0
 21  5  2  0
 13 14  1  0
  6 20  1  0
  3 32  1  0
  8 33  1  0
  8 34  1  0
  9 35  1  0
  9 36  1  0
 10 37  1  0
 10 38  1  0
 11 39  1  0
 12 40  1  0
 15 41  1  6
 16 42  1  1
 17 43  1  1
 20 44  1  0
 21 45  1  0
 22 46  1  0
 23 47  1  0
 24 48  1  0
 25 49  1  0
 26 50  1  0
 26 51  1  0
 27 52  1  0
 27 53  1  0
 28 54  1  0
 28 55  1  0
 29 56  1  0
 31 57  1  0
 31 58  1  0
 31 59  1  0
M  END
> <Uni-Dock RESULT> 
ENERGY=   -5.798  LOWER_BOUND=    0.000  UPPER_BOUND=    0.000
INTER + INTRA:          -5.798
INTER:                  -5.798
INTRA:                   0.000
UNBOUND:                 0.000

$$$$

     RDKit          3D

 59 64  0  0  0  0  0  0  0  0999 V2000
   49.0577   10.7184   18.3046 C   0  0  2  0  0  0  0  0  0  0  0  0
   49.5325    9.5780   17.3653 C   0  0  0  0  0  0  0  0  0  0  0  0
   48.6485    9.0155   16.4133 C   0  0  0  0  0  0  0  0  0  0  0  0
   44.0684    3.8653   10.7884 C   0  0  0  0  0  0  0  0  0  0  0  0
   49.0208    7.9799   15.5363 C   0  0  0  0  0  0  0  0  0  0  0  0
   45.0236    4.4648   11.7509 C   0  0  0  0  0  0  0  0  0  0  0  0
   48.0645    7.4306   14.5618 C   0  0  0  0  0  0  0  0  0  0  0  0
   49.9062   12.0081   18.0835 C   0  0  0  0  0  0  0  0  0  0  0  0
   49.1567   10.2843   19.7991 C   0  0  0  0  0  0  0  0  0  0  0  0
   47.5640   11.1382   18.0738 C   0  0  0  0  0  0  0  0  0  0  0  0
   45.3117    5.8354   11.7565 C   0  0  0  0  0  0  0  0  0  0  0  0
   47.7633    6.0582   14.5390 C   0  0  0  0  0  0  0  0  0  0  0  0
   46.2222    6.3719   12.6824 C   0  0  0  0  0  0  0  0  0  0  0  0
   46.8522    5.5172   13.6145 C   0  0  0  0  0  0  0  0  0  0  0  0
   49.4803   13.1327   19.0443 C   0  0  2  0  0  0  0  0  0  0  0  0
   48.7375   11.4245   20.7444 C   0  0  1  0  0  0  0  0  0  0  0  0
   47.1257   12.2700   19.0192 C   0  0  2  0  0  0  0  0  0  0  0  0
   50.8476    9.0511   17.4119 C   0  0  0  0  0  0  0  0  0  0  0  0
   43.7694    2.6874   10.7209 O   0  0  0  0  0  0  0  0  0  0  0  0
   45.6477    3.6223   12.6752 C   0  0  0  0  0  0  0  0  0  0  0  0
   50.3242    7.4904   15.6179 C   0  0  0  0  0  0  0  0  0  0  0  0
   47.4279    8.2616   13.6296 C   0  0  0  0  0  0  0  0  0  0  0  0
   46.5545    4.1454   13.5997 C   0  0  0  0  0  0  0  0  0  0  0  0
   46.5203    7.7414   12.7022 C   0  0  0  0  0  0  0  0  0  0  0  0
   51.2260    8.0184   16.5422 C   0  0  0  0  0  0  0  0  0  0  0  0
   49.6351   12.6476   20.4950 C   0  0  0  0  0  0  0  0  0  0  0  0
   48.0138   13.4979   18.7828 C   0  0  0  0  0  0  0  0  0  0  0  0
   47.2758   11.8010   20.4717 C   0  0  0  0  0  0  0  0  0  0  0  0
   43.5299    4.7700    9.9519 O   0  0  0  0  0  0  0  0  0  0  0  0
   51.7051    9.5951   18.3318 O   0  0  0  0  0  0  0  0  0  0  0  0
   53.0317    9.0918   18.4055 C   0  0  0  0  0  0  0  0  0  0  0  0
   47.6232    9.3686   16.3374 H   0  0  0  0  0  0  0  0  0  0  0  0
   49.8030   12.3492   17.0444 H   0  0  0  0  0  0  0  0  0  0  0  0
   50.9746   11.8265   18.2347 H   0  0  0  0  0  0  0  0  0  0  0  0
   48.5228    9.4046   19.9750 H   0  0  0  0  0  0  0  0  0  0  0  0
   50.1722    9.9812   20.0713 H   0  0  0  0  0  0  0  0  0  0  0  0
   47.4184   11.4756   17.0388 H   0  0  0  0  0  0  0  0  0  0  0  0
   46.8978   10.2792   18.2308 H   0  0  0  0  0  0  0  0  0  0  0  0
   44.8259    6.4921   11.0377 H   0  0  0  0  0  0  0  0  0  0  0  0
   48.2406    5.4013   15.2649 H   0  0  0  0  0  0  0  0  0  0  0  0
   50.1121   14.0130   18.8809 H   0  0  0  0  0  0  0  0  0  0  0  0
   48.8435   11.0957   21.7844 H   0  0  0  0  0  0  0  0  0  0  0  0
   46.0792   12.5297   18.8228 H   0  0  0  0  0  0  0  0  0  0  0  0
   45.4309    2.5557   12.6808 H   0  0  0  0  0  0  0  0  0  0  0  0
   50.6557    6.6975   14.9508 H   0  0  0  0  0  0  0  0  0  0  0  0
   47.6447    9.3282   13.6116 H   0  0  0  0  0  0  0  0  0  0  0  0
   47.0279    3.4710   14.3106 H   0  0  0  0  0  0  0  0  0  0  0  0
   46.0498    8.4193   11.9931 H   0  0  0  0  0  0  0  0  0  0  0  0
   52.2260    7.5981   16.5537 H   0  0  0  0  0  0  0  0  0  0  0  0
   50.6828   12.3916   20.6956 H   0  0  0  0  0  0  0  0  0  0  0  0
   49.3667   13.4543   21.1883 H   0  0  0  0  0  0  0  0  0  0  0  0
   47.8934   13.8572   17.7534 H   0  0  0  0  0  0  0  0  0  0  0  0
   47.7065   14.3176   19.4438 H   0  0  0  0  0  0  0  0  0  0  0  0
   46.9573   12.5949   21.1584 H   0  0  0  0  0  0  0  0  0  0  0  0
   46.6241   10.9387   20.6583 H   0  0  0  0  0  0  0  0  0  0  0  0
   42.9314    4.2381    9.3865 H   0  0  0  0  0  0  0  0  0  0  0  0
   53.5703    9.2584   17.4670 H   0  0  0  0  0  0  0  0  0  0  0  0
   53.5549    9.6464   19.1903 H   0  0  0  0  0  0  0  0  0  0  0  0
   53.0379    8.0338   18.6872 H   0  0  0  0  0  0  0  0  0  0  0  0
  1  2  1  6
  3  2  2  0
  4  6  1  0
  5  3  1  0
  6 11  2  0
  7  5  1  0
  8  1  1  0
  9  1  1  0
 10  1  1  0
 11 13  1  0
 12  7  1  0
 13 24  2  0
 14 12  2  0
 15  8  1  0
 16  9  1  0
 17 10  1  0
 18  2  1  0
 19  4  2  0
 20 23  2  0
 21 25  1  0
 22  7  2  0
 23 14  1  0
 24 22  1  0
 25 18  2  0
 26 16  1  0
 27 17  1  0
 28 17  1  0
 29  4  1  0
 30 18  1  0
 31 30  1  0
 28 16  1  0
 27 15  1  0
 26 15  1  0
 21  5  2  0
 13 14  1  0
  6 20  1  0
  3 32  1  0
  8 33  1  0
  8 34  1  0
  9 35  1  0
  9 36  1  0
 10 37  1  0
 10 38  1  0
 11 39  1  0
 12 40  1  0
 15 41  1  6
 16 42  1  1
 17 43  1  1
 20 44  1  0
 21 45  1  0
 22 46  1  0
 23 47  1  0
 24 48  1  0
 25 49  1  0
 26 50  1  0
 26 51  1  0
 27 52  1  0
 27 53  1  0
 28 54  1  0
 28 55  1  0
 29 56  1  0
 31 57  1  0
 31 58  1  0
 31 59  1  0
M  END
> <Uni-Dock RESULT> 
ENERGY=   -5.221  LOWER_BOUND=    4.905  UPPER_BOUND=    9.314
INTER + INTRA:          -5.221
INTER:                  -5.221
INTRA:                   0.000
UNBOUND:                 0.000

$$$$

     RDKit          3D

 59 64  0  0  0  0  0  0  0  0999 V2000
   49.3839   11.3571   17.3241 C   0  0  2  0  0  0  0  0  0  0  0  0
   49.7180   10.2957   16.2425 C   0  0  0  0  0  0  0  0  0  0  0  0
   48.6873    9.5391   15.6348 C   0  0  0  0  0  0  0  0  0  0  0  0
   43.5410    3.4012   11.7640 C   0  0  0  0  0  0  0  0  0  0  0  0
   48.9284    8.5629   14.6503 C   0  0  0  0  0  0  0  0  0  0  0  0
   44.6336    4.2082   12.3583 C   0  0  0  0  0  0  0  0  0  0  0  0
   47.8209    7.8046   14.0468 C   0  0  0  0  0  0  0  0  0  0  0  0
   49.8388   12.7769   16.8665 C   0  0  0  0  0  0  0  0  0  0  0  0
   50.0718   11.0054   18.6786 C   0  0  0  0  0  0  0  0  0  0  0  0
   47.8507   11.4731   17.6345 C   0  0  0  0  0  0  0  0  0  0  0  0
   44.6356    5.6078   12.3088 C   0  0  0  0  0  0  0  0  0  0  0  0
   47.8013    6.3999   14.0846 C   0  0  0  0  0  0  0  0  0  0  0  0
   45.6868    6.3430   12.8821 C   0  0  0  0  0  0  0  0  0  0  0  0
   46.7509    5.6603   13.5127 C   0  0  0  0  0  0  0  0  0  0  0  0
   49.5600   13.8331   17.9510 C   0  0  2  0  0  0  0  0  0  0  0  0
   49.7908   12.0776   19.7467 C   0  0  1  0  0  0  0  0  0  0  0  0
   47.5538   12.5334   18.7090 C   0  0  2  0  0  0  0  0  0  0  0  0
   51.0445   10.0336   15.8171 C   0  0  0  0  0  0  0  0  0  0  0  0
   43.4705    2.1861   11.7655 O   0  0  0  0  0  0  0  0  0  0  0  0
   45.6872    3.5359   12.9841 C   0  0  0  0  0  0  0  0  0  0  0  0
   50.2490    8.3366   14.2630 C   0  0  0  0  0  0  0  0  0  0  0  0
   46.7553    8.4628   13.4175 C   0  0  0  0  0  0  0  0  0  0  0  0
   46.7372    4.2572   13.5569 C   0  0  0  0  0  0  0  0  0  0  0  0
   45.7031    7.7441   12.8424 C   0  0  0  0  0  0  0  0  0  0  0  0
   51.2932    9.0617   14.8375 C   0  0  0  0  0  0  0  0  0  0  0  0
   50.2941   13.4405   19.2436 C   0  0  0  0  0  0  0  0  0  0  0  0
   48.0518   13.8996   18.2214 C   0  0  0  0  0  0  0  0  0  0  0  0
   48.2810   12.1557   20.0054 C   0  0  0  0  0  0  0  0  0  0  0  0
   42.5841    4.1541   11.1933 O   0  0  0  0  0  0  0  0  0  0  0  0
   52.0435   10.7658   16.4033 O   0  0  0  0  0  0  0  0  0  0  0  0
   53.3853   10.5300   16.0002 C   0  0  0  0  0  0  0  0  0  0  0  0
   47.6506    9.6853   15.9274 H   0  0  0  0  0  0  0  0  0  0  0  0
   49.3213   13.0534   15.9378 H   0  0  0  0  0  0  0  0  0  0  0  0
   50.9078   12.8100   16.6353 H   0  0  0  0  0  0  0  0  0  0  0  0
   49.7194   10.0272   19.0332 H   0  0  0  0  0  0  0  0  0  0  0  0
   51.1572   10.9134   18.5752 H   0  0  0  0  0  0  0  0  0  0  0  0
   47.2963   11.7380   16.7241 H   0  0  0  0  0  0  0  0  0  0  0  0
   47.4581   10.5084   17.9831 H   0  0  0  0  0  0  0  0  0  0  0  0
   43.8156    6.1320   11.8224 H   0  0  0  0  0  0  0  0  0  0  0  0
   48.6161    5.8742   14.5806 H   0  0  0  0  0  0  0  0  0  0  0  0
   49.9147   14.8119   17.6088 H   0  0  0  0  0  0  0  0  0  0  0  0
   50.3088   11.8138   20.6757 H   0  0  0  0  0  0  0  0  0  0  0  0
   46.4743   12.5796   18.8928 H   0  0  0  0  0  0  0  0  0  0  0  0
   45.6959    2.4485   13.0294 H   0  0  0  0  0  0  0  0  0  0  0  0
   50.4778    7.5983   13.4974 H   0  0  0  0  0  0  0  0  0  0  0  0
   46.7424    9.5498   13.3606 H   0  0  0  0  0  0  0  0  0  0  0  0
   47.5466    3.7130   14.0396 H   0  0  0  0  0  0  0  0  0  0  0  0
   44.8963    8.2923   12.3605 H   0  0  0  0  0  0  0  0  0  0  0  0
   52.2975    8.8423   14.4910 H   0  0  0  0  0  0  0  0  0  0  0  0
   51.3753   13.3983   19.0634 H   0  0  0  0  0  0  0  0  0  0  0  0
   50.1296   14.2054   20.0125 H   0  0  0  0  0  0  0  0  0  0  0  0
   47.5183   14.1911   17.3084 H   0  0  0  0  0  0  0  0  0  0  0  0
   47.8379   14.6686   18.9739 H   0  0  0  0  0  0  0  0  0  0  0  0
   48.0707   12.8982   20.7850 H   0  0  0  0  0  0  0  0  0  0  0  0
   47.9125   11.1915   20.3768 H   0  0  0  0  0  0  0  0  0  0  0  0
   41.9426    3.4966   10.8513 H   0  0  0  0  0  0  0  0  0  0  0  0
   53.5260   10.7625   14.9396 H   0  0  0  0  0  0  0  0  0  0  0  0
   54.0286   11.2033   16.5747 H   0  0  0  0  0  0  0  0  0  0  0  0
   53.6921    9.5041   16.2282 H   0  0  0  0  0  0  0  0  0  0  0  0
  1  2  1  6
  3  2  2  0
  4  6  1  0
  5  3  1  0
  6 11  2  0
  7  5  1  0
  8  1  1  0
  9  1  1  0
 10  1  1  0
 11 13  1  0
 12  7  1  0
 13 24  2  0
 14 12  2  0
 15  8  1  0
 16  9  1  0
 17 10  1  0
 18  2  1  0
 19  4  2  0
 20 23  2  0
 21 25  1  0
 22  7  2  0
 23 14  1  0
 24 22  1  0
 25 18  2  0
 26 16  1  0
 27 17  1  0
 28 17  1  0
 29  4  1  0
 30 18  1  0
 31 30  1  0
 28 16  1  0
 27 15  1  0
 26 15  1  0
 21  5  2  0
 13 14  1  0
  6 20  1  0
  3 32  1  0
  8 33  1  0
  8 34  1  0
  9 35  1  0
  9 36  1  0
 10 37  1  0
 10 38  1  0
 11 39  1  0
 12 40  1  0
 15 41  1  6
 16 42  1  1
 17 43  1  1
 20 44  1  0
 21 45  1  0
 22 46  1  0
 23 47  1  0
 24 48  1  0
 25 49  1  0
 26 50  1  0
 26 51  1  0
 27 52  1  0
 27 53  1  0
 28 54  1  0
 28 55  1  0
 29 56  1  0
 31 57  1  0
 31 58  1  0
 31 59  1  0
M  END
> <Uni-Dock RESULT> 
ENERGY=   -5.219  LOWER_BOUND=    4.739  UPPER_BOUND=    9.546
INTER + INTRA:          -5.219
INTER:                  -5.219
INTRA:                   0.000
UNBOUND:                 0.000

$$$$

     RDKit          3D

 59 64  0  0  0  0  0  0  0  0999 V2000
   47.8044    8.8687   13.1972 C   0  0  2  0  0  0  0  0  0  0  0  0
   46.4573    8.3832   12.5992 C   0  0  0  0  0  0  0  0  0  0  0  0
   45.6018    9.2881   11.9256 C   0  0  0  0  0  0  0  0  0  0  0  0
   38.8311   13.8798    8.4305 C   0  0  0  0  0  0  0  0  0  0  0  0
   44.3689    8.9073   11.3642 C   0  0  0  0  0  0  0  0  0  0  0  0
   39.7280   12.9057    9.0978 C   0  0  0  0  0  0  0  0  0  0  0  0
   43.5164    9.8863   10.6709 C   0  0  0  0  0  0  0  0  0  0  0  0
   49.0042    8.1176   12.5427 C   0  0  0  0  0  0  0  0  0  0  0  0
   47.8377    8.6501   14.7408 C   0  0  0  0  0  0  0  0  0  0  0  0
   48.0752   10.3971   12.9706 C   0  0  0  0  0  0  0  0  0  0  0  0
   41.0491   12.7037    8.6792 C   0  0  0  0  0  0  0  0  0  0  0  0
   42.1878   10.1023   11.0747 C   0  0  0  0  0  0  0  0  0  0  0  0
   41.8731   11.7725    9.3335 C   0  0  0  0  0  0  0  0  0  0  0  0
   41.3600   11.0338   10.4231 C   0  0  0  0  0  0  0  0  0  0  0  0
   50.3447    8.5520   13.1620 C   0  0  2  0  0  0  0  0  0  0  0  0
   49.1887    9.0799   15.3403 C   0  0  1  0  0  0  0  0  0  0  0  0
   49.4174   10.8454   13.5740 C   0  0  2  0  0  0  0  0  0  0  0  0
   46.0223    7.0376   12.6956 C   0  0  0  0  0  0  0  0  0  0  0  0
   37.6750   14.1085    8.7346 O   0  0  0  0  0  0  0  0  0  0  0  0
   39.2239   12.1741   10.1769 C   0  0  0  0  0  0  0  0  0  0  0  0
   43.9796    7.5733   11.4839 C   0  0  0  0  0  0  0  0  0  0  0  0
   44.0066   10.6302    9.5887 C   0  0  0  0  0  0  0  0  0  0  0  0
   40.0346   11.2458   10.8340 C   0  0  0  0  0  0  0  0  0  0  0  0
   43.1978   11.5596    8.9280 C   0  0  0  0  0  0  0  0  0  0  0  0
   44.7946    6.6504   12.1399 C   0  0  0  0  0  0  0  0  0  0  0  0
   50.3186    8.2773   14.6745 C   0  0  0  0  0  0  0  0  0  0  0  0
   50.5553   10.0519   12.9199 C   0  0  0  0  0  0  0  0  0  0  0  0
   49.4070   10.5762   15.0839 C   0  0  0  0  0  0  0  0  0  0  0  0
   39.4241   14.5246    7.4103 O   0  0  0  0  0  0  0  0  0  0  0  0
   46.8496    6.1600   13.3461 O   0  0  0  0  0  0  0  0  0  0  0  0
   46.4457    4.8027   13.4605 C   0  0  0  0  0  0  0  0  0  0  0  0
   45.8740   10.3361   11.8296 H   0  0  0  0  0  0  0  0  0  0  0  0
   49.0171    8.3063   11.4606 H   0  0  0  0  0  0  0  0  0  0  0  0
   48.9198    7.0326   12.6568 H   0  0  0  0  0  0  0  0  0  0  0  0
   47.0245    9.2158   15.2155 H   0  0  0  0  0  0  0  0  0  0  0  0
   47.6709    7.6027   15.0100 H   0  0  0  0  0  0  0  0  0  0  0  0
   48.0841   10.6276   11.8967 H   0  0  0  0  0  0  0  0  0  0  0  0
   47.2748   10.9975   13.4236 H   0  0  0  0  0  0  0  0  0  0  0  0
   41.4425   13.2732    7.8396 H   0  0  0  0  0  0  0  0  0  0  0  0
   41.7960    9.5408   11.9218 H   0  0  0  0  0  0  0  0  0  0  0  0
   51.1621    7.9876   12.6992 H   0  0  0  0  0  0  0  0  0  0  0  0
   49.1880    8.8891   16.4194 H   0  0  0  0  0  0  0  0  0  0  0  0
   49.5639   11.9161   13.3922 H   0  0  0  0  0  0  0  0  0  0  0  0
   38.1991   12.3233   10.5115 H   0  0  0  0  0  0  0  0  0  0  0  0
   43.0389    7.2353   11.0547 H   0  0  0  0  0  0  0  0  0  0  0  0
   45.0278   10.4817    9.2422 H   0  0  0  0  0  0  0  0  0  0  0  0
   39.6215   10.6880   11.6722 H   0  0  0  0  0  0  0  0  0  0  0  0
   43.6149   12.1146    8.0902 H   0  0  0  0  0  0  0  0  0  0  0  0
   44.4381    5.6274   12.1962 H   0  0  0  0  0  0  0  0  0  0  0  0
   50.1769    7.2053   14.8590 H   0  0  0  0  0  0  0  0  0  0  0  0
   51.2829    8.5518   15.1197 H   0  0  0  0  0  0  0  0  0  0  0  0
   50.5878   10.2582   11.8431 H   0  0  0  0  0  0  0  0  0  0  0  0
   51.5208   10.3679   13.3336 H   0  0  0  0  0  0  0  0  0  0  0  0
   50.3551   10.9002   15.5305 H   0  0  0  0  0  0  0  0  0  0  0  0
   48.6129   11.1602   15.5651 H   0  0  0  0  0  0  0  0  0  0  0  0
   38.7242   15.1228    7.0739 H   0  0  0  0  0  0  0  0  0  0  0  0
   46.3483    4.3349   12.4754 H   0  0  0  0  0  0  0  0  0  0  0  0
   47.2292    4.2671   14.0052 H   0  0  0  0  0  0  0  0  0  0  0  0
   45.5201    4.7130   14.0384 H   0  0  0  0  0  0  0  0  0  0  0  0
  1  2  1  6
  3  2  2  0
  4  6  1  0
  5  3  1  0
  6 11  2  0
  7  5  1  0
  8  1  1  0
  9  1  1  0
 10  1  1  0
 11 13  1  0
 12  7  1  0
 13 24  2  0
 14 12  2  0
 15  8  1  0
 16  9  1  0
 17 10  1  0
 18  2  1  0
 19  4  2  0
 20 23  2  0
 21 25  1  0
 22  7  2  0
 23 14  1  0
 24 22  1  0
 25 18  2  0
 26 16  1  0
 27 17  1  0
 28 17  1  0
 29  4  1  0
 30 18  1  0
 31 30  1  0
 28 16  1  0
 27 15  1  0
 26 15  1  0
 21  5  2  0
 13 14  1  0
  6 20  1  0
  3 32  1  0
  8 33  1  0
  8 34  1  0
  9 35  1  0
  9 36  1  0
 10 37  1  0
 10 38  1  0
 11 39  1  0
 12 40  1  0
 15 41  1  6
 16 42  1  1
 17 43  1  1
 20 44  1  0
 21 45  1  0
 22 46  1  0
 23 47  1  0
 24 48  1  0
 25 49  1  0
 26 50  1  0
 26 51  1  0
 27 52  1  0
 27 53  1  0
 28 54  1  0
 28 55  1  0
 29 56  1  0
 31 57  1  0
 31 58  1  0
 31 59  1  0
M  END
> <Uni-Dock RESULT> 
ENERGY=   -4.833  LOWER_BOUND=    5.622  UPPER_BOUND=    8.668
INTER + INTRA:          -4.833
INTER:                  -4.833
INTRA:                   0.000
UNBOUND:                 0.000

$$$$

     RDKit          3D

 59 64  0  0  0  0  0  0  0  0999 V2000
   45.2168    6.0348   12.2035 C   0  0  2  0  0  0  0  0  0  0  0  0
   45.9254    7.3748   12.5355 C   0  0  0  0  0  0  0  0  0  0  0  0
   47.0781    7.3945   13.3572 C   0  0  0  0  0  0  0  0  0  0  0  0
   53.6258    9.2122   19.0987 C   0  0  0  0  0  0  0  0  0  0  0  0
   47.7622    8.5773   13.6937 C   0  0  0  0  0  0  0  0  0  0  0  0
   52.4430    9.2127   18.2046 C   0  0  0  0  0  0  0  0  0  0  0  0
   48.9586    8.5441   14.5501 C   0  0  0  0  0  0  0  0  0  0  0  0
   45.2197    5.7723   10.6662 C   0  0  0  0  0  0  0  0  0  0  0  0
   43.7470    6.0398   12.7244 C   0  0  0  0  0  0  0  0  0  0  0  0
   45.9034    4.7850   12.8571 C   0  0  0  0  0  0  0  0  0  0  0  0
   52.4022    8.4584   17.0253 C   0  0  0  0  0  0  0  0  0  0  0  0
   49.0197    9.2950   15.7364 C   0  0  0  0  0  0  0  0  0  0  0  0
   51.2653    8.4811   16.1999 C   0  0  0  0  0  0  0  0  0  0  0  0
   50.1551    9.2746   16.5658 C   0  0  0  0  0  0  0  0  0  0  0  0
   44.4752    4.4711   10.3167 C   0  0  2  0  0  0  0  0  0  0  0  0
   43.0159    4.7362   12.3563 C   0  0  1  0  0  0  0  0  0  0  0  0
   45.1777    3.4742   12.5079 C   0  0  2  0  0  0  0  0  0  0  0  0
   45.4642    8.6221   12.0447 C   0  0  0  0  0  0  0  0  0  0  0  0
   53.7361    9.8407   20.1351 O   0  0  0  0  0  0  0  0  0  0  0  0
   51.3424    9.9957   18.5643 C   0  0  0  0  0  0  0  0  0  0  0  0
   47.2725    9.7822   13.1901 C   0  0  0  0  0  0  0  0  0  0  0  0
   50.0700    7.7625   14.2057 C   0  0  0  0  0  0  0  0  0  0  0  0
   50.2076   10.0256   17.7506 C   0  0  0  0  0  0  0  0  0  0  0  0
   51.2079    7.7308   15.0173 C   0  0  0  0  0  0  0  0  0  0  0  0
   46.1396    9.8052   12.3763 C   0  0  0  0  0  0  0  0  0  0  0  0
   43.0283    4.5601   10.8290 C   0  0  0  0  0  0  0  0  0  0  0  0
   45.1809    3.2851   10.9859 C   0  0  0  0  0  0  0  0  0  0  0  0
   43.7311    3.5484   13.0121 C   0  0  0  0  0  0  0  0  0  0  0  0
   54.6192    8.4229   18.6532 O   0  0  0  0  0  0  0  0  0  0  0  0
   44.3493    8.6050   11.2481 O   0  0  0  0  0  0  0  0  0  0  0  0
   43.8597    9.8371   10.7375 C   0  0  0  0  0  0  0  0  0  0  0  0
   47.4732    6.4717   13.7743 H   0  0  0  0  0  0  0  0  0  0  0  0
   46.2535    5.7183   10.2987 H   0  0  0  0  0  0  0  0  0  0  0  0
   44.7462    6.5874   10.1105 H   0  0  0  0  0  0  0  0  0  0  0  0
   43.7378    6.1753   13.8144 H   0  0  0  0  0  0  0  0  0  0  0  0
   43.1697    6.8738   12.3138 H   0  0  0  0  0  0  0  0  0  0  0  0
   46.9460    4.7037   12.5214 H   0  0  0  0  0  0  0  0  0  0  0  0
   45.9228    4.8888   13.9503 H   0  0  0  0  0  0  0  0  0  0  0  0
   53.2582    7.8481   16.7449 H   0  0  0  0  0  0  0  0  0  0  0  0
   48.1594    9.8980   16.0239 H   0  0  0  0  0  0  0  0  0  0  0  0
   44.4731    4.3309    9.2299 H   0  0  0  0  0  0  0  0  0  0  0  0
   41.9808    4.7834   12.7132 H   0  0  0  0  0  0  0  0  0  0  0  0
   45.6906    2.6309   12.9843 H   0  0  0  0  0  0  0  0  0  0  0  0
   51.3625   10.5854   19.4788 H   0  0  0  0  0  0  0  0  0  0  0  0
   47.7781   10.7183   13.4175 H   0  0  0  0  0  0  0  0  0  0  0  0
   50.0617    7.1759   13.2888 H   0  0  0  0  0  0  0  0  0  0  0  0
   49.3621   10.6416   18.0507 H   0  0  0  0  0  0  0  0  0  0  0  0
   52.0510    7.1140   14.7131 H   0  0  0  0  0  0  0  0  0  0  0  0
   45.8109   10.7730   12.0128 H   0  0  0  0  0  0  0  0  0  0  0  0
   42.5113    5.4006   10.3499 H   0  0  0  0  0  0  0  0  0  0  0  0
   42.4793    3.6509   10.5543 H   0  0  0  0  0  0  0  0  0  0  0  0
   46.2113    3.2044   10.6186 H   0  0  0  0  0  0  0  0  0  0  0  0
   44.6748    2.3484   10.7219 H   0  0  0  0  0  0  0  0  0  0  0  0
   43.2030    2.6156   12.7789 H   0  0  0  0  0  0  0  0  0  0  0  0
   43.7178    3.6570   14.1036 H   0  0  0  0  0  0  0  0  0  0  0  0
   55.3185    8.5216   19.3329 H   0  0  0  0  0  0  0  0  0  0  0  0
   44.5973   10.3156   10.0852 H   0  0  0  0  0  0  0  0  0  0  0  0
   42.9749    9.6183   10.1320 H   0  0  0  0  0  0  0  0  0  0  0  0
   43.5497   10.5054   11.5475 H   0  0  0  0  0  0  0  0  0  0  0  0
  1  2  1  6
  3  2  2  0
  4  6  1  0
  5  3  1  0
  6 11  2  0
  7  5  1  0
  8  1  1  0
  9  1  1  0
 10  1  1  0
 11 13  1  0
 12  7  1  0
 13 24  2  0
 14 12  2  0
 15  8  1  0
 16  9  1  0
 17 10  1  0
 18  2  1  0
 19  4  2  0
 20 23  2  0
 21 25  1  0
 22  7  2  0
 23 14  1  0
 24 22  1  0
 25 18  2  0
 26 16  1  0
 27 17  1  0
 28 17  1  0
 29  4  1  0
 30 18  1  0
 31 30  1  0
 28 16  1  0
 27 15  1  0
 26 15  1  0
 21  5  2  0
 13 14  1  0
  6 20  1  0
  3 32  1  0
  8 33  1  0
  8 34  1  0
  9 35  1  0
  9 36  1  0
 10 37  1  0
 10 38  1  0
 11 39  1  0
 12 40  1  0
 15 41  1  6
 16 42  1  1
 17 43  1  1
 20 44  1  0
 21 45  1  0
 22 46  1  0
 23 47  1  0
 24 48  1  0
 25 49  1  0
 26 50  1  0
 26 51  1  0
 27 52  1  0
 27 53  1  0
 28 54  1  0
 28 55  1  0
 29 56  1  0
 31 57  1  0
 31 58  1  0
 31 59  1  0
M  END
> <Uni-Dock RESULT> 
ENERGY=   -4.718  LOWER_BOUND=    4.229  UPPER_BOUND=    5.833
INTER + INTRA:          -4.718
INTER:                  -4.718
INTRA:                   0.000
UNBOUND:                 0.000

$$$$

     RDKit          3D

 59 64  0  0  0  0  0  0  0  0999 V2000
   44.5080   11.6235   10.9545 C   0  0  2  0  0  0  0  0  0  0  0  0
   45.9200   11.0765   11.2941 C   0  0  0  0  0  0  0  0  0  0  0  0
   46.0687    9.9022   12.0706 C   0  0  0  0  0  0  0  0  0  0  0  0
   48.5821    3.4018   17.5996 C   0  0  0  0  0  0  0  0  0  0  0  0
   47.3215    9.3595   12.4115 C   0  0  0  0  0  0  0  0  0  0  0  0
   48.4512    4.6116   16.7524 C   0  0  0  0  0  0  0  0  0  0  0  0
   47.4226    8.1336   13.2196 C   0  0  0  0  0  0  0  0  0  0  0  0
   44.2809   11.6519    9.4118 C   0  0  0  0  0  0  0  0  0  0  0  0
   44.3148   13.0590   11.5320 C   0  0  0  0  0  0  0  0  0  0  0  0
   43.3422   10.7577   11.5476 C   0  0  0  0  0  0  0  0  0  0  0  0
   47.7231    4.6062   15.5561 C   0  0  0  0  0  0  0  0  0  0  0  0
   48.1497    8.1182   14.4220 C   0  0  0  0  0  0  0  0  0  0  0  0
   47.6185    5.7703   14.7763 C   0  0  0  0  0  0  0  0  0  0  0  0
   48.2563    6.9556   15.2059 C   0  0  0  0  0  0  0  0  0  0  0  0
   42.9033   12.2400    9.0572 C   0  0  2  0  0  0  0  0  0  0  0  0
   42.9369   13.6344   11.1583 C   0  0  1  0  0  0  0  0  0  0  0  0
   41.9574   11.3260   11.1923 C   0  0  2  0  0  0  0  0  0  0  0  0
   47.1086   11.7118   10.8547 C   0  0  0  0  0  0  0  0  0  0  0  0
   49.1973    3.3285   18.6472 O   0  0  0  0  0  0  0  0  0  0  0  0
   49.0799    5.7862   17.1752 C   0  0  0  0  0  0  0  0  0  0  0  0
   48.4647   10.0181   11.9593 C   0  0  0  0  0  0  0  0  0  0  0  0
   46.7963    6.9478   12.8117 C   0  0  0  0  0  0  0  0  0  0  0  0
   48.9824    6.9488   16.4073 C   0  0  0  0  0  0  0  0  0  0  0  0
   46.8925    5.7820   13.5773 C   0  0  0  0  0  0  0  0  0  0  0  0
   48.3607   11.1779   11.1911 C   0  0  0  0  0  0  0  0  0  0  0  0
   42.7964   13.6638    9.6275 C   0  0  0  0  0  0  0  0  0  0  0  0
   41.8028   11.3628    9.6669 C   0  0  0  0  0  0  0  0  0  0  0  0
   41.8361   12.7480   11.7541 C   0  0  0  0  0  0  0  0  0  0  0  0
   47.9354    2.3362   17.0951 O   0  0  0  0  0  0  0  0  0  0  0  0
   46.9667   12.8479   10.1018 O   0  0  0  0  0  0  0  0  0  0  0  0
   48.1371   13.5102    9.6435 C   0  0  0  0  0  0  0  0  0  0  0  0
   45.1950    9.3765   12.4475 H   0  0  0  0  0  0  0  0  0  0  0  0
   44.3667   10.6359    9.0031 H   0  0  0  0  0  0  0  0  0  0  0  0
   45.0408   12.2474    8.8967 H   0  0  0  0  0  0  0  0  0  0  0  0
   44.4248   13.0396   12.6248 H   0  0  0  0  0  0  0  0  0  0  0  0
   45.0771   13.7537   11.1664 H   0  0  0  0  0  0  0  0  0  0  0  0
   43.4014    9.7282   11.1696 H   0  0  0  0  0  0  0  0  0  0  0  0
   43.4242   10.7058   12.6416 H   0  0  0  0  0  0  0  0  0  0  0  0
   47.2329    3.6924   15.2265 H   0  0  0  0  0  0  0  0  0  0  0  0
   48.6320    9.0350   14.7586 H   0  0  0  0  0  0  0  0  0  0  0  0
   42.7871   12.2699    7.9679 H   0  0  0  0  0  0  0  0  0  0  0  0
   42.8443   14.6513   11.5562 H   0  0  0  0  0  0  0  0  0  0  0  0
   41.1763   10.6913   11.6260 H   0  0  0  0  0  0  0  0  0  0  0  0
   49.6477    5.8025   18.1035 H   0  0  0  0  0  0  0  0  0  0  0  0
   49.4525    9.6257   12.1916 H   0  0  0  0  0  0  0  0  0  0  0  0
   46.2331    6.9203   11.8806 H   0  0  0  0  0  0  0  0  0  0  0  0
   49.4792    7.8520   16.7561 H   0  0  0  0  0  0  0  0  0  0  0  0
   46.3945    4.8813   13.2244 H   0  0  0  0  0  0  0  0  0  0  0  0
   49.2863   11.6412   10.8664 H   0  0  0  0  0  0  0  0  0  0  0  0
   43.5744   14.3024    9.1913 H   0  0  0  0  0  0  0  0  0  0  0  0
   41.8309   14.1046    9.3503 H   0  0  0  0  0  0  0  0  0  0  0  0
   41.8617   10.3467    9.2578 H   0  0  0  0  0  0  0  0  0  0  0  0
   40.8151   11.7571    9.3980 H   0  0  0  0  0  0  0  0  0  0  0  0
   40.8489   13.1634   11.5169 H   0  0  0  0  0  0  0  0  0  0  0  0
   41.9188   12.7292   12.8477 H   0  0  0  0  0  0  0  0  0  0  0  0
   48.1078    1.6271   17.7495 H   0  0  0  0  0  0  0  0  0  0  0  0
   48.7194   12.8669    8.9759 H   0  0  0  0  0  0  0  0  0  0  0  0
   47.8204   14.3848    9.0672 H   0  0  0  0  0  0  0  0  0  0  0  0
   48.7430   13.8679   10.4823 H   0  0  0  0  0  0  0  0  0  0  0  0
  1  2  1  6
  3  2  2  0
  4  6  1  0
  5  3  1  0
  6 11  2  0
  7  5  1  0
  8  1  1  0
  9  1  1  0
 10  1  1  0
 11 13  1  0
 12  7  1  0
 13 24  2  0
 14 12  2  0
 15  8  1  0
 16  9  1  0
 17 10  1  0
 18  2  1  0
 19  4  2  0
 20 23  2  0
 21 25  1  0
 22  7  2  0
 23 14  1  0
 24 22  1  0
 25 18  2  0
 26 16  1  0
 27 17  1  0
 28 17  1  0
 29  4  1  0
 30 18  1  0
 31 30  1  0
 28 16  1  0
 27 15  1  0
 26 15  1  0
 21  5  2  0
 13 14  1  0
  6 20  1  0
  3 32  1  0
  8 33  1  0
  8 34  1  0
  9 35  1  0
  9 36  1  0
 10 37  1  0
 10 38  1  0
 11 39  1  0
 12 40  1  0
 15 41  1  6
 16 42  1  1
 17 43  1  1
 20 44  1  0
 21 45  1  0
 22 46  1  0
 23 47  1  0
 24 48  1  0
 25 49  1  0
 26 50  1  0
 26 51  1  0
 27 52  1  0
 27 53  1  0
 28 54  1  0
 28 55  1  0
 29 56  1  0
 31 57  1  0
 31 58  1  0
 31 59  1  0
M  END
> <Uni-Dock RESULT> 
ENERGY=   -4.590  LOWER_BOUND=    3.975  UPPER_BOUND=    8.458
INTER + INTRA:          -4.590
INTER:                  -4.590
INTRA:                   0.000
UNBOUND:                 0.000

$$$$

     RDKit          3D

 59 64  0  0  0  0  0  0  0  0999 V2000
   52.4413    5.4744   18.2618 C   0  0  2  0  0  0  0  0  0  0  0  0
   51.2190    6.3081   17.7940 C   0  0  0  0  0  0  0  0  0  0  0  0
   50.2806    5.7614   16.8859 C   0  0  0  0  0  0  0  0  0  0  0  0
   44.2472    4.1361   10.5535 C   0  0  0  0  0  0  0  0  0  0  0  0
   49.1545    6.4685   16.4252 C   0  0  0  0  0  0  0  0  0  0  0  0
   45.1954    4.7162   11.5348 C   0  0  0  0  0  0  0  0  0  0  0  0
   48.2063    5.8538   15.4824 C   0  0  0  0  0  0  0  0  0  0  0  0
   52.4133    5.2688   19.8074 C   0  0  0  0  0  0  0  0  0  0  0  0
   53.7764    6.1711   17.8570 C   0  0  0  0  0  0  0  0  0  0  0  0
   52.4956    4.0374   17.6350 C   0  0  0  0  0  0  0  0  0  0  0  0
   45.4733    4.0931   12.7579 C   0  0  0  0  0  0  0  0  0  0  0  0
   47.9128    6.4641   14.2511 C   0  0  0  0  0  0  0  0  0  0  0  0
   46.3774    4.6696   13.6660 C   0  0  0  0  0  0  0  0  0  0  0  0
   47.0093    5.8903   13.3390 C   0  0  0  0  0  0  0  0  0  0  0  0
   53.6470    4.4867   20.2929 C   0  0  2  0  0  0  0  0  0  0  0  0
   54.9977    5.3807   18.3600 C   0  0  1  0  0  0  0  0  0  0  0  0
   53.7174    3.2379   18.1194 C   0  0  2  0  0  0  0  0  0  0  0  0
   50.9845    7.6326   18.2414 C   0  0  0  0  0  0  0  0  0  0  0  0
   43.9541    4.6179    9.4750 O   0  0  0  0  0  0  0  0  0  0  0  0
   45.8232    5.9231   11.2140 C   0  0  0  0  0  0  0  0  0  0  0  0
   48.9637    7.7695   16.8902 C   0  0  0  0  0  0  0  0  0  0  0  0
   47.5698    4.6428   15.7871 C   0  0  0  0  0  0  0  0  0  0  0  0
   46.7233    6.5047   12.1097 C   0  0  0  0  0  0  0  0  0  0  0  0
   46.6676    4.0581   14.8934 C   0  0  0  0  0  0  0  0  0  0  0  0
   49.8654    8.3442   17.7863 C   0  0  0  0  0  0  0  0  0  0  0  0
   54.9215    5.2463   19.8897 C   0  0  0  0  0  0  0  0  0  0  0  0
   53.6559    3.0964   19.6453 C   0  0  0  0  0  0  0  0  0  0  0  0
   54.9978    3.9845   17.7251 C   0  0  0  0  0  0  0  0  0  0  0  0
   43.7078    2.9763   10.9685 O   0  0  0  0  0  0  0  0  0  0  0  0
   51.8909    8.1631   19.1215 O   0  0  0  0  0  0  0  0  0  0  0  0
   51.6866    9.4881   19.5917 C   0  0  0  0  0  0  0  0  0  0  0  0
   50.4121    4.7548   16.4970 H   0  0  0  0  0  0  0  0  0  0  0  0
   51.4981    4.7345   20.0964 H   0  0  0  0  0  0  0  0  0  0  0  0
   52.3878    6.2205   20.3470 H   0  0  0  0  0  0  0  0  0  0  0  0
   53.8265    6.2758   16.7646 H   0  0  0  0  0  0  0  0  0  0  0  0
   53.8470    7.1864   18.2589 H   0  0  0  0  0  0  0  0  0  0  0  0
   51.5886    3.4743   17.8934 H   0  0  0  0  0  0  0  0  0  0  0  0
   52.5359    4.1006   16.5393 H   0  0  0  0  0  0  0  0  0  0  0  0
   44.9855    3.1533   13.0082 H   0  0  0  0  0  0  0  0  0  0  0  0
   48.4086    7.3994   13.9945 H   0  0  0  0  0  0  0  0  0  0  0  0
   53.6094    4.3831   21.3832 H   0  0  0  0  0  0  0  0  0  0  0  0
   55.9163    5.9099   18.0821 H   0  0  0  0  0  0  0  0  0  0  0  0
   53.7141    2.2440   17.6574 H   0  0  0  0  0  0  0  0  0  0  0  0
   45.6155    6.4159   10.2661 H   0  0  0  0  0  0  0  0  0  0  0  0
   48.1001    8.3469   16.5672 H   0  0  0  0  0  0  0  0  0  0  0  0
   47.7654    4.1470   16.7363 H   0  0  0  0  0  0  0  0  0  0  0  0
   47.2010    7.4442   11.8387 H   0  0  0  0  0  0  0  0  0  0  0  0
   46.1920    3.1191   15.1687 H   0  0  0  0  0  0  0  0  0  0  0  0
   49.6596    9.3577   18.1139 H   0  0  0  0  0  0  0  0  0  0  0  0
   54.9295    6.2398   20.3548 H   0  0  0  0  0  0  0  0  0  0  0  0
   55.8057    4.7141   20.2616 H   0  0  0  0  0  0  0  0  0  0  0  0
   52.7563    2.5402   19.9360 H   0  0  0  0  0  0  0  0  0  0  0  0
   54.5167    2.5193   20.0048 H   0  0  0  0  0  0  0  0  0  0  0  0
   55.8790    3.4209   18.0555 H   0  0  0  0  0  0  0  0  0  0  0  0
   55.0644    4.0676   16.6334 H   0  0  0  0  0  0  0  0  0  0  0  0
   43.1151    2.7177   10.2318 H   0  0  0  0  0  0  0  0  0  0  0  0
   50.7507    9.5679   20.1543 H   0  0  0  0  0  0  0  0  0  0  0  0
   52.5057    9.7284   20.2762 H   0  0  0  0  0  0  0  0  0  0  0  0
   51.7204   10.2093   18.7686 H   0  0  0  0  0  0  0  0  0  0  0  0
  1  2  1  6
  3  2  2  0
  4  6  1  0
  5  3  1  0
  6 11  2  0
  7  5  1  0
  8  1  1  0
  9  1  1  0
 10  1  1  0
 11 13  1  0
 12  7  1  0
 13 24  2  0
 14 12  2  0
 15  8  1  0
 16  9  1  0
 17 10  1  0
 18  2  1  0
 19  4  2  0
 20 23  2  0
 21 25  1  0
 22  7  2  0
 23 14  1  0
 24 22  1  0
 25 18  2  0
 26 16  1  0
 27 17  1  0
 28 17  1  0
 29  4  1  0
 30 18  1  0
 31 30  1  0
 28 16  1  0
 27 15  1  0
 26 15  1  0
 21  5  2  0
 13 14  1  0
  6 20  1  0
  3 32  1  0
  8 33  1  0
  8 34  1  0
  9 35  1  0
  9 36  1  0
 10 37  1  0
 10 38  1  0
 11 39  1  0
 12 40  1  0
 15 41  1  6
 16 42  1  1
 17 43  1  1
 20 44  1  0
 21 45  1  0
 22 46  1  0
 23 47  1  0
 24 48  1  0
 25 49  1  0
 26 50  1  0
 26 51  1  0
 27 52  1  0
 27 53  1  0
 28 54  1  0
 28 55  1  0
 29 56  1  0
 31 57  1  0
 31 58  1  0
 31 59  1  0
M  END
> <Uni-Dock RESULT> 
ENERGY=   -4.583  LOWER_BOUND=    5.155  UPPER_BOUND=    9.564
INTER + INTRA:          -4.583
INTER:                  -4.583
INTRA:                   0.000
UNBOUND:                 0.000

$$$$

     RDKit          3D

 59 64  0  0  0  0  0  0  0  0999 V2000
   47.5790   12.1182   10.9065 C   0  0  2  0  0  0  0  0  0  0  0  0
   48.6212   11.0302   11.2781 C   0  0  0  0  0  0  0  0  0  0  0  0
   48.2634    9.9491   12.1191 C   0  0  0  0  0  0  0  0  0  0  0  0
   47.8339    3.2926   18.0054 C   0  0  0  0  0  0  0  0  0  0  0  0
   49.1642    8.9341   12.4915 C   0  0  0  0  0  0  0  0  0  0  0  0
   48.2214    4.3944   17.0920 C   0  0  0  0  0  0  0  0  0  0  0  0
   48.7420    7.8289   13.3668 C   0  0  0  0  0  0  0  0  0  0  0  0
   47.3514   12.1640    9.3643 C   0  0  0  0  0  0  0  0  0  0  0  0
   48.0410   13.5224   11.4028 C   0  0  0  0  0  0  0  0  0  0  0  0
   46.1669   11.8763   11.5453 C   0  0  0  0  0  0  0  0  0  0  0  0
   47.5358    4.6450   15.8967 C   0  0  0  0  0  0  0  0  0  0  0  0
   49.4177    7.5602   14.5693 C   0  0  0  0  0  0  0  0  0  0  0  0
   47.9288    5.6977   15.0531 C   0  0  0  0  0  0  0  0  0  0  0  0
   49.0273    6.5083   15.4169 C   0  0  0  0  0  0  0  0  0  0  0  0
   46.3576   13.2733    8.9755 C   0  0  2  0  0  0  0  0  0  0  0  0
   47.0409   14.6195   10.9956 C   0  0  1  0  0  0  0  0  0  0  0  0
   45.1580   12.9709   11.1568 C   0  0  2  0  0  0  0  0  0  0  0  0
   49.9573   11.0628   10.8057 C   0  0  0  0  0  0  0  0  0  0  0  0
   48.3802    3.0127   19.0564 O   0  0  0  0  0  0  0  0  0  0  0  0
   49.3069    5.1990   17.4495 C   0  0  0  0  0  0  0  0  0  0  0  0
   50.4693    9.0067   12.0050 C   0  0  0  0  0  0  0  0  0  0  0  0
   47.6541    7.0139   13.0248 C   0  0  0  0  0  0  0  0  0  0  0  0
   49.7059    6.2478   16.6179 C   0  0  0  0  0  0  0  0  0  0  0  0
   47.2525    5.9626   13.8543 C   0  0  0  0  0  0  0  0  0  0  0  0
   50.8612   10.0558   11.1732 C   0  0  0  0  0  0  0  0  0  0  0  0
   46.8921   14.6291    9.4653 C   0  0  0  0  0  0  0  0  0  0  0  0
   44.9997   12.9936    9.6315 C   0  0  0  0  0  0  0  0  0  0  0  0
   45.6785   14.3309   11.6383 C   0  0  0  0  0  0  0  0  0  0  0  0
   46.7775    2.5897   17.5602 O   0  0  0  0  0  0  0  0  0  0  0  0
   50.3052   12.1078    9.9905 O   0  0  0  0  0  0  0  0  0  0  0  0
   51.6362   12.1717    9.4977 C   0  0  0  0  0  0  0  0  0  0  0  0
   47.2571    9.8751   12.5234 H   0  0  0  0  0  0  0  0  0  0  0  0
   46.9785   11.1923    9.0130 H   0  0  0  0  0  0  0  0  0  0  0  0
   48.2823   12.3432    8.8179 H   0  0  0  0  0  0  0  0  0  0  0  0
   48.1566   13.5128   12.4951 H   0  0  0  0  0  0  0  0  0  0  0  0
   49.0206   13.7975   11.0002 H   0  0  0  0  0  0  0  0  0  0  0  0
   45.7649   10.9056   11.2253 H   0  0  0  0  0  0  0  0  0  0  0  0
   46.2433   11.8496   12.6406 H   0  0  0  0  0  0  0  0  0  0  0  0
   46.6903    4.0195   15.6179 H   0  0  0  0  0  0  0  0  0  0  0  0
   50.2576    8.1923   14.8550 H   0  0  0  0  0  0  0  0  0  0  0  0
   46.2409   13.2953    7.8861 H   0  0  0  0  0  0  0  0  0  0  0  0
   47.4078   15.5944   11.3361 H   0  0  0  0  0  0  0  0  0  0  0  0
   44.1890   12.7615   11.6241 H   0  0  0  0  0  0  0  0  0  0  0  0
   49.8467    5.0141   18.3763 H   0  0  0  0  0  0  0  0  0  0  0  0
   51.1940    8.2365   12.2602 H   0  0  0  0  0  0  0  0  0  0  0  0
   47.1136    7.1865   12.0958 H   0  0  0  0  0  0  0  0  0  0  0  0
   50.5532    6.8619   16.9165 H   0  0  0  0  0  0  0  0  0  0  0  0
   46.4051    5.3510   13.5515 H   0  0  0  0  0  0  0  0  0  0  0  0
   51.8885   10.0538   10.8245 H   0  0  0  0  0  0  0  0  0  0  0  0
   47.8598   14.8433    8.9953 H   0  0  0  0  0  0  0  0  0  0  0  0
   46.2073   15.4309    9.1626 H   0  0  0  0  0  0  0  0  0  0  0  0
   44.6027   12.0335    9.2797 H   0  0  0  0  0  0  0  0  0  0  0  0
   44.2751   13.7636    9.3397 H   0  0  0  0  0  0  0  0  0  0  0  0
   44.9641   15.1213   11.3769 H   0  0  0  0  0  0  0  0  0  0  0  0
   45.7700   14.3337   12.7314 H   0  0  0  0  0  0  0  0  0  0  0  0
   46.6401    1.9104   18.2534 H   0  0  0  0  0  0  0  0  0  0  0  0
   51.8663   11.3062    8.8678 H   0  0  0  0  0  0  0  0  0  0  0  0
   51.7172   13.0665    8.8731 H   0  0  0  0  0  0  0  0  0  0  0  0
   52.3563   12.2727   10.3161 H   0  0  0  0  0  0  0  0  0  0  0  0
  1  2  1  6
  3  2  2  0
  4  6  1  0
  5  3  1  0
  6 11  2  0
  7  5  1  0
  8  1  1  0
  9  1  1  0
 10  1  1  0
 11 13  1  0
 12  7  1  0
 13 24  2  0
 14 12  2  0
 15  8  1  0
 16  9  1  0
 17 10  1  0
 18  2  1  0
 19  4  2  0
 20 23  2  0
 21 25  1  0
 22  7  2  0
 23 14  1  0
 24 22  1  0
 25 18  2  0
 26 16  1  0
 27 17  1  0
 28 17  1  0
 29  4  1  0
 30 18  1  0
 31 30  1  0
 28 16  1  0
 27 15  1  0
 26 15  1  0
 21  5  2  0
 13 14  1  0
  6 20  1  0
  3 32  1  0
  8 33  1  0
  8 34  1  0
  9 35  1  0
  9 36  1  0
 10 37  1  0
 10 38  1  0
 11 39  1  0
 12 40  1  0
 15 41  1  6
 16 42  1  1
 17 43  1  1
 20 44  1  0
 21 45  1  0
 22 46  1  0
 23 47  1  0
 24 48  1  0
 25 49  1  0
 26 50  1  0
 26 51  1  0
 27 52  1  0
 27 53  1  0
 28 54  1  0
 28 55  1  0
 29 56  1  0
 31 57  1  0
 31 58  1  0
 31 59  1  0
M  END
> <Uni-Dock RESULT> 
ENERGY=   -4.516  LOWER_BOUND=    2.746  UPPER_BOUND=    8.942
INTER + INTRA:          -4.516
INTER:                  -4.516
INTRA:                   0.000
UNBOUND:                 0.000

$$$$

     RDKit          3D

 59 64  0  0  0  0  0  0  0  0999 V2000
   53.7693    8.0776   10.7537 C   0  0  2  0  0  0  0  0  0  0  0  0
   52.5367    8.7774   11.3853 C   0  0  0  0  0  0  0  0  0  0  0  0
   51.3344    8.0612   11.5993 C   0  0  0  0  0  0  0  0  0  0  0  0
   42.9495    5.2517   12.5691 C   0  0  0  0  0  0  0  0  0  0  0  0
   50.1845    8.6414   12.1663 C   0  0  0  0  0  0  0  0  0  0  0  0
   44.2097    6.0120   12.3904 C   0  0  0  0  0  0  0  0  0  0  0  0
   48.9590    7.8526   12.3707 C   0  0  0  0  0  0  0  0  0  0  0  0
   54.9823    8.1005   11.7336 C   0  0  0  0  0  0  0  0  0  0  0  0
   54.1735    8.7668    9.4145 C   0  0  0  0  0  0  0  0  0  0  0  0
   53.5221    6.5680   10.4063 C   0  0  0  0  0  0  0  0  0  0  0  0
   45.4197    5.5887   12.9545 C   0  0  0  0  0  0  0  0  0  0  0  0
   47.7349    8.2613   11.8144 C   0  0  0  0  0  0  0  0  0  0  0  0
   46.5967    6.3327   12.7658 C   0  0  0  0  0  0  0  0  0  0  0  0
   46.5549    7.5193   12.0001 C   0  0  0  0  0  0  0  0  0  0  0  0
   56.2282    7.4548   11.1011 C   0  0  2  0  0  0  0  0  0  0  0  0
   55.4267    8.1149    8.8029 C   0  0  1  0  0  0  0  0  0  0  0  0
   54.7624    5.9044    9.7833 C   0  0  2  0  0  0  0  0  0  0  0  0
   52.5502   10.1413   11.7713 C   0  0  0  0  0  0  0  0  0  0  0  0
   41.8627    5.5560   12.1133 O   0  0  0  0  0  0  0  0  0  0  0  0
   44.1722    7.1857   11.6323 C   0  0  0  0  0  0  0  0  0  0  0  0
   50.2419    9.9867   12.5299 C   0  0  0  0  0  0  0  0  0  0  0  0
   48.9793    6.6719   13.1259 C   0  0  0  0  0  0  0  0  0  0  0  0
   45.3364    7.9328   11.4390 C   0  0  0  0  0  0  0  0  0  0  0  0
   47.8159    5.9221   13.3223 C   0  0  0  0  0  0  0  0  0  0  0  0
   51.4083   10.7270   12.3359 C   0  0  0  0  0  0  0  0  0  0  0  0
   56.5874    8.2036    9.8073 C   0  0  0  0  0  0  0  0  0  0  0  0
   55.9303    5.9862   10.7741 C   0  0  0  0  0  0  0  0  0  0  0  0
   55.1341    6.6420    8.4910 C   0  0  0  0  0  0  0  0  0  0  0  0
   43.1076    4.1424   13.3125 O   0  0  0  0  0  0  0  0  0  0  0  0
   53.7135   10.8359   11.5662 O   0  0  0  0  0  0  0  0  0  0  0  0
   53.7631   12.2050   11.9423 C   0  0  0  0  0  0  0  0  0  0  0  0
   51.2576    7.0154   11.3129 H   0  0  0  0  0  0  0  0  0  0  0  0
   54.7223    7.5736   12.6618 H   0  0  0  0  0  0  0  0  0  0  0  0
   55.2491    9.1190   12.0317 H   0  0  0  0  0  0  0  0  0  0  0  0
   53.3407    8.7118    8.7003 H   0  0  0  0  0  0  0  0  0  0  0  0
   54.3832    9.8323    9.5490 H   0  0  0  0  0  0  0  0  0  0  0  0
   53.2476    6.0086   11.3107 H   0  0  0  0  0  0  0  0  0  0  0  0
   52.6867    6.4711    9.6999 H   0  0  0  0  0  0  0  0  0  0  0  0
   45.4500    4.6749   13.5442 H   0  0  0  0  0  0  0  0  0  0  0  0
   47.7053    9.1701   11.2148 H   0  0  0  0  0  0  0  0  0  0  0  0
   57.0669    7.5110   11.8042 H   0  0  0  0  0  0  0  0  0  0  0  0
   55.6981    8.6384    7.8792 H   0  0  0  0  0  0  0  0  0  0  0  0
   54.5443    4.8543    9.5578 H   0  0  0  0  0  0  0  0  0  0  0  0
   43.2378    7.5240   11.1885 H   0  0  0  0  0  0  0  0  0  0  0  0
   49.3785   10.4707   12.9813 H   0  0  0  0  0  0  0  0  0  0  0  0
   49.9078    6.3305   13.5802 H   0  0  0  0  0  0  0  0  0  0  0  0
   45.2839    8.8428   10.8445 H   0  0  0  0  0  0  0  0  0  0  0  0
   47.8729    5.0132   13.9177 H   0  0  0  0  0  0  0  0  0  0  0  0
   51.3910   11.7673   12.6430 H   0  0  0  0  0  0  0  0  0  0  0  0
   56.8109    9.2540   10.0310 H   0  0  0  0  0  0  0  0  0  0  0  0
   57.4949    7.7724    9.3669 H   0  0  0  0  0  0  0  0  0  0  0  0
   55.6843    5.4387   11.6922 H   0  0  0  0  0  0  0  0  0  0  0  0
   56.8203    5.5077   10.3472 H   0  0  0  0  0  0  0  0  0  0  0  0
   56.0120    6.1734    8.0294 H   0  0  0  0  0  0  0  0  0  0  0  0
   54.3150    6.5665    7.7654 H   0  0  0  0  0  0  0  0  0  0  0  0
   42.2091    3.7517   13.3431 H   0  0  0  0  0  0  0  0  0  0  0  0
   53.6147   12.3243   13.0204 H   0  0  0  0  0  0  0  0  0  0  0  0
   54.7626   12.5801   11.7022 H   0  0  0  0  0  0  0  0  0  0  0  0
   53.0410   12.7981   11.3718 H   0  0  0  0  0  0  0  0  0  0  0  0
  1  2  1  6
  3  2  2  0
  4  6  1  0
  5  3  1  0
  6 11  2  0
  7  5  1  0
  8  1  1  0
  9  1  1  0
 10  1  1  0
 11 13  1  0
 12  7  1  0
 13 24  2  0
 14 12  2  0
 15  8  1  0
 16  9  1  0
 17 10  1  0
 18  2  1  0
 19  4  2  0
 20 23  2  0
 21 25  1  0
 22  7  2  0
 23 14  1  0
 24 22  1  0
 25 18  2  0
 26 16  1  0
 27 17  1  0
 28 17  1  0
 29  4  1  0
 30 18  1  0
 31 30  1  0
 28 16  1  0
 27 15  1  0
 26 15  1  0
 21  5  2  0
 13 14  1  0
  6 20  1  0
  3 32  1  0
  8 33  1  0
  8 34  1  0
  9 35  1  0
  9 36  1  0
 10 37  1  0
 10 38  1  0
 11 39  1  0
 12 40  1  0
 15 41  1  6
 16 42  1  1
 17 43  1  1
 20 44  1  0
 21 45  1  0
 22 46  1  0
 23 47  1  0
 24 48  1  0
 25 49  1  0
 26 50  1  0
 26 51  1  0
 27 52  1  0
 27 53  1  0
 28 54  1  0
 28 55  1  0
 29 56  1  0
 31 57  1  0
 31 58  1  0
 31 59  1  0
M  END
> <Uni-Dock RESULT> 
ENERGY=   -4.462  LOWER_BOUND=    2.783  UPPER_BOUND=    9.469
INTER + INTRA:          -4.462
INTER:                  -4.462
INTRA:                   0.000
UNBOUND:                 0.000

$$$$
