
     RDKit          3D

 59 64  0  0  0  0  0  0  0  0999 V2000
   45.5071    5.7268   12.4274 C   0  0  2  0  0  0  0  0  0  0  0  0
   46.3928    6.8214   13.0800 C   0  0  0  0  0  0  0  0  0  0  0  0
   47.4797    6.4643   13.9137 C   0  0  0  0  0  0  0  0  0  0  0  0
   53.4866    4.4720   19.8842 C   0  0  0  0  0  0  0  0  0  0  0  0
   48.3177    7.4108   14.5322 C   0  0  0  0  0  0  0  0  0  0  0  0
   52.3965    4.9266   18.9879 C   0  0  0  0  0  0  0  0  0  0  0  0
   49.4331    6.9875   15.3940 C   0  0  0  0  0  0  0  0  0  0  0  0
   45.9477    4.2660   12.7913 C   0  0  0  0  0  0  0  0  0  0  0  0
   45.5658    5.8192   10.8719 C   0  0  0  0  0  0  0  0  0  0  0  0
   44.0261    5.8591   12.8978 C   0  0  0  0  0  0  0  0  0  0  0  0
   52.6380    5.7551   17.8847 C   0  0  0  0  0  0  0  0  0  0  0  0
   49.2120    6.1556   16.5050 C   0  0  0  0  0  0  0  0  0  0  0  0
   51.5820    6.1682   17.0548 C   0  0  0  0  0  0  0  0  0  0  0  0
   50.2656    5.7407   17.3386 C   0  0  0  0  0  0  0  0  0  0  0  0
   45.0497    3.2063   12.1300 C   0  0  2  0  0  0  0  0  0  0  0  0
   44.6510    4.7718   10.2119 C   0  0  1  0  0  0  0  0  0  0  0  0
   43.1253    4.8116   12.2194 C   0  0  2  0  0  0  0  0  0  0  0  0
   46.1648    8.2058   12.8783 C   0  0  0  0  0  0  0  0  0  0  0  0
   53.3559    3.7541   20.8583 O   0  0  0  0  0  0  0  0  0  0  0  0
   51.0928    4.5066   19.2663 C   0  0  0  0  0  0  0  0  0  0  0  0
   48.0581    8.7619   14.3044 C   0  0  0  0  0  0  0  0  0  0  0  0
   50.7460    7.4015   15.1305 C   0  0  0  0  0  0  0  0  0  0  0  0
   50.0360    4.9111   18.4475 C   0  0  0  0  0  0  0  0  0  0  0  0
   51.8063    6.9980   15.9476 C   0  0  0  0  0  0  0  0  0  0  0  0
   46.9962    9.1549   13.4894 C   0  0  0  0  0  0  0  0  0  0  0  0
   45.1194    3.3655   10.6061 C   0  0  0  0  0  0  0  0  0  0  0  0
   43.6036    3.4050   12.6005 C   0  0  0  0  0  0  0  0  0  0  0  0
   43.2063    4.9829   10.6936 C   0  0  0  0  0  0  0  0  0  0  0  0
   54.6940    4.9384   19.5193 O   0  0  0  0  0  0  0  0  0  0  0  0
   45.1124    8.5533   12.0724 O   0  0  0  0  0  0  0  0  0  0  0  0
   44.8524    9.9325   11.8512 C   0  0  0  0  0  0  0  0  0  0  0  0
   47.7133    5.4185   14.0967 H   0  0  0  0  0  0  0  0  0  0  0  0
   46.9836    4.0895   12.4719 H   0  0  0  0  0  0  0  0  0  0  0  0
   45.9151    4.1175   13.8791 H   0  0  0  0  0  0  0  0  0  0  0  0
   45.2612    6.8053   10.5082 H   0  0  0  0  0  0  0  0  0  0  0  0
   46.5995    5.6780   10.5284 H   0  0  0  0  0  0  0  0  0  0  0  0
   43.9695    5.7462   13.9889 H   0  0  0  0  0  0  0  0  0  0  0  0
   43.6128    6.8480   12.6770 H   0  0  0  0  0  0  0  0  0  0  0  0
   53.6524    6.0828   17.6674 H   0  0  0  0  0  0  0  0  0  0  0  0
   48.1956    5.8345   16.7294 H   0  0  0  0  0  0  0  0  0  0  0  0
   45.3937    2.2045   12.4111 H   0  0  0  0  0  0  0  0  0  0  0  0
   44.6957    4.8811    9.1224 H   0  0  0  0  0  0  0  0  0  0  0  0
   42.0897    4.9490   12.5509 H   0  0  0  0  0  0  0  0  0  0  0  0
   50.8932    3.8630   20.1210 H   0  0  0  0  0  0  0  0  0  0  0  0
   48.6757    9.5260   14.7718 H   0  0  0  0  0  0  0  0  0  0  0  0
   50.9564    8.0367   14.2721 H   0  0  0  0  0  0  0  0  0  0  0  0
   49.0291    4.5722   18.6833 H   0  0  0  0  0  0  0  0  0  0  0  0
   52.8116    7.3376   15.7069 H   0  0  0  0  0  0  0  0  0  0  0  0
   46.8437   10.2205   13.3547 H   0  0  0  0  0  0  0  0  0  0  0  0
   44.4910    2.6094   10.1196 H   0  0  0  0  0  0  0  0  0  0  0  0
   46.1457    3.1989   10.2566 H   0  0  0  0  0  0  0  0  0  0  0  0
   42.9523    2.6494   12.1443 H   0  0  0  0  0  0  0  0  0  0  0  0
   43.5386    3.2669   13.6867 H   0  0  0  0  0  0  0  0  0  0  0  0
   42.8580    5.9834   10.4091 H   0  0  0  0  0  0  0  0  0  0  0  0
   42.5407    4.2627   10.2019 H   0  0  0  0  0  0  0  0  0  0  0  0
   55.3018    4.5623   20.1900 H   0  0  0  0  0  0  0  0  0  0  0  0
   45.6938   10.4173   11.3455 H   0  0  0  0  0  0  0  0  0  0  0  0
   44.6013   10.4426   12.7868 H   0  0  0  0  0  0  0  0  0  0  0  0
   43.9829   10.0055   11.1907 H   0  0  0  0  0  0  0  0  0  0  0  0
  1  2  1  1
  3  2  2  0
  4  6  1  0
  5  3  1  0
  6 11  2  0
  7  5  1  0
  8  1  1  0
  9  1  1  0
 10  1  1  0
 11 13  1  0
 12  7  1  0
 13 24  2  0
 14 12  2  0
 15  8  1  0
 16  9  1  0
 17 10  1  0
 18  2  1  0
 19  4  2  0
 20 23  2  0
 21 25  1  0
 22  7  2  0
 23 14  1  0
 24 22  1  0
 25 18  2  0
 26 16  1  0
 27 17  1  0
 28 17  1  0
 29  4  1  0
 30 18  1  0
 31 30  1  0
 28 16  1  0
 27 15  1  0
 26 15  1  0
 21  5  2  0
 13 14  1  0
  6 20  1  0
  3 32  1  0
  8 33  1  0
  8 34  1  0
  9 35  1  0
  9 36  1  0
 10 37  1  0
 10 38  1  0
 11 39  1  0
 12 40  1  0
 15 41  1  6
 16 42  1  6
 17 43  1  1
 20 44  1  0
 21 45  1  0
 22 46  1  0
 23 47  1  0
 24 48  1  0
 25 49  1  0
 26 50  1  0
 26 51  1  0
 27 52  1  0
 27 53  1  0
 28 54  1  0
 28 55  1  0
 29 56  1  0
 31 57  1  0
 31 58  1  0
 31 59  1  0
M  END
> <Uni-Dock RESULT> 
ENERGY=   -6.247  LOWER_BOUND=    0.000  UPPER_BOUND=    0.000
INTER + INTRA:          -6.247
INTER:                  -6.247
INTRA:                   0.000
UNBOUND:                 0.000

$$$$

     RDKit          3D

 59 64  0  0  0  0  0  0  0  0999 V2000
   49.2844    6.8919   19.6955 C   0  0  2  0  0  0  0  0  0  0  0  0
   49.7274    7.1171   18.2254 C   0  0  0  0  0  0  0  0  0  0  0  0
   48.8565    6.7997   17.1553 C   0  0  0  0  0  0  0  0  0  0  0  0
   44.0735    3.9118   10.4860 C   0  0  0  0  0  0  0  0  0  0  0  0
   49.2016    6.9822   15.8032 C   0  0  0  0  0  0  0  0  0  0  0  0
   45.0251    4.3120   11.5502 C   0  0  0  0  0  0  0  0  0  0  0  0
   48.2609    6.6324   14.7267 C   0  0  0  0  0  0  0  0  0  0  0  0
   47.8365    6.3034   19.8297 C   0  0  0  0  0  0  0  0  0  0  0  0
   49.2774    8.2363   20.4856 C   0  0  0  0  0  0  0  0  0  0  0  0
   50.2290    5.8772   20.4097 C   0  0  0  0  0  0  0  0  0  0  0  0
   45.5449    5.6099   11.6330 C   0  0  0  0  0  0  0  0  0  0  0  0
   47.7272    5.3360   14.6269 C   0  0  0  0  0  0  0  0  0  0  0  0
   46.4453    5.9568   12.6545 C   0  0  0  0  0  0  0  0  0  0  0  0
   46.8268    4.9845   13.6058 C   0  0  0  0  0  0  0  0  0  0  0  0
   47.4290    6.0916   21.2980 C   0  0  2  0  0  0  0  0  0  0  0  0
   48.8895    8.0198   21.9594 C   0  0  1  0  0  0  0  0  0  0  0  0
   49.8326    5.6823   21.8842 C   0  0  2  0  0  0  0  0  0  0  0  0
   50.9994    7.6421   17.8852 C   0  0  0  0  0  0  0  0  0  0  0  0
   43.5803    2.8076   10.3491 O   0  0  0  0  0  0  0  0  0  0  0  0
   45.4056    3.3522   12.4924 C   0  0  0  0  0  0  0  0  0  0  0  0
   50.4625    7.5034   15.5146 C   0  0  0  0  0  0  0  0  0  0  0  0
   47.8708    7.5819   13.7724 C   0  0  0  0  0  0  0  0  0  0  0  0
   46.2997    3.6867   13.5120 C   0  0  0  0  0  0  0  0  0  0  0  0
   46.9756    7.2508   12.7509 C   0  0  0  0  0  0  0  0  0  0  0  0
   51.3500    7.8285   16.5407 C   0  0  0  0  0  0  0  0  0  0  0  0
   47.4727    7.4370   22.0331 C   0  0  0  0  0  0  0  0  0  0  0  0
   48.4097    5.1146   21.9583 C   0  0  0  0  0  0  0  0  0  0  0  0
   49.8800    7.0384   22.6070 C   0  0  0  0  0  0  0  0  0  0  0  0
   43.7821    4.9150    9.6392 O   0  0  0  0  0  0  0  0  0  0  0  0
   51.8441    7.9488   18.9197 O   0  0  0  0  0  0  0  0  0  0  0  0
   53.1288    8.4738   18.6153 C   0  0  0  0  0  0  0  0  0  0  0  0
   47.8627    6.4055   17.3522 H   0  0  0  0  0  0  0  0  0  0  0  0
   47.1062    6.9773   19.3620 H   0  0  0  0  0  0  0  0  0  0  0  0
   47.7669    5.3391   19.3085 H   0  0  0  0  0  0  0  0  0  0  0  0
   50.2548    8.7280   20.4663 H   0  0  0  0  0  0  0  0  0  0  0  0
   48.5769    8.9408   20.0173 H   0  0  0  0  0  0  0  0  0  0  0  0
   50.2023    4.9112   19.8876 H   0  0  0  0  0  0  0  0  0  0  0  0
   51.2735    6.2025   20.3851 H   0  0  0  0  0  0  0  0  0  0  0  0
   45.2496    6.3575   10.8998 H   0  0  0  0  0  0  0  0  0  0  0  0
   48.0294    4.5839   15.3545 H   0  0  0  0  0  0  0  0  0  0  0  0
   46.4140    5.6807   21.3431 H   0  0  0  0  0  0  0  0  0  0  0  0
   48.9198    8.9780   22.4906 H   0  0  0  0  0  0  0  0  0  0  0  0
   50.5306    4.9856   22.3623 H   0  0  0  0  0  0  0  0  0  0  0  0
   45.0084    2.3404   12.4378 H   0  0  0  0  0  0  0  0  0  0  0  0
   50.7726    7.6504   14.4821 H   0  0  0  0  0  0  0  0  0  0  0  0
   48.2550    8.5989   13.8253 H   0  0  0  0  0  0  0  0  0  0  0  0
   46.5821    2.9235   14.2345 H   0  0  0  0  0  0  0  0  0  0  0  0
   46.6945    8.0176   12.0319 H   0  0  0  0  0  0  0  0  0  0  0  0
   52.3170    8.2260   16.2513 H   0  0  0  0  0  0  0  0  0  0  0  0
   47.1746    7.3035   23.0803 H   0  0  0  0  0  0  0  0  0  0  0  0
   46.7549    8.1347   21.5845 H   0  0  0  0  0  0  0  0  0  0  0  0
   48.1257    4.9459   23.0043 H   0  0  0  0  0  0  0  0  0  0  0  0
   48.3665    4.1405   21.4560 H   0  0  0  0  0  0  0  0  0  0  0  0
   50.8961    7.4496   22.5675 H   0  0  0  0  0  0  0  0  0  0  0  0
   49.6323    6.9044   23.6673 H   0  0  0  0  0  0  0  0  0  0  0  0
   43.1549    4.5095    9.0042 H   0  0  0  0  0  0  0  0  0  0  0  0
   53.0503    9.4341   18.0954 H   0  0  0  0  0  0  0  0  0  0  0  0
   53.7231    7.7561   18.0407 H   0  0  0  0  0  0  0  0  0  0  0  0
   53.6485    8.6514   19.5618 H   0  0  0  0  0  0  0  0  0  0  0  0
  1  2  1  1
  3  2  2  0
  4  6  1  0
  5  3  1  0
  6 11  2  0
  7  5  1  0
  8  1  1  0
  9  1  1  0
 10  1  1  0
 11 13  1  0
 12  7  1  0
 13 24  2  0
 14 12  2  0
 15  8  1  0
 16  9  1  0
 17 10  1  0
 18  2  1  0
 19  4  2  0
 20 23  2  0
 21 25  1  0
 22  7  2  0
 23 14  1  0
 24 22  1  0
 25 18  2  0
 26 16  1  0
 27 17  1  0
 28 17  1  0
 29  4  1  0
 30 18  1  0
 31 30  1  0
 28 16  1  0
 27 15  1  0
 26 15  1  0
 21  5  2  0
 13 14  1  0
  6 20  1  0
  3 32  1  0
  8 33  1  0
  8 34  1  0
  9 35  1  0
  9 36  1  0
 10 37  1  0
 10 38  1  0
 11 39  1  0
 12 40  1  0
 15 41  1  6
 16 42  1  6
 17 43  1  1
 20 44  1  0
 21 45  1  0
 22 46  1  0
 23 47  1  0
 24 48  1  0
 25 49  1  0
 26 50  1  0
 26 51  1  0
 27 52  1  0
 27 53  1  0
 28 54  1  0
 28 55  1  0
 29 56  1  0
 31 57  1  0
 31 58  1  0
 31 59  1  0
M  END
> <Uni-Dock RESULT> 
ENERGY=   -5.241  LOWER_BOUND=    2.833  UPPER_BOUND=    9.134
INTER + INTRA:          -5.241
INTER:                  -5.241
INTRA:                   0.000
UNBOUND:                 0.000

$$$$

     RDKit          3D

 59 64  0  0  0  0  0  0  0  0999 V2000
   52.1696    6.4887   17.5999 C   0  0  2  0  0  0  0  0  0  0  0  0
   51.8202    7.1520   16.2412 C   0  0  0  0  0  0  0  0  0  0  0  0
   50.5156    7.0433   15.7023 C   0  0  0  0  0  0  0  0  0  0  0  0
   42.9005    5.5669   11.7617 C   0  0  0  0  0  0  0  0  0  0  0  0
   50.1394    7.6230   14.4763 C   0  0  0  0  0  0  0  0  0  0  0  0
   44.2755    5.7653   12.2799 C   0  0  0  0  0  0  0  0  0  0  0  0
   48.7699    7.4773   13.9574 C   0  0  0  0  0  0  0  0  0  0  0  0
   50.9628    5.7302   18.2547 C   0  0  0  0  0  0  0  0  0  0  0  0
   52.6211    7.5587   18.6405 C   0  0  0  0  0  0  0  0  0  0  0  0
   53.2999    5.4286   17.4247 C   0  0  0  0  0  0  0  0  0  0  0  0
   44.8225    7.0409   12.4670 C   0  0  0  0  0  0  0  0  0  0  0  0
   48.2024    6.2062   13.7635 C   0  0  0  0  0  0  0  0  0  0  0  0
   46.1294    7.1943   12.9599 C   0  0  0  0  0  0  0  0  0  0  0  0
   46.8954    6.0483   13.2696 C   0  0  0  0  0  0  0  0  0  0  0  0
   51.3424    5.0840   19.5983 C   0  0  2  0  0  0  0  0  0  0  0  0
   53.0202    6.9088   19.9776 C   0  0  1  0  0  0  0  0  0  0  0  0
   53.6930    4.7981   18.7727 C   0  0  2  0  0  0  0  0  0  0  0  0
   52.7687    7.8864   15.4860 C   0  0  0  0  0  0  0  0  0  0  0  0
   42.3576    4.4941   11.5733 O   0  0  0  0  0  0  0  0  0  0  0  0
   45.0366    4.6336   12.5862 C   0  0  0  0  0  0  0  0  0  0  0  0
   51.1042    8.3385   13.7678 C   0  0  0  0  0  0  0  0  0  0  0  0
   47.9940    8.6014   13.6429 C   0  0  0  0  0  0  0  0  0  0  0  0
   46.3365    4.7750   13.0771 C   0  0  0  0  0  0  0  0  0  0  0  0
   46.6922    8.4637   13.1519 C   0  0  0  0  0  0  0  0  0  0  0  0
   52.4013    8.4684   14.2646 C   0  0  0  0  0  0  0  0  0  0  0  0
   51.8099    6.1756   20.5691 C   0  0  0  0  0  0  0  0  0  0  0  0
   52.4782    4.0786   19.3720 C   0  0  0  0  0  0  0  0  0  0  0  0
   54.1580    5.9036   19.7347 C   0  0  0  0  0  0  0  0  0  0  0  0
   42.2662    6.7239   11.5022 O   0  0  0  0  0  0  0  0  0  0  0  0
   54.0324    7.9917   16.0055 O   0  0  0  0  0  0  0  0  0  0  0  0
   55.0099    8.7177   15.2734 C   0  0  0  0  0  0  0  0  0  0  0  0
   49.7405    6.5036   16.2405 H   0  0  0  0  0  0  0  0  0  0  0  0
   50.1266    6.4211   18.4274 H   0  0  0  0  0  0  0  0  0  0  0  0
   50.5975    4.9422   17.5825 H   0  0  0  0  0  0  0  0  0  0  0  0
   53.4759    8.1417   18.2842 H   0  0  0  0  0  0  0  0  0  0  0  0
   51.8117    8.2824   18.8069 H   0  0  0  0  0  0  0  0  0  0  0  0
   52.9712    4.6438   16.7300 H   0  0  0  0  0  0  0  0  0  0  0  0
   54.2026    5.8613   16.9827 H   0  0  0  0  0  0  0  0  0  0  0  0
   44.2310    7.9223   12.2285 H   0  0  0  0  0  0  0  0  0  0  0  0
   48.7969    5.3228   13.9928 H   0  0  0  0  0  0  0  0  0  0  0  0
   50.4718    4.5672   20.0177 H   0  0  0  0  0  0  0  0  0  0  0  0
   53.3563    7.6839   20.6757 H   0  0  0  0  0  0  0  0  0  0  0  0
   54.5054    4.0790   18.6179 H   0  0  0  0  0  0  0  0  0  0  0  0
   44.6220    3.6373   12.4445 H   0  0  0  0  0  0  0  0  0  0  0  0
   50.8574    8.7936   12.8108 H   0  0  0  0  0  0  0  0  0  0  0  0
   48.3966    9.6017   13.7911 H   0  0  0  0  0  0  0  0  0  0  0  0
   46.9109    3.8802   13.3087 H   0  0  0  0  0  0  0  0  0  0  0  0
   46.1209    9.3611   12.9236 H   0  0  0  0  0  0  0  0  0  0  0  0
   53.1068    9.0335   13.6648 H   0  0  0  0  0  0  0  0  0  0  0  0
   52.0751    5.7307   21.5361 H   0  0  0  0  0  0  0  0  0  0  0  0
   50.9954    6.8854   20.7582 H   0  0  0  0  0  0  0  0  0  0  0  0
   52.7534    3.6019   20.3209 H   0  0  0  0  0  0  0  0  0  0  0  0
   52.1449    3.2789   18.6993 H   0  0  0  0  0  0  0  0  0  0  0  0
   55.0324    6.4194   19.3194 H   0  0  0  0  0  0  0  0  0  0  0  0
   54.4731    5.4603   20.6874 H   0  0  0  0  0  0  0  0  0  0  0  0
   41.3874    6.4397   11.1741 H   0  0  0  0  0  0  0  0  0  0  0  0
   54.7222    9.7685   15.1642 H   0  0  0  0  0  0  0  0  0  0  0  0
   55.2012    8.2530   14.3008 H   0  0  0  0  0  0  0  0  0  0  0  0
   55.9432    8.6877   15.8439 H   0  0  0  0  0  0  0  0  0  0  0  0
  1  2  1  1
  3  2  2  0
  4  6  1  0
  5  3  1  0
  6 11  2  0
  7  5  1  0
  8  1  1  0
  9  1  1  0
 10  1  1  0
 11 13  1  0
 12  7  1  0
 13 24  2  0
 14 12  2  0
 15  8  1  0
 16  9  1  0
 17 10  1  0
 18  2  1  0
 19  4  2  0
 20 23  2  0
 21 25  1  0
 22  7  2  0
 23 14  1  0
 24 22  1  0
 25 18  2  0
 26 16  1  0
 27 17  1  0
 28 17  1  0
 29  4  1  0
 30 18  1  0
 31 30  1  0
 28 16  1  0
 27 15  1  0
 26 15  1  0
 21  5  2  0
 13 14  1  0
  6 20  1  0
  3 32  1  0
  8 33  1  0
  8 34  1  0
  9 35  1  0
  9 36  1  0
 10 37  1  0
 10 38  1  0
 11 39  1  0
 12 40  1  0
 15 41  1  6
 16 42  1  6
 17 43  1  1
 20 44  1  0
 21 45  1  0
 22 46  1  0
 23 47  1  0
 24 48  1  0
 25 49  1  0
 26 50  1  0
 26 51  1  0
 27 52  1  0
 27 53  1  0
 28 54  1  0
 28 55  1  0
 29 56  1  0
 31 57  1  0
 31 58  1  0
 31 59  1  0
M  END
> <Uni-Dock RESULT> 
ENERGY=   -5.122  LOWER_BOUND=    1.995  UPPER_BOUND=    9.298
INTER + INTRA:          -5.122
INTER:                  -5.122
INTRA:                   0.000
UNBOUND:                 0.000

$$$$

     RDKit          3D

 59 64  0  0  0  0  0  0  0  0999 V2000
   48.6384    9.9601   18.6043 C   0  0  2  0  0  0  0  0  0  0  0  0
   48.8869   10.0110   17.0733 C   0  0  0  0  0  0  0  0  0  0  0  0
   48.1102    9.2208   16.1921 C   0  0  0  0  0  0  0  0  0  0  0  0
   44.1823    3.6604   10.7744 C   0  0  0  0  0  0  0  0  0  0  0  0
   48.2884    9.2249   14.7961 C   0  0  0  0  0  0  0  0  0  0  0  0
   45.0065    4.5519   11.6255 C   0  0  0  0  0  0  0  0  0  0  0  0
   47.4566    8.3810   13.9231 C   0  0  0  0  0  0  0  0  0  0  0  0
   47.4865    8.9794   19.0191 C   0  0  0  0  0  0  0  0  0  0  0  0
   48.2260   11.3626   19.1470 C   0  0  0  0  0  0  0  0  0  0  0  0
   49.9132    9.4689   19.3565 C   0  0  0  0  0  0  0  0  0  0  0  0
   45.0603    5.9360   11.4184 C   0  0  0  0  0  0  0  0  0  0  0  0
   47.3881    6.9904   14.1149 C   0  0  0  0  0  0  0  0  0  0  0  0
   45.8518    6.7531   12.2434 C   0  0  0  0  0  0  0  0  0  0  0  0
   46.5982    6.1691   13.2912 C   0  0  0  0  0  0  0  0  0  0  0  0
   47.2668    8.9519   20.5415 C   0  0  2  0  0  0  0  0  0  0  0  0
   48.0266   11.3381   20.6731 C   0  0  1  0  0  0  0  0  0  0  0  0
   49.6986    9.4618   20.8807 C   0  0  2  0  0  0  0  0  0  0  0  0
   49.8823   10.8347   16.4903 C   0  0  0  0  0  0  0  0  0  0  0  0
   44.0844    2.4530   10.8921 O   0  0  0  0  0  0  0  0  0  0  0  0
   45.7470    3.9774   12.6624 C   0  0  0  0  0  0  0  0  0  0  0  0
   49.2780   10.0519   14.2655 C   0  0  0  0  0  0  0  0  0  0  0  0
   46.7097    8.9405   12.8773 C   0  0  0  0  0  0  0  0  0  0  0  0
   46.5367    4.7806   13.4883 C   0  0  0  0  0  0  0  0  0  0  0  0
   45.9177    8.1397   12.0490 C   0  0  0  0  0  0  0  0  0  0  0  0
   50.0649   10.8457   15.1003 C   0  0  0  0  0  0  0  0  0  0  0  0
   46.8981   10.3604   21.0239 C   0  0  0  0  0  0  0  0  0  0  0  0
   48.5592    8.4962   21.2301 C   0  0  0  0  0  0  0  0  0  0  0  0
   49.3290   10.8789   21.3487 C   0  0  0  0  0  0  0  0  0  0  0  0
   43.5165    4.3230    9.8121 O   0  0  0  0  0  0  0  0  0  0  0  0
   50.6359   11.5994   17.3418 O   0  0  0  0  0  0  0  0  0  0  0  0
   51.6456   12.4343   16.7921 C   0  0  0  0  0  0  0  0  0  0  0  0
   47.3227    8.5781   16.5775 H   0  0  0  0  0  0  0  0  0  0  0  0
   46.5437    9.2740   18.5390 H   0  0  0  0  0  0  0  0  0  0  0  0
   47.7151    7.9589   18.6837 H   0  0  0  0  0  0  0  0  0  0  0  0
   48.9761   12.1264   18.9204 H   0  0  0  0  0  0  0  0  0  0  0  0
   47.3007   11.6950   18.6572 H   0  0  0  0  0  0  0  0  0  0  0  0
   50.1827    8.4603   19.0151 H   0  0  0  0  0  0  0  0  0  0  0  0
   50.7823   10.0992   19.1448 H   0  0  0  0  0  0  0  0  0  0  0  0
   44.4845    6.3840   10.6114 H   0  0  0  0  0  0  0  0  0  0  0  0
   47.9716    6.5393   14.9165 H   0  0  0  0  0  0  0  0  0  0  0  0
   46.4557    8.2560   20.7842 H   0  0  0  0  0  0  0  0  0  0  0  0
   47.7637   12.3425   21.0242 H   0  0  0  0  0  0  0  0  0  0  0  0
   50.6194    9.1378   21.3789 H   0  0  0  0  0  0  0  0  0  0  0  0
   45.7131    2.9029   12.8325 H   0  0  0  0  0  0  0  0  0  0  0  0
   49.4552   10.0771   13.1923 H   0  0  0  0  0  0  0  0  0  0  0  0
   46.7295   10.0152   12.7063 H   0  0  0  0  0  0  0  0  0  0  0  0
   47.1050    4.3118   14.2893 H   0  0  0  0  0  0  0  0  0  0  0  0
   45.3496    8.6129   11.2507 H   0  0  0  0  0  0  0  0  0  0  0  0
   50.8204   11.4641   14.6272 H   0  0  0  0  0  0  0  0  0  0  0  0
   46.7285   10.3546   22.1076 H   0  0  0  0  0  0  0  0  0  0  0  0
   45.9602   10.6849   20.5568 H   0  0  0  0  0  0  0  0  0  0  0  0
   48.4147    8.4621   22.3169 H   0  0  0  0  0  0  0  0  0  0  0  0
   48.8172    7.4788   20.9115 H   0  0  0  0  0  0  0  0  0  0  0  0
   50.1415   11.5765   21.1113 H   0  0  0  0  0  0  0  0  0  0  0  0
   49.2076   10.8914   22.4389 H   0  0  0  0  0  0  0  0  0  0  0  0
   43.0254    3.6178    9.3403 H   0  0  0  0  0  0  0  0  0  0  0  0
   51.2146   13.1919   16.1296 H   0  0  0  0  0  0  0  0  0  0  0  0
   52.4109   11.8435   16.2785 H   0  0  0  0  0  0  0  0  0  0  0  0
   52.1323   12.9577   17.6209 H   0  0  0  0  0  0  0  0  0  0  0  0
  1  2  1  1
  3  2  2  0
  4  6  1  0
  5  3  1  0
  6 11  2  0
  7  5  1  0
  8  1  1  0
  9  1  1  0
 10  1  1  0
 11 13  1  0
 12  7  1  0
 13 24  2  0
 14 12  2  0
 15  8  1  0
 16  9  1  0
 17 10  1  0
 18  2  1  0
 19  4  2  0
 20 23  2  0
 21 25  1  0
 22  7  2  0
 23 14  1  0
 24 22  1  0
 25 18  2  0
 26 16  1  0
 27 17  1  0
 28 17  1  0
 29  4  1  0
 30 18  1  0
 31 30  1  0
 28 16  1  0
 27 15  1  0
 26 15  1  0
 21  5  2  0
 13 14  1  0
  6 20  1  0
  3 32  1  0
  8 33  1  0
  8 34  1  0
  9 35  1  0
  9 36  1  0
 10 37  1  0
 10 38  1  0
 11 39  1  0
 12 40  1  0
 15 41  1  6
 16 42  1  6
 17 43  1  1
 20 44  1  0
 21 45  1  0
 22 46  1  0
 23 47  1  0
 24 48  1  0
 25 49  1  0
 26 50  1  0
 26 51  1  0
 27 52  1  0
 27 53  1  0
 28 54  1  0
 28 55  1  0
 29 56  1  0
 31 57  1  0
 31 58  1  0
 31 59  1  0
M  END
> <Uni-Dock RESULT> 
ENERGY=   -5.096  LOWER_BOUND=    4.023  UPPER_BOUND=    9.029
INTER + INTRA:          -5.096
INTER:                  -5.096
INTRA:                   0.000
UNBOUND:                 0.000

$$$$

     RDKit          3D

 59 64  0  0  0  0  0  0  0  0999 V2000
   53.6988    7.0742    9.7192 C   0  0  2  0  0  0  0  0  0  0  0  0
   53.1120    7.7234   11.0009 C   0  0  0  0  0  0  0  0  0  0  0  0
   51.8224    8.3071   10.9854 C   0  0  0  0  0  0  0  0  0  0  0  0
   44.4112   12.8599   10.7757 C   0  0  0  0  0  0  0  0  0  0  0  0
   51.2375    8.9096   12.1148 C   0  0  0  0  0  0  0  0  0  0  0  0
   45.7487   12.2297   10.8858 C   0  0  0  0  0  0  0  0  0  0  0  0
   49.8940    9.5064   12.0456 C   0  0  0  0  0  0  0  0  0  0  0  0
   52.7350    7.1462    8.4837 C   0  0  0  0  0  0  0  0  0  0  0  0
   53.9925    5.5599    9.9483 C   0  0  0  0  0  0  0  0  0  0  0  0
   55.0111    7.7953    9.2837 C   0  0  0  0  0  0  0  0  0  0  0  0
   46.0255   11.2331   11.8301 C   0  0  0  0  0  0  0  0  0  0  0  0
   49.5958   10.5068   11.1045 C   0  0  0  0  0  0  0  0  0  0  0  0
   47.3044   10.6561   11.9084 C   0  0  0  0  0  0  0  0  0  0  0  0
   48.3178   11.0875   11.0235 C   0  0  0  0  0  0  0  0  0  0  0  0
   53.3464    6.4954    7.2309 C   0  0  2  0  0  0  0  0  0  0  0  0
   54.6231    4.9150    8.7010 C   0  0  1  0  0  0  0  0  0  0  0  0
   55.6326    7.1301    8.0426 C   0  0  2  0  0  0  0  0  0  0  0  0
   53.8215    7.7637   12.2274 C   0  0  0  0  0  0  0  0  0  0  0  0
   44.0952   13.7283    9.9837 O   0  0  0  0  0  0  0  0  0  0  0  0
   46.7540   12.6548   10.0127 C   0  0  0  0  0  0  0  0  0  0  0  0
   51.9705    8.9248   13.3012 C   0  0  0  0  0  0  0  0  0  0  0  0
   48.8752    9.0935   12.9151 C   0  0  0  0  0  0  0  0  0  0  0  0
   48.0285   12.0876   10.0818 C   0  0  0  0  0  0  0  0  0  0  0  0
   47.5981    9.6586   12.8483 C   0  0  0  0  0  0  0  0  0  0  0  0
   53.2451    8.3606   13.3574 C   0  0  0  0  0  0  0  0  0  0  0  0
   53.6456    5.0199    7.5237 C   0  0  0  0  0  0  0  0  0  0  0  0
   54.6486    7.2206    6.8696 C   0  0  0  0  0  0  0  0  0  0  0  0
   55.9258    5.6526    8.3508 C   0  0  0  0  0  0  0  0  0  0  0  0
   43.5276   12.3728   11.6648 O   0  0  0  0  0  0  0  0  0  0  0  0
   55.0705    7.2002   12.2438 O   0  0  0  0  0  0  0  0  0  0  0  0
   55.8117    7.2260   13.4557 C   0  0  0  0  0  0  0  0  0  0  0  0
   51.2236    8.2964   10.0781 H   0  0  0  0  0  0  0  0  0  0  0  0
   51.7873    6.6389    8.7093 H   0  0  0  0  0  0  0  0  0  0  0  0
   52.4941    8.1916    8.2483 H   0  0  0  0  0  0  0  0  0  0  0  0
   54.6737    5.3972   10.7890 H   0  0  0  0  0  0  0  0  0  0  0  0
   53.0634    5.0346   10.2079 H   0  0  0  0  0  0  0  0  0  0  0  0
   54.8034    8.8531    9.0727 H   0  0  0  0  0  0  0  0  0  0  0  0
   55.7643    7.7903   10.0775 H   0  0  0  0  0  0  0  0  0  0  0  0
   45.2437   10.9018   12.5103 H   0  0  0  0  0  0  0  0  0  0  0  0
   50.3802   10.8463   10.4293 H   0  0  0  0  0  0  0  0  0  0  0  0
   52.6405    6.5688    6.3958 H   0  0  0  0  0  0  0  0  0  0  0  0
   54.8403    3.8602    8.9043 H   0  0  0  0  0  0  0  0  0  0  0  0
   56.5646    7.6434    7.7797 H   0  0  0  0  0  0  0  0  0  0  0  0
   46.5506   13.4288    9.2751 H   0  0  0  0  0  0  0  0  0  0  0  0
   51.5591    9.3898   14.1947 H   0  0  0  0  0  0  0  0  0  0  0  0
   49.0667    8.3129   13.6490 H   0  0  0  0  0  0  0  0  0  0  0  0
   48.7959   12.4341    9.3924 H   0  0  0  0  0  0  0  0  0  0  0  0
   46.8335    9.3077   13.5382 H   0  0  0  0  0  0  0  0  0  0  0  0
   53.7658    8.4078   14.3080 H   0  0  0  0  0  0  0  0  0  0  0  0
   54.0735    4.5392    6.6354 H   0  0  0  0  0  0  0  0  0  0  0  0
   52.7162    4.4863    7.7575 H   0  0  0  0  0  0  0  0  0  0  0  0
   55.0916    6.7733    5.9713 H   0  0  0  0  0  0  0  0  0  0  0  0
   54.4412    8.2713    6.6326 H   0  0  0  0  0  0  0  0  0  0  0  0
   56.6359    5.5765    9.1833 H   0  0  0  0  0  0  0  0  0  0  0  0
   56.4009    5.1782    7.4833 H   0  0  0  0  0  0  0  0  0  0  0  0
   42.7062   12.8733   11.4756 H   0  0  0  0  0  0  0  0  0  0  0  0
   55.3001    6.6643   14.2440 H   0  0  0  0  0  0  0  0  0  0  0  0
   56.0211    8.2538   13.7693 H   0  0  0  0  0  0  0  0  0  0  0  0
   56.7717    6.7348   13.2691 H   0  0  0  0  0  0  0  0  0  0  0  0
  1  2  1  1
  3  2  2  0
  4  6  1  0
  5  3  1  0
  6 11  2  0
  7  5  1  0
  8  1  1  0
  9  1  1  0
 10  1  1  0
 11 13  1  0
 12  7  1  0
 13 24  2  0
 14 12  2  0
 15  8  1  0
 16  9  1  0
 17 10  1  0
 18  2  1  0
 19  4  2  0
 20 23  2  0
 21 25  1  0
 22  7  2  0
 23 14  1  0
 24 22  1  0
 25 18  2  0
 26 16  1  0
 27 17  1  0
 28 17  1  0
 29  4  1  0
 30 18  1  0
 31 30  1  0
 28 16  1  0
 27 15  1  0
 26 15  1  0
 21  5  2  0
 13 14  1  0
  6 20  1  0
  3 32  1  0
  8 33  1  0
  8 34  1  0
  9 35  1  0
  9 36  1  0
 10 37  1  0
 10 38  1  0
 11 39  1  0
 12 40  1  0
 15 41  1  6
 16 42  1  6
 17 43  1  1
 20 44  1  0
 21 45  1  0
 22 46  1  0
 23 47  1  0
 24 48  1  0
 25 49  1  0
 26 50  1  0
 26 51  1  0
 27 52  1  0
 27 53  1  0
 28 54  1  0
 28 55  1  0
 29 56  1  0
 31 57  1  0
 31 58  1  0
 31 59  1  0
M  END
> <Uni-Dock RESULT> 
ENERGY=   -4.888  LOWER_BOUND=    5.484  UPPER_BOUND=   10.174
INTER + INTRA:          -4.888
INTER:                  -4.888
INTRA:                   0.000
UNBOUND:                 0.000

$$$$

     RDKit          3D

 59 64  0  0  0  0  0  0  0  0999 V2000
   52.7497    7.3812   16.2052 C   0  0  2  0  0  0  0  0  0  0  0  0
   52.0821    8.0347   14.9661 C   0  0  0  0  0  0  0  0  0  0  0  0
   50.7359    7.7445   14.6379 C   0  0  0  0  0  0  0  0  0  0  0  0
   42.8682    5.2513   11.8844 C   0  0  0  0  0  0  0  0  0  0  0  0
   50.0768    8.3061   13.5284 C   0  0  0  0  0  0  0  0  0  0  0  0
   44.2662    5.6419   12.1867 C   0  0  0  0  0  0  0  0  0  0  0  0
   48.6761    7.9685   13.2279 C   0  0  0  0  0  0  0  0  0  0  0  0
   51.7962    6.4179   16.9948 C   0  0  0  0  0  0  0  0  0  0  0  0
   53.2072    8.4668   17.2269 C   0  0  0  0  0  0  0  0  0  0  0  0
   53.9783    6.5187   15.7823 C   0  0  0  0  0  0  0  0  0  0  0  0
   44.6424    6.9790   12.3658 C   0  0  0  0  0  0  0  0  0  0  0  0
   48.2782    6.6329   13.0458 C   0  0  0  0  0  0  0  0  0  0  0  0
   45.9765    7.3154   12.6513 C   0  0  0  0  0  0  0  0  0  0  0  0
   46.9445    6.2920   12.7590 C   0  0  0  0  0  0  0  0  0  0  0  0
   52.4882    5.7867   18.2152 C   0  0  2  0  0  0  0  0  0  0  0  0
   53.9176    7.8351   18.4375 C   0  0  1  0  0  0  0  0  0  0  0  0
   54.6819    5.9049   17.0060 C   0  0  2  0  0  0  0  0  0  0  0  0
   52.7705    8.9377   14.1176 C   0  0  0  0  0  0  0  0  0  0  0  0
   42.4659    4.1150   11.7165 O   0  0  0  0  0  0  0  0  0  0  0  0
   45.2268    4.6320   12.2928 C   0  0  0  0  0  0  0  0  0  0  0  0
   50.7918    9.1911   12.7220 C   0  0  0  0  0  0  0  0  0  0  0  0
   47.7008    8.9689   13.1156 C   0  0  0  0  0  0  0  0  0  0  0  0
   46.5556    4.9556   12.5767 C   0  0  0  0  0  0  0  0  0  0  0  0
   46.3697    8.6486   12.8323 C   0  0  0  0  0  0  0  0  0  0  0  0
   52.1204    9.5027   13.0114 C   0  0  0  0  0  0  0  0  0  0  0  0
   52.9463    6.8988   19.1670 C   0  0  0  0  0  0  0  0  0  0  0  0
   53.7055    4.9811   17.7447 C   0  0  0  0  0  0  0  0  0  0  0  0
   55.1340    7.0307   17.9504 C   0  0  0  0  0  0  0  0  0  0  0  0
   42.0353    6.3042   11.8057 O   0  0  0  0  0  0  0  0  0  0  0  0
   54.0741    9.2188   14.4331 O   0  0  0  0  0  0  0  0  0  0  0  0
   54.7959   10.1171   13.6020 C   0  0  0  0  0  0  0  0  0  0  0  0
   50.1510    7.0694   15.2574 H   0  0  0  0  0  0  0  0  0  0  0  0
   50.9084    6.9622   17.3440 H   0  0  0  0  0  0  0  0  0  0  0  0
   51.4433    5.6096   16.3403 H   0  0  0  0  0  0  0  0  0  0  0  0
   53.8939    9.1899   16.7765 H   0  0  0  0  0  0  0  0  0  0  0  0
   52.3395    9.0478   17.5676 H   0  0  0  0  0  0  0  0  0  0  0  0
   53.6568    5.7202   15.1001 H   0  0  0  0  0  0  0  0  0  0  0  0
   54.7195    7.1044   15.2301 H   0  0  0  0  0  0  0  0  0  0  0  0
   43.8955    7.7657   12.2831 H   0  0  0  0  0  0  0  0  0  0  0  0
   49.0268    5.8450   13.1188 H   0  0  0  0  0  0  0  0  0  0  0  0
   51.7869    5.1239   18.7346 H   0  0  0  0  0  0  0  0  0  0  0  0
   54.2484    8.6252   19.1213 H   0  0  0  0  0  0  0  0  0  0  0  0
   55.5538    5.3284   16.6764 H   0  0  0  0  0  0  0  0  0  0  0  0
   44.9461    3.5895   12.1553 H   0  0  0  0  0  0  0  0  0  0  0  0
   50.3226    9.6394   11.8486 H   0  0  0  0  0  0  0  0  0  0  0  0
   47.9704   10.0132   13.2618 H   0  0  0  0  0  0  0  0  0  0  0  0
   47.2866    4.1532   12.6545 H   0  0  0  0  0  0  0  0  0  0  0  0
   45.6419    9.4539   12.7573 H   0  0  0  0  0  0  0  0  0  0  0  0
   52.6233   10.1944   12.3439 H   0  0  0  0  0  0  0  0  0  0  0  0
   53.4335    6.4632   20.0479 H   0  0  0  0  0  0  0  0  0  0  0  0
   52.0795    7.4645   19.5300 H   0  0  0  0  0  0  0  0  0  0  0  0
   54.2042    4.5163   18.6041 H   0  0  0  0  0  0  0  0  0  0  0  0
   53.3854    4.1663   17.0839 H   0  0  0  0  0  0  0  0  0  0  0  0
   55.8399    7.6929   17.4343 H   0  0  0  0  0  0  0  0  0  0  0  0
   55.6673    6.6049   18.8093 H   0  0  0  0  0  0  0  0  0  0  0  0
   41.1655    5.8991   11.6053 H   0  0  0  0  0  0  0  0  0  0  0  0
   54.3419   11.1134   13.6088 H   0  0  0  0  0  0  0  0  0  0  0  0
   54.8870    9.7268   12.5833 H   0  0  0  0  0  0  0  0  0  0  0  0
   55.8062   10.2111   14.0121 H   0  0  0  0  0  0  0  0  0  0  0  0
  1  2  1  1
  3  2  2  0
  4  6  1  0
  5  3  1  0
  6 11  2  0
  7  5  1  0
  8  1  1  0
  9  1  1  0
 10  1  1  0
 11 13  1  0
 12  7  1  0
 13 24  2  0
 14 12  2  0
 15  8  1  0
 16  9  1  0
 17 10  1  0
 18  2  1  0
 19  4  2  0
 20 23  2  0
 21 25  1  0
 22  7  2  0
 23 14  1  0
 24 22  1  0
 25 18  2  0
 26 16  1  0
 27 17  1  0
 28 17  1  0
 29  4  1  0
 30 18  1  0
 31 30  1  0
 28 16  1  0
 27 15  1  0
 26 15  1  0
 21  5  2  0
 13 14  1  0
  6 20  1  0
  3 32  1  0
  8 33  1  0
  8 34  1  0
  9 35  1  0
  9 36  1  0
 10 37  1  0
 10 38  1  0
 11 39  1  0
 12 40  1  0
 15 41  1  6
 16 42  1  6
 17 43  1  1
 20 44  1  0
 21 45  1  0
 22 46  1  0
 23 47  1  0
 24 48  1  0
 25 49  1  0
 26 50  1  0
 26 51  1  0
 27 52  1  0
 27 53  1  0
 28 54  1  0
 28 55  1  0
 29 56  1  0
 31 57  1  0
 31 58  1  0
 31 59  1  0
M  END
> <Uni-Dock RESULT> 
ENERGY=   -4.737  LOWER_BOUND=    2.529  UPPER_BOUND=    9.269
INTER + INTRA:          -4.737
INTER:                  -4.737
INTRA:                   0.000
UNBOUND:                 0.000

$$$$

     RDKit          3D

 59 64  0  0  0  0  0  0  0  0999 V2000
   48.2972    6.3846   18.7199 C   0  0  2  0  0  0  0  0  0  0  0  0
   48.0652    7.7434   19.4329 C   0  0  0  0  0  0  0  0  0  0  0  0
   48.1628    8.9588   18.7135 C   0  0  0  0  0  0  0  0  0  0  0  0
   49.7772   16.5129   14.7103 C   0  0  0  0  0  0  0  0  0  0  0  0
   47.9628   10.2202   19.3045 C   0  0  0  0  0  0  0  0  0  0  0  0
   49.6118   15.2836   15.5226 C   0  0  0  0  0  0  0  0  0  0  0  0
   48.0798   11.4555   18.5131 C   0  0  0  0  0  0  0  0  0  0  0  0
   48.6330    6.5277   17.1944 C   0  0  0  0  0  0  0  0  0  0  0  0
   47.0213    5.4915   18.7979 C   0  0  0  0  0  0  0  0  0  0  0  0
   49.5008    5.6236   19.3558 C   0  0  0  0  0  0  0  0  0  0  0  0
   48.4307   15.0091   16.2235 C   0  0  0  0  0  0  0  0  0  0  0  0
   49.2559   11.7488   17.8017 C   0  0  0  0  0  0  0  0  0  0  0  0
   48.3064   13.8344   16.9846 C   0  0  0  0  0  0  0  0  0  0  0  0
   49.3849   12.9235   17.0398 C   0  0  0  0  0  0  0  0  0  0  0  0
   48.8579    5.1641   16.5184 C   0  0  2  0  0  0  0  0  0  0  0  0
   47.2545    4.1199   18.1393 C   0  0  1  0  0  0  0  0  0  0  0  0
   49.7114    4.2508   18.6924 C   0  0  2  0  0  0  0  0  0  0  0  0
   47.7491    7.8358   20.8116 C   0  0  0  0  0  0  0  0  0  0  0  0
   50.7692   16.8198   14.0754 O   0  0  0  0  0  0  0  0  0  0  0  0
   50.6772   14.3807   15.5804 C   0  0  0  0  0  0  0  0  0  0  0  0
   47.6516   10.2639   20.6633 C   0  0  0  0  0  0  0  0  0  0  0  0
   47.0220   12.3727   18.4463 C   0  0  0  0  0  0  0  0  0  0  0  0
   50.5638   13.2100   16.3336 C   0  0  0  0  0  0  0  0  0  0  0  0
   47.1318   13.5453   17.6928 C   0  0  0  0  0  0  0  0  0  0  0  0
   47.5466    9.0886   21.4074 C   0  0  0  0  0  0  0  0  0  0  0  0
   47.5865    4.3172   16.6550 C   0  0  0  0  0  0  0  0  0  0  0  0
   50.0275    4.4472   17.2044 C   0  0  0  0  0  0  0  0  0  0  0  0
   48.4294    3.4144   18.8363 C   0  0  0  0  0  0  0  0  0  0  0  0
   48.6902   17.3044   14.7301 O   0  0  0  0  0  0  0  0  0  0  0  0
   47.6553    6.6604   21.5097 O   0  0  0  0  0  0  0  0  0  0  0  0
   47.3436    6.7157   22.8948 C   0  0  0  0  0  0  0  0  0  0  0  0
   48.3899    8.9530   17.6504 H   0  0  0  0  0  0  0  0  0  0  0  0
   47.8163    7.0425   16.6708 H   0  0  0  0  0  0  0  0  0  0  0  0
   49.5379    7.1351   17.0583 H   0  0  0  0  0  0  0  0  0  0  0  0
   46.7060    5.3167   19.8311 H   0  0  0  0  0  0  0  0  0  0  0  0
   46.1795    5.9997   18.3084 H   0  0  0  0  0  0  0  0  0  0  0  0
   50.4148    6.2254   19.2614 H   0  0  0  0  0  0  0  0  0  0  0  0
   49.3604    5.4580   20.4283 H   0  0  0  0  0  0  0  0  0  0  0  0
   47.6011   15.7115   16.1794 H   0  0  0  0  0  0  0  0  0  0  0  0
   50.0909   11.0512   17.8527 H   0  0  0  0  0  0  0  0  0  0  0  0
   49.0888    5.3124   15.4574 H   0  0  0  0  0  0  0  0  0  0  0  0
   46.3494    3.5093   18.2345 H   0  0  0  0  0  0  0  0  0  0  0  0
   50.5456    3.7327   19.1790 H   0  0  0  0  0  0  0  0  0  0  0  0
   51.5999   14.5837   15.0400 H   0  0  0  0  0  0  0  0  0  0  0  0
   47.4994   11.2193   21.1611 H   0  0  0  0  0  0  0  0  0  0  0  0
   46.0919   12.1729   18.9750 H   0  0  0  0  0  0  0  0  0  0  0  0
   51.4060   12.5214   16.3645 H   0  0  0  0  0  0  0  0  0  0  0  0
   46.2866   14.2298   17.6632 H   0  0  0  0  0  0  0  0  0  0  0  0
   47.3061    9.1893   22.4605 H   0  0  0  0  0  0  0  0  0  0  0  0
   47.7284    3.3443   16.1685 H   0  0  0  0  0  0  0  0  0  0  0  0
   46.7497    4.8091   16.1443 H   0  0  0  0  0  0  0  0  0  0  0  0
   50.2063    3.4764   16.7262 H   0  0  0  0  0  0  0  0  0  0  0  0
   50.9478    5.0328   17.0894 H   0  0  0  0  0  0  0  0  0  0  0  0
   48.1987    3.2605   19.8976 H   0  0  0  0  0  0  0  0  0  0  0  0
   48.5812    2.4210   18.3966 H   0  0  0  0  0  0  0  0  0  0  0  0
   48.9424   18.0615   14.1608 H   0  0  0  0  0  0  0  0  0  0  0  0
   46.3550    7.1562   23.0603 H   0  0  0  0  0  0  0  0  0  0  0  0
   48.1180    7.2514   23.4533 H   0  0  0  0  0  0  0  0  0  0  0  0
   47.3152    5.6883   23.2708 H   0  0  0  0  0  0  0  0  0  0  0  0
  1  2  1  1
  3  2  2  0
  4  6  1  0
  5  3  1  0
  6 11  2  0
  7  5  1  0
  8  1  1  0
  9  1  1  0
 10  1  1  0
 11 13  1  0
 12  7  1  0
 13 24  2  0
 14 12  2  0
 15  8  1  0
 16  9  1  0
 17 10  1  0
 18  2  1  0
 19  4  2  0
 20 23  2  0
 21 25  1  0
 22  7  2  0
 23 14  1  0
 24 22  1  0
 25 18  2  0
 26 16  1  0
 27 17  1  0
 28 17  1  0
 29  4  1  0
 30 18  1  0
 31 30  1  0
 28 16  1  0
 27 15  1  0
 26 15  1  0
 21  5  2  0
 13 14  1  0
  6 20  1  0
  3 32  1  0
  8 33  1  0
  8 34  1  0
  9 35  1  0
  9 36  1  0
 10 37  1  0
 10 38  1  0
 11 39  1  0
 12 40  1  0
 15 41  1  6
 16 42  1  6
 17 43  1  1
 20 44  1  0
 21 45  1  0
 22 46  1  0
 23 47  1  0
 24 48  1  0
 25 49  1  0
 26 50  1  0
 26 51  1  0
 27 52  1  0
 27 53  1  0
 28 54  1  0
 28 55  1  0
 29 56  1  0
 31 57  1  0
 31 58  1  0
 31 59  1  0
M  END
> <Uni-Dock RESULT> 
ENERGY=   -4.700  LOWER_BOUND=    5.235  UPPER_BOUND=    8.924
INTER + INTRA:          -4.700
INTER:                  -4.700
INTRA:                   0.000
UNBOUND:                 0.000

$$$$

     RDKit          3D

 59 64  0  0  0  0  0  0  0  0999 V2000
   43.6706   12.8102    7.2562 C   0  0  2  0  0  0  0  0  0  0  0  0
   43.6815   12.6493    8.7997 C   0  0  0  0  0  0  0  0  0  0  0  0
   44.1521   11.4541    9.3947 C   0  0  0  0  0  0  0  0  0  0  0  0
   45.9864    3.8204   13.1443 C   0  0  0  0  0  0  0  0  0  0  0  0
   44.1867   11.2501   10.7868 C   0  0  0  0  0  0  0  0  0  0  0  0
   45.5216    5.1192   12.6009 C   0  0  0  0  0  0  0  0  0  0  0  0
   44.6820    9.9864   11.3558 C   0  0  0  0  0  0  0  0  0  0  0  0
   44.2150   11.5531    6.4921 C   0  0  0  0  0  0  0  0  0  0  0  0
   44.5710   14.0049    6.8160 C   0  0  0  0  0  0  0  0  0  0  0  0
   42.2190   13.0364    6.7329 C   0  0  0  0  0  0  0  0  0  0  0  0
   46.1015    6.3354   12.9833 C   0  0  0  0  0  0  0  0  0  0  0  0
   44.1144    8.7555   10.9844 C   0  0  0  0  0  0  0  0  0  0  0  0
   45.6371    7.5493   12.4492 C   0  0  0  0  0  0  0  0  0  0  0  0
   44.5754    7.5387   11.5171 C   0  0  0  0  0  0  0  0  0  0  0  0
   44.1899   11.7447    4.9658 C   0  0  2  0  0  0  0  0  0  0  0  0
   44.5286   14.2081    5.2907 C   0  0  1  0  0  0  0  0  0  0  0  0
   42.1979   13.2486    5.2085 C   0  0  2  0  0  0  0  0  0  0  0  0
   43.2315   13.6695    9.6749 C   0  0  0  0  0  0  0  0  0  0  0  0
   45.5345    2.7264   12.8612 O   0  0  0  0  0  0  0  0  0  0  0  0
   44.4707    5.1125   11.6794 C   0  0  0  0  0  0  0  0  0  0  0  0
   43.7363   12.2815   11.6104 C   0  0  0  0  0  0  0  0  0  0  0  0
   45.7333    9.9754   12.2828 C   0  0  0  0  0  0  0  0  0  0  0  0
   44.0017    6.3135   11.1422 C   0  0  0  0  0  0  0  0  0  0  0  0
   46.2056    8.7751   12.8221 C   0  0  0  0  0  0  0  0  0  0  0  0
   43.2644   13.4747   11.0629 C   0  0  0  0  0  0  0  0  0  0  0  0
   45.0621   12.9502    4.5940 C   0  0  0  0  0  0  0  0  0  0  0  0
   42.7466   11.9969    4.5123 C   0  0  0  0  0  0  0  0  0  0  0  0
   43.0766   14.4586    4.8514 C   0  0  0  0  0  0  0  0  0  0  0  0
   46.9986    3.9508   14.0201 O   0  0  0  0  0  0  0  0  0  0  0  0
   42.7745   14.8267    9.1006 O   0  0  0  0  0  0  0  0  0  0  0  0
   42.3122   15.8694    9.9478 C   0  0  0  0  0  0  0  0  0  0  0  0
   44.5223   10.6398    8.7770 H   0  0  0  0  0  0  0  0  0  0  0  0
   45.2485   11.3398    6.7967 H   0  0  0  0  0  0  0  0  0  0  0  0
   43.6154   10.6669    6.7398 H   0  0  0  0  0  0  0  0  0  0  0  0
   44.2647   14.9440    7.2867 H   0  0  0  0  0  0  0  0  0  0  0  0
   45.6065   13.8304    7.1383 H   0  0  0  0  0  0  0  0  0  0  0  0
   41.5890   12.1761    6.9964 H   0  0  0  0  0  0  0  0  0  0  0  0
   41.7469   13.9072    7.1977 H   0  0  0  0  0  0  0  0  0  0  0  0
   46.9193    6.3416   13.7008 H   0  0  0  0  0  0  0  0  0  0  0  0
   43.2892    8.7485   10.2734 H   0  0  0  0  0  0  0  0  0  0  0  0
   44.5777   10.8448    4.4751 H   0  0  0  0  0  0  0  0  0  0  0  0
   45.1495   15.0692    5.0186 H   0  0  0  0  0  0  0  0  0  0  0  0
   41.1689   13.4305    4.8781 H   0  0  0  0  0  0  0  0  0  0  0  0
   44.0121    4.1735   11.3751 H   0  0  0  0  0  0  0  0  0  0  0  0
   43.7366   12.1605   12.6916 H   0  0  0  0  0  0  0  0  0  0  0  0
   46.2046   10.9087   12.5850 H   0  0  0  0  0  0  0  0  0  0  0  0
   43.1825    6.2846   10.4265 H   0  0  0  0  0  0  0  0  0  0  0  0
   47.0262    8.8086   13.5358 H   0  0  0  0  0  0  0  0  0  0  0  0
   42.9242   14.2368   11.7559 H   0  0  0  0  0  0  0  0  0  0  0  0
   45.0620   13.0937    3.5065 H   0  0  0  0  0  0  0  0  0  0  0  0
   46.1023   12.7683    4.8907 H   0  0  0  0  0  0  0  0  0  0  0  0
   42.7114   12.1258    3.4236 H   0  0  0  0  0  0  0  0  0  0  0  0
   42.1199   11.1288    4.7503 H   0  0  0  0  0  0  0  0  0  0  0  0
   42.6877   15.3617    5.3376 H   0  0  0  0  0  0  0  0  0  0  0  0
   43.0405   14.6391    3.7699 H   0  0  0  0  0  0  0  0  0  0  0  0
   47.1954    3.0287   14.2882 H   0  0  0  0  0  0  0  0  0  0  0  0
   43.1152   16.2394   10.5936 H   0  0  0  0  0  0  0  0  0  0  0  0
   41.4451   15.5476   10.5336 H   0  0  0  0  0  0  0  0  0  0  0  0
   41.9916   16.6989    9.3101 H   0  0  0  0  0  0  0  0  0  0  0  0
  1  2  1  1
  3  2  2  0
  4  6  1  0
  5  3  1  0
  6 11  2  0
  7  5  1  0
  8  1  1  0
  9  1  1  0
 10  1  1  0
 11 13  1  0
 12  7  1  0
 13 24  2  0
 14 12  2  0
 15  8  1  0
 16  9  1  0
 17 10  1  0
 18  2  1  0
 19  4  2  0
 20 23  2  0
 21 25  1  0
 22  7  2  0
 23 14  1  0
 24 22  1  0
 25 18  2  0
 26 16  1  0
 27 17  1  0
 28 17  1  0
 29  4  1  0
 30 18  1  0
 31 30  1  0
 28 16  1  0
 27 15  1  0
 26 15  1  0
 21  5  2  0
 13 14  1  0
  6 20  1  0
  3 32  1  0
  8 33  1  0
  8 34  1  0
  9 35  1  0
  9 36  1  0
 10 37  1  0
 10 38  1  0
 11 39  1  0
 12 40  1  0
 15 41  1  6
 16 42  1  6
 17 43  1  1
 20 44  1  0
 21 45  1  0
 22 46  1  0
 23 47  1  0
 24 48  1  0
 25 49  1  0
 26 50  1  0
 26 51  1  0
 27 52  1  0
 27 53  1  0
 28 54  1  0
 28 55  1  0
 29 56  1  0
 31 57  1  0
 31 58  1  0
 31 59  1  0
M  END
> <Uni-Dock RESULT> 
ENERGY=   -4.605  LOWER_BOUND=    5.068  UPPER_BOUND=    8.947
INTER + INTRA:          -4.605
INTER:                  -4.605
INTRA:                   0.000
UNBOUND:                 0.000

$$$$

     RDKit          3D

 59 64  0  0  0  0  0  0  0  0999 V2000
   48.2032   10.1795   18.4521 C   0  0  2  0  0  0  0  0  0  0  0  0
   48.6580    9.3855   17.1987 C   0  0  0  0  0  0  0  0  0  0  0  0
   48.6299    9.9867   15.9173 C   0  0  0  0  0  0  0  0  0  0  0  0
   47.5049   13.1509    7.8912 C   0  0  0  0  0  0  0  0  0  0  0  0
   49.0300    9.3180   14.7454 C   0  0  0  0  0  0  0  0  0  0  0  0
   47.6077   12.4661    9.2022 C   0  0  0  0  0  0  0  0  0  0  0  0
   48.9779    9.9869   13.4355 C   0  0  0  0  0  0  0  0  0  0  0  0
   47.7377   11.6427   18.1311 C   0  0  0  0  0  0  0  0  0  0  0  0
   49.3700   10.3143   19.4778 C   0  0  0  0  0  0  0  0  0  0  0  0
   46.9888    9.4827   19.1389 C   0  0  0  0  0  0  0  0  0  0  0  0
   48.8126   11.9221    9.6644 C   0  0  0  0  0  0  0  0  0  0  0  0
   47.7790   10.5402   12.9542 C   0  0  0  0  0  0  0  0  0  0  0  0
   48.8760   11.2791   10.9122 C   0  0  0  0  0  0  0  0  0  0  0  0
   47.7110   11.1835   11.7058 C   0  0  0  0  0  0  0  0  0  0  0  0
   47.2930   12.4013   19.3935 C   0  0  2  0  0  0  0  0  0  0  0  0
   48.9179   11.0554   20.7489 C   0  0  1  0  0  0  0  0  0  0  0  0
   46.5584   10.2312   20.4132 C   0  0  2  0  0  0  0  0  0  0  0  0
   49.1166    8.0461   17.2707 C   0  0  0  0  0  0  0  0  0  0  0  0
   46.4971   13.6472    7.4231 O   0  0  0  0  0  0  0  0  0  0  0  0
   46.4568   12.3687    9.9894 C   0  0  0  0  0  0  0  0  0  0  0  0
   49.4761    8.0020   14.8632 C   0  0  0  0  0  0  0  0  0  0  0  0
   50.1220   10.0912   12.6325 C   0  0  0  0  0  0  0  0  0  0  0  0
   46.5089   11.7320   11.2315 C   0  0  0  0  0  0  0  0  0  0  0  0
   50.0736   10.7284   11.3889 C   0  0  0  0  0  0  0  0  0  0  0  0
   49.5185    7.3737   16.1080 C   0  0  0  0  0  0  0  0  0  0  0  0
   48.4664   12.4736   20.3785 C   0  0  0  0  0  0  0  0  0  0  0  0
   46.1222   11.6548   20.0449 C   0  0  0  0  0  0  0  0  0  0  0  0
   47.7442   10.2966   21.3896 C   0  0  0  0  0  0  0  0  0  0  0  0
   48.6720   13.1830    7.2238 O   0  0  0  0  0  0  0  0  0  0  0  0
   49.1434    7.4622   18.5101 O   0  0  0  0  0  0  0  0  0  0  0  0
   49.5939    6.1191   18.6190 C   0  0  0  0  0  0  0  0  0  0  0  0
   48.3004   11.0158   15.7988 H   0  0  0  0  0  0  0  0  0  0  0  0
   48.5526   12.2069   17.6579 H   0  0  0  0  0  0  0  0  0  0  0  0
   46.8993   11.6293   17.4218 H   0  0  0  0  0  0  0  0  0  0  0  0
   49.7632    9.3393   19.7816 H   0  0  0  0  0  0  0  0  0  0  0  0
   50.2122   10.8480   19.0170 H   0  0  0  0  0  0  0  0  0  0  0  0
   46.1448    9.4275   18.4382 H   0  0  0  0  0  0  0  0  0  0  0  0
   47.2140    8.4491   19.4189 H   0  0  0  0  0  0  0  0  0  0  0  0
   49.7088   11.9972    9.0522 H   0  0  0  0  0  0  0  0  0  0  0  0
   46.8787   10.4574   13.5618 H   0  0  0  0  0  0  0  0  0  0  0  0
   46.9775   13.4151   19.1222 H   0  0  0  0  0  0  0  0  0  0  0  0
   49.7521   11.1096   21.4576 H   0  0  0  0  0  0  0  0  0  0  0  0
   45.7222    9.7020   20.8842 H   0  0  0  0  0  0  0  0  0  0  0  0
   45.5147   12.7875    9.6404 H   0  0  0  0  0  0  0  0  0  0  0  0
   49.7848    7.4459   13.9804 H   0  0  0  0  0  0  0  0  0  0  0  0
   51.0705    9.6845   12.9779 H   0  0  0  0  0  0  0  0  0  0  0  0
   45.6007   11.6676   11.8275 H   0  0  0  0  0  0  0  0  0  0  0  0
   50.9845   10.7923   10.7974 H   0  0  0  0  0  0  0  0  0  0  0  0
   49.8713    6.3481   16.1331 H   0  0  0  0  0  0  0  0  0  0  0  0
   48.1671   13.0210   21.2808 H   0  0  0  0  0  0  0  0  0  0  0  0
   49.2998   13.0291   19.9313 H   0  0  0  0  0  0  0  0  0  0  0  0
   45.7873   12.1898   20.9421 H   0  0  0  0  0  0  0  0  0  0  0  0
   45.2681   11.6207   19.3575 H   0  0  0  0  0  0  0  0  0  0  0  0
   48.0588    9.2829   21.6665 H   0  0  0  0  0  0  0  0  0  0  0  0
   47.4372   10.7983   22.3156 H   0  0  0  0  0  0  0  0  0  0  0  0
   48.4534   13.6568    6.3940 H   0  0  0  0  0  0  0  0  0  0  0  0
   50.6378    6.0255   18.3025 H   0  0  0  0  0  0  0  0  0  0  0  0
   48.9445    5.4377   18.0599 H   0  0  0  0  0  0  0  0  0  0  0  0
   49.5413    5.8350   19.6745 H   0  0  0  0  0  0  0  0  0  0  0  0
  1  2  1  1
  3  2  2  0
  4  6  1  0
  5  3  1  0
  6 11  2  0
  7  5  1  0
  8  1  1  0
  9  1  1  0
 10  1  1  0
 11 13  1  0
 12  7  1  0
 13 24  2  0
 14 12  2  0
 15  8  1  0
 16  9  1  0
 17 10  1  0
 18  2  1  0
 19  4  2  0
 20 23  2  0
 21 25  1  0
 22  7  2  0
 23 14  1  0
 24 22  1  0
 25 18  2  0
 26 16  1  0
 27 17  1  0
 28 17  1  0
 29  4  1  0
 30 18  1  0
 31 30  1  0
 28 16  1  0
 27 15  1  0
 26 15  1  0
 21  5  2  0
 13 14  1  0
  6 20  1  0
  3 32  1  0
  8 33  1  0
  8 34  1  0
  9 35  1  0
  9 36  1  0
 10 37  1  0
 10 38  1  0
 11 39  1  0
 12 40  1  0
 15 41  1  6
 16 42  1  6
 17 43  1  1
 20 44  1  0
 21 45  1  0
 22 46  1  0
 23 47  1  0
 24 48  1  0
 25 49  1  0
 26 50  1  0
 26 51  1  0
 27 52  1  0
 27 53  1  0
 28 54  1  0
 28 55  1  0
 29 56  1  0
 31 57  1  0
 31 58  1  0
 31 59  1  0
M  END
> <Uni-Dock RESULT> 
ENERGY=   -4.490  LOWER_BOUND=    4.710  UPPER_BOUND=   10.017
INTER + INTRA:          -4.490
INTER:                  -4.490
INTRA:                   0.000
UNBOUND:                 0.000

$$$$
