
     RDKit          3D

 59 64  0  0  0  0  0  0  0  0999 V2000
   45.6613    5.3168   12.3278 C   0  0  2  0  0  0  0  0  0  0  0  0
   46.8909    6.0189   12.9631 C   0  0  0  0  0  0  0  0  0  0  0  0
   47.5402    7.0811   12.2890 C   0  0  0  0  0  0  0  0  0  0  0  0
   53.1092   13.0904    8.8797 C   0  0  0  0  0  0  0  0  0  0  0  0
   48.6588    7.7546   12.8136 C   0  0  0  0  0  0  0  0  0  0  0  0
   52.5104   11.9577    9.6258 C   0  0  0  0  0  0  0  0  0  0  0  0
   49.2969    8.8553   12.0741 C   0  0  0  0  0  0  0  0  0  0  0  0
   45.2592    5.9028   10.9294 C   0  0  0  0  0  0  0  0  0  0  0  0
   44.4037    5.4716   13.2368 C   0  0  0  0  0  0  0  0  0  0  0  0
   45.9465    3.8017   12.0935 C   0  0  0  0  0  0  0  0  0  0  0  0
   51.1479   12.0206    9.9447 C   0  0  0  0  0  0  0  0  0  0  0  0
   50.6629    8.8103   11.7471 C   0  0  0  0  0  0  0  0  0  0  0  0
   50.5266   10.9770   10.6496 C   0  0  0  0  0  0  0  0  0  0  0  0
   51.2880    9.8533   11.0408 C   0  0  0  0  0  0  0  0  0  0  0  0
   44.0378    5.1863   10.3282 C   0  0  2  0  0  0  0  0  0  0  0  0
   43.1879    4.7366   12.6443 C   0  0  1  0  0  0  0  0  0  0  0  0
   44.7168    3.0819   11.5112 C   0  0  2  0  0  0  0  0  0  0  0  0
   47.4167    5.6403   14.2238 C   0  0  0  0  0  0  0  0  0  0  0  0
   52.5224   14.0902    8.5092 O   0  0  0  0  0  0  0  0  0  0  0  0
   53.2614   10.8443   10.0126 C   0  0  0  0  0  0  0  0  0  0  0  0
   49.1441    7.3478   14.0564 C   0  0  0  0  0  0  0  0  0  0  0  0
   48.5593    9.9786   11.6755 C   0  0  0  0  0  0  0  0  0  0  0  0
   52.6528    9.8006   10.7147 C   0  0  0  0  0  0  0  0  0  0  0  0
   49.1640   11.0258   10.9739 C   0  0  0  0  0  0  0  0  0  0  0  0
   48.5318    6.3056   14.7527 C   0  0  0  0  0  0  0  0  0  0  0  0
   42.8433    5.3416   11.2777 C   0  0  0  0  0  0  0  0  0  0  0  0
   44.3622    3.6977   10.1519 C   0  0  0  0  0  0  0  0  0  0  0  0
   43.5284    3.2472   12.4726 C   0  0  0  0  0  0  0  0  0  0  0  0
   54.4197   12.9187    8.6315 O   0  0  0  0  0  0  0  0  0  0  0  0
   46.7889    4.6129   14.8782 O   0  0  0  0  0  0  0  0  0  0  0  0
   47.2813    4.2157   16.1503 C   0  0  0  0  0  0  0  0  0  0  0  0
   47.1914    7.4095   11.3133 H   0  0  0  0  0  0  0  0  0  0  0  0
   46.0955    5.8121   10.2232 H   0  0  0  0  0  0  0  0  0  0  0  0
   45.0248    6.9723   11.0173 H   0  0  0  0  0  0  0  0  0  0  0  0
   44.1661    6.5361   13.3672 H   0  0  0  0  0  0  0  0  0  0  0  0
   44.5743    5.0773   14.2432 H   0  0  0  0  0  0  0  0  0  0  0  0
   46.8016    3.6836   11.4142 H   0  0  0  0  0  0  0  0  0  0  0  0
   46.2261    3.2895   13.0192 H   0  0  0  0  0  0  0  0  0  0  0  0
   50.5686   12.8910    9.6395 H   0  0  0  0  0  0  0  0  0  0  0  0
   51.2468    7.9385   12.0393 H   0  0  0  0  0  0  0  0  0  0  0  0
   43.7940    5.6273    9.3551 H   0  0  0  0  0  0  0  0  0  0  0  0
   42.3309    4.8432   13.3190 H   0  0  0  0  0  0  0  0  0  0  0  0
   44.9420    2.0170   11.3838 H   0  0  0  0  0  0  0  0  0  0  0  0
   54.3200   10.7765    9.7736 H   0  0  0  0  0  0  0  0  0  0  0  0
   50.0004    7.8494   14.5023 H   0  0  0  0  0  0  0  0  0  0  0  0
   47.5012   10.0520   11.9204 H   0  0  0  0  0  0  0  0  0  0  0  0
   53.2552    8.9423   11.0059 H   0  0  0  0  0  0  0  0  0  0  0  0
   48.5579   11.8821   10.6852 H   0  0  0  0  0  0  0  0  0  0  0  0
   48.9539    6.0385   15.7158 H   0  0  0  0  0  0  0  0  0  0  0  0
   41.9611    4.8434   10.8573 H   0  0  0  0  0  0  0  0  0  0  0  0
   42.5866    6.4021   11.3896 H   0  0  0  0  0  0  0  0  0  0  0  0
   43.5030    3.1744    9.7145 H   0  0  0  0  0  0  0  0  0  0  0  0
   45.1989    3.5746    9.4535 H   0  0  0  0  0  0  0  0  0  0  0  0
   43.7683    2.8022   13.4462 H   0  0  0  0  0  0  0  0  0  0  0  0
   42.6562    2.7081   12.0829 H   0  0  0  0  0  0  0  0  0  0  0  0
   54.6729   13.7294    8.1422 H   0  0  0  0  0  0  0  0  0  0  0  0
   46.6520    3.3956   16.5094 H   0  0  0  0  0  0  0  0  0  0  0  0
   47.2070    5.0323   16.8758 H   0  0  0  0  0  0  0  0  0  0  0  0
   48.3065    3.8387   16.0770 H   0  0  0  0  0  0  0  0  0  0  0  0
  1  2  1  6
  3  2  2  0
  4  6  1  0
  5  3  1  0
  6 11  2  0
  7  5  1  0
  8  1  1  0
  9  1  1  0
 10  1  1  0
 11 13  1  0
 12  7  1  0
 13 24  2  0
 14 12  2  0
 15  8  1  0
 16  9  1  0
 17 10  1  0
 18  2  1  0
 19  4  2  0
 20 23  2  0
 21 25  1  0
 22  7  2  0
 23 14  1  0
 24 22  1  0
 25 18  2  0
 26 16  1  0
 27 17  1  0
 28 17  1  0
 29  4  1  0
 30 18  1  0
 31 30  1  0
 28 16  1  0
 27 15  1  0
 26 15  1  0
 21  5  2  0
 13 14  1  0
  6 20  1  0
  3 32  1  0
  8 33  1  0
  8 34  1  0
  9 35  1  0
  9 36  1  0
 10 37  1  0
 10 38  1  0
 11 39  1  0
 12 40  1  0
 15 41  1  1
 16 42  1  6
 17 43  1  1
 20 44  1  0
 21 45  1  0
 22 46  1  0
 23 47  1  0
 24 48  1  0
 25 49  1  0
 26 50  1  0
 26 51  1  0
 27 52  1  0
 27 53  1  0
 28 54  1  0
 28 55  1  0
 29 56  1  0
 31 57  1  0
 31 58  1  0
 31 59  1  0
M  END
> <Uni-Dock RESULT> 
ENERGY=   -5.797  LOWER_BOUND=    0.000  UPPER_BOUND=    0.000
INTER + INTRA:          -5.797
INTER:                  -5.797
INTRA:                   0.000
UNBOUND:                 0.000

$$$$

     RDKit          3D

 59 64  0  0  0  0  0  0  0  0999 V2000
   49.0404   10.6939   18.3363 C   0  0  2  0  0  0  0  0  0  0  0  0
   49.5149    9.5303   17.4256 C   0  0  0  0  0  0  0  0  0  0  0  0
   48.6512    8.9873   16.4441 C   0  0  0  0  0  0  0  0  0  0  0  0
   44.1188    4.0247   10.6494 C   0  0  0  0  0  0  0  0  0  0  0  0
   49.0244    7.9323   15.5908 C   0  0  0  0  0  0  0  0  0  0  0  0
   45.0645    4.5103   11.6828 C   0  0  0  0  0  0  0  0  0  0  0  0
   48.0898    7.4045   14.5841 C   0  0  0  0  0  0  0  0  0  0  0  0
   47.5710   11.1585   18.0436 C   0  0  0  0  0  0  0  0  0  0  0  0
   49.9375   11.9540   18.1383 C   0  0  0  0  0  0  0  0  0  0  0  0
   49.0671   10.2708   19.8370 C   0  0  0  0  0  0  0  0  0  0  0  0
   45.3991    5.8705   11.6880 C   0  0  0  0  0  0  0  0  0  0  0  0
   47.7439    6.0425   14.5624 C   0  0  0  0  0  0  0  0  0  0  0  0
   46.2893    6.3872   12.6433 C   0  0  0  0  0  0  0  0  0  0  0  0
   46.8525    5.5220   13.6076 C   0  0  0  0  0  0  0  0  0  0  0  0
   47.1324   12.3123   18.9617 C   0  0  2  0  0  0  0  0  0  0  0  0
   49.5105   13.1004   19.0725 C   0  0  1  0  0  0  0  0  0  0  0  0
   48.6478   11.4325   20.7557 C   0  0  2  0  0  0  0  0  0  0  0  0
   50.8097    8.9628   17.5279 C   0  0  0  0  0  0  0  0  0  0  0  0
   43.5935    4.7044    9.7872 O   0  0  0  0  0  0  0  0  0  0  0  0
   45.6217    3.6564   12.6387 C   0  0  0  0  0  0  0  0  0  0  0  0
   50.3073    7.4026   15.7277 C   0  0  0  0  0  0  0  0  0  0  0  0
   47.5188    8.2460   13.6193 C   0  0  0  0  0  0  0  0  0  0  0  0
   46.5089    4.1605   13.5934 C   0  0  0  0  0  0  0  0  0  0  0  0
   46.6318    7.7462   12.6614 C   0  0  0  0  0  0  0  0  0  0  0  0
   51.1887    7.9105   16.6823 C   0  0  0  0  0  0  0  0  0  0  0  0
   48.0678   13.5094   18.7505 C   0  0  0  0  0  0  0  0  0  0  0  0
   47.2107   11.8524   20.4228 C   0  0  0  0  0  0  0  0  0  0  0  0
   49.5931   12.6243   20.5321 C   0  0  0  0  0  0  0  0  0  0  0  0
   43.8739    2.7057   10.7431 O   0  0  0  0  0  0  0  0  0  0  0  0
   51.6475    9.4877   18.4768 O   0  0  0  0  0  0  0  0  0  0  0  0
   52.9575    8.9516   18.5985 C   0  0  0  0  0  0  0  0  0  0  0  0
   47.6416    9.3719   16.3249 H   0  0  0  0  0  0  0  0  0  0  0  0
   46.8722   10.3225   18.1811 H   0  0  0  0  0  0  0  0  0  0  0  0
   47.4767   11.4906   17.0009 H   0  0  0  0  0  0  0  0  0  0  0  0
   49.8860   12.2884   17.0933 H   0  0  0  0  0  0  0  0  0  0  0  0
   50.9930   11.7403   18.3328 H   0  0  0  0  0  0  0  0  0  0  0  0
   48.3990    9.4133   19.9949 H   0  0  0  0  0  0  0  0  0  0  0  0
   50.0610    9.9383   20.1513 H   0  0  0  0  0  0  0  0  0  0  0  0
   44.9605    6.5303   10.9405 H   0  0  0  0  0  0  0  0  0  0  0  0
   48.1699    5.3781   15.3131 H   0  0  0  0  0  0  0  0  0  0  0  0
   46.1033   12.6030   18.7223 H   0  0  0  0  0  0  0  0  0  0  0  0
   50.1761   13.9588   18.9269 H   0  0  0  0  0  0  0  0  0  0  0  0
   48.7026   11.1103   21.8018 H   0  0  0  0  0  0  0  0  0  0  0  0
   45.3737    2.5979   12.6516 H   0  0  0  0  0  0  0  0  0  0  0  0
   50.6390    6.5934   15.0803 H   0  0  0  0  0  0  0  0  0  0  0  0
   47.7718    9.3046   13.5998 H   0  0  0  0  0  0  0  0  0  0  0  0
   46.9310    3.4790   14.3294 H   0  0  0  0  0  0  0  0  0  0  0  0
   46.2124    8.4311   11.9274 H   0  0  0  0  0  0  0  0  0  0  0  0
   52.1734    7.4586   16.7370 H   0  0  0  0  0  0  0  0  0  0  0  0
   47.7612   14.3444   19.3922 H   0  0  0  0  0  0  0  0  0  0  0  0
   47.9992   13.8626   17.7144 H   0  0  0  0  0  0  0  0  0  0  0  0
   46.8912   12.6624   21.0900 H   0  0  0  0  0  0  0  0  0  0  0  0
   46.5250   11.0129   20.5906 H   0  0  0  0  0  0  0  0  0  0  0  0
   50.6234   12.3372   20.7757 H   0  0  0  0  0  0  0  0  0  0  0  0
   49.3236   13.4454   21.2076 H   0  0  0  0  0  0  0  0  0  0  0  0
   43.2451    2.5323   10.0114 H   0  0  0  0  0  0  0  0  0  0  0  0
   53.4686    9.4994   19.3961 H   0  0  0  0  0  0  0  0  0  0  0  0
   53.5312    9.0963   17.6772 H   0  0  0  0  0  0  0  0  0  0  0  0
   52.9272    7.8963   18.8884 H   0  0  0  0  0  0  0  0  0  0  0  0
  1  2  1  6
  3  2  2  0
  4  6  1  0
  5  3  1  0
  6 11  2  0
  7  5  1  0
  8  1  1  0
  9  1  1  0
 10  1  1  0
 11 13  1  0
 12  7  1  0
 13 24  2  0
 14 12  2  0
 15  8  1  0
 16  9  1  0
 17 10  1  0
 18  2  1  0
 19  4  2  0
 20 23  2  0
 21 25  1  0
 22  7  2  0
 23 14  1  0
 24 22  1  0
 25 18  2  0
 26 16  1  0
 27 17  1  0
 28 17  1  0
 29  4  1  0
 30 18  1  0
 31 30  1  0
 28 16  1  0
 27 15  1  0
 26 15  1  0
 21  5  2  0
 13 14  1  0
  6 20  1  0
  3 32  1  0
  8 33  1  0
  8 34  1  0
  9 35  1  0
  9 36  1  0
 10 37  1  0
 10 38  1  0
 11 39  1  0
 12 40  1  0
 15 41  1  1
 16 42  1  6
 17 43  1  1
 20 44  1  0
 21 45  1  0
 22 46  1  0
 23 47  1  0
 24 48  1  0
 25 49  1  0
 26 50  1  0
 26 51  1  0
 27 52  1  0
 27 53  1  0
 28 54  1  0
 28 55  1  0
 29 56  1  0
 31 57  1  0
 31 58  1  0
 31 59  1  0
M  END
> <Uni-Dock RESULT> 
ENERGY=   -5.182  LOWER_BOUND=    4.911  UPPER_BOUND=    9.289
INTER + INTRA:          -5.182
INTER:                  -5.182
INTRA:                   0.000
UNBOUND:                 0.000

$$$$

     RDKit          3D

 59 64  0  0  0  0  0  0  0  0999 V2000
   49.9419   11.9198   16.6498 C   0  0  2  0  0  0  0  0  0  0  0  0
   50.1817   10.7519   15.6564 C   0  0  0  0  0  0  0  0  0  0  0  0
   49.0928    9.9969   15.1579 C   0  0  0  0  0  0  0  0  0  0  0  0
   43.4703    3.8905   12.0200 C   0  0  0  0  0  0  0  0  0  0  0  0
   49.2479    8.9270   14.2570 C   0  0  0  0  0  0  0  0  0  0  0  0
   44.6639    4.6058   12.5317 C   0  0  0  0  0  0  0  0  0  0  0  0
   48.0825    8.1744   13.7658 C   0  0  0  0  0  0  0  0  0  0  0  0
   48.4299   12.1387   17.0053 C   0  0  0  0  0  0  0  0  0  0  0  0
   50.4424   13.2694   16.0497 C   0  0  0  0  0  0  0  0  0  0  0  0
   50.6684   11.6551   18.0040 C   0  0  0  0  0  0  0  0  0  0  0  0
   44.7312    5.9936   12.3543 C   0  0  0  0  0  0  0  0  0  0  0  0
   47.9986    6.7816   13.9332 C   0  0  0  0  0  0  0  0  0  0  0  0
   45.8372    6.7239   12.8185 C   0  0  0  0  0  0  0  0  0  0  0  0
   46.8923    6.0474   13.4702 C   0  0  0  0  0  0  0  0  0  0  0  0
   48.2268   13.3029   17.9902 C   0  0  2  0  0  0  0  0  0  0  0  0
   50.2578   14.4296   17.0443 C   0  0  1  0  0  0  0  0  0  0  0  0
   50.4815   12.8299   18.9809 C   0  0  2  0  0  0  0  0  0  0  0  0
   51.4759   10.3880   15.2072 C   0  0  0  0  0  0  0  0  0  0  0  0
   42.5236    4.3997   11.4493 O   0  0  0  0  0  0  0  0  0  0  0  0
   45.7082    3.9388   13.1780 C   0  0  0  0  0  0  0  0  0  0  0  0
   50.5395    8.6021   13.8429 C   0  0  0  0  0  0  0  0  0  0  0  0
   47.0244    8.8264   13.1178 C   0  0  0  0  0  0  0  0  0  0  0  0
   46.8134    4.6561   13.6433 C   0  0  0  0  0  0  0  0  0  0  0  0
   45.9172    8.1129   12.6494 C   0  0  0  0  0  0  0  0  0  0  0  0
   51.6388    9.3224   14.3106 C   0  0  0  0  0  0  0  0  0  0  0  0
   48.7667   14.5945   17.3635 C   0  0  0  0  0  0  0  0  0  0  0  0
   48.9890   13.0053   19.2874 C   0  0  0  0  0  0  0  0  0  0  0  0
   51.0259   14.1165   18.3389 C   0  0  0  0  0  0  0  0  0  0  0  0
   43.5173    2.5658   12.2468 O   0  0  0  0  0  0  0  0  0  0  0  0
   52.5311   11.1183   15.6879 O   0  0  0  0  0  0  0  0  0  0  0  0
   53.8416   10.7894   15.2487 C   0  0  0  0  0  0  0  0  0  0  0  0
   48.0771   10.2197   15.4743 H   0  0  0  0  0  0  0  0  0  0  0  0
   48.0081   11.2291   17.4535 H   0  0  0  0  0  0  0  0  0  0  0  0
   47.8510   12.3494   16.0959 H   0  0  0  0  0  0  0  0  0  0  0  0
   49.9004   13.4883   15.1198 H   0  0  0  0  0  0  0  0  0  0  0  0
   51.5013   13.2290   15.7769 H   0  0  0  0  0  0  0  0  0  0  0  0
   50.2863   10.7308   18.4580 H   0  0  0  0  0  0  0  0  0  0  0  0
   51.7432   11.5006   17.8690 H   0  0  0  0  0  0  0  0  0  0  0  0
   43.9134    6.5069   11.8503 H   0  0  0  0  0  0  0  0  0  0  0  0
   48.8073    6.2622   14.4457 H   0  0  0  0  0  0  0  0  0  0  0  0
   47.1593   13.4185   18.2090 H   0  0  0  0  0  0  0  0  0  0  0  0
   50.6427   15.3557   16.6025 H   0  0  0  0  0  0  0  0  0  0  0  0
   51.0249   12.6236   19.9100 H   0  0  0  0  0  0  0  0  0  0  0  0
   45.6739    2.8622   13.3260 H   0  0  0  0  0  0  0  0  0  0  0  0
   50.7019    7.7888   13.1388 H   0  0  0  0  0  0  0  0  0  0  0  0
   47.0603    9.9031   12.9617 H   0  0  0  0  0  0  0  0  0  0  0  0
   47.6155    4.1179   14.1446 H   0  0  0  0  0  0  0  0  0  0  0  0
   45.1178    8.6552   12.1485 H   0  0  0  0  0  0  0  0  0  0  0  0
   52.6168    9.0234   13.9486 H   0  0  0  0  0  0  0  0  0  0  0  0
   48.6199   15.4364   18.0511 H   0  0  0  0  0  0  0  0  0  0  0  0
   48.2099   14.8304   16.4483 H   0  0  0  0  0  0  0  0  0  0  0  0
   48.8456   13.8231   20.0043 H   0  0  0  0  0  0  0  0  0  0  0  0
   48.5922   12.0971   19.7574 H   0  0  0  0  0  0  0  0  0  0  0  0
   52.0957   14.0050   18.1231 H   0  0  0  0  0  0  0  0  0  0  0  0
   50.9287   14.9534   19.0414 H   0  0  0  0  0  0  0  0  0  0  0  0
   42.6793    2.2330   11.8623 H   0  0  0  0  0  0  0  0  0  0  0  0
   54.5382   11.4806   15.7330 H   0  0  0  0  0  0  0  0  0  0  0  0
   53.9412   10.9229   14.1666 H   0  0  0  0  0  0  0  0  0  0  0  0
   54.1171    9.7744   15.5528 H   0  0  0  0  0  0  0  0  0  0  0  0
  1  2  1  6
  3  2  2  0
  4  6  1  0
  5  3  1  0
  6 11  2  0
  7  5  1  0
  8  1  1  0
  9  1  1  0
 10  1  1  0
 11 13  1  0
 12  7  1  0
 13 24  2  0
 14 12  2  0
 15  8  1  0
 16  9  1  0
 17 10  1  0
 18  2  1  0
 19  4  2  0
 20 23  2  0
 21 25  1  0
 22  7  2  0
 23 14  1  0
 24 22  1  0
 25 18  2  0
 26 16  1  0
 27 17  1  0
 28 17  1  0
 29  4  1  0
 30 18  1  0
 31 30  1  0
 28 16  1  0
 27 15  1  0
 26 15  1  0
 21  5  2  0
 13 14  1  0
  6 20  1  0
  3 32  1  0
  8 33  1  0
  8 34  1  0
  9 35  1  0
  9 36  1  0
 10 37  1  0
 10 38  1  0
 11 39  1  0
 12 40  1  0
 15 41  1  1
 16 42  1  6
 17 43  1  1
 20 44  1  0
 21 45  1  0
 22 46  1  0
 23 47  1  0
 24 48  1  0
 25 49  1  0
 26 50  1  0
 26 51  1  0
 27 52  1  0
 27 53  1  0
 28 54  1  0
 28 55  1  0
 29 56  1  0
 31 57  1  0
 31 58  1  0
 31 59  1  0
M  END
> <Uni-Dock RESULT> 
ENERGY=   -4.862  LOWER_BOUND=    4.644  UPPER_BOUND=    9.639
INTER + INTRA:          -4.862
INTER:                  -4.862
INTRA:                   0.000
UNBOUND:                 0.000

$$$$

     RDKit          3D

 59 64  0  0  0  0  0  0  0  0999 V2000
   45.2149    6.0350   12.2038 C   0  0  2  0  0  0  0  0  0  0  0  0
   45.9228    7.3756   12.5350 C   0  0  0  0  0  0  0  0  0  0  0  0
   47.0773    7.3960   13.3542 C   0  0  0  0  0  0  0  0  0  0  0  0
   53.6769    9.1499   19.0214 C   0  0  0  0  0  0  0  0  0  0  0  0
   47.7608    8.5794   13.6897 C   0  0  0  0  0  0  0  0  0  0  0  0
   52.4485    9.2143   18.1937 C   0  0  0  0  0  0  0  0  0  0  0  0
   48.9590    8.5469   14.5436 C   0  0  0  0  0  0  0  0  0  0  0  0
   45.9041    4.7855   12.8554 C   0  0  0  0  0  0  0  0  0  0  0  0
   45.2147    5.7732   10.6665 C   0  0  0  0  0  0  0  0  0  0  0  0
   43.7461    6.0383   12.7278 C   0  0  0  0  0  0  0  0  0  0  0  0
   52.4057    8.4633   17.0121 C   0  0  0  0  0  0  0  0  0  0  0  0
   49.0207    9.2952   15.7315 C   0  0  0  0  0  0  0  0  0  0  0  0
   51.2684    8.4849   16.1885 C   0  0  0  0  0  0  0  0  0  0  0  0
   50.1576    9.2753   16.5588 C   0  0  0  0  0  0  0  0  0  0  0  0
   45.1790    3.4741   12.5073 C   0  0  2  0  0  0  0  0  0  0  0  0
   44.4709    4.4714   10.3180 C   0  0  1  0  0  0  0  0  0  0  0  0
   43.0157    4.7340   12.3608 C   0  0  2  0  0  0  0  0  0  0  0  0
   45.4595    8.6226   12.0455 C   0  0  0  0  0  0  0  0  0  0  0  0
   54.6723    8.4959   18.7711 O   0  0  0  0  0  0  0  0  0  0  0  0
   51.3478    9.9943   18.5588 C   0  0  0  0  0  0  0  0  0  0  0  0
   47.2688    9.7840   13.1877 C   0  0  0  0  0  0  0  0  0  0  0  0
   50.0714    7.7685   14.1952 C   0  0  0  0  0  0  0  0  0  0  0  0
   50.2115   10.0231   17.7460 C   0  0  0  0  0  0  0  0  0  0  0  0
   51.2109    7.7373   15.0044 C   0  0  0  0  0  0  0  0  0  0  0  0
   46.1343    9.8063   12.3764 C   0  0  0  0  0  0  0  0  0  0  0  0
   45.1792    3.2858   10.9851 C   0  0  0  0  0  0  0  0  0  0  0  0
   43.7335    3.5466   13.0145 C   0  0  0  0  0  0  0  0  0  0  0  0
   43.0249    4.5586   10.8334 C   0  0  0  0  0  0  0  0  0  0  0  0
   53.6022    9.9103   20.1281 O   0  0  0  0  0  0  0  0  0  0  0  0
   44.3427    8.6048   11.2516 O   0  0  0  0  0  0  0  0  0  0  0  0
   43.8578    9.8353   10.7328 C   0  0  0  0  0  0  0  0  0  0  0  0
   47.4744    6.4734   13.7698 H   0  0  0  0  0  0  0  0  0  0  0  0
   45.9257    4.8889   13.9486 H   0  0  0  0  0  0  0  0  0  0  0  0
   46.9461    4.7054   12.5175 H   0  0  0  0  0  0  0  0  0  0  0  0
   46.2477    5.7204   10.2967 H   0  0  0  0  0  0  0  0  0  0  0  0
   44.7393    6.5880   10.1121 H   0  0  0  0  0  0  0  0  0  0  0  0
   43.7392    6.1732   13.8179 H   0  0  0  0  0  0  0  0  0  0  0  0
   43.1671    6.8719   12.3189 H   0  0  0  0  0  0  0  0  0  0  0  0
   53.2668    7.8571   16.7341 H   0  0  0  0  0  0  0  0  0  0  0  0
   48.1595    9.8956   16.0220 H   0  0  0  0  0  0  0  0  0  0  0  0
   45.6937    2.6312   12.9822 H   0  0  0  0  0  0  0  0  0  0  0  0
   44.4667    4.3316    9.2311 H   0  0  0  0  0  0  0  0  0  0  0  0
   41.9813    4.7800   12.7199 H   0  0  0  0  0  0  0  0  0  0  0  0
   51.3615   10.5834   19.4725 H   0  0  0  0  0  0  0  0  0  0  0  0
   47.7742   10.7205   13.4146 H   0  0  0  0  0  0  0  0  0  0  0  0
   50.0627    7.1839   13.2769 H   0  0  0  0  0  0  0  0  0  0  0  0
   49.3649   10.6363   18.0487 H   0  0  0  0  0  0  0  0  0  0  0  0
   52.0550    7.1231   14.6976 H   0  0  0  0  0  0  0  0  0  0  0  0
   45.8034   10.7739   12.0144 H   0  0  0  0  0  0  0  0  0  0  0  0
   44.6735    2.3487   10.7218 H   0  0  0  0  0  0  0  0  0  0  0  0
   46.2088    3.2063   10.6156 H   0  0  0  0  0  0  0  0  0  0  0  0
   43.2057    2.6135   12.7819 H   0  0  0  0  0  0  0  0  0  0  0  0
   43.7223    3.6549   14.1060 H   0  0  0  0  0  0  0  0  0  0  0  0
   42.5061    5.3989   10.3557 H   0  0  0  0  0  0  0  0  0  0  0  0
   42.4763    3.6491   10.5595 H   0  0  0  0  0  0  0  0  0  0  0  0
   54.4675    9.7700   20.5668 H   0  0  0  0  0  0  0  0  0  0  0  0
   42.9743    9.6155   10.1257 H   0  0  0  0  0  0  0  0  0  0  0  0
   44.5986   10.3086   10.0801 H   0  0  0  0  0  0  0  0  0  0  0  0
   43.5471   10.5086   11.5382 H   0  0  0  0  0  0  0  0  0  0  0  0
  1  2  1  6
  3  2  2  0
  4  6  1  0
  5  3  1  0
  6 11  2  0
  7  5  1  0
  8  1  1  0
  9  1  1  0
 10  1  1  0
 11 13  1  0
 12  7  1  0
 13 24  2  0
 14 12  2  0
 15  8  1  0
 16  9  1  0
 17 10  1  0
 18  2  1  0
 19  4  2  0
 20 23  2  0
 21 25  1  0
 22  7  2  0
 23 14  1  0
 24 22  1  0
 25 18  2  0
 26 16  1  0
 27 17  1  0
 28 17  1  0
 29  4  1  0
 30 18  1  0
 31 30  1  0
 28 16  1  0
 27 15  1  0
 26 15  1  0
 21  5  2  0
 13 14  1  0
  6 20  1  0
  3 32  1  0
  8 33  1  0
  8 34  1  0
  9 35  1  0
  9 36  1  0
 10 37  1  0
 10 38  1  0
 11 39  1  0
 12 40  1  0
 15 41  1  1
 16 42  1  6
 17 43  1  1
 20 44  1  0
 21 45  1  0
 22 46  1  0
 23 47  1  0
 24 48  1  0
 25 49  1  0
 26 50  1  0
 26 51  1  0
 27 52  1  0
 27 53  1  0
 28 54  1  0
 28 55  1  0
 29 56  1  0
 31 57  1  0
 31 58  1  0
 31 59  1  0
M  END
> <Uni-Dock RESULT> 
ENERGY=   -4.716  LOWER_BOUND=    4.235  UPPER_BOUND=    5.831
INTER + INTRA:          -4.716
INTER:                  -4.716
INTRA:                   0.000
UNBOUND:                 0.000

$$$$

     RDKit          3D

 59 64  0  0  0  0  0  0  0  0999 V2000
   50.0194   13.4960   14.7165 C   0  0  2  0  0  0  0  0  0  0  0  0
   50.1355   12.2167   13.8458 C   0  0  0  0  0  0  0  0  0  0  0  0
   49.0252   11.3533   13.6846 C   0  0  0  0  0  0  0  0  0  0  0  0
   43.3357    4.6341   12.5759 C   0  0  0  0  0  0  0  0  0  0  0  0
   49.0703   10.1798   12.9094 C   0  0  0  0  0  0  0  0  0  0  0  0
   44.5538    5.4646   12.7327 C   0  0  0  0  0  0  0  0  0  0  0  0
   47.8866    9.3164   12.7711 C   0  0  0  0  0  0  0  0  0  0  0  0
   48.5994   13.6929   15.3533 C   0  0  0  0  0  0  0  0  0  0  0  0
   50.2892   14.7733   13.8636 C   0  0  0  0  0  0  0  0  0  0  0  0
   51.0231   13.4491   15.9091 C   0  0  0  0  0  0  0  0  0  0  0  0
   44.4838    6.8174   12.3763 C   0  0  0  0  0  0  0  0  0  0  0  0
   47.9387    7.9565   13.1218 C   0  0  0  0  0  0  0  0  0  0  0  0
   45.6057    7.6523   12.5037 C   0  0  0  0  0  0  0  0  0  0  0  0
   46.8170    7.1178   12.9961 C   0  0  0  0  0  0  0  0  0  0  0  0
   48.5177   14.9690   16.2086 C   0  0  2  0  0  0  0  0  0  0  0  0
   50.2277   16.0477   14.7248 C   0  0  1  0  0  0  0  0  0  0  0  0
   50.9547   14.7354   16.7518 C   0  0  2  0  0  0  0  0  0  0  0  0
   51.3341   11.8538   13.1818 C   0  0  0  0  0  0  0  0  0  0  0  0
   42.2586    5.0188   12.1597 O   0  0  0  0  0  0  0  0  0  0  0  0
   45.7529    4.9382   13.2210 C   0  0  0  0  0  0  0  0  0  0  0  0
   50.2707    9.8601   12.2752 C   0  0  0  0  0  0  0  0  0  0  0  0
   46.6747    9.8270   12.2858 C   0  0  0  0  0  0  0  0  0  0  0  0
   46.8751    5.7605   13.3512 C   0  0  0  0  0  0  0  0  0  0  0  0
   45.5496    9.0081   12.1526 C   0  0  0  0  0  0  0  0  0  0  0  0
   51.3875   10.6853   12.4086 C   0  0  0  0  0  0  0  0  0  0  0  0
   48.8247   16.1872   15.3286 C   0  0  0  0  0  0  0  0  0  0  0  0
   49.5470   14.8835   17.3424 C   0  0  0  0  0  0  0  0  0  0  0  0
   51.2633   15.9467   15.8567 C   0  0  0  0  0  0  0  0  0  0  0  0
   43.5229    3.3555   12.9484 O   0  0  0  0  0  0  0  0  0  0  0  0
   52.4097   12.6887   13.3360 O   0  0  0  0  0  0  0  0  0  0  0  0
   53.6238   12.3626   12.6740 C   0  0  0  0  0  0  0  0  0  0  0  0
   48.0816   11.5711   14.1782 H   0  0  0  0  0  0  0  0  0  0  0  0
   48.3440   12.8341   15.9885 H   0  0  0  0  0  0  0  0  0  0  0  0
   47.8342   13.7529   14.5676 H   0  0  0  0  0  0  0  0  0  0  0  0
   49.5551   14.8403   13.0492 H   0  0  0  0  0  0  0  0  0  0  0  0
   51.2706   14.7439   13.3806 H   0  0  0  0  0  0  0  0  0  0  0  0
   50.8086   12.5783   16.5433 H   0  0  0  0  0  0  0  0  0  0  0  0
   52.0563   13.3261   15.5704 H   0  0  0  0  0  0  0  0  0  0  0  0
   43.5459    7.2209   11.9971 H   0  0  0  0  0  0  0  0  0  0  0  0
   48.8699    7.5477   13.5120 H   0  0  0  0  0  0  0  0  0  0  0  0
   47.5114   15.0652   16.6318 H   0  0  0  0  0  0  0  0  0  0  0  0
   50.4472   16.9220   14.1016 H   0  0  0  0  0  0  0  0  0  0  0  0
   51.6890   14.6808   17.5636 H   0  0  0  0  0  0  0  0  0  0  0  0
   45.8268    3.8910   13.5038 H   0  0  0  0  0  0  0  0  0  0  0  0
   50.3446    8.9673   11.6578 H   0  0  0  0  0  0  0  0  0  0  0  0
   46.6007   10.8734   11.9948 H   0  0  0  0  0  0  0  0  0  0  0  0
   47.7989    5.3312   13.7342 H   0  0  0  0  0  0  0  0  0  0  0  0
   44.6283    9.4415   11.7689 H   0  0  0  0  0  0  0  0  0  0  0  0
   52.2904   10.3844   11.8880 H   0  0  0  0  0  0  0  0  0  0  0  0
   48.7606   17.1067   15.9231 H   0  0  0  0  0  0  0  0  0  0  0  0
   48.0780   16.2723   14.5296 H   0  0  0  0  0  0  0  0  0  0  0  0
   49.4940   15.7834   17.9675 H   0  0  0  0  0  0  0  0  0  0  0  0
   49.3204   14.0302   17.9932 H   0  0  0  0  0  0  0  0  0  0  0  0
   52.2721   15.8551   15.4355 H   0  0  0  0  0  0  0  0  0  0  0  0
   51.2512   16.8655   16.4559 H   0  0  0  0  0  0  0  0  0  0  0  0
   42.6504    2.9367   12.7930 H   0  0  0  0  0  0  0  0  0  0  0  0
   54.3527   13.1433   12.9120 H   0  0  0  0  0  0  0  0  0  0  0  0
   53.4915   12.3533   11.5872 H   0  0  0  0  0  0  0  0  0  0  0  0
   54.0276   11.4113   13.0353 H   0  0  0  0  0  0  0  0  0  0  0  0
  1  2  1  6
  3  2  2  0
  4  6  1  0
  5  3  1  0
  6 11  2  0
  7  5  1  0
  8  1  1  0
  9  1  1  0
 10  1  1  0
 11 13  1  0
 12  7  1  0
 13 24  2  0
 14 12  2  0
 15  8  1  0
 16  9  1  0
 17 10  1  0
 18  2  1  0
 19  4  2  0
 20 23  2  0
 21 25  1  0
 22  7  2  0
 23 14  1  0
 24 22  1  0
 25 18  2  0
 26 16  1  0
 27 17  1  0
 28 17  1  0
 29  4  1  0
 30 18  1  0
 31 30  1  0
 28 16  1  0
 27 15  1  0
 26 15  1  0
 21  5  2  0
 13 14  1  0
  6 20  1  0
  3 32  1  0
  8 33  1  0
  8 34  1  0
  9 35  1  0
  9 36  1  0
 10 37  1  0
 10 38  1  0
 11 39  1  0
 12 40  1  0
 15 41  1  1
 16 42  1  6
 17 43  1  1
 20 44  1  0
 21 45  1  0
 22 46  1  0
 23 47  1  0
 24 48  1  0
 25 49  1  0
 26 50  1  0
 26 51  1  0
 27 52  1  0
 27 53  1  0
 28 54  1  0
 28 55  1  0
 29 56  1  0
 31 57  1  0
 31 58  1  0
 31 59  1  0
M  END
> <Uni-Dock RESULT> 
ENERGY=   -4.668  LOWER_BOUND=    4.108  UPPER_BOUND=    9.902
INTER + INTRA:          -4.668
INTER:                  -4.668
INTRA:                   0.000
UNBOUND:                 0.000

$$$$

     RDKit          3D

 59 64  0  0  0  0  0  0  0  0999 V2000
   43.5184   13.2106    7.7002 C   0  0  2  0  0  0  0  0  0  0  0  0
   42.8572   12.2680    8.7407 C   0  0  0  0  0  0  0  0  0  0  0  0
   43.6365   11.3276    9.4565 C   0  0  0  0  0  0  0  0  0  0  0  0
   47.0041    4.4189   13.8924 C   0  0  0  0  0  0  0  0  0  0  0  0
   43.0937   10.4468   10.4103 C   0  0  0  0  0  0  0  0  0  0  0  0
   46.1156    5.3460   13.1514 C   0  0  0  0  0  0  0  0  0  0  0  0
   43.9477    9.4885   11.1301 C   0  0  0  0  0  0  0  0  0  0  0  0
   45.0658   12.9968    7.5564 C   0  0  0  0  0  0  0  0  0  0  0  0
   43.3264   14.7044    8.1048 C   0  0  0  0  0  0  0  0  0  0  0  0
   42.9180   12.9784    6.2799 C   0  0  0  0  0  0  0  0  0  0  0  0
   46.3994    6.7169   13.2006 C   0  0  0  0  0  0  0  0  0  0  0  0
   43.6773    8.1099   11.0937 C   0  0  0  0  0  0  0  0  0  0  0  0
   45.5929    7.6419   12.5180 C   0  0  0  0  0  0  0  0  0  0  0  0
   44.4831    7.1809   11.7754 C   0  0  0  0  0  0  0  0  0  0  0  0
   45.6899   13.9461    6.5191 C   0  0  2  0  0  0  0  0  0  0  0  0
   43.9330   15.6534    7.0556 C   0  0  1  0  0  0  0  0  0  0  0  0
   43.5286   13.9429    5.2472 C   0  0  2  0  0  0  0  0  0  0  0  0
   41.4681   12.2987    9.0213 C   0  0  0  0  0  0  0  0  0  0  0  0
   47.9755    4.7370   14.5531 O   0  0  0  0  0  0  0  0  0  0  0  0
   45.0181    4.8921   12.4149 C   0  0  0  0  0  0  0  0  0  0  0  0
   41.7218   10.5101   10.6535 C   0  0  0  0  0  0  0  0  0  0  0  0
   45.0542    9.9248   11.8717 C   0  0  0  0  0  0  0  0  0  0  0  0
   44.2090    5.8044   11.7324 C   0  0  0  0  0  0  0  0  0  0  0  0
   45.8659    9.0161   12.5571 C   0  0  0  0  0  0  0  0  0  0  0  0
   40.9194   11.4234    9.9693 C   0  0  0  0  0  0  0  0  0  0  0  0
   45.4415   15.3974    6.9489 C   0  0  0  0  0  0  0  0  0  0  0  0
   45.0397   13.6981    5.1523 C   0  0  0  0  0  0  0  0  0  0  0  0
   43.2727   15.3923    5.6918 C   0  0  0  0  0  0  0  0  0  0  0  0
   46.6338    3.1317   13.7722 O   0  0  0  0  0  0  0  0  0  0  0  0
   40.7122   13.2090    8.3300 O   0  0  0  0  0  0  0  0  0  0  0  0
   39.3182   13.2763    8.5955 C   0  0  0  0  0  0  0  0  0  0  0  0
   44.7056   11.2476    9.2772 H   0  0  0  0  0  0  0  0  0  0  0  0
   45.2813   11.9635    7.2531 H   0  0  0  0  0  0  0  0  0  0  0  0
   45.5647   13.1615    8.5210 H   0  0  0  0  0  0  0  0  0  0  0  0
   43.7899   14.8887    9.0835 H   0  0  0  0  0  0  0  0  0  0  0  0
   42.2699   14.9653    8.2197 H   0  0  0  0  0  0  0  0  0  0  0  0
   43.0925   11.9402    5.9662 H   0  0  0  0  0  0  0  0  0  0  0  0
   41.8328   13.1174    6.2661 H   0  0  0  0  0  0  0  0  0  0  0  0
   47.2568    7.0635   13.7760 H   0  0  0  0  0  0  0  0  0  0  0  0
   42.8280    7.7542   10.5117 H   0  0  0  0  0  0  0  0  0  0  0  0
   46.7680   13.7617    6.4524 H   0  0  0  0  0  0  0  0  0  0  0  0
   43.7579   16.6925    7.3567 H   0  0  0  0  0  0  0  0  0  0  0  0
   43.0672   13.7712    4.2681 H   0  0  0  0  0  0  0  0  0  0  0  0
   44.7820    3.8320   12.3637 H   0  0  0  0  0  0  0  0  0  0  0  0
   41.2641    9.8540   11.3909 H   0  0  0  0  0  0  0  0  0  0  0  0
   45.2878   10.9864   11.9305 H   0  0  0  0  0  0  0  0  0  0  0  0
   43.3597    5.4302   11.1640 H   0  0  0  0  0  0  0  0  0  0  0  0
   46.7137    9.3947   13.1243 H   0  0  0  0  0  0  0  0  0  0  0  0
   39.8606   11.4263   10.2056 H   0  0  0  0  0  0  0  0  0  0  0  0
   45.8898   16.0868    6.2231 H   0  0  0  0  0  0  0  0  0  0  0  0
   45.9254   15.5924    7.9138 H   0  0  0  0  0  0  0  0  0  0  0  0
   45.4819   14.3618    4.3992 H   0  0  0  0  0  0  0  0  0  0  0  0
   45.2343   12.6699    4.8238 H   0  0  0  0  0  0  0  0  0  0  0  0
   42.1939   15.5809    5.7548 H   0  0  0  0  0  0  0  0  0  0  0  0
   43.6740   16.0876    4.9444 H   0  0  0  0  0  0  0  0  0  0  0  0
   47.2996    2.6465   14.3034 H   0  0  0  0  0  0  0  0  0  0  0  0
   38.8952   14.0581    7.9572 H   0  0  0  0  0  0  0  0  0  0  0  0
   39.1268   13.5586    9.6358 H   0  0  0  0  0  0  0  0  0  0  0  0
   38.8213   12.3349    8.3393 H   0  0  0  0  0  0  0  0  0  0  0  0
  1  2  1  6
  3  2  2  0
  4  6  1  0
  5  3  1  0
  6 11  2  0
  7  5  1  0
  8  1  1  0
  9  1  1  0
 10  1  1  0
 11 13  1  0
 12  7  1  0
 13 24  2  0
 14 12  2  0
 15  8  1  0
 16  9  1  0
 17 10  1  0
 18  2  1  0
 19  4  2  0
 20 23  2  0
 21 25  1  0
 22  7  2  0
 23 14  1  0
 24 22  1  0
 25 18  2  0
 26 16  1  0
 27 17  1  0
 28 17  1  0
 29  4  1  0
 30 18  1  0
 31 30  1  0
 28 16  1  0
 27 15  1  0
 26 15  1  0
 21  5  2  0
 13 14  1  0
  6 20  1  0
  3 32  1  0
  8 33  1  0
  8 34  1  0
  9 35  1  0
  9 36  1  0
 10 37  1  0
 10 38  1  0
 11 39  1  0
 12 40  1  0
 15 41  1  1
 16 42  1  6
 17 43  1  1
 20 44  1  0
 21 45  1  0
 22 46  1  0
 23 47  1  0
 24 48  1  0
 25 49  1  0
 26 50  1  0
 26 51  1  0
 27 52  1  0
 27 53  1  0
 28 54  1  0
 28 55  1  0
 29 56  1  0
 31 57  1  0
 31 58  1  0
 31 59  1  0
M  END
> <Uni-Dock RESULT> 
ENERGY=   -4.656  LOWER_BOUND=    5.896  UPPER_BOUND=    9.948
INTER + INTRA:          -4.656
INTER:                  -4.656
INTRA:                   0.000
UNBOUND:                 0.000

$$$$

     RDKit          3D

 59 64  0  0  0  0  0  0  0  0999 V2000
   47.4210   12.1034   10.9153 C   0  0  2  0  0  0  0  0  0  0  0  0
   48.4788   11.0312   11.2891 C   0  0  0  0  0  0  0  0  0  0  0  0
   48.1319    9.9371   12.1179 C   0  0  0  0  0  0  0  0  0  0  0  0
   47.6866    3.2069   17.8845 C   0  0  0  0  0  0  0  0  0  0  0  0
   49.0470    8.9355   12.4915 C   0  0  0  0  0  0  0  0  0  0  0  0
   48.1367    4.3460   17.0490 C   0  0  0  0  0  0  0  0  0  0  0  0
   48.6357    7.8160   13.3537 C   0  0  0  0  0  0  0  0  0  0  0  0
   46.0070   11.8312   11.5376 C   0  0  0  0  0  0  0  0  0  0  0  0
   47.2083   12.1574    9.3714 C   0  0  0  0  0  0  0  0  0  0  0  0
   47.8527   13.5117   11.4273 C   0  0  0  0  0  0  0  0  0  0  0  0
   47.4618    4.5932   15.8467 C   0  0  0  0  0  0  0  0  0  0  0  0
   49.3023    7.5517   14.5624 C   0  0  0  0  0  0  0  0  0  0  0  0
   47.8437    5.6583   15.0150 C   0  0  0  0  0  0  0  0  0  0  0  0
   48.9221    6.4866   15.3979 C   0  0  0  0  0  0  0  0  0  0  0  0
   44.9826   12.9106   11.1475 C   0  0  2  0  0  0  0  0  0  0  0  0
   46.1987   13.2519    8.9810 C   0  0  1  0  0  0  0  0  0  0  0  0
   46.8372   14.5938   11.0184 C   0  0  2  0  0  0  0  0  0  0  0  0
   49.8187   11.0912   10.8306 C   0  0  0  0  0  0  0  0  0  0  0  0
   46.7701    2.4496   17.6242 O   0  0  0  0  0  0  0  0  0  0  0  0
   49.2023    5.1676   17.4266 C   0  0  0  0  0  0  0  0  0  0  0  0
   50.3555    9.0353   12.0191 C   0  0  0  0  0  0  0  0  0  0  0  0
   47.5677    6.9830   12.9930 C   0  0  0  0  0  0  0  0  0  0  0  0
   49.5905    6.2298   16.6058 C   0  0  0  0  0  0  0  0  0  0  0  0
   47.1764    5.9184   13.8102 C   0  0  0  0  0  0  0  0  0  0  0  0
   50.7368   10.0978   11.1995 C   0  0  0  0  0  0  0  0  0  0  0  0
   44.8395   12.9426    9.6207 C   0  0  0  0  0  0  0  0  0  0  0  0
   45.4737   14.2758   11.6449 C   0  0  0  0  0  0  0  0  0  0  0  0
   46.7037   14.6131    9.4869 C   0  0  0  0  0  0  0  0  0  0  0  0
   48.4076    3.0677   19.0111 O   0  0  0  0  0  0  0  0  0  0  0  0
   50.1561   12.1491   10.0275 O   0  0  0  0  0  0  0  0  0  0  0  0
   51.4875   12.2341    9.5390 C   0  0  0  0  0  0  0  0  0  0  0  0
   47.1230    9.8417   12.5110 H   0  0  0  0  0  0  0  0  0  0  0  0
   46.0729   11.7971   12.6334 H   0  0  0  0  0  0  0  0  0  0  0  0
   45.6258   10.8559   11.2060 H   0  0  0  0  0  0  0  0  0  0  0  0
   46.8566   11.1821    9.0086 H   0  0  0  0  0  0  0  0  0  0  0  0
   48.1413   12.3575    8.8358 H   0  0  0  0  0  0  0  0  0  0  0  0
   47.9573   13.4953   12.5206 H   0  0  0  0  0  0  0  0  0  0  0  0
   48.8312   13.8073   11.0369 H   0  0  0  0  0  0  0  0  0  0  0  0
   46.6318    3.9492   15.5591 H   0  0  0  0  0  0  0  0  0  0  0  0
   50.1264    8.1976   14.8624 H   0  0  0  0  0  0  0  0  0  0  0  0
   44.0130   12.6802   11.6031 H   0  0  0  0  0  0  0  0  0  0  0  0
   46.0927   13.2804    7.8906 H   0  0  0  0  0  0  0  0  0  0  0  0
   47.1831   15.5723   11.3703 H   0  0  0  0  0  0  0  0  0  0  0  0
   49.7381    4.9924   18.3564 H   0  0  0  0  0  0  0  0  0  0  0  0
   51.0912    8.2760   12.2758 H   0  0  0  0  0  0  0  0  0  0  0  0
   47.0350    7.1519   12.0588 H   0  0  0  0  0  0  0  0  0  0  0  0
   50.4222    6.8582   16.9185 H   0  0  0  0  0  0  0  0  0  0  0  0
   46.3446    5.2926   13.4934 H   0  0  0  0  0  0  0  0  0  0  0  0
   51.7675   10.1173   10.8617 H   0  0  0  0  0  0  0  0  0  0  0  0
   44.1041   13.7019    9.3275 H   0  0  0  0  0  0  0  0  0  0  0  0
   44.4633   11.9785    9.2575 H   0  0  0  0  0  0  0  0  0  0  0  0
   44.7480   15.0554   11.3823 H   0  0  0  0  0  0  0  0  0  0  0  0
   45.5542   14.2715   12.7387 H   0  0  0  0  0  0  0  0  0  0  0  0
   47.6722   14.8482    9.0285 H   0  0  0  0  0  0  0  0  0  0  0  0
   46.0078   15.4049    9.1835 H   0  0  0  0  0  0  0  0  0  0  0  0
   48.0035    2.2915   19.4527 H   0  0  0  0  0  0  0  0  0  0  0  0
   51.5578   13.1331    8.9190 H   0  0  0  0  0  0  0  0  0  0  0  0
   51.7320   11.3751    8.9057 H   0  0  0  0  0  0  0  0  0  0  0  0
   52.2036   12.3414   10.3602 H   0  0  0  0  0  0  0  0  0  0  0  0
  1  2  1  6
  3  2  2  0
  4  6  1  0
  5  3  1  0
  6 11  2  0
  7  5  1  0
  8  1  1  0
  9  1  1  0
 10  1  1  0
 11 13  1  0
 12  7  1  0
 13 24  2  0
 14 12  2  0
 15  8  1  0
 16  9  1  0
 17 10  1  0
 18  2  1  0
 19  4  2  0
 20 23  2  0
 21 25  1  0
 22  7  2  0
 23 14  1  0
 24 22  1  0
 25 18  2  0
 26 16  1  0
 27 17  1  0
 28 17  1  0
 29  4  1  0
 30 18  1  0
 31 30  1  0
 28 16  1  0
 27 15  1  0
 26 15  1  0
 21  5  2  0
 13 14  1  0
  6 20  1  0
  3 32  1  0
  8 33  1  0
  8 34  1  0
  9 35  1  0
  9 36  1  0
 10 37  1  0
 10 38  1  0
 11 39  1  0
 12 40  1  0
 15 41  1  1
 16 42  1  6
 17 43  1  1
 20 44  1  0
 21 45  1  0
 22 46  1  0
 23 47  1  0
 24 48  1  0
 25 49  1  0
 26 50  1  0
 26 51  1  0
 27 52  1  0
 27 53  1  0
 28 54  1  0
 28 55  1  0
 29 56  1  0
 31 57  1  0
 31 58  1  0
 31 59  1  0
M  END
> <Uni-Dock RESULT> 
ENERGY=   -4.607  LOWER_BOUND=    2.735  UPPER_BOUND=    8.929
INTER + INTRA:          -4.607
INTER:                  -4.607
INTRA:                   0.000
UNBOUND:                 0.000

$$$$

     RDKit          3D

 59 64  0  0  0  0  0  0  0  0999 V2000
   48.4085    6.2742   19.2902 C   0  0  2  0  0  0  0  0  0  0  0  0
   48.1661    7.3468   20.3853 C   0  0  0  0  0  0  0  0  0  0  0  0
   48.4165    8.7147   20.1200 C   0  0  0  0  0  0  0  0  0  0  0  0
   50.4260   17.3575   20.2277 C   0  0  0  0  0  0  0  0  0  0  0  0
   48.2168    9.7314   21.0722 C   0  0  0  0  0  0  0  0  0  0  0  0
   50.1830   15.9418   20.5948 C   0  0  0  0  0  0  0  0  0  0  0  0
   48.4897   11.1402   20.7459 C   0  0  0  0  0  0  0  0  0  0  0  0
   48.9340    6.8689   17.9371 C   0  0  0  0  0  0  0  0  0  0  0  0
   47.0850    5.5250   18.9456 C   0  0  0  0  0  0  0  0  0  0  0  0
   49.4819    5.2417   19.7522 C   0  0  0  0  0  0  0  0  0  0  0  0
   49.2840   15.2006   19.8173 C   0  0  0  0  0  0  0  0  0  0  0  0
   49.3870   11.8999   21.5158 C   0  0  0  0  0  0  0  0  0  0  0  0
   49.0150   13.8554   20.1175 C   0  0  0  0  0  0  0  0  0  0  0  0
   49.6592   13.2468   21.2176 C   0  0  0  0  0  0  0  0  0  0  0  0
   49.1630    5.7809   16.8739 C   0  0  2  0  0  0  0  0  0  0  0  0
   47.3196    4.4228   17.8970 C   0  0  1  0  0  0  0  0  0  0  0  0
   49.6949    4.1422   18.6962 C   0  0  2  0  0  0  0  0  0  0  0  0
   47.6924    7.0191   21.6804 C   0  0  0  0  0  0  0  0  0  0  0  0
   49.9113   17.9520   19.2987 O   0  0  0  0  0  0  0  0  0  0  0  0
   50.8204   15.3373   21.6818 C   0  0  0  0  0  0  0  0  0  0  0  0
   47.7516    9.3634   22.3345 C   0  0  0  0  0  0  0  0  0  0  0  0
   47.8621   11.7627   19.6581 C   0  0  0  0  0  0  0  0  0  0  0  0
   50.5593   13.9994   21.9892 C   0  0  0  0  0  0  0  0  0  0  0  0
   48.1192   13.1012   19.3473 C   0  0  0  0  0  0  0  0  0  0  0  0
   47.4922    8.0261   22.6352 C   0  0  0  0  0  0  0  0  0  0  0  0
   47.8394    5.0558   16.6003 C   0  0  0  0  0  0  0  0  0  0  0  0
   50.1992    4.7769   17.3941 C   0  0  0  0  0  0  0  0  0  0  0  0
   48.3605    3.4256   18.4319 C   0  0  0  0  0  0  0  0  0  0  0  0
   51.3049   17.9660   21.0437 O   0  0  0  0  0  0  0  0  0  0  0  0
   47.4486    5.6956   21.9388 O   0  0  0  0  0  0  0  0  0  0  0  0
   46.9605    5.3323   23.2227 C   0  0  0  0  0  0  0  0  0  0  0  0
   48.7922    9.0279   19.1493 H   0  0  0  0  0  0  0  0  0  0  0  0
   49.8814    7.4009   18.0970 H   0  0  0  0  0  0  0  0  0  0  0  0
   48.2169    7.5985   17.5372 H   0  0  0  0  0  0  0  0  0  0  0  0
   46.3382    6.2389   18.5725 H   0  0  0  0  0  0  0  0  0  0  0  0
   46.6374    5.0568   19.8276 H   0  0  0  0  0  0  0  0  0  0  0  0
   50.4326    5.7550   19.9502 H   0  0  0  0  0  0  0  0  0  0  0  0
   49.2035    4.7536   20.6911 H   0  0  0  0  0  0  0  0  0  0  0  0
   48.7915   15.6779   18.9713 H   0  0  0  0  0  0  0  0  0  0  0  0
   49.8919   11.4268   22.3570 H   0  0  0  0  0  0  0  0  0  0  0  0
   49.5286    6.2407   15.9489 H   0  0  0  0  0  0  0  0  0  0  0  0
   46.3772    3.9001   17.6977 H   0  0  0  0  0  0  0  0  0  0  0  0
   50.4340    3.4207   19.0626 H   0  0  0  0  0  0  0  0  0  0  0  0
   51.5220   15.8956   22.2967 H   0  0  0  0  0  0  0  0  0  0  0  0
   47.5737   10.1199   23.0960 H   0  0  0  0  0  0  0  0  0  0  0  0
   47.1535   11.2076   19.0459 H   0  0  0  0  0  0  0  0  0  0  0  0
   51.0666   13.5473   22.8393 H   0  0  0  0  0  0  0  0  0  0  0  0
   47.6094   13.5491   18.4968 H   0  0  0  0  0  0  0  0  0  0  0  0
   47.1286    7.8046   23.6330 H   0  0  0  0  0  0  0  0  0  0  0  0
   47.9849    4.2825   15.8361 H   0  0  0  0  0  0  0  0  0  0  0  0
   47.0991    5.7607   16.2026 H   0  0  0  0  0  0  0  0  0  0  0  0
   50.3805    3.9993   16.6420 H   0  0  0  0  0  0  0  0  0  0  0  0
   51.1577    5.2810   17.5680 H   0  0  0  0  0  0  0  0  0  0  0  0
   47.9948    2.9603   19.3555 H   0  0  0  0  0  0  0  0  0  0  0  0
   48.5093    2.6170   17.7058 H   0  0  0  0  0  0  0  0  0  0  0  0
   51.3646   18.8764   20.6854 H   0  0  0  0  0  0  0  0  0  0  0  0
   46.8241    4.2466   23.2319 H   0  0  0  0  0  0  0  0  0  0  0  0
   45.9857    5.7903   23.4194 H   0  0  0  0  0  0  0  0  0  0  0  0
   47.6841    5.5818   24.0055 H   0  0  0  0  0  0  0  0  0  0  0  0
  1  2  1  6
  3  2  2  0
  4  6  1  0
  5  3  1  0
  6 11  2  0
  7  5  1  0
  8  1  1  0
  9  1  1  0
 10  1  1  0
 11 13  1  0
 12  7  1  0
 13 24  2  0
 14 12  2  0
 15  8  1  0
 16  9  1  0
 17 10  1  0
 18  2  1  0
 19  4  2  0
 20 23  2  0
 21 25  1  0
 22  7  2  0
 23 14  1  0
 24 22  1  0
 25 18  2  0
 26 16  1  0
 27 17  1  0
 28 17  1  0
 29  4  1  0
 30 18  1  0
 31 30  1  0
 28 16  1  0
 27 15  1  0
 26 15  1  0
 21  5  2  0
 13 14  1  0
  6 20  1  0
  3 32  1  0
  8 33  1  0
  8 34  1  0
  9 35  1  0
  9 36  1  0
 10 37  1  0
 10 38  1  0
 11 39  1  0
 12 40  1  0
 15 41  1  1
 16 42  1  6
 17 43  1  1
 20 44  1  0
 21 45  1  0
 22 46  1  0
 23 47  1  0
 24 48  1  0
 25 49  1  0
 26 50  1  0
 26 51  1  0
 27 52  1  0
 27 53  1  0
 28 54  1  0
 28 55  1  0
 29 56  1  0
 31 57  1  0
 31 58  1  0
 31 59  1  0
M  END
> <Uni-Dock RESULT> 
ENERGY=   -4.536  LOWER_BOUND=    7.561  UPPER_BOUND=    9.360
INTER + INTRA:          -4.536
INTER:                  -4.536
INTRA:                   0.000
UNBOUND:                 0.000

$$$$
