
     RDKit          3D

 59 64  0  0  0  0  0  0  0  0999 V2000
   45.6610    5.3174   12.3281 C   0  0  2  0  0  0  0  0  0  0  0  0
   46.8902    6.0195   12.9640 C   0  0  0  0  0  0  0  0  0  0  0  0
   47.5407    7.0809   12.2895 C   0  0  0  0  0  0  0  0  0  0  0  0
   53.2041   13.0388    8.8882 C   0  0  0  0  0  0  0  0  0  0  0  0
   48.6591    7.7545   12.8147 C   0  0  0  0  0  0  0  0  0  0  0  0
   52.5160   11.9556    9.6307 C   0  0  0  0  0  0  0  0  0  0  0  0
   49.2983    8.8543   12.0747 C   0  0  0  0  0  0  0  0  0  0  0  0
   45.2606    5.9023   10.9288 C   0  0  0  0  0  0  0  0  0  0  0  0
   44.4025    5.4736   13.2357 C   0  0  0  0  0  0  0  0  0  0  0  0
   45.9459    3.8019   12.0956 C   0  0  0  0  0  0  0  0  0  0  0  0
   51.1526   12.0194    9.9447 C   0  0  0  0  0  0  0  0  0  0  0  0
   50.6653    8.8100   11.7516 C   0  0  0  0  0  0  0  0  0  0  0  0
   50.5306   10.9752   10.6499 C   0  0  0  0  0  0  0  0  0  0  0  0
   51.2915    9.8523   11.0454 C   0  0  0  0  0  0  0  0  0  0  0  0
   44.0395    5.1855   10.3271 C   0  0  2  0  0  0  0  0  0  0  0  0
   43.1871    4.7384   12.6427 C   0  0  1  0  0  0  0  0  0  0  0  0
   44.7165    3.0820   11.5128 C   0  0  2  0  0  0  0  0  0  0  0  0
   47.4148    5.6418   14.2255 C   0  0  0  0  0  0  0  0  0  0  0  0
   54.3818   13.0560    8.5814 O   0  0  0  0  0  0  0  0  0  0  0  0
   53.2654   10.8426   10.0224 C   0  0  0  0  0  0  0  0  0  0  0  0
   49.1428    7.3486   14.0583 C   0  0  0  0  0  0  0  0  0  0  0  0
   48.5611    9.9764   11.6722 C   0  0  0  0  0  0  0  0  0  0  0  0
   52.6570    9.7995   10.7241 C   0  0  0  0  0  0  0  0  0  0  0  0
   49.1669   11.0229   10.9706 C   0  0  0  0  0  0  0  0  0  0  0  0
   48.5295    6.3072   14.7549 C   0  0  0  0  0  0  0  0  0  0  0  0
   42.8442    5.3423   11.2751 C   0  0  0  0  0  0  0  0  0  0  0  0
   44.3635    3.6966   10.1526 C   0  0  0  0  0  0  0  0  0  0  0  0
   43.5272    3.2487   12.4728 C   0  0  0  0  0  0  0  0  0  0  0  0
   52.3843   14.0539    8.5628 O   0  0  0  0  0  0  0  0  0  0  0  0
   46.7857    4.6155   14.8804 O   0  0  0  0  0  0  0  0  0  0  0  0
   47.2841    4.2113   16.1479 C   0  0  0  0  0  0  0  0  0  0  0  0
   47.1932    7.4083   11.3131 H   0  0  0  0  0  0  0  0  0  0  0  0
   46.0976    5.8104   10.2235 H   0  0  0  0  0  0  0  0  0  0  0  0
   45.0265    6.9718   11.0153 H   0  0  0  0  0  0  0  0  0  0  0  0
   44.5721    5.0801   14.2426 H   0  0  0  0  0  0  0  0  0  0  0  0
   44.1653    6.5383   13.3649 H   0  0  0  0  0  0  0  0  0  0  0  0
   46.8017    3.6828   11.4173 H   0  0  0  0  0  0  0  0  0  0  0  0
   46.2243    3.2905   13.0220 H   0  0  0  0  0  0  0  0  0  0  0  0
   50.5682   12.8850    9.6398 H   0  0  0  0  0  0  0  0  0  0  0  0
   51.2491    7.9391   12.0468 H   0  0  0  0  0  0  0  0  0  0  0  0
   43.7968    5.6257    9.3532 H   0  0  0  0  0  0  0  0  0  0  0  0
   42.3294    4.8459   13.3164 H   0  0  0  0  0  0  0  0  0  0  0  0
   44.9414    2.0169   11.3865 H   0  0  0  0  0  0  0  0  0  0  0  0
   54.3255   10.7819    9.7833 H   0  0  0  0  0  0  0  0  0  0  0  0
   49.9989    7.8503   14.5046 H   0  0  0  0  0  0  0  0  0  0  0  0
   47.5022   10.0494   11.9142 H   0  0  0  0  0  0  0  0  0  0  0  0
   53.2596    8.9425   11.0181 H   0  0  0  0  0  0  0  0  0  0  0  0
   48.5606   11.8780   10.6789 H   0  0  0  0  0  0  0  0  0  0  0  0
   48.9503    6.0413   15.7189 H   0  0  0  0  0  0  0  0  0  0  0  0
   41.9622    4.8440   10.8543 H   0  0  0  0  0  0  0  0  0  0  0  0
   42.5878    6.4030   11.3858 H   0  0  0  0  0  0  0  0  0  0  0  0
   43.5046    3.1734    9.7148 H   0  0  0  0  0  0  0  0  0  0  0  0
   45.2009    3.5726    9.4550 H   0  0  0  0  0  0  0  0  0  0  0  0
   43.7659    2.8047   13.4470 H   0  0  0  0  0  0  0  0  0  0  0  0
   42.6551    2.7096   12.0828 H   0  0  0  0  0  0  0  0  0  0  0  0
   52.9673   14.6810    8.0856 H   0  0  0  0  0  0  0  0  0  0  0  0
   48.3091    3.8350   16.0679 H   0  0  0  0  0  0  0  0  0  0  0  0
   46.6567    3.3890   16.5053 H   0  0  0  0  0  0  0  0  0  0  0  0
   47.2129    5.0238   16.8782 H   0  0  0  0  0  0  0  0  0  0  0  0
  1  2  1  1
  3  2  2  0
  4  6  1  0
  5  3  1  0
  6 11  2  0
  7  5  1  0
  8  1  1  0
  9  1  1  0
 10  1  1  0
 11 13  1  0
 12  7  1  0
 13 24  2  0
 14 12  2  0
 15  8  1  0
 16  9  1  0
 17 10  1  0
 18  2  1  0
 19  4  2  0
 20 23  2  0
 21 25  1  0
 22  7  2  0
 23 14  1  0
 24 22  1  0
 25 18  2  0
 26 16  1  0
 27 17  1  0
 28 17  1  0
 29  4  1  0
 30 18  1  0
 31 30  1  0
 28 16  1  0
 27 15  1  0
 26 15  1  0
 21  5  2  0
 13 14  1  0
  6 20  1  0
  3 32  1  0
  8 33  1  0
  8 34  1  0
  9 35  1  0
  9 36  1  0
 10 37  1  0
 10 38  1  0
 11 39  1  0
 12 40  1  0
 15 41  1  6
 16 42  1  6
 17 43  1  1
 20 44  1  0
 21 45  1  0
 22 46  1  0
 23 47  1  0
 24 48  1  0
 25 49  1  0
 26 50  1  0
 26 51  1  0
 27 52  1  0
 27 53  1  0
 28 54  1  0
 28 55  1  0
 29 56  1  0
 31 57  1  0
 31 58  1  0
 31 59  1  0
M  END
> <Uni-Dock RESULT> 
ENERGY=   -5.799  LOWER_BOUND=    0.000  UPPER_BOUND=    0.000
INTER + INTRA:          -5.799
INTER:                  -5.799
INTRA:                   0.000
UNBOUND:                 0.000

$$$$

     RDKit          3D

 59 64  0  0  0  0  0  0  0  0999 V2000
   49.0584   10.7191   18.3036 C   0  0  2  0  0  0  0  0  0  0  0  0
   49.5332    9.5786   17.3643 C   0  0  0  0  0  0  0  0  0  0  0  0
   48.6489    9.0160   16.4125 C   0  0  0  0  0  0  0  0  0  0  0  0
   44.0682    3.8649   10.7890 C   0  0  0  0  0  0  0  0  0  0  0  0
   49.0212    7.9803   15.5355 C   0  0  0  0  0  0  0  0  0  0  0  0
   45.0235    4.4647   11.7512 C   0  0  0  0  0  0  0  0  0  0  0  0
   48.0647    7.4309   14.5614 C   0  0  0  0  0  0  0  0  0  0  0  0
   47.5647   11.1389   18.0730 C   0  0  0  0  0  0  0  0  0  0  0  0
   49.9068   12.0088   18.0821 C   0  0  0  0  0  0  0  0  0  0  0  0
   49.1577   10.2852   19.7982 C   0  0  0  0  0  0  0  0  0  0  0  0
   45.3116    5.8352   11.7566 C   0  0  0  0  0  0  0  0  0  0  0  0
   47.7635    6.0584   14.5387 C   0  0  0  0  0  0  0  0  0  0  0  0
   46.2222    6.3719   12.6823 C   0  0  0  0  0  0  0  0  0  0  0  0
   46.8523    5.5173   13.6145 C   0  0  0  0  0  0  0  0  0  0  0  0
   47.1265   12.2708   19.0183 C   0  0  2  0  0  0  0  0  0  0  0  0
   49.4810   13.1335   19.0429 C   0  0  1  0  0  0  0  0  0  0  0  0
   48.7386   11.4256   20.7433 C   0  0  2  0  0  0  0  0  0  0  0  0
   50.8483    9.0517   17.4107 C   0  0  0  0  0  0  0  0  0  0  0  0
   43.7692    2.6870   10.7216 O   0  0  0  0  0  0  0  0  0  0  0  0
   45.6477    3.6223   12.6757 C   0  0  0  0  0  0  0  0  0  0  0  0
   50.3247    7.4909   15.6171 C   0  0  0  0  0  0  0  0  0  0  0  0
   47.4280    8.2617   13.6292 C   0  0  0  0  0  0  0  0  0  0  0  0
   46.5548    4.1455   13.5999 C   0  0  0  0  0  0  0  0  0  0  0  0
   46.5202    7.7414   12.7020 C   0  0  0  0  0  0  0  0  0  0  0  0
   51.2265    8.0190   16.5412 C   0  0  0  0  0  0  0  0  0  0  0  0
   48.0145   13.4986   18.7815 C   0  0  0  0  0  0  0  0  0  0  0  0
   47.2769   11.8019   20.4709 C   0  0  0  0  0  0  0  0  0  0  0  0
   49.6361   12.6486   20.4937 C   0  0  0  0  0  0  0  0  0  0  0  0
   43.5295    4.7696    9.9524 O   0  0  0  0  0  0  0  0  0  0  0  0
   51.7059    9.5959   18.3305 O   0  0  0  0  0  0  0  0  0  0  0  0
   53.0325    9.0926   18.4040 C   0  0  0  0  0  0  0  0  0  0  0  0
   47.6236    9.3690   16.3367 H   0  0  0  0  0  0  0  0  0  0  0  0
   46.8986   10.2798   18.2303 H   0  0  0  0  0  0  0  0  0  0  0  0
   47.4188   11.4761   17.0380 H   0  0  0  0  0  0  0  0  0  0  0  0
   50.9753   11.8274   18.2331 H   0  0  0  0  0  0  0  0  0  0  0  0
   49.8035   12.3497   17.0430 H   0  0  0  0  0  0  0  0  0  0  0  0
   48.5239    9.4055   19.9743 H   0  0  0  0  0  0  0  0  0  0  0  0
   50.1734    9.9822   20.0702 H   0  0  0  0  0  0  0  0  0  0  0  0
   44.8258    6.4919   11.0379 H   0  0  0  0  0  0  0  0  0  0  0  0
   48.2410    5.4015   15.2647 H   0  0  0  0  0  0  0  0  0  0  0  0
   46.0800   12.5303   18.8221 H   0  0  0  0  0  0  0  0  0  0  0  0
   50.1128   14.0139   18.8792 H   0  0  0  0  0  0  0  0  0  0  0  0
   48.8448   11.0970   21.7834 H   0  0  0  0  0  0  0  0  0  0  0  0
   45.4311    2.5556   12.6813 H   0  0  0  0  0  0  0  0  0  0  0  0
   50.6561    6.6979   14.9500 H   0  0  0  0  0  0  0  0  0  0  0  0
   47.6448    9.3283   13.6110 H   0  0  0  0  0  0  0  0  0  0  0  0
   47.0282    3.4712   14.3108 H   0  0  0  0  0  0  0  0  0  0  0  0
   46.0496    8.4191   11.9928 H   0  0  0  0  0  0  0  0  0  0  0  0
   52.2266    7.5987   16.5525 H   0  0  0  0  0  0  0  0  0  0  0  0
   47.7072   14.3184   19.4425 H   0  0  0  0  0  0  0  0  0  0  0  0
   47.8938   13.8578   17.7522 H   0  0  0  0  0  0  0  0  0  0  0  0
   46.9585   12.5959   21.1575 H   0  0  0  0  0  0  0  0  0  0  0  0
   46.6253   10.9396   20.6577 H   0  0  0  0  0  0  0  0  0  0  0  0
   50.6838   12.3928   20.6940 H   0  0  0  0  0  0  0  0  0  0  0  0
   49.3678   13.4554   21.1868 H   0  0  0  0  0  0  0  0  0  0  0  0
   42.9309    4.2376    9.3872 H   0  0  0  0  0  0  0  0  0  0  0  0
   53.0388    8.0347   18.6858 H   0  0  0  0  0  0  0  0  0  0  0  0
   53.5558    9.6473   19.1888 H   0  0  0  0  0  0  0  0  0  0  0  0
   53.5710    9.2590   17.4655 H   0  0  0  0  0  0  0  0  0  0  0  0
  1  2  1  1
  3  2  2  0
  4  6  1  0
  5  3  1  0
  6 11  2  0
  7  5  1  0
  8  1  1  0
  9  1  1  0
 10  1  1  0
 11 13  1  0
 12  7  1  0
 13 24  2  0
 14 12  2  0
 15  8  1  0
 16  9  1  0
 17 10  1  0
 18  2  1  0
 19  4  2  0
 20 23  2  0
 21 25  1  0
 22  7  2  0
 23 14  1  0
 24 22  1  0
 25 18  2  0
 26 16  1  0
 27 17  1  0
 28 17  1  0
 29  4  1  0
 30 18  1  0
 31 30  1  0
 28 16  1  0
 27 15  1  0
 26 15  1  0
 21  5  2  0
 13 14  1  0
  6 20  1  0
  3 32  1  0
  8 33  1  0
  8 34  1  0
  9 35  1  0
  9 36  1  0
 10 37  1  0
 10 38  1  0
 11 39  1  0
 12 40  1  0
 15 41  1  6
 16 42  1  6
 17 43  1  1
 20 44  1  0
 21 45  1  0
 22 46  1  0
 23 47  1  0
 24 48  1  0
 25 49  1  0
 26 50  1  0
 26 51  1  0
 27 52  1  0
 27 53  1  0
 28 54  1  0
 28 55  1  0
 29 56  1  0
 31 57  1  0
 31 58  1  0
 31 59  1  0
M  END
> <Uni-Dock RESULT> 
ENERGY=   -5.221  LOWER_BOUND=    4.905  UPPER_BOUND=    9.314
INTER + INTRA:          -5.221
INTER:                  -5.221
INTRA:                   0.000
UNBOUND:                 0.000

$$$$

     RDKit          3D

 59 64  0  0  0  0  0  0  0  0999 V2000
   49.4071   11.4369   17.2396 C   0  0  2  0  0  0  0  0  0  0  0  0
   49.7361   10.3624   16.1693 C   0  0  0  0  0  0  0  0  0  0  0  0
   48.7022    9.5986   15.5757 C   0  0  0  0  0  0  0  0  0  0  0  0
   43.5371    3.4152   11.8038 C   0  0  0  0  0  0  0  0  0  0  0  0
   48.9387    8.6106   14.6019 C   0  0  0  0  0  0  0  0  0  0  0  0
   44.6326    4.2292   12.3831 C   0  0  0  0  0  0  0  0  0  0  0  0
   47.8282    7.8453   14.0129 C   0  0  0  0  0  0  0  0  0  0  0  0
   47.8754   11.5568   17.5560 C   0  0  0  0  0  0  0  0  0  0  0  0
   49.8599   12.8509   16.7628 C   0  0  0  0  0  0  0  0  0  0  0  0
   50.1015   11.1013   18.5950 C   0  0  0  0  0  0  0  0  0  0  0  0
   44.6345    5.6281   12.3167 C   0  0  0  0  0  0  0  0  0  0  0  0
   47.8086    6.4411   14.0677 C   0  0  0  0  0  0  0  0  0  0  0  0
   45.6885    6.3701   12.8761 C   0  0  0  0  0  0  0  0  0  0  0  0
   46.7555    5.6948   13.5099 C   0  0  0  0  0  0  0  0  0  0  0  0
   47.5838   12.6300   18.6190 C   0  0  2  0  0  0  0  0  0  0  0  0
   49.5864   13.9201   17.8358 C   0  0  1  0  0  0  0  0  0  0  0  0
   49.8257   12.1864   19.6514 C   0  0  2  0  0  0  0  0  0  0  0  0
   51.0605   10.0949   15.7408 C   0  0  0  0  0  0  0  0  0  0  0  0
   43.4664    2.2002   11.8202 O   0  0  0  0  0  0  0  0  0  0  0  0
   45.6891    3.5644   13.0120 C   0  0  0  0  0  0  0  0  0  0  0  0
   50.2574    8.3795   14.2111 C   0  0  0  0  0  0  0  0  0  0  0  0
   46.7597    8.4960   13.3810 C   0  0  0  0  0  0  0  0  0  0  0  0
   46.7419    4.2924   13.5709 C   0  0  0  0  0  0  0  0  0  0  0  0
   45.7047    7.7705   12.8195 C   0  0  0  0  0  0  0  0  0  0  0  0
   51.3043    9.1113   14.7719 C   0  0  0  0  0  0  0  0  0  0  0  0
   48.0795   13.9901   18.1126 C   0  0  0  0  0  0  0  0  0  0  0  0
   48.3172   12.2678   19.9164 C   0  0  0  0  0  0  0  0  0  0  0  0
   50.3266   13.5431   19.1295 C   0  0  0  0  0  0  0  0  0  0  0  0
   42.5775    4.1614   11.2286 O   0  0  0  0  0  0  0  0  0  0  0  0
   52.0623   10.8340   16.3134 O   0  0  0  0  0  0  0  0  0  0  0  0
   53.4021   10.5932   15.9067 C   0  0  0  0  0  0  0  0  0  0  0  0
   47.6671    9.7485   15.8715 H   0  0  0  0  0  0  0  0  0  0  0  0
   47.4845   10.5963   17.9181 H   0  0  0  0  0  0  0  0  0  0  0  0
   47.3166   11.8106   16.6452 H   0  0  0  0  0  0  0  0  0  0  0  0
   50.9278   12.8811   16.5260 H   0  0  0  0  0  0  0  0  0  0  0  0
   49.3381   13.1162   15.8333 H   0  0  0  0  0  0  0  0  0  0  0  0
   49.7508   10.1276   18.9631 H   0  0  0  0  0  0  0  0  0  0  0  0
   51.1865   11.0080   18.4875 H   0  0  0  0  0  0  0  0  0  0  0  0
   43.8122    6.1466   11.8280 H   0  0  0  0  0  0  0  0  0  0  0  0
   48.6258    5.9212   14.5661 H   0  0  0  0  0  0  0  0  0  0  0  0
   46.5052   12.6784   18.8074 H   0  0  0  0  0  0  0  0  0  0  0  0
   49.9395   14.8948   17.4801 H   0  0  0  0  0  0  0  0  0  0  0  0
   50.3482   11.9338   20.5811 H   0  0  0  0  0  0  0  0  0  0  0  0
   45.6980    2.4775   13.0703 H   0  0  0  0  0  0  0  0  0  0  0  0
   50.4824    7.6319   13.4533 H   0  0  0  0  0  0  0  0  0  0  0  0
   46.7467    9.5822   13.3108 H   0  0  0  0  0  0  0  0  0  0  0  0
   47.5535    3.7540   14.0563 H   0  0  0  0  0  0  0  0  0  0  0  0
   44.8956    8.3130   12.3348 H   0  0  0  0  0  0  0  0  0  0  0  0
   52.3070    8.8876   14.4231 H   0  0  0  0  0  0  0  0  0  0  0  0
   47.8693   14.7681   18.8567 H   0  0  0  0  0  0  0  0  0  0  0  0
   47.5417   14.2705   17.1987 H   0  0  0  0  0  0  0  0  0  0  0  0
   48.1107   13.0197   20.6879 H   0  0  0  0  0  0  0  0  0  0  0  0
   47.9505   11.3083   20.3011 H   0  0  0  0  0  0  0  0  0  0  0  0
   51.4069   13.4986   18.9446 H   0  0  0  0  0  0  0  0  0  0  0  0
   50.1659   14.3173   19.8899 H   0  0  0  0  0  0  0  0  0  0  0  0
   41.9343    3.4999   10.8977 H   0  0  0  0  0  0  0  0  0  0  0  0
   53.7099    9.5701   16.1456 H   0  0  0  0  0  0  0  0  0  0  0  0
   54.0483   11.2733   16.4701 H   0  0  0  0  0  0  0  0  0  0  0  0
   53.5379   10.8128   14.8427 H   0  0  0  0  0  0  0  0  0  0  0  0
  1  2  1  1
  3  2  2  0
  4  6  1  0
  5  3  1  0
  6 11  2  0
  7  5  1  0
  8  1  1  0
  9  1  1  0
 10  1  1  0
 11 13  1  0
 12  7  1  0
 13 24  2  0
 14 12  2  0
 15  8  1  0
 16  9  1  0
 17 10  1  0
 18  2  1  0
 19  4  2  0
 20 23  2  0
 21 25  1  0
 22  7  2  0
 23 14  1  0
 24 22  1  0
 25 18  2  0
 26 16  1  0
 27 17  1  0
 28 17  1  0
 29  4  1  0
 30 18  1  0
 31 30  1  0
 28 16  1  0
 27 15  1  0
 26 15  1  0
 21  5  2  0
 13 14  1  0
  6 20  1  0
  3 32  1  0
  8 33  1  0
  8 34  1  0
  9 35  1  0
  9 36  1  0
 10 37  1  0
 10 38  1  0
 11 39  1  0
 12 40  1  0
 15 41  1  6
 16 42  1  6
 17 43  1  1
 20 44  1  0
 21 45  1  0
 22 46  1  0
 23 47  1  0
 24 48  1  0
 25 49  1  0
 26 50  1  0
 26 51  1  0
 27 52  1  0
 27 53  1  0
 28 54  1  0
 28 55  1  0
 29 56  1  0
 31 57  1  0
 31 58  1  0
 31 59  1  0
M  END
> <Uni-Dock RESULT> 
ENERGY=   -5.207  LOWER_BOUND=    4.735  UPPER_BOUND=    9.554
INTER + INTRA:          -5.207
INTER:                  -5.207
INTRA:                   0.000
UNBOUND:                 0.000

$$$$

     RDKit          3D

 59 64  0  0  0  0  0  0  0  0999 V2000
   49.9592   13.4133   14.7093 C   0  0  2  0  0  0  0  0  0  0  0  0
   50.0750   12.1525   13.8119 C   0  0  0  0  0  0  0  0  0  0  0  0
   48.9793   11.2671   13.6709 C   0  0  0  0  0  0  0  0  0  0  0  0
   43.4629    4.3629   12.6499 C   0  0  0  0  0  0  0  0  0  0  0  0
   49.0248   10.1087   12.8731 C   0  0  0  0  0  0  0  0  0  0  0  0
   44.6108    5.2958   12.7514 C   0  0  0  0  0  0  0  0  0  0  0  0
   47.8565    9.2214   12.7573 C   0  0  0  0  0  0  0  0  0  0  0  0
   48.5569   13.5666   15.3952 C   0  0  0  0  0  0  0  0  0  0  0  0
   50.1726   14.7113   13.8717 C   0  0  0  0  0  0  0  0  0  0  0  0
   51.0023   13.3681   15.8677 C   0  0  0  0  0  0  0  0  0  0  0  0
   44.4970    6.6530   12.4251 C   0  0  0  0  0  0  0  0  0  0  0  0
   47.9506    7.8564   13.0783 C   0  0  0  0  0  0  0  0  0  0  0  0
   45.6049    7.5106   12.5324 C   0  0  0  0  0  0  0  0  0  0  0  0
   46.8443    6.9949   12.9731 C   0  0  0  0  0  0  0  0  0  0  0  0
   48.4752   14.8253   16.2760 C   0  0  2  0  0  0  0  0  0  0  0  0
   50.1113   15.9684   14.7578 C   0  0  1  0  0  0  0  0  0  0  0  0
   50.9333   14.6374   16.7357 C   0  0  2  0  0  0  0  0  0  0  0  0
   51.2590   11.8285   13.1030 C   0  0  0  0  0  0  0  0  0  0  0  0
   43.4846    3.1747   12.9127 O   0  0  0  0  0  0  0  0  0  0  0  0
   45.8381    4.7892   13.1883 C   0  0  0  0  0  0  0  0  0  0  0  0
   50.2105    9.8278   12.1947 C   0  0  0  0  0  0  0  0  0  0  0  0
   46.6179    9.7133   12.3234 C   0  0  0  0  0  0  0  0  0  0  0  0
   46.9457    5.6330   13.2981 C   0  0  0  0  0  0  0  0  0  0  0  0
   45.5074    8.8715   12.2113 C   0  0  0  0  0  0  0  0  0  0  0  0
   51.3126   10.6756   12.3071 C   0  0  0  0  0  0  0  0  0  0  0  0
   48.7261   16.0654   15.4091 C   0  0  0  0  0  0  0  0  0  0  0  0
   49.5428   14.7431   17.3742 C   0  0  0  0  0  0  0  0  0  0  0  0
   51.1855   15.8710   15.8535 C   0  0  0  0  0  0  0  0  0  0  0  0
   42.3372    4.9618   12.2225 O   0  0  0  0  0  0  0  0  0  0  0  0
   52.3202   12.6850   13.2373 O   0  0  0  0  0  0  0  0  0  0  0  0
   53.5228   12.3917   12.5400 C   0  0  0  0  0  0  0  0  0  0  0  0
   48.0479   11.4546   14.1990 H   0  0  0  0  0  0  0  0  0  0  0  0
   48.3415   12.6912   16.0226 H   0  0  0  0  0  0  0  0  0  0  0  0
   47.7652   13.6232   14.6362 H   0  0  0  0  0  0  0  0  0  0  0  0
   51.1381   14.7126   13.3567 H   0  0  0  0  0  0  0  0  0  0  0  0
   49.4109   14.7760   13.0829 H   0  0  0  0  0  0  0  0  0  0  0  0
   50.8281   12.4815   16.4924 H   0  0  0  0  0  0  0  0  0  0  0  0
   52.0263   13.2746   15.4935 H   0  0  0  0  0  0  0  0  0  0  0  0
   43.5420    7.0484   12.0855 H   0  0  0  0  0  0  0  0  0  0  0  0
   48.9034    7.4614   13.4287 H   0  0  0  0  0  0  0  0  0  0  0  0
   47.4814   14.8912   16.7334 H   0  0  0  0  0  0  0  0  0  0  0  0
   50.2909   16.8584   14.1440 H   0  0  0  0  0  0  0  0  0  0  0  0
   51.6948   14.5851   17.5221 H   0  0  0  0  0  0  0  0  0  0  0  0
   45.9382    3.7363   13.4453 H   0  0  0  0  0  0  0  0  0  0  0  0
   50.2840    8.9479   11.5589 H   0  0  0  0  0  0  0  0  0  0  0  0
   46.5108   10.7632   12.0563 H   0  0  0  0  0  0  0  0  0  0  0  0
   47.8910    5.2171   13.6411 H   0  0  0  0  0  0  0  0  0  0  0  0
   44.5644    9.2915   11.8675 H   0  0  0  0  0  0  0  0  0  0  0  0
   52.2042   10.4046   11.7515 H   0  0  0  0  0  0  0  0  0  0  0  0
   48.6613   16.9726   16.0223 H   0  0  0  0  0  0  0  0  0  0  0  0
   47.9519   16.1477   14.6365 H   0  0  0  0  0  0  0  0  0  0  0  0
   49.4904   15.6303   18.0171 H   0  0  0  0  0  0  0  0  0  0  0  0
   49.3565   13.8735   18.0162 H   0  0  0  0  0  0  0  0  0  0  0  0
   52.1816   15.8098   15.3982 H   0  0  0  0  0  0  0  0  0  0  0  0
   51.1727   16.7786   16.4695 H   0  0  0  0  0  0  0  0  0  0  0  0
   41.6785    4.2360   12.2061 H   0  0  0  0  0  0  0  0  0  0  0  0
   53.9531   11.4427   12.8759 H   0  0  0  0  0  0  0  0  0  0  0  0
   54.2431   13.1822   12.7719 H   0  0  0  0  0  0  0  0  0  0  0  0
   53.3631   12.3965   11.4570 H   0  0  0  0  0  0  0  0  0  0  0  0
  1  2  1  1
  3  2  2  0
  4  6  1  0
  5  3  1  0
  6 11  2  0
  7  5  1  0
  8  1  1  0
  9  1  1  0
 10  1  1  0
 11 13  1  0
 12  7  1  0
 13 24  2  0
 14 12  2  0
 15  8  1  0
 16  9  1  0
 17 10  1  0
 18  2  1  0
 19  4  2  0
 20 23  2  0
 21 25  1  0
 22  7  2  0
 23 14  1  0
 24 22  1  0
 25 18  2  0
 26 16  1  0
 27 17  1  0
 28 17  1  0
 29  4  1  0
 30 18  1  0
 31 30  1  0
 28 16  1  0
 27 15  1  0
 26 15  1  0
 21  5  2  0
 13 14  1  0
  6 20  1  0
  3 32  1  0
  8 33  1  0
  8 34  1  0
  9 35  1  0
  9 36  1  0
 10 37  1  0
 10 38  1  0
 11 39  1  0
 12 40  1  0
 15 41  1  6
 16 42  1  6
 17 43  1  1
 20 44  1  0
 21 45  1  0
 22 46  1  0
 23 47  1  0
 24 48  1  0
 25 49  1  0
 26 50  1  0
 26 51  1  0
 27 52  1  0
 27 53  1  0
 28 54  1  0
 28 55  1  0
 29 56  1  0
 31 57  1  0
 31 58  1  0
 31 59  1  0
M  END
> <Uni-Dock RESULT> 
ENERGY=   -4.736  LOWER_BOUND=    4.069  UPPER_BOUND=    9.874
INTER + INTRA:          -4.736
INTER:                  -4.736
INTRA:                   0.000
UNBOUND:                 0.000

$$$$

     RDKit          3D

 59 64  0  0  0  0  0  0  0  0999 V2000
   45.2168    6.0347   12.2034 C   0  0  2  0  0  0  0  0  0  0  0  0
   45.9253    7.3749   12.5354 C   0  0  0  0  0  0  0  0  0  0  0  0
   47.0781    7.3945   13.3571 C   0  0  0  0  0  0  0  0  0  0  0  0
   53.6261    9.2125   19.0982 C   0  0  0  0  0  0  0  0  0  0  0  0
   47.7622    8.5774   13.6935 C   0  0  0  0  0  0  0  0  0  0  0  0
   52.4433    9.2130   18.2042 C   0  0  0  0  0  0  0  0  0  0  0  0
   48.9586    8.5441   14.5498 C   0  0  0  0  0  0  0  0  0  0  0  0
   45.9035    4.7850   12.8570 C   0  0  0  0  0  0  0  0  0  0  0  0
   45.2197    5.7723   10.6662 C   0  0  0  0  0  0  0  0  0  0  0  0
   43.7469    6.0398   12.7244 C   0  0  0  0  0  0  0  0  0  0  0  0
   52.4024    8.4586   17.0249 C   0  0  0  0  0  0  0  0  0  0  0  0
   49.0199    9.2951   15.7361 C   0  0  0  0  0  0  0  0  0  0  0  0
   51.2655    8.4812   16.1995 C   0  0  0  0  0  0  0  0  0  0  0  0
   50.1552    9.2748   16.5654 C   0  0  0  0  0  0  0  0  0  0  0  0
   45.1778    3.4742   12.5079 C   0  0  2  0  0  0  0  0  0  0  0  0
   44.4752    4.4711   10.3168 C   0  0  1  0  0  0  0  0  0  0  0  0
   43.0160    4.7361   12.3564 C   0  0  2  0  0  0  0  0  0  0  0  0
   45.4641    8.6222   12.0446 C   0  0  0  0  0  0  0  0  0  0  0  0
   53.7365    9.8410   20.1346 O   0  0  0  0  0  0  0  0  0  0  0  0
   51.3426    9.9959   18.5639 C   0  0  0  0  0  0  0  0  0  0  0  0
   47.2724    9.7823   13.1899 C   0  0  0  0  0  0  0  0  0  0  0  0
   50.0700    7.7626   14.2054 C   0  0  0  0  0  0  0  0  0  0  0  0
   50.2078   10.0258   17.7502 C   0  0  0  0  0  0  0  0  0  0  0  0
   51.2080    7.7310   15.0169 C   0  0  0  0  0  0  0  0  0  0  0  0
   46.1395    9.8052   12.3762 C   0  0  0  0  0  0  0  0  0  0  0  0
   45.1809    3.2851   10.9859 C   0  0  0  0  0  0  0  0  0  0  0  0
   43.7312    3.5483   13.0122 C   0  0  0  0  0  0  0  0  0  0  0  0
   43.0283    4.5600   10.8291 C   0  0  0  0  0  0  0  0  0  0  0  0
   54.6195    8.4232   18.6526 O   0  0  0  0  0  0  0  0  0  0  0  0
   44.3492    8.6050   11.2481 O   0  0  0  0  0  0  0  0  0  0  0  0
   43.8596    9.8371   10.7375 C   0  0  0  0  0  0  0  0  0  0  0  0
   47.4733    6.4718   13.7742 H   0  0  0  0  0  0  0  0  0  0  0  0
   45.9228    4.8888   13.9503 H   0  0  0  0  0  0  0  0  0  0  0  0
   46.9460    4.7036   12.5214 H   0  0  0  0  0  0  0  0  0  0  0  0
   44.7462    6.5874   10.1104 H   0  0  0  0  0  0  0  0  0  0  0  0
   46.2534    5.7183   10.2986 H   0  0  0  0  0  0  0  0  0  0  0  0
   43.7378    6.1753   13.8144 H   0  0  0  0  0  0  0  0  0  0  0  0
   43.1696    6.8737   12.3138 H   0  0  0  0  0  0  0  0  0  0  0  0
   53.2583    7.8484   16.7443 H   0  0  0  0  0  0  0  0  0  0  0  0
   48.1595    9.8981   16.0237 H   0  0  0  0  0  0  0  0  0  0  0  0
   45.6906    2.6309   12.9844 H   0  0  0  0  0  0  0  0  0  0  0  0
   44.4731    4.3308    9.2299 H   0  0  0  0  0  0  0  0  0  0  0  0
   41.9808    4.7833   12.7133 H   0  0  0  0  0  0  0  0  0  0  0  0
   51.3628   10.5857   19.4784 H   0  0  0  0  0  0  0  0  0  0  0  0
   47.7781   10.7183   13.4173 H   0  0  0  0  0  0  0  0  0  0  0  0
   50.0617    7.1760   13.2884 H   0  0  0  0  0  0  0  0  0  0  0  0
   49.3624   10.6417   18.0504 H   0  0  0  0  0  0  0  0  0  0  0  0
   52.0511    7.1141   14.7127 H   0  0  0  0  0  0  0  0  0  0  0  0
   45.8107   10.7731   12.0127 H   0  0  0  0  0  0  0  0  0  0  0  0
   44.6749    2.3484   10.7220 H   0  0  0  0  0  0  0  0  0  0  0  0
   46.2113    3.2044   10.6186 H   0  0  0  0  0  0  0  0  0  0  0  0
   43.2031    2.6157   12.7789 H   0  0  0  0  0  0  0  0  0  0  0  0
   43.7178    3.6571   14.1035 H   0  0  0  0  0  0  0  0  0  0  0  0
   42.5114    5.4005   10.3499 H   0  0  0  0  0  0  0  0  0  0  0  0
   42.4793    3.6509   10.5543 H   0  0  0  0  0  0  0  0  0  0  0  0
   55.3188    8.5219   19.3323 H   0  0  0  0  0  0  0  0  0  0  0  0
   43.5496   10.5054   11.5475 H   0  0  0  0  0  0  0  0  0  0  0  0
   42.9746    9.6183   10.1321 H   0  0  0  0  0  0  0  0  0  0  0  0
   44.5971   10.3157   10.0851 H   0  0  0  0  0  0  0  0  0  0  0  0
  1  2  1  1
  3  2  2  0
  4  6  1  0
  5  3  1  0
  6 11  2  0
  7  5  1  0
  8  1  1  0
  9  1  1  0
 10  1  1  0
 11 13  1  0
 12  7  1  0
 13 24  2  0
 14 12  2  0
 15  8  1  0
 16  9  1  0
 17 10  1  0
 18  2  1  0
 19  4  2  0
 20 23  2  0
 21 25  1  0
 22  7  2  0
 23 14  1  0
 24 22  1  0
 25 18  2  0
 26 16  1  0
 27 17  1  0
 28 17  1  0
 29  4  1  0
 30 18  1  0
 31 30  1  0
 28 16  1  0
 27 15  1  0
 26 15  1  0
 21  5  2  0
 13 14  1  0
  6 20  1  0
  3 32  1  0
  8 33  1  0
  8 34  1  0
  9 35  1  0
  9 36  1  0
 10 37  1  0
 10 38  1  0
 11 39  1  0
 12 40  1  0
 15 41  1  6
 16 42  1  6
 17 43  1  1
 20 44  1  0
 21 45  1  0
 22 46  1  0
 23 47  1  0
 24 48  1  0
 25 49  1  0
 26 50  1  0
 26 51  1  0
 27 52  1  0
 27 53  1  0
 28 54  1  0
 28 55  1  0
 29 56  1  0
 31 57  1  0
 31 58  1  0
 31 59  1  0
M  END
> <Uni-Dock RESULT> 
ENERGY=   -4.719  LOWER_BOUND=    4.229  UPPER_BOUND=    5.832
INTER + INTRA:          -4.719
INTER:                  -4.719
INTRA:                   0.000
UNBOUND:                 0.000

$$$$

     RDKit          3D

 59 64  0  0  0  0  0  0  0  0999 V2000
   44.6215   15.4581   12.5170 C   0  0  2  0  0  0  0  0  0  0  0  0
   45.5349   14.3006   12.0329 C   0  0  0  0  0  0  0  0  0  0  0  0
   45.0506   12.9708   11.9939 C   0  0  0  0  0  0  0  0  0  0  0  0
   43.8230    4.1619   12.1855 C   0  0  0  0  0  0  0  0  0  0  0  0
   45.8312   11.8808   11.5661 C   0  0  0  0  0  0  0  0  0  0  0  0
   44.3398    5.5515   12.1811 C   0  0  0  0  0  0  0  0  0  0  0  0
   45.2798   10.5166   11.5414 C   0  0  0  0  0  0  0  0  0  0  0  0
   43.1829   14.9890   12.9306 C   0  0  0  0  0  0  0  0  0  0  0  0
   44.4213   16.5153   11.3883 C   0  0  0  0  0  0  0  0  0  0  0  0
   45.2259   16.1532   13.7754 C   0  0  0  0  0  0  0  0  0  0  0  0
   43.7019    6.5797   11.4759 C   0  0  0  0  0  0  0  0  0  0  0  0
   45.9061    9.4708   12.2410 C   0  0  0  0  0  0  0  0  0  0  0  0
   44.2179    7.8865   11.4925 C   0  0  0  0  0  0  0  0  0  0  0  0
   45.3926    8.1619   12.2277 C   0  0  0  0  0  0  0  0  0  0  0  0
   42.3038   16.1594   13.4043 C   0  0  2  0  0  0  0  0  0  0  0  0
   43.5588   17.6956   11.8703 C   0  0  1  0  0  0  0  0  0  0  0  0
   44.3560   17.3367   14.2357 C   0  0  2  0  0  0  0  0  0  0  0  0
   46.8730   14.5103   11.6149 C   0  0  0  0  0  0  0  0  0  0  0  0
   44.3213    3.2179   12.7703 O   0  0  0  0  0  0  0  0  0  0  0  0
   45.5010    5.8276   12.9085 C   0  0  0  0  0  0  0  0  0  0  0  0
   47.1431   12.1329   11.1651 C   0  0  0  0  0  0  0  0  0  0  0  0
   44.1151   10.2228   10.8193 C   0  0  0  0  0  0  0  0  0  0  0  0
   46.0226    7.1231   12.9312 C   0  0  0  0  0  0  0  0  0  0  0  0
   43.5907    8.9271   10.7935 C   0  0  0  0  0  0  0  0  0  0  0  0
   47.6574   13.4294   11.1884 C   0  0  0  0  0  0  0  0  0  0  0  0
   42.1698   17.1819   12.2691 C   0  0  0  0  0  0  0  0  0  0  0  0
   42.9617   16.8255   14.6191 C   0  0  0  0  0  0  0  0  0  0  0  0
   44.2301   18.3519   13.0879 C   0  0  0  0  0  0  0  0  0  0  0  0
   42.7029    4.0169   11.4555 O   0  0  0  0  0  0  0  0  0  0  0  0
   47.3429   15.7971   11.6509 O   0  0  0  0  0  0  0  0  0  0  0  0
   48.6796   16.0442   11.2378 C   0  0  0  0  0  0  0  0  0  0  0  0
   44.0368   12.7439   12.3136 H   0  0  0  0  0  0  0  0  0  0  0  0
   43.2411   14.2503   13.7413 H   0  0  0  0  0  0  0  0  0  0  0  0
   42.6827   14.5009   12.0835 H   0  0  0  0  0  0  0  0  0  0  0  0
   45.3736   16.9208   11.0331 H   0  0  0  0  0  0  0  0  0  0  0  0
   43.9505   16.0442   10.5148 H   0  0  0  0  0  0  0  0  0  0  0  0
   45.3248   15.4257   14.5923 H   0  0  0  0  0  0  0  0  0  0  0  0
   46.2349   16.5332   13.5886 H   0  0  0  0  0  0  0  0  0  0  0  0
   42.7976    6.3660   10.9099 H   0  0  0  0  0  0  0  0  0  0  0  0
   46.8054    9.6857   12.8168 H   0  0  0  0  0  0  0  0  0  0  0  0
   41.3116   15.7860   13.6820 H   0  0  0  0  0  0  0  0  0  0  0  0
   43.4601   18.4307   11.0634 H   0  0  0  0  0  0  0  0  0  0  0  0
   44.8215   17.8178   15.1034 H   0  0  0  0  0  0  0  0  0  0  0  0
   46.0049    5.0367   13.4609 H   0  0  0  0  0  0  0  0  0  0  0  0
   47.7766   11.3198   10.8172 H   0  0  0  0  0  0  0  0  0  0  0  0
   43.6092   11.0059   10.2573 H   0  0  0  0  0  0  0  0  0  0  0  0
   46.9270    7.3153   13.5049 H   0  0  0  0  0  0  0  0  0  0  0  0
   42.6864    8.7394   10.2183 H   0  0  0  0  0  0  0  0  0  0  0  0
   48.6832   13.5609   10.8604 H   0  0  0  0  0  0  0  0  0  0  0  0
   41.5367   18.0186   12.5891 H   0  0  0  0  0  0  0  0  0  0  0  0
   41.6761   16.7221   11.4043 H   0  0  0  0  0  0  0  0  0  0  0  0
   42.3407   17.6568   14.9747 H   0  0  0  0  0  0  0  0  0  0  0  0
   43.0380   16.1090   15.4462 H   0  0  0  0  0  0  0  0  0  0  0  0
   45.2216   18.7307   12.8111 H   0  0  0  0  0  0  0  0  0  0  0  0
   43.6402   19.2160   13.4177 H   0  0  0  0  0  0  0  0  0  0  0  0
   42.4834    3.0664   11.5510 H   0  0  0  0  0  0  0  0  0  0  0  0
   49.3952   15.5231   11.8820 H   0  0  0  0  0  0  0  0  0  0  0  0
   48.8656   17.1180   11.3374 H   0  0  0  0  0  0  0  0  0  0  0  0
   48.8235   15.7794   10.1852 H   0  0  0  0  0  0  0  0  0  0  0  0
  1  2  1  1
  3  2  2  0
  4  6  1  0
  5  3  1  0
  6 11  2  0
  7  5  1  0
  8  1  1  0
  9  1  1  0
 10  1  1  0
 11 13  1  0
 12  7  1  0
 13 24  2  0
 14 12  2  0
 15  8  1  0
 16  9  1  0
 17 10  1  0
 18  2  1  0
 19  4  2  0
 20 23  2  0
 21 25  1  0
 22  7  2  0
 23 14  1  0
 24 22  1  0
 25 18  2  0
 26 16  1  0
 27 17  1  0
 28 17  1  0
 29  4  1  0
 30 18  1  0
 31 30  1  0
 28 16  1  0
 27 15  1  0
 26 15  1  0
 21  5  2  0
 13 14  1  0
  6 20  1  0
  3 32  1  0
  8 33  1  0
  8 34  1  0
  9 35  1  0
  9 36  1  0
 10 37  1  0
 10 38  1  0
 11 39  1  0
 12 40  1  0
 15 41  1  6
 16 42  1  6
 17 43  1  1
 20 44  1  0
 21 45  1  0
 22 46  1  0
 23 47  1  0
 24 48  1  0
 25 49  1  0
 26 50  1  0
 26 51  1  0
 27 52  1  0
 27 53  1  0
 28 54  1  0
 28 55  1  0
 29 56  1  0
 31 57  1  0
 31 58  1  0
 31 59  1  0
M  END
> <Uni-Dock RESULT> 
ENERGY=   -4.708  LOWER_BOUND=    5.530  UPPER_BOUND=   10.340
INTER + INTRA:          -4.708
INTER:                  -4.708
INTRA:                   0.000
UNBOUND:                 0.000

$$$$

     RDKit          3D

 59 64  0  0  0  0  0  0  0  0999 V2000
   44.5121   11.6227   10.9543 C   0  0  2  0  0  0  0  0  0  0  0  0
   45.9237   11.0751   11.2945 C   0  0  0  0  0  0  0  0  0  0  0  0
   46.0714    9.9007   12.0713 C   0  0  0  0  0  0  0  0  0  0  0  0
   48.5795    3.3996   17.6018 C   0  0  0  0  0  0  0  0  0  0  0  0
   47.3239    9.3573   12.4126 C   0  0  0  0  0  0  0  0  0  0  0  0
   48.4495    4.6093   16.7545 C   0  0  0  0  0  0  0  0  0  0  0  0
   47.4239    8.1316   13.2209 C   0  0  0  0  0  0  0  0  0  0  0  0
   43.3456   10.7577   11.5472 C   0  0  0  0  0  0  0  0  0  0  0  0
   44.2855   11.6509    9.4117 C   0  0  0  0  0  0  0  0  0  0  0  0
   44.3196   13.0585   11.5316 C   0  0  0  0  0  0  0  0  0  0  0  0
   47.7218    4.6042   15.5579 C   0  0  0  0  0  0  0  0  0  0  0  0
   48.1507    8.1158   14.4236 C   0  0  0  0  0  0  0  0  0  0  0  0
   47.6181    5.7683   14.7779 C   0  0  0  0  0  0  0  0  0  0  0  0
   48.2564    6.9533   15.2076 C   0  0  0  0  0  0  0  0  0  0  0  0
   41.9613   11.3267   11.1914 C   0  0  2  0  0  0  0  0  0  0  0  0
   42.9084   12.2398    9.0566 C   0  0  1  0  0  0  0  0  0  0  0  0
   42.9420   13.6345   11.1573 C   0  0  2  0  0  0  0  0  0  0  0  0
   47.1128   11.7095   10.8555 C   0  0  0  0  0  0  0  0  0  0  0  0
   49.1943    3.3260   18.6497 O   0  0  0  0  0  0  0  0  0  0  0  0
   49.0786    5.7837   17.1773 C   0  0  0  0  0  0  0  0  0  0  0  0
   48.4676   10.0153   11.9607 C   0  0  0  0  0  0  0  0  0  0  0  0
   46.7972    6.9461   12.8130 C   0  0  0  0  0  0  0  0  0  0  0  0
   48.9821    6.9463   16.4092 C   0  0  0  0  0  0  0  0  0  0  0  0
   46.8924    5.7803   13.5788 C   0  0  0  0  0  0  0  0  0  0  0  0
   48.3644   11.1751   11.1924 C   0  0  0  0  0  0  0  0  0  0  0  0
   41.8072   11.3633    9.6659 C   0  0  0  0  0  0  0  0  0  0  0  0
   41.8405   12.7489   11.7529 C   0  0  0  0  0  0  0  0  0  0  0  0
   42.8021   13.6638    9.6265 C   0  0  0  0  0  0  0  0  0  0  0  0
   47.9323    2.3343   17.0972 O   0  0  0  0  0  0  0  0  0  0  0  0
   46.9718   12.8457   10.1024 O   0  0  0  0  0  0  0  0  0  0  0  0
   48.1427   13.5072    9.6444 C   0  0  0  0  0  0  0  0  0  0  0  0
   45.1974    9.3756   12.4479 H   0  0  0  0  0  0  0  0  0  0  0  0
   43.4273   10.7060   12.6413 H   0  0  0  0  0  0  0  0  0  0  0  0
   43.4043    9.7281   11.1695 H   0  0  0  0  0  0  0  0  0  0  0  0
   45.0459   12.2459    8.8966 H   0  0  0  0  0  0  0  0  0  0  0  0
   44.3710   10.6349    9.0031 H   0  0  0  0  0  0  0  0  0  0  0  0
   44.4291   13.0392   12.6244 H   0  0  0  0  0  0  0  0  0  0  0  0
   45.0823   13.7528   11.1661 H   0  0  0  0  0  0  0  0  0  0  0  0
   47.2312    3.6907   15.2282 H   0  0  0  0  0  0  0  0  0  0  0  0
   48.6334    9.0324   14.7603 H   0  0  0  0  0  0  0  0  0  0  0  0
   41.1796   10.6925   11.6250 H   0  0  0  0  0  0  0  0  0  0  0  0
   42.7926   12.2695    7.9671 H   0  0  0  0  0  0  0  0  0  0  0  0
   42.8499   14.6515   11.5551 H   0  0  0  0  0  0  0  0  0  0  0  0
   49.6462    5.7998   18.1059 H   0  0  0  0  0  0  0  0  0  0  0  0
   49.4551    9.6223   12.1934 H   0  0  0  0  0  0  0  0  0  0  0  0
   46.2343    6.9187   11.8816 H   0  0  0  0  0  0  0  0  0  0  0  0
   49.4792    7.8492   16.7581 H   0  0  0  0  0  0  0  0  0  0  0  0
   46.3941    4.8798   13.2258 H   0  0  0  0  0  0  0  0  0  0  0  0
   49.2905   11.6378   10.8678 H   0  0  0  0  0  0  0  0  0  0  0  0
   40.8198   11.7581    9.3967 H   0  0  0  0  0  0  0  0  0  0  0  0
   41.8657   10.3471    9.2570 H   0  0  0  0  0  0  0  0  0  0  0  0
   40.8537   13.1648   11.5153 H   0  0  0  0  0  0  0  0  0  0  0  0
   41.9230   12.7303   12.8465 H   0  0  0  0  0  0  0  0  0  0  0  0
   43.5805   14.3018    9.1904 H   0  0  0  0  0  0  0  0  0  0  0  0
   41.8369   14.1051    9.3489 H   0  0  0  0  0  0  0  0  0  0  0  0
   48.1040    1.6252   17.7518 H   0  0  0  0  0  0  0  0  0  0  0  0
   48.7486   13.8647   10.4833 H   0  0  0  0  0  0  0  0  0  0  0  0
   47.8267   14.3821    9.0679 H   0  0  0  0  0  0  0  0  0  0  0  0
   48.7250   12.8636    8.9771 H   0  0  0  0  0  0  0  0  0  0  0  0
  1  2  1  1
  3  2  2  0
  4  6  1  0
  5  3  1  0
  6 11  2  0
  7  5  1  0
  8  1  1  0
  9  1  1  0
 10  1  1  0
 11 13  1  0
 12  7  1  0
 13 24  2  0
 14 12  2  0
 15  8  1  0
 16  9  1  0
 17 10  1  0
 18  2  1  0
 19  4  2  0
 20 23  2  0
 21 25  1  0
 22  7  2  0
 23 14  1  0
 24 22  1  0
 25 18  2  0
 26 16  1  0
 27 17  1  0
 28 17  1  0
 29  4  1  0
 30 18  1  0
 31 30  1  0
 28 16  1  0
 27 15  1  0
 26 15  1  0
 21  5  2  0
 13 14  1  0
  6 20  1  0
  3 32  1  0
  8 33  1  0
  8 34  1  0
  9 35  1  0
  9 36  1  0
 10 37  1  0
 10 38  1  0
 11 39  1  0
 12 40  1  0
 15 41  1  6
 16 42  1  6
 17 43  1  1
 20 44  1  0
 21 45  1  0
 22 46  1  0
 23 47  1  0
 24 48  1  0
 25 49  1  0
 26 50  1  0
 26 51  1  0
 27 52  1  0
 27 53  1  0
 28 54  1  0
 28 55  1  0
 29 56  1  0
 31 57  1  0
 31 58  1  0
 31 59  1  0
M  END
> <Uni-Dock RESULT> 
ENERGY=   -4.594  LOWER_BOUND=    3.973  UPPER_BOUND=    8.459
INTER + INTRA:          -4.594
INTER:                  -4.594
INTRA:                   0.000
UNBOUND:                 0.000

$$$$

     RDKit          3D

 59 64  0  0  0  0  0  0  0  0999 V2000
   52.3963    5.4790   18.2741 C   0  0  2  0  0  0  0  0  0  0  0  0
   51.1678    6.3041   17.8068 C   0  0  0  0  0  0  0  0  0  0  0  0
   50.2400    5.7552   16.8890 C   0  0  0  0  0  0  0  0  0  0  0  0
   44.2572    4.1211   10.5112 C   0  0  0  0  0  0  0  0  0  0  0  0
   49.1091    6.4546   16.4283 C   0  0  0  0  0  0  0  0  0  0  0  0
   45.1941    4.7026   11.5023 C   0  0  0  0  0  0  0  0  0  0  0  0
   48.1724    5.8380   15.4754 C   0  0  0  0  0  0  0  0  0  0  0  0
   52.4687    4.0479   17.6358 C   0  0  0  0  0  0  0  0  0  0  0  0
   52.3622    5.2602   19.8178 C   0  0  0  0  0  0  0  0  0  0  0  0
   53.7263    6.1928   17.8823 C   0  0  0  0  0  0  0  0  0  0  0  0
   45.4720    4.0722   12.7216 C   0  0  0  0  0  0  0  0  0  0  0  0
   47.8790    6.4556   14.2475 C   0  0  0  0  0  0  0  0  0  0  0  0
   46.3653    4.6503   13.6393 C   0  0  0  0  0  0  0  0  0  0  0  0
   46.9864    5.8801   13.3260 C   0  0  0  0  0  0  0  0  0  0  0  0
   53.6961    3.2570   18.1200 C   0  0  2  0  0  0  0  0  0  0  0  0
   53.6013    4.4867   20.3034 C   0  0  1  0  0  0  0  0  0  0  0  0
   54.9530    5.4107   18.3854 C   0  0  2  0  0  0  0  0  0  0  0  0
   50.9173    7.6222   18.2639 C   0  0  0  0  0  0  0  0  0  0  0  0
   43.9648    4.6088    9.4351 O   0  0  0  0  0  0  0  0  0  0  0  0
   45.8112    5.9185   11.1949 C   0  0  0  0  0  0  0  0  0  0  0  0
   48.9025    7.7497   16.9031 C   0  0  0  0  0  0  0  0  0  0  0  0
   47.5468    4.6181   15.7665 C   0  0  0  0  0  0  0  0  0  0  0  0
   46.7005    6.5019   12.1003 C   0  0  0  0  0  0  0  0  0  0  0  0
   46.6555    4.0316   14.8631 C   0  0  0  0  0  0  0  0  0  0  0  0
   49.7934    8.3260   17.8087 C   0  0  0  0  0  0  0  0  0  0  0  0
   53.6279    3.1021   19.6443 C   0  0  0  0  0  0  0  0  0  0  0  0
   54.9709    4.0200   17.7389 C   0  0  0  0  0  0  0  0  0  0  0  0
   54.8700    5.2628   19.9134 C   0  0  0  0  0  0  0  0  0  0  0  0
   43.7277    2.9522   10.9136 O   0  0  0  0  0  0  0  0  0  0  0  0
   51.8136    8.1546   19.1532 O   0  0  0  0  0  0  0  0  0  0  0  0
   51.5930    9.4735   19.6333 C   0  0  0  0  0  0  0  0  0  0  0  0
   50.3840    4.7534   16.4925 H   0  0  0  0  0  0  0  0  0  0  0  0
   52.5143    4.1208   16.5408 H   0  0  0  0  0  0  0  0  0  0  0  0
   51.5663    3.4734   17.8844 H   0  0  0  0  0  0  0  0  0  0  0  0
   52.3239    6.2069   20.3652 H   0  0  0  0  0  0  0  0  0  0  0  0
   51.4510    4.7141   20.0974 H   0  0  0  0  0  0  0  0  0  0  0  0
   53.7811    6.3071   16.7913 H   0  0  0  0  0  0  0  0  0  0  0  0
   53.7843    7.2053   18.2931 H   0  0  0  0  0  0  0  0  0  0  0  0
   44.9927    3.1254   12.9616 H   0  0  0  0  0  0  0  0  0  0  0  0
   48.3664    7.3981   14.0013 H   0  0  0  0  0  0  0  0  0  0  0  0
   53.7056    2.2671   17.6497 H   0  0  0  0  0  0  0  0  0  0  0  0
   53.5589    4.3736   21.3926 H   0  0  0  0  0  0  0  0  0  0  0  0
   55.8675    5.9517   18.1169 H   0  0  0  0  0  0  0  0  0  0  0  0
   45.6034    6.4172   10.2500 H   0  0  0  0  0  0  0  0  0  0  0  0
   48.0346    8.3208   16.5802 H   0  0  0  0  0  0  0  0  0  0  0  0
   47.7425    4.1164   16.7126 H   0  0  0  0  0  0  0  0  0  0  0  0
   47.1699    7.4484   11.8397 H   0  0  0  0  0  0  0  0  0  0  0  0
   46.1880    3.0855   15.1281 H   0  0  0  0  0  0  0  0  0  0  0  0
   49.5753    9.3346   18.1437 H   0  0  0  0  0  0  0  0  0  0  0  0
   54.4927    2.5309   20.0036 H   0  0  0  0  0  0  0  0  0  0  0  0
   52.7326    2.5342   19.9255 H   0  0  0  0  0  0  0  0  0  0  0  0
   55.8560    3.4628   18.0693 H   0  0  0  0  0  0  0  0  0  0  0  0
   55.0423    4.1130   16.6483 H   0  0  0  0  0  0  0  0  0  0  0  0
   54.8652    6.2523   20.3869 H   0  0  0  0  0  0  0  0  0  0  0  0
   55.7577    4.7366   20.2856 H   0  0  0  0  0  0  0  0  0  0  0  0
   43.1416    2.6938   10.1716 H   0  0  0  0  0  0  0  0  0  0  0  0
   51.6238   10.2018   18.8164 H   0  0  0  0  0  0  0  0  0  0  0  0
   52.4061    9.7165   20.3241 H   0  0  0  0  0  0  0  0  0  0  0  0
   50.6535    9.5390   20.1915 H   0  0  0  0  0  0  0  0  0  0  0  0
  1  2  1  1
  3  2  2  0
  4  6  1  0
  5  3  1  0
  6 11  2  0
  7  5  1  0
  8  1  1  0
  9  1  1  0
 10  1  1  0
 11 13  1  0
 12  7  1  0
 13 24  2  0
 14 12  2  0
 15  8  1  0
 16  9  1  0
 17 10  1  0
 18  2  1  0
 19  4  2  0
 20 23  2  0
 21 25  1  0
 22  7  2  0
 23 14  1  0
 24 22  1  0
 25 18  2  0
 26 16  1  0
 27 17  1  0
 28 17  1  0
 29  4  1  0
 30 18  1  0
 31 30  1  0
 28 16  1  0
 27 15  1  0
 26 15  1  0
 21  5  2  0
 13 14  1  0
  6 20  1  0
  3 32  1  0
  8 33  1  0
  8 34  1  0
  9 35  1  0
  9 36  1  0
 10 37  1  0
 10 38  1  0
 11 39  1  0
 12 40  1  0
 15 41  1  6
 16 42  1  6
 17 43  1  1
 20 44  1  0
 21 45  1  0
 22 46  1  0
 23 47  1  0
 24 48  1  0
 25 49  1  0
 26 50  1  0
 26 51  1  0
 27 52  1  0
 27 53  1  0
 28 54  1  0
 28 55  1  0
 29 56  1  0
 31 57  1  0
 31 58  1  0
 31 59  1  0
M  END
> <Uni-Dock RESULT> 
ENERGY=   -4.578  LOWER_BOUND=    5.171  UPPER_BOUND=    9.554
INTER + INTRA:          -4.578
INTER:                  -4.578
INTRA:                   0.000
UNBOUND:                 0.000

$$$$

     RDKit          3D

 59 64  0  0  0  0  0  0  0  0999 V2000
   48.0203    9.2865   13.4361 C   0  0  2  0  0  0  0  0  0  0  0  0
   46.7366    8.7129   12.7793 C   0  0  0  0  0  0  0  0  0  0  0  0
   45.8373    9.5649   12.0939 C   0  0  0  0  0  0  0  0  0  0  0  0
   38.8554   13.7026    8.4507 C   0  0  0  0  0  0  0  0  0  0  0  0
   44.6580    9.1036   11.4801 C   0  0  0  0  0  0  0  0  0  0  0  0
   39.8016   12.7851    9.1297 C   0  0  0  0  0  0  0  0  0  0  0  0
   43.7566   10.0302   10.7768 C   0  0  0  0  0  0  0  0  0  0  0  0
   48.1789   10.8361   13.2515 C   0  0  0  0  0  0  0  0  0  0  0  0
   49.2968    8.6458   12.8102 C   0  0  0  0  0  0  0  0  0  0  0  0
   48.0167    9.0345   14.9751 C   0  0  0  0  0  0  0  0  0  0  0  0
   41.1482   12.6954    8.7555 C   0  0  0  0  0  0  0  0  0  0  0  0
   42.4019   10.1336   11.1361 C   0  0  0  0  0  0  0  0  0  0  0  0
   42.0189   11.8153    9.4199 C   0  0  0  0  0  0  0  0  0  0  0  0
   41.5273   11.0136   10.4744 C   0  0  0  0  0  0  0  0  0  0  0  0
   49.4604   11.3720   13.9129 C   0  0  2  0  0  0  0  0  0  0  0  0
   50.5771    9.1675   13.4871 C   0  0  1  0  0  0  0  0  0  0  0  0
   49.3086    9.5528   15.6323 C   0  0  2  0  0  0  0  0  0  0  0  0
   46.4046    7.3358   12.8315 C   0  0  0  0  0  0  0  0  0  0  0  0
   37.6750   13.8344    8.7170 O   0  0  0  0  0  0  0  0  0  0  0  0
   39.3188   11.9915   10.1742 C   0  0  0  0  0  0  0  0  0  0  0  0
   44.3699    7.7411   11.5576 C   0  0  0  0  0  0  0  0  0  0  0  0
   44.2247   10.8350    9.7290 C   0  0  0  0  0  0  0  0  0  0  0  0
   40.1759   11.1130   10.8410 C   0  0  0  0  0  0  0  0  0  0  0  0
   43.3695   11.7147    9.0588 C   0  0  0  0  0  0  0  0  0  0  0  0
   45.2309    6.8686   12.2234 C   0  0  0  0  0  0  0  0  0  0  0  0
   50.6786   10.6844   13.2842 C   0  0  0  0  0  0  0  0  0  0  0  0
   49.4184   11.0672   15.4155 C   0  0  0  0  0  0  0  0  0  0  0  0
   50.5199    8.8558   14.9916 C   0  0  0  0  0  0  0  0  0  0  0  0
   39.4315   14.4152    7.4665 O   0  0  0  0  0  0  0  0  0  0  0  0
   47.2746    6.5094   13.4934 O   0  0  0  0  0  0  0  0  0  0  0  0
   46.9738    5.1227   13.5646 C   0  0  0  0  0  0  0  0  0  0  0  0
   46.0302   10.6327   12.0299 H   0  0  0  0  0  0  0  0  0  0  0  0
   47.3189   11.3621   13.6877 H   0  0  0  0  0  0  0  0  0  0  0  0
   48.2071   11.0921   12.1839 H   0  0  0  0  0  0  0  0  0  0  0  0
   49.2933    7.5551   12.8984 H   0  0  0  0  0  0  0  0  0  0  0  0
   49.3327    8.8604   11.7335 H   0  0  0  0  0  0  0  0  0  0  0  0
   47.1460    9.5245   15.4315 H   0  0  0  0  0  0  0  0  0  0  0  0
   47.9228    7.9713   15.2160 H   0  0  0  0  0  0  0  0  0  0  0  0
   41.5251   13.3132    7.9430 H   0  0  0  0  0  0  0  0  0  0  0  0
   42.0257    9.5236   11.9564 H   0  0  0  0  0  0  0  0  0  0  0  0
   49.5293   12.4550   13.7591 H   0  0  0  0  0  0  0  0  0  0  0  0
   51.4516    8.6788   13.0427 H   0  0  0  0  0  0  0  0  0  0  0  0
   49.2851    9.3370   16.7065 H   0  0  0  0  0  0  0  0  0  0  0  0
   38.2744   12.0532   10.4742 H   0  0  0  0  0  0  0  0  0  0  0  0
   43.4737    7.3419   11.0872 H   0  0  0  0  0  0  0  0  0  0  0  0
   45.2658   10.7739    9.4170 H   0  0  0  0  0  0  0  0  0  0  0  0
   39.7785   10.5055   11.6516 H   0  0  0  0  0  0  0  0  0  0  0  0
   43.7710   12.3199    8.2485 H   0  0  0  0  0  0  0  0  0  0  0  0
   44.9533    5.8200   12.2452 H   0  0  0  0  0  0  0  0  0  0  0  0
   51.6016   11.0640   13.7394 H   0  0  0  0  0  0  0  0  0  0  0  0
   50.7324   10.9181   12.2139 H   0  0  0  0  0  0  0  0  0  0  0  0
   50.3223   11.4525   15.9030 H   0  0  0  0  0  0  0  0  0  0  0  0
   48.5650   11.5766   15.8794 H   0  0  0  0  0  0  0  0  0  0  0  0
   50.4558    7.7720   15.1482 H   0  0  0  0  0  0  0  0  0  0  0  0
   51.4439    9.1931   15.4773 H   0  0  0  0  0  0  0  0  0  0  0  0
   38.6993   14.9656    7.1174 H   0  0  0  0  0  0  0  0  0  0  0  0
   46.0385    4.9483   14.1062 H   0  0  0  0  0  0  0  0  0  0  0  0
   47.7772    4.6364   14.1263 H   0  0  0  0  0  0  0  0  0  0  0  0
   46.9475    4.6722   12.5671 H   0  0  0  0  0  0  0  0  0  0  0  0
  1  2  1  1
  3  2  2  0
  4  6  1  0
  5  3  1  0
  6 11  2  0
  7  5  1  0
  8  1  1  0
  9  1  1  0
 10  1  1  0
 11 13  1  0
 12  7  1  0
 13 24  2  0
 14 12  2  0
 15  8  1  0
 16  9  1  0
 17 10  1  0
 18  2  1  0
 19  4  2  0
 20 23  2  0
 21 25  1  0
 22  7  2  0
 23 14  1  0
 24 22  1  0
 25 18  2  0
 26 16  1  0
 27 17  1  0
 28 17  1  0
 29  4  1  0
 30 18  1  0
 31 30  1  0
 28 16  1  0
 27 15  1  0
 26 15  1  0
 21  5  2  0
 13 14  1  0
  6 20  1  0
  3 32  1  0
  8 33  1  0
  8 34  1  0
  9 35  1  0
  9 36  1  0
 10 37  1  0
 10 38  1  0
 11 39  1  0
 12 40  1  0
 15 41  1  6
 16 42  1  6
 17 43  1  1
 20 44  1  0
 21 45  1  0
 22 46  1  0
 23 47  1  0
 24 48  1  0
 25 49  1  0
 26 50  1  0
 26 51  1  0
 27 52  1  0
 27 53  1  0
 28 54  1  0
 28 55  1  0
 29 56  1  0
 31 57  1  0
 31 58  1  0
 31 59  1  0
M  END
> <Uni-Dock RESULT> 
ENERGY=   -4.570  LOWER_BOUND=    5.616  UPPER_BOUND=    8.745
INTER + INTRA:          -4.570
INTER:                  -4.570
INTRA:                   0.000
UNBOUND:                 0.000

$$$$
