
     RDKit          3D

 59 64  0  0  0  0  0  0  0  0999 V2000
   45.6613    5.3169   12.3278 C   0  0  2  0  0  0  0  0  0  0  0  0
   46.8909    6.0189   12.9630 C   0  0  0  0  0  0  0  0  0  0  0  0
   47.5402    7.0811   12.2890 C   0  0  0  0  0  0  0  0  0  0  0  0
   53.1096   13.0902    8.8799 C   0  0  0  0  0  0  0  0  0  0  0  0
   48.6589    7.7546   12.8137 C   0  0  0  0  0  0  0  0  0  0  0  0
   52.5106   11.9574    9.6258 C   0  0  0  0  0  0  0  0  0  0  0  0
   49.2969    8.8552   12.0740 C   0  0  0  0  0  0  0  0  0  0  0  0
   44.4036    5.4718   13.2367 C   0  0  0  0  0  0  0  0  0  0  0  0
   45.9465    3.8018   12.0936 C   0  0  0  0  0  0  0  0  0  0  0  0
   45.2594    5.9029   10.9293 C   0  0  0  0  0  0  0  0  0  0  0  0
   51.1482   12.0206    9.9447 C   0  0  0  0  0  0  0  0  0  0  0  0
   50.6631    8.8103   11.7471 C   0  0  0  0  0  0  0  0  0  0  0  0
   50.5268   10.9769   10.6497 C   0  0  0  0  0  0  0  0  0  0  0  0
   51.2882    9.8532   11.0408 C   0  0  0  0  0  0  0  0  0  0  0  0
   43.1879    4.7368   12.6442 C   0  0  2  0  0  0  0  0  0  0  0  0
   44.7168    3.0819   11.5113 C   0  0  1  0  0  0  0  0  0  0  0  0
   44.0379    5.1863   10.3281 C   0  0  2  0  0  0  0  0  0  0  0  0
   47.4166    5.6404   14.2238 C   0  0  0  0  0  0  0  0  0  0  0  0
   52.5228   14.0900    8.5093 O   0  0  0  0  0  0  0  0  0  0  0  0
   53.2617   10.8441   10.0126 C   0  0  0  0  0  0  0  0  0  0  0  0
   49.1441    7.3479   14.0564 C   0  0  0  0  0  0  0  0  0  0  0  0
   48.5594    9.9786   11.6754 C   0  0  0  0  0  0  0  0  0  0  0  0
   52.6530    9.8004   10.7148 C   0  0  0  0  0  0  0  0  0  0  0  0
   49.1641   11.0257   10.9738 C   0  0  0  0  0  0  0  0  0  0  0  0
   48.5317    6.3057   14.7528 C   0  0  0  0  0  0  0  0  0  0  0  0
   43.5283    3.2473   12.4726 C   0  0  0  0  0  0  0  0  0  0  0  0
   42.8434    5.3417   11.2775 C   0  0  0  0  0  0  0  0  0  0  0  0
   44.3622    3.6976   10.1520 C   0  0  0  0  0  0  0  0  0  0  0  0
   54.4200   12.9185    8.6316 O   0  0  0  0  0  0  0  0  0  0  0  0
   46.7887    4.6131   14.8782 O   0  0  0  0  0  0  0  0  0  0  0  0
   47.2813    4.2156   16.1502 C   0  0  0  0  0  0  0  0  0  0  0  0
   47.1916    7.4095   11.3132 H   0  0  0  0  0  0  0  0  0  0  0  0
   44.1661    6.5363   13.3670 H   0  0  0  0  0  0  0  0  0  0  0  0
   44.5742    5.0774   14.2431 H   0  0  0  0  0  0  0  0  0  0  0  0
   46.8016    3.6836   11.4143 H   0  0  0  0  0  0  0  0  0  0  0  0
   46.2260    3.2896   13.0193 H   0  0  0  0  0  0  0  0  0  0  0  0
   46.0956    5.8120   10.2231 H   0  0  0  0  0  0  0  0  0  0  0  0
   45.0249    6.9723   11.0171 H   0  0  0  0  0  0  0  0  0  0  0  0
   50.5689   12.8909    9.6394 H   0  0  0  0  0  0  0  0  0  0  0  0
   51.2468    7.9384   12.0394 H   0  0  0  0  0  0  0  0  0  0  0  0
   42.3308    4.8434   13.3188 H   0  0  0  0  0  0  0  0  0  0  0  0
   44.9420    2.0170   11.3839 H   0  0  0  0  0  0  0  0  0  0  0  0
   43.7941    5.6273    9.3550 H   0  0  0  0  0  0  0  0  0  0  0  0
   54.3202   10.7763    9.7738 H   0  0  0  0  0  0  0  0  0  0  0  0
   50.0003    7.8494   14.5024 H   0  0  0  0  0  0  0  0  0  0  0  0
   47.5012   10.0521   11.9203 H   0  0  0  0  0  0  0  0  0  0  0  0
   53.2553    8.9422   11.0061 H   0  0  0  0  0  0  0  0  0  0  0  0
   48.5582   11.8820   10.6851 H   0  0  0  0  0  0  0  0  0  0  0  0
   48.9538    6.0387   15.7159 H   0  0  0  0  0  0  0  0  0  0  0  0
   42.6561    2.7082   12.0829 H   0  0  0  0  0  0  0  0  0  0  0  0
   43.7681    2.8024   13.4462 H   0  0  0  0  0  0  0  0  0  0  0  0
   41.9612    4.8435   10.8571 H   0  0  0  0  0  0  0  0  0  0  0  0
   42.5867    6.4022   11.3893 H   0  0  0  0  0  0  0  0  0  0  0  0
   45.1990    3.5745    9.4535 H   0  0  0  0  0  0  0  0  0  0  0  0
   43.5031    3.1744    9.7146 H   0  0  0  0  0  0  0  0  0  0  0  0
   54.6733   13.7292    8.1422 H   0  0  0  0  0  0  0  0  0  0  0  0
   48.3065    3.8387   16.0768 H   0  0  0  0  0  0  0  0  0  0  0  0
   47.2071    5.0322   16.8758 H   0  0  0  0  0  0  0  0  0  0  0  0
   46.6520    3.3955   16.5094 H   0  0  0  0  0  0  0  0  0  0  0  0
  1  2  1  1
  3  2  2  0
  4  6  1  0
  5  3  1  0
  6 11  2  0
  7  5  1  0
  8  1  1  0
  9  1  1  0
 10  1  1  0
 11 13  1  0
 12  7  1  0
 13 24  2  0
 14 12  2  0
 15  8  1  0
 16  9  1  0
 17 10  1  0
 18  2  1  0
 19  4  2  0
 20 23  2  0
 21 25  1  0
 22  7  2  0
 23 14  1  0
 24 22  1  0
 25 18  2  0
 26 16  1  0
 27 17  1  0
 28 17  1  0
 29  4  1  0
 30 18  1  0
 31 30  1  0
 28 16  1  0
 27 15  1  0
 26 15  1  0
 21  5  2  0
 13 14  1  0
  6 20  1  0
  3 32  1  0
  8 33  1  0
  8 34  1  0
  9 35  1  0
  9 36  1  0
 10 37  1  0
 10 38  1  0
 11 39  1  0
 12 40  1  0
 15 41  1  1
 16 42  1  6
 17 43  1  6
 20 44  1  0
 21 45  1  0
 22 46  1  0
 23 47  1  0
 24 48  1  0
 25 49  1  0
 26 50  1  0
 26 51  1  0
 27 52  1  0
 27 53  1  0
 28 54  1  0
 28 55  1  0
 29 56  1  0
 31 57  1  0
 31 58  1  0
 31 59  1  0
M  END
> <Uni-Dock RESULT> 
ENERGY=   -5.798  LOWER_BOUND=    0.000  UPPER_BOUND=    0.000
INTER + INTRA:          -5.798
INTER:                  -5.798
INTRA:                   0.000
UNBOUND:                 0.000

$$$$

     RDKit          3D

 59 64  0  0  0  0  0  0  0  0999 V2000
   49.0457   10.7000   18.3375 C   0  0  2  0  0  0  0  0  0  0  0  0
   49.5202    9.5406   17.4217 C   0  0  0  0  0  0  0  0  0  0  0  0
   48.6535    8.9958   16.4438 C   0  0  0  0  0  0  0  0  0  0  0  0
   44.1111    4.0260   10.6632 C   0  0  0  0  0  0  0  0  0  0  0  0
   49.0266    7.9444   15.5861 C   0  0  0  0  0  0  0  0  0  0  0  0
   45.0602    4.5136   11.6925 C   0  0  0  0  0  0  0  0  0  0  0  0
   48.0887    7.4147   14.5834 C   0  0  0  0  0  0  0  0  0  0  0  0
   49.9362   11.9645   18.1373 C   0  0  0  0  0  0  0  0  0  0  0  0
   49.0825   10.2738   19.8371 C   0  0  0  0  0  0  0  0  0  0  0  0
   47.5727   11.1588   18.0539 C   0  0  0  0  0  0  0  0  0  0  0  0
   45.3889    5.8752   11.6987 C   0  0  0  0  0  0  0  0  0  0  0  0
   47.7487    6.0512   14.5606 C   0  0  0  0  0  0  0  0  0  0  0  0
   46.2822    6.3937   12.6504 C   0  0  0  0  0  0  0  0  0  0  0  0
   46.8543    5.5288   13.6096 C   0  0  0  0  0  0  0  0  0  0  0  0
   49.5093   13.1070   19.0764 C   0  0  2  0  0  0  0  0  0  0  0  0
   48.6633   11.4316   20.7608 C   0  0  1  0  0  0  0  0  0  0  0  0
   47.1341   12.3087   18.9771 C   0  0  2  0  0  0  0  0  0  0  0  0
   50.8181    8.9784   17.5156 C   0  0  0  0  0  0  0  0  0  0  0  0
   43.5781    4.7052    9.8053 O   0  0  0  0  0  0  0  0  0  0  0  0
   45.6264    3.6601   12.6434 C   0  0  0  0  0  0  0  0  0  0  0  0
   50.3126    7.4200   15.7147 C   0  0  0  0  0  0  0  0  0  0  0  0
   47.5088    8.2558   13.6237 C   0  0  0  0  0  0  0  0  0  0  0  0
   46.5167    4.1660   13.5943 C   0  0  0  0  0  0  0  0  0  0  0  0
   46.6187    7.7541   12.6697 C   0  0  0  0  0  0  0  0  0  0  0  0
   51.1969    7.9297   16.6656 C   0  0  0  0  0  0  0  0  0  0  0  0
   49.6020   12.6281   20.5345 C   0  0  0  0  0  0  0  0  0  0  0  0
   48.0630   13.5102   18.7633 C   0  0  0  0  0  0  0  0  0  0  0  0
   47.2226   11.8459   20.4367 C   0  0  0  0  0  0  0  0  0  0  0  0
   43.8723    2.7058   10.7552 O   0  0  0  0  0  0  0  0  0  0  0  0
   51.6588    9.5051   18.4610 O   0  0  0  0  0  0  0  0  0  0  0  0
   52.9717    8.9742   18.5745 C   0  0  0  0  0  0  0  0  0  0  0  0
   47.6415    9.3763   16.3309 H   0  0  0  0  0  0  0  0  0  0  0  0
   49.8773   12.3010   17.0934 H   0  0  0  0  0  0  0  0  0  0  0  0
   50.9936   11.7551   18.3256 H   0  0  0  0  0  0  0  0  0  0  0  0
   48.4191    9.4130   19.9969 H   0  0  0  0  0  0  0  0  0  0  0  0
   50.0797    9.9451   20.1453 H   0  0  0  0  0  0  0  0  0  0  0  0
   46.8783   10.3194   18.1936 H   0  0  0  0  0  0  0  0  0  0  0  0
   47.4711   11.4928   17.0126 H   0  0  0  0  0  0  0  0  0  0  0  0
   44.9433    6.5346   10.9552 H   0  0  0  0  0  0  0  0  0  0  0  0
   48.1818    5.3872   15.3075 H   0  0  0  0  0  0  0  0  0  0  0  0
   50.1703   13.9686   18.9291 H   0  0  0  0  0  0  0  0  0  0  0  0
   48.7253   11.1073   21.8058 H   0  0  0  0  0  0  0  0  0  0  0  0
   46.1024   12.5953   18.7439 H   0  0  0  0  0  0  0  0  0  0  0  0
   45.3831    2.6005   12.6553 H   0  0  0  0  0  0  0  0  0  0  0  0
   50.6443    6.6138   15.0638 H   0  0  0  0  0  0  0  0  0  0  0  0
   47.7570    9.3156   13.6051 H   0  0  0  0  0  0  0  0  0  0  0  0
   46.9459    3.4847   14.3264 H   0  0  0  0  0  0  0  0  0  0  0  0
   46.1923    8.4388   11.9394 H   0  0  0  0  0  0  0  0  0  0  0  0
   52.1840    7.4821   16.7137 H   0  0  0  0  0  0  0  0  0  0  0  0
   49.3327   13.4465   21.2134 H   0  0  0  0  0  0  0  0  0  0  0  0
   50.6350   12.3450   20.7718 H   0  0  0  0  0  0  0  0  0  0  0  0
   47.7563   14.3425   19.4086 H   0  0  0  0  0  0  0  0  0  0  0  0
   47.9871   13.8654   17.7284 H   0  0  0  0  0  0  0  0  0  0  0  0
   46.5415   11.0029   20.6065 H   0  0  0  0  0  0  0  0  0  0  0  0
   46.9032   12.6530   21.1074 H   0  0  0  0  0  0  0  0  0  0  0  0
   43.2402    2.5312   10.0267 H   0  0  0  0  0  0  0  0  0  0  0  0
   52.9474    7.9182   18.8622 H   0  0  0  0  0  0  0  0  0  0  0  0
   53.5398    9.1233   17.6504 H   0  0  0  0  0  0  0  0  0  0  0  0
   53.4848    9.5225   19.3706 H   0  0  0  0  0  0  0  0  0  0  0  0
  1  2  1  1
  3  2  2  0
  4  6  1  0
  5  3  1  0
  6 11  2  0
  7  5  1  0
  8  1  1  0
  9  1  1  0
 10  1  1  0
 11 13  1  0
 12  7  1  0
 13 24  2  0
 14 12  2  0
 15  8  1  0
 16  9  1  0
 17 10  1  0
 18  2  1  0
 19  4  2  0
 20 23  2  0
 21 25  1  0
 22  7  2  0
 23 14  1  0
 24 22  1  0
 25 18  2  0
 26 16  1  0
 27 17  1  0
 28 17  1  0
 29  4  1  0
 30 18  1  0
 31 30  1  0
 28 16  1  0
 27 15  1  0
 26 15  1  0
 21  5  2  0
 13 14  1  0
  6 20  1  0
  3 32  1  0
  8 33  1  0
  8 34  1  0
  9 35  1  0
  9 36  1  0
 10 37  1  0
 10 38  1  0
 11 39  1  0
 12 40  1  0
 15 41  1  1
 16 42  1  6
 17 43  1  6
 20 44  1  0
 21 45  1  0
 22 46  1  0
 23 47  1  0
 24 48  1  0
 25 49  1  0
 26 50  1  0
 26 51  1  0
 27 52  1  0
 27 53  1  0
 28 54  1  0
 28 55  1  0
 29 56  1  0
 31 57  1  0
 31 58  1  0
 31 59  1  0
M  END
> <Uni-Dock RESULT> 
ENERGY=   -5.185  LOWER_BOUND=    4.914  UPPER_BOUND=    9.294
INTER + INTRA:          -5.185
INTER:                  -5.185
INTRA:                   0.000
UNBOUND:                 0.000

$$$$

     RDKit          3D

 59 64  0  0  0  0  0  0  0  0999 V2000
   49.4642   11.4828   17.2844 C   0  0  2  0  0  0  0  0  0  0  0  0
   49.7932   10.4053   16.2171 C   0  0  0  0  0  0  0  0  0  0  0  0
   48.7585    9.6478   15.6173 C   0  0  0  0  0  0  0  0  0  0  0  0
   43.5333    3.5804   11.7921 C   0  0  0  0  0  0  0  0  0  0  0  0
   48.9950    8.6576   14.6458 C   0  0  0  0  0  0  0  0  0  0  0  0
   44.6737    4.3016   12.4066 C   0  0  0  0  0  0  0  0  0  0  0  0
   47.8835    7.8989   14.0503 C   0  0  0  0  0  0  0  0  0  0  0  0
   49.9291   12.8936   16.8094 C   0  0  0  0  0  0  0  0  0  0  0  0
   50.1475   11.1440   18.6445 C   0  0  0  0  0  0  0  0  0  0  0  0
   47.9312   11.6127   17.5906 C   0  0  0  0  0  0  0  0  0  0  0  0
   44.6878    5.7005   12.3370 C   0  0  0  0  0  0  0  0  0  0  0  0
   47.8533    6.4950   14.1086 C   0  0  0  0  0  0  0  0  0  0  0  0
   45.7422    6.4367   12.9017 C   0  0  0  0  0  0  0  0  0  0  0  0
   46.7989    5.7548   13.5450 C   0  0  0  0  0  0  0  0  0  0  0  0
   49.6554   13.9654   17.8798 C   0  0  2  0  0  0  0  0  0  0  0  0
   49.8717   12.2317   19.6983 C   0  0  1  0  0  0  0  0  0  0  0  0
   47.6394   12.6887   18.6509 C   0  0  2  0  0  0  0  0  0  0  0  0
   51.1186   10.1293   15.7973 C   0  0  0  0  0  0  0  0  0  0  0  0
   42.5887    4.0937   11.2215 O   0  0  0  0  0  0  0  0  0  0  0  0
   45.7195    3.6292   13.0448 C   0  0  0  0  0  0  0  0  0  0  0  0
   50.3147    8.4176   14.2638 C   0  0  0  0  0  0  0  0  0  0  0  0
   46.8246    8.5558   13.4086 C   0  0  0  0  0  0  0  0  0  0  0  0
   46.7736    4.3524   13.6094 C   0  0  0  0  0  0  0  0  0  0  0  0
   45.7686    7.8367   12.8412 C   0  0  0  0  0  0  0  0  0  0  0  0
   51.3626    9.1432   14.8308 C   0  0  0  0  0  0  0  0  0  0  0  0
   50.3847   13.5847   19.1786 C   0  0  0  0  0  0  0  0  0  0  0  0
   48.1472   14.0452   18.1467 C   0  0  0  0  0  0  0  0  0  0  0  0
   48.3621   12.3229   19.9533 C   0  0  0  0  0  0  0  0  0  0  0  0
   43.6284    2.2452   11.9204 O   0  0  0  0  0  0  0  0  0  0  0  0
   52.1214   10.8622   16.3761 O   0  0  0  0  0  0  0  0  0  0  0  0
   53.4613   10.6207   15.9698 C   0  0  0  0  0  0  0  0  0  0  0  0
   47.7223    9.8047   15.9060 H   0  0  0  0  0  0  0  0  0  0  0  0
   49.4150   13.1614   15.8764 H   0  0  0  0  0  0  0  0  0  0  0  0
   50.9987   12.9167   16.5797 H   0  0  0  0  0  0  0  0  0  0  0  0
   49.7882   10.1729   19.0111 H   0  0  0  0  0  0  0  0  0  0  0  0
   51.2325   11.0437   18.5442 H   0  0  0  0  0  0  0  0  0  0  0  0
   47.5318   10.6551   17.9509 H   0  0  0  0  0  0  0  0  0  0  0  0
   47.3800   11.8695   16.6760 H   0  0  0  0  0  0  0  0  0  0  0  0
   43.8691    6.2179   11.8388 H   0  0  0  0  0  0  0  0  0  0  0  0
   48.6630    5.9707   14.6145 H   0  0  0  0  0  0  0  0  0  0  0  0
   50.0170   14.9374   17.5257 H   0  0  0  0  0  0  0  0  0  0  0  0
   50.3865   11.9764   20.6315 H   0  0  0  0  0  0  0  0  0  0  0  0
   46.5601   12.7441   18.8321 H   0  0  0  0  0  0  0  0  0  0  0  0
   45.7261    2.5439   13.1097 H   0  0  0  0  0  0  0  0  0  0  0  0
   50.5398    7.6681   13.5081 H   0  0  0  0  0  0  0  0  0  0  0  0
   46.8199    9.6420   13.3356 H   0  0  0  0  0  0  0  0  0  0  0  0
   47.5778    3.8098   14.1024 H   0  0  0  0  0  0  0  0  0  0  0  0
   44.9669    8.3833   12.3489 H   0  0  0  0  0  0  0  0  0  0  0  0
   52.3661    8.9125   14.4892 H   0  0  0  0  0  0  0  0  0  0  0  0
   50.2239   14.3604   19.9374 H   0  0  0  0  0  0  0  0  0  0  0  0
   51.4660   13.5332   19.0008 H   0  0  0  0  0  0  0  0  0  0  0  0
   47.9371   14.8252   18.8888 H   0  0  0  0  0  0  0  0  0  0  0  0
   47.6171   14.3283   17.2290 H   0  0  0  0  0  0  0  0  0  0  0  0
   47.9868   11.3660   20.3364 H   0  0  0  0  0  0  0  0  0  0  0  0
   48.1554   13.0768   20.7229 H   0  0  0  0  0  0  0  0  0  0  0  0
   42.8214    1.9096   11.4766 H   0  0  0  0  0  0  0  0  0  0  0  0
   53.7681    9.5972   16.2082 H   0  0  0  0  0  0  0  0  0  0  0  0
   53.5977   10.8410   14.9060 H   0  0  0  0  0  0  0  0  0  0  0  0
   54.1077   11.2999   16.5340 H   0  0  0  0  0  0  0  0  0  0  0  0
  1  2  1  1
  3  2  2  0
  4  6  1  0
  5  3  1  0
  6 11  2  0
  7  5  1  0
  8  1  1  0
  9  1  1  0
 10  1  1  0
 11 13  1  0
 12  7  1  0
 13 24  2  0
 14 12  2  0
 15  8  1  0
 16  9  1  0
 17 10  1  0
 18  2  1  0
 19  4  2  0
 20 23  2  0
 21 25  1  0
 22  7  2  0
 23 14  1  0
 24 22  1  0
 25 18  2  0
 26 16  1  0
 27 17  1  0
 28 17  1  0
 29  4  1  0
 30 18  1  0
 31 30  1  0
 28 16  1  0
 27 15  1  0
 26 15  1  0
 21  5  2  0
 13 14  1  0
  6 20  1  0
  3 32  1  0
  8 33  1  0
  8 34  1  0
  9 35  1  0
  9 36  1  0
 10 37  1  0
 10 38  1  0
 11 39  1  0
 12 40  1  0
 15 41  1  1
 16 42  1  6
 17 43  1  6
 20 44  1  0
 21 45  1  0
 22 46  1  0
 23 47  1  0
 24 48  1  0
 25 49  1  0
 26 50  1  0
 26 51  1  0
 27 52  1  0
 27 53  1  0
 28 54  1  0
 28 55  1  0
 29 56  1  0
 31 57  1  0
 31 58  1  0
 31 59  1  0
M  END
> <Uni-Dock RESULT> 
ENERGY=   -5.074  LOWER_BOUND=    4.772  UPPER_BOUND=    9.573
INTER + INTRA:          -5.074
INTER:                  -5.074
INTRA:                   0.000
UNBOUND:                 0.000

$$$$

     RDKit          3D

 59 64  0  0  0  0  0  0  0  0999 V2000
   47.5751    8.5449   12.9330 C   0  0  2  0  0  0  0  0  0  0  0  0
   46.1757    8.1618   12.3826 C   0  0  0  0  0  0  0  0  0  0  0  0
   45.3652    9.1299   11.7422 C   0  0  0  0  0  0  0  0  0  0  0  0
   38.9041   14.2400    8.4423 C   0  0  0  0  0  0  0  0  0  0  0  0
   44.0885    8.8426   11.2246 C   0  0  0  0  0  0  0  0  0  0  0  0
   39.6753   13.1827    9.1391 C   0  0  0  0  0  0  0  0  0  0  0  0
   43.2858    9.8847   10.5648 C   0  0  0  0  0  0  0  0  0  0  0  0
   48.6928    7.7117   12.2340 C   0  0  0  0  0  0  0  0  0  0  0  0
   47.6473    8.3166   14.4740 C   0  0  0  0  0  0  0  0  0  0  0  0
   47.9484   10.0506   12.7005 C   0  0  0  0  0  0  0  0  0  0  0  0
   40.9615   12.8839    8.6719 C   0  0  0  0  0  0  0  0  0  0  0  0
   41.9926   10.1967   11.0184 C   0  0  0  0  0  0  0  0  0  0  0  0
   41.7383   11.8921    9.2927 C   0  0  0  0  0  0  0  0  0  0  0  0
   41.2124   11.1895   10.3996 C   0  0  0  0  0  0  0  0  0  0  0  0
   50.0827    8.0444   12.8059 C   0  0  2  0  0  0  0  0  0  0  0  0
   49.0467    8.6439   15.0256 C   0  0  1  0  0  0  0  0  0  0  0  0
   49.3405   10.3970   13.2565 C   0  0  2  0  0  0  0  0  0  0  0  0
   45.6476    6.8509   12.4911 C   0  0  0  0  0  0  0  0  0  0  0  0
   39.2855   14.8876    7.4850 O   0  0  0  0  0  0  0  0  0  0  0  0
   39.1576   12.4873   10.2353 C   0  0  0  0  0  0  0  0  0  0  0  0
   43.6074    7.5400   11.3550 C   0  0  0  0  0  0  0  0  0  0  0  0
   43.7891   10.5945    9.4660 C   0  0  0  0  0  0  0  0  0  0  0  0
   39.9223   11.4983   10.8598 C   0  0  0  0  0  0  0  0  0  0  0  0
   43.0275   11.5839    8.8372 C   0  0  0  0  0  0  0  0  0  0  0  0
   44.3758    6.5570   11.9790 C   0  0  0  0  0  0  0  0  0  0  0  0
   50.0906    7.7646   14.3177 C   0  0  0  0  0  0  0  0  0  0  0  0
   50.3934    9.5260   12.5600 C   0  0  0  0  0  0  0  0  0  0  0  0
   49.3643   10.1216   14.7652 C   0  0  0  0  0  0  0  0  0  0  0  0
   37.6866   14.4385    8.9778 O   0  0  0  0  0  0  0  0  0  0  0  0
   46.4311    5.9122   13.1097 O   0  0  0  0  0  0  0  0  0  0  0  0
   45.9385    4.5845   13.2248 C   0  0  0  0  0  0  0  0  0  0  0  0
   45.7095   10.1557   11.6389 H   0  0  0  0  0  0  0  0  0  0  0  0
   48.6809    7.9044   11.1527 H   0  0  0  0  0  0  0  0  0  0  0  0
   48.5337    6.6352   12.3484 H   0  0  0  0  0  0  0  0  0  0  0  0
   46.8951    8.9377   14.9789 H   0  0  0  0  0  0  0  0  0  0  0  0
   47.4144    7.2827   14.7464 H   0  0  0  0  0  0  0  0  0  0  0  0
   47.2106   10.7054   13.1836 H   0  0  0  0  0  0  0  0  0  0  0  0
   47.9358   10.2854   11.6277 H   0  0  0  0  0  0  0  0  0  0  0  0
   41.3588   13.4303    7.8177 H   0  0  0  0  0  0  0  0  0  0  0  0
   41.5924    9.6622   11.8788 H   0  0  0  0  0  0  0  0  0  0  0  0
   50.8397    7.4242   12.3127 H   0  0  0  0  0  0  0  0  0  0  0  0
   49.0704    8.4482   16.1036 H   0  0  0  0  0  0  0  0  0  0  0  0
   49.5580   11.4551   13.0722 H   0  0  0  0  0  0  0  0  0  0  0  0
   38.1617   12.7054   10.6131 H   0  0  0  0  0  0  0  0  0  0  0  0
   42.6299    7.2736   10.9589 H   0  0  0  0  0  0  0  0  0  0  0  0
   44.7830   10.3724    9.0812 H   0  0  0  0  0  0  0  0  0  0  0  0
   39.5010   10.9691   11.7122 H   0  0  0  0  0  0  0  0  0  0  0  0
   43.4525   12.1102    7.9850 H   0  0  0  0  0  0  0  0  0  0  0  0
   43.9477    5.5624   12.0460 H   0  0  0  0  0  0  0  0  0  0  0  0
   51.0875    7.9659   14.7287 H   0  0  0  0  0  0  0  0  0  0  0  0
   49.8778    6.7048   14.5046 H   0  0  0  0  0  0  0  0  0  0  0  0
   51.3935    9.7688   12.9396 H   0  0  0  0  0  0  0  0  0  0  0  0
   50.4025    9.7349   11.4833 H   0  0  0  0  0  0  0  0  0  0  0  0
   48.6324   10.7594   15.2760 H   0  0  0  0  0  0  0  0  0  0  0  0
   50.3488   10.3734   15.1782 H   0  0  0  0  0  0  0  0  0  0  0  0
   37.3017   15.1510    8.4255 H   0  0  0  0  0  0  0  0  0  0  0  0
   45.0295    4.5517   13.8341 H   0  0  0  0  0  0  0  0  0  0  0  0
   45.7750    4.1366   12.2392 H   0  0  0  0  0  0  0  0  0  0  0  0
   46.7014    3.9896   13.7363 H   0  0  0  0  0  0  0  0  0  0  0  0
  1  2  1  1
  3  2  2  0
  4  6  1  0
  5  3  1  0
  6 11  2  0
  7  5  1  0
  8  1  1  0
  9  1  1  0
 10  1  1  0
 11 13  1  0
 12  7  1  0
 13 24  2  0
 14 12  2  0
 15  8  1  0
 16  9  1  0
 17 10  1  0
 18  2  1  0
 19  4  2  0
 20 23  2  0
 21 25  1  0
 22  7  2  0
 23 14  1  0
 24 22  1  0
 25 18  2  0
 26 16  1  0
 27 17  1  0
 28 17  1  0
 29  4  1  0
 30 18  1  0
 31 30  1  0
 28 16  1  0
 27 15  1  0
 26 15  1  0
 21  5  2  0
 13 14  1  0
  6 20  1  0
  3 32  1  0
  8 33  1  0
  8 34  1  0
  9 35  1  0
  9 36  1  0
 10 37  1  0
 10 38  1  0
 11 39  1  0
 12 40  1  0
 15 41  1  1
 16 42  1  6
 17 43  1  6
 20 44  1  0
 21 45  1  0
 22 46  1  0
 23 47  1  0
 24 48  1  0
 25 49  1  0
 26 50  1  0
 26 51  1  0
 27 52  1  0
 27 53  1  0
 28 54  1  0
 28 55  1  0
 29 56  1  0
 31 57  1  0
 31 58  1  0
 31 59  1  0
M  END
> <Uni-Dock RESULT> 
ENERGY=   -4.915  LOWER_BOUND=    5.711  UPPER_BOUND=    8.630
INTER + INTRA:          -4.915
INTER:                  -4.915
INTRA:                   0.000
UNBOUND:                 0.000

$$$$

     RDKit          3D

 59 64  0  0  0  0  0  0  0  0999 V2000
   45.2149    6.0351   12.2040 C   0  0  2  0  0  0  0  0  0  0  0  0
   45.9229    7.3757   12.5351 C   0  0  0  0  0  0  0  0  0  0  0  0
   47.0773    7.3961   13.3542 C   0  0  0  0  0  0  0  0  0  0  0  0
   53.6773    9.1505   19.0210 C   0  0  0  0  0  0  0  0  0  0  0  0
   47.7609    8.5796   13.6897 C   0  0  0  0  0  0  0  0  0  0  0  0
   52.4488    9.2147   18.1933 C   0  0  0  0  0  0  0  0  0  0  0  0
   48.9591    8.5470   14.5435 C   0  0  0  0  0  0  0  0  0  0  0  0
   45.2148    5.7732   10.6666 C   0  0  0  0  0  0  0  0  0  0  0  0
   43.7462    6.0384   12.7281 C   0  0  0  0  0  0  0  0  0  0  0  0
   45.9042    4.7857   12.8557 C   0  0  0  0  0  0  0  0  0  0  0  0
   52.4060    8.4637   17.0117 C   0  0  0  0  0  0  0  0  0  0  0  0
   49.0209    9.2955   15.7314 C   0  0  0  0  0  0  0  0  0  0  0  0
   51.2686    8.4854   16.1882 C   0  0  0  0  0  0  0  0  0  0  0  0
   50.1579    9.2756   16.5586 C   0  0  0  0  0  0  0  0  0  0  0  0
   44.4709    4.4714   10.3183 C   0  0  2  0  0  0  0  0  0  0  0  0
   43.0156    4.7341   12.3611 C   0  0  1  0  0  0  0  0  0  0  0  0
   45.1791    3.4742   12.5076 C   0  0  2  0  0  0  0  0  0  0  0  0
   45.4595    8.6227   12.0456 C   0  0  0  0  0  0  0  0  0  0  0  0
   54.6728    8.4966   18.7706 O   0  0  0  0  0  0  0  0  0  0  0  0
   51.3482    9.9947   18.5585 C   0  0  0  0  0  0  0  0  0  0  0  0
   47.2689    9.7842   13.1877 C   0  0  0  0  0  0  0  0  0  0  0  0
   50.0715    7.7687   14.1950 C   0  0  0  0  0  0  0  0  0  0  0  0
   50.2118   10.0235   17.7457 C   0  0  0  0  0  0  0  0  0  0  0  0
   51.2110    7.7376   15.0042 C   0  0  0  0  0  0  0  0  0  0  0  0
   46.1343    9.8064   12.3764 C   0  0  0  0  0  0  0  0  0  0  0  0
   43.0249    4.5586   10.8337 C   0  0  0  0  0  0  0  0  0  0  0  0
   45.1792    3.2859   10.9855 C   0  0  0  0  0  0  0  0  0  0  0  0
   43.7334    3.5468   13.0148 C   0  0  0  0  0  0  0  0  0  0  0  0
   53.6028    9.9109   20.1276 O   0  0  0  0  0  0  0  0  0  0  0  0
   44.3427    8.6047   11.2517 O   0  0  0  0  0  0  0  0  0  0  0  0
   43.8576    9.8354   10.7331 C   0  0  0  0  0  0  0  0  0  0  0  0
   47.4745    6.4736   13.7699 H   0  0  0  0  0  0  0  0  0  0  0  0
   46.2477    5.7204   10.2970 H   0  0  0  0  0  0  0  0  0  0  0  0
   44.7393    6.5880   10.1122 H   0  0  0  0  0  0  0  0  0  0  0  0
   43.7392    6.1733   13.8182 H   0  0  0  0  0  0  0  0  0  0  0  0
   43.1671    6.8719   12.3191 H   0  0  0  0  0  0  0  0  0  0  0  0
   45.9258    4.8891   13.9489 H   0  0  0  0  0  0  0  0  0  0  0  0
   46.9462    4.7055   12.5178 H   0  0  0  0  0  0  0  0  0  0  0  0
   53.2671    7.8575   16.7338 H   0  0  0  0  0  0  0  0  0  0  0  0
   48.1597    9.8958   16.0218 H   0  0  0  0  0  0  0  0  0  0  0  0
   44.4666    4.3315    9.2314 H   0  0  0  0  0  0  0  0  0  0  0  0
   41.9813    4.7802   12.7203 H   0  0  0  0  0  0  0  0  0  0  0  0
   45.6938    2.6314   12.9826 H   0  0  0  0  0  0  0  0  0  0  0  0
   51.3620   10.5839   19.4722 H   0  0  0  0  0  0  0  0  0  0  0  0
   47.7742   10.7206   13.4143 H   0  0  0  0  0  0  0  0  0  0  0  0
   50.0628    7.1840   13.2767 H   0  0  0  0  0  0  0  0  0  0  0  0
   49.3653   10.6368   18.0485 H   0  0  0  0  0  0  0  0  0  0  0  0
   52.0552    7.1234   14.6974 H   0  0  0  0  0  0  0  0  0  0  0  0
   45.8035   10.7741   12.0143 H   0  0  0  0  0  0  0  0  0  0  0  0
   42.4762    3.6491   10.5598 H   0  0  0  0  0  0  0  0  0  0  0  0
   42.5061    5.3988   10.3560 H   0  0  0  0  0  0  0  0  0  0  0  0
   44.6735    2.3488   10.7222 H   0  0  0  0  0  0  0  0  0  0  0  0
   46.2089    3.2063   10.6159 H   0  0  0  0  0  0  0  0  0  0  0  0
   43.7223    3.6551   14.1064 H   0  0  0  0  0  0  0  0  0  0  0  0
   43.2057    2.6137   12.7823 H   0  0  0  0  0  0  0  0  0  0  0  0
   54.4681    9.7705   20.5663 H   0  0  0  0  0  0  0  0  0  0  0  0
   43.5469   10.5086   11.5386 H   0  0  0  0  0  0  0  0  0  0  0  0
   44.5982   10.3088   10.0803 H   0  0  0  0  0  0  0  0  0  0  0  0
   42.9739    9.6155   10.1261 H   0  0  0  0  0  0  0  0  0  0  0  0
  1  2  1  1
  3  2  2  0
  4  6  1  0
  5  3  1  0
  6 11  2  0
  7  5  1  0
  8  1  1  0
  9  1  1  0
 10  1  1  0
 11 13  1  0
 12  7  1  0
 13 24  2  0
 14 12  2  0
 15  8  1  0
 16  9  1  0
 17 10  1  0
 18  2  1  0
 19  4  2  0
 20 23  2  0
 21 25  1  0
 22  7  2  0
 23 14  1  0
 24 22  1  0
 25 18  2  0
 26 16  1  0
 27 17  1  0
 28 17  1  0
 29  4  1  0
 30 18  1  0
 31 30  1  0
 28 16  1  0
 27 15  1  0
 26 15  1  0
 21  5  2  0
 13 14  1  0
  6 20  1  0
  3 32  1  0
  8 33  1  0
  8 34  1  0
  9 35  1  0
  9 36  1  0
 10 37  1  0
 10 38  1  0
 11 39  1  0
 12 40  1  0
 15 41  1  1
 16 42  1  6
 17 43  1  6
 20 44  1  0
 21 45  1  0
 22 46  1  0
 23 47  1  0
 24 48  1  0
 25 49  1  0
 26 50  1  0
 26 51  1  0
 27 52  1  0
 27 53  1  0
 28 54  1  0
 28 55  1  0
 29 56  1  0
 31 57  1  0
 31 58  1  0
 31 59  1  0
M  END
> <Uni-Dock RESULT> 
ENERGY=   -4.716  LOWER_BOUND=    4.234  UPPER_BOUND=    5.831
INTER + INTRA:          -4.716
INTER:                  -4.716
INTRA:                   0.000
UNBOUND:                 0.000

$$$$

     RDKit          3D

 59 64  0  0  0  0  0  0  0  0999 V2000
   50.0443   13.1160   15.2777 C   0  0  2  0  0  0  0  0  0  0  0  0
   50.1995   11.8497   14.3942 C   0  0  0  0  0  0  0  0  0  0  0  0
   49.0838   11.0224   14.1210 C   0  0  0  0  0  0  0  0  0  0  0  0
   43.3272    4.4937   12.3924 C   0  0  0  0  0  0  0  0  0  0  0  0
   49.1629    9.8621   13.3285 C   0  0  0  0  0  0  0  0  0  0  0  0
   44.5498    5.2853   12.6698 C   0  0  0  0  0  0  0  0  0  0  0  0
   47.9721    9.0365   13.0719 C   0  0  0  0  0  0  0  0  0  0  0  0
   50.4217   14.4001   14.4773 C   0  0  0  0  0  0  0  0  0  0  0  0
   50.9400   13.0182   16.5505 C   0  0  0  0  0  0  0  0  0  0  0  0
   48.5808   13.3428   15.7947 C   0  0  0  0  0  0  0  0  0  0  0  0
   44.5481    6.6458   12.3364 C   0  0  0  0  0  0  0  0  0  0  0  0
   47.9562    7.6695   13.3979 C   0  0  0  0  0  0  0  0  0  0  0  0
   45.6776    7.4451   12.5764 C   0  0  0  0  0  0  0  0  0  0  0  0
   46.8267    6.8664   13.1596 C   0  0  0  0  0  0  0  0  0  0  0  0
   50.3216   15.6599   15.3561 C   0  0  2  0  0  0  0  0  0  0  0  0
   50.8351   14.2905   17.4106 C   0  0  1  0  0  0  0  0  0  0  0  0
   48.4611   14.6052   16.6659 C   0  0  2  0  0  0  0  0  0  0  0  0
   51.4403   11.4639   13.8278 C   0  0  0  0  0  0  0  0  0  0  0  0
   42.3011    4.9173   11.8935 O   0  0  0  0  0  0  0  0  0  0  0  0
   45.6873    4.7153   13.2479 C   0  0  0  0  0  0  0  0  0  0  0  0
   50.4041    9.5189   12.7929 C   0  0  0  0  0  0  0  0  0  0  0  0
   46.8211    9.5911   12.4954 C   0  0  0  0  0  0  0  0  0  0  0  0
   46.8166    5.5019   13.4904 C   0  0  0  0  0  0  0  0  0  0  0  0
   45.6894    8.8080   12.2497 C   0  0  0  0  0  0  0  0  0  0  0  0
   51.5277   10.3085   13.0382 C   0  0  0  0  0  0  0  0  0  0  0  0
   51.2529   15.5083   16.5701 C   0  0  0  0  0  0  0  0  0  0  0  0
   48.8762   15.8295   15.8405 C   0  0  0  0  0  0  0  0  0  0  0  0
   49.3864   14.4692   17.8815 C   0  0  0  0  0  0  0  0  0  0  0  0
   43.4461    3.2038   12.7532 O   0  0  0  0  0  0  0  0  0  0  0  0
   52.5213   12.2641   14.0904 O   0  0  0  0  0  0  0  0  0  0  0  0
   53.7785   11.9144   13.5283 C   0  0  0  0  0  0  0  0  0  0  0  0
   48.1075   11.2587   14.5365 H   0  0  0  0  0  0  0  0  0  0  0  0
   49.7625   14.5032   13.6048 H   0  0  0  0  0  0  0  0  0  0  0  0
   51.4399   14.3506   14.0796 H   0  0  0  0  0  0  0  0  0  0  0  0
   50.6478   12.1428   17.1462 H   0  0  0  0  0  0  0  0  0  0  0  0
   51.9948   12.8712   16.2990 H   0  0  0  0  0  0  0  0  0  0  0  0
   48.2480   12.4806   16.3882 H   0  0  0  0  0  0  0  0  0  0  0  0
   47.8879   13.4395   14.9480 H   0  0  0  0  0  0  0  0  0  0  0  0
   43.6578    7.0834   11.8868 H   0  0  0  0  0  0  0  0  0  0  0  0
   48.8387    7.2267   13.8577 H   0  0  0  0  0  0  0  0  0  0  0  0
   50.6180   16.5385   14.7720 H   0  0  0  0  0  0  0  0  0  0  0  0
   51.4950   14.1998   18.2808 H   0  0  0  0  0  0  0  0  0  0  0  0
   47.4253   14.7232   17.0034 H   0  0  0  0  0  0  0  0  0  0  0  0
   45.7077    3.6614   13.5145 H   0  0  0  0  0  0  0  0  0  0  0  0
   50.5062    8.6358   12.1659 H   0  0  0  0  0  0  0  0  0  0  0  0
   46.8012   10.6443   12.2206 H   0  0  0  0  0  0  0  0  0  0  0  0
   47.6917    5.0388   13.9421 H   0  0  0  0  0  0  0  0  0  0  0  0
   44.8169    9.2750   11.7976 H   0  0  0  0  0  0  0  0  0  0  0  0
   52.4633    9.9907   12.5905 H   0  0  0  0  0  0  0  0  0  0  0  0
   51.2146   16.4160   17.1847 H   0  0  0  0  0  0  0  0  0  0  0  0
   52.2912   15.3948   16.2349 H   0  0  0  0  0  0  0  0  0  0  0  0
   48.7867   16.7396   16.4461 H   0  0  0  0  0  0  0  0  0  0  0  0
   48.2037   15.9509   14.9826 H   0  0  0  0  0  0  0  0  0  0  0  0
   49.0811   13.6112   18.4931 H   0  0  0  0  0  0  0  0  0  0  0  0
   49.3047   15.3587   18.5182 H   0  0  0  0  0  0  0  0  0  0  0  0
   42.5789    2.8136   12.5152 H   0  0  0  0  0  0  0  0  0  0  0  0
   54.1230   10.9452   13.9033 H   0  0  0  0  0  0  0  0  0  0  0  0
   53.7401   11.9285   12.4342 H   0  0  0  0  0  0  0  0  0  0  0  0
   54.5056   12.6689   13.8438 H   0  0  0  0  0  0  0  0  0  0  0  0
  1  2  1  1
  3  2  2  0
  4  6  1  0
  5  3  1  0
  6 11  2  0
  7  5  1  0
  8  1  1  0
  9  1  1  0
 10  1  1  0
 11 13  1  0
 12  7  1  0
 13 24  2  0
 14 12  2  0
 15  8  1  0
 16  9  1  0
 17 10  1  0
 18  2  1  0
 19  4  2  0
 20 23  2  0
 21 25  1  0
 22  7  2  0
 23 14  1  0
 24 22  1  0
 25 18  2  0
 26 16  1  0
 27 17  1  0
 28 17  1  0
 29  4  1  0
 30 18  1  0
 31 30  1  0
 28 16  1  0
 27 15  1  0
 26 15  1  0
 21  5  2  0
 13 14  1  0
  6 20  1  0
  3 32  1  0
  8 33  1  0
  8 34  1  0
  9 35  1  0
  9 36  1  0
 10 37  1  0
 10 38  1  0
 11 39  1  0
 12 40  1  0
 15 41  1  1
 16 42  1  6
 17 43  1  6
 20 44  1  0
 21 45  1  0
 22 46  1  0
 23 47  1  0
 24 48  1  0
 25 49  1  0
 26 50  1  0
 26 51  1  0
 27 52  1  0
 27 53  1  0
 28 54  1  0
 28 55  1  0
 29 56  1  0
 31 57  1  0
 31 58  1  0
 31 59  1  0
M  END
> <Uni-Dock RESULT> 
ENERGY=   -4.702  LOWER_BOUND=    4.311  UPPER_BOUND=    9.819
INTER + INTRA:          -4.702
INTER:                  -4.702
INTRA:                   0.000
UNBOUND:                 0.000

$$$$

     RDKit          3D

 59 64  0  0  0  0  0  0  0  0999 V2000
   44.6033   15.5413   12.4385 C   0  0  2  0  0  0  0  0  0  0  0  0
   45.5985   14.5006   11.8598 C   0  0  0  0  0  0  0  0  0  0  0  0
   45.3886   13.1152   12.0617 C   0  0  0  0  0  0  0  0  0  0  0  0
   45.8968    4.3461   13.3235 C   0  0  0  0  0  0  0  0  0  0  0  0
   46.2559   12.1257   11.5628 C   0  0  0  0  0  0  0  0  0  0  0  0
   46.2077    5.7797   13.1080 C   0  0  0  0  0  0  0  0  0  0  0  0
   45.9917   10.6972   11.7982 C   0  0  0  0  0  0  0  0  0  0  0  0
   43.9580   16.3856   11.2971 C   0  0  0  0  0  0  0  0  0  0  0  0
   45.3186   16.4936   13.4451 C   0  0  0  0  0  0  0  0  0  0  0  0
   43.4105   14.8955   13.2264 C   0  0  0  0  0  0  0  0  0  0  0  0
   45.2440    6.5796   12.4807 C   0  0  0  0  0  0  0  0  0  0  0  0
   46.9475    9.8788   12.4242 C   0  0  0  0  0  0  0  0  0  0  0  0
   45.4832    7.9442   12.2506 C   0  0  0  0  0  0  0  0  0  0  0  0
   46.7111    8.5123   12.6568 C   0  0  0  0  0  0  0  0  0  0  0  0
   43.0064   17.4568   11.8596 C   0  0  2  0  0  0  0  0  0  0  0  0
   44.3545   17.5638   13.9882 C   0  0  1  0  0  0  0  0  0  0  0  0
   42.4431   15.9530   13.7858 C   0  0  2  0  0  0  0  0  0  0  0  0
   46.7452   14.8756   11.1156 C   0  0  0  0  0  0  0  0  0  0  0  0
   44.8662    3.7836   13.0029 O   0  0  0  0  0  0  0  0  0  0  0  0
   47.4212    6.3442   13.5102 C   0  0  0  0  0  0  0  0  0  0  0  0
   47.3731   12.5398   10.8377 C   0  0  0  0  0  0  0  0  0  0  0  0
   44.7796   10.1140   11.4042 C   0  0  0  0  0  0  0  0  0  0  0  0
   47.6692    7.7010   13.2855 C   0  0  0  0  0  0  0  0  0  0  0  0
   44.5274    8.7569   11.6258 C   0  0  0  0  0  0  0  0  0  0  0  0
   47.6148   13.8957   10.6163 C   0  0  0  0  0  0  0  0  0  0  0  0
   43.7844   18.3770   12.8145 C   0  0  0  0  0  0  0  0  0  0  0  0
   41.8666   16.7739   12.6255 C   0  0  0  0  0  0  0  0  0  0  0  0
   43.2058   16.8803   14.7402 C   0  0  0  0  0  0  0  0  0  0  0  0
   46.8941    3.6802   13.9322 O   0  0  0  0  0  0  0  0  0  0  0  0
   46.9494   16.2162   10.9182 O   0  0  0  0  0  0  0  0  0  0  0  0
   48.0823   16.6277   10.1659 C   0  0  0  0  0  0  0  0  0  0  0  0
   44.5336   12.7651   12.6344 H   0  0  0  0  0  0  0  0  0  0  0  0
   43.4102   15.7270   10.6097 H   0  0  0  0  0  0  0  0  0  0  0  0
   44.7112   16.8947   10.6881 H   0  0  0  0  0  0  0  0  0  0  0  0
   45.7342   15.9115   14.2788 H   0  0  0  0  0  0  0  0  0  0  0  0
   46.1677   17.0104   12.9876 H   0  0  0  0  0  0  0  0  0  0  0  0
   43.7880   14.2947   14.0647 H   0  0  0  0  0  0  0  0  0  0  0  0
   42.8436   14.2189   12.5729 H   0  0  0  0  0  0  0  0  0  0  0  0
   44.3003    6.1330   12.1706 H   0  0  0  0  0  0  0  0  0  0  0  0
   47.8894   10.3202   12.7470 H   0  0  0  0  0  0  0  0  0  0  0  0
   42.5917   18.0477   11.0351 H   0  0  0  0  0  0  0  0  0  0  0  0
   44.8941   18.2304   14.6704 H   0  0  0  0  0  0  0  0  0  0  0  0
   41.6286   15.4579   14.3265 H   0  0  0  0  0  0  0  0  0  0  0  0
   48.1813    5.7399   13.9993 H   0  0  0  0  0  0  0  0  0  0  0  0
   48.0627   11.8063   10.4255 H   0  0  0  0  0  0  0  0  0  0  0  0
   44.0202   10.7154   10.9074 H   0  0  0  0  0  0  0  0  0  0  0  0
   48.6202    8.1211   13.6070 H   0  0  0  0  0  0  0  0  0  0  0  0
   43.5754    8.3410   11.3023 H   0  0  0  0  0  0  0  0  0  0  0  0
   48.4983   14.1536   10.0419 H   0  0  0  0  0  0  0  0  0  0  0  0
   43.1225   19.1652   13.1941 H   0  0  0  0  0  0  0  0  0  0  0  0
   44.5975   18.8775   12.2743 H   0  0  0  0  0  0  0  0  0  0  0  0
   41.1666   17.5266   13.0084 H   0  0  0  0  0  0  0  0  0  0  0  0
   41.2965   16.1235   11.9509 H   0  0  0  0  0  0  0  0  0  0  0  0
   43.5999   16.3064   15.5880 H   0  0  0  0  0  0  0  0  0  0  0  0
   42.5262   17.6347   15.1552 H   0  0  0  0  0  0  0  0  0  0  0  0
   46.5524    2.7645   14.0068 H   0  0  0  0  0  0  0  0  0  0  0  0
   49.0134   16.3313   10.6596 H   0  0  0  0  0  0  0  0  0  0  0  0
   48.0354   16.2470    9.1403 H   0  0  0  0  0  0  0  0  0  0  0  0
   48.0684   17.7207   10.1142 H   0  0  0  0  0  0  0  0  0  0  0  0
  1  2  1  1
  3  2  2  0
  4  6  1  0
  5  3  1  0
  6 11  2  0
  7  5  1  0
  8  1  1  0
  9  1  1  0
 10  1  1  0
 11 13  1  0
 12  7  1  0
 13 24  2  0
 14 12  2  0
 15  8  1  0
 16  9  1  0
 17 10  1  0
 18  2  1  0
 19  4  2  0
 20 23  2  0
 21 25  1  0
 22  7  2  0
 23 14  1  0
 24 22  1  0
 25 18  2  0
 26 16  1  0
 27 17  1  0
 28 17  1  0
 29  4  1  0
 30 18  1  0
 31 30  1  0
 28 16  1  0
 27 15  1  0
 26 15  1  0
 21  5  2  0
 13 14  1  0
  6 20  1  0
  3 32  1  0
  8 33  1  0
  8 34  1  0
  9 35  1  0
  9 36  1  0
 10 37  1  0
 10 38  1  0
 11 39  1  0
 12 40  1  0
 15 41  1  1
 16 42  1  6
 17 43  1  6
 20 44  1  0
 21 45  1  0
 22 46  1  0
 23 47  1  0
 24 48  1  0
 25 49  1  0
 26 50  1  0
 26 51  1  0
 27 52  1  0
 27 53  1  0
 28 54  1  0
 28 55  1  0
 29 56  1  0
 31 57  1  0
 31 58  1  0
 31 59  1  0
M  END
> <Uni-Dock RESULT> 
ENERGY=   -4.686  LOWER_BOUND=    5.438  UPPER_BOUND=   10.071
INTER + INTRA:          -4.686
INTER:                  -4.686
INTRA:                   0.000
UNBOUND:                 0.000

$$$$

     RDKit          3D

 59 64  0  0  0  0  0  0  0  0999 V2000
   43.2874   13.3379    7.8124 C   0  0  2  0  0  0  0  0  0  0  0  0
   42.6317   12.3535    8.8170 C   0  0  0  0  0  0  0  0  0  0  0  0
   43.4159   11.3894    9.4950 C   0  0  0  0  0  0  0  0  0  0  0  0
   46.8181    4.3293   13.6577 C   0  0  0  0  0  0  0  0  0  0  0  0
   42.8782   10.4705   10.4153 C   0  0  0  0  0  0  0  0  0  0  0  0
   45.9249    5.2807   12.9540 C   0  0  0  0  0  0  0  0  0  0  0  0
   43.7373    9.4888   11.0964 C   0  0  0  0  0  0  0  0  0  0  0  0
   43.0903   14.8143    8.2742 C   0  0  0  0  0  0  0  0  0  0  0  0
   42.6855   13.1578    6.3852 C   0  0  0  0  0  0  0  0  0  0  0  0
   44.8353   13.1358    7.6580 C   0  0  0  0  0  0  0  0  0  0  0  0
   46.2034    6.6497   13.0554 C   0  0  0  0  0  0  0  0  0  0  0  0
   43.4722    8.1115   11.0076 C   0  0  0  0  0  0  0  0  0  0  0  0
   45.3920    7.5970   12.4100 C   0  0  0  0  0  0  0  0  0  0  0  0
   44.2829    7.1603   11.6520 C   0  0  0  0  0  0  0  0  0  0  0  0
   43.6914   15.8051    7.2612 C   0  0  2  0  0  0  0  0  0  0  0  0
   43.2904   14.1636    5.3892 C   0  0  1  0  0  0  0  0  0  0  0  0
   45.4539   14.1267    6.6568 C   0  0  2  0  0  0  0  0  0  0  0  0
   41.2430   12.3679    9.1008 C   0  0  0  0  0  0  0  0  0  0  0  0
   47.7895    4.6258   14.3286 O   0  0  0  0  0  0  0  0  0  0  0  0
   44.8279    4.8508   12.2024 C   0  0  0  0  0  0  0  0  0  0  0  0
   41.5065   10.5190   10.6629 C   0  0  0  0  0  0  0  0  0  0  0  0
   44.8433    9.9008   11.8524 C   0  0  0  0  0  0  0  0  0  0  0  0
   44.0140    5.7854   11.5567 C   0  0  0  0  0  0  0  0  0  0  0  0
   45.6597    8.9697   12.5012 C   0  0  0  0  0  0  0  0  0  0  0  0
   40.6994   11.4547   10.0155 C   0  0  0  0  0  0  0  0  0  0  0  0
   43.0297   15.5939    5.8895 C   0  0  0  0  0  0  0  0  0  0  0  0
   45.2006   15.5593    7.1423 C   0  0  0  0  0  0  0  0  0  0  0  0
   44.8022   13.9287    5.2826 C   0  0  0  0  0  0  0  0  0  0  0  0
   46.4529    3.0462   13.4889 O   0  0  0  0  0  0  0  0  0  0  0  0
   40.4824   13.3010    8.4461 O   0  0  0  0  0  0  0  0  0  0  0  0
   39.0884   13.3523    8.7159 C   0  0  0  0  0  0  0  0  0  0  0  0
   44.4851   11.3205    9.3111 H   0  0  0  0  0  0  0  0  0  0  0  0
   43.5548   14.9627    9.2584 H   0  0  0  0  0  0  0  0  0  0  0  0
   42.0330   15.0664    8.4007 H   0  0  0  0  0  0  0  0  0  0  0  0
   42.8634   12.1331    6.0316 H   0  0  0  0  0  0  0  0  0  0  0  0
   41.5996   13.2931    6.3784 H   0  0  0  0  0  0  0  0  0  0  0  0
   45.0544   12.1157    7.3149 H   0  0  0  0  0  0  0  0  0  0  0  0
   45.3354   13.2654    8.6273 H   0  0  0  0  0  0  0  0  0  0  0  0
   47.0604    6.9774   13.6423 H   0  0  0  0  0  0  0  0  0  0  0  0
   42.6233    7.7751   10.4138 H   0  0  0  0  0  0  0  0  0  0  0  0
   43.5127   16.8312    7.6021 H   0  0  0  0  0  0  0  0  0  0  0  0
   42.8279   14.0277    4.4050 H   0  0  0  0  0  0  0  0  0  0  0  0
   46.5326   13.9492    6.5814 H   0  0  0  0  0  0  0  0  0  0  0  0
   44.5959    3.7925   12.1111 H   0  0  0  0  0  0  0  0  0  0  0  0
   41.0527    9.8335   11.3753 H   0  0  0  0  0  0  0  0  0  0  0  0
   45.0729   10.9603   11.9515 H   0  0  0  0  0  0  0  0  0  0  0  0
   43.1652    5.4299   10.9758 H   0  0  0  0  0  0  0  0  0  0  0  0
   46.5070    9.3297   13.0812 H   0  0  0  0  0  0  0  0  0  0  0  0
   39.6410   11.4444   10.2535 H   0  0  0  0  0  0  0  0  0  0  0  0
   43.4269   16.3190    5.1685 H   0  0  0  0  0  0  0  0  0  0  0  0
   41.9503   15.7757    5.9613 H   0  0  0  0  0  0  0  0  0  0  0  0
   45.6450   16.2779    6.4428 H   0  0  0  0  0  0  0  0  0  0  0  0
   45.6855   15.7192    8.1131 H   0  0  0  0  0  0  0  0  0  0  0  0
   45.0003   12.9145    4.9145 H   0  0  0  0  0  0  0  0  0  0  0  0
   45.2405   14.6225    4.5547 H   0  0  0  0  0  0  0  0  0  0  0  0
   47.1215    2.5436   14.0000 H   0  0  0  0  0  0  0  0  0  0  0  0
   38.5950   12.4194    8.4247 H   0  0  0  0  0  0  0  0  0  0  0  0
   38.8977   13.5938    9.7667 H   0  0  0  0  0  0  0  0  0  0  0  0
   38.6613   14.1563    8.1087 H   0  0  0  0  0  0  0  0  0  0  0  0
  1  2  1  1
  3  2  2  0
  4  6  1  0
  5  3  1  0
  6 11  2  0
  7  5  1  0
  8  1  1  0
  9  1  1  0
 10  1  1  0
 11 13  1  0
 12  7  1  0
 13 24  2  0
 14 12  2  0
 15  8  1  0
 16  9  1  0
 17 10  1  0
 18  2  1  0
 19  4  2  0
 20 23  2  0
 21 25  1  0
 22  7  2  0
 23 14  1  0
 24 22  1  0
 25 18  2  0
 26 16  1  0
 27 17  1  0
 28 17  1  0
 29  4  1  0
 30 18  1  0
 31 30  1  0
 28 16  1  0
 27 15  1  0
 26 15  1  0
 21  5  2  0
 13 14  1  0
  6 20  1  0
  3 32  1  0
  8 33  1  0
  8 34  1  0
  9 35  1  0
  9 36  1  0
 10 37  1  0
 10 38  1  0
 11 39  1  0
 12 40  1  0
 15 41  1  1
 16 42  1  6
 17 43  1  6
 20 44  1  0
 21 45  1  0
 22 46  1  0
 23 47  1  0
 24 48  1  0
 25 49  1  0
 26 50  1  0
 26 51  1  0
 27 52  1  0
 27 53  1  0
 28 54  1  0
 28 55  1  0
 29 56  1  0
 31 57  1  0
 31 58  1  0
 31 59  1  0
M  END
> <Uni-Dock RESULT> 
ENERGY=   -4.654  LOWER_BOUND=    6.017  UPPER_BOUND=   10.059
INTER + INTRA:          -4.654
INTER:                  -4.654
INTRA:                   0.000
UNBOUND:                 0.000

$$$$

     RDKit          3D

 59 64  0  0  0  0  0  0  0  0999 V2000
   49.8516   13.8435   14.1998 C   0  0  2  0  0  0  0  0  0  0  0  0
   49.9251   12.5900   13.2879 C   0  0  0  0  0  0  0  0  0  0  0  0
   48.8498   11.6704   13.2416 C   0  0  0  0  0  0  0  0  0  0  0  0
   43.4244    4.6719   12.6630 C   0  0  0  0  0  0  0  0  0  0  0  0
   48.8593   10.5167   12.4358 C   0  0  0  0  0  0  0  0  0  0  0  0
   44.6076    5.5650   12.6909 C   0  0  0  0  0  0  0  0  0  0  0  0
   47.7142    9.5925   12.4214 C   0  0  0  0  0  0  0  0  0  0  0  0
   49.9464   15.1505   13.3544 C   0  0  0  0  0  0  0  0  0  0  0  0
   50.9967   13.8282   15.2583 C   0  0  0  0  0  0  0  0  0  0  0  0
   48.5134   13.9493   15.0114 C   0  0  0  0  0  0  0  0  0  0  0  0
   44.4234    6.9187   12.3817 C   0  0  0  0  0  0  0  0  0  0  0  0
   47.8802    8.2308   12.7269 C   0  0  0  0  0  0  0  0  0  0  0  0
   45.5076    7.8113   12.3923 C   0  0  0  0  0  0  0  0  0  0  0  0
   46.7968    7.3344   12.7178 C   0  0  0  0  0  0  0  0  0  0  0  0
   49.9261   16.4021   14.2502 C   0  0  2  0  0  0  0  0  0  0  0  0
   50.9668   15.0918   16.1369 C   0  0  1  0  0  0  0  0  0  0  0  0
   48.4722   15.2019   15.9038 C   0  0  2  0  0  0  0  0  0  0  0  0
   51.0493   12.3068   12.4722 C   0  0  0  0  0  0  0  0  0  0  0  0
   42.2854    5.0052   12.3926 O   0  0  0  0  0  0  0  0  0  0  0  0
   45.8837    5.0956   13.0140 C   0  0  0  0  0  0  0  0  0  0  0  0
   49.9867   10.2761   11.6507 C   0  0  0  0  0  0  0  0  0  0  0  0
   46.4266   10.0453   12.1024 C   0  0  0  0  0  0  0  0  0  0  0  0
   46.9692    5.9757   13.0269 C   0  0  0  0  0  0  0  0  0  0  0  0
   45.3378    9.1686   12.0869 C   0  0  0  0  0  0  0  0  0  0  0  0
   51.0669   11.1587   11.6676 C   0  0  0  0  0  0  0  0  0  0  0  0
   51.0982   16.3358   15.2430 C   0  0  0  0  0  0  0  0  0  0  0  0
   48.6037   16.4522   15.0253 C   0  0  0  0  0  0  0  0  0  0  0  0
   49.6375   15.1506   16.8997 C   0  0  0  0  0  0  0  0  0  0  0  0
   43.7226    3.3985   12.9757 O   0  0  0  0  0  0  0  0  0  0  0  0
   52.0907   13.1965   12.5150 O   0  0  0  0  0  0  0  0  0  0  0  0
   53.2286   12.9505   11.7005 C   0  0  0  0  0  0  0  0  0  0  0  0
   47.9648   11.8261   13.8531 H   0  0  0  0  0  0  0  0  0  0  0  0
   49.1144   15.1932   12.6386 H   0  0  0  0  0  0  0  0  0  0  0  0
   50.8605   15.1846   12.7538 H   0  0  0  0  0  0  0  0  0  0  0  0
   50.9084   12.9345   15.8908 H   0  0  0  0  0  0  0  0  0  0  0  0
   51.9849   13.7690   14.7920 H   0  0  0  0  0  0  0  0  0  0  0  0
   48.3839   13.0654   15.6503 H   0  0  0  0  0  0  0  0  0  0  0  0
   47.6544   13.9829   14.3278 H   0  0  0  0  0  0  0  0  0  0  0  0
   43.4260    7.2775   12.1316 H   0  0  0  0  0  0  0  0  0  0  0  0
   48.8726    7.8663   12.9885 H   0  0  0  0  0  0  0  0  0  0  0  0
   50.0207   17.2993   13.6281 H   0  0  0  0  0  0  0  0  0  0  0  0
   51.7980   15.0615   16.8504 H   0  0  0  0  0  0  0  0  0  0  0  0
   47.5227   15.2342   16.4499 H   0  0  0  0  0  0  0  0  0  0  0  0
   46.0467    4.0486   13.2576 H   0  0  0  0  0  0  0  0  0  0  0  0
   50.0297    9.4013   11.0054 H   0  0  0  0  0  0  0  0  0  0  0  0
   46.2625   11.0917   11.8506 H   0  0  0  0  0  0  0  0  0  0  0  0
   47.9544    5.5902   13.2819 H   0  0  0  0  0  0  0  0  0  0  0  0
   44.3547    9.5582   11.8310 H   0  0  0  0  0  0  0  0  0  0  0  0
   51.9125   10.9182   11.0320 H   0  0  0  0  0  0  0  0  0  0  0  0
   51.1128   17.2404   15.8633 H   0  0  0  0  0  0  0  0  0  0  0  0
   52.0503   16.3082   14.6987 H   0  0  0  0  0  0  0  0  0  0  0  0
   48.5661   17.3549   15.6474 H   0  0  0  0  0  0  0  0  0  0  0  0
   47.7601   16.5121   14.3268 H   0  0  0  0  0  0  0  0  0  0  0  0
   49.5382   14.2732   17.5507 H   0  0  0  0  0  0  0  0  0  0  0  0
   49.6158   16.0335   17.5503 H   0  0  0  0  0  0  0  0  0  0  0  0
   42.8605    2.9356   12.9177 H   0  0  0  0  0  0  0  0  0  0  0  0
   53.7230   12.0158   11.9842 H   0  0  0  0  0  0  0  0  0  0  0  0
   52.9631   12.9555   10.6383 H   0  0  0  0  0  0  0  0  0  0  0  0
   53.9399   13.7652   11.8678 H   0  0  0  0  0  0  0  0  0  0  0  0
  1  2  1  1
  3  2  2  0
  4  6  1  0
  5  3  1  0
  6 11  2  0
  7  5  1  0
  8  1  1  0
  9  1  1  0
 10  1  1  0
 11 13  1  0
 12  7  1  0
 13 24  2  0
 14 12  2  0
 15  8  1  0
 16  9  1  0
 17 10  1  0
 18  2  1  0
 19  4  2  0
 20 23  2  0
 21 25  1  0
 22  7  2  0
 23 14  1  0
 24 22  1  0
 25 18  2  0
 26 16  1  0
 27 17  1  0
 28 17  1  0
 29  4  1  0
 30 18  1  0
 31 30  1  0
 28 16  1  0
 27 15  1  0
 26 15  1  0
 21  5  2  0
 13 14  1  0
  6 20  1  0
  3 32  1  0
  8 33  1  0
  8 34  1  0
  9 35  1  0
  9 36  1  0
 10 37  1  0
 10 38  1  0
 11 39  1  0
 12 40  1  0
 15 41  1  1
 16 42  1  6
 17 43  1  6
 20 44  1  0
 21 45  1  0
 22 46  1  0
 23 47  1  0
 24 48  1  0
 25 49  1  0
 26 50  1  0
 26 51  1  0
 27 52  1  0
 27 53  1  0
 28 54  1  0
 28 55  1  0
 29 56  1  0
 31 57  1  0
 31 58  1  0
 31 59  1  0
M  END
> <Uni-Dock RESULT> 
ENERGY=   -4.625  LOWER_BOUND=    3.944  UPPER_BOUND=    9.973
INTER + INTRA:          -4.625
INTER:                  -4.625
INTRA:                   0.000
UNBOUND:                 0.000

$$$$
