
     RDKit          3D

 59 64  0  0  0  0  0  0  0  0999 V2000
   45.6611    5.3174   12.3282 C   0  0  2  0  0  0  0  0  0  0  0  0
   46.8902    6.0197   12.9640 C   0  0  0  0  0  0  0  0  0  0  0  0
   47.5406    7.0809   12.2895 C   0  0  0  0  0  0  0  0  0  0  0  0
   53.2040   13.0390    8.8882 C   0  0  0  0  0  0  0  0  0  0  0  0
   48.6590    7.7546   12.8147 C   0  0  0  0  0  0  0  0  0  0  0  0
   52.5157   11.9558    9.6308 C   0  0  0  0  0  0  0  0  0  0  0  0
   49.2982    8.8545   12.0747 C   0  0  0  0  0  0  0  0  0  0  0  0
   44.4025    5.4736   13.2357 C   0  0  0  0  0  0  0  0  0  0  0  0
   45.9460    3.8019   12.0957 C   0  0  0  0  0  0  0  0  0  0  0  0
   45.2606    5.9021   10.9287 C   0  0  0  0  0  0  0  0  0  0  0  0
   51.1523   12.0195    9.9447 C   0  0  0  0  0  0  0  0  0  0  0  0
   50.6652    8.8101   11.7515 C   0  0  0  0  0  0  0  0  0  0  0  0
   50.5305   10.9754   10.6498 C   0  0  0  0  0  0  0  0  0  0  0  0
   51.2914    9.8525   11.0453 C   0  0  0  0  0  0  0  0  0  0  0  0
   43.1872    4.7385   12.6427 C   0  0  2  0  0  0  0  0  0  0  0  0
   44.7166    3.0820   11.5130 C   0  0  1  0  0  0  0  0  0  0  0  0
   44.0396    5.1854   10.3270 C   0  0  2  0  0  0  0  0  0  0  0  0
   47.4147    5.6419   14.2255 C   0  0  0  0  0  0  0  0  0  0  0  0
   54.3816   13.0562    8.5813 O   0  0  0  0  0  0  0  0  0  0  0  0
   53.2653   10.8428   10.0223 C   0  0  0  0  0  0  0  0  0  0  0  0
   49.1427    7.3488   14.0582 C   0  0  0  0  0  0  0  0  0  0  0  0
   48.5609    9.9765   11.6722 C   0  0  0  0  0  0  0  0  0  0  0  0
   52.6568    9.7996   10.7239 C   0  0  0  0  0  0  0  0  0  0  0  0
   49.1668   11.0230   10.9705 C   0  0  0  0  0  0  0  0  0  0  0  0
   48.5294    6.3074   14.7550 C   0  0  0  0  0  0  0  0  0  0  0  0
   43.5273    3.2487   12.4729 C   0  0  0  0  0  0  0  0  0  0  0  0
   42.8442    5.3421   11.2751 C   0  0  0  0  0  0  0  0  0  0  0  0
   44.3636    3.6964   10.1527 C   0  0  0  0  0  0  0  0  0  0  0  0
   52.3842   14.0542    8.5629 O   0  0  0  0  0  0  0  0  0  0  0  0
   46.7856    4.6157   14.8804 O   0  0  0  0  0  0  0  0  0  0  0  0
   47.2841    4.2113   16.1479 C   0  0  0  0  0  0  0  0  0  0  0  0
   47.1931    7.4084   11.3131 H   0  0  0  0  0  0  0  0  0  0  0  0
   44.5720    5.0802   14.2426 H   0  0  0  0  0  0  0  0  0  0  0  0
   44.1652    6.5383   13.3647 H   0  0  0  0  0  0  0  0  0  0  0  0
   46.8017    3.6828   11.4175 H   0  0  0  0  0  0  0  0  0  0  0  0
   46.2244    3.2906   13.0222 H   0  0  0  0  0  0  0  0  0  0  0  0
   46.0977    5.8104   10.2235 H   0  0  0  0  0  0  0  0  0  0  0  0
   45.0265    6.9717   11.0152 H   0  0  0  0  0  0  0  0  0  0  0  0
   50.5681   12.8851    9.6397 H   0  0  0  0  0  0  0  0  0  0  0  0
   51.2490    7.9393   12.0467 H   0  0  0  0  0  0  0  0  0  0  0  0
   42.3294    4.8459   13.3163 H   0  0  0  0  0  0  0  0  0  0  0  0
   44.9416    2.0168   11.3868 H   0  0  0  0  0  0  0  0  0  0  0  0
   43.7969    5.6255    9.3532 H   0  0  0  0  0  0  0  0  0  0  0  0
   54.3253   10.7820    9.7831 H   0  0  0  0  0  0  0  0  0  0  0  0
   49.9987    7.8505   14.5047 H   0  0  0  0  0  0  0  0  0  0  0  0
   47.5021   10.0495   11.9142 H   0  0  0  0  0  0  0  0  0  0  0  0
   53.2596    8.9426   11.0181 H   0  0  0  0  0  0  0  0  0  0  0  0
   48.5605   11.8781   10.6789 H   0  0  0  0  0  0  0  0  0  0  0  0
   48.9501    6.0416   15.7189 H   0  0  0  0  0  0  0  0  0  0  0  0
   43.7659    2.8047   13.4471 H   0  0  0  0  0  0  0  0  0  0  0  0
   42.6551    2.7095   12.0828 H   0  0  0  0  0  0  0  0  0  0  0  0
   41.9622    4.8439   10.8542 H   0  0  0  0  0  0  0  0  0  0  0  0
   42.5878    6.4029   11.3856 H   0  0  0  0  0  0  0  0  0  0  0  0
   45.2010    3.5724    9.4551 H   0  0  0  0  0  0  0  0  0  0  0  0
   43.5047    3.1732    9.7148 H   0  0  0  0  0  0  0  0  0  0  0  0
   52.9671   14.6814    8.0857 H   0  0  0  0  0  0  0  0  0  0  0  0
   47.2129    5.0239   16.8783 H   0  0  0  0  0  0  0  0  0  0  0  0
   46.6568    3.3892   16.5054 H   0  0  0  0  0  0  0  0  0  0  0  0
   48.3092    3.8351   16.0679 H   0  0  0  0  0  0  0  0  0  0  0  0
  1  2  1  1
  3  2  2  0
  4  6  1  0
  5  3  1  0
  6 11  2  0
  7  5  1  0
  8  1  1  0
  9  1  1  0
 10  1  1  0
 11 13  1  0
 12  7  1  0
 13 24  2  0
 14 12  2  0
 15  8  1  0
 16  9  1  0
 17 10  1  0
 18  2  1  0
 19  4  2  0
 20 23  2  0
 21 25  1  0
 22  7  2  0
 23 14  1  0
 24 22  1  0
 25 18  2  0
 26 16  1  0
 27 17  1  0
 28 17  1  0
 29  4  1  0
 30 18  1  0
 31 30  1  0
 28 16  1  0
 27 15  1  0
 26 15  1  0
 21  5  2  0
 13 14  1  0
  6 20  1  0
  3 32  1  0
  8 33  1  0
  8 34  1  0
  9 35  1  0
  9 36  1  0
 10 37  1  0
 10 38  1  0
 11 39  1  0
 12 40  1  0
 15 41  1  1
 16 42  1  6
 17 43  1  6
 20 44  1  0
 21 45  1  0
 22 46  1  0
 23 47  1  0
 24 48  1  0
 25 49  1  0
 26 50  1  0
 26 51  1  0
 27 52  1  0
 27 53  1  0
 28 54  1  0
 28 55  1  0
 29 56  1  0
 31 57  1  0
 31 58  1  0
 31 59  1  0
M  END
> <Uni-Dock RESULT> 
ENERGY=   -5.798  LOWER_BOUND=    0.000  UPPER_BOUND=    0.000
INTER + INTRA:          -5.798
INTER:                  -5.798
INTRA:                   0.000
UNBOUND:                 0.000

$$$$

     RDKit          3D

 59 64  0  0  0  0  0  0  0  0999 V2000
   49.3902   11.3783   17.3124 C   0  0  2  0  0  0  0  0  0  0  0  0
   49.7249   10.3128   16.2350 C   0  0  0  0  0  0  0  0  0  0  0  0
   48.6944    9.5543   15.6293 C   0  0  0  0  0  0  0  0  0  0  0  0
   43.5499    3.4036   11.7766 C   0  0  0  0  0  0  0  0  0  0  0  0
   48.9362    8.5745   14.6485 C   0  0  0  0  0  0  0  0  0  0  0  0
   44.6422    4.2126   12.3688 C   0  0  0  0  0  0  0  0  0  0  0  0
   47.8290    7.8143   14.0469 C   0  0  0  0  0  0  0  0  0  0  0  0
   49.8458   12.7964   16.8500 C   0  0  0  0  0  0  0  0  0  0  0  0
   50.0769   11.0315   18.6689 C   0  0  0  0  0  0  0  0  0  0  0  0
   47.8567   11.4959   17.6213 C   0  0  0  0  0  0  0  0  0  0  0  0
   44.6446    5.6120   12.3142 C   0  0  0  0  0  0  0  0  0  0  0  0
   47.8089    6.4097   14.0899 C   0  0  0  0  0  0  0  0  0  0  0  0
   45.6955    6.3490   12.8857 C   0  0  0  0  0  0  0  0  0  0  0  0
   46.7589    5.6683   13.5199 C   0  0  0  0  0  0  0  0  0  0  0  0
   49.5663   13.8565   17.9303 C   0  0  2  0  0  0  0  0  0  0  0  0
   49.7954   12.1077   19.7327 C   0  0  1  0  0  0  0  0  0  0  0  0
   47.5591   12.5602   18.6916 C   0  0  2  0  0  0  0  0  0  0  0  0
   51.0517   10.0488   15.8118 C   0  0  0  0  0  0  0  0  0  0  0  0
   43.4789    2.1886   11.7826 O   0  0  0  0  0  0  0  0  0  0  0  0
   45.6950    3.5423   12.9982 C   0  0  0  0  0  0  0  0  0  0  0  0
   50.2571    8.3464   14.2633 C   0  0  0  0  0  0  0  0  0  0  0  0
   46.7641    8.4705   13.4143 C   0  0  0  0  0  0  0  0  0  0  0  0
   46.7447    4.2654   13.5692 C   0  0  0  0  0  0  0  0  0  0  0  0
   45.7123    7.7498   12.8409 C   0  0  0  0  0  0  0  0  0  0  0  0
   51.3010    9.0734   14.8359 C   0  0  0  0  0  0  0  0  0  0  0  0
   50.2993   13.4686   19.2250 C   0  0  0  0  0  0  0  0  0  0  0  0
   48.0579   13.9245   18.1993 C   0  0  0  0  0  0  0  0  0  0  0  0
   48.2855   12.1871   19.9900 C   0  0  0  0  0  0  0  0  0  0  0  0
   42.5938    4.1547   11.2021 O   0  0  0  0  0  0  0  0  0  0  0  0
   52.0504   10.7830   16.3961 O   0  0  0  0  0  0  0  0  0  0  0  0
   53.3925   10.5452   15.9950 C   0  0  0  0  0  0  0  0  0  0  0  0
   47.6576    9.7019   15.9204 H   0  0  0  0  0  0  0  0  0  0  0  0
   50.9149   12.8284   16.6195 H   0  0  0  0  0  0  0  0  0  0  0  0
   49.3292   13.0695   15.9200 H   0  0  0  0  0  0  0  0  0  0  0  0
   49.7240   10.0548   19.0267 H   0  0  0  0  0  0  0  0  0  0  0  0
   51.1625   10.9389   18.5666 H   0  0  0  0  0  0  0  0  0  0  0  0
   47.4637   10.5325   17.9730 H   0  0  0  0  0  0  0  0  0  0  0  0
   47.3031   11.7574   16.7095 H   0  0  0  0  0  0  0  0  0  0  0  0
   43.8252    6.1346   11.8251 H   0  0  0  0  0  0  0  0  0  0  0  0
   48.6231    5.8856   14.5886 H   0  0  0  0  0  0  0  0  0  0  0  0
   49.9215   14.8341   17.5849 H   0  0  0  0  0  0  0  0  0  0  0  0
   50.3126   11.8472   20.6631 H   0  0  0  0  0  0  0  0  0  0  0  0
   46.4797   12.6072   18.8743 H   0  0  0  0  0  0  0  0  0  0  0  0
   45.7034    2.4550   13.0475 H   0  0  0  0  0  0  0  0  0  0  0  0
   50.4863    7.6053   13.5004 H   0  0  0  0  0  0  0  0  0  0  0  0
   46.7517    9.5572   13.3532 H   0  0  0  0  0  0  0  0  0  0  0  0
   47.5535    3.7227   14.0546 H   0  0  0  0  0  0  0  0  0  0  0  0
   44.9060    8.2965   12.3562 H   0  0  0  0  0  0  0  0  0  0  0  0
   52.3055    8.8524   14.4910 H   0  0  0  0  0  0  0  0  0  0  0  0
   51.3806   13.4256   19.0458 H   0  0  0  0  0  0  0  0  0  0  0  0
   50.1343   14.2364   19.9910 H   0  0  0  0  0  0  0  0  0  0  0  0
   47.8436   14.6963   18.9488 H   0  0  0  0  0  0  0  0  0  0  0  0
   47.5252   14.2126   17.2847 H   0  0  0  0  0  0  0  0  0  0  0  0
   47.9164   11.2244   20.3646 H   0  0  0  0  0  0  0  0  0  0  0  0
   48.0746   12.9325   20.7665 H   0  0  0  0  0  0  0  0  0  0  0  0
   41.9523    3.4961   10.8619 H   0  0  0  0  0  0  0  0  0  0  0  0
   53.5344   10.7737   14.9337 H   0  0  0  0  0  0  0  0  0  0  0  0
   54.0356   11.2205   16.5677 H   0  0  0  0  0  0  0  0  0  0  0  0
   53.6987    9.5200   16.2271 H   0  0  0  0  0  0  0  0  0  0  0  0
  1  2  1  1
  3  2  2  0
  4  6  1  0
  5  3  1  0
  6 11  2  0
  7  5  1  0
  8  1  1  0
  9  1  1  0
 10  1  1  0
 11 13  1  0
 12  7  1  0
 13 24  2  0
 14 12  2  0
 15  8  1  0
 16  9  1  0
 17 10  1  0
 18  2  1  0
 19  4  2  0
 20 23  2  0
 21 25  1  0
 22  7  2  0
 23 14  1  0
 24 22  1  0
 25 18  2  0
 26 16  1  0
 27 17  1  0
 28 17  1  0
 29  4  1  0
 30 18  1  0
 31 30  1  0
 28 16  1  0
 27 15  1  0
 26 15  1  0
 21  5  2  0
 13 14  1  0
  6 20  1  0
  3 32  1  0
  8 33  1  0
  8 34  1  0
  9 35  1  0
  9 36  1  0
 10 37  1  0
 10 38  1  0
 11 39  1  0
 12 40  1  0
 15 41  1  1
 16 42  1  6
 17 43  1  6
 20 44  1  0
 21 45  1  0
 22 46  1  0
 23 47  1  0
 24 48  1  0
 25 49  1  0
 26 50  1  0
 26 51  1  0
 27 52  1  0
 27 53  1  0
 28 54  1  0
 28 55  1  0
 29 56  1  0
 31 57  1  0
 31 58  1  0
 31 59  1  0
M  END
> <Uni-Dock RESULT> 
ENERGY=   -5.220  LOWER_BOUND=    4.742  UPPER_BOUND=    9.549
INTER + INTRA:          -5.220
INTER:                  -5.220
INTRA:                   0.000
UNBOUND:                 0.000

$$$$

     RDKit          3D

 59 64  0  0  0  0  0  0  0  0999 V2000
   49.0692   10.7867   18.2826 C   0  0  2  0  0  0  0  0  0  0  0  0
   49.5455    9.6520   17.3372 C   0  0  0  0  0  0  0  0  0  0  0  0
   48.6557    9.0785   16.3972 C   0  0  0  0  0  0  0  0  0  0  0  0
   44.0651    3.8707   10.8343 C   0  0  0  0  0  0  0  0  0  0  0  0
   49.0292    8.0472   15.5154 C   0  0  0  0  0  0  0  0  0  0  0  0
   45.0255    4.4824   11.7839 C   0  0  0  0  0  0  0  0  0  0  0  0
   48.0667    7.4861   14.5538 C   0  0  0  0  0  0  0  0  0  0  0  0
   49.8987   12.0868   18.0501 C   0  0  0  0  0  0  0  0  0  0  0  0
   49.1935   10.3544   19.7758 C   0  0  0  0  0  0  0  0  0  0  0  0
   47.5675   11.1882   18.0719 C   0  0  0  0  0  0  0  0  0  0  0  0
   45.2967    5.8564   11.7855 C   0  0  0  0  0  0  0  0  0  0  0  0
   47.7821    6.1100   14.5352 C   0  0  0  0  0  0  0  0  0  0  0  0
   46.2128    6.4042   12.6992 C   0  0  0  0  0  0  0  0  0  0  0  0
   46.8655    5.5576   13.6230 C   0  0  0  0  0  0  0  0  0  0  0  0
   49.4718   13.2062   19.0163 C   0  0  2  0  0  0  0  0  0  0  0  0
   48.7730   11.4897   20.7264 C   0  0  1  0  0  0  0  0  0  0  0  0
   47.1279   12.3147   19.0228 C   0  0  2  0  0  0  0  0  0  0  0  0
   50.8674    9.1413   17.3664 C   0  0  0  0  0  0  0  0  0  0  0  0
   43.7795    2.6893   10.7710 O   0  0  0  0  0  0  0  0  0  0  0  0
   45.6720    3.6478   12.7001 C   0  0  0  0  0  0  0  0  0  0  0  0
   50.3395    7.5739   15.5798 C   0  0  0  0  0  0  0  0  0  0  0  0
   47.4077    8.3089   13.6301 C   0  0  0  0  0  0  0  0  0  0  0  0
   46.5846    4.1823   13.6124 C   0  0  0  0  0  0  0  0  0  0  0  0
   46.4943    7.7772   12.7149 C   0  0  0  0  0  0  0  0  0  0  0  0
   51.2469    8.1132   16.4918 C   0  0  0  0  0  0  0  0  0  0  0  0
   49.6520   12.7237   20.4650 C   0  0  0  0  0  0  0  0  0  0  0  0
   47.9976   13.5534   18.7744 C   0  0  0  0  0  0  0  0  0  0  0  0
   47.3034   11.8480   20.4734 C   0  0  0  0  0  0  0  0  0  0  0  0
   43.5045    4.7686   10.0048 O   0  0  0  0  0  0  0  0  0  0  0  0
   51.7304    9.6963   18.2748 O   0  0  0  0  0  0  0  0  0  0  0  0
   53.0638    9.2091   18.3309 C   0  0  0  0  0  0  0  0  0  0  0  0
   47.6254    9.4189   16.3348 H   0  0  0  0  0  0  0  0  0  0  0  0
   50.9712   11.9185   18.1870 H   0  0  0  0  0  0  0  0  0  0  0  0
   49.7774   12.4262   17.0125 H   0  0  0  0  0  0  0  0  0  0  0  0
   48.5730    9.4671   19.9603 H   0  0  0  0  0  0  0  0  0  0  0  0
   50.2164   10.0639   20.0344 H   0  0  0  0  0  0  0  0  0  0  0  0
   46.9142   10.3210   18.2378 H   0  0  0  0  0  0  0  0  0  0  0  0
   47.4038   11.5234   17.0389 H   0  0  0  0  0  0  0  0  0  0  0  0
   44.7935    6.5068   11.0732 H   0  0  0  0  0  0  0  0  0  0  0  0
   48.2770    5.4592   15.2549 H   0  0  0  0  0  0  0  0  0  0  0  0
   50.0905   14.0944   18.8444 H   0  0  0  0  0  0  0  0  0  0  0  0
   48.8970   11.1625   21.7650 H   0  0  0  0  0  0  0  0  0  0  0  0
   46.0759   12.5613   18.8405 H   0  0  0  0  0  0  0  0  0  0  0  0
   45.4685    2.5786   12.7087 H   0  0  0  0  0  0  0  0  0  0  0  0
   50.6718    6.7850   14.9083 H   0  0  0  0  0  0  0  0  0  0  0  0
   47.6112    9.3780   13.6090 H   0  0  0  0  0  0  0  0  0  0  0  0
   47.0756    3.5139   14.3170 H   0  0  0  0  0  0  0  0  0  0  0  0
   46.0061    8.4491   12.0119 H   0  0  0  0  0  0  0  0  0  0  0  0
   52.2520    7.7052   16.4900 H   0  0  0  0  0  0  0  0  0  0  0  0
   50.7054   12.4807   20.6514 H   0  0  0  0  0  0  0  0  0  0  0  0
   49.3829   13.5272   21.1616 H   0  0  0  0  0  0  0  0  0  0  0  0
   47.6890   14.3694   19.4393 H   0  0  0  0  0  0  0  0  0  0  0  0
   47.8590   13.9108   17.7466 H   0  0  0  0  0  0  0  0  0  0  0  0
   46.6648   10.9778   20.6687 H   0  0  0  0  0  0  0  0  0  0  0  0
   46.9843   12.6382   21.1640 H   0  0  0  0  0  0  0  0  0  0  0  0
   42.9050    4.2291    9.4474 H   0  0  0  0  0  0  0  0  0  0  0  0
   53.5880    9.3819   17.3853 H   0  0  0  0  0  0  0  0  0  0  0  0
   53.5907    9.7703   19.1086 H   0  0  0  0  0  0  0  0  0  0  0  0
   53.0868    8.1513   18.6126 H   0  0  0  0  0  0  0  0  0  0  0  0
  1  2  1  1
  3  2  2  0
  4  6  1  0
  5  3  1  0
  6 11  2  0
  7  5  1  0
  8  1  1  0
  9  1  1  0
 10  1  1  0
 11 13  1  0
 12  7  1  0
 13 24  2  0
 14 12  2  0
 15  8  1  0
 16  9  1  0
 17 10  1  0
 18  2  1  0
 19  4  2  0
 20 23  2  0
 21 25  1  0
 22  7  2  0
 23 14  1  0
 24 22  1  0
 25 18  2  0
 26 16  1  0
 27 17  1  0
 28 17  1  0
 29  4  1  0
 30 18  1  0
 31 30  1  0
 28 16  1  0
 27 15  1  0
 26 15  1  0
 21  5  2  0
 13 14  1  0
  6 20  1  0
  3 32  1  0
  8 33  1  0
  8 34  1  0
  9 35  1  0
  9 36  1  0
 10 37  1  0
 10 38  1  0
 11 39  1  0
 12 40  1  0
 15 41  1  1
 16 42  1  6
 17 43  1  6
 20 44  1  0
 21 45  1  0
 22 46  1  0
 23 47  1  0
 24 48  1  0
 25 49  1  0
 26 50  1  0
 26 51  1  0
 27 52  1  0
 27 53  1  0
 28 54  1  0
 28 55  1  0
 29 56  1  0
 31 57  1  0
 31 58  1  0
 31 59  1  0
M  END
> <Uni-Dock RESULT> 
ENERGY=   -5.216  LOWER_BOUND=    4.921  UPPER_BOUND=    9.329
INTER + INTRA:          -5.216
INTER:                  -5.216
INTRA:                   0.000
UNBOUND:                 0.000

$$$$

     RDKit          3D

 59 64  0  0  0  0  0  0  0  0999 V2000
   47.5664    8.4995   12.9450 C   0  0  2  0  0  0  0  0  0  0  0  0
   46.1686    8.1171   12.3900 C   0  0  0  0  0  0  0  0  0  0  0  0
   45.3568    9.0879   11.7553 C   0  0  0  0  0  0  0  0  0  0  0  0
   38.8122   14.1857    8.5425 C   0  0  0  0  0  0  0  0  0  0  0  0
   44.0815    8.8014   11.2338 C   0  0  0  0  0  0  0  0  0  0  0  0
   39.6603   13.1431    9.1687 C   0  0  0  0  0  0  0  0  0  0  0  0
   43.2773    9.8463   10.5800 C   0  0  0  0  0  0  0  0  0  0  0  0
   48.6870    7.6736   12.2418 C   0  0  0  0  0  0  0  0  0  0  0  0
   47.6371    8.2607   14.4845 C   0  0  0  0  0  0  0  0  0  0  0  0
   47.9368   10.0076   12.7235 C   0  0  0  0  0  0  0  0  0  0  0  0
   40.9488   12.8536    8.7023 C   0  0  0  0  0  0  0  0  0  0  0  0
   41.9819   10.1505   11.0321 C   0  0  0  0  0  0  0  0  0  0  0  0
   41.7267   11.8591    9.3186 C   0  0  0  0  0  0  0  0  0  0  0  0
   41.2003   11.1455   10.4187 C   0  0  0  0  0  0  0  0  0  0  0  0
   50.0752    8.0053   12.8179 C   0  0  2  0  0  0  0  0  0  0  0  0
   49.0349    8.5871   15.0402 C   0  0  1  0  0  0  0  0  0  0  0  0
   49.3273   10.3532   13.2838 C   0  0  2  0  0  0  0  0  0  0  0  0
   45.6432    6.8044   12.4889 C   0  0  0  0  0  0  0  0  0  0  0  0
   37.6864   14.4918    8.8890 O   0  0  0  0  0  0  0  0  0  0  0  0
   39.1431   12.4362   10.2581 C   0  0  0  0  0  0  0  0  0  0  0  0
   43.6033    7.4969   11.3547 C   0  0  0  0  0  0  0  0  0  0  0  0
   43.7815   10.5664    9.4883 C   0  0  0  0  0  0  0  0  0  0  0  0
   39.9080   11.4454   10.8777 C   0  0  0  0  0  0  0  0  0  0  0  0
   43.0183   11.5582    8.8650 C   0  0  0  0  0  0  0  0  0  0  0  0
   44.3729    6.5113   11.9729 C   0  0  0  0  0  0  0  0  0  0  0  0
   50.0817    7.7151   14.3277 C   0  0  0  0  0  0  0  0  0  0  0  0
   50.3831    9.4893   12.5827 C   0  0  0  0  0  0  0  0  0  0  0  0
   49.3496   10.0673   14.7906 C   0  0  0  0  0  0  0  0  0  0  0  0
   39.4140   14.7991    7.5080 O   0  0  0  0  0  0  0  0  0  0  0  0
   46.4281    5.8631   13.1018 O   0  0  0  0  0  0  0  0  0  0  0  0
   45.9333    4.5364   13.2177 C   0  0  0  0  0  0  0  0  0  0  0  0
   45.6990   10.1151   11.6596 H   0  0  0  0  0  0  0  0  0  0  0  0
   48.5300    6.5960   12.3485 H   0  0  0  0  0  0  0  0  0  0  0  0
   48.6761    7.8738   11.1618 H   0  0  0  0  0  0  0  0  0  0  0  0
   46.8828    8.8765   14.9926 H   0  0  0  0  0  0  0  0  0  0  0  0
   47.4060    7.2244   14.7493 H   0  0  0  0  0  0  0  0  0  0  0  0
   47.1968   10.6573   13.2100 H   0  0  0  0  0  0  0  0  0  0  0  0
   47.9251   10.2498   11.6523 H   0  0  0  0  0  0  0  0  0  0  0  0
   41.3524   13.4038    7.8549 H   0  0  0  0  0  0  0  0  0  0  0  0
   41.5807    9.6080   11.8871 H   0  0  0  0  0  0  0  0  0  0  0  0
   50.8345    7.3903   12.3214 H   0  0  0  0  0  0  0  0  0  0  0  0
   49.0576    8.3840   16.1169 H   0  0  0  0  0  0  0  0  0  0  0  0
   49.5428   11.4130   13.1072 H   0  0  0  0  0  0  0  0  0  0  0  0
   38.1434   12.6532   10.6298 H   0  0  0  0  0  0  0  0  0  0  0  0
   42.6267    7.2310   10.9553 H   0  0  0  0  0  0  0  0  0  0  0  0
   44.7771   10.3505    9.1049 H   0  0  0  0  0  0  0  0  0  0  0  0
   39.4854   10.9083   11.7246 H   0  0  0  0  0  0  0  0  0  0  0  0
   43.4446   12.0923    8.0184 H   0  0  0  0  0  0  0  0  0  0  0  0
   43.9470    5.5153   12.0319 H   0  0  0  0  0  0  0  0  0  0  0  0
   49.8710    6.6536   14.5069 H   0  0  0  0  0  0  0  0  0  0  0  0
   51.0777    7.9158   14.7414 H   0  0  0  0  0  0  0  0  0  0  0  0
   51.3822    9.7317   12.9653 H   0  0  0  0  0  0  0  0  0  0  0  0
   50.3931    9.7057   11.5074 H   0  0  0  0  0  0  0  0  0  0  0  0
   48.6157   10.7000   15.3047 H   0  0  0  0  0  0  0  0  0  0  0  0
   50.3330   10.3185   15.2066 H   0  0  0  0  0  0  0  0  0  0  0  0
   38.7471   15.4491    7.2020 H   0  0  0  0  0  0  0  0  0  0  0  0
   45.7693    4.0881   12.2323 H   0  0  0  0  0  0  0  0  0  0  0  0
   46.6950    3.9405   13.7296 H   0  0  0  0  0  0  0  0  0  0  0  0
   45.0239    4.5053   13.8267 H   0  0  0  0  0  0  0  0  0  0  0  0
  1  2  1  1
  3  2  2  0
  4  6  1  0
  5  3  1  0
  6 11  2  0
  7  5  1  0
  8  1  1  0
  9  1  1  0
 10  1  1  0
 11 13  1  0
 12  7  1  0
 13 24  2  0
 14 12  2  0
 15  8  1  0
 16  9  1  0
 17 10  1  0
 18  2  1  0
 19  4  2  0
 20 23  2  0
 21 25  1  0
 22  7  2  0
 23 14  1  0
 24 22  1  0
 25 18  2  0
 26 16  1  0
 27 17  1  0
 28 17  1  0
 29  4  1  0
 30 18  1  0
 31 30  1  0
 28 16  1  0
 27 15  1  0
 26 15  1  0
 21  5  2  0
 13 14  1  0
  6 20  1  0
  3 32  1  0
  8 33  1  0
  8 34  1  0
  9 35  1  0
  9 36  1  0
 10 37  1  0
 10 38  1  0
 11 39  1  0
 12 40  1  0
 15 41  1  1
 16 42  1  6
 17 43  1  6
 20 44  1  0
 21 45  1  0
 22 46  1  0
 23 47  1  0
 24 48  1  0
 25 49  1  0
 26 50  1  0
 26 51  1  0
 27 52  1  0
 27 53  1  0
 28 54  1  0
 28 55  1  0
 29 56  1  0
 31 57  1  0
 31 58  1  0
 31 59  1  0
M  END
> <Uni-Dock RESULT> 
ENERGY=   -4.922  LOWER_BOUND=    5.678  UPPER_BOUND=    8.618
INTER + INTRA:          -4.922
INTER:                  -4.922
INTRA:                   0.000
UNBOUND:                 0.000

$$$$

     RDKit          3D

 59 64  0  0  0  0  0  0  0  0999 V2000
   43.5748   13.0460    7.6553 C   0  0  2  0  0  0  0  0  0  0  0  0
   42.9300   12.1404    8.7381 C   0  0  0  0  0  0  0  0  0  0  0  0
   43.7194   11.2203    9.4691 C   0  0  0  0  0  0  0  0  0  0  0  0
   47.0842    4.3690   14.0385 C   0  0  0  0  0  0  0  0  0  0  0  0
   43.1916   10.3731   10.4612 C   0  0  0  0  0  0  0  0  0  0  0  0
   46.2443    5.3522   13.3129 C   0  0  0  0  0  0  0  0  0  0  0  0
   44.0557    9.4350   11.1956 C   0  0  0  0  0  0  0  0  0  0  0  0
   43.3960   14.5530    8.0148 C   0  0  0  0  0  0  0  0  0  0  0  0
   42.9467   12.7705    6.2548 C   0  0  0  0  0  0  0  0  0  0  0  0
   45.1183   12.8211    7.4892 C   0  0  0  0  0  0  0  0  0  0  0  0
   46.5370    6.7218   13.3107 C   0  0  0  0  0  0  0  0  0  0  0  0
   43.7782    8.0575   11.2113 C   0  0  0  0  0  0  0  0  0  0  0  0
   45.7203    7.6272   12.6125 C   0  0  0  0  0  0  0  0  0  0  0  0
   44.5932    7.1478   11.9081 C   0  0  0  0  0  0  0  0  0  0  0  0
   43.9860   15.4648    6.9240 C   0  0  2  0  0  0  0  0  0  0  0  0
   43.5408   13.6985    5.1801 C   0  0  1  0  0  0  0  0  0  0  0  0
   45.7261   13.7336    6.4100 C   0  0  2  0  0  0  0  0  0  0  0  0
   41.5466   12.1860    9.0435 C   0  0  0  0  0  0  0  0  0  0  0  0
   46.8938    3.1680   14.0883 O   0  0  0  0  0  0  0  0  0  0  0  0
   45.1294    4.8811   12.6139 C   0  0  0  0  0  0  0  0  0  0  0  0
   41.8249   10.4502   10.7279 C   0  0  0  0  0  0  0  0  0  0  0  0
   45.1791    9.8901   11.8995 C   0  0  0  0  0  0  0  0  0  0  0  0
   44.3109    5.7727   11.9169 C   0  0  0  0  0  0  0  0  0  0  0  0
   46.0000    9.0006   12.5990 C   0  0  0  0  0  0  0  0  0  0  0  0
   41.0129   11.3443   10.0298 C   0  0  0  0  0  0  0  0  0  0  0  0
   43.2989   15.1626    5.5822 C   0  0  0  0  0  0  0  0  0  0  0  0
   45.4912   15.1991    6.7972 C   0  0  0  0  0  0  0  0  0  0  0  0
   45.0489   13.4444    5.0646 C   0  0  0  0  0  0  0  0  0  0  0  0
   48.1270    4.9361   14.6706 O   0  0  0  0  0  0  0  0  0  0  0  0
   40.7812   13.0770    8.3378 O   0  0  0  0  0  0  0  0  0  0  0  0
   39.3904   13.1500    8.6186 C   0  0  0  0  0  0  0  0  0  0  0  0
   44.7845   11.1298    9.2723 H   0  0  0  0  0  0  0  0  0  0  0  0
   42.3429   14.8220    8.1411 H   0  0  0  0  0  0  0  0  0  0  0  0
   43.8787   14.7668    8.9779 H   0  0  0  0  0  0  0  0  0  0  0  0
   43.1112   11.7221    5.9718 H   0  0  0  0  0  0  0  0  0  0  0  0
   41.8618   12.9137    6.2570 H   0  0  0  0  0  0  0  0  0  0  0  0
   45.3242   11.7775    7.2155 H   0  0  0  0  0  0  0  0  0  0  0  0
   45.6362   13.0147    8.4382 H   0  0  0  0  0  0  0  0  0  0  0  0
   47.4050    7.0892   13.8539 H   0  0  0  0  0  0  0  0  0  0  0  0
   42.9157    7.6868   10.6590 H   0  0  0  0  0  0  0  0  0  0  0  0
   43.8205   16.5139    7.1945 H   0  0  0  0  0  0  0  0  0  0  0  0
   43.0602   13.4972    4.2159 H   0  0  0  0  0  0  0  0  0  0  0  0
   46.8020   13.5425    6.3290 H   0  0  0  0  0  0  0  0  0  0  0  0
   44.8927    3.8187   12.6079 H   0  0  0  0  0  0  0  0  0  0  0  0
   41.3788    9.8204   11.4948 H   0  0  0  0  0  0  0  0  0  0  0  0
   45.4187   10.9518   11.9177 H   0  0  0  0  0  0  0  0  0  0  0  0
   43.4486    5.3836   11.3790 H   0  0  0  0  0  0  0  0  0  0  0  0
   46.8608    9.3941   13.1357 H   0  0  0  0  0  0  0  0  0  0  0  0
   39.9590   11.3597   10.2862 H   0  0  0  0  0  0  0  0  0  0  0  0
   42.2222   15.3578    5.6594 H   0  0  0  0  0  0  0  0  0  0  0  0
   43.6885   15.8317    4.8051 H   0  0  0  0  0  0  0  0  0  0  0  0
   45.9282   15.8628    6.0410 H   0  0  0  0  0  0  0  0  0  0  0  0
   45.9941   15.4231    7.7459 H   0  0  0  0  0  0  0  0  0  0  0  0
   45.2336   12.4051    4.7659 H   0  0  0  0  0  0  0  0  0  0  0  0
   45.4792   14.0814    4.2821 H   0  0  0  0  0  0  0  0  0  0  0  0
   48.5816    4.1792   15.0965 H   0  0  0  0  0  0  0  0  0  0  0  0
   39.2117   13.4660    9.6515 H   0  0  0  0  0  0  0  0  0  0  0  0
   38.9574   13.9096    7.9606 H   0  0  0  0  0  0  0  0  0  0  0  0
   38.8925   12.1997    8.4000 H   0  0  0  0  0  0  0  0  0  0  0  0
  1  2  1  1
  3  2  2  0
  4  6  1  0
  5  3  1  0
  6 11  2  0
  7  5  1  0
  8  1  1  0
  9  1  1  0
 10  1  1  0
 11 13  1  0
 12  7  1  0
 13 24  2  0
 14 12  2  0
 15  8  1  0
 16  9  1  0
 17 10  1  0
 18  2  1  0
 19  4  2  0
 20 23  2  0
 21 25  1  0
 22  7  2  0
 23 14  1  0
 24 22  1  0
 25 18  2  0
 26 16  1  0
 27 17  1  0
 28 17  1  0
 29  4  1  0
 30 18  1  0
 31 30  1  0
 28 16  1  0
 27 15  1  0
 26 15  1  0
 21  5  2  0
 13 14  1  0
  6 20  1  0
  3 32  1  0
  8 33  1  0
  8 34  1  0
  9 35  1  0
  9 36  1  0
 10 37  1  0
 10 38  1  0
 11 39  1  0
 12 40  1  0
 15 41  1  1
 16 42  1  6
 17 43  1  6
 20 44  1  0
 21 45  1  0
 22 46  1  0
 23 47  1  0
 24 48  1  0
 25 49  1  0
 26 50  1  0
 26 51  1  0
 27 52  1  0
 27 53  1  0
 28 54  1  0
 28 55  1  0
 29 56  1  0
 31 57  1  0
 31 58  1  0
 31 59  1  0
M  END
> <Uni-Dock RESULT> 
ENERGY=   -4.763  LOWER_BOUND=    5.823  UPPER_BOUND=    9.845
INTER + INTRA:          -4.763
INTER:                  -4.763
INTRA:                   0.000
UNBOUND:                 0.000

$$$$

     RDKit          3D

 59 64  0  0  0  0  0  0  0  0999 V2000
   45.2169    6.0349   12.2034 C   0  0  2  0  0  0  0  0  0  0  0  0
   45.9255    7.3750   12.5355 C   0  0  0  0  0  0  0  0  0  0  0  0
   47.0781    7.3945   13.3572 C   0  0  0  0  0  0  0  0  0  0  0  0
   53.6261    9.2126   19.0983 C   0  0  0  0  0  0  0  0  0  0  0  0
   47.7622    8.5774   13.6936 C   0  0  0  0  0  0  0  0  0  0  0  0
   52.4433    9.2130   18.2042 C   0  0  0  0  0  0  0  0  0  0  0  0
   48.9587    8.5442   14.5499 C   0  0  0  0  0  0  0  0  0  0  0  0
   45.2198    5.7723   10.6662 C   0  0  0  0  0  0  0  0  0  0  0  0
   43.7470    6.0399   12.7243 C   0  0  0  0  0  0  0  0  0  0  0  0
   45.9034    4.7850   12.8571 C   0  0  0  0  0  0  0  0  0  0  0  0
   52.4025    8.4586   17.0249 C   0  0  0  0  0  0  0  0  0  0  0  0
   49.0199    9.2951   15.7362 C   0  0  0  0  0  0  0  0  0  0  0  0
   51.2656    8.4812   16.1996 C   0  0  0  0  0  0  0  0  0  0  0  0
   50.1553    9.2747   16.5655 C   0  0  0  0  0  0  0  0  0  0  0  0
   44.4753    4.4712   10.3168 C   0  0  2  0  0  0  0  0  0  0  0  0
   43.0160    4.7363   12.3562 C   0  0  1  0  0  0  0  0  0  0  0  0
   45.1778    3.4742   12.5080 C   0  0  2  0  0  0  0  0  0  0  0  0
   45.4642    8.6221   12.0446 C   0  0  0  0  0  0  0  0  0  0  0  0
   53.7364    9.8409   20.1348 O   0  0  0  0  0  0  0  0  0  0  0  0
   51.3426    9.9958   18.5640 C   0  0  0  0  0  0  0  0  0  0  0  0
   47.2724    9.7822   13.1900 C   0  0  0  0  0  0  0  0  0  0  0  0
   50.0701    7.7626   14.2055 C   0  0  0  0  0  0  0  0  0  0  0  0
   50.2077   10.0256   17.7504 C   0  0  0  0  0  0  0  0  0  0  0  0
   51.2081    7.7311   15.0169 C   0  0  0  0  0  0  0  0  0  0  0  0
   46.1396    9.8052   12.3762 C   0  0  0  0  0  0  0  0  0  0  0  0
   43.0284    4.5600   10.8290 C   0  0  0  0  0  0  0  0  0  0  0  0
   45.1810    3.2851   10.9859 C   0  0  0  0  0  0  0  0  0  0  0  0
   43.7311    3.5485   13.0120 C   0  0  0  0  0  0  0  0  0  0  0  0
   54.6196    8.4234   18.6526 O   0  0  0  0  0  0  0  0  0  0  0  0
   44.3493    8.6049   11.2480 O   0  0  0  0  0  0  0  0  0  0  0  0
   43.8596    9.8371   10.7376 C   0  0  0  0  0  0  0  0  0  0  0  0
   47.4734    6.4718   13.7742 H   0  0  0  0  0  0  0  0  0  0  0  0
   44.7463    6.5873   10.1104 H   0  0  0  0  0  0  0  0  0  0  0  0
   46.2535    5.7183   10.2987 H   0  0  0  0  0  0  0  0  0  0  0  0
   43.7378    6.1753   13.8142 H   0  0  0  0  0  0  0  0  0  0  0  0
   43.1697    6.8739   12.3137 H   0  0  0  0  0  0  0  0  0  0  0  0
   45.9228    4.8890   13.9503 H   0  0  0  0  0  0  0  0  0  0  0  0
   46.9460    4.7036   12.5215 H   0  0  0  0  0  0  0  0  0  0  0  0
   53.2584    7.8484   16.7444 H   0  0  0  0  0  0  0  0  0  0  0  0
   48.1595    9.8979   16.0238 H   0  0  0  0  0  0  0  0  0  0  0  0
   44.4733    4.3307    9.2299 H   0  0  0  0  0  0  0  0  0  0  0  0
   41.9808    4.7835   12.7131 H   0  0  0  0  0  0  0  0  0  0  0  0
   45.6905    2.6310   12.9845 H   0  0  0  0  0  0  0  0  0  0  0  0
   51.3627   10.5855   19.4786 H   0  0  0  0  0  0  0  0  0  0  0  0
   47.7782   10.7184   13.4173 H   0  0  0  0  0  0  0  0  0  0  0  0
   50.0618    7.1761   13.2885 H   0  0  0  0  0  0  0  0  0  0  0  0
   49.3623   10.6416   18.0505 H   0  0  0  0  0  0  0  0  0  0  0  0
   52.0512    7.1142   14.7127 H   0  0  0  0  0  0  0  0  0  0  0  0
   45.8109   10.7730   12.0127 H   0  0  0  0  0  0  0  0  0  0  0  0
   42.5115    5.4006   10.3498 H   0  0  0  0  0  0  0  0  0  0  0  0
   42.4794    3.6509   10.5543 H   0  0  0  0  0  0  0  0  0  0  0  0
   44.6749    2.3484   10.7220 H   0  0  0  0  0  0  0  0  0  0  0  0
   46.2114    3.2044   10.6187 H   0  0  0  0  0  0  0  0  0  0  0  0
   43.7178    3.6571   14.1035 H   0  0  0  0  0  0  0  0  0  0  0  0
   43.2030    2.6157   12.7788 H   0  0  0  0  0  0  0  0  0  0  0  0
   55.3190    8.5221   19.3323 H   0  0  0  0  0  0  0  0  0  0  0  0
   44.5971   10.3158   10.0852 H   0  0  0  0  0  0  0  0  0  0  0  0
   42.9747    9.6184   10.1322 H   0  0  0  0  0  0  0  0  0  0  0  0
   43.5497   10.5054   11.5476 H   0  0  0  0  0  0  0  0  0  0  0  0
  1  2  1  1
  3  2  2  0
  4  6  1  0
  5  3  1  0
  6 11  2  0
  7  5  1  0
  8  1  1  0
  9  1  1  0
 10  1  1  0
 11 13  1  0
 12  7  1  0
 13 24  2  0
 14 12  2  0
 15  8  1  0
 16  9  1  0
 17 10  1  0
 18  2  1  0
 19  4  2  0
 20 23  2  0
 21 25  1  0
 22  7  2  0
 23 14  1  0
 24 22  1  0
 25 18  2  0
 26 16  1  0
 27 17  1  0
 28 17  1  0
 29  4  1  0
 30 18  1  0
 31 30  1  0
 28 16  1  0
 27 15  1  0
 26 15  1  0
 21  5  2  0
 13 14  1  0
  6 20  1  0
  3 32  1  0
  8 33  1  0
  8 34  1  0
  9 35  1  0
  9 36  1  0
 10 37  1  0
 10 38  1  0
 11 39  1  0
 12 40  1  0
 15 41  1  1
 16 42  1  6
 17 43  1  6
 20 44  1  0
 21 45  1  0
 22 46  1  0
 23 47  1  0
 24 48  1  0
 25 49  1  0
 26 50  1  0
 26 51  1  0
 27 52  1  0
 27 53  1  0
 28 54  1  0
 28 55  1  0
 29 56  1  0
 31 57  1  0
 31 58  1  0
 31 59  1  0
M  END
> <Uni-Dock RESULT> 
ENERGY=   -4.718  LOWER_BOUND=    4.229  UPPER_BOUND=    5.833
INTER + INTRA:          -4.718
INTER:                  -4.718
INTRA:                   0.000
UNBOUND:                 0.000

$$$$

     RDKit          3D

 59 64  0  0  0  0  0  0  0  0999 V2000
   44.6227   15.5327   12.4006 C   0  0  2  0  0  0  0  0  0  0  0  0
   45.6159   14.4940   11.8150 C   0  0  0  0  0  0  0  0  0  0  0  0
   45.4301   13.1102   12.0489 C   0  0  0  0  0  0  0  0  0  0  0  0
   46.1827    4.3651   13.4975 C   0  0  0  0  0  0  0  0  0  0  0  0
   46.2970   12.1224   11.5456 C   0  0  0  0  0  0  0  0  0  0  0  0
   46.3761    5.8061   13.2069 C   0  0  0  0  0  0  0  0  0  0  0  0
   46.0583   10.6954   11.8148 C   0  0  0  0  0  0  0  0  0  0  0  0
   43.9359   16.3465   11.2612 C   0  0  0  0  0  0  0  0  0  0  0  0
   45.3517   16.5135   13.3693 C   0  0  0  0  0  0  0  0  0  0  0  0
   43.4600   14.8871   13.2325 C   0  0  0  0  0  0  0  0  0  0  0  0
   45.3834    6.5807   12.5937 C   0  0  0  0  0  0  0  0  0  0  0  0
   47.0422    9.9008   12.4278 C   0  0  0  0  0  0  0  0  0  0  0  0
   45.5989    7.9443   12.3323 C   0  0  0  0  0  0  0  0  0  0  0  0
   46.8305    8.5360   12.6919 C   0  0  0  0  0  0  0  0  0  0  0  0
   42.9855   17.4159   11.8287 C   0  0  2  0  0  0  0  0  0  0  0  0
   44.3884   17.5814   13.9177 C   0  0  1  0  0  0  0  0  0  0  0  0
   42.4939   15.9425   13.7976 C   0  0  2  0  0  0  0  0  0  0  0  0
   46.7373   14.8694   11.0335 C   0  0  0  0  0  0  0  0  0  0  0  0
   46.9960    3.6286   14.0241 O   0  0  0  0  0  0  0  0  0  0  0  0
   47.5929    6.3949   13.5626 C   0  0  0  0  0  0  0  0  0  0  0  0
   47.3886   12.5369   10.7830 C   0  0  0  0  0  0  0  0  0  0  0  0
   44.8431   10.0896   11.4671 C   0  0  0  0  0  0  0  0  0  0  0  0
   47.8173    7.7495   13.3069 C   0  0  0  0  0  0  0  0  0  0  0  0
   44.6153    8.7337   11.7207 C   0  0  0  0  0  0  0  0  0  0  0  0
   47.6063   13.8913   10.5294 C   0  0  0  0  0  0  0  0  0  0  0  0
   43.7762   18.3644   12.7447 C   0  0  0  0  0  0  0  0  0  0  0  0
   41.8756   16.7334   12.6379 C   0  0  0  0  0  0  0  0  0  0  0  0
   43.2694   16.8979   14.7133 C   0  0  0  0  0  0  0  0  0  0  0  0
   44.9764    3.9105   13.1142 O   0  0  0  0  0  0  0  0  0  0  0  0
   46.9180   16.2084   10.8050 O   0  0  0  0  0  0  0  0  0  0  0  0
   48.0315   16.6206   10.0248 C   0  0  0  0  0  0  0  0  0  0  0  0
   44.5956   12.7602   12.6510 H   0  0  0  0  0  0  0  0  0  0  0  0
   44.6656   16.8534   10.6226 H   0  0  0  0  0  0  0  0  0  0  0  0
   43.3788   15.6677   10.6014 H   0  0  0  0  0  0  0  0  0  0  0  0
   45.7972   15.9530   14.2023 H   0  0  0  0  0  0  0  0  0  0  0  0
   46.1814   17.0322   12.8793 H   0  0  0  0  0  0  0  0  0  0  0  0
   43.8679   14.3073   14.0715 H   0  0  0  0  0  0  0  0  0  0  0  0
   42.8851   14.1906   12.6075 H   0  0  0  0  0  0  0  0  0  0  0  0
   44.4358    6.1234   12.3171 H   0  0  0  0  0  0  0  0  0  0  0  0
   47.9873   10.3598   12.7151 H   0  0  0  0  0  0  0  0  0  0  0  0
   42.5409   17.9854   11.0046 H   0  0  0  0  0  0  0  0  0  0  0  0
   44.9370   18.2680   14.5724 H   0  0  0  0  0  0  0  0  0  0  0  0
   41.7008   15.4476   14.3694 H   0  0  0  0  0  0  0  0  0  0  0  0
   48.3713    5.8030   14.0404 H   0  0  0  0  0  0  0  0  0  0  0  0
   48.0769   11.8046   10.3661 H   0  0  0  0  0  0  0  0  0  0  0  0
   44.0622   10.6721   10.9815 H   0  0  0  0  0  0  0  0  0  0  0  0
   48.7718    8.1871   13.5931 H   0  0  0  0  0  0  0  0  0  0  0  0
   43.6598    8.3005   11.4325 H   0  0  0  0  0  0  0  0  0  0  0  0
   48.4702   14.1493    9.9263 H   0  0  0  0  0  0  0  0  0  0  0  0
   44.5677   18.8648   12.1734 H   0  0  0  0  0  0  0  0  0  0  0  0
   43.1141   19.1512   13.1270 H   0  0  0  0  0  0  0  0  0  0  0  0
   41.1761   17.4843   13.0253 H   0  0  0  0  0  0  0  0  0  0  0  0
   41.2966   16.0627   11.9913 H   0  0  0  0  0  0  0  0  0  0  0  0
   43.6936   16.3456   15.5609 H   0  0  0  0  0  0  0  0  0  0  0  0
   42.5910   17.6512   15.1321 H   0  0  0  0  0  0  0  0  0  0  0  0
   44.9932    2.9632   13.3655 H   0  0  0  0  0  0  0  0  0  0  0  0
   47.9695   16.2232    9.0065 H   0  0  0  0  0  0  0  0  0  0  0  0
   48.0039   17.7123    9.9561 H   0  0  0  0  0  0  0  0  0  0  0  0
   48.9753   16.3427   10.5050 H   0  0  0  0  0  0  0  0  0  0  0  0
  1  2  1  1
  3  2  2  0
  4  6  1  0
  5  3  1  0
  6 11  2  0
  7  5  1  0
  8  1  1  0
  9  1  1  0
 10  1  1  0
 11 13  1  0
 12  7  1  0
 13 24  2  0
 14 12  2  0
 15  8  1  0
 16  9  1  0
 17 10  1  0
 18  2  1  0
 19  4  2  0
 20 23  2  0
 21 25  1  0
 22  7  2  0
 23 14  1  0
 24 22  1  0
 25 18  2  0
 26 16  1  0
 27 17  1  0
 28 17  1  0
 29  4  1  0
 30 18  1  0
 31 30  1  0
 28 16  1  0
 27 15  1  0
 26 15  1  0
 21  5  2  0
 13 14  1  0
  6 20  1  0
  3 32  1  0
  8 33  1  0
  8 34  1  0
  9 35  1  0
  9 36  1  0
 10 37  1  0
 10 38  1  0
 11 39  1  0
 12 40  1  0
 15 41  1  1
 16 42  1  6
 17 43  1  6
 20 44  1  0
 21 45  1  0
 22 46  1  0
 23 47  1  0
 24 48  1  0
 25 49  1  0
 26 50  1  0
 26 51  1  0
 27 52  1  0
 27 53  1  0
 28 54  1  0
 28 55  1  0
 29 56  1  0
 31 57  1  0
 31 58  1  0
 31 59  1  0
M  END
> <Uni-Dock RESULT> 
ENERGY=   -4.716  LOWER_BOUND=    5.412  UPPER_BOUND=   10.044
INTER + INTRA:          -4.716
INTER:                  -4.716
INTRA:                   0.000
UNBOUND:                 0.000

$$$$

     RDKit          3D

 59 64  0  0  0  0  0  0  0  0999 V2000
   44.6093   15.4640   12.5166 C   0  0  2  0  0  0  0  0  0  0  0  0
   45.5234   14.3078   12.0310 C   0  0  0  0  0  0  0  0  0  0  0  0
   45.0409   12.9775   11.9925 C   0  0  0  0  0  0  0  0  0  0  0  0
   43.8253    4.1669   12.1841 C   0  0  0  0  0  0  0  0  0  0  0  0
   45.8223   11.8886   11.5633 C   0  0  0  0  0  0  0  0  0  0  0  0
   44.3403    5.5573   12.1791 C   0  0  0  0  0  0  0  0  0  0  0  0
   45.2727   10.5236   11.5391 C   0  0  0  0  0  0  0  0  0  0  0  0
   44.4060   16.5213   11.3883 C   0  0  0  0  0  0  0  0  0  0  0  0
   45.2145   16.1598   13.7742 C   0  0  0  0  0  0  0  0  0  0  0  0
   43.1718   14.9931   12.9323 C   0  0  0  0  0  0  0  0  0  0  0  0
   43.6999    6.5847   11.4751 C   0  0  0  0  0  0  0  0  0  0  0  0
   45.9013    9.4786   12.2377 C   0  0  0  0  0  0  0  0  0  0  0  0
   44.2142    7.8922   11.4912 C   0  0  0  0  0  0  0  0  0  0  0  0
   45.3896    8.1689   12.2249 C   0  0  0  0  0  0  0  0  0  0  0  0
   43.5427   17.7003   11.8718 C   0  0  2  0  0  0  0  0  0  0  0  0
   44.3438   17.3422   14.2359 C   0  0  1  0  0  0  0  0  0  0  0  0
   42.2918   16.1621   13.4074 C   0  0  2  0  0  0  0  0  0  0  0  0
   46.8606   14.5196   11.6111 C   0  0  0  0  0  0  0  0  0  0  0  0
   44.3256    3.2235   12.7681 O   0  0  0  0  0  0  0  0  0  0  0  0
   45.5020    5.8348   12.9051 C   0  0  0  0  0  0  0  0  0  0  0  0
   47.1332   12.1426   11.1605 C   0  0  0  0  0  0  0  0  0  0  0  0
   44.1073   10.2285   10.8185 C   0  0  0  0  0  0  0  0  0  0  0  0
   46.0218    7.1310   12.9274 C   0  0  0  0  0  0  0  0  0  0  0  0
   43.5847    8.9320   10.7932 C   0  0  0  0  0  0  0  0  0  0  0  0
   47.6459   13.4398   11.1832 C   0  0  0  0  0  0  0  0  0  0  0  0
   44.2147   18.3573   13.0885 C   0  0  0  0  0  0  0  0  0  0  0  0
   42.1548   17.1848   12.2726 C   0  0  0  0  0  0  0  0  0  0  0  0
   42.9507   16.8290   14.6214 C   0  0  0  0  0  0  0  0  0  0  0  0
   42.7045    4.0205   11.4555 O   0  0  0  0  0  0  0  0  0  0  0  0
   47.3289   15.8069   11.6465 O   0  0  0  0  0  0  0  0  0  0  0  0
   48.6647   16.0559   11.2317 C   0  0  0  0  0  0  0  0  0  0  0  0
   44.0278   12.7492   12.3135 H   0  0  0  0  0  0  0  0  0  0  0  0
   45.3572   16.9281   11.0318 H   0  0  0  0  0  0  0  0  0  0  0  0
   43.9345   16.0497   10.5155 H   0  0  0  0  0  0  0  0  0  0  0  0
   45.3156   15.4323   14.5908 H   0  0  0  0  0  0  0  0  0  0  0  0
   46.2228   16.5412   13.5859 H   0  0  0  0  0  0  0  0  0  0  0  0
   43.2322   14.2542   13.7427 H   0  0  0  0  0  0  0  0  0  0  0  0
   42.6710   14.5044   12.0858 H   0  0  0  0  0  0  0  0  0  0  0  0
   42.7952    6.3698   10.9104 H   0  0  0  0  0  0  0  0  0  0  0  0
   46.8010    9.6946   12.8123 H   0  0  0  0  0  0  0  0  0  0  0  0
   43.4417   18.4354   11.0652 H   0  0  0  0  0  0  0  0  0  0  0  0
   44.8100   17.8237   15.1030 H   0  0  0  0  0  0  0  0  0  0  0  0
   41.3006   15.7874   13.6865 H   0  0  0  0  0  0  0  0  0  0  0  0
   46.0077    5.0444   13.4567 H   0  0  0  0  0  0  0  0  0  0  0  0
   47.7674   11.3303   10.8114 H   0  0  0  0  0  0  0  0  0  0  0  0
   43.5996   11.0109   10.2574 H   0  0  0  0  0  0  0  0  0  0  0  0
   46.9269    7.3242   13.4998 H   0  0  0  0  0  0  0  0  0  0  0  0
   42.6799    8.7433   10.2193 H   0  0  0  0  0  0  0  0  0  0  0  0
   48.6709   13.5726   10.8538 H   0  0  0  0  0  0  0  0  0  0  0  0
   45.2054   18.7375   12.8104 H   0  0  0  0  0  0  0  0  0  0  0  0
   43.6242   19.2206   13.4194 H   0  0  0  0  0  0  0  0  0  0  0  0
   41.5211   18.0206   12.5936 H   0  0  0  0  0  0  0  0  0  0  0  0
   41.6605   16.7243   11.4084 H   0  0  0  0  0  0  0  0  0  0  0  0
   43.0291   16.1124   15.4482 H   0  0  0  0  0  0  0  0  0  0  0  0
   42.3291   17.6594   14.9780 H   0  0  0  0  0  0  0  0  0  0  0  0
   42.4863    3.0696   11.5510 H   0  0  0  0  0  0  0  0  0  0  0  0
   48.8076   15.7915   10.1789 H   0  0  0  0  0  0  0  0  0  0  0  0
   48.8494   17.1298   11.3312 H   0  0  0  0  0  0  0  0  0  0  0  0
   49.3819   15.5355   11.8749 H   0  0  0  0  0  0  0  0  0  0  0  0
  1  2  1  1
  3  2  2  0
  4  6  1  0
  5  3  1  0
  6 11  2  0
  7  5  1  0
  8  1  1  0
  9  1  1  0
 10  1  1  0
 11 13  1  0
 12  7  1  0
 13 24  2  0
 14 12  2  0
 15  8  1  0
 16  9  1  0
 17 10  1  0
 18  2  1  0
 19  4  2  0
 20 23  2  0
 21 25  1  0
 22  7  2  0
 23 14  1  0
 24 22  1  0
 25 18  2  0
 26 16  1  0
 27 17  1  0
 28 17  1  0
 29  4  1  0
 30 18  1  0
 31 30  1  0
 28 16  1  0
 27 15  1  0
 26 15  1  0
 21  5  2  0
 13 14  1  0
  6 20  1  0
  3 32  1  0
  8 33  1  0
  8 34  1  0
  9 35  1  0
  9 36  1  0
 10 37  1  0
 10 38  1  0
 11 39  1  0
 12 40  1  0
 15 41  1  1
 16 42  1  6
 17 43  1  6
 20 44  1  0
 21 45  1  0
 22 46  1  0
 23 47  1  0
 24 48  1  0
 25 49  1  0
 26 50  1  0
 26 51  1  0
 27 52  1  0
 27 53  1  0
 28 54  1  0
 28 55  1  0
 29 56  1  0
 31 57  1  0
 31 58  1  0
 31 59  1  0
M  END
> <Uni-Dock RESULT> 
ENERGY=   -4.709  LOWER_BOUND=    5.539  UPPER_BOUND=   10.344
INTER + INTRA:          -4.709
INTER:                  -4.709
INTRA:                   0.000
UNBOUND:                 0.000

$$$$

     RDKit          3D

 59 64  0  0  0  0  0  0  0  0999 V2000
   44.5142   11.6195   10.9556 C   0  0  2  0  0  0  0  0  0  0  0  0
   45.9255   11.0713   11.2961 C   0  0  0  0  0  0  0  0  0  0  0  0
   46.0725    9.8971   12.0731 C   0  0  0  0  0  0  0  0  0  0  0  0
   48.5772    3.3957   17.6048 C   0  0  0  0  0  0  0  0  0  0  0  0
   47.3247    9.3533   12.4147 C   0  0  0  0  0  0  0  0  0  0  0  0
   48.4477    4.6054   16.7572 C   0  0  0  0  0  0  0  0  0  0  0  0
   47.4242    8.1275   13.2231 C   0  0  0  0  0  0  0  0  0  0  0  0
   44.2878   11.6477    9.4129 C   0  0  0  0  0  0  0  0  0  0  0  0
   44.3220   13.0555   11.5326 C   0  0  0  0  0  0  0  0  0  0  0  0
   43.3471   10.7552   11.5485 C   0  0  0  0  0  0  0  0  0  0  0  0
   47.7202    4.6003   15.5605 C   0  0  0  0  0  0  0  0  0  0  0  0
   48.1506    8.1117   14.4260 C   0  0  0  0  0  0  0  0  0  0  0  0
   47.6171    5.7643   14.7805 C   0  0  0  0  0  0  0  0  0  0  0  0
   48.2557    6.9492   15.2101 C   0  0  0  0  0  0  0  0  0  0  0  0
   42.9110   12.2370    9.0575 C   0  0  2  0  0  0  0  0  0  0  0  0
   42.9449   13.6320   11.1580 C   0  0  1  0  0  0  0  0  0  0  0  0
   41.9630   11.3246   11.1924 C   0  0  2  0  0  0  0  0  0  0  0  0
   47.1148   11.7054   10.8572 C   0  0  0  0  0  0  0  0  0  0  0  0
   49.1916    3.3220   18.6529 O   0  0  0  0  0  0  0  0  0  0  0  0
   49.0771    5.7795   17.1801 C   0  0  0  0  0  0  0  0  0  0  0  0
   48.4687   10.0108   11.9629 C   0  0  0  0  0  0  0  0  0  0  0  0
   46.7970    6.9422   12.8152 C   0  0  0  0  0  0  0  0  0  0  0  0
   48.9811    6.9421   16.4120 C   0  0  0  0  0  0  0  0  0  0  0  0
   46.8917    5.7765   13.5812 C   0  0  0  0  0  0  0  0  0  0  0  0
   48.3662   11.1704   11.1943 C   0  0  0  0  0  0  0  0  0  0  0  0
   42.8051   13.6611    9.6272 C   0  0  0  0  0  0  0  0  0  0  0  0
   41.8092   11.3610    9.6668 C   0  0  0  0  0  0  0  0  0  0  0  0
   41.8428   12.7470   11.7535 C   0  0  0  0  0  0  0  0  0  0  0  0
   47.9298    2.3305   17.1001 O   0  0  0  0  0  0  0  0  0  0  0  0
   46.9743   12.8414   10.1039 O   0  0  0  0  0  0  0  0  0  0  0  0
   48.1456   13.5026    9.6462 C   0  0  0  0  0  0  0  0  0  0  0  0
   45.1982    9.3723   12.4496 H   0  0  0  0  0  0  0  0  0  0  0  0
   45.0484   12.2422    8.8979 H   0  0  0  0  0  0  0  0  0  0  0  0
   44.3729   10.6315    9.0046 H   0  0  0  0  0  0  0  0  0  0  0  0
   44.4313   13.0363   12.6254 H   0  0  0  0  0  0  0  0  0  0  0  0
   45.0852   13.7494   11.1672 H   0  0  0  0  0  0  0  0  0  0  0  0
   43.4287   10.7035   12.6425 H   0  0  0  0  0  0  0  0  0  0  0  0
   43.4054    9.7254   11.1709 H   0  0  0  0  0  0  0  0  0  0  0  0
   47.2294    3.6870   15.2310 H   0  0  0  0  0  0  0  0  0  0  0  0
   48.6335    9.0281   14.7627 H   0  0  0  0  0  0  0  0  0  0  0  0
   42.7952   12.2666    7.9681 H   0  0  0  0  0  0  0  0  0  0  0  0
   42.8531   14.6492   11.5556 H   0  0  0  0  0  0  0  0  0  0  0  0
   41.1811   10.6909   11.6259 H   0  0  0  0  0  0  0  0  0  0  0  0
   49.6445    5.7955   18.1089 H   0  0  0  0  0  0  0  0  0  0  0  0
   49.4560    9.6173   12.1958 H   0  0  0  0  0  0  0  0  0  0  0  0
   46.2344    6.9150   11.8838 H   0  0  0  0  0  0  0  0  0  0  0  0
   49.4786    7.8449   16.7609 H   0  0  0  0  0  0  0  0  0  0  0  0
   46.3932    4.8761   13.2282 H   0  0  0  0  0  0  0  0  0  0  0  0
   49.2924   11.6326   10.8700 H   0  0  0  0  0  0  0  0  0  0  0  0
   43.5839   14.2988    9.1911 H   0  0  0  0  0  0  0  0  0  0  0  0
   41.8401   14.1027    9.3494 H   0  0  0  0  0  0  0  0  0  0  0  0
   40.8221   11.7562    9.3973 H   0  0  0  0  0  0  0  0  0  0  0  0
   41.8674   10.3448    9.2581 H   0  0  0  0  0  0  0  0  0  0  0  0
   41.9251   12.7285   12.8473 H   0  0  0  0  0  0  0  0  0  0  0  0
   40.8562   13.1632   11.5158 H   0  0  0  0  0  0  0  0  0  0  0  0
   48.1012    1.6213   17.7548 H   0  0  0  0  0  0  0  0  0  0  0  0
   48.7279   12.8587    8.9790 H   0  0  0  0  0  0  0  0  0  0  0  0
   47.8302   14.3774    9.0695 H   0  0  0  0  0  0  0  0  0  0  0  0
   48.7515   13.8598   10.4852 H   0  0  0  0  0  0  0  0  0  0  0  0
  1  2  1  1
  3  2  2  0
  4  6  1  0
  5  3  1  0
  6 11  2  0
  7  5  1  0
  8  1  1  0
  9  1  1  0
 10  1  1  0
 11 13  1  0
 12  7  1  0
 13 24  2  0
 14 12  2  0
 15  8  1  0
 16  9  1  0
 17 10  1  0
 18  2  1  0
 19  4  2  0
 20 23  2  0
 21 25  1  0
 22  7  2  0
 23 14  1  0
 24 22  1  0
 25 18  2  0
 26 16  1  0
 27 17  1  0
 28 17  1  0
 29  4  1  0
 30 18  1  0
 31 30  1  0
 28 16  1  0
 27 15  1  0
 26 15  1  0
 21  5  2  0
 13 14  1  0
  6 20  1  0
  3 32  1  0
  8 33  1  0
  8 34  1  0
  9 35  1  0
  9 36  1  0
 10 37  1  0
 10 38  1  0
 11 39  1  0
 12 40  1  0
 15 41  1  1
 16 42  1  6
 17 43  1  6
 20 44  1  0
 21 45  1  0
 22 46  1  0
 23 47  1  0
 24 48  1  0
 25 49  1  0
 26 50  1  0
 26 51  1  0
 27 52  1  0
 27 53  1  0
 28 54  1  0
 28 55  1  0
 29 56  1  0
 31 57  1  0
 31 58  1  0
 31 59  1  0
M  END
> <Uni-Dock RESULT> 
ENERGY=   -4.594  LOWER_BOUND=    3.971  UPPER_BOUND=    8.459
INTER + INTRA:          -4.594
INTER:                  -4.594
INTRA:                   0.000
UNBOUND:                 0.000

$$$$
