
     RDKit          3D

 59 64  0  0  0  0  0  0  0  0999 V2000
   45.4842    5.7525   12.4056 C   0  0  2  0  0  0  0  0  0  0  0  0
   46.3718    6.8683   13.0183 C   0  0  0  0  0  0  0  0  0  0  0  0
   47.4826    6.5382   13.8316 C   0  0  0  0  0  0  0  0  0  0  0  0
   55.1748    5.9852   18.2217 C   0  0  0  0  0  0  0  0  0  0  0  0
   48.3237    7.5049   14.4132 C   0  0  0  0  0  0  0  0  0  0  0  0
   54.0563    6.4083   17.3452 C   0  0  0  0  0  0  0  0  0  0  0  0
   49.4651    7.1098   15.2538 C   0  0  0  0  0  0  0  0  0  0  0  0
   45.9511    4.3033   12.7831 C   0  0  0  0  0  0  0  0  0  0  0  0
   45.5048    5.8191   10.8477 C   0  0  0  0  0  0  0  0  0  0  0  0
   44.0132    5.8754   12.9089 C   0  0  0  0  0  0  0  0  0  0  0  0
   52.7625    5.9799   17.6685 C   0  0  0  0  0  0  0  0  0  0  0  0
   50.7699    7.5317   14.9461 C   0  0  0  0  0  0  0  0  0  0  0  0
   51.6646    6.3493   16.8744 C   0  0  0  0  0  0  0  0  0  0  0  0
   51.8715    7.1631   15.7386 C   0  0  0  0  0  0  0  0  0  0  0  0
   45.0506    3.2221   12.1612 C   0  0  2  0  0  0  0  0  0  0  0  0
   44.5874    4.7500   10.2274 C   0  0  1  0  0  0  0  0  0  0  0  0
   43.1093    4.8059   12.2699 C   0  0  2  0  0  0  0  0  0  0  0  0
   46.1222    8.2463   12.7990 C   0  0  0  0  0  0  0  0  0  0  0  0
   55.0783    5.2881   19.2148 O   0  0  0  0  0  0  0  0  0  0  0  0
   54.2588    7.2123   16.2200 C   0  0  0  0  0  0  0  0  0  0  0  0
   48.0422    8.8489   14.1693 C   0  0  0  0  0  0  0  0  0  0  0  0
   49.2819    6.3018   16.3845 C   0  0  0  0  0  0  0  0  0  0  0  0
   53.1729    7.5857   15.4237 C   0  0  0  0  0  0  0  0  0  0  0  0
   50.3649    5.9267   17.1849 C   0  0  0  0  0  0  0  0  0  0  0  0
   46.9565    9.2155   13.3738 C   0  0  0  0  0  0  0  0  0  0  0  0
   45.0820    3.3562   10.6337 C   0  0  0  0  0  0  0  0  0  0  0  0
   43.6136    3.4117   12.6629 C   0  0  0  0  0  0  0  0  0  0  0  0
   43.1520    4.9523   10.7400 C   0  0  0  0  0  0  0  0  0  0  0  0
   56.3663    6.4561   17.8133 O   0  0  0  0  0  0  0  0  0  0  0  0
   45.0469    8.5678   12.0126 O   0  0  0  0  0  0  0  0  0  0  0  0
   44.7595    9.9399   11.7823 C   0  0  0  0  0  0  0  0  0  0  0  0
   47.7328    5.4986   14.0271 H   0  0  0  0  0  0  0  0  0  0  0  0
   45.9461    4.1730   13.8736 H   0  0  0  0  0  0  0  0  0  0  0  0
   46.9811    4.1336   12.4419 H   0  0  0  0  0  0  0  0  0  0  0  0
   45.1798    6.7952   10.4750 H   0  0  0  0  0  0  0  0  0  0  0  0
   46.5318    5.6842   10.4820 H   0  0  0  0  0  0  0  0  0  0  0  0
   43.5830    6.8555   12.6817 H   0  0  0  0  0  0  0  0  0  0  0  0
   43.9840    5.7803   14.0028 H   0  0  0  0  0  0  0  0  0  0  0  0
   52.6122    5.3530   18.5463 H   0  0  0  0  0  0  0  0  0  0  0  0
   50.9300    8.1499   14.0637 H   0  0  0  0  0  0  0  0  0  0  0  0
   45.4132    2.2292   12.4508 H   0  0  0  0  0  0  0  0  0  0  0  0
   44.6048    4.8413    9.1354 H   0  0  0  0  0  0  0  0  0  0  0  0
   42.0804    4.9368   12.6237 H   0  0  0  0  0  0  0  0  0  0  0  0
   55.2556    7.5541   15.9522 H   0  0  0  0  0  0  0  0  0  0  0  0
   48.6615    9.6280   14.6090 H   0  0  0  0  0  0  0  0  0  0  0  0
   48.2839    5.9649   16.6589 H   0  0  0  0  0  0  0  0  0  0  0  0
   53.3522    8.2115   14.5516 H   0  0  0  0  0  0  0  0  0  0  0  0
   50.1809    5.3012   18.0561 H   0  0  0  0  0  0  0  0  0  0  0  0
   46.7880   10.2768   13.2248 H   0  0  0  0  0  0  0  0  0  0  0  0
   44.4514    2.5846   10.1750 H   0  0  0  0  0  0  0  0  0  0  0  0
   46.1016    3.1958   10.2624 H   0  0  0  0  0  0  0  0  0  0  0  0
   42.9609    2.6410   12.2351 H   0  0  0  0  0  0  0  0  0  0  0  0
   43.5762    3.2914   13.7525 H   0  0  0  0  0  0  0  0  0  0  0  0
   42.4837    4.2161   10.2764 H   0  0  0  0  0  0  0  0  0  0  0  0
   42.7850    5.9436   10.4473 H   0  0  0  0  0  0  0  0  0  0  0  0
   56.9968    6.1018   18.4751 H   0  0  0  0  0  0  0  0  0  0  0  0
   45.5796   10.4313   11.2489 H   0  0  0  0  0  0  0  0  0  0  0  0
   44.5251   10.4574   12.7182 H   0  0  0  0  0  0  0  0  0  0  0  0
   43.8718    9.9914   11.1444 H   0  0  0  0  0  0  0  0  0  0  0  0
  1  2  1  6
  3  2  2  0
  4  6  1  0
  5  3  1  0
  6 11  2  0
  7  5  1  0
  8  1  1  0
  9  1  1  0
 10  1  1  0
 11 13  1  0
 12  7  1  0
 13 24  2  0
 14 12  2  0
 15  8  1  0
 16  9  1  0
 17 10  1  0
 18  2  1  0
 19  4  2  0
 20 23  2  0
 21 25  1  0
 22  7  2  0
 23 14  1  0
 24 22  1  0
 25 18  2  0
 26 16  1  0
 27 17  1  0
 28 17  1  0
 29  4  1  0
 30 18  1  0
 31 30  1  0
 28 16  1  0
 27 15  1  0
 26 15  1  0
 21  5  2  0
 13 14  1  0
  6 20  1  0
  3 32  1  0
  8 33  1  0
  8 34  1  0
  9 35  1  0
  9 36  1  0
 10 37  1  0
 10 38  1  0
 11 39  1  0
 12 40  1  0
 15 41  1  1
 16 42  1  1
 17 43  1  6
 20 44  1  0
 21 45  1  0
 22 46  1  0
 23 47  1  0
 24 48  1  0
 25 49  1  0
 26 50  1  0
 26 51  1  0
 27 52  1  0
 27 53  1  0
 28 54  1  0
 28 55  1  0
 29 56  1  0
 31 57  1  0
 31 58  1  0
 31 59  1  0
M  END
> <Uni-Dock RESULT> 
ENERGY=   -6.066  LOWER_BOUND=    0.000  UPPER_BOUND=    0.000
INTER + INTRA:          -6.066
INTER:                  -6.066
INTRA:                   0.000
UNBOUND:                 0.000

$$$$

     RDKit          3D

 59 64  0  0  0  0  0  0  0  0999 V2000
   49.2041    6.9264   20.2067 C   0  0  2  0  0  0  0  0  0  0  0  0
   49.6136    6.9012   18.7101 C   0  0  0  0  0  0  0  0  0  0  0  0
   48.7592    6.3234   17.7404 C   0  0  0  0  0  0  0  0  0  0  0  0
   44.1045    3.9762   10.5590 C   0  0  0  0  0  0  0  0  0  0  0  0
   49.0755    6.2722   16.3701 C   0  0  0  0  0  0  0  0  0  0  0  0
   45.0316    4.6377   11.5082 C   0  0  0  0  0  0  0  0  0  0  0  0
   48.1535    5.6577   15.4016 C   0  0  0  0  0  0  0  0  0  0  0  0
   47.8074    6.2686   20.4845 C   0  0  0  0  0  0  0  0  0  0  0  0
   49.1013    8.3919   20.7298 C   0  0  0  0  0  0  0  0  0  0  0  0
   50.2314    6.1381   21.0758 C   0  0  0  0  0  0  0  0  0  0  0  0
   45.4980    3.8985   12.6027 C   0  0  0  0  0  0  0  0  0  0  0  0
   47.6767    6.3833   14.2965 C   0  0  0  0  0  0  0  0  0  0  0  0
   46.3777    4.4730   13.5346 C   0  0  0  0  0  0  0  0  0  0  0  0
   46.7953    5.8113   13.3619 C   0  0  0  0  0  0  0  0  0  0  0  0
   47.4322    6.3092   21.9760 C   0  0  2  0  0  0  0  0  0  0  0  0
   48.7460    8.4305   22.2270 C   0  0  1  0  0  0  0  0  0  0  0  0
   49.8660    6.1971   22.5699 C   0  0  2  0  0  0  0  0  0  0  0  0
   50.8379    7.4449   18.2464 C   0  0  0  0  0  0  0  0  0  0  0  0
   43.7001    2.8309   10.6379 O   0  0  0  0  0  0  0  0  0  0  0  0
   45.4450    5.9622   11.3402 C   0  0  0  0  0  0  0  0  0  0  0  0
   50.2896    6.8209   15.9579 C   0  0  0  0  0  0  0  0  0  0  0  0
   47.7259    4.3316   15.5550 C   0  0  0  0  0  0  0  0  0  0  0  0
   46.3204    6.5430   12.2617 C   0  0  0  0  0  0  0  0  0  0  0  0
   46.8512    3.7459   14.6353 C   0  0  0  0  0  0  0  0  0  0  0  0
   51.1596    7.3990   16.8825 C   0  0  0  0  0  0  0  0  0  0  0  0
   47.3793    7.7690   22.4436 C   0  0  0  0  0  0  0  0  0  0  0  0
   48.4919    5.5502   22.7842 C   0  0  0  0  0  0  0  0  0  0  0  0
   49.8158    7.6654   23.0233 C   0  0  0  0  0  0  0  0  0  0  0  0
   43.7253    4.7817    9.5511 O   0  0  0  0  0  0  0  0  0  0  0  0
   51.6667    8.0039   19.1838 O   0  0  0  0  0  0  0  0  0  0  0  0
   52.9079    8.5468   18.7561 C   0  0  0  0  0  0  0  0  0  0  0  0
   47.8012    5.9006   18.0319 H   0  0  0  0  0  0  0  0  0  0  0  0
   47.8073    5.2207   20.1558 H   0  0  0  0  0  0  0  0  0  0  0  0
   47.0226    6.7858   19.9164 H   0  0  0  0  0  0  0  0  0  0  0  0
   50.0375    8.9419   20.5944 H   0  0  0  0  0  0  0  0  0  0  0  0
   48.3437    8.9412   20.1545 H   0  0  0  0  0  0  0  0  0  0  0  0
   51.2474    6.5291   20.9648 H   0  0  0  0  0  0  0  0  0  0  0  0
   50.2742    5.0914   20.7455 H   0  0  0  0  0  0  0  0  0  0  0  0
   45.1712    2.8672   12.7277 H   0  0  0  0  0  0  0  0  0  0  0  0
   47.9904    7.4187   14.1703 H   0  0  0  0  0  0  0  0  0  0  0  0
   46.4525    5.8404   22.1223 H   0  0  0  0  0  0  0  0  0  0  0  0
   48.7075    9.4714   22.5676 H   0  0  0  0  0  0  0  0  0  0  0  0
   50.6204    5.6572   23.1532 H   0  0  0  0  0  0  0  0  0  0  0  0
   45.0932    6.5525   10.4976 H   0  0  0  0  0  0  0  0  0  0  0  0
   50.5769    6.7923   14.9089 H   0  0  0  0  0  0  0  0  0  0  0  0
   48.0829    3.7364   16.3935 H   0  0  0  0  0  0  0  0  0  0  0  0
   46.6296    7.5758   12.1130 H   0  0  0  0  0  0  0  0  0  0  0  0
   46.5450    2.7129   14.7876 H   0  0  0  0  0  0  0  0  0  0  0  0
   52.0900    7.8051   16.5000 H   0  0  0  0  0  0  0  0  0  0  0  0
   47.1029    7.8146   23.5042 H   0  0  0  0  0  0  0  0  0  0  0  0
   46.6054    8.3142   21.8895 H   0  0  0  0  0  0  0  0  0  0  0  0
   48.2325    5.5622   23.8498 H   0  0  0  0  0  0  0  0  0  0  0  0
   48.5191    4.4981   22.4752 H   0  0  0  0  0  0  0  0  0  0  0  0
   49.5898    7.7168   24.0956 H   0  0  0  0  0  0  0  0  0  0  0  0
   50.7967    8.1357   22.8822 H   0  0  0  0  0  0  0  0  0  0  0  0
   43.1261    4.2199    9.0159 H   0  0  0  0  0  0  0  0  0  0  0  0
   52.7566    9.3834   18.0663 H   0  0  0  0  0  0  0  0  0  0  0  0
   53.5459    7.7748   18.3137 H   0  0  0  0  0  0  0  0  0  0  0  0
   53.4232    8.9355   19.6398 H   0  0  0  0  0  0  0  0  0  0  0  0
  1  2  1  6
  3  2  2  0
  4  6  1  0
  5  3  1  0
  6 11  2  0
  7  5  1  0
  8  1  1  0
  9  1  1  0
 10  1  1  0
 11 13  1  0
 12  7  1  0
 13 24  2  0
 14 12  2  0
 15  8  1  0
 16  9  1  0
 17 10  1  0
 18  2  1  0
 19  4  2  0
 20 23  2  0
 21 25  1  0
 22  7  2  0
 23 14  1  0
 24 22  1  0
 25 18  2  0
 26 16  1  0
 27 17  1  0
 28 17  1  0
 29  4  1  0
 30 18  1  0
 31 30  1  0
 28 16  1  0
 27 15  1  0
 26 15  1  0
 21  5  2  0
 13 14  1  0
  6 20  1  0
  3 32  1  0
  8 33  1  0
  8 34  1  0
  9 35  1  0
  9 36  1  0
 10 37  1  0
 10 38  1  0
 11 39  1  0
 12 40  1  0
 15 41  1  1
 16 42  1  1
 17 43  1  6
 20 44  1  0
 21 45  1  0
 22 46  1  0
 23 47  1  0
 24 48  1  0
 25 49  1  0
 26 50  1  0
 26 51  1  0
 27 52  1  0
 27 53  1  0
 28 54  1  0
 28 55  1  0
 29 56  1  0
 31 57  1  0
 31 58  1  0
 31 59  1  0
M  END
> <Uni-Dock RESULT> 
ENERGY=   -5.069  LOWER_BOUND=    3.550  UPPER_BOUND=    9.485
INTER + INTRA:          -5.069
INTER:                  -5.069
INTRA:                   0.000
UNBOUND:                 0.000

$$$$

     RDKit          3D

 59 64  0  0  0  0  0  0  0  0999 V2000
   49.5303    6.2794   17.4343 C   0  0  2  0  0  0  0  0  0  0  0  0
   49.7009    6.9808   16.0606 C   0  0  0  0  0  0  0  0  0  0  0  0
   48.5678    7.3728   15.3078 C   0  0  0  0  0  0  0  0  0  0  0  0
   42.5426   11.1959   10.0324 C   0  0  0  0  0  0  0  0  0  0  0  0
   48.6594    8.0127   14.0578 C   0  0  0  0  0  0  0  0  0  0  0  0
   43.7759   10.8551   10.7815 C   0  0  0  0  0  0  0  0  0  0  0  0
   47.4502    8.3983   13.3130 C   0  0  0  0  0  0  0  0  0  0  0  0
   48.0319    6.0755   17.8512 C   0  0  0  0  0  0  0  0  0  0  0  0
   50.1829    7.1218   18.5728 C   0  0  0  0  0  0  0  0  0  0  0  0
   50.1684    4.8565   17.4133 C   0  0  0  0  0  0  0  0  0  0  0  0
   43.9712    9.5222   11.1650 C   0  0  0  0  0  0  0  0  0  0  0  0
   47.2382    9.7303   12.9182 C   0  0  0  0  0  0  0  0  0  0  0  0
   45.1204    9.1410   11.8766 C   0  0  0  0  0  0  0  0  0  0  0  0
   46.0883   10.1155   12.2062 C   0  0  0  0  0  0  0  0  0  0  0  0
   47.8979    5.3777   19.2157 C   0  0  2  0  0  0  0  0  0  0  0  0
   50.0662    6.4127   19.9341 C   0  0  1  0  0  0  0  0  0  0  0  0
   50.0519    4.1679   18.7850 C   0  0  2  0  0  0  0  0  0  0  0  0
   50.9730    7.2600   15.5009 C   0  0  0  0  0  0  0  0  0  0  0  0
   41.6649   10.4162    9.7110 O   0  0  0  0  0  0  0  0  0  0  0  0
   44.7342   11.8180   11.1100 C   0  0  0  0  0  0  0  0  0  0  0  0
   49.9311    8.2698   13.5459 C   0  0  0  0  0  0  0  0  0  0  0  0
   46.4769    7.4472   12.9769 C   0  0  0  0  0  0  0  0  0  0  0  0
   45.8814   11.4488   11.8175 C   0  0  0  0  0  0  0  0  0  0  0  0
   45.3283    7.8114   12.2682 C   0  0  0  0  0  0  0  0  0  0  0  0
   51.0725    7.8985   14.2567 C   0  0  0  0  0  0  0  0  0  0  0  0
   48.5852    6.2313   20.2888 C   0  0  0  0  0  0  0  0  0  0  0  0
   48.5709    4.0012   19.1472 C   0  0  0  0  0  0  0  0  0  0  0  0
   50.7438    5.0352   19.8495 C   0  0  0  0  0  0  0  0  0  0  0  0
   42.4648   12.5013    9.7190 O   0  0  0  0  0  0  0  0  0  0  0  0
   52.0709    6.8804   16.2278 O   0  0  0  0  0  0  0  0  0  0  0  0
   53.3618    7.1331   15.6912 C   0  0  0  0  0  0  0  0  0  0  0  0
   47.5652    7.1969   15.6889 H   0  0  0  0  0  0  0  0  0  0  0  0
   47.5059    5.4711   17.1000 H   0  0  0  0  0  0  0  0  0  0  0  0
   47.5162    7.0437   17.9060 H   0  0  0  0  0  0  0  0  0  0  0  0
   51.2440    7.3120   18.3852 H   0  0  0  0  0  0  0  0  0  0  0  0
   49.7053    8.1095   18.6269 H   0  0  0  0  0  0  0  0  0  0  0  0
   51.2285    4.8868   17.1437 H   0  0  0  0  0  0  0  0  0  0  0  0
   49.6805    4.2400   16.6462 H   0  0  0  0  0  0  0  0  0  0  0  0
   43.2200    8.7774   10.9062 H   0  0  0  0  0  0  0  0  0  0  0  0
   47.9796   10.4831   13.1826 H   0  0  0  0  0  0  0  0  0  0  0  0
   46.8377    5.2567   19.4653 H   0  0  0  0  0  0  0  0  0  0  0  0
   50.5565    7.0176   20.7054 H   0  0  0  0  0  0  0  0  0  0  0  0
   50.5321    3.1838   18.7428 H   0  0  0  0  0  0  0  0  0  0  0  0
   44.6001   12.8577   10.8220 H   0  0  0  0  0  0  0  0  0  0  0  0
   50.0457    8.7529   12.5779 H   0  0  0  0  0  0  0  0  0  0  0  0
   46.6128    6.4042   13.2574 H   0  0  0  0  0  0  0  0  0  0  0  0
   46.6149   12.2139   12.0640 H   0  0  0  0  0  0  0  0  0  0  0  0
   44.5977    7.0430   12.0235 H   0  0  0  0  0  0  0  0  0  0  0  0
   52.0325    8.1225   13.8036 H   0  0  0  0  0  0  0  0  0  0  0  0
   48.4894    5.7508   21.2703 H   0  0  0  0  0  0  0  0  0  0  0  0
   48.0938    7.2091   20.3641 H   0  0  0  0  0  0  0  0  0  0  0  0
   48.4749    3.4869   20.1112 H   0  0  0  0  0  0  0  0  0  0  0  0
   48.0693    3.3735   18.4005 H   0  0  0  0  0  0  0  0  0  0  0  0
   50.6962    4.5361   20.8252 H   0  0  0  0  0  0  0  0  0  0  0  0
   51.8064    5.1538   19.6045 H   0  0  0  0  0  0  0  0  0  0  0  0
   41.6147   12.5755    9.2366 H   0  0  0  0  0  0  0  0  0  0  0  0
   53.5361    8.2071   15.5701 H   0  0  0  0  0  0  0  0  0  0  0  0
   53.5106    6.5956   14.7490 H   0  0  0  0  0  0  0  0  0  0  0  0
   54.0992    6.7567   16.4068 H   0  0  0  0  0  0  0  0  0  0  0  0
  1  2  1  6
  3  2  2  0
  4  6  1  0
  5  3  1  0
  6 11  2  0
  7  5  1  0
  8  1  1  0
  9  1  1  0
 10  1  1  0
 11 13  1  0
 12  7  1  0
 13 24  2  0
 14 12  2  0
 15  8  1  0
 16  9  1  0
 17 10  1  0
 18  2  1  0
 19  4  2  0
 20 23  2  0
 21 25  1  0
 22  7  2  0
 23 14  1  0
 24 22  1  0
 25 18  2  0
 26 16  1  0
 27 17  1  0
 28 17  1  0
 29  4  1  0
 30 18  1  0
 31 30  1  0
 28 16  1  0
 27 15  1  0
 26 15  1  0
 21  5  2  0
 13 14  1  0
  6 20  1  0
  3 32  1  0
  8 33  1  0
  8 34  1  0
  9 35  1  0
  9 36  1  0
 10 37  1  0
 10 38  1  0
 11 39  1  0
 12 40  1  0
 15 41  1  1
 16 42  1  1
 17 43  1  6
 20 44  1  0
 21 45  1  0
 22 46  1  0
 23 47  1  0
 24 48  1  0
 25 49  1  0
 26 50  1  0
 26 51  1  0
 27 52  1  0
 27 53  1  0
 28 54  1  0
 28 55  1  0
 29 56  1  0
 31 57  1  0
 31 58  1  0
 31 59  1  0
M  END
> <Uni-Dock RESULT> 
ENERGY=   -4.984  LOWER_BOUND=    2.737  UPPER_BOUND=    9.276
INTER + INTRA:          -4.984
INTER:                  -4.984
INTRA:                   0.000
UNBOUND:                 0.000

$$$$

     RDKit          3D

 59 64  0  0  0  0  0  0  0  0999 V2000
   45.8888    5.2028   12.5819 C   0  0  2  0  0  0  0  0  0  0  0  0
   47.1059    5.7963   13.3400 C   0  0  0  0  0  0  0  0  0  0  0  0
   47.9565    6.7366   12.7102 C   0  0  0  0  0  0  0  0  0  0  0  0
   53.4740   13.3082   10.4477 C   0  0  0  0  0  0  0  0  0  0  0  0
   49.0732    7.3097   13.3464 C   0  0  0  0  0  0  0  0  0  0  0  0
   52.6046   12.3629   11.1885 C   0  0  0  0  0  0  0  0  0  0  0  0
   49.9284    8.2816   12.6467 C   0  0  0  0  0  0  0  0  0  0  0  0
   45.7362    5.7479   11.1190 C   0  0  0  0  0  0  0  0  0  0  0  0
   44.5558    5.5512   13.3123 C   0  0  0  0  0  0  0  0  0  0  0  0
   46.0179    3.6540   12.4526 C   0  0  0  0  0  0  0  0  0  0  0  0
   52.3918   11.0910   10.6418 C   0  0  0  0  0  0  0  0  0  0  0  0
   50.1550    9.5616   13.1810 C   0  0  0  0  0  0  0  0  0  0  0  0
   51.5775   10.1542   11.2990 C   0  0  0  0  0  0  0  0  0  0  0  0
   50.9691   10.5022   12.5253 C   0  0  0  0  0  0  0  0  0  0  0  0
   44.5221    5.1397   10.3958 C   0  0  2  0  0  0  0  0  0  0  0  0
   43.3439    4.9249   12.5991 C   0  0  1  0  0  0  0  0  0  0  0  0
   44.7929    3.0448   11.7473 C   0  0  2  0  0  0  0  0  0  0  0  0
   47.4214    5.4360   14.6742 C   0  0  0  0  0  0  0  0  0  0  0  0
   54.0328   13.0841    9.3899 O   0  0  0  0  0  0  0  0  0  0  0  0
   52.0004   12.7055   12.4013 C   0  0  0  0  0  0  0  0  0  0  0  0
   49.3453    6.9280   14.6599 C   0  0  0  0  0  0  0  0  0  0  0  0
   50.5406    7.9570   11.4282 C   0  0  0  0  0  0  0  0  0  0  0  0
   51.1887   11.7804   13.0633 C   0  0  0  0  0  0  0  0  0  0  0  0
   51.3544    8.8786   10.7629 C   0  0  0  0  0  0  0  0  0  0  0  0
   48.5316    6.0037   15.3154 C   0  0  0  0  0  0  0  0  0  0  0  0
   43.2462    5.4840   11.1743 C   0  0  0  0  0  0  0  0  0  0  0  0
   44.6857    3.6162   10.3280 C   0  0  0  0  0  0  0  0  0  0  0  0
   43.5227    3.3990   12.5380 C   0  0  0  0  0  0  0  0  0  0  0  0
   53.6046   14.4944   11.0677 O   0  0  0  0  0  0  0  0  0  0  0  0
   46.5997    4.5253   15.2851 O   0  0  0  0  0  0  0  0  0  0  0  0
   46.8937    4.1316   16.6181 C   0  0  0  0  0  0  0  0  0  0  0  0
   47.7601    7.0619   11.6918 H   0  0  0  0  0  0  0  0  0  0  0  0
   46.6371    5.5232   10.5323 H   0  0  0  0  0  0  0  0  0  0  0  0
   45.6210    6.8401   11.1291 H   0  0  0  0  0  0  0  0  0  0  0  0
   44.5522    5.1994   14.3484 H   0  0  0  0  0  0  0  0  0  0  0  0
   44.4328    6.6415   13.3644 H   0  0  0  0  0  0  0  0  0  0  0  0
   46.1175    3.1682   13.4281 H   0  0  0  0  0  0  0  0  0  0  0  0
   46.9303    3.4007   11.8959 H   0  0  0  0  0  0  0  0  0  0  0  0
   52.8652   10.8312    9.6961 H   0  0  0  0  0  0  0  0  0  0  0  0
   49.6764    9.8330   14.1211 H   0  0  0  0  0  0  0  0  0  0  0  0
   44.4552    5.5480    9.3809 H   0  0  0  0  0  0  0  0  0  0  0  0
   42.4287    5.1667   13.1514 H   0  0  0  0  0  0  0  0  0  0  0  0
   44.9033    1.9557   11.6967 H   0  0  0  0  0  0  0  0  0  0  0  0
   52.1528   13.6880   12.8412 H   0  0  0  0  0  0  0  0  0  0  0  0
   50.2054    7.3394   15.1841 H   0  0  0  0  0  0  0  0  0  0  0  0
   50.3957    6.9712   10.9899 H   0  0  0  0  0  0  0  0  0  0  0  0
   50.7271   12.0673   14.0061 H   0  0  0  0  0  0  0  0  0  0  0  0
   51.8143    8.5874    9.8207 H   0  0  0  0  0  0  0  0  0  0  0  0
   48.7979    5.7450   16.3347 H   0  0  0  0  0  0  0  0  0  0  0  0
   42.3698    5.0649   10.6648 H   0  0  0  0  0  0  0  0  0  0  0  0
   43.1060    6.5714   11.2056 H   0  0  0  0  0  0  0  0  0  0  0  0
   43.8312    3.1688    9.8057 H   0  0  0  0  0  0  0  0  0  0  0  0
   45.5819    3.3591    9.7502 H   0  0  0  0  0  0  0  0  0  0  0  0
   42.6474    2.9401   12.0620 H   0  0  0  0  0  0  0  0  0  0  0  0
   43.5852    2.9874   13.5529 H   0  0  0  0  0  0  0  0  0  0  0  0
   54.1938   15.0050   10.4735 H   0  0  0  0  0  0  0  0  0  0  0  0
   46.8315    4.9823   17.3043 H   0  0  0  0  0  0  0  0  0  0  0  0
   47.8701    3.6400   16.6790 H   0  0  0  0  0  0  0  0  0  0  0  0
   46.1369    3.4030   16.9245 H   0  0  0  0  0  0  0  0  0  0  0  0
  1  2  1  6
  3  2  2  0
  4  6  1  0
  5  3  1  0
  6 11  2  0
  7  5  1  0
  8  1  1  0
  9  1  1  0
 10  1  1  0
 11 13  1  0
 12  7  1  0
 13 24  2  0
 14 12  2  0
 15  8  1  0
 16  9  1  0
 17 10  1  0
 18  2  1  0
 19  4  2  0
 20 23  2  0
 21 25  1  0
 22  7  2  0
 23 14  1  0
 24 22  1  0
 25 18  2  0
 26 16  1  0
 27 17  1  0
 28 17  1  0
 29  4  1  0
 30 18  1  0
 31 30  1  0
 28 16  1  0
 27 15  1  0
 26 15  1  0
 21  5  2  0
 13 14  1  0
  6 20  1  0
  3 32  1  0
  8 33  1  0
  8 34  1  0
  9 35  1  0
  9 36  1  0
 10 37  1  0
 10 38  1  0
 11 39  1  0
 12 40  1  0
 15 41  1  1
 16 42  1  1
 17 43  1  6
 20 44  1  0
 21 45  1  0
 22 46  1  0
 23 47  1  0
 24 48  1  0
 25 49  1  0
 26 50  1  0
 26 51  1  0
 27 52  1  0
 27 53  1  0
 28 54  1  0
 28 55  1  0
 29 56  1  0
 31 57  1  0
 31 58  1  0
 31 59  1  0
M  END
> <Uni-Dock RESULT> 
ENERGY=   -4.842  LOWER_BOUND=    4.149  UPPER_BOUND=    5.620
INTER + INTRA:          -4.842
INTER:                  -4.842
INTRA:                   0.000
UNBOUND:                 0.000

$$$$

     RDKit          3D

 59 64  0  0  0  0  0  0  0  0999 V2000
   53.5465    9.4803   10.7424 C   0  0  2  0  0  0  0  0  0  0  0  0
   52.7613    9.0394   12.0062 C   0  0  0  0  0  0  0  0  0  0  0  0
   51.3985    8.6676   11.9128 C   0  0  0  0  0  0  0  0  0  0  0  0
   43.2680    5.1985   12.6936 C   0  0  0  0  0  0  0  0  0  0  0  0
   50.6356    8.2584   13.0222 C   0  0  0  0  0  0  0  0  0  0  0  0
   44.7029    5.5307   12.8641 C   0  0  0  0  0  0  0  0  0  0  0  0
   49.2203    7.8840   12.8726 C   0  0  0  0  0  0  0  0  0  0  0  0
   52.6849    9.4606    9.4317 C   0  0  0  0  0  0  0  0  0  0  0  0
   54.7534    8.5287   10.4784 C   0  0  0  0  0  0  0  0  0  0  0  0
   54.0652   10.9432   10.8943 C   0  0  0  0  0  0  0  0  0  0  0  0
   45.1446    6.7934   12.4488 C   0  0  0  0  0  0  0  0  0  0  0  0
   48.7586    6.6225   13.2854 C   0  0  0  0  0  0  0  0  0  0  0  0
   46.4926    7.1631   12.5854 C   0  0  0  0  0  0  0  0  0  0  0  0
   47.4098    6.2489   13.1495 C   0  0  0  0  0  0  0  0  0  0  0  0
   53.4920    9.9032    8.1990 C   0  0  2  0  0  0  0  0  0  0  0  0
   55.5718    8.9846    9.2570 C   0  0  1  0  0  0  0  0  0  0  0  0
   54.8899   11.3773    9.6692 C   0  0  2  0  0  0  0  0  0  0  0  0
   53.3557    8.9865   13.2921 C   0  0  0  0  0  0  0  0  0  0  0  0
   42.4183    5.9292   12.2188 O   0  0  0  0  0  0  0  0  0  0  0  0
   45.6125    4.6272   13.4206 C   0  0  0  0  0  0  0  0  0  0  0  0
   51.2614    8.2192   14.2680 C   0  0  0  0  0  0  0  0  0  0  0  0
   48.2940    8.7758   12.3143 C   0  0  0  0  0  0  0  0  0  0  0  0
   46.9559    4.9855   13.5613 C   0  0  0  0  0  0  0  0  0  0  0  0
   46.9490    8.4223   12.1727 C   0  0  0  0  0  0  0  0  0  0  0  0
   52.6026    8.5785   14.4021 C   0  0  0  0  0  0  0  0  0  0  0  0
   54.6823    8.9551    8.0078 C   0  0  0  0  0  0  0  0  0  0  0  0
   54.0048   11.3321    8.4174 C   0  0  0  0  0  0  0  0  0  0  0  0
   56.0777   10.4177    9.4901 C   0  0  0  0  0  0  0  0  0  0  0  0
   42.9621    3.9629   13.1271 O   0  0  0  0  0  0  0  0  0  0  0  0
   54.6746    9.3469   13.3846 O   0  0  0  0  0  0  0  0  0  0  0  0
   55.2990    9.3181   14.6604 C   0  0  0  0  0  0  0  0  0  0  0  0
   50.8896    8.6760   10.9523 H   0  0  0  0  0  0  0  0  0  0  0  0
   51.8178   10.1266    9.5353 H   0  0  0  0  0  0  0  0  0  0  0  0
   52.2964    8.4503    9.2460 H   0  0  0  0  0  0  0  0  0  0  0  0
   55.4318    8.4798   11.3356 H   0  0  0  0  0  0  0  0  0  0  0  0
   54.3926    7.5031   10.3213 H   0  0  0  0  0  0  0  0  0  0  0  0
   54.6950   11.0646   11.7809 H   0  0  0  0  0  0  0  0  0  0  0  0
   53.2170   11.6274   11.0318 H   0  0  0  0  0  0  0  0  0  0  0  0
   44.4304    7.4920   12.0154 H   0  0  0  0  0  0  0  0  0  0  0  0
   49.4687    5.9140   13.7099 H   0  0  0  0  0  0  0  0  0  0  0  0
   52.8520    9.8740    7.3097 H   0  0  0  0  0  0  0  0  0  0  0  0
   56.4249    8.3113    9.1156 H   0  0  0  0  0  0  0  0  0  0  0  0
   55.2602   12.3976    9.8198 H   0  0  0  0  0  0  0  0  0  0  0  0
   45.2890    3.6422   13.7481 H   0  0  0  0  0  0  0  0  0  0  0  0
   50.7042    7.9188   15.1529 H   0  0  0  0  0  0  0  0  0  0  0  0
   48.6141    9.7653   11.9930 H   0  0  0  0  0  0  0  0  0  0  0  0
   47.6479    4.2672   13.9964 H   0  0  0  0  0  0  0  0  0  0  0  0
   46.2604    9.1438   11.7375 H   0  0  0  0  0  0  0  0  0  0  0  0
   53.0307    8.5307   15.3978 H   0  0  0  0  0  0  0  0  0  0  0  0
   55.2625    9.2524    7.1256 H   0  0  0  0  0  0  0  0  0  0  0  0
   54.3251    7.9343    7.8244 H   0  0  0  0  0  0  0  0  0  0  0  0
   54.5746   11.6655    7.5415 H   0  0  0  0  0  0  0  0  0  0  0  0
   53.1598   12.0225    8.5289 H   0  0  0  0  0  0  0  0  0  0  0  0
   56.6914   10.7391    8.6395 H   0  0  0  0  0  0  0  0  0  0  0  0
   56.7224   10.4486   10.3770 H   0  0  0  0  0  0  0  0  0  0  0  0
   42.0004    3.8858   12.9535 H   0  0  0  0  0  0  0  0  0  0  0  0
   55.3172    8.3024   15.0685 H   0  0  0  0  0  0  0  0  0  0  0  0
   54.8186   10.0178   15.3519 H   0  0  0  0  0  0  0  0  0  0  0  0
   56.3365    9.6412   14.5304 H   0  0  0  0  0  0  0  0  0  0  0  0
  1  2  1  6
  3  2  2  0
  4  6  1  0
  5  3  1  0
  6 11  2  0
  7  5  1  0
  8  1  1  0
  9  1  1  0
 10  1  1  0
 11 13  1  0
 12  7  1  0
 13 24  2  0
 14 12  2  0
 15  8  1  0
 16  9  1  0
 17 10  1  0
 18  2  1  0
 19  4  2  0
 20 23  2  0
 21 25  1  0
 22  7  2  0
 23 14  1  0
 24 22  1  0
 25 18  2  0
 26 16  1  0
 27 17  1  0
 28 17  1  0
 29  4  1  0
 30 18  1  0
 31 30  1  0
 28 16  1  0
 27 15  1  0
 26 15  1  0
 21  5  2  0
 13 14  1  0
  6 20  1  0
  3 32  1  0
  8 33  1  0
  8 34  1  0
  9 35  1  0
  9 36  1  0
 10 37  1  0
 10 38  1  0
 11 39  1  0
 12 40  1  0
 15 41  1  1
 16 42  1  1
 17 43  1  6
 20 44  1  0
 21 45  1  0
 22 46  1  0
 23 47  1  0
 24 48  1  0
 25 49  1  0
 26 50  1  0
 26 51  1  0
 27 52  1  0
 27 53  1  0
 28 54  1  0
 28 55  1  0
 29 56  1  0
 31 57  1  0
 31 58  1  0
 31 59  1  0
M  END
> <Uni-Dock RESULT> 
ENERGY=   -4.695  LOWER_BOUND=    4.348  UPPER_BOUND=    9.560
INTER + INTRA:          -4.695
INTER:                  -4.695
INTRA:                   0.000
UNBOUND:                 0.000

$$$$

     RDKit          3D

 59 64  0  0  0  0  0  0  0  0999 V2000
   51.2777   12.4179   10.0733 C   0  0  2  0  0  0  0  0  0  0  0  0
   50.9048   11.6305   11.3574 C   0  0  0  0  0  0  0  0  0  0  0  0
   49.7383   10.8291   11.3962 C   0  0  0  0  0  0  0  0  0  0  0  0
   43.4105    4.7608   12.7685 C   0  0  0  0  0  0  0  0  0  0  0  0
   49.3495   10.0922   12.5303 C   0  0  0  0  0  0  0  0  0  0  0  0
   44.6700    5.5428   12.7901 C   0  0  0  0  0  0  0  0  0  0  0  0
   48.1254    9.2755   12.5207 C   0  0  0  0  0  0  0  0  0  0  0  0
   50.2561   12.2208    8.8994 C   0  0  0  0  0  0  0  0  0  0  0  0
   52.6615   11.9571    9.5215 C   0  0  0  0  0  0  0  0  0  0  0  0
   51.3182   13.9512   10.3554 C   0  0  0  0  0  0  0  0  0  0  0  0
   44.6054    6.9112   12.4982 C   0  0  0  0  0  0  0  0  0  0  0  0
   48.1705    7.9015   12.8130 C   0  0  0  0  0  0  0  0  0  0  0  0
   45.7661    7.7019   12.5034 C   0  0  0  0  0  0  0  0  0  0  0  0
   47.0104    7.1069   12.8081 C   0  0  0  0  0  0  0  0  0  0  0  0
   50.6541   13.0145    7.6430 C   0  0  2  0  0  0  0  0  0  0  0  0
   53.0678   12.7662    8.2765 C   0  0  1  0  0  0  0  0  0  0  0  0
   51.7366   14.7423    9.1030 C   0  0  2  0  0  0  0  0  0  0  0  0
   51.6965   11.6713   12.5326 C   0  0  0  0  0  0  0  0  0  0  0  0
   42.3031    5.1990   12.5170 O   0  0  0  0  0  0  0  0  0  0  0  0
   45.9025    4.9559   13.0899 C   0  0  0  0  0  0  0  0  0  0  0  0
   50.1592   10.1599   13.6638 C   0  0  0  0  0  0  0  0  0  0  0  0
   46.8808    9.8459   12.2198 C   0  0  0  0  0  0  0  0  0  0  0  0
   47.0632    5.7340   13.0981 C   0  0  0  0  0  0  0  0  0  0  0  0
   45.7167    9.0718   12.2116 C   0  0  0  0  0  0  0  0  0  0  0  0
   51.3165   10.9388   13.6661 C   0  0  0  0  0  0  0  0  0  0  0  0
   52.0340   12.5452    7.1654 C   0  0  0  0  0  0  0  0  0  0  0  0
   50.7115   14.5082    7.9865 C   0  0  0  0  0  0  0  0  0  0  0  0
   53.1199   14.2603    8.6360 C   0  0  0  0  0  0  0  0  0  0  0  0
   43.5960    3.4621   13.0640 O   0  0  0  0  0  0  0  0  0  0  0  0
   52.8254   12.4473   12.4971 O   0  0  0  0  0  0  0  0  0  0  0  0
   53.6357   12.5217   13.6617 C   0  0  0  0  0  0  0  0  0  0  0  0
   49.0965   10.7475   10.5228 H   0  0  0  0  0  0  0  0  0  0  0  0
   49.2527   12.5426    9.2089 H   0  0  0  0  0  0  0  0  0  0  0  0
   50.1860   11.1585    8.6293 H   0  0  0  0  0  0  0  0  0  0  0  0
   53.4565   12.0670   10.2653 H   0  0  0  0  0  0  0  0  0  0  0  0
   52.6271   10.8875    9.2737 H   0  0  0  0  0  0  0  0  0  0  0  0
   52.0183   14.2018   11.1581 H   0  0  0  0  0  0  0  0  0  0  0  0
   50.3324   14.2937   10.6982 H   0  0  0  0  0  0  0  0  0  0  0  0
   43.6417    7.3617   12.2648 H   0  0  0  0  0  0  0  0  0  0  0  0
   49.1321    7.4413   13.0368 H   0  0  0  0  0  0  0  0  0  0  0  0
   49.9145   12.8472    6.8517 H   0  0  0  0  0  0  0  0  0  0  0  0
   54.0539   12.4360    7.9308 H   0  0  0  0  0  0  0  0  0  0  0  0
   51.7805   15.8108    9.3424 H   0  0  0  0  0  0  0  0  0  0  0  0
   45.9731    3.8952   13.3183 H   0  0  0  0  0  0  0  0  0  0  0  0
   49.8885    9.6138   14.5651 H   0  0  0  0  0  0  0  0  0  0  0  0
   46.8066   10.9091   11.9985 H   0  0  0  0  0  0  0  0  0  0  0  0
   48.0129    5.2575   13.3334 H   0  0  0  0  0  0  0  0  0  0  0  0
   44.7693    9.5525   11.9762 H   0  0  0  0  0  0  0  0  0  0  0  0
   51.9018   10.9531   14.5794 H   0  0  0  0  0  0  0  0  0  0  0  0
   52.3274   13.0959    6.2633 H   0  0  0  0  0  0  0  0  0  0  0  0
   51.9968   11.4835    6.8919 H   0  0  0  0  0  0  0  0  0  0  0  0
   50.9848   15.0887    7.0969 H   0  0  0  0  0  0  0  0  0  0  0  0
   49.7222   14.8598    8.3042 H   0  0  0  0  0  0  0  0  0  0  0  0
   53.4423   14.8422    7.7637 H   0  0  0  0  0  0  0  0  0  0  0  0
   53.8630   14.4310    9.4245 H   0  0  0  0  0  0  0  0  0  0  0  0
   42.6950    3.0795   13.0114 H   0  0  0  0  0  0  0  0  0  0  0  0
   54.0483   11.5409   13.9194 H   0  0  0  0  0  0  0  0  0  0  0  0
   53.0827   12.9554   14.5012 H   0  0  0  0  0  0  0  0  0  0  0  0
   54.4762   13.1866   13.4404 H   0  0  0  0  0  0  0  0  0  0  0  0
  1  2  1  6
  3  2  2  0
  4  6  1  0
  5  3  1  0
  6 11  2  0
  7  5  1  0
  8  1  1  0
  9  1  1  0
 10  1  1  0
 11 13  1  0
 12  7  1  0
 13 24  2  0
 14 12  2  0
 15  8  1  0
 16  9  1  0
 17 10  1  0
 18  2  1  0
 19  4  2  0
 20 23  2  0
 21 25  1  0
 22  7  2  0
 23 14  1  0
 24 22  1  0
 25 18  2  0
 26 16  1  0
 27 17  1  0
 28 17  1  0
 29  4  1  0
 30 18  1  0
 31 30  1  0
 28 16  1  0
 27 15  1  0
 26 15  1  0
 21  5  2  0
 13 14  1  0
  6 20  1  0
  3 32  1  0
  8 33  1  0
  8 34  1  0
  9 35  1  0
  9 36  1  0
 10 37  1  0
 10 38  1  0
 11 39  1  0
 12 40  1  0
 15 41  1  1
 16 42  1  1
 17 43  1  6
 20 44  1  0
 21 45  1  0
 22 46  1  0
 23 47  1  0
 24 48  1  0
 25 49  1  0
 26 50  1  0
 26 51  1  0
 27 52  1  0
 27 53  1  0
 28 54  1  0
 28 55  1  0
 29 56  1  0
 31 57  1  0
 31 58  1  0
 31 59  1  0
M  END
> <Uni-Dock RESULT> 
ENERGY=   -4.541  LOWER_BOUND=    5.314  UPPER_BOUND=    9.558
INTER + INTRA:          -4.541
INTER:                  -4.541
INTRA:                   0.000
UNBOUND:                 0.000

$$$$

     RDKit          3D

 59 64  0  0  0  0  0  0  0  0999 V2000
   49.3517   12.2921   16.3693 C   0  0  2  0  0  0  0  0  0  0  0  0
   49.1586   11.7080   14.9446 C   0  0  0  0  0  0  0  0  0  0  0  0
   48.5036   10.4667   14.7590 C   0  0  0  0  0  0  0  0  0  0  0  0
   43.8324    3.4330   12.0283 C   0  0  0  0  0  0  0  0  0  0  0  0
   48.2983    9.8877   13.4929 C   0  0  0  0  0  0  0  0  0  0  0  0
   44.4884    4.7581   12.1386 C   0  0  0  0  0  0  0  0  0  0  0  0
   47.6132    8.5928   13.3534 C   0  0  0  0  0  0  0  0  0  0  0  0
   48.7626   11.3827   17.5036 C   0  0  0  0  0  0  0  0  0  0  0  0
   48.6346   13.6701   16.5064 C   0  0  0  0  0  0  0  0  0  0  0  0
   50.8667   12.4626   16.6978 C   0  0  0  0  0  0  0  0  0  0  0  0
   45.6309    4.8670   12.9417 C   0  0  0  0  0  0  0  0  0  0  0  0
   46.4670    8.4640   12.5506 C   0  0  0  0  0  0  0  0  0  0  0  0
   46.2938    6.0970   13.0838 C   0  0  0  0  0  0  0  0  0  0  0  0
   45.8004    7.2342   12.4066 C   0  0  0  0  0  0  0  0  0  0  0  0
   48.9711   11.9894   18.9020 C   0  0  2  0  0  0  0  0  0  0  0  0
   48.8613   14.2853   17.8991 C   0  0  1  0  0  0  0  0  0  0  0  0
   51.0731   13.0888   18.0887 C   0  0  2  0  0  0  0  0  0  0  0  0
   49.6175   12.3735   13.7801 C   0  0  0  0  0  0  0  0  0  0  0  0
   44.1955    2.4094   12.5777 O   0  0  0  0  0  0  0  0  0  0  0  0
   44.0012    5.8850   11.4707 C   0  0  0  0  0  0  0  0  0  0  0  0
   48.7644   10.5781   12.3743 C   0  0  0  0  0  0  0  0  0  0  0  0
   48.0856    7.4523   14.0177 C   0  0  0  0  0  0  0  0  0  0  0  0
   44.6539    7.1133   11.6052 C   0  0  0  0  0  0  0  0  0  0  0  0
   47.4369    6.2212   13.8852 C   0  0  0  0  0  0  0  0  0  0  0  0
   49.4156   11.8037   12.5150 C   0  0  0  0  0  0  0  0  0  0  0  0
   48.2758   13.3549   18.9686 C   0  0  0  0  0  0  0  0  0  0  0  0
   50.4731   12.1662   19.1569 C   0  0  0  0  0  0  0  0  0  0  0  0
   50.3702   14.4553   18.1404 C   0  0  0  0  0  0  0  0  0  0  0  0
   42.7486    3.4506   11.2325 O   0  0  0  0  0  0  0  0  0  0  0  0
   50.2526   13.5747   13.9579 O   0  0  0  0  0  0  0  0  0  0  0  0
   50.7372   14.2632   12.8135 C   0  0  0  0  0  0  0  0  0  0  0  0
   48.1184    9.9139   15.6120 H   0  0  0  0  0  0  0  0  0  0  0  0
   49.2354   10.3917   17.4821 H   0  0  0  0  0  0  0  0  0  0  0  0
   47.6858   11.2307   17.3498 H   0  0  0  0  0  0  0  0  0  0  0  0
   48.9860   14.3907   15.7617 H   0  0  0  0  0  0  0  0  0  0  0  0
   47.5580   13.5502   16.3246 H   0  0  0  0  0  0  0  0  0  0  0  0
   51.3755   13.0980   15.9666 H   0  0  0  0  0  0  0  0  0  0  0  0
   51.3706   11.4877   16.6515 H   0  0  0  0  0  0  0  0  0  0  0  0
   46.0045    3.9850   13.4597 H   0  0  0  0  0  0  0  0  0  0  0  0
   46.0807    9.3439   12.0377 H   0  0  0  0  0  0  0  0  0  0  0  0
   48.5453   11.3225   19.6602 H   0  0  0  0  0  0  0  0  0  0  0  0
   48.3674   15.2622   17.9528 H   0  0  0  0  0  0  0  0  0  0  0  0
   52.1449   13.2188   18.2765 H   0  0  0  0  0  0  0  0  0  0  0  0
   43.1154    5.8206   10.8435 H   0  0  0  0  0  0  0  0  0  0  0  0
   48.6355   10.1600   11.3782 H   0  0  0  0  0  0  0  0  0  0  0  0
   48.9767    7.5127   14.6398 H   0  0  0  0  0  0  0  0  0  0  0  0
   44.2579    7.9786   11.0772 H   0  0  0  0  0  0  0  0  0  0  0  0
   47.8365    5.3585   14.4146 H   0  0  0  0  0  0  0  0  0  0  0  0
   49.7579   12.2895   11.6074 H   0  0  0  0  0  0  0  0  0  0  0  0
   48.4075   13.7961   19.9643 H   0  0  0  0  0  0  0  0  0  0  0  0
   47.1964   13.2359   18.8137 H   0  0  0  0  0  0  0  0  0  0  0  0
   50.6381   12.5893   20.1553 H   0  0  0  0  0  0  0  0  0  0  0  0
   50.9757   11.1914   19.1375 H   0  0  0  0  0  0  0  0  0  0  0  0
   50.5407   14.9253   19.1168 H   0  0  0  0  0  0  0  0  0  0  0  0
   50.7979   15.1263   17.3854 H   0  0  0  0  0  0  0  0  0  0  0  0
   42.4267    2.5249   11.2557 H   0  0  0  0  0  0  0  0  0  0  0  0
   49.9174   14.5423   12.1438 H   0  0  0  0  0  0  0  0  0  0  0  0
   51.4975   13.6743   12.2902 H   0  0  0  0  0  0  0  0  0  0  0  0
   51.2128   15.1868   13.1574 H   0  0  0  0  0  0  0  0  0  0  0  0
  1  2  1  6
  3  2  2  0
  4  6  1  0
  5  3  1  0
  6 11  2  0
  7  5  1  0
  8  1  1  0
  9  1  1  0
 10  1  1  0
 11 13  1  0
 12  7  1  0
 13 24  2  0
 14 12  2  0
 15  8  1  0
 16  9  1  0
 17 10  1  0
 18  2  1  0
 19  4  2  0
 20 23  2  0
 21 25  1  0
 22  7  2  0
 23 14  1  0
 24 22  1  0
 25 18  2  0
 26 16  1  0
 27 17  1  0
 28 17  1  0
 29  4  1  0
 30 18  1  0
 31 30  1  0
 28 16  1  0
 27 15  1  0
 26 15  1  0
 21  5  2  0
 13 14  1  0
  6 20  1  0
  3 32  1  0
  8 33  1  0
  8 34  1  0
  9 35  1  0
  9 36  1  0
 10 37  1  0
 10 38  1  0
 11 39  1  0
 12 40  1  0
 15 41  1  1
 16 42  1  1
 17 43  1  6
 20 44  1  0
 21 45  1  0
 22 46  1  0
 23 47  1  0
 24 48  1  0
 25 49  1  0
 26 50  1  0
 26 51  1  0
 27 52  1  0
 27 53  1  0
 28 54  1  0
 28 55  1  0
 29 56  1  0
 31 57  1  0
 31 58  1  0
 31 59  1  0
M  END
> <Uni-Dock RESULT> 
ENERGY=   -4.462  LOWER_BOUND=    4.296  UPPER_BOUND=    9.410
INTER + INTRA:          -4.462
INTER:                  -4.462
INTRA:                   0.000
UNBOUND:                 0.000

$$$$

     RDKit          3D

 59 64  0  0  0  0  0  0  0  0999 V2000
   51.6093    6.7354   17.3727 C   0  0  2  0  0  0  0  0  0  0  0  0
   51.4785    7.3196   15.9409 C   0  0  0  0  0  0  0  0  0  0  0  0
   50.2043    7.4950   15.3495 C   0  0  0  0  0  0  0  0  0  0  0  0
   43.0028   10.0247   10.8230 C   0  0  0  0  0  0  0  0  0  0  0  0
   50.0226    8.0203   14.0567 C   0  0  0  0  0  0  0  0  0  0  0  0
   44.3677    9.9120   11.3911 C   0  0  0  0  0  0  0  0  0  0  0  0
   48.6758    8.1806   13.4857 C   0  0  0  0  0  0  0  0  0  0  0  0
   50.2306    6.3875   18.0350 C   0  0  0  0  0  0  0  0  0  0  0  0
   52.3003    7.7562   18.3279 C   0  0  0  0  0  0  0  0  0  0  0  0
   52.4265    5.4072   17.3569 C   0  0  0  0  0  0  0  0  0  0  0  0
   44.7982    8.6559   11.8369 C   0  0  0  0  0  0  0  0  0  0  0  0
   48.2274    9.4327   13.0314 C   0  0  0  0  0  0  0  0  0  0  0  0
   46.0808    8.4893   12.3843 C   0  0  0  0  0  0  0  0  0  0  0  0
   46.9437    9.6032   12.4835 C   0  0  0  0  0  0  0  0  0  0  0  0
   50.3955    5.8106   19.4517 C   0  0  2  0  0  0  0  0  0  0  0  0
   52.4831    7.1700   19.7394 C   0  0  1  0  0  0  0  0  0  0  0  0
   52.6083    4.8423   18.7771 C   0  0  2  0  0  0  0  0  0  0  0  0
   52.6042    7.7004   15.1681 C   0  0  0  0  0  0  0  0  0  0  0  0
   42.2028    9.1153   10.7032 O   0  0  0  0  0  0  0  0  0  0  0  0
   45.2227   11.0131   11.4915 C   0  0  0  0  0  0  0  0  0  0  0  0
   51.1579    8.3837   13.3326 C   0  0  0  0  0  0  0  0  0  0  0  0
   47.8035    7.0886   13.3793 C   0  0  0  0  0  0  0  0  0  0  0  0
   46.5010   10.8577   12.0343 C   0  0  0  0  0  0  0  0  0  0  0  0
   46.5243    7.2388   12.8360 C   0  0  0  0  0  0  0  0  0  0  0  0
   52.4314    8.2258   13.8797 C   0  0  0  0  0  0  0  0  0  0  0  0
   51.1093    6.8404   20.3362 C   0  0  0  0  0  0  0  0  0  0  0  0
   51.2335    4.5279   19.3802 C   0  0  0  0  0  0  0  0  0  0  0  0
   53.3234    5.8854   19.6515 C   0  0  0  0  0  0  0  0  0  0  0  0
   42.7016   11.2749   10.4296 O   0  0  0  0  0  0  0  0  0  0  0  0
   53.8385    7.5304   15.7385 O   0  0  0  0  0  0  0  0  0  0  0  0
   54.9896    7.8895   14.9873 C   0  0  0  0  0  0  0  0  0  0  0  0
   49.3021    7.2329   15.8963 H   0  0  0  0  0  0  0  0  0  0  0  0
   49.6880    5.6542   17.4234 H   0  0  0  0  0  0  0  0  0  0  0  0
   49.6008    7.2850   18.0985 H   0  0  0  0  0  0  0  0  0  0  0  0
   53.2861    8.0580   17.9613 H   0  0  0  0  0  0  0  0  0  0  0  0
   51.7049    8.6776   18.3832 H   0  0  0  0  0  0  0  0  0  0  0  0
   53.4212    5.5433   16.9217 H   0  0  0  0  0  0  0  0  0  0  0  0
   51.9204    4.6652   16.7246 H   0  0  0  0  0  0  0  0  0  0  0  0
   44.1264    7.8025   11.7562 H   0  0  0  0  0  0  0  0  0  0  0  0
   48.8894   10.2934   13.1186 H   0  0  0  0  0  0  0  0  0  0  0  0
   49.4101    5.5831   19.8739 H   0  0  0  0  0  0  0  0  0  0  0  0
   52.9937    7.9012   20.3764 H   0  0  0  0  0  0  0  0  0  0  0  0
   53.2075    3.9258   18.7329 H   0  0  0  0  0  0  0  0  0  0  0  0
   44.9064   11.9963   11.1518 H   0  0  0  0  0  0  0  0  0  0  0  0
   51.0618    8.7837   12.3254 H   0  0  0  0  0  0  0  0  0  0  0  0
   48.1209    6.1018   13.7117 H   0  0  0  0  0  0  0  0  0  0  0  0
   47.1509   11.7278   12.1042 H   0  0  0  0  0  0  0  0  0  0  0  0
   45.8780    6.3660   12.7676 H   0  0  0  0  0  0  0  0  0  0  0  0
   53.2745    8.5234   13.2653 H   0  0  0  0  0  0  0  0  0  0  0  0
   51.2254    6.4467   21.3535 H   0  0  0  0  0  0  0  0  0  0  0  0
   50.5048    7.7523   20.4152 H   0  0  0  0  0  0  0  0  0  0  0  0
   51.3516    4.0992   20.3828 H   0  0  0  0  0  0  0  0  0  0  0  0
   50.7186    3.7752   18.7709 H   0  0  0  0  0  0  0  0  0  0  0  0
   53.4885    5.4787   20.6568 H   0  0  0  0  0  0  0  0  0  0  0  0
   54.3121    6.1113   19.2335 H   0  0  0  0  0  0  0  0  0  0  0  0
   41.7878   11.1970   10.0834 H   0  0  0  0  0  0  0  0  0  0  0  0
   54.9953    8.9605   14.7607 H   0  0  0  0  0  0  0  0  0  0  0  0
   55.0708    7.2880   14.0761 H   0  0  0  0  0  0  0  0  0  0  0  0
   55.8687    7.6769   15.6034 H   0  0  0  0  0  0  0  0  0  0  0  0
  1  2  1  6
  3  2  2  0
  4  6  1  0
  5  3  1  0
  6 11  2  0
  7  5  1  0
  8  1  1  0
  9  1  1  0
 10  1  1  0
 11 13  1  0
 12  7  1  0
 13 24  2  0
 14 12  2  0
 15  8  1  0
 16  9  1  0
 17 10  1  0
 18  2  1  0
 19  4  2  0
 20 23  2  0
 21 25  1  0
 22  7  2  0
 23 14  1  0
 24 22  1  0
 25 18  2  0
 26 16  1  0
 27 17  1  0
 28 17  1  0
 29  4  1  0
 30 18  1  0
 31 30  1  0
 28 16  1  0
 27 15  1  0
 26 15  1  0
 21  5  2  0
 13 14  1  0
  6 20  1  0
  3 32  1  0
  8 33  1  0
  8 34  1  0
  9 35  1  0
  9 36  1  0
 10 37  1  0
 10 38  1  0
 11 39  1  0
 12 40  1  0
 15 41  1  1
 16 42  1  1
 17 43  1  6
 20 44  1  0
 21 45  1  0
 22 46  1  0
 23 47  1  0
 24 48  1  0
 25 49  1  0
 26 50  1  0
 26 51  1  0
 27 52  1  0
 27 53  1  0
 28 54  1  0
 28 55  1  0
 29 56  1  0
 31 57  1  0
 31 58  1  0
 31 59  1  0
M  END
> <Uni-Dock RESULT> 
ENERGY=   -4.385  LOWER_BOUND=    2.591  UPPER_BOUND=    9.505
INTER + INTRA:          -4.385
INTER:                  -4.385
INTRA:                   0.000
UNBOUND:                 0.000

$$$$
