
     RDKit          3D

 27 29  0  0  0  0  0  0  0  0999 V2000
   44.9894    2.2493    9.3840 C   0  0  0  0  0  0  0  0  0  0  0  0
   45.9304    2.4307    8.2575 C   0  0  0  0  0  0  0  0  0  0  0  0
   44.4334    3.4268   10.0851 C   0  0  0  0  0  0  0  0  0  0  0  0
   46.2926    3.7239    7.8578 C   0  0  0  0  0  0  0  0  0  0  0  0
   44.8025    4.7153    9.6768 C   0  0  0  0  0  0  0  0  0  0  0  0
   45.7558    4.9547    8.5372 C   0  0  0  0  0  0  0  0  0  0  0  0
   44.6680    1.1147    9.7390 O   0  0  0  0  0  0  0  0  0  0  0  0
   46.4616    1.3174    7.5880 C   0  0  0  0  0  0  0  0  0  0  0  0
   43.5399    3.2613   11.1549 C   0  0  0  0  0  0  0  0  0  0  0  0
   47.1884    3.8790    6.7849 C   0  0  0  0  0  0  0  0  0  0  0  0
   44.2648    5.8243   10.3540 C   0  0  0  0  0  0  0  0  0  0  0  0
   46.1550    0.0249    7.9209 O   0  0  0  0  0  0  0  0  0  0  0  0
   43.1331    2.0356   11.6101 O   0  0  0  0  0  0  0  0  0  0  0  0
   47.7116    2.7660    6.1251 C   0  0  0  0  0  0  0  0  0  0  0  0
   43.3771    5.6500   11.4167 C   0  0  0  0  0  0  0  0  0  0  0  0
   47.3474    1.4839    6.5275 C   0  0  0  0  0  0  0  0  0  0  0  0
   43.0145    4.3669   11.8173 C   0  0  0  0  0  0  0  0  0  0  0  0
   45.2387    5.5616    7.7829 H   0  0  0  0  0  0  0  0  0  0  0  0
   46.6078    5.5301    8.9214 H   0  0  0  0  0  0  0  0  0  0  0  0
   47.4848    4.8737    6.4560 H   0  0  0  0  0  0  0  0  0  0  0  0
   44.5367    6.8353   10.0551 H   0  0  0  0  0  0  0  0  0  0  0  0
   45.5272    0.0510    8.6766 H   0  0  0  0  0  0  0  0  0  0  0  0
   43.5744    1.3504   11.0607 H   0  0  0  0  0  0  0  0  0  0  0  0
   48.4035    2.8971    5.2966 H   0  0  0  0  0  0  0  0  0  0  0  0
   42.9671    6.5144   11.9336 H   0  0  0  0  0  0  0  0  0  0  0  0
   47.7516    0.6133    6.0174 H   0  0  0  0  0  0  0  0  0  0  0  0
   42.3235    4.2249   12.6441 H   0  0  0  0  0  0  0  0  0  0  0  0
  2  1  1  0
  3  1  1  0
  4  2  2  0
  5  3  2  0
  6  5  1  0
  7  1  2  0
  8  2  1  0
  9  3  1  0
 10  4  1  0
 11  5  1  0
 12  8  1  0
 13  9  1  0
 14 16  1  0
 15 17  1  0
 16  8  2  0
 17  9  2  0
  4  6  1  0
 11 15  2  0
 10 14  2  0
  6 18  1  0
  6 19  1  0
 10 20  1  0
 11 21  1  0
 12 22  1  0
 13 23  1  0
 14 24  1  0
 15 25  1  0
 16 26  1  0
 17 27  1  0
M  END
> <Uni-Dock RESULT> 
ENERGY=   -6.282  LOWER_BOUND=    0.000  UPPER_BOUND=    0.000
INTER + INTRA:          -6.282
INTER:                  -6.282
INTRA:                   0.000
UNBOUND:                 0.000

$$$$

     RDKit          3D

 27 29  0  0  0  0  0  0  0  0999 V2000
   44.9894    2.2493    9.3839 C   0  0  0  0  0  0  0  0  0  0  0  0
   44.4334    3.4268   10.0851 C   0  0  0  0  0  0  0  0  0  0  0  0
   45.9304    2.4308    8.2576 C   0  0  0  0  0  0  0  0  0  0  0  0
   44.8025    4.7153    9.6769 C   0  0  0  0  0  0  0  0  0  0  0  0
   46.2926    3.7239    7.8578 C   0  0  0  0  0  0  0  0  0  0  0  0
   45.7557    4.9547    8.5372 C   0  0  0  0  0  0  0  0  0  0  0  0
   44.6680    1.1147    9.7391 O   0  0  0  0  0  0  0  0  0  0  0  0
   43.5400    3.2614   11.1548 C   0  0  0  0  0  0  0  0  0  0  0  0
   46.4616    1.3174    7.5880 C   0  0  0  0  0  0  0  0  0  0  0  0
   44.2647    5.8242   10.3541 C   0  0  0  0  0  0  0  0  0  0  0  0
   47.1884    3.8790    6.7850 C   0  0  0  0  0  0  0  0  0  0  0  0
   43.1331    2.0355   11.6101 O   0  0  0  0  0  0  0  0  0  0  0  0
   46.1551    0.0249    7.9210 O   0  0  0  0  0  0  0  0  0  0  0  0
   43.3769    5.6500   11.4168 C   0  0  0  0  0  0  0  0  0  0  0  0
   47.7115    2.7661    6.1251 C   0  0  0  0  0  0  0  0  0  0  0  0
   43.0145    4.3668   11.8172 C   0  0  0  0  0  0  0  0  0  0  0  0
   47.3474    1.4839    6.5275 C   0  0  0  0  0  0  0  0  0  0  0  0
   46.6078    5.5301    8.9215 H   0  0  0  0  0  0  0  0  0  0  0  0
   45.2387    5.5616    7.7830 H   0  0  0  0  0  0  0  0  0  0  0  0
   44.5366    6.8353   10.0552 H   0  0  0  0  0  0  0  0  0  0  0  0
   47.4847    4.8738    6.4561 H   0  0  0  0  0  0  0  0  0  0  0  0
   43.5743    1.3503   11.0607 H   0  0  0  0  0  0  0  0  0  0  0  0
   45.5271    0.0510    8.6766 H   0  0  0  0  0  0  0  0  0  0  0  0
   42.9670    6.5143   11.9337 H   0  0  0  0  0  0  0  0  0  0  0  0
   48.4035    2.8972    5.2966 H   0  0  0  0  0  0  0  0  0  0  0  0
   42.3234    4.2249   12.6442 H   0  0  0  0  0  0  0  0  0  0  0  0
   47.7515    0.6133    6.0175 H   0  0  0  0  0  0  0  0  0  0  0  0
  2  1  1  0
  3  1  1  0
  4  2  2  0
  5  3  2  0
  6  5  1  0
  7  1  2  0
  8  2  1  0
  9  3  1  0
 10  4  1  0
 11  5  1  0
 12  8  1  0
 13  9  1  0
 14 16  1  0
 15 17  1  0
 16  8  2  0
 17  9  2  0
  4  6  1  0
 11 15  2  0
 10 14  2  0
  6 18  1  0
  6 19  1  0
 10 20  1  0
 11 21  1  0
 12 22  1  0
 13 23  1  0
 14 24  1  0
 15 25  1  0
 16 26  1  0
 17 27  1  0
M  END
> <Uni-Dock RESULT> 
ENERGY=   -6.282  LOWER_BOUND=    0.000  UPPER_BOUND=    4.853
INTER + INTRA:          -6.282
INTER:                  -6.282
INTRA:                   0.000
UNBOUND:                 0.000

$$$$

     RDKit          3D

 27 29  0  0  0  0  0  0  0  0999 V2000
   45.5637    4.5636    8.9779 C   0  0  0  0  0  0  0  0  0  0  0  0
   44.6612    4.4607   10.1451 C   0  0  0  0  0  0  0  0  0  0  0  0
   46.0060    3.3425    8.2706 C   0  0  0  0  0  0  0  0  0  0  0  0
   44.2274    3.2006   10.5774 C   0  0  0  0  0  0  0  0  0  0  0  0
   45.5660    2.0875    8.7115 C   0  0  0  0  0  0  0  0  0  0  0  0
   44.6479    1.9279    9.8932 C   0  0  0  0  0  0  0  0  0  0  0  0
   45.9477    5.6690    8.5941 O   0  0  0  0  0  0  0  0  0  0  0  0
   44.2377    5.6157   10.8208 C   0  0  0  0  0  0  0  0  0  0  0  0
   46.8625    3.4333    7.1622 C   0  0  0  0  0  0  0  0  0  0  0  0
   43.3695    3.1203   11.6888 C   0  0  0  0  0  0  0  0  0  0  0  0
   45.9959    0.9364    8.0279 C   0  0  0  0  0  0  0  0  0  0  0  0
   44.6189    6.8799   10.4575 O   0  0  0  0  0  0  0  0  0  0  0  0
   47.3337    4.6226    6.6735 O   0  0  0  0  0  0  0  0  0  0  0  0
   42.9536    4.2743   12.3545 C   0  0  0  0  0  0  0  0  0  0  0  0
   46.8476    1.0364    6.9268 C   0  0  0  0  0  0  0  0  0  0  0  0
   43.3885    5.5233   11.9195 C   0  0  0  0  0  0  0  0  0  0  0  0
   47.2811    2.2866    6.4938 C   0  0  0  0  0  0  0  0  0  0  0  0
   43.7423    1.4094    9.5528 H   0  0  0  0  0  0  0  0  0  0  0  0
   45.1531    1.2945   10.6336 H   0  0  0  0  0  0  0  0  0  0  0  0
   43.0190    2.1523   12.0435 H   0  0  0  0  0  0  0  0  0  0  0  0
   45.6674   -0.0499    8.3518 H   0  0  0  0  0  0  0  0  0  0  0  0
   45.2107    6.8017    9.6767 H   0  0  0  0  0  0  0  0  0  0  0  0
   46.9651    5.3429    7.2314 H   0  0  0  0  0  0  0  0  0  0  0  0
   42.2901    4.2009   13.2128 H   0  0  0  0  0  0  0  0  0  0  0  0
   47.1741    0.1399    6.4052 H   0  0  0  0  0  0  0  0  0  0  0  0
   43.0679    6.4255   12.4340 H   0  0  0  0  0  0  0  0  0  0  0  0
   47.9443    2.3708    5.6369 H   0  0  0  0  0  0  0  0  0  0  0  0
  2  1  1  0
  3  1  1  0
  4  2  2  0
  5  3  2  0
  6  5  1  0
  7  1  2  0
  8  2  1  0
  9  3  1  0
 10  4  1  0
 11  5  1  0
 12  8  1  0
 13  9  1  0
 14 16  1  0
 15 17  1  0
 16  8  2  0
 17  9  2  0
  4  6  1  0
 11 15  2  0
 10 14  2  0
  6 18  1  0
  6 19  1  0
 10 20  1  0
 11 21  1  0
 12 22  1  0
 13 23  1  0
 14 24  1  0
 15 25  1  0
 16 26  1  0
 17 27  1  0
M  END
> <Uni-Dock RESULT> 
ENERGY=   -4.679  LOWER_BOUND=    2.176  UPPER_BOUND=    5.653
INTER + INTRA:          -4.679
INTER:                  -4.679
INTRA:                   0.000
UNBOUND:                 0.000

$$$$

     RDKit          3D

 27 29  0  0  0  0  0  0  0  0999 V2000
   45.1148    7.1333   12.3521 C   0  0  0  0  0  0  0  0  0  0  0  0
   44.7182    5.7121   12.2510 C   0  0  0  0  0  0  0  0  0  0  0  0
   46.4020    7.5030   12.9794 C   0  0  0  0  0  0  0  0  0  0  0  0
   45.5681    4.7176   12.7525 C   0  0  0  0  0  0  0  0  0  0  0  0
   47.2442    6.5001   13.4775 C   0  0  0  0  0  0  0  0  0  0  0  0
   46.8879    5.0400   13.3997 C   0  0  0  0  0  0  0  0  0  0  0  0
   44.3711    8.0112   11.9126 O   0  0  0  0  0  0  0  0  0  0  0  0
   43.4979    5.3547   11.6567 C   0  0  0  0  0  0  0  0  0  0  0  0
   46.7842    8.8499   13.0784 C   0  0  0  0  0  0  0  0  0  0  0  0
   45.1761    3.3710   12.6485 C   0  0  0  0  0  0  0  0  0  0  0  0
   48.4646    6.8685   14.0710 C   0  0  0  0  0  0  0  0  0  0  0  0
   42.6163    6.2690   11.1448 O   0  0  0  0  0  0  0  0  0  0  0  0
   46.0153    9.8841   12.6152 O   0  0  0  0  0  0  0  0  0  0  0  0
   43.9608    3.0250   12.0560 C   0  0  0  0  0  0  0  0  0  0  0  0
   48.8363    8.2104   14.1651 C   0  0  0  0  0  0  0  0  0  0  0  0
   43.1211    4.0185   11.5596 C   0  0  0  0  0  0  0  0  0  0  0  0
   47.9947    9.2020   13.6681 C   0  0  0  0  0  0  0  0  0  0  0  0
   47.6777    4.5267   12.8361 H   0  0  0  0  0  0  0  0  0  0  0  0
   46.8732    4.6384   14.4211 H   0  0  0  0  0  0  0  0  0  0  0  0
   45.8197    2.5803   13.0309 H   0  0  0  0  0  0  0  0  0  0  0  0
   49.1357    6.1072   14.4654 H   0  0  0  0  0  0  0  0  0  0  0  0
   43.0015    7.1634   11.2773 H   0  0  0  0  0  0  0  0  0  0  0  0
   45.1981    9.4996   12.2275 H   0  0  0  0  0  0  0  0  0  0  0  0
   43.6673    1.9808   11.9806 H   0  0  0  0  0  0  0  0  0  0  0  0
   49.7823    8.4845   14.6260 H   0  0  0  0  0  0  0  0  0  0  0  0
   42.1733    3.7550   11.0972 H   0  0  0  0  0  0  0  0  0  0  0  0
   48.2788   10.2487   13.7384 H   0  0  0  0  0  0  0  0  0  0  0  0
  2  1  1  0
  3  1  1  0
  4  2  2  0
  5  3  2  0
  6  5  1  0
  7  1  2  0
  8  2  1  0
  9  3  1  0
 10  4  1  0
 11  5  1  0
 12  8  1  0
 13  9  1  0
 14 16  1  0
 15 17  1  0
 16  8  2  0
 17  9  2  0
  4  6  1  0
 11 15  2  0
 10 14  2  0
  6 18  1  0
  6 19  1  0
 10 20  1  0
 11 21  1  0
 12 22  1  0
 13 23  1  0
 14 24  1  0
 15 25  1  0
 16 26  1  0
 17 27  1  0
M  END
> <Uni-Dock RESULT> 
ENERGY=   -4.606  LOWER_BOUND=    4.568  UPPER_BOUND=    6.425
INTER + INTRA:          -4.606
INTER:                  -4.606
INTRA:                   0.000
UNBOUND:                 0.000

$$$$

     RDKit          3D

 27 29  0  0  0  0  0  0  0  0999 V2000
   45.1149    7.1333   12.3520 C   0  0  0  0  0  0  0  0  0  0  0  0
   46.4021    7.5030   12.9794 C   0  0  0  0  0  0  0  0  0  0  0  0
   44.7183    5.7122   12.2510 C   0  0  0  0  0  0  0  0  0  0  0  0
   47.2442    6.5001   13.4775 C   0  0  0  0  0  0  0  0  0  0  0  0
   45.5682    4.7175   12.7525 C   0  0  0  0  0  0  0  0  0  0  0  0
   46.8880    5.0401   13.3997 C   0  0  0  0  0  0  0  0  0  0  0  0
   44.3712    8.0112   11.9127 O   0  0  0  0  0  0  0  0  0  0  0  0
   46.7843    8.8499   13.0784 C   0  0  0  0  0  0  0  0  0  0  0  0
   43.4980    5.3547   11.6567 C   0  0  0  0  0  0  0  0  0  0  0  0
   48.4647    6.8686   14.0710 C   0  0  0  0  0  0  0  0  0  0  0  0
   45.1762    3.3710   12.6486 C   0  0  0  0  0  0  0  0  0  0  0  0
   46.0154    9.8841   12.6151 O   0  0  0  0  0  0  0  0  0  0  0  0
   42.6163    6.2690   11.1448 O   0  0  0  0  0  0  0  0  0  0  0  0
   48.8364    8.2106   14.1651 C   0  0  0  0  0  0  0  0  0  0  0  0
   43.9609    3.0251   12.0560 C   0  0  0  0  0  0  0  0  0  0  0  0
   47.9948    9.2020   13.6680 C   0  0  0  0  0  0  0  0  0  0  0  0
   43.1211    4.0184   11.5597 C   0  0  0  0  0  0  0  0  0  0  0  0
   46.8732    4.6385   14.4211 H   0  0  0  0  0  0  0  0  0  0  0  0
   47.6777    4.5268   12.8362 H   0  0  0  0  0  0  0  0  0  0  0  0
   49.1358    6.1073   14.4654 H   0  0  0  0  0  0  0  0  0  0  0  0
   45.8198    2.5804   13.0310 H   0  0  0  0  0  0  0  0  0  0  0  0
   45.1982    9.4997   12.2274 H   0  0  0  0  0  0  0  0  0  0  0  0
   43.0016    7.1634   11.2772 H   0  0  0  0  0  0  0  0  0  0  0  0
   49.7823    8.4846   14.6259 H   0  0  0  0  0  0  0  0  0  0  0  0
   43.6674    1.9808   11.9807 H   0  0  0  0  0  0  0  0  0  0  0  0
   48.2789   10.2488   13.7384 H   0  0  0  0  0  0  0  0  0  0  0  0
   42.1735    3.7551   11.0972 H   0  0  0  0  0  0  0  0  0  0  0  0
  2  1  1  0
  3  1  1  0
  4  2  2  0
  5  3  2  0
  6  5  1  0
  7  1  2  0
  8  2  1  0
  9  3  1  0
 10  4  1  0
 11  5  1  0
 12  8  1  0
 13  9  1  0
 14 16  1  0
 15 17  1  0
 16  8  2  0
 17  9  2  0
  4  6  1  0
 11 15  2  0
 10 14  2  0
  6 18  1  0
  6 19  1  0
 10 20  1  0
 11 21  1  0
 12 22  1  0
 13 23  1  0
 14 24  1  0
 15 25  1  0
 16 26  1  0
 17 27  1  0
M  END
> <Uni-Dock RESULT> 
ENERGY=   -4.606  LOWER_BOUND=    4.568  UPPER_BOUND=    6.588
INTER + INTRA:          -4.606
INTER:                  -4.606
INTRA:                   0.000
UNBOUND:                 0.000

$$$$

     RDKit          3D

 27 29  0  0  0  0  0  0  0  0999 V2000
   46.8031    5.7937   12.9997 C   0  0  0  0  0  0  0  0  0  0  0  0
   45.4914    5.2881   12.5403 C   0  0  0  0  0  0  0  0  0  0  0  0
   47.1046    7.2403   12.9395 C   0  0  0  0  0  0  0  0  0  0  0  0
   44.5356    6.1865   12.0477 C   0  0  0  0  0  0  0  0  0  0  0  0
   46.1414    8.1297   12.4451 C   0  0  0  0  0  0  0  0  0  0  0  0
   44.7921    7.6671   11.9653 C   0  0  0  0  0  0  0  0  0  0  0  0
   47.6464    5.0080   13.4335 O   0  0  0  0  0  0  0  0  0  0  0  0
   45.1990    3.9165   12.5948 C   0  0  0  0  0  0  0  0  0  0  0  0
   48.3476    7.7265   13.3740 C   0  0  0  0  0  0  0  0  0  0  0  0
   43.2934    5.6894   11.6149 C   0  0  0  0  0  0  0  0  0  0  0  0
   46.4440    9.5020   12.3946 C   0  0  0  0  0  0  0  0  0  0  0  0
   46.0809    2.9792   13.0628 O   0  0  0  0  0  0  0  0  0  0  0  0
   49.3375    6.9200   13.8687 O   0  0  0  0  0  0  0  0  0  0  0  0
   43.0115    4.3237   11.6728 C   0  0  0  0  0  0  0  0  0  0  0  0
   47.6826    9.9763   12.8288 C   0  0  0  0  0  0  0  0  0  0  0  0
   43.9658    3.4366   12.1635 C   0  0  0  0  0  0  0  0  0  0  0  0
   48.6353    9.0871   13.3189 C   0  0  0  0  0  0  0  0  0  0  0  0
   44.0254    8.1788   12.5611 H   0  0  0  0  0  0  0  0  0  0  0  0
   44.6798    7.9740   10.9176 H   0  0  0  0  0  0  0  0  0  0  0  0
   42.5346    6.3679   11.2282 H   0  0  0  0  0  0  0  0  0  0  0  0
   45.7117   10.2125   12.0144 H   0  0  0  0  0  0  0  0  0  0  0  0
   46.9019    3.4480   13.3313 H   0  0  0  0  0  0  0  0  0  0  0  0
   49.0064    5.9947   13.8521 H   0  0  0  0  0  0  0  0  0  0  0  0
   42.0478    3.9499   11.3356 H   0  0  0  0  0  0  0  0  0  0  0  0
   47.9065   11.0395   12.7854 H   0  0  0  0  0  0  0  0  0  0  0  0
   43.7520    2.3720   12.2109 H   0  0  0  0  0  0  0  0  0  0  0  0
   49.6016    9.4506   13.6585 H   0  0  0  0  0  0  0  0  0  0  0  0
  2  1  1  0
  3  1  1  0
  4  2  2  0
  5  3  2  0
  6  5  1  0
  7  1  2  0
  8  2  1  0
  9  3  1  0
 10  4  1  0
 11  5  1  0
 12  8  1  0
 13  9  1  0
 14 16  1  0
 15 17  1  0
 16  8  2  0
 17  9  2  0
  4  6  1  0
 11 15  2  0
 10 14  2  0
  6 18  1  0
  6 19  1  0
 10 20  1  0
 11 21  1  0
 12 22  1  0
 13 23  1  0
 14 24  1  0
 15 25  1  0
 16 26  1  0
 17 27  1  0
M  END
> <Uni-Dock RESULT> 
ENERGY=   -4.433  LOWER_BOUND=    4.297  UPPER_BOUND=    6.121
INTER + INTRA:          -4.433
INTER:                  -4.433
INTRA:                   0.000
UNBOUND:                 0.000

$$$$

     RDKit          3D

 27 29  0  0  0  0  0  0  0  0999 V2000
   46.8029    5.7943   12.9992 C   0  0  0  0  0  0  0  0  0  0  0  0
   47.1046    7.2409   12.9384 C   0  0  0  0  0  0  0  0  0  0  0  0
   45.4911    5.2886   12.5402 C   0  0  0  0  0  0  0  0  0  0  0  0
   46.1413    8.1300   12.4438 C   0  0  0  0  0  0  0  0  0  0  0  0
   44.5353    6.1868   12.0474 C   0  0  0  0  0  0  0  0  0  0  0  0
   44.7919    7.6674   11.9646 C   0  0  0  0  0  0  0  0  0  0  0  0
   47.6464    5.0088   13.4331 O   0  0  0  0  0  0  0  0  0  0  0  0
   48.3476    7.7271   13.3724 C   0  0  0  0  0  0  0  0  0  0  0  0
   45.1987    3.9169   12.5953 C   0  0  0  0  0  0  0  0  0  0  0  0
   46.4440    9.5024   12.3928 C   0  0  0  0  0  0  0  0  0  0  0  0
   43.2930    5.6897   11.6151 C   0  0  0  0  0  0  0  0  0  0  0  0
   49.3376    6.9207   13.8673 O   0  0  0  0  0  0  0  0  0  0  0  0
   46.0807    2.9798   13.0635 O   0  0  0  0  0  0  0  0  0  0  0  0
   47.6828    9.9768   12.8266 C   0  0  0  0  0  0  0  0  0  0  0  0
   43.0110    4.3242   11.6736 C   0  0  0  0  0  0  0  0  0  0  0  0
   48.6354    9.0877   13.3168 C   0  0  0  0  0  0  0  0  0  0  0  0
   43.9653    3.4371   12.1644 C   0  0  0  0  0  0  0  0  0  0  0  0
   44.6796    7.9740   10.9166 H   0  0  0  0  0  0  0  0  0  0  0  0
   44.0253    8.1795   12.5602 H   0  0  0  0  0  0  0  0  0  0  0  0
   45.7117   10.2128   12.0125 H   0  0  0  0  0  0  0  0  0  0  0  0
   42.5342    6.3681   11.2283 H   0  0  0  0  0  0  0  0  0  0  0  0
   49.0065    5.9955   13.8512 H   0  0  0  0  0  0  0  0  0  0  0  0
   46.9017    3.4488   13.3317 H   0  0  0  0  0  0  0  0  0  0  0  0
   47.9067   11.0399   12.7827 H   0  0  0  0  0  0  0  0  0  0  0  0
   42.0472    3.9502   11.3367 H   0  0  0  0  0  0  0  0  0  0  0  0
   49.6019    9.4513   13.6561 H   0  0  0  0  0  0  0  0  0  0  0  0
   43.7516    2.3725   12.2123 H   0  0  0  0  0  0  0  0  0  0  0  0
  2  1  1  0
  3  1  1  0
  4  2  2  0
  5  3  2  0
  6  5  1  0
  7  1  2  0
  8  2  1  0
  9  3  1  0
 10  4  1  0
 11  5  1  0
 12  8  1  0
 13  9  1  0
 14 16  1  0
 15 17  1  0
 16  8  2  0
 17  9  2  0
  4  6  1  0
 11 15  2  0
 10 14  2  0
  6 18  1  0
  6 19  1  0
 10 20  1  0
 11 21  1  0
 12 22  1  0
 13 23  1  0
 14 24  1  0
 15 25  1  0
 16 26  1  0
 17 27  1  0
M  END
> <Uni-Dock RESULT> 
ENERGY=   -4.432  LOWER_BOUND=    4.298  UPPER_BOUND=    6.196
INTER + INTRA:          -4.432
INTER:                  -4.432
INTRA:                   0.000
UNBOUND:                 0.000

$$$$

     RDKit          3D

 27 29  0  0  0  0  0  0  0  0999 V2000
   43.9274    6.9684   11.5623 C   0  0  0  0  0  0  0  0  0  0  0  0
   44.6122    5.7798   12.1149 C   0  0  0  0  0  0  0  0  0  0  0  0
   44.5629    8.3009   11.6517 C   0  0  0  0  0  0  0  0  0  0  0  0
   45.8661    5.9222   12.7237 C   0  0  0  0  0  0  0  0  0  0  0  0
   45.8170    8.4317   12.2626 C   0  0  0  0  0  0  0  0  0  0  0  0
   46.5557    7.2547   12.8405 C   0  0  0  0  0  0  0  0  0  0  0  0
   42.8252    6.8483   11.0261 O   0  0  0  0  0  0  0  0  0  0  0  0
   44.0146    4.5124   12.0332 C   0  0  0  0  0  0  0  0  0  0  0  0
   43.9182    9.4329   11.1292 C   0  0  0  0  0  0  0  0  0  0  0  0
   46.5037    4.7820   13.2441 C   0  0  0  0  0  0  0  0  0  0  0  0
   46.4074    9.7056   12.3394 C   0  0  0  0  0  0  0  0  0  0  0  0
   42.7930    4.2948   11.4538 O   0  0  0  0  0  0  0  0  0  0  0  0
   42.6934    9.3840   10.5187 O   0  0  0  0  0  0  0  0  0  0  0  0
   45.9018    3.5257   13.1583 C   0  0  0  0  0  0  0  0  0  0  0  0
   45.7589   10.8256   11.8171 C   0  0  0  0  0  0  0  0  0  0  0  0
   44.6557    3.3914   12.5520 C   0  0  0  0  0  0  0  0  0  0  0  0
   44.5128   10.6886   11.2113 C   0  0  0  0  0  0  0  0  0  0  0  0
   47.5268    7.1808   12.3344 H   0  0  0  0  0  0  0  0  0  0  0  0
   46.7332    7.4538   13.9052 H   0  0  0  0  0  0  0  0  0  0  0  0
   47.4785    4.8674   13.7218 H   0  0  0  0  0  0  0  0  0  0  0  0
   47.3813    9.8324   12.8095 H   0  0  0  0  0  0  0  0  0  0  0  0
   42.4552    5.1601   11.1327 H   0  0  0  0  0  0  0  0  0  0  0  0
   42.3908    8.4489   10.5285 H   0  0  0  0  0  0  0  0  0  0  0  0
   46.4035    2.6505   13.5639 H   0  0  0  0  0  0  0  0  0  0  0  0
   46.2242   11.8062   11.8818 H   0  0  0  0  0  0  0  0  0  0  0  0
   44.1819    2.4156   12.4823 H   0  0  0  0  0  0  0  0  0  0  0  0
   44.0030   11.5571   10.8027 H   0  0  0  0  0  0  0  0  0  0  0  0
  2  1  1  0
  3  1  1  0
  4  2  2  0
  5  3  2  0
  6  5  1  0
  7  1  2  0
  8  2  1  0
  9  3  1  0
 10  4  1  0
 11  5  1  0
 12  8  1  0
 13  9  1  0
 14 16  1  0
 15 17  1  0
 16  8  2  0
 17  9  2  0
  4  6  1  0
 11 15  2  0
 10 14  2  0
  6 18  1  0
  6 19  1  0
 10 20  1  0
 11 21  1  0
 12 22  1  0
 13 23  1  0
 14 24  1  0
 15 25  1  0
 16 26  1  0
 17 27  1  0
M  END
> <Uni-Dock RESULT> 
ENERGY=   -4.426  LOWER_BOUND=    4.357  UPPER_BOUND=    5.984
INTER + INTRA:          -4.426
INTER:                  -4.426
INTRA:                   0.000
UNBOUND:                 0.000

$$$$

     RDKit          3D

 27 29  0  0  0  0  0  0  0  0999 V2000
   43.9699    6.9785   11.5674 C   0  0  0  0  0  0  0  0  0  0  0  0
   44.5714    8.3271   11.6491 C   0  0  0  0  0  0  0  0  0  0  0  0
   44.6786    5.8127   12.1383 C   0  0  0  0  0  0  0  0  0  0  0  0
   45.8161    8.4949   12.2701 C   0  0  0  0  0  0  0  0  0  0  0  0
   45.9228    5.9921   12.7571 C   0  0  0  0  0  0  0  0  0  0  0  0
   46.5782    7.3424   12.8665 C   0  0  0  0  0  0  0  0  0  0  0  0
   42.8760    6.8259   11.0226 O   0  0  0  0  0  0  0  0  0  0  0  0
   43.9040    9.4375   11.1093 C   0  0  0  0  0  0  0  0  0  0  0  0
   44.1131    4.5302   12.0641 C   0  0  0  0  0  0  0  0  0  0  0  0
   46.3741    9.7838   12.3393 C   0  0  0  0  0  0  0  0  0  0  0  0
   46.5835    4.8733   13.2948 C   0  0  0  0  0  0  0  0  0  0  0  0
   42.6864    9.3523   10.4883 O   0  0  0  0  0  0  0  0  0  0  0  0
   42.9027    4.2767   11.4758 O   0  0  0  0  0  0  0  0  0  0  0  0
   45.7032   10.8823   11.7997 C   0  0  0  0  0  0  0  0  0  0  0  0
   46.0135    3.6018   13.2163 C   0  0  0  0  0  0  0  0  0  0  0  0
   44.4666   10.7083   11.1841 C   0  0  0  0  0  0  0  0  0  0  0  0
   44.7768    3.4305   12.6001 C   0  0  0  0  0  0  0  0  0  0  0  0
   46.7407    7.5564   13.9308 H   0  0  0  0  0  0  0  0  0  0  0  0
   47.5556    7.2876   12.3702 H   0  0  0  0  0  0  0  0  0  0  0  0
   47.3402    9.9394   12.8169 H   0  0  0  0  0  0  0  0  0  0  0  0
   47.5513    4.9876   13.7804 H   0  0  0  0  0  0  0  0  0  0  0  0
   42.4070    8.4102   10.5047 H   0  0  0  0  0  0  0  0  0  0  0  0
   42.5468    5.1301   11.1429 H   0  0  0  0  0  0  0  0  0  0  0  0
   46.1435   11.8746   11.8587 H   0  0  0  0  0  0  0  0  0  0  0  0
   46.5328    2.7433   13.6353 H   0  0  0  0  0  0  0  0  0  0  0  0
   43.9393   11.5600   10.7620 H   0  0  0  0  0  0  0  0  0  0  0  0
   44.3279    2.4428   12.5359 H   0  0  0  0  0  0  0  0  0  0  0  0
  2  1  1  0
  3  1  1  0
  4  2  2  0
  5  3  2  0
  6  5  1  0
  7  1  2  0
  8  2  1  0
  9  3  1  0
 10  4  1  0
 11  5  1  0
 12  8  1  0
 13  9  1  0
 14 16  1  0
 15 17  1  0
 16  8  2  0
 17  9  2  0
  4  6  1  0
 11 15  2  0
 10 14  2  0
  6 18  1  0
  6 19  1  0
 10 20  1  0
 11 21  1  0
 12 22  1  0
 13 23  1  0
 14 24  1  0
 15 25  1  0
 16 26  1  0
 17 27  1  0
M  END
> <Uni-Dock RESULT> 
ENERGY=   -4.424  LOWER_BOUND=    4.355  UPPER_BOUND=    6.506
INTER + INTRA:          -4.424
INTER:                  -4.424
INTRA:                   0.000
UNBOUND:                 0.000

$$$$
