
     RDKit          3D

 27 29  0  0  0  0  0  0  0  0999 V2000
   44.9895    2.2492    9.3841 C   0  0  0  0  0  0  0  0  0  0  0  0
   45.9304    2.4308    8.2576 C   0  0  0  0  0  0  0  0  0  0  0  0
   44.4334    3.4268   10.0851 C   0  0  0  0  0  0  0  0  0  0  0  0
   46.2925    3.7239    7.8579 C   0  0  0  0  0  0  0  0  0  0  0  0
   44.8024    4.7153    9.6769 C   0  0  0  0  0  0  0  0  0  0  0  0
   45.7556    4.9546    8.5373 C   0  0  0  0  0  0  0  0  0  0  0  0
   44.6681    1.1147    9.7391 O   0  0  0  0  0  0  0  0  0  0  0  0
   46.4616    1.3174    7.5880 C   0  0  0  0  0  0  0  0  0  0  0  0
   43.5399    3.2612   11.1549 C   0  0  0  0  0  0  0  0  0  0  0  0
   47.1883    3.8791    6.7850 C   0  0  0  0  0  0  0  0  0  0  0  0
   44.2646    5.8241   10.3542 C   0  0  0  0  0  0  0  0  0  0  0  0
   46.1552    0.0249    7.9209 O   0  0  0  0  0  0  0  0  0  0  0  0
   43.1332    2.0354   11.6102 O   0  0  0  0  0  0  0  0  0  0  0  0
   47.7114    2.7661    6.1252 C   0  0  0  0  0  0  0  0  0  0  0  0
   43.3769    5.6499   11.4168 C   0  0  0  0  0  0  0  0  0  0  0  0
   47.3475    1.4840    6.5276 C   0  0  0  0  0  0  0  0  0  0  0  0
   43.0144    4.3666   11.8173 C   0  0  0  0  0  0  0  0  0  0  0  0
   46.6076    5.5302    8.9215 H   0  0  0  0  0  0  0  0  0  0  0  0
   45.2385    5.5616    7.7830 H   0  0  0  0  0  0  0  0  0  0  0  0
   47.4846    4.8739    6.4560 H   0  0  0  0  0  0  0  0  0  0  0  0
   44.5363    6.8353   10.0553 H   0  0  0  0  0  0  0  0  0  0  0  0
   45.5273    0.0511    8.6767 H   0  0  0  0  0  0  0  0  0  0  0  0
   43.5744    1.3503   11.0607 H   0  0  0  0  0  0  0  0  0  0  0  0
   48.4035    2.8973    5.2967 H   0  0  0  0  0  0  0  0  0  0  0  0
   42.9668    6.5142   11.9337 H   0  0  0  0  0  0  0  0  0  0  0  0
   47.7517    0.6135    6.0175 H   0  0  0  0  0  0  0  0  0  0  0  0
   42.3234    4.2247   12.6442 H   0  0  0  0  0  0  0  0  0  0  0  0
  2  1  1  0
  3  1  1  0
  4  2  2  0
  5  3  2  0
  6  5  1  0
  7  1  2  0
  8  2  1  0
  9  3  1  0
 10  4  1  0
 11  5  1  0
 12  8  1  0
 13  9  1  0
 14 16  1  0
 15 17  1  0
 16  8  2  0
 17  9  2  0
  4  6  1  0
 11 15  2  0
 10 14  2  0
  6 18  1  0
  6 19  1  0
 10 20  1  0
 11 21  1  0
 12 22  1  0
 13 23  1  0
 14 24  1  0
 15 25  1  0
 16 26  1  0
 17 27  1  0
M  END
> <Uni-Dock RESULT> 
ENERGY=   -6.282  LOWER_BOUND=    0.000  UPPER_BOUND=    0.000
INTER + INTRA:          -6.282
INTER:                  -6.282
INTRA:                   0.000
UNBOUND:                 0.000

$$$$

     RDKit          3D

 27 29  0  0  0  0  0  0  0  0999 V2000
   45.5634    4.5634    8.9778 C   0  0  0  0  0  0  0  0  0  0  0  0
   44.6610    4.4606   10.1450 C   0  0  0  0  0  0  0  0  0  0  0  0
   46.0056    3.3421    8.2706 C   0  0  0  0  0  0  0  0  0  0  0  0
   44.2272    3.2006   10.5776 C   0  0  0  0  0  0  0  0  0  0  0  0
   45.5656    2.0872    8.7118 C   0  0  0  0  0  0  0  0  0  0  0  0
   44.6476    1.9278    9.8935 C   0  0  0  0  0  0  0  0  0  0  0  0
   45.9473    5.6686    8.5937 O   0  0  0  0  0  0  0  0  0  0  0  0
   44.2375    5.6158   10.8205 C   0  0  0  0  0  0  0  0  0  0  0  0
   46.8620    3.4328    7.1621 C   0  0  0  0  0  0  0  0  0  0  0  0
   43.3695    3.1204   11.6891 C   0  0  0  0  0  0  0  0  0  0  0  0
   45.9956    0.9361    8.0282 C   0  0  0  0  0  0  0  0  0  0  0  0
   44.6187    6.8799   10.4571 O   0  0  0  0  0  0  0  0  0  0  0  0
   47.3332    4.6220    6.6731 O   0  0  0  0  0  0  0  0  0  0  0  0
   42.9536    4.2745   12.3545 C   0  0  0  0  0  0  0  0  0  0  0  0
   46.8471    1.0359    6.9270 C   0  0  0  0  0  0  0  0  0  0  0  0
   43.3885    5.5234   11.9194 C   0  0  0  0  0  0  0  0  0  0  0  0
   47.2805    2.2861    6.4938 C   0  0  0  0  0  0  0  0  0  0  0  0
   45.1530    1.2944   10.6340 H   0  0  0  0  0  0  0  0  0  0  0  0
   43.7420    1.4092    9.5534 H   0  0  0  0  0  0  0  0  0  0  0  0
   43.0189    2.1525   12.0440 H   0  0  0  0  0  0  0  0  0  0  0  0
   45.6671   -0.0503    8.3522 H   0  0  0  0  0  0  0  0  0  0  0  0
   45.2104    6.8015    9.6762 H   0  0  0  0  0  0  0  0  0  0  0  0
   46.9645    5.3424    7.2310 H   0  0  0  0  0  0  0  0  0  0  0  0
   42.2902    4.2013   13.2130 H   0  0  0  0  0  0  0  0  0  0  0  0
   47.1735    0.1393    6.4055 H   0  0  0  0  0  0  0  0  0  0  0  0
   43.0680    6.4257   12.4337 H   0  0  0  0  0  0  0  0  0  0  0  0
   47.9437    2.3701    5.6368 H   0  0  0  0  0  0  0  0  0  0  0  0
  2  1  1  0
  3  1  1  0
  4  2  2  0
  5  3  2  0
  6  5  1  0
  7  1  2  0
  8  2  1  0
  9  3  1  0
 10  4  1  0
 11  5  1  0
 12  8  1  0
 13  9  1  0
 14 16  1  0
 15 17  1  0
 16  8  2  0
 17  9  2  0
  4  6  1  0
 11 15  2  0
 10 14  2  0
  6 18  1  0
  6 19  1  0
 10 20  1  0
 11 21  1  0
 12 22  1  0
 13 23  1  0
 14 24  1  0
 15 25  1  0
 16 26  1  0
 17 27  1  0
M  END
> <Uni-Dock RESULT> 
ENERGY=   -4.687  LOWER_BOUND=    2.176  UPPER_BOUND=    5.653
INTER + INTRA:          -4.687
INTER:                  -4.687
INTRA:                   0.000
UNBOUND:                 0.000

$$$$

     RDKit          3D

 27 29  0  0  0  0  0  0  0  0999 V2000
   45.1148    7.1333   12.3520 C   0  0  0  0  0  0  0  0  0  0  0  0
   46.4020    7.5030   12.9794 C   0  0  0  0  0  0  0  0  0  0  0  0
   44.7183    5.7121   12.2510 C   0  0  0  0  0  0  0  0  0  0  0  0
   47.2441    6.5001   13.4776 C   0  0  0  0  0  0  0  0  0  0  0  0
   45.5682    4.7175   12.7526 C   0  0  0  0  0  0  0  0  0  0  0  0
   46.8879    5.0401   13.3997 C   0  0  0  0  0  0  0  0  0  0  0  0
   44.3712    8.0112   11.9127 O   0  0  0  0  0  0  0  0  0  0  0  0
   46.7841    8.8499   13.0785 C   0  0  0  0  0  0  0  0  0  0  0  0
   43.4979    5.3547   11.6567 C   0  0  0  0  0  0  0  0  0  0  0  0
   48.4646    6.8685   14.0711 C   0  0  0  0  0  0  0  0  0  0  0  0
   45.1761    3.3711   12.6485 C   0  0  0  0  0  0  0  0  0  0  0  0
   46.0153    9.8841   12.6152 O   0  0  0  0  0  0  0  0  0  0  0  0
   42.6163    6.2689   11.1447 O   0  0  0  0  0  0  0  0  0  0  0  0
   48.8362    8.2105   14.1652 C   0  0  0  0  0  0  0  0  0  0  0  0
   43.9609    3.0251   12.0560 C   0  0  0  0  0  0  0  0  0  0  0  0
   47.9947    9.2019   13.6680 C   0  0  0  0  0  0  0  0  0  0  0  0
   43.1211    4.0185   11.5596 C   0  0  0  0  0  0  0  0  0  0  0  0
   47.6777    4.5267   12.8362 H   0  0  0  0  0  0  0  0  0  0  0  0
   46.8731    4.6385   14.4212 H   0  0  0  0  0  0  0  0  0  0  0  0
   49.1358    6.1072   14.4655 H   0  0  0  0  0  0  0  0  0  0  0  0
   45.8196    2.5803   13.0309 H   0  0  0  0  0  0  0  0  0  0  0  0
   45.1981    9.4995   12.2275 H   0  0  0  0  0  0  0  0  0  0  0  0
   43.0016    7.1634   11.2772 H   0  0  0  0  0  0  0  0  0  0  0  0
   49.7822    8.4846   14.6261 H   0  0  0  0  0  0  0  0  0  0  0  0
   43.6673    1.9807   11.9806 H   0  0  0  0  0  0  0  0  0  0  0  0
   48.2788   10.2487   13.7385 H   0  0  0  0  0  0  0  0  0  0  0  0
   42.1734    3.7551   11.0972 H   0  0  0  0  0  0  0  0  0  0  0  0
  2  1  1  0
  3  1  1  0
  4  2  2  0
  5  3  2  0
  6  5  1  0
  7  1  2  0
  8  2  1  0
  9  3  1  0
 10  4  1  0
 11  5  1  0
 12  8  1  0
 13  9  1  0
 14 16  1  0
 15 17  1  0
 16  8  2  0
 17  9  2  0
  4  6  1  0
 11 15  2  0
 10 14  2  0
  6 18  1  0
  6 19  1  0
 10 20  1  0
 11 21  1  0
 12 22  1  0
 13 23  1  0
 14 24  1  0
 15 25  1  0
 16 26  1  0
 17 27  1  0
M  END
> <Uni-Dock RESULT> 
ENERGY=   -4.606  LOWER_BOUND=    4.567  UPPER_BOUND=    6.588
INTER + INTRA:          -4.606
INTER:                  -4.606
INTRA:                   0.000
UNBOUND:                 0.000

$$$$

     RDKit          3D

 27 29  0  0  0  0  0  0  0  0999 V2000
   45.1566    7.1564   12.3568 C   0  0  0  0  0  0  0  0  0  0  0  0
   46.4410    7.5086   12.9999 C   0  0  0  0  0  0  0  0  0  0  0  0
   44.7439    5.7404   12.2477 C   0  0  0  0  0  0  0  0  0  0  0  0
   47.2649    6.4943   13.5051 C   0  0  0  0  0  0  0  0  0  0  0  0
   45.5756    4.7342   12.7564 C   0  0  0  0  0  0  0  0  0  0  0  0
   46.8917    5.0389   13.4195 C   0  0  0  0  0  0  0  0  0  0  0  0
   44.4289    8.0443   11.9112 O   0  0  0  0  0  0  0  0  0  0  0  0
   46.8385    8.8505   13.1067 C   0  0  0  0  0  0  0  0  0  0  0  0
   43.5261    5.3995   11.6385 C   0  0  0  0  0  0  0  0  0  0  0  0
   48.4829    6.8462   14.1135 C   0  0  0  0  0  0  0  0  0  0  0  0
   45.1682    3.3930   12.6444 C   0  0  0  0  0  0  0  0  0  0  0  0
   46.0878    9.8952   12.6373 O   0  0  0  0  0  0  0  0  0  0  0  0
   42.6617    6.3257   11.1187 O   0  0  0  0  0  0  0  0  0  0  0  0
   48.8699    8.1832   14.2153 C   0  0  0  0  0  0  0  0  0  0  0  0
   43.9557    3.0634   12.0371 C   0  0  0  0  0  0  0  0  0  0  0  0
   48.0464    9.1862   13.7110 C   0  0  0  0  0  0  0  0  0  0  0  0
   43.1340    4.0683   11.5337 C   0  0  0  0  0  0  0  0  0  0  0  0
   47.6815    4.5172   12.8638 H   0  0  0  0  0  0  0  0  0  0  0  0
   46.8602    4.6351   14.4396 H   0  0  0  0  0  0  0  0  0  0  0  0
   49.1401    6.0757   14.5137 H   0  0  0  0  0  0  0  0  0  0  0  0
   45.7975    2.5934   13.0322 H   0  0  0  0  0  0  0  0  0  0  0  0
   45.2704    9.5217   12.2392 H   0  0  0  0  0  0  0  0  0  0  0  0
   43.0565    7.2151   11.2579 H   0  0  0  0  0  0  0  0  0  0  0  0
   49.8138    8.4445   14.6877 H   0  0  0  0  0  0  0  0  0  0  0  0
   43.6502    2.0229   11.9558 H   0  0  0  0  0  0  0  0  0  0  0  0
   48.3425   10.2292   13.7873 H   0  0  0  0  0  0  0  0  0  0  0  0
   42.1885    3.8177   11.0598 H   0  0  0  0  0  0  0  0  0  0  0  0
  2  1  1  0
  3  1  1  0
  4  2  2  0
  5  3  2  0
  6  5  1  0
  7  1  2  0
  8  2  1  0
  9  3  1  0
 10  4  1  0
 11  5  1  0
 12  8  1  0
 13  9  1  0
 14 16  1  0
 15 17  1  0
 16  8  2  0
 17  9  2  0
  4  6  1  0
 11 15  2  0
 10 14  2  0
  6 18  1  0
  6 19  1  0
 10 20  1  0
 11 21  1  0
 12 22  1  0
 13 23  1  0
 14 24  1  0
 15 25  1  0
 16 26  1  0
 17 27  1  0
M  END
> <Uni-Dock RESULT> 
ENERGY=   -4.604  LOWER_BOUND=    4.567  UPPER_BOUND=    6.607
INTER + INTRA:          -4.604
INTER:                  -4.604
INTRA:                   0.000
UNBOUND:                 0.000

$$$$

     RDKit          3D

 27 29  0  0  0  0  0  0  0  0999 V2000
   45.1148    7.1334   12.3522 C   0  0  0  0  0  0  0  0  0  0  0  0
   44.7182    5.7122   12.2510 C   0  0  0  0  0  0  0  0  0  0  0  0
   46.4021    7.5029   12.9795 C   0  0  0  0  0  0  0  0  0  0  0  0
   45.5681    4.7176   12.7525 C   0  0  0  0  0  0  0  0  0  0  0  0
   47.2442    6.5000   13.4776 C   0  0  0  0  0  0  0  0  0  0  0  0
   46.8878    5.0400   13.3997 C   0  0  0  0  0  0  0  0  0  0  0  0
   44.3713    8.0113   11.9128 O   0  0  0  0  0  0  0  0  0  0  0  0
   43.4979    5.3548   11.6567 C   0  0  0  0  0  0  0  0  0  0  0  0
   46.7843    8.8499   13.0786 C   0  0  0  0  0  0  0  0  0  0  0  0
   45.1761    3.3711   12.6485 C   0  0  0  0  0  0  0  0  0  0  0  0
   48.4646    6.8684   14.0711 C   0  0  0  0  0  0  0  0  0  0  0  0
   42.6163    6.2691   11.1448 O   0  0  0  0  0  0  0  0  0  0  0  0
   46.0155    9.8841   12.6154 O   0  0  0  0  0  0  0  0  0  0  0  0
   43.9608    3.0252   12.0559 C   0  0  0  0  0  0  0  0  0  0  0  0
   48.8363    8.2103   14.1653 C   0  0  0  0  0  0  0  0  0  0  0  0
   43.1210    4.0186   11.5597 C   0  0  0  0  0  0  0  0  0  0  0  0
   47.9948    9.2019   13.6682 C   0  0  0  0  0  0  0  0  0  0  0  0
   46.8731    4.6383   14.4211 H   0  0  0  0  0  0  0  0  0  0  0  0
   47.6776    4.5266   12.8362 H   0  0  0  0  0  0  0  0  0  0  0  0
   45.8196    2.5802   13.0308 H   0  0  0  0  0  0  0  0  0  0  0  0
   49.1358    6.1071   14.4655 H   0  0  0  0  0  0  0  0  0  0  0  0
   43.0017    7.1636   11.2774 H   0  0  0  0  0  0  0  0  0  0  0  0
   45.1982    9.4996   12.2277 H   0  0  0  0  0  0  0  0  0  0  0  0
   43.6671    1.9809   11.9805 H   0  0  0  0  0  0  0  0  0  0  0  0
   49.7824    8.4843   14.6261 H   0  0  0  0  0  0  0  0  0  0  0  0
   42.1733    3.7553   11.0972 H   0  0  0  0  0  0  0  0  0  0  0  0
   48.2790   10.2486   13.7386 H   0  0  0  0  0  0  0  0  0  0  0  0
  2  1  1  0
  3  1  1  0
  4  2  2  0
  5  3  2  0
  6  5  1  0
  7  1  2  0
  8  2  1  0
  9  3  1  0
 10  4  1  0
 11  5  1  0
 12  8  1  0
 13  9  1  0
 14 16  1  0
 15 17  1  0
 16  8  2  0
 17  9  2  0
  4  6  1  0
 11 15  2  0
 10 14  2  0
  6 18  1  0
  6 19  1  0
 10 20  1  0
 11 21  1  0
 12 22  1  0
 13 23  1  0
 14 24  1  0
 15 25  1  0
 16 26  1  0
 17 27  1  0
M  END
> <Uni-Dock RESULT> 
ENERGY=   -4.603  LOWER_BOUND=    4.567  UPPER_BOUND=    6.425
INTER + INTRA:          -4.603
INTER:                  -4.603
INTRA:                   0.000
UNBOUND:                 0.000

$$$$

     RDKit          3D

 27 29  0  0  0  0  0  0  0  0999 V2000
   46.8029    5.7953   12.9989 C   0  0  0  0  0  0  0  0  0  0  0  0
   47.1041    7.2420   12.9378 C   0  0  0  0  0  0  0  0  0  0  0  0
   45.4912    5.2893   12.5402 C   0  0  0  0  0  0  0  0  0  0  0  0
   46.1406    8.1307   12.4431 C   0  0  0  0  0  0  0  0  0  0  0  0
   44.5351    6.1870   12.0473 C   0  0  0  0  0  0  0  0  0  0  0  0
   44.7913    7.6676   11.9641 C   0  0  0  0  0  0  0  0  0  0  0  0
   47.6466    5.0101   13.4328 O   0  0  0  0  0  0  0  0  0  0  0  0
   48.3471    7.7287   13.3715 C   0  0  0  0  0  0  0  0  0  0  0  0
   45.1992    3.9174   12.5956 C   0  0  0  0  0  0  0  0  0  0  0  0
   46.4428    9.5031   12.3918 C   0  0  0  0  0  0  0  0  0  0  0  0
   43.2929    5.6894   11.6153 C   0  0  0  0  0  0  0  0  0  0  0  0
   49.3374    6.9227   13.8664 O   0  0  0  0  0  0  0  0  0  0  0  0
   46.0814    2.9806   13.0639 O   0  0  0  0  0  0  0  0  0  0  0  0
   47.6815    9.9780   12.8252 C   0  0  0  0  0  0  0  0  0  0  0  0
   43.0113    4.3238   11.6741 C   0  0  0  0  0  0  0  0  0  0  0  0
   48.6344    9.0893   13.3157 C   0  0  0  0  0  0  0  0  0  0  0  0
   43.9660    3.4371   12.1650 C   0  0  0  0  0  0  0  0  0  0  0  0
   44.0245    8.1796   12.5598 H   0  0  0  0  0  0  0  0  0  0  0  0
   44.6786    7.9740   10.9161 H   0  0  0  0  0  0  0  0  0  0  0  0
   45.7103   10.2133   12.0114 H   0  0  0  0  0  0  0  0  0  0  0  0
   42.5338    6.3674   11.2283 H   0  0  0  0  0  0  0  0  0  0  0  0
   49.0065    5.9973   13.8505 H   0  0  0  0  0  0  0  0  0  0  0  0
   46.9024    3.4499   13.3319 H   0  0  0  0  0  0  0  0  0  0  0  0
   47.9051   11.0412   12.7812 H   0  0  0  0  0  0  0  0  0  0  0  0
   42.0475    3.9494   11.3374 H   0  0  0  0  0  0  0  0  0  0  0  0
   49.6008    9.4533   13.6547 H   0  0  0  0  0  0  0  0  0  0  0  0
   43.7524    2.3725   12.2131 H   0  0  0  0  0  0  0  0  0  0  0  0
  2  1  1  0
  3  1  1  0
  4  2  2  0
  5  3  2  0
  6  5  1  0
  7  1  2  0
  8  2  1  0
  9  3  1  0
 10  4  1  0
 11  5  1  0
 12  8  1  0
 13  9  1  0
 14 16  1  0
 15 17  1  0
 16  8  2  0
 17  9  2  0
  4  6  1  0
 11 15  2  0
 10 14  2  0
  6 18  1  0
  6 19  1  0
 10 20  1  0
 11 21  1  0
 12 22  1  0
 13 23  1  0
 14 24  1  0
 15 25  1  0
 16 26  1  0
 17 27  1  0
M  END
> <Uni-Dock RESULT> 
ENERGY=   -4.433  LOWER_BOUND=    4.298  UPPER_BOUND=    6.196
INTER + INTRA:          -4.433
INTER:                  -4.433
INTRA:                   0.000
UNBOUND:                 0.000

$$$$

     RDKit          3D

 27 29  0  0  0  0  0  0  0  0999 V2000
   46.8030    5.7937   12.9992 C   0  0  0  0  0  0  0  0  0  0  0  0
   45.4910    5.2884   12.5402 C   0  0  0  0  0  0  0  0  0  0  0  0
   47.1048    7.2402   12.9387 C   0  0  0  0  0  0  0  0  0  0  0  0
   44.5355    6.1869   12.0476 C   0  0  0  0  0  0  0  0  0  0  0  0
   46.1418    8.1297   12.4443 C   0  0  0  0  0  0  0  0  0  0  0  0
   44.7923    7.6673   11.9650 C   0  0  0  0  0  0  0  0  0  0  0  0
   47.6462    5.0079   13.4330 O   0  0  0  0  0  0  0  0  0  0  0  0
   45.1983    3.9167   12.5951 C   0  0  0  0  0  0  0  0  0  0  0  0
   48.3481    7.7261   13.3728 C   0  0  0  0  0  0  0  0  0  0  0  0
   43.2930    5.6901   11.6152 C   0  0  0  0  0  0  0  0  0  0  0  0
   46.4449    9.5019   12.3935 C   0  0  0  0  0  0  0  0  0  0  0  0
   46.0800    2.9793   13.0631 O   0  0  0  0  0  0  0  0  0  0  0  0
   49.3379    6.9194   13.8675 O   0  0  0  0  0  0  0  0  0  0  0  0
   43.0108    4.3245   11.6735 C   0  0  0  0  0  0  0  0  0  0  0  0
   47.6837    9.9760   12.8274 C   0  0  0  0  0  0  0  0  0  0  0  0
   43.9649    3.4372   12.1640 C   0  0  0  0  0  0  0  0  0  0  0  0
   48.6362    9.0865   13.3175 C   0  0  0  0  0  0  0  0  0  0  0  0
   44.6800    7.9742   10.9171 H   0  0  0  0  0  0  0  0  0  0  0  0
   44.0258    8.1795   12.5607 H   0  0  0  0  0  0  0  0  0  0  0  0
   42.5343    6.3687   11.2285 H   0  0  0  0  0  0  0  0  0  0  0  0
   45.7127   10.2126   12.0134 H   0  0  0  0  0  0  0  0  0  0  0  0
   46.9012    3.4481   13.3313 H   0  0  0  0  0  0  0  0  0  0  0  0
   49.0065    5.9942   13.8512 H   0  0  0  0  0  0  0  0  0  0  0  0
   42.0468    3.9508   11.3365 H   0  0  0  0  0  0  0  0  0  0  0  0
   47.9078   11.0391   12.7838 H   0  0  0  0  0  0  0  0  0  0  0  0
   43.7508    2.3727   12.2118 H   0  0  0  0  0  0  0  0  0  0  0  0
   49.6027    9.4499   13.6569 H   0  0  0  0  0  0  0  0  0  0  0  0
  2  1  1  0
  3  1  1  0
  4  2  2  0
  5  3  2  0
  6  5  1  0
  7  1  2  0
  8  2  1  0
  9  3  1  0
 10  4  1  0
 11  5  1  0
 12  8  1  0
 13  9  1  0
 14 16  1  0
 15 17  1  0
 16  8  2  0
 17  9  2  0
  4  6  1  0
 11 15  2  0
 10 14  2  0
  6 18  1  0
  6 19  1  0
 10 20  1  0
 11 21  1  0
 12 22  1  0
 13 23  1  0
 14 24  1  0
 15 25  1  0
 16 26  1  0
 17 27  1  0
M  END
> <Uni-Dock RESULT> 
ENERGY=   -4.431  LOWER_BOUND=    4.298  UPPER_BOUND=    6.121
INTER + INTRA:          -4.431
INTER:                  -4.431
INTRA:                   0.000
UNBOUND:                 0.000

$$$$

     RDKit          3D

 27 29  0  0  0  0  0  0  0  0999 V2000
   43.9305    6.9805   11.5572 C   0  0  0  0  0  0  0  0  0  0  0  0
   44.5631    8.3143   11.6472 C   0  0  0  0  0  0  0  0  0  0  0  0
   44.6159    5.7939   12.1136 C   0  0  0  0  0  0  0  0  0  0  0  0
   45.8149    8.4482   12.2620 C   0  0  0  0  0  0  0  0  0  0  0  0
   45.8675    5.9395   12.7263 C   0  0  0  0  0  0  0  0  0  0  0  0
   46.5540    7.2735   12.8437 C   0  0  0  0  0  0  0  0  0  0  0  0
   42.8303    6.8576   11.0177 O   0  0  0  0  0  0  0  0  0  0  0  0
   43.9178    9.4444   11.1212 C   0  0  0  0  0  0  0  0  0  0  0  0
   44.0210    4.5252   12.0314 C   0  0  0  0  0  0  0  0  0  0  0  0
   46.4025    9.7235   12.3393 C   0  0  0  0  0  0  0  0  0  0  0  0
   46.5056    4.8012   13.2501 C   0  0  0  0  0  0  0  0  0  0  0  0
   42.6951    9.3924   10.5069 O   0  0  0  0  0  0  0  0  0  0  0  0
   42.8018    4.3044   11.4483 O   0  0  0  0  0  0  0  0  0  0  0  0
   45.7534   10.8416   11.8135 C   0  0  0  0  0  0  0  0  0  0  0  0
   45.9065    3.5437   13.1638 C   0  0  0  0  0  0  0  0  0  0  0  0
   44.5097   10.7013   11.2038 C   0  0  0  0  0  0  0  0  0  0  0  0
   44.6626    3.4061   12.5536 C   0  0  0  0  0  0  0  0  0  0  0  0
   47.5270    7.2009   12.3409 H   0  0  0  0  0  0  0  0  0  0  0  0
   46.7277    7.4742   13.9088 H   0  0  0  0  0  0  0  0  0  0  0  0
   47.3746    9.8529   12.8124 H   0  0  0  0  0  0  0  0  0  0  0  0
   47.4786    4.8891   13.7309 H   0  0  0  0  0  0  0  0  0  0  0  0
   42.3944    8.4567   10.5167 H   0  0  0  0  0  0  0  0  0  0  0  0
   42.4634    5.1688   11.1251 H   0  0  0  0  0  0  0  0  0  0  0  0
   46.2167   11.8233   11.8785 H   0  0  0  0  0  0  0  0  0  0  0  0
   46.4086    2.6698   13.5722 H   0  0  0  0  0  0  0  0  0  0  0  0
   43.9995   11.5684   10.7925 H   0  0  0  0  0  0  0  0  0  0  0  0
   44.1910    2.4293   12.4836 H   0  0  0  0  0  0  0  0  0  0  0  0
  2  1  1  0
  3  1  1  0
  4  2  2  0
  5  3  2  0
  6  5  1  0
  7  1  2  0
  8  2  1  0
  9  3  1  0
 10  4  1  0
 11  5  1  0
 12  8  1  0
 13  9  1  0
 14 16  1  0
 15 17  1  0
 16  8  2  0
 17  9  2  0
  4  6  1  0
 11 15  2  0
 10 14  2  0
  6 18  1  0
  6 19  1  0
 10 20  1  0
 11 21  1  0
 12 22  1  0
 13 23  1  0
 14 24  1  0
 15 25  1  0
 16 26  1  0
 17 27  1  0
M  END
> <Uni-Dock RESULT> 
ENERGY=   -4.426  LOWER_BOUND=    4.358  UPPER_BOUND=    6.490
INTER + INTRA:          -4.426
INTER:                  -4.426
INTRA:                   0.000
UNBOUND:                 0.000

$$$$

     RDKit          3D

 27 29  0  0  0  0  0  0  0  0999 V2000
   43.9412    6.9360   11.5615 C   0  0  0  0  0  0  0  0  0  0  0  0
   44.6320    5.7514   12.1153 C   0  0  0  0  0  0  0  0  0  0  0  0
   44.5679    8.2724   11.6538 C   0  0  0  0  0  0  0  0  0  0  0  0
   45.8830    5.9014   12.7279 C   0  0  0  0  0  0  0  0  0  0  0  0
   45.8193    8.4108   12.2686 C   0  0  0  0  0  0  0  0  0  0  0  0
   46.5637    7.2381   12.8477 C   0  0  0  0  0  0  0  0  0  0  0  0
   42.8414    6.8093   11.0220 O   0  0  0  0  0  0  0  0  0  0  0  0
   44.0427    4.4803   12.0308 C   0  0  0  0  0  0  0  0  0  0  0  0
   43.9174    9.4007   11.1302 C   0  0  0  0  0  0  0  0  0  0  0  0
   46.5265    4.7649   13.2494 C   0  0  0  0  0  0  0  0  0  0  0  0
   46.4011    9.6885   12.3481 C   0  0  0  0  0  0  0  0  0  0  0  0
   42.8243    4.2552   11.4476 O   0  0  0  0  0  0  0  0  0  0  0  0
   42.6948    9.3445   10.5161 O   0  0  0  0  0  0  0  0  0  0  0  0
   45.9328    3.5049   13.1608 C   0  0  0  0  0  0  0  0  0  0  0  0
   45.7471   10.8047   11.8246 C   0  0  0  0  0  0  0  0  0  0  0  0
   44.6894    3.3630   12.5508 C   0  0  0  0  0  0  0  0  0  0  0  0
   44.5037   10.6601   11.2151 C   0  0  0  0  0  0  0  0  0  0  0  0
   46.7368    7.4376   13.9131 H   0  0  0  0  0  0  0  0  0  0  0  0
   47.5369    7.1708   12.3445 H   0  0  0  0  0  0  0  0  0  0  0  0
   47.4992    4.8562   13.7300 H   0  0  0  0  0  0  0  0  0  0  0  0
   47.3729    9.8212   12.8211 H   0  0  0  0  0  0  0  0  0  0  0  0
   42.4820    5.1187   11.1262 H   0  0  0  0  0  0  0  0  0  0  0  0
   42.3983    8.4074   10.5242 H   0  0  0  0  0  0  0  0  0  0  0  0
   46.4389    2.6325   13.5673 H   0  0  0  0  0  0  0  0  0  0  0  0
   46.2060   11.7882   11.8914 H   0  0  0  0  0  0  0  0  0  0  0  0
   44.2222    2.3843   12.4789 H   0  0  0  0  0  0  0  0  0  0  0  0
   43.9896   11.5257   10.8055 H   0  0  0  0  0  0  0  0  0  0  0  0
  2  1  1  0
  3  1  1  0
  4  2  2  0
  5  3  2  0
  6  5  1  0
  7  1  2  0
  8  2  1  0
  9  3  1  0
 10  4  1  0
 11  5  1  0
 12  8  1  0
 13  9  1  0
 14 16  1  0
 15 17  1  0
 16  8  2  0
 17  9  2  0
  4  6  1  0
 11 15  2  0
 10 14  2  0
  6 18  1  0
  6 19  1  0
 10 20  1  0
 11 21  1  0
 12 22  1  0
 13 23  1  0
 14 24  1  0
 15 25  1  0
 16 26  1  0
 17 27  1  0
M  END
> <Uni-Dock RESULT> 
ENERGY=   -4.420  LOWER_BOUND=    4.336  UPPER_BOUND=    5.961
INTER + INTRA:          -4.420
INTER:                  -4.420
INTRA:                   0.000
UNBOUND:                 0.000

$$$$
