
     RDKit          3D

 27 29  0  0  0  0  0  0  0  0999 V2000
   44.9894    2.2493    9.3839 C   0  0  0  0  0  0  0  0  0  0  0  0
   44.4335    3.4268   10.0850 C   0  0  0  0  0  0  0  0  0  0  0  0
   45.9304    2.4308    8.2575 C   0  0  0  0  0  0  0  0  0  0  0  0
   44.8025    4.7153    9.6768 C   0  0  0  0  0  0  0  0  0  0  0  0
   46.2925    3.7239    7.8577 C   0  0  0  0  0  0  0  0  0  0  0  0
   45.7558    4.9546    8.5372 C   0  0  0  0  0  0  0  0  0  0  0  0
   44.6680    1.1147    9.7390 O   0  0  0  0  0  0  0  0  0  0  0  0
   43.5399    3.2614   11.1548 C   0  0  0  0  0  0  0  0  0  0  0  0
   46.4616    1.3174    7.5880 C   0  0  0  0  0  0  0  0  0  0  0  0
   44.2647    5.8242   10.3541 C   0  0  0  0  0  0  0  0  0  0  0  0
   47.1883    3.8790    6.7849 C   0  0  0  0  0  0  0  0  0  0  0  0
   43.1332    2.0356   11.6101 O   0  0  0  0  0  0  0  0  0  0  0  0
   46.1551    0.0249    7.9209 O   0  0  0  0  0  0  0  0  0  0  0  0
   43.3770    5.6499   11.4167 C   0  0  0  0  0  0  0  0  0  0  0  0
   47.7115    2.7660    6.1251 C   0  0  0  0  0  0  0  0  0  0  0  0
   43.0145    4.3668   11.8172 C   0  0  0  0  0  0  0  0  0  0  0  0
   47.3474    1.4839    6.5275 C   0  0  0  0  0  0  0  0  0  0  0  0
   46.6078    5.5302    8.9215 H   0  0  0  0  0  0  0  0  0  0  0  0
   45.2386    5.5616    7.7828 H   0  0  0  0  0  0  0  0  0  0  0  0
   44.5365    6.8353   10.0552 H   0  0  0  0  0  0  0  0  0  0  0  0
   47.4847    4.8738    6.4560 H   0  0  0  0  0  0  0  0  0  0  0  0
   43.5744    1.3504   11.0607 H   0  0  0  0  0  0  0  0  0  0  0  0
   45.5273    0.0511    8.6766 H   0  0  0  0  0  0  0  0  0  0  0  0
   42.9670    6.5143   11.9337 H   0  0  0  0  0  0  0  0  0  0  0  0
   48.4035    2.8972    5.2966 H   0  0  0  0  0  0  0  0  0  0  0  0
   42.3235    4.2250   12.6442 H   0  0  0  0  0  0  0  0  0  0  0  0
   47.7516    0.6133    6.0176 H   0  0  0  0  0  0  0  0  0  0  0  0
  2  1  1  0
  3  1  1  0
  4  2  2  0
  5  3  2  0
  6  5  1  0
  7  1  2  0
  8  2  1  0
  9  3  1  0
 10  4  1  0
 11  5  1  0
 12  8  1  0
 13  9  1  0
 14 16  1  0
 15 17  1  0
 16  8  2  0
 17  9  2  0
  4  6  1  0
 11 15  2  0
 10 14  2  0
  6 18  1  0
  6 19  1  0
 10 20  1  0
 11 21  1  0
 12 22  1  0
 13 23  1  0
 14 24  1  0
 15 25  1  0
 16 26  1  0
 17 27  1  0
M  END
> <Uni-Dock RESULT> 
ENERGY=   -6.282  LOWER_BOUND=    0.000  UPPER_BOUND=    0.000
INTER + INTRA:          -6.282
INTER:                  -6.282
INTRA:                   0.000
UNBOUND:                 0.000

$$$$

     RDKit          3D

 27 29  0  0  0  0  0  0  0  0999 V2000
   45.5627    4.5636    8.9775 C   0  0  0  0  0  0  0  0  0  0  0  0
   44.6607    4.4605   10.1449 C   0  0  0  0  0  0  0  0  0  0  0  0
   46.0054    3.3426    8.2701 C   0  0  0  0  0  0  0  0  0  0  0  0
   44.2276    3.2003   10.5776 C   0  0  0  0  0  0  0  0  0  0  0  0
   45.5661    2.0875    8.7115 C   0  0  0  0  0  0  0  0  0  0  0  0
   44.6484    1.9277    9.8934 C   0  0  0  0  0  0  0  0  0  0  0  0
   45.9462    5.6691    8.5933 O   0  0  0  0  0  0  0  0  0  0  0  0
   44.2370    5.6155   10.8206 C   0  0  0  0  0  0  0  0  0  0  0  0
   46.8613    3.4336    7.1614 C   0  0  0  0  0  0  0  0  0  0  0  0
   43.3702    3.1198   11.6894 C   0  0  0  0  0  0  0  0  0  0  0  0
   45.9963    0.9365    8.0278 C   0  0  0  0  0  0  0  0  0  0  0  0
   44.6175    6.8797   10.4570 O   0  0  0  0  0  0  0  0  0  0  0  0
   47.3319    4.6231    6.6723 O   0  0  0  0  0  0  0  0  0  0  0  0
   42.9541    4.2737   12.3549 C   0  0  0  0  0  0  0  0  0  0  0  0
   46.8475    1.0367    6.9263 C   0  0  0  0  0  0  0  0  0  0  0  0
   43.3882    5.5228   11.9196 C   0  0  0  0  0  0  0  0  0  0  0  0
   47.2802    2.2870    6.4929 C   0  0  0  0  0  0  0  0  0  0  0  0
   43.7429    1.4087    9.5535 H   0  0  0  0  0  0  0  0  0  0  0  0
   45.1543    1.2946   10.6337 H   0  0  0  0  0  0  0  0  0  0  0  0
   43.0202    2.1517   12.0443 H   0  0  0  0  0  0  0  0  0  0  0  0
   45.6683   -0.0499    8.3519 H   0  0  0  0  0  0  0  0  0  0  0  0
   45.2090    6.8017    9.6760 H   0  0  0  0  0  0  0  0  0  0  0  0
   46.9631    5.3432    7.2302 H   0  0  0  0  0  0  0  0  0  0  0  0
   42.2909    4.2002   13.2136 H   0  0  0  0  0  0  0  0  0  0  0  0
   47.1741    0.1402    6.4047 H   0  0  0  0  0  0  0  0  0  0  0  0
   43.0675    6.4249   12.4341 H   0  0  0  0  0  0  0  0  0  0  0  0
   47.9431    2.3714    5.6357 H   0  0  0  0  0  0  0  0  0  0  0  0
  2  1  1  0
  3  1  1  0
  4  2  2  0
  5  3  2  0
  6  5  1  0
  7  1  2  0
  8  2  1  0
  9  3  1  0
 10  4  1  0
 11  5  1  0
 12  8  1  0
 13  9  1  0
 14 16  1  0
 15 17  1  0
 16  8  2  0
 17  9  2  0
  4  6  1  0
 11 15  2  0
 10 14  2  0
  6 18  1  0
  6 19  1  0
 10 20  1  0
 11 21  1  0
 12 22  1  0
 13 23  1  0
 14 24  1  0
 15 25  1  0
 16 26  1  0
 17 27  1  0
M  END
> <Uni-Dock RESULT> 
ENERGY=   -4.677  LOWER_BOUND=    2.176  UPPER_BOUND=    2.912
INTER + INTRA:          -4.677
INTER:                  -4.677
INTRA:                   0.000
UNBOUND:                 0.000

$$$$

     RDKit          3D

 27 29  0  0  0  0  0  0  0  0999 V2000
   45.1146    7.1327   12.3523 C   0  0  0  0  0  0  0  0  0  0  0  0
   46.4016    7.5021   12.9802 C   0  0  0  0  0  0  0  0  0  0  0  0
   44.7179    5.7116   12.2509 C   0  0  0  0  0  0  0  0  0  0  0  0
   47.2434    6.4991   13.4786 C   0  0  0  0  0  0  0  0  0  0  0  0
   45.5675    4.7168   12.7527 C   0  0  0  0  0  0  0  0  0  0  0  0
   46.8870    5.0391   13.4005 C   0  0  0  0  0  0  0  0  0  0  0  0
   44.3713    8.0107   11.9128 O   0  0  0  0  0  0  0  0  0  0  0  0
   46.7840    8.8490   13.0795 C   0  0  0  0  0  0  0  0  0  0  0  0
   43.4978    5.3544   11.6562 C   0  0  0  0  0  0  0  0  0  0  0  0
   48.4637    6.8674   14.0727 C   0  0  0  0  0  0  0  0  0  0  0  0
   45.1754    3.3704   12.6484 C   0  0  0  0  0  0  0  0  0  0  0  0
   46.0154    9.8833   12.6161 O   0  0  0  0  0  0  0  0  0  0  0  0
   42.6165    6.2688   11.1440 O   0  0  0  0  0  0  0  0  0  0  0  0
   48.8355    8.2092   14.1669 C   0  0  0  0  0  0  0  0  0  0  0  0
   43.9602    3.0246   12.0554 C   0  0  0  0  0  0  0  0  0  0  0  0
   47.9942    9.2009   13.6697 C   0  0  0  0  0  0  0  0  0  0  0  0
   43.1208    4.0181   11.5588 C   0  0  0  0  0  0  0  0  0  0  0  0
   46.8718    4.6375   14.4219 H   0  0  0  0  0  0  0  0  0  0  0  0
   47.6770    4.5257   12.8371 H   0  0  0  0  0  0  0  0  0  0  0  0
   49.1346    6.1059   14.4672 H   0  0  0  0  0  0  0  0  0  0  0  0
   45.8186    2.5796   13.0310 H   0  0  0  0  0  0  0  0  0  0  0  0
   45.1982    9.4990   12.2280 H   0  0  0  0  0  0  0  0  0  0  0  0
   43.0018    7.1631   11.2768 H   0  0  0  0  0  0  0  0  0  0  0  0
   49.7813    8.4831   14.6282 H   0  0  0  0  0  0  0  0  0  0  0  0
   43.6666    1.9804   11.9799 H   0  0  0  0  0  0  0  0  0  0  0  0
   48.2785   10.2476   13.7403 H   0  0  0  0  0  0  0  0  0  0  0  0
   42.1732    3.7550   11.0960 H   0  0  0  0  0  0  0  0  0  0  0  0
  2  1  1  0
  3  1  1  0
  4  2  2  0
  5  3  2  0
  6  5  1  0
  7  1  2  0
  8  2  1  0
  9  3  1  0
 10  4  1  0
 11  5  1  0
 12  8  1  0
 13  9  1  0
 14 16  1  0
 15 17  1  0
 16  8  2  0
 17  9  2  0
  4  6  1  0
 11 15  2  0
 10 14  2  0
  6 18  1  0
  6 19  1  0
 10 20  1  0
 11 21  1  0
 12 22  1  0
 13 23  1  0
 14 24  1  0
 15 25  1  0
 16 26  1  0
 17 27  1  0
M  END
> <Uni-Dock RESULT> 
ENERGY=   -4.608  LOWER_BOUND=    4.567  UPPER_BOUND=    6.424
INTER + INTRA:          -4.608
INTER:                  -4.608
INTRA:                   0.000
UNBOUND:                 0.000

$$$$

     RDKit          3D

 27 29  0  0  0  0  0  0  0  0999 V2000
   45.1140    7.1366   12.3521 C   0  0  0  0  0  0  0  0  0  0  0  0
   44.7173    5.7154   12.2531 C   0  0  0  0  0  0  0  0  0  0  0  0
   46.4027    7.5069   12.9760 C   0  0  0  0  0  0  0  0  0  0  0  0
   45.5683    4.7212   12.7534 C   0  0  0  0  0  0  0  0  0  0  0  0
   47.2461    6.5044   13.4729 C   0  0  0  0  0  0  0  0  0  0  0  0
   46.8897    5.0443   13.3970 C   0  0  0  0  0  0  0  0  0  0  0  0
   44.3693    8.0141   11.9138 O   0  0  0  0  0  0  0  0  0  0  0  0
   43.4955    5.3574   11.6621 C   0  0  0  0  0  0  0  0  0  0  0  0
   46.7851    8.8538   13.0730 C   0  0  0  0  0  0  0  0  0  0  0  0
   45.1761    3.3746   12.6514 C   0  0  0  0  0  0  0  0  0  0  0  0
   48.4679    6.8733   14.0632 C   0  0  0  0  0  0  0  0  0  0  0  0
   42.6126    6.2713   11.1516 O   0  0  0  0  0  0  0  0  0  0  0  0
   46.0151    9.8877   12.6108 O   0  0  0  0  0  0  0  0  0  0  0  0
   43.9594    3.0282   12.0621 C   0  0  0  0  0  0  0  0  0  0  0  0
   48.8399    8.2153   14.1552 C   0  0  0  0  0  0  0  0  0  0  0  0
   43.1184    4.0211   11.5670 C   0  0  0  0  0  0  0  0  0  0  0  0
   47.9971    9.2065   13.6594 C   0  0  0  0  0  0  0  0  0  0  0  0
   47.6781    4.5305   12.8320 H   0  0  0  0  0  0  0  0  0  0  0  0
   46.8774    4.6436   14.4189 H   0  0  0  0  0  0  0  0  0  0  0  0
   45.8205    2.5842   13.0329 H   0  0  0  0  0  0  0  0  0  0  0  0
   49.1401    6.1123   14.4565 H   0  0  0  0  0  0  0  0  0  0  0  0
   42.9982    7.1659   11.2824 H   0  0  0  0  0  0  0  0  0  0  0  0
   45.1970    9.5028   12.2254 H   0  0  0  0  0  0  0  0  0  0  0  0
   43.6657    1.9838   11.9883 H   0  0  0  0  0  0  0  0  0  0  0  0
   49.7870    8.4897   14.6136 H   0  0  0  0  0  0  0  0  0  0  0  0
   42.1696    3.7573   11.1071 H   0  0  0  0  0  0  0  0  0  0  0  0
   48.2813   10.2532   13.7282 H   0  0  0  0  0  0  0  0  0  0  0  0
  2  1  1  0
  3  1  1  0
  4  2  2  0
  5  3  2  0
  6  5  1  0
  7  1  2  0
  8  2  1  0
  9  3  1  0
 10  4  1  0
 11  5  1  0
 12  8  1  0
 13  9  1  0
 14 16  1  0
 15 17  1  0
 16  8  2  0
 17  9  2  0
  4  6  1  0
 11 15  2  0
 10 14  2  0
  6 18  1  0
  6 19  1  0
 10 20  1  0
 11 21  1  0
 12 22  1  0
 13 23  1  0
 14 24  1  0
 15 25  1  0
 16 26  1  0
 17 27  1  0
M  END
> <Uni-Dock RESULT> 
ENERGY=   -4.607  LOWER_BOUND=    4.572  UPPER_BOUND=    6.588
INTER + INTRA:          -4.607
INTER:                  -4.607
INTRA:                   0.000
UNBOUND:                 0.000

$$$$

     RDKit          3D

 27 29  0  0  0  0  0  0  0  0999 V2000
   46.8031    5.7946   12.9991 C   0  0  0  0  0  0  0  0  0  0  0  0
   47.1047    7.2411   12.9381 C   0  0  0  0  0  0  0  0  0  0  0  0
   45.4912    5.2890   12.5402 C   0  0  0  0  0  0  0  0  0  0  0  0
   46.1415    8.1304   12.4437 C   0  0  0  0  0  0  0  0  0  0  0  0
   44.5354    6.1873   12.0476 C   0  0  0  0  0  0  0  0  0  0  0  0
   44.7921    7.6677   11.9645 C   0  0  0  0  0  0  0  0  0  0  0  0
   47.6464    5.0090   13.4329 O   0  0  0  0  0  0  0  0  0  0  0  0
   48.3479    7.7274   13.3721 C   0  0  0  0  0  0  0  0  0  0  0  0
   45.1987    3.9174   12.5953 C   0  0  0  0  0  0  0  0  0  0  0  0
   46.4443    9.5027   12.3926 C   0  0  0  0  0  0  0  0  0  0  0  0
   43.2930    5.6902   11.6153 C   0  0  0  0  0  0  0  0  0  0  0  0
   49.3379    6.9209   13.8669 O   0  0  0  0  0  0  0  0  0  0  0  0
   46.0806    2.9802   13.0634 O   0  0  0  0  0  0  0  0  0  0  0  0
   47.6832    9.9769   12.8263 C   0  0  0  0  0  0  0  0  0  0  0  0
   43.0110    4.3246   11.6738 C   0  0  0  0  0  0  0  0  0  0  0  0
   48.6358    9.0878   13.3165 C   0  0  0  0  0  0  0  0  0  0  0  0
   43.9653    3.4375   12.1645 C   0  0  0  0  0  0  0  0  0  0  0  0
   44.6796    7.9744   10.9166 H   0  0  0  0  0  0  0  0  0  0  0  0
   44.0255    8.1799   12.5604 H   0  0  0  0  0  0  0  0  0  0  0  0
   45.7121   10.2131   12.0124 H   0  0  0  0  0  0  0  0  0  0  0  0
   42.5342    6.3686   11.2285 H   0  0  0  0  0  0  0  0  0  0  0  0
   49.0067    5.9956   13.8508 H   0  0  0  0  0  0  0  0  0  0  0  0
   46.9017    3.4491   13.3315 H   0  0  0  0  0  0  0  0  0  0  0  0
   47.9071   11.0402   12.7824 H   0  0  0  0  0  0  0  0  0  0  0  0
   42.0471    3.9507   11.3370 H   0  0  0  0  0  0  0  0  0  0  0  0
   49.6023    9.4514   13.6557 H   0  0  0  0  0  0  0  0  0  0  0  0
   43.7515    2.3729   12.2124 H   0  0  0  0  0  0  0  0  0  0  0  0
  2  1  1  0
  3  1  1  0
  4  2  2  0
  5  3  2  0
  6  5  1  0
  7  1  2  0
  8  2  1  0
  9  3  1  0
 10  4  1  0
 11  5  1  0
 12  8  1  0
 13  9  1  0
 14 16  1  0
 15 17  1  0
 16  8  2  0
 17  9  2  0
  4  6  1  0
 11 15  2  0
 10 14  2  0
  6 18  1  0
  6 19  1  0
 10 20  1  0
 11 21  1  0
 12 22  1  0
 13 23  1  0
 14 24  1  0
 15 25  1  0
 16 26  1  0
 17 27  1  0
M  END
> <Uni-Dock RESULT> 
ENERGY=   -4.433  LOWER_BOUND=    4.298  UPPER_BOUND=    6.121
INTER + INTRA:          -4.433
INTER:                  -4.433
INTRA:                   0.000
UNBOUND:                 0.000

$$$$

     RDKit          3D

 27 29  0  0  0  0  0  0  0  0999 V2000
   46.8033    5.7942   12.9989 C   0  0  0  0  0  0  0  0  0  0  0  0
   45.4912    5.2889   12.5403 C   0  0  0  0  0  0  0  0  0  0  0  0
   47.1052    7.2407   12.9382 C   0  0  0  0  0  0  0  0  0  0  0  0
   44.5355    6.1872   12.0479 C   0  0  0  0  0  0  0  0  0  0  0  0
   46.1420    8.1301   12.4440 C   0  0  0  0  0  0  0  0  0  0  0  0
   44.7923    7.6677   11.9651 C   0  0  0  0  0  0  0  0  0  0  0  0
   47.6466    5.0085   13.4325 O   0  0  0  0  0  0  0  0  0  0  0  0
   45.1985    3.9172   12.5953 C   0  0  0  0  0  0  0  0  0  0  0  0
   48.3484    7.7267   13.3719 C   0  0  0  0  0  0  0  0  0  0  0  0
   43.2929    5.6903   11.6159 C   0  0  0  0  0  0  0  0  0  0  0  0
   46.4449    9.5023   12.3929 C   0  0  0  0  0  0  0  0  0  0  0  0
   46.0805    2.9799   13.0632 O   0  0  0  0  0  0  0  0  0  0  0  0
   49.3384    6.9200   13.8665 O   0  0  0  0  0  0  0  0  0  0  0  0
   43.0108    4.3248   11.6744 C   0  0  0  0  0  0  0  0  0  0  0  0
   47.6839    9.9765   12.8264 C   0  0  0  0  0  0  0  0  0  0  0  0
   43.9651    3.4376   12.1648 C   0  0  0  0  0  0  0  0  0  0  0  0
   48.6365    9.0872   13.3164 C   0  0  0  0  0  0  0  0  0  0  0  0
   44.0259    8.1799   12.5610 H   0  0  0  0  0  0  0  0  0  0  0  0
   44.6798    7.9744   10.9171 H   0  0  0  0  0  0  0  0  0  0  0  0
   42.5342    6.3689   11.2293 H   0  0  0  0  0  0  0  0  0  0  0  0
   45.7126   10.2129   12.0129 H   0  0  0  0  0  0  0  0  0  0  0  0
   46.9017    3.4486   13.3313 H   0  0  0  0  0  0  0  0  0  0  0  0
   49.0070    5.9949   13.8504 H   0  0  0  0  0  0  0  0  0  0  0  0
   42.0467    3.9510   11.3377 H   0  0  0  0  0  0  0  0  0  0  0  0
   47.9079   11.0397   12.7827 H   0  0  0  0  0  0  0  0  0  0  0  0
   43.7510    2.3730   12.2127 H   0  0  0  0  0  0  0  0  0  0  0  0
   49.6031    9.4505   13.6555 H   0  0  0  0  0  0  0  0  0  0  0  0
  2  1  1  0
  3  1  1  0
  4  2  2  0
  5  3  2  0
  6  5  1  0
  7  1  2  0
  8  2  1  0
  9  3  1  0
 10  4  1  0
 11  5  1  0
 12  8  1  0
 13  9  1  0
 14 16  1  0
 15 17  1  0
 16  8  2  0
 17  9  2  0
  4  6  1  0
 11 15  2  0
 10 14  2  0
  6 18  1  0
  6 19  1  0
 10 20  1  0
 11 21  1  0
 12 22  1  0
 13 23  1  0
 14 24  1  0
 15 25  1  0
 16 26  1  0
 17 27  1  0
M  END
> <Uni-Dock RESULT> 
ENERGY=   -4.432  LOWER_BOUND=    4.298  UPPER_BOUND=    6.196
INTER + INTRA:          -4.432
INTER:                  -4.432
INTRA:                   0.000
UNBOUND:                 0.000

$$$$

     RDKit          3D

 27 29  0  0  0  0  0  0  0  0999 V2000
   43.9226    6.9887   11.5589 C   0  0  0  0  0  0  0  0  0  0  0  0
   44.5629    8.3187   11.6495 C   0  0  0  0  0  0  0  0  0  0  0  0
   44.6025    5.7972   12.1114 C   0  0  0  0  0  0  0  0  0  0  0  0
   45.8171    8.4445   12.2613 C   0  0  0  0  0  0  0  0  0  0  0  0
   45.8565    5.9347   12.7211 C   0  0  0  0  0  0  0  0  0  0  0  0
   46.5508    7.2645   12.8391 C   0  0  0  0  0  0  0  0  0  0  0  0
   42.8203    6.8730   11.0221 O   0  0  0  0  0  0  0  0  0  0  0  0
   43.9228    9.4534   11.1270 C   0  0  0  0  0  0  0  0  0  0  0  0
   44.0001    4.5322   12.0288 C   0  0  0  0  0  0  0  0  0  0  0  0
   46.4121    9.7162   12.3391 C   0  0  0  0  0  0  0  0  0  0  0  0
   46.4894    4.7918   13.2414 C   0  0  0  0  0  0  0  0  0  0  0  0
   42.6982    9.4094   10.5158 O   0  0  0  0  0  0  0  0  0  0  0  0
   42.7781    4.3193   11.4484 O   0  0  0  0  0  0  0  0  0  0  0  0
   45.7681   10.8388   11.8168 C   0  0  0  0  0  0  0  0  0  0  0  0
   45.8829    3.5379   13.1546 C   0  0  0  0  0  0  0  0  0  0  0  0
   44.5220   10.7067   11.2102 C   0  0  0  0  0  0  0  0  0  0  0  0
   44.6367    3.4084   12.5475 C   0  0  0  0  0  0  0  0  0  0  0  0
   46.7284    7.4625   13.9040 H   0  0  0  0  0  0  0  0  0  0  0  0
   47.5222    7.1871   12.3336 H   0  0  0  0  0  0  0  0  0  0  0  0
   47.3862    9.8392   12.8099 H   0  0  0  0  0  0  0  0  0  0  0  0
   47.4642    4.8734   13.7198 H   0  0  0  0  0  0  0  0  0  0  0  0
   42.3922    8.4754   10.5248 H   0  0  0  0  0  0  0  0  0  0  0  0
   42.4439    5.1861   11.1276 H   0  0  0  0  0  0  0  0  0  0  0  0
   46.2371   11.8177   11.8823 H   0  0  0  0  0  0  0  0  0  0  0  0
   46.3810    2.6606   13.5603 H   0  0  0  0  0  0  0  0  0  0  0  0
   44.0157   11.5775   10.8016 H   0  0  0  0  0  0  0  0  0  0  0  0
   44.1592    2.4345   12.4770 H   0  0  0  0  0  0  0  0  0  0  0  0
  2  1  1  0
  3  1  1  0
  4  2  2  0
  5  3  2  0
  6  5  1  0
  7  1  2  0
  8  2  1  0
  9  3  1  0
 10  4  1  0
 11  5  1  0
 12  8  1  0
 13  9  1  0
 14 16  1  0
 15 17  1  0
 16  8  2  0
 17  9  2  0
  4  6  1  0
 11 15  2  0
 10 14  2  0
  6 18  1  0
  6 19  1  0
 10 20  1  0
 11 21  1  0
 12 22  1  0
 13 23  1  0
 14 24  1  0
 15 25  1  0
 16 26  1  0
 17 27  1  0
M  END
> <Uni-Dock RESULT> 
ENERGY=   -4.423  LOWER_BOUND=    4.364  UPPER_BOUND=    5.997
INTER + INTRA:          -4.423
INTER:                  -4.423
INTRA:                   0.000
UNBOUND:                 0.000

$$$$

     RDKit          3D

 27 29  0  0  0  0  0  0  0  0999 V2000
   51.2985    4.2108   18.4859 C   0  0  0  0  0  0  0  0  0  0  0  0
   52.2592    3.0956   18.3427 C   0  0  0  0  0  0  0  0  0  0  0  0
   49.9253    4.0821   17.9520 C   0  0  0  0  0  0  0  0  0  0  0  0
   51.8621    1.9164   17.6986 C   0  0  0  0  0  0  0  0  0  0  0  0
   49.5390    2.8983   17.3097 C   0  0  0  0  0  0  0  0  0  0  0  0
   50.4774    1.7345   17.1379 C   0  0  0  0  0  0  0  0  0  0  0  0
   51.6427    5.2493   19.0512 O   0  0  0  0  0  0  0  0  0  0  0  0
   53.5639    3.2114   18.8472 C   0  0  0  0  0  0  0  0  0  0  0  0
   49.0087    5.1367   18.0847 C   0  0  0  0  0  0  0  0  0  0  0  0
   52.7878    0.8656   17.5707 C   0  0  0  0  0  0  0  0  0  0  0  0
   48.2297    2.7921   16.8078 C   0  0  0  0  0  0  0  0  0  0  0  0
   54.0241    4.3310   19.4876 O   0  0  0  0  0  0  0  0  0  0  0  0
   49.3127    6.3223   18.6991 O   0  0  0  0  0  0  0  0  0  0  0  0
   54.0830    0.9899   18.0755 C   0  0  0  0  0  0  0  0  0  0  0  0
   47.3251    3.8461   16.9443 C   0  0  0  0  0  0  0  0  0  0  0  0
   54.4710    2.1644   18.7145 C   0  0  0  0  0  0  0  0  0  0  0  0
   47.7155    5.0196   17.5837 C   0  0  0  0  0  0  0  0  0  0  0  0
   50.0263    0.8591   17.6227 H   0  0  0  0  0  0  0  0  0  0  0  0
   50.5697    1.5276   16.0639 H   0  0  0  0  0  0  0  0  0  0  0  0
   52.5026   -0.0605   17.0742 H   0  0  0  0  0  0  0  0  0  0  0  0
   47.9062    1.8822   16.3048 H   0  0  0  0  0  0  0  0  0  0  0  0
   53.2907    4.9849   19.5124 H   0  0  0  0  0  0  0  0  0  0  0  0
   50.2460    6.2716   19.0028 H   0  0  0  0  0  0  0  0  0  0  0  0
   54.7910    0.1711   17.9713 H   0  0  0  0  0  0  0  0  0  0  0  0
   46.3150    3.7535   16.5526 H   0  0  0  0  0  0  0  0  0  0  0  0
   55.4783    2.2669   19.1096 H   0  0  0  0  0  0  0  0  0  0  0  0
   47.0155    5.8438   17.6931 H   0  0  0  0  0  0  0  0  0  0  0  0
  2  1  1  0
  3  1  1  0
  4  2  2  0
  5  3  2  0
  6  5  1  0
  7  1  2  0
  8  2  1  0
  9  3  1  0
 10  4  1  0
 11  5  1  0
 12  8  1  0
 13  9  1  0
 14 16  1  0
 15 17  1  0
 16  8  2  0
 17  9  2  0
  4  6  1  0
 11 15  2  0
 10 14  2  0
  6 18  1  0
  6 19  1  0
 10 20  1  0
 11 21  1  0
 12 22  1  0
 13 23  1  0
 14 24  1  0
 15 25  1  0
 16 26  1  0
 17 27  1  0
M  END
> <Uni-Dock RESULT> 
ENERGY=   -4.206  LOWER_BOUND=   10.539  UPPER_BOUND=   11.789
INTER + INTRA:          -4.206
INTER:                  -4.206
INTRA:                   0.000
UNBOUND:                 0.000

$$$$

     RDKit          3D

 27 29  0  0  0  0  0  0  0  0999 V2000
   51.3166    4.2204   18.4446 C   0  0  0  0  0  0  0  0  0  0  0  0
   49.9403    4.0948   17.9181 C   0  0  0  0  0  0  0  0  0  0  0  0
   52.2675    3.0952   18.3152 C   0  0  0  0  0  0  0  0  0  0  0  0
   49.5415    2.9044   17.2961 C   0  0  0  0  0  0  0  0  0  0  0  0
   51.8579    1.9093   17.6914 C   0  0  0  0  0  0  0  0  0  0  0  0
   50.4697    1.7303   17.1390 C   0  0  0  0  0  0  0  0  0  0  0  0
   51.6718    5.2648   18.9921 O   0  0  0  0  0  0  0  0  0  0  0  0
   49.0330    5.1591   18.0377 C   0  0  0  0  0  0  0  0  0  0  0  0
   53.5750    3.2080   18.8127 C   0  0  0  0  0  0  0  0  0  0  0  0
   48.2294    2.8013   16.8010 C   0  0  0  0  0  0  0  0  0  0  0  0
   52.7743    0.8489   17.5765 C   0  0  0  0  0  0  0  0  0  0  0  0
   49.3494    6.3516   18.6321 O   0  0  0  0  0  0  0  0  0  0  0  0
   54.0472    4.3335   19.4337 O   0  0  0  0  0  0  0  0  0  0  0  0
   47.3342    3.8649   16.9245 C   0  0  0  0  0  0  0  0  0  0  0  0
   54.0726    0.9701   18.0742 C   0  0  0  0  0  0  0  0  0  0  0  0
   47.7370    5.0450   17.5436 C   0  0  0  0  0  0  0  0  0  0  0  0
   54.4730    2.1513   18.6930 C   0  0  0  0  0  0  0  0  0  0  0  0
   50.5558    1.5056   16.0680 H   0  0  0  0  0  0  0  0  0  0  0  0
   50.0132    0.8664   17.6393 H   0  0  0  0  0  0  0  0  0  0  0  0
   47.8963    1.8864   16.3137 H   0  0  0  0  0  0  0  0  0  0  0  0
   52.4795   -0.0825   17.0957 H   0  0  0  0  0  0  0  0  0  0  0  0
   50.2835    6.2980   18.9329 H   0  0  0  0  0  0  0  0  0  0  0  0
   53.3194    4.9938   19.4508 H   0  0  0  0  0  0  0  0  0  0  0  0
   46.3218    3.7747   16.5381 H   0  0  0  0  0  0  0  0  0  0  0  0
   54.7733    0.1440   17.9801 H   0  0  0  0  0  0  0  0  0  0  0  0
   47.0442    5.8766   17.6427 H   0  0  0  0  0  0  0  0  0  0  0  0
   55.4827    2.2517   19.0825 H   0  0  0  0  0  0  0  0  0  0  0  0
  2  1  1  0
  3  1  1  0
  4  2  2  0
  5  3  2  0
  6  5  1  0
  7  1  2  0
  8  2  1  0
  9  3  1  0
 10  4  1  0
 11  5  1  0
 12  8  1  0
 13  9  1  0
 14 16  1  0
 15 17  1  0
 16  8  2  0
 17  9  2  0
  4  6  1  0
 11 15  2  0
 10 14  2  0
  6 18  1  0
  6 19  1  0
 10 20  1  0
 11 21  1  0
 12 22  1  0
 13 23  1  0
 14 24  1  0
 15 25  1  0
 16 26  1  0
 17 27  1  0
M  END
> <Uni-Dock RESULT> 
ENERGY=   -4.203  LOWER_BOUND=   10.529  UPPER_BOUND=   11.189
INTER + INTRA:          -4.203
INTER:                  -4.203
INTRA:                   0.000
UNBOUND:                 0.000

$$$$
