
     RDKit          3D

 27 29  0  0  0  0  0  0  0  0999 V2000
   44.9894    2.2493    9.3841 C   0  0  0  0  0  0  0  0  0  0  0  0
   45.9303    2.4309    8.2577 C   0  0  0  0  0  0  0  0  0  0  0  0
   44.4334    3.4268   10.0852 C   0  0  0  0  0  0  0  0  0  0  0  0
   46.2925    3.7239    7.8579 C   0  0  0  0  0  0  0  0  0  0  0  0
   44.8024    4.7153    9.6769 C   0  0  0  0  0  0  0  0  0  0  0  0
   45.7557    4.9547    8.5373 C   0  0  0  0  0  0  0  0  0  0  0  0
   44.6680    1.1147    9.7392 O   0  0  0  0  0  0  0  0  0  0  0  0
   46.4617    1.3175    7.5880 C   0  0  0  0  0  0  0  0  0  0  0  0
   43.5399    3.2614   11.1549 C   0  0  0  0  0  0  0  0  0  0  0  0
   47.1883    3.8791    6.7850 C   0  0  0  0  0  0  0  0  0  0  0  0
   44.2646    5.8242   10.3542 C   0  0  0  0  0  0  0  0  0  0  0  0
   46.1551    0.0250    7.9210 O   0  0  0  0  0  0  0  0  0  0  0  0
   43.1331    2.0355   11.6102 O   0  0  0  0  0  0  0  0  0  0  0  0
   47.7115    2.7662    6.1252 C   0  0  0  0  0  0  0  0  0  0  0  0
   43.3769    5.6500   11.4168 C   0  0  0  0  0  0  0  0  0  0  0  0
   47.3474    1.4840    6.5276 C   0  0  0  0  0  0  0  0  0  0  0  0
   43.0144    4.3667   11.8174 C   0  0  0  0  0  0  0  0  0  0  0  0
   46.6077    5.5303    8.9216 H   0  0  0  0  0  0  0  0  0  0  0  0
   45.2385    5.5617    7.7830 H   0  0  0  0  0  0  0  0  0  0  0  0
   47.4846    4.8739    6.4561 H   0  0  0  0  0  0  0  0  0  0  0  0
   44.5364    6.8354   10.0553 H   0  0  0  0  0  0  0  0  0  0  0  0
   45.5272    0.0511    8.6767 H   0  0  0  0  0  0  0  0  0  0  0  0
   43.5744    1.3504   11.0607 H   0  0  0  0  0  0  0  0  0  0  0  0
   48.4034    2.8973    5.2968 H   0  0  0  0  0  0  0  0  0  0  0  0
   42.9668    6.5143   11.9337 H   0  0  0  0  0  0  0  0  0  0  0  0
   47.7515    0.6135    6.0175 H   0  0  0  0  0  0  0  0  0  0  0  0
   42.3234    4.2248   12.6443 H   0  0  0  0  0  0  0  0  0  0  0  0
  2  1  1  0
  3  1  1  0
  4  2  2  0
  5  3  2  0
  6  5  1  0
  7  1  2  0
  8  2  1  0
  9  3  1  0
 10  4  1  0
 11  5  1  0
 12  8  1  0
 13  9  1  0
 14 16  1  0
 15 17  1  0
 16  8  2  0
 17  9  2  0
  4  6  1  0
 11 15  2  0
 10 14  2  0
  6 18  1  0
  6 19  1  0
 10 20  1  0
 11 21  1  0
 12 22  1  0
 13 23  1  0
 14 24  1  0
 15 25  1  0
 16 26  1  0
 17 27  1  0
M  END
> <Uni-Dock RESULT> 
ENERGY=   -6.282  LOWER_BOUND=    0.000  UPPER_BOUND=    0.000
INTER + INTRA:          -6.282
INTER:                  -6.282
INTRA:                   0.000
UNBOUND:                 0.000

$$$$

     RDKit          3D

 27 29  0  0  0  0  0  0  0  0999 V2000
   45.5638    4.5635    8.9778 C   0  0  0  0  0  0  0  0  0  0  0  0
   44.6614    4.4606   10.1449 C   0  0  0  0  0  0  0  0  0  0  0  0
   46.0062    3.3425    8.2704 C   0  0  0  0  0  0  0  0  0  0  0  0
   44.2275    3.2005   10.5773 C   0  0  0  0  0  0  0  0  0  0  0  0
   45.5661    2.0875    8.7114 C   0  0  0  0  0  0  0  0  0  0  0  0
   44.6479    1.9279    9.8931 C   0  0  0  0  0  0  0  0  0  0  0  0
   45.9479    5.6689    8.5940 O   0  0  0  0  0  0  0  0  0  0  0  0
   44.2378    5.6156   10.8207 C   0  0  0  0  0  0  0  0  0  0  0  0
   46.8625    3.4332    7.1621 C   0  0  0  0  0  0  0  0  0  0  0  0
   43.3696    3.1202   11.6887 C   0  0  0  0  0  0  0  0  0  0  0  0
   45.9960    0.9364    8.0277 C   0  0  0  0  0  0  0  0  0  0  0  0
   44.6190    6.8798   10.4575 O   0  0  0  0  0  0  0  0  0  0  0  0
   47.3338    4.6226    6.6733 O   0  0  0  0  0  0  0  0  0  0  0  0
   42.9537    4.2741   12.3544 C   0  0  0  0  0  0  0  0  0  0  0  0
   46.8476    1.0364    6.9266 C   0  0  0  0  0  0  0  0  0  0  0  0
   43.3886    5.5232   11.9195 C   0  0  0  0  0  0  0  0  0  0  0  0
   47.2812    2.2866    6.4936 C   0  0  0  0  0  0  0  0  0  0  0  0
   45.1533    1.2943   10.6335 H   0  0  0  0  0  0  0  0  0  0  0  0
   43.7423    1.4093    9.5527 H   0  0  0  0  0  0  0  0  0  0  0  0
   43.0191    2.1522   12.0434 H   0  0  0  0  0  0  0  0  0  0  0  0
   45.6676   -0.0500    8.3516 H   0  0  0  0  0  0  0  0  0  0  0  0
   45.2108    6.8016    9.6766 H   0  0  0  0  0  0  0  0  0  0  0  0
   46.9651    5.3428    7.2312 H   0  0  0  0  0  0  0  0  0  0  0  0
   42.2903    4.2008   13.2127 H   0  0  0  0  0  0  0  0  0  0  0  0
   47.1741    0.1398    6.4050 H   0  0  0  0  0  0  0  0  0  0  0  0
   43.0681    6.4254   12.4338 H   0  0  0  0  0  0  0  0  0  0  0  0
   47.9444    2.3708    5.6367 H   0  0  0  0  0  0  0  0  0  0  0  0
  2  1  1  0
  3  1  1  0
  4  2  2  0
  5  3  2  0
  6  5  1  0
  7  1  2  0
  8  2  1  0
  9  3  1  0
 10  4  1  0
 11  5  1  0
 12  8  1  0
 13  9  1  0
 14 16  1  0
 15 17  1  0
 16  8  2  0
 17  9  2  0
  4  6  1  0
 11 15  2  0
 10 14  2  0
  6 18  1  0
  6 19  1  0
 10 20  1  0
 11 21  1  0
 12 22  1  0
 13 23  1  0
 14 24  1  0
 15 25  1  0
 16 26  1  0
 17 27  1  0
M  END
> <Uni-Dock RESULT> 
ENERGY=   -4.679  LOWER_BOUND=    2.176  UPPER_BOUND=    5.653
INTER + INTRA:          -4.679
INTER:                  -4.679
INTRA:                   0.000
UNBOUND:                 0.000

$$$$

     RDKit          3D

 27 29  0  0  0  0  0  0  0  0999 V2000
   45.1142    7.1374   12.3495 C   0  0  0  0  0  0  0  0  0  0  0  0
   46.4022    7.5069   12.9752 C   0  0  0  0  0  0  0  0  0  0  0  0
   44.7167    5.7164   12.2505 C   0  0  0  0  0  0  0  0  0  0  0  0
   47.2442    6.5042   13.4738 C   0  0  0  0  0  0  0  0  0  0  0  0
   45.5663    4.7218   12.7525 C   0  0  0  0  0  0  0  0  0  0  0  0
   46.8870    5.0443   13.3980 C   0  0  0  0  0  0  0  0  0  0  0  0
   44.3707    8.0152   11.9097 O   0  0  0  0  0  0  0  0  0  0  0  0
   46.7854    8.8538   13.0722 C   0  0  0  0  0  0  0  0  0  0  0  0
   43.4956    5.3589   11.6579 C   0  0  0  0  0  0  0  0  0  0  0  0
   48.4654    6.8726   14.0658 C   0  0  0  0  0  0  0  0  0  0  0  0
   45.1734    3.3755   12.6504 C   0  0  0  0  0  0  0  0  0  0  0  0
   46.0167    9.8879   12.6085 O   0  0  0  0  0  0  0  0  0  0  0  0
   42.6140    6.2732   11.1456 O   0  0  0  0  0  0  0  0  0  0  0  0
   48.8381    8.2143   14.1578 C   0  0  0  0  0  0  0  0  0  0  0  0
   43.9574    3.0295   12.0595 C   0  0  0  0  0  0  0  0  0  0  0  0
   47.9967    9.2058   13.6603 C   0  0  0  0  0  0  0  0  0  0  0  0
   43.1177    4.0228   11.5627 C   0  0  0  0  0  0  0  0  0  0  0  0
   47.6759    4.5297   12.8344 H   0  0  0  0  0  0  0  0  0  0  0  0
   46.8729    4.6439   14.4200 H   0  0  0  0  0  0  0  0  0  0  0  0
   49.1365    6.1112   14.4604 H   0  0  0  0  0  0  0  0  0  0  0  0
   45.8168    2.5847   13.0332 H   0  0  0  0  0  0  0  0  0  0  0  0
   45.1989    9.5035   12.2220 H   0  0  0  0  0  0  0  0  0  0  0  0
   43.0000    7.1675   11.2767 H   0  0  0  0  0  0  0  0  0  0  0  0
   49.7846    8.4884   14.6174 H   0  0  0  0  0  0  0  0  0  0  0  0
   43.6631    1.9853   11.9857 H   0  0  0  0  0  0  0  0  0  0  0  0
   48.2815   10.2524   13.7292 H   0  0  0  0  0  0  0  0  0  0  0  0
   42.1694    3.7595   11.1015 H   0  0  0  0  0  0  0  0  0  0  0  0
  2  1  1  0
  3  1  1  0
  4  2  2  0
  5  3  2  0
  6  5  1  0
  7  1  2  0
  8  2  1  0
  9  3  1  0
 10  4  1  0
 11  5  1  0
 12  8  1  0
 13  9  1  0
 14 16  1  0
 15 17  1  0
 16  8  2  0
 17  9  2  0
  4  6  1  0
 11 15  2  0
 10 14  2  0
  6 18  1  0
  6 19  1  0
 10 20  1  0
 11 21  1  0
 12 22  1  0
 13 23  1  0
 14 24  1  0
 15 25  1  0
 16 26  1  0
 17 27  1  0
M  END
> <Uni-Dock RESULT> 
ENERGY=   -4.609  LOWER_BOUND=    4.571  UPPER_BOUND=    6.588
INTER + INTRA:          -4.609
INTER:                  -4.609
INTRA:                   0.000
UNBOUND:                 0.000

$$$$

     RDKit          3D

 27 29  0  0  0  0  0  0  0  0999 V2000
   45.1149    7.1333   12.3521 C   0  0  0  0  0  0  0  0  0  0  0  0
   44.7184    5.7122   12.2510 C   0  0  0  0  0  0  0  0  0  0  0  0
   46.4021    7.5030   12.9794 C   0  0  0  0  0  0  0  0  0  0  0  0
   45.5682    4.7176   12.7525 C   0  0  0  0  0  0  0  0  0  0  0  0
   47.2443    6.5001   13.4775 C   0  0  0  0  0  0  0  0  0  0  0  0
   46.8879    5.0400   13.3997 C   0  0  0  0  0  0  0  0  0  0  0  0
   44.3713    8.0113   11.9128 O   0  0  0  0  0  0  0  0  0  0  0  0
   43.4980    5.3547   11.6568 C   0  0  0  0  0  0  0  0  0  0  0  0
   46.7844    8.8499   13.0784 C   0  0  0  0  0  0  0  0  0  0  0  0
   45.1762    3.3710   12.6485 C   0  0  0  0  0  0  0  0  0  0  0  0
   48.4647    6.8685   14.0710 C   0  0  0  0  0  0  0  0  0  0  0  0
   42.6164    6.2691   11.1449 O   0  0  0  0  0  0  0  0  0  0  0  0
   46.0155    9.8841   12.6152 O   0  0  0  0  0  0  0  0  0  0  0  0
   43.9608    3.0251   12.0560 C   0  0  0  0  0  0  0  0  0  0  0  0
   48.8364    8.2104   14.1651 C   0  0  0  0  0  0  0  0  0  0  0  0
   43.1211    4.0185   11.5598 C   0  0  0  0  0  0  0  0  0  0  0  0
   47.9949    9.2020   13.6680 C   0  0  0  0  0  0  0  0  0  0  0  0
   46.8732    4.6385   14.4211 H   0  0  0  0  0  0  0  0  0  0  0  0
   47.6777    4.5267   12.8361 H   0  0  0  0  0  0  0  0  0  0  0  0
   45.8197    2.5803   13.0309 H   0  0  0  0  0  0  0  0  0  0  0  0
   49.1359    6.1072   14.4654 H   0  0  0  0  0  0  0  0  0  0  0  0
   43.0016    7.1635   11.2773 H   0  0  0  0  0  0  0  0  0  0  0  0
   45.1983    9.4996   12.2275 H   0  0  0  0  0  0  0  0  0  0  0  0
   43.6673    1.9809   11.9807 H   0  0  0  0  0  0  0  0  0  0  0  0
   49.7825    8.4844   14.6259 H   0  0  0  0  0  0  0  0  0  0  0  0
   42.1734    3.7552   11.0972 H   0  0  0  0  0  0  0  0  0  0  0  0
   48.2790   10.2487   13.7384 H   0  0  0  0  0  0  0  0  0  0  0  0
  2  1  1  0
  3  1  1  0
  4  2  2  0
  5  3  2  0
  6  5  1  0
  7  1  2  0
  8  2  1  0
  9  3  1  0
 10  4  1  0
 11  5  1  0
 12  8  1  0
 13  9  1  0
 14 16  1  0
 15 17  1  0
 16  8  2  0
 17  9  2  0
  4  6  1  0
 11 15  2  0
 10 14  2  0
  6 18  1  0
  6 19  1  0
 10 20  1  0
 11 21  1  0
 12 22  1  0
 13 23  1  0
 14 24  1  0
 15 25  1  0
 16 26  1  0
 17 27  1  0
M  END
> <Uni-Dock RESULT> 
ENERGY=   -4.607  LOWER_BOUND=    4.567  UPPER_BOUND=    6.425
INTER + INTRA:          -4.607
INTER:                  -4.607
INTRA:                   0.000
UNBOUND:                 0.000

$$$$

     RDKit          3D

 27 29  0  0  0  0  0  0  0  0999 V2000
   45.1148    7.1333   12.3521 C   0  0  0  0  0  0  0  0  0  0  0  0
   46.4020    7.5029   12.9794 C   0  0  0  0  0  0  0  0  0  0  0  0
   44.7183    5.7122   12.2509 C   0  0  0  0  0  0  0  0  0  0  0  0
   47.2442    6.5001   13.4776 C   0  0  0  0  0  0  0  0  0  0  0  0
   45.5681    4.7175   12.7526 C   0  0  0  0  0  0  0  0  0  0  0  0
   46.8880    5.0401   13.3997 C   0  0  0  0  0  0  0  0  0  0  0  0
   44.3712    8.0112   11.9126 O   0  0  0  0  0  0  0  0  0  0  0  0
   46.7843    8.8499   13.0785 C   0  0  0  0  0  0  0  0  0  0  0  0
   43.4980    5.3547   11.6567 C   0  0  0  0  0  0  0  0  0  0  0  0
   48.4646    6.8686   14.0712 C   0  0  0  0  0  0  0  0  0  0  0  0
   45.1762    3.3711   12.6485 C   0  0  0  0  0  0  0  0  0  0  0  0
   46.0154    9.8841   12.6153 O   0  0  0  0  0  0  0  0  0  0  0  0
   42.6163    6.2690   11.1447 O   0  0  0  0  0  0  0  0  0  0  0  0
   48.8363    8.2105   14.1652 C   0  0  0  0  0  0  0  0  0  0  0  0
   43.9609    3.0251   12.0560 C   0  0  0  0  0  0  0  0  0  0  0  0
   47.9948    9.2020   13.6681 C   0  0  0  0  0  0  0  0  0  0  0  0
   43.1211    4.0185   11.5596 C   0  0  0  0  0  0  0  0  0  0  0  0
   47.6777    4.5267   12.8362 H   0  0  0  0  0  0  0  0  0  0  0  0
   46.8732    4.6385   14.4212 H   0  0  0  0  0  0  0  0  0  0  0  0
   49.1358    6.1072   14.4655 H   0  0  0  0  0  0  0  0  0  0  0  0
   45.8197    2.5803   13.0309 H   0  0  0  0  0  0  0  0  0  0  0  0
   45.1981    9.4996   12.2275 H   0  0  0  0  0  0  0  0  0  0  0  0
   43.0017    7.1634   11.2773 H   0  0  0  0  0  0  0  0  0  0  0  0
   49.7822    8.4845   14.6261 H   0  0  0  0  0  0  0  0  0  0  0  0
   43.6674    1.9808   11.9806 H   0  0  0  0  0  0  0  0  0  0  0  0
   48.2788   10.2487   13.7386 H   0  0  0  0  0  0  0  0  0  0  0  0
   42.1734    3.7551   11.0971 H   0  0  0  0  0  0  0  0  0  0  0  0
  2  1  1  0
  3  1  1  0
  4  2  2  0
  5  3  2  0
  6  5  1  0
  7  1  2  0
  8  2  1  0
  9  3  1  0
 10  4  1  0
 11  5  1  0
 12  8  1  0
 13  9  1  0
 14 16  1  0
 15 17  1  0
 16  8  2  0
 17  9  2  0
  4  6  1  0
 11 15  2  0
 10 14  2  0
  6 18  1  0
  6 19  1  0
 10 20  1  0
 11 21  1  0
 12 22  1  0
 13 23  1  0
 14 24  1  0
 15 25  1  0
 16 26  1  0
 17 27  1  0
M  END
> <Uni-Dock RESULT> 
ENERGY=   -4.606  LOWER_BOUND=    4.567  UPPER_BOUND=    6.588
INTER + INTRA:          -4.606
INTER:                  -4.606
INTRA:                   0.000
UNBOUND:                 0.000

$$$$

     RDKit          3D

 27 29  0  0  0  0  0  0  0  0999 V2000
   46.8040    5.7945   12.9991 C   0  0  0  0  0  0  0  0  0  0  0  0
   47.1067    7.2408   12.9387 C   0  0  0  0  0  0  0  0  0  0  0  0
   45.4915    5.2901   12.5408 C   0  0  0  0  0  0  0  0  0  0  0  0
   46.1439    8.1310   12.4452 C   0  0  0  0  0  0  0  0  0  0  0  0
   44.5361    6.1893   12.0490 C   0  0  0  0  0  0  0  0  0  0  0  0
   44.7938    7.6697   11.9666 C   0  0  0  0  0  0  0  0  0  0  0  0
   47.6471    5.0080   13.4321 O   0  0  0  0  0  0  0  0  0  0  0  0
   48.3505    7.7260   13.3721 C   0  0  0  0  0  0  0  0  0  0  0  0
   45.1979    3.9187   12.5954 C   0  0  0  0  0  0  0  0  0  0  0  0
   46.4477    9.5032   12.3945 C   0  0  0  0  0  0  0  0  0  0  0  0
   43.2931    5.6933   11.6173 C   0  0  0  0  0  0  0  0  0  0  0  0
   49.3401    6.9185   13.8660 O   0  0  0  0  0  0  0  0  0  0  0  0
   46.0795    2.9806   13.0626 O   0  0  0  0  0  0  0  0  0  0  0  0
   47.6871    9.9764   12.8277 C   0  0  0  0  0  0  0  0  0  0  0  0
   43.0101    4.3280   11.6754 C   0  0  0  0  0  0  0  0  0  0  0  0
   48.6393    9.0863   13.3170 C   0  0  0  0  0  0  0  0  0  0  0  0
   43.9640    3.4399   12.1651 C   0  0  0  0  0  0  0  0  0  0  0  0
   44.0279    8.1821   12.5630 H   0  0  0  0  0  0  0  0  0  0  0  0
   44.6810    7.9768   10.9188 H   0  0  0  0  0  0  0  0  0  0  0  0
   45.7156   10.2143   12.0150 H   0  0  0  0  0  0  0  0  0  0  0  0
   42.5345    6.3725   11.2312 H   0  0  0  0  0  0  0  0  0  0  0  0
   49.0083    5.9935   13.8497 H   0  0  0  0  0  0  0  0  0  0  0  0
   46.9011    3.4488   13.3305 H   0  0  0  0  0  0  0  0  0  0  0  0
   47.9118   11.0393   12.7842 H   0  0  0  0  0  0  0  0  0  0  0  0
   42.0457    3.9550   11.3389 H   0  0  0  0  0  0  0  0  0  0  0  0
   49.6063    9.4489   13.6558 H   0  0  0  0  0  0  0  0  0  0  0  0
   43.7493    2.3755   12.2127 H   0  0  0  0  0  0  0  0  0  0  0  0
  2  1  1  0
  3  1  1  0
  4  2  2  0
  5  3  2  0
  6  5  1  0
  7  1  2  0
  8  2  1  0
  9  3  1  0
 10  4  1  0
 11  5  1  0
 12  8  1  0
 13  9  1  0
 14 16  1  0
 15 17  1  0
 16  8  2  0
 17  9  2  0
  4  6  1  0
 11 15  2  0
 10 14  2  0
  6 18  1  0
  6 19  1  0
 10 20  1  0
 11 21  1  0
 12 22  1  0
 13 23  1  0
 14 24  1  0
 15 25  1  0
 16 26  1  0
 17 27  1  0
M  END
> <Uni-Dock RESULT> 
ENERGY=   -4.435  LOWER_BOUND=    4.299  UPPER_BOUND=    6.196
INTER + INTRA:          -4.435
INTER:                  -4.435
INTRA:                   0.000
UNBOUND:                 0.000

$$$$

     RDKit          3D

 27 29  0  0  0  0  0  0  0  0999 V2000
   46.8030    5.7935   12.9993 C   0  0  0  0  0  0  0  0  0  0  0  0
   45.4911    5.2883   12.5402 C   0  0  0  0  0  0  0  0  0  0  0  0
   47.1050    7.2400   12.9388 C   0  0  0  0  0  0  0  0  0  0  0  0
   44.5355    6.1868   12.0476 C   0  0  0  0  0  0  0  0  0  0  0  0
   46.1419    8.1296   12.4445 C   0  0  0  0  0  0  0  0  0  0  0  0
   44.7924    7.6672   11.9650 C   0  0  0  0  0  0  0  0  0  0  0  0
   47.6463    5.0077   13.4330 O   0  0  0  0  0  0  0  0  0  0  0  0
   45.1982    3.9167   12.5950 C   0  0  0  0  0  0  0  0  0  0  0  0
   48.3481    7.7259   13.3729 C   0  0  0  0  0  0  0  0  0  0  0  0
   43.2930    5.6900   11.6152 C   0  0  0  0  0  0  0  0  0  0  0  0
   46.4450    9.5017   12.3936 C   0  0  0  0  0  0  0  0  0  0  0  0
   46.0800    2.9792   13.0630 O   0  0  0  0  0  0  0  0  0  0  0  0
   49.3380    6.9191   13.8677 O   0  0  0  0  0  0  0  0  0  0  0  0
   43.0107    4.3245   11.6734 C   0  0  0  0  0  0  0  0  0  0  0  0
   47.6838    9.9758   12.8275 C   0  0  0  0  0  0  0  0  0  0  0  0
   43.9648    3.4371   12.1640 C   0  0  0  0  0  0  0  0  0  0  0  0
   48.6363    9.0864   13.3177 C   0  0  0  0  0  0  0  0  0  0  0  0
   44.6801    7.9742   10.9171 H   0  0  0  0  0  0  0  0  0  0  0  0
   44.0259    8.1794   12.5609 H   0  0  0  0  0  0  0  0  0  0  0  0
   42.5344    6.3687   11.2285 H   0  0  0  0  0  0  0  0  0  0  0  0
   45.7128   10.2125   12.0135 H   0  0  0  0  0  0  0  0  0  0  0  0
   46.9012    3.4479   13.3314 H   0  0  0  0  0  0  0  0  0  0  0  0
   49.0065    5.9940   13.8513 H   0  0  0  0  0  0  0  0  0  0  0  0
   42.0468    3.9509   11.3365 H   0  0  0  0  0  0  0  0  0  0  0  0
   47.9079   11.0390   12.7839 H   0  0  0  0  0  0  0  0  0  0  0  0
   43.7507    2.3726   12.2118 H   0  0  0  0  0  0  0  0  0  0  0  0
   49.6028    9.4497   13.6570 H   0  0  0  0  0  0  0  0  0  0  0  0
  2  1  1  0
  3  1  1  0
  4  2  2  0
  5  3  2  0
  6  5  1  0
  7  1  2  0
  8  2  1  0
  9  3  1  0
 10  4  1  0
 11  5  1  0
 12  8  1  0
 13  9  1  0
 14 16  1  0
 15 17  1  0
 16  8  2  0
 17  9  2  0
  4  6  1  0
 11 15  2  0
 10 14  2  0
  6 18  1  0
  6 19  1  0
 10 20  1  0
 11 21  1  0
 12 22  1  0
 13 23  1  0
 14 24  1  0
 15 25  1  0
 16 26  1  0
 17 27  1  0
M  END
> <Uni-Dock RESULT> 
ENERGY=   -4.431  LOWER_BOUND=    4.298  UPPER_BOUND=    6.121
INTER + INTRA:          -4.431
INTER:                  -4.431
INTRA:                   0.000
UNBOUND:                 0.000

$$$$

     RDKit          3D

 27 29  0  0  0  0  0  0  0  0999 V2000
   43.9412    6.9366   11.5568 C   0  0  0  0  0  0  0  0  0  0  0  0
   44.6307    5.7515   12.1110 C   0  0  0  0  0  0  0  0  0  0  0  0
   44.5684    8.2726   11.6505 C   0  0  0  0  0  0  0  0  0  0  0  0
   45.8810    5.9005   12.7254 C   0  0  0  0  0  0  0  0  0  0  0  0
   45.8191    8.4102   12.2669 C   0  0  0  0  0  0  0  0  0  0  0  0
   46.5622    7.2369   12.8466 C   0  0  0  0  0  0  0  0  0  0  0  0
   42.8420    6.8107   11.0159 O   0  0  0  0  0  0  0  0  0  0  0  0
   44.0409    4.4806   12.0254 C   0  0  0  0  0  0  0  0  0  0  0  0
   43.9194    9.4015   11.1265 C   0  0  0  0  0  0  0  0  0  0  0  0
   46.5232    4.7634   13.2472 C   0  0  0  0  0  0  0  0  0  0  0  0
   46.4015    9.6875   12.3477 C   0  0  0  0  0  0  0  0  0  0  0  0
   42.8231    4.2565   11.4405 O   0  0  0  0  0  0  0  0  0  0  0  0
   42.6974    9.3461   10.5107 O   0  0  0  0  0  0  0  0  0  0  0  0
   45.9290    3.5038   13.1574 C   0  0  0  0  0  0  0  0  0  0  0  0
   45.7487   10.8042   11.8239 C   0  0  0  0  0  0  0  0  0  0  0  0
   44.6864    3.3627   12.5457 C   0  0  0  0  0  0  0  0  0  0  0  0
   44.5060   10.6605   11.2126 C   0  0  0  0  0  0  0  0  0  0  0  0
   46.7340    7.4359   13.9124 H   0  0  0  0  0  0  0  0  0  0  0  0
   47.5360    7.1693   12.3447 H   0  0  0  0  0  0  0  0  0  0  0  0
   47.4954    4.8541   13.7292 H   0  0  0  0  0  0  0  0  0  0  0  0
   47.3727    9.8196   12.8221 H   0  0  0  0  0  0  0  0  0  0  0  0
   42.4816    5.1201   11.1189 H   0  0  0  0  0  0  0  0  0  0  0  0
   42.4005    8.4092   10.5181 H   0  0  0  0  0  0  0  0  0  0  0  0
   46.4341    2.6311   13.5643 H   0  0  0  0  0  0  0  0  0  0  0  0
   46.2080   11.7875   11.8916 H   0  0  0  0  0  0  0  0  0  0  0  0
   44.2187    2.3844   12.4727 H   0  0  0  0  0  0  0  0  0  0  0  0
   43.9929   11.5266   10.8027 H   0  0  0  0  0  0  0  0  0  0  0  0
  2  1  1  0
  3  1  1  0
  4  2  2  0
  5  3  2  0
  6  5  1  0
  7  1  2  0
  8  2  1  0
  9  3  1  0
 10  4  1  0
 11  5  1  0
 12  8  1  0
 13  9  1  0
 14 16  1  0
 15 17  1  0
 16  8  2  0
 17  9  2  0
  4  6  1  0
 11 15  2  0
 10 14  2  0
  6 18  1  0
  6 19  1  0
 10 20  1  0
 11 21  1  0
 12 22  1  0
 13 23  1  0
 14 24  1  0
 15 25  1  0
 16 26  1  0
 17 27  1  0
M  END
> <Uni-Dock RESULT> 
ENERGY=   -4.427  LOWER_BOUND=    4.333  UPPER_BOUND=    5.960
INTER + INTRA:          -4.427
INTER:                  -4.427
INTRA:                   0.000
UNBOUND:                 0.000

$$$$

     RDKit          3D

 27 29  0  0  0  0  0  0  0  0999 V2000
   45.9800    6.5689   12.7168 C   0  0  0  0  0  0  0  0  0  0  0  0
   45.1303    5.4044   12.3864 C   0  0  0  0  0  0  0  0  0  0  0  0
   45.5853    7.9251   12.2784 C   0  0  0  0  0  0  0  0  0  0  0  0
   43.9495    5.5922   11.6560 C   0  0  0  0  0  0  0  0  0  0  0  0
   44.4024    8.1013   11.5485 C   0  0  0  0  0  0  0  0  0  0  0  0
   43.5029    6.9503   11.1864 C   0  0  0  0  0  0  0  0  0  0  0  0
   47.0188    6.4089   13.3586 O   0  0  0  0  0  0  0  0  0  0  0  0
   45.4992    4.1146   12.7995 C   0  0  0  0  0  0  0  0  0  0  0  0
   46.3872    9.0345   12.5886 C   0  0  0  0  0  0  0  0  0  0  0  0
   43.1530    4.4743   11.3502 C   0  0  0  0  0  0  0  0  0  0  0  0
   44.0416    9.3973   11.1392 C   0  0  0  0  0  0  0  0  0  0  0  0
   46.6368    3.8528   13.5155 O   0  0  0  0  0  0  0  0  0  0  0  0
   47.5554    8.9413   13.2973 O   0  0  0  0  0  0  0  0  0  0  0  0
   43.5278    3.1957   11.7652 C   0  0  0  0  0  0  0  0  0  0  0  0
   44.8453   10.4945   11.4523 C   0  0  0  0  0  0  0  0  0  0  0  0
   44.7024    3.0161   12.4907 C   0  0  0  0  0  0  0  0  0  0  0  0
   46.0195   10.3124   12.1779 C   0  0  0  0  0  0  0  0  0  0  0  0
   43.4130    6.9197   10.0928 H   0  0  0  0  0  0  0  0  0  0  0  0
   42.5102    7.1478   11.6110 H   0  0  0  0  0  0  0  0  0  0  0  0
   42.2309    4.5951   10.7837 H   0  0  0  0  0  0  0  0  0  0  0  0
   43.1270    9.5595   10.5709 H   0  0  0  0  0  0  0  0  0  0  0  0
   47.1011    4.7064   13.6633 H   0  0  0  0  0  0  0  0  0  0  0  0
   47.6945    7.9947   13.5223 H   0  0  0  0  0  0  0  0  0  0  0  0
   42.9047    2.3381   11.5235 H   0  0  0  0  0  0  0  0  0  0  0  0
   44.5570   11.4925   11.1309 H   0  0  0  0  0  0  0  0  0  0  0  0
   44.9995    2.0227   12.8167 H   0  0  0  0  0  0  0  0  0  0  0  0
   46.6494   11.1630   12.4248 H   0  0  0  0  0  0  0  0  0  0  0  0
  2  1  1  0
  3  1  1  0
  4  2  2  0
  5  3  2  0
  6  5  1  0
  7  1  2  0
  8  2  1  0
  9  3  1  0
 10  4  1  0
 11  5  1  0
 12  8  1  0
 13  9  1  0
 14 16  1  0
 15 17  1  0
 16  8  2  0
 17  9  2  0
  4  6  1  0
 11 15  2  0
 10 14  2  0
  6 18  1  0
  6 19  1  0
 10 20  1  0
 11 21  1  0
 12 22  1  0
 13 23  1  0
 14 24  1  0
 15 25  1  0
 16 26  1  0
 17 27  1  0
M  END
> <Uni-Dock RESULT> 
ENERGY=   -4.266  LOWER_BOUND=    4.389  UPPER_BOUND=    5.921
INTER + INTRA:          -4.266
INTER:                  -4.266
INTRA:                   0.000
UNBOUND:                 0.000

$$$$
