
     RDKit          3D

 27 29  0  0  0  0  0  0  0  0999 V2000
   44.9894    2.2493    9.3840 C   0  0  0  0  0  0  0  0  0  0  0  0
   45.9304    2.4308    8.2575 C   0  0  0  0  0  0  0  0  0  0  0  0
   44.4335    3.4267   10.0851 C   0  0  0  0  0  0  0  0  0  0  0  0
   46.2925    3.7239    7.8578 C   0  0  0  0  0  0  0  0  0  0  0  0
   44.8024    4.7152    9.6769 C   0  0  0  0  0  0  0  0  0  0  0  0
   45.7556    4.9547    8.5373 C   0  0  0  0  0  0  0  0  0  0  0  0
   44.6681    1.1147    9.7391 O   0  0  0  0  0  0  0  0  0  0  0  0
   46.4617    1.3175    7.5880 C   0  0  0  0  0  0  0  0  0  0  0  0
   43.5399    3.2612   11.1549 C   0  0  0  0  0  0  0  0  0  0  0  0
   47.1883    3.8790    6.7850 C   0  0  0  0  0  0  0  0  0  0  0  0
   44.2647    5.8241   10.3542 C   0  0  0  0  0  0  0  0  0  0  0  0
   46.1552    0.0249    7.9209 O   0  0  0  0  0  0  0  0  0  0  0  0
   43.1332    2.0354   11.6101 O   0  0  0  0  0  0  0  0  0  0  0  0
   47.7115    2.7660    6.1251 C   0  0  0  0  0  0  0  0  0  0  0  0
   43.3769    5.6499   11.4169 C   0  0  0  0  0  0  0  0  0  0  0  0
   47.3474    1.4840    6.5275 C   0  0  0  0  0  0  0  0  0  0  0  0
   43.0144    4.3666   11.8173 C   0  0  0  0  0  0  0  0  0  0  0  0
   46.6077    5.5302    8.9216 H   0  0  0  0  0  0  0  0  0  0  0  0
   45.2386    5.5616    7.7830 H   0  0  0  0  0  0  0  0  0  0  0  0
   47.4847    4.8739    6.4561 H   0  0  0  0  0  0  0  0  0  0  0  0
   44.5364    6.8353   10.0553 H   0  0  0  0  0  0  0  0  0  0  0  0
   45.5273    0.0511    8.6766 H   0  0  0  0  0  0  0  0  0  0  0  0
   43.5745    1.3502   11.0607 H   0  0  0  0  0  0  0  0  0  0  0  0
   48.4035    2.8973    5.2967 H   0  0  0  0  0  0  0  0  0  0  0  0
   42.9669    6.5142   11.9338 H   0  0  0  0  0  0  0  0  0  0  0  0
   47.7516    0.6134    6.0174 H   0  0  0  0  0  0  0  0  0  0  0  0
   42.3235    4.2247   12.6443 H   0  0  0  0  0  0  0  0  0  0  0  0
  2  1  1  0
  3  1  1  0
  4  2  2  0
  5  3  2  0
  6  5  1  0
  7  1  2  0
  8  2  1  0
  9  3  1  0
 10  4  1  0
 11  5  1  0
 12  8  1  0
 13  9  1  0
 14 16  1  0
 15 17  1  0
 16  8  2  0
 17  9  2  0
  4  6  1  0
 11 15  2  0
 10 14  2  0
  6 18  1  0
  6 19  1  0
 10 20  1  0
 11 21  1  0
 12 22  1  0
 13 23  1  0
 14 24  1  0
 15 25  1  0
 16 26  1  0
 17 27  1  0
M  END
> <Uni-Dock RESULT> 
ENERGY=   -6.282  LOWER_BOUND=    0.000  UPPER_BOUND=    0.000
INTER + INTRA:          -6.282
INTER:                  -6.282
INTRA:                   0.000
UNBOUND:                 0.000

$$$$

     RDKit          3D

 27 29  0  0  0  0  0  0  0  0999 V2000
   45.5636    4.5635    8.9780 C   0  0  0  0  0  0  0  0  0  0  0  0
   46.0060    3.3424    8.2707 C   0  0  0  0  0  0  0  0  0  0  0  0
   44.6611    4.4607   10.1450 C   0  0  0  0  0  0  0  0  0  0  0  0
   45.5659    2.0875    8.7117 C   0  0  0  0  0  0  0  0  0  0  0  0
   44.2273    3.2007   10.5775 C   0  0  0  0  0  0  0  0  0  0  0  0
   44.6477    1.9280    9.8933 C   0  0  0  0  0  0  0  0  0  0  0  0
   45.9477    5.6689    8.5941 O   0  0  0  0  0  0  0  0  0  0  0  0
   46.8624    3.4331    7.1623 C   0  0  0  0  0  0  0  0  0  0  0  0
   44.2377    5.6159   10.8208 C   0  0  0  0  0  0  0  0  0  0  0  0
   45.9958    0.9363    8.0280 C   0  0  0  0  0  0  0  0  0  0  0  0
   43.3693    3.1204   11.6889 C   0  0  0  0  0  0  0  0  0  0  0  0
   47.3337    4.6224    6.6735 O   0  0  0  0  0  0  0  0  0  0  0  0
   44.6190    6.8800   10.4575 O   0  0  0  0  0  0  0  0  0  0  0  0
   46.8475    1.0363    6.9268 C   0  0  0  0  0  0  0  0  0  0  0  0
   42.9534    4.2744   12.3545 C   0  0  0  0  0  0  0  0  0  0  0  0
   47.2810    2.2864    6.4939 C   0  0  0  0  0  0  0  0  0  0  0  0
   43.3885    5.5235   11.9195 C   0  0  0  0  0  0  0  0  0  0  0  0
   43.7421    1.4094    9.5529 H   0  0  0  0  0  0  0  0  0  0  0  0
   45.1529    1.2945   10.6337 H   0  0  0  0  0  0  0  0  0  0  0  0
   45.6672   -0.0500    8.3520 H   0  0  0  0  0  0  0  0  0  0  0  0
   43.0187    2.1524   12.0436 H   0  0  0  0  0  0  0  0  0  0  0  0
   46.9650    5.3427    7.2314 H   0  0  0  0  0  0  0  0  0  0  0  0
   45.2107    6.8017    9.6766 H   0  0  0  0  0  0  0  0  0  0  0  0
   47.1739    0.1398    6.4054 H   0  0  0  0  0  0  0  0  0  0  0  0
   42.2899    4.2012   13.2128 H   0  0  0  0  0  0  0  0  0  0  0  0
   47.9443    2.3705    5.6370 H   0  0  0  0  0  0  0  0  0  0  0  0
   43.0679    6.4257   12.4338 H   0  0  0  0  0  0  0  0  0  0  0  0
  2  1  1  0
  3  1  1  0
  4  2  2  0
  5  3  2  0
  6  5  1  0
  7  1  2  0
  8  2  1  0
  9  3  1  0
 10  4  1  0
 11  5  1  0
 12  8  1  0
 13  9  1  0
 14 16  1  0
 15 17  1  0
 16  8  2  0
 17  9  2  0
  4  6  1  0
 11 15  2  0
 10 14  2  0
  6 18  1  0
  6 19  1  0
 10 20  1  0
 11 21  1  0
 12 22  1  0
 13 23  1  0
 14 24  1  0
 15 25  1  0
 16 26  1  0
 17 27  1  0
M  END
> <Uni-Dock RESULT> 
ENERGY=   -4.688  LOWER_BOUND=    2.176  UPPER_BOUND=    2.912
INTER + INTRA:          -4.688
INTER:                  -4.688
INTRA:                   0.000
UNBOUND:                 0.000

$$$$

     RDKit          3D

 27 29  0  0  0  0  0  0  0  0999 V2000
   45.5638    4.5635    8.9779 C   0  0  0  0  0  0  0  0  0  0  0  0
   44.6613    4.4607   10.1450 C   0  0  0  0  0  0  0  0  0  0  0  0
   46.0061    3.3423    8.2706 C   0  0  0  0  0  0  0  0  0  0  0  0
   44.2273    3.2007   10.5774 C   0  0  0  0  0  0  0  0  0  0  0  0
   45.5658    2.0874    8.7116 C   0  0  0  0  0  0  0  0  0  0  0  0
   44.6477    1.9279    9.8932 C   0  0  0  0  0  0  0  0  0  0  0  0
   45.9480    5.6688    8.5941 O   0  0  0  0  0  0  0  0  0  0  0  0
   44.2379    5.6159   10.8207 C   0  0  0  0  0  0  0  0  0  0  0  0
   46.8625    3.4330    7.1622 C   0  0  0  0  0  0  0  0  0  0  0  0
   43.3694    3.1205   11.6887 C   0  0  0  0  0  0  0  0  0  0  0  0
   45.9958    0.9362    8.0279 C   0  0  0  0  0  0  0  0  0  0  0  0
   44.6193    6.8800   10.4574 O   0  0  0  0  0  0  0  0  0  0  0  0
   47.3339    4.6222    6.6735 O   0  0  0  0  0  0  0  0  0  0  0  0
   42.9536    4.2746   12.3544 C   0  0  0  0  0  0  0  0  0  0  0  0
   46.8474    1.0361    6.9268 C   0  0  0  0  0  0  0  0  0  0  0  0
   43.3886    5.5235   11.9194 C   0  0  0  0  0  0  0  0  0  0  0  0
   47.2811    2.2863    6.4938 C   0  0  0  0  0  0  0  0  0  0  0  0
   45.1529    1.2944   10.6337 H   0  0  0  0  0  0  0  0  0  0  0  0
   43.7421    1.4095    9.5528 H   0  0  0  0  0  0  0  0  0  0  0  0
   43.0187    2.1526   12.0435 H   0  0  0  0  0  0  0  0  0  0  0  0
   45.6671   -0.0501    8.3519 H   0  0  0  0  0  0  0  0  0  0  0  0
   45.2111    6.8016    9.6766 H   0  0  0  0  0  0  0  0  0  0  0  0
   46.9654    5.3426    7.2314 H   0  0  0  0  0  0  0  0  0  0  0  0
   42.2901    4.2013   13.2127 H   0  0  0  0  0  0  0  0  0  0  0  0
   47.1739    0.1396    6.4053 H   0  0  0  0  0  0  0  0  0  0  0  0
   43.0682    6.4258   12.4338 H   0  0  0  0  0  0  0  0  0  0  0  0
   47.9444    2.3703    5.6370 H   0  0  0  0  0  0  0  0  0  0  0  0
  2  1  1  0
  3  1  1  0
  4  2  2  0
  5  3  2  0
  6  5  1  0
  7  1  2  0
  8  2  1  0
  9  3  1  0
 10  4  1  0
 11  5  1  0
 12  8  1  0
 13  9  1  0
 14 16  1  0
 15 17  1  0
 16  8  2  0
 17  9  2  0
  4  6  1  0
 11 15  2  0
 10 14  2  0
  6 18  1  0
  6 19  1  0
 10 20  1  0
 11 21  1  0
 12 22  1  0
 13 23  1  0
 14 24  1  0
 15 25  1  0
 16 26  1  0
 17 27  1  0
M  END
> <Uni-Dock RESULT> 
ENERGY=   -4.679  LOWER_BOUND=    2.176  UPPER_BOUND=    5.653
INTER + INTRA:          -4.679
INTER:                  -4.679
INTRA:                   0.000
UNBOUND:                 0.000

$$$$

     RDKit          3D

 27 29  0  0  0  0  0  0  0  0999 V2000
   45.1149    7.1333   12.3520 C   0  0  0  0  0  0  0  0  0  0  0  0
   44.7183    5.7121   12.2510 C   0  0  0  0  0  0  0  0  0  0  0  0
   46.4020    7.5029   12.9794 C   0  0  0  0  0  0  0  0  0  0  0  0
   45.5682    4.7175   12.7525 C   0  0  0  0  0  0  0  0  0  0  0  0
   47.2442    6.5001   13.4775 C   0  0  0  0  0  0  0  0  0  0  0  0
   46.8880    5.0401   13.3997 C   0  0  0  0  0  0  0  0  0  0  0  0
   44.3712    8.0111   11.9127 O   0  0  0  0  0  0  0  0  0  0  0  0
   43.4980    5.3546   11.6568 C   0  0  0  0  0  0  0  0  0  0  0  0
   46.7842    8.8499   13.0783 C   0  0  0  0  0  0  0  0  0  0  0  0
   45.1762    3.3711   12.6485 C   0  0  0  0  0  0  0  0  0  0  0  0
   48.4647    6.8686   14.0710 C   0  0  0  0  0  0  0  0  0  0  0  0
   42.6163    6.2689   11.1448 O   0  0  0  0  0  0  0  0  0  0  0  0
   46.0154    9.8841   12.6151 O   0  0  0  0  0  0  0  0  0  0  0  0
   43.9608    3.0251   12.0560 C   0  0  0  0  0  0  0  0  0  0  0  0
   48.8363    8.2105   14.1651 C   0  0  0  0  0  0  0  0  0  0  0  0
   43.1211    4.0184   11.5597 C   0  0  0  0  0  0  0  0  0  0  0  0
   47.9947    9.2020   13.6679 C   0  0  0  0  0  0  0  0  0  0  0  0
   46.8732    4.6385   14.4211 H   0  0  0  0  0  0  0  0  0  0  0  0
   47.6777    4.5268   12.8362 H   0  0  0  0  0  0  0  0  0  0  0  0
   45.8198    2.5803   13.0310 H   0  0  0  0  0  0  0  0  0  0  0  0
   49.1359    6.1072   14.4654 H   0  0  0  0  0  0  0  0  0  0  0  0
   43.0016    7.1633   11.2773 H   0  0  0  0  0  0  0  0  0  0  0  0
   45.1980    9.4996   12.2275 H   0  0  0  0  0  0  0  0  0  0  0  0
   43.6673    1.9808   11.9807 H   0  0  0  0  0  0  0  0  0  0  0  0
   49.7823    8.4846   14.6259 H   0  0  0  0  0  0  0  0  0  0  0  0
   42.1734    3.7550   11.0973 H   0  0  0  0  0  0  0  0  0  0  0  0
   48.2788   10.2488   13.7384 H   0  0  0  0  0  0  0  0  0  0  0  0
  2  1  1  0
  3  1  1  0
  4  2  2  0
  5  3  2  0
  6  5  1  0
  7  1  2  0
  8  2  1  0
  9  3  1  0
 10  4  1  0
 11  5  1  0
 12  8  1  0
 13  9  1  0
 14 16  1  0
 15 17  1  0
 16  8  2  0
 17  9  2  0
  4  6  1  0
 11 15  2  0
 10 14  2  0
  6 18  1  0
  6 19  1  0
 10 20  1  0
 11 21  1  0
 12 22  1  0
 13 23  1  0
 14 24  1  0
 15 25  1  0
 16 26  1  0
 17 27  1  0
M  END
> <Uni-Dock RESULT> 
ENERGY=   -4.607  LOWER_BOUND=    4.567  UPPER_BOUND=    6.425
INTER + INTRA:          -4.607
INTER:                  -4.607
INTRA:                   0.000
UNBOUND:                 0.000

$$$$

     RDKit          3D

 27 29  0  0  0  0  0  0  0  0999 V2000
   45.1149    7.1333   12.3521 C   0  0  0  0  0  0  0  0  0  0  0  0
   46.4021    7.5030   12.9794 C   0  0  0  0  0  0  0  0  0  0  0  0
   44.7183    5.7122   12.2510 C   0  0  0  0  0  0  0  0  0  0  0  0
   47.2442    6.5002   13.4775 C   0  0  0  0  0  0  0  0  0  0  0  0
   45.5681    4.7176   12.7525 C   0  0  0  0  0  0  0  0  0  0  0  0
   46.8879    5.0401   13.3997 C   0  0  0  0  0  0  0  0  0  0  0  0
   44.3713    8.0112   11.9127 O   0  0  0  0  0  0  0  0  0  0  0  0
   46.7843    8.8499   13.0784 C   0  0  0  0  0  0  0  0  0  0  0  0
   43.4979    5.3547   11.6568 C   0  0  0  0  0  0  0  0  0  0  0  0
   48.4646    6.8686   14.0710 C   0  0  0  0  0  0  0  0  0  0  0  0
   45.1762    3.3711   12.6485 C   0  0  0  0  0  0  0  0  0  0  0  0
   46.0154    9.8842   12.6151 O   0  0  0  0  0  0  0  0  0  0  0  0
   42.6163    6.2690   11.1448 O   0  0  0  0  0  0  0  0  0  0  0  0
   48.8363    8.2106   14.1650 C   0  0  0  0  0  0  0  0  0  0  0  0
   43.9609    3.0251   12.0560 C   0  0  0  0  0  0  0  0  0  0  0  0
   47.9948    9.2020   13.6680 C   0  0  0  0  0  0  0  0  0  0  0  0
   43.1211    4.0185   11.5597 C   0  0  0  0  0  0  0  0  0  0  0  0
   47.6778    4.5267   12.8362 H   0  0  0  0  0  0  0  0  0  0  0  0
   46.8732    4.6385   14.4211 H   0  0  0  0  0  0  0  0  0  0  0  0
   49.1358    6.1072   14.4654 H   0  0  0  0  0  0  0  0  0  0  0  0
   45.8197    2.5803   13.0310 H   0  0  0  0  0  0  0  0  0  0  0  0
   45.1982    9.4996   12.2274 H   0  0  0  0  0  0  0  0  0  0  0  0
   43.0016    7.1635   11.2772 H   0  0  0  0  0  0  0  0  0  0  0  0
   49.7823    8.4846   14.6259 H   0  0  0  0  0  0  0  0  0  0  0  0
   43.6673    1.9808   11.9806 H   0  0  0  0  0  0  0  0  0  0  0  0
   48.2789   10.2488   13.7384 H   0  0  0  0  0  0  0  0  0  0  0  0
   42.1734    3.7551   11.0972 H   0  0  0  0  0  0  0  0  0  0  0  0
  2  1  1  0
  3  1  1  0
  4  2  2  0
  5  3  2  0
  6  5  1  0
  7  1  2  0
  8  2  1  0
  9  3  1  0
 10  4  1  0
 11  5  1  0
 12  8  1  0
 13  9  1  0
 14 16  1  0
 15 17  1  0
 16  8  2  0
 17  9  2  0
  4  6  1  0
 11 15  2  0
 10 14  2  0
  6 18  1  0
  6 19  1  0
 10 20  1  0
 11 21  1  0
 12 22  1  0
 13 23  1  0
 14 24  1  0
 15 25  1  0
 16 26  1  0
 17 27  1  0
M  END
> <Uni-Dock RESULT> 
ENERGY=   -4.606  LOWER_BOUND=    4.568  UPPER_BOUND=    6.588
INTER + INTRA:          -4.606
INTER:                  -4.606
INTRA:                   0.000
UNBOUND:                 0.000

$$$$

     RDKit          3D

 27 29  0  0  0  0  0  0  0  0999 V2000
   46.8030    5.7963   12.9988 C   0  0  0  0  0  0  0  0  0  0  0  0
   45.4914    5.2896   12.5401 C   0  0  0  0  0  0  0  0  0  0  0  0
   47.1038    7.2429   12.9373 C   0  0  0  0  0  0  0  0  0  0  0  0
   44.5352    6.1870   12.0470 C   0  0  0  0  0  0  0  0  0  0  0  0
   46.1401    8.1313   12.4424 C   0  0  0  0  0  0  0  0  0  0  0  0
   44.7909    7.6677   11.9634 C   0  0  0  0  0  0  0  0  0  0  0  0
   47.6468    5.0114   13.4331 O   0  0  0  0  0  0  0  0  0  0  0  0
   45.1998    3.9178   12.5958 C   0  0  0  0  0  0  0  0  0  0  0  0
   48.3466    7.7301   13.3712 C   0  0  0  0  0  0  0  0  0  0  0  0
   43.2932    5.6889   11.6148 C   0  0  0  0  0  0  0  0  0  0  0  0
   46.4420    9.5038   12.3907 C   0  0  0  0  0  0  0  0  0  0  0  0
   46.0823    2.9813   13.0645 O   0  0  0  0  0  0  0  0  0  0  0  0
   49.3370    6.9245   13.8664 O   0  0  0  0  0  0  0  0  0  0  0  0
   43.0120    4.3231   11.6740 C   0  0  0  0  0  0  0  0  0  0  0  0
   47.6805    9.9791   12.8242 C   0  0  0  0  0  0  0  0  0  0  0  0
   43.9668    3.4370   12.1652 C   0  0  0  0  0  0  0  0  0  0  0  0
   48.6336    9.0907   13.3150 C   0  0  0  0  0  0  0  0  0  0  0  0
   44.6783    7.9737   10.9152 H   0  0  0  0  0  0  0  0  0  0  0  0
   44.0240    8.1796   12.5588 H   0  0  0  0  0  0  0  0  0  0  0  0
   42.5339    6.3668   11.2276 H   0  0  0  0  0  0  0  0  0  0  0  0
   45.7092   10.2137   12.0100 H   0  0  0  0  0  0  0  0  0  0  0  0
   46.9031    3.4509   13.3324 H   0  0  0  0  0  0  0  0  0  0  0  0
   49.0064    5.9990   13.8506 H   0  0  0  0  0  0  0  0  0  0  0  0
   42.0484    3.9486   11.3372 H   0  0  0  0  0  0  0  0  0  0  0  0
   47.9038   11.0424   12.7799 H   0  0  0  0  0  0  0  0  0  0  0  0
   43.7535    2.3723   12.2136 H   0  0  0  0  0  0  0  0  0  0  0  0
   49.5999    9.4551   13.6540 H   0  0  0  0  0  0  0  0  0  0  0  0
  2  1  1  0
  3  1  1  0
  4  2  2  0
  5  3  2  0
  6  5  1  0
  7  1  2  0
  8  2  1  0
  9  3  1  0
 10  4  1  0
 11  5  1  0
 12  8  1  0
 13  9  1  0
 14 16  1  0
 15 17  1  0
 16  8  2  0
 17  9  2  0
  4  6  1  0
 11 15  2  0
 10 14  2  0
  6 18  1  0
  6 19  1  0
 10 20  1  0
 11 21  1  0
 12 22  1  0
 13 23  1  0
 14 24  1  0
 15 25  1  0
 16 26  1  0
 17 27  1  0
M  END
> <Uni-Dock RESULT> 
ENERGY=   -4.435  LOWER_BOUND=    4.298  UPPER_BOUND=    6.121
INTER + INTRA:          -4.435
INTER:                  -4.435
INTRA:                   0.000
UNBOUND:                 0.000

$$$$

     RDKit          3D

 27 29  0  0  0  0  0  0  0  0999 V2000
   46.8030    5.7937   12.9992 C   0  0  0  0  0  0  0  0  0  0  0  0
   47.1049    7.2403   12.9386 C   0  0  0  0  0  0  0  0  0  0  0  0
   45.4910    5.2885   12.5403 C   0  0  0  0  0  0  0  0  0  0  0  0
   46.1418    8.1297   12.4443 C   0  0  0  0  0  0  0  0  0  0  0  0
   44.5354    6.1869   12.0477 C   0  0  0  0  0  0  0  0  0  0  0  0
   44.7923    7.6674   11.9649 C   0  0  0  0  0  0  0  0  0  0  0  0
   47.6462    5.0080   13.4329 O   0  0  0  0  0  0  0  0  0  0  0  0
   48.3481    7.7262   13.3727 C   0  0  0  0  0  0  0  0  0  0  0  0
   45.1983    3.9168   12.5951 C   0  0  0  0  0  0  0  0  0  0  0  0
   46.4448    9.5019   12.3935 C   0  0  0  0  0  0  0  0  0  0  0  0
   43.2929    5.6900   11.6153 C   0  0  0  0  0  0  0  0  0  0  0  0
   49.3380    6.9195   13.8674 O   0  0  0  0  0  0  0  0  0  0  0  0
   46.0801    2.9794   13.0630 O   0  0  0  0  0  0  0  0  0  0  0  0
   47.6838    9.9760   12.8273 C   0  0  0  0  0  0  0  0  0  0  0  0
   43.0107    4.3245   11.6736 C   0  0  0  0  0  0  0  0  0  0  0  0
   48.6362    9.0867   13.3173 C   0  0  0  0  0  0  0  0  0  0  0  0
   43.9649    3.4372   12.1642 C   0  0  0  0  0  0  0  0  0  0  0  0
   44.0258    8.1796   12.5608 H   0  0  0  0  0  0  0  0  0  0  0  0
   44.6799    7.9742   10.9171 H   0  0  0  0  0  0  0  0  0  0  0  0
   45.7126   10.2126   12.0133 H   0  0  0  0  0  0  0  0  0  0  0  0
   42.5342    6.3687   11.2286 H   0  0  0  0  0  0  0  0  0  0  0  0
   49.0065    5.9943   13.8511 H   0  0  0  0  0  0  0  0  0  0  0  0
   46.9013    3.4481   13.3314 H   0  0  0  0  0  0  0  0  0  0  0  0
   47.9078   11.0391   12.7837 H   0  0  0  0  0  0  0  0  0  0  0  0
   42.0468    3.9508   11.3367 H   0  0  0  0  0  0  0  0  0  0  0  0
   49.6027    9.4500   13.6566 H   0  0  0  0  0  0  0  0  0  0  0  0
   43.7508    2.3727   12.2120 H   0  0  0  0  0  0  0  0  0  0  0  0
  2  1  1  0
  3  1  1  0
  4  2  2  0
  5  3  2  0
  6  5  1  0
  7  1  2  0
  8  2  1  0
  9  3  1  0
 10  4  1  0
 11  5  1  0
 12  8  1  0
 13  9  1  0
 14 16  1  0
 15 17  1  0
 16  8  2  0
 17  9  2  0
  4  6  1  0
 11 15  2  0
 10 14  2  0
  6 18  1  0
  6 19  1  0
 10 20  1  0
 11 21  1  0
 12 22  1  0
 13 23  1  0
 14 24  1  0
 15 25  1  0
 16 26  1  0
 17 27  1  0
M  END
> <Uni-Dock RESULT> 
ENERGY=   -4.431  LOWER_BOUND=    4.298  UPPER_BOUND=    6.196
INTER + INTRA:          -4.431
INTER:                  -4.431
INTRA:                   0.000
UNBOUND:                 0.000

$$$$

     RDKit          3D

 27 29  0  0  0  0  0  0  0  0999 V2000
   43.9328    6.9211   11.5552 C   0  0  0  0  0  0  0  0  0  0  0  0
   44.6192    5.7321   12.1052 C   0  0  0  0  0  0  0  0  0  0  0  0
   44.5644    8.2548   11.6518 C   0  0  0  0  0  0  0  0  0  0  0  0
   45.8708    5.8754   12.7181 C   0  0  0  0  0  0  0  0  0  0  0  0
   45.8164    8.3865   12.2667 C   0  0  0  0  0  0  0  0  0  0  0  0
   46.5565    7.2093   12.8421 C   0  0  0  0  0  0  0  0  0  0  0  0
   42.8324    6.8003   11.0156 O   0  0  0  0  0  0  0  0  0  0  0  0
   44.0250    4.4635   12.0168 C   0  0  0  0  0  0  0  0  0  0  0  0
   43.9183    9.3872   11.1318 C   0  0  0  0  0  0  0  0  0  0  0  0
   46.5099    4.7349   13.2359 C   0  0  0  0  0  0  0  0  0  0  0  0
   46.4032    9.6618   12.3503 C   0  0  0  0  0  0  0  0  0  0  0  0
   42.8057    4.2449   11.4330 O   0  0  0  0  0  0  0  0  0  0  0  0
   42.6953    9.3376   10.5177 O   0  0  0  0  0  0  0  0  0  0  0  0
   45.9115    3.4774   13.1434 C   0  0  0  0  0  0  0  0  0  0  0  0
   45.7532   10.7821   11.8305 C   0  0  0  0  0  0  0  0  0  0  0  0
   44.6676    3.3421   12.5330 C   0  0  0  0  0  0  0  0  0  0  0  0
   44.5092   10.6441   11.2206 C   0  0  0  0  0  0  0  0  0  0  0  0
   46.7305    7.4047   13.9082 H   0  0  0  0  0  0  0  0  0  0  0  0
   47.5293    7.1399   12.3386 H   0  0  0  0  0  0  0  0  0  0  0  0
   47.4831    4.8210   13.7167 H   0  0  0  0  0  0  0  0  0  0  0  0
   47.3755    9.7893   12.8237 H   0  0  0  0  0  0  0  0  0  0  0  0
   42.4666    5.1107   11.1144 H   0  0  0  0  0  0  0  0  0  0  0  0
   42.3952    8.4016   10.5229 H   0  0  0  0  0  0  0  0  0  0  0  0
   46.4144    2.6019   13.5471 H   0  0  0  0  0  0  0  0  0  0  0  0
   46.2158   11.7637   11.9003 H   0  0  0  0  0  0  0  0  0  0  0  0
   44.1966    2.3654   12.4581 H   0  0  0  0  0  0  0  0  0  0  0  0
   43.9983   11.5130   10.8140 H   0  0  0  0  0  0  0  0  0  0  0  0
  2  1  1  0
  3  1  1  0
  4  2  2  0
  5  3  2  0
  6  5  1  0
  7  1  2  0
  8  2  1  0
  9  3  1  0
 10  4  1  0
 11  5  1  0
 12  8  1  0
 13  9  1  0
 14 16  1  0
 15 17  1  0
 16  8  2  0
 17  9  2  0
  4  6  1  0
 11 15  2  0
 10 14  2  0
  6 18  1  0
  6 19  1  0
 10 20  1  0
 11 21  1  0
 12 22  1  0
 13 23  1  0
 14 24  1  0
 15 25  1  0
 16 26  1  0
 17 27  1  0
M  END
> <Uni-Dock RESULT> 
ENERGY=   -4.425  LOWER_BOUND=    4.326  UPPER_BOUND=    5.947
INTER + INTRA:          -4.425
INTER:                  -4.425
INTRA:                   0.000
UNBOUND:                 0.000

$$$$

     RDKit          3D

 27 29  0  0  0  0  0  0  0  0999 V2000
   43.9280    6.9741   11.5582 C   0  0  0  0  0  0  0  0  0  0  0  0
   44.5683    8.3039   11.6519 C   0  0  0  0  0  0  0  0  0  0  0  0
   44.6072    5.7816   12.1093 C   0  0  0  0  0  0  0  0  0  0  0  0
   45.8218    8.4285   12.2653 C   0  0  0  0  0  0  0  0  0  0  0  0
   45.8605    5.9178   12.7207 C   0  0  0  0  0  0  0  0  0  0  0  0
   46.5549    7.2474   12.8418 C   0  0  0  0  0  0  0  0  0  0  0  0
   42.8263    6.8595   11.0199 O   0  0  0  0  0  0  0  0  0  0  0  0
   43.9290    9.4396   11.1308 C   0  0  0  0  0  0  0  0  0  0  0  0
   44.0048    4.5167   12.0237 C   0  0  0  0  0  0  0  0  0  0  0  0
   46.4169    9.7000   12.3461 C   0  0  0  0  0  0  0  0  0  0  0  0
   46.4928    4.7739   13.2396 C   0  0  0  0  0  0  0  0  0  0  0  0
   42.7049    9.3968   10.5180 O   0  0  0  0  0  0  0  0  0  0  0  0
   42.7834    4.3051   11.4416 O   0  0  0  0  0  0  0  0  0  0  0  0
   45.7735   10.8237   11.8251 C   0  0  0  0  0  0  0  0  0  0  0  0
   45.8862    3.5202   13.1499 C   0  0  0  0  0  0  0  0  0  0  0  0
   44.5281   10.6928   11.2169 C   0  0  0  0  0  0  0  0  0  0  0  0
   44.6406    3.3920   12.5410 C   0  0  0  0  0  0  0  0  0  0  0  0
   47.5268    7.1709   12.3373 H   0  0  0  0  0  0  0  0  0  0  0  0
   46.7313    7.4433   13.9072 H   0  0  0  0  0  0  0  0  0  0  0  0
   47.3905    9.8220   12.8182 H   0  0  0  0  0  0  0  0  0  0  0  0
   47.4671    4.8546   13.7192 H   0  0  0  0  0  0  0  0  0  0  0  0
   42.3989    8.4628   10.5251 H   0  0  0  0  0  0  0  0  0  0  0  0
   42.4496    5.1725   11.1218 H   0  0  0  0  0  0  0  0  0  0  0  0
   46.2426   11.8023   11.8929 H   0  0  0  0  0  0  0  0  0  0  0  0
   46.3838    2.6421   13.5544 H   0  0  0  0  0  0  0  0  0  0  0  0
   44.0224   11.5642   10.8093 H   0  0  0  0  0  0  0  0  0  0  0  0
   44.1633    2.4183   12.4682 H   0  0  0  0  0  0  0  0  0  0  0  0
  2  1  1  0
  3  1  1  0
  4  2  2  0
  5  3  2  0
  6  5  1  0
  7  1  2  0
  8  2  1  0
  9  3  1  0
 10  4  1  0
 11  5  1  0
 12  8  1  0
 13  9  1  0
 14 16  1  0
 15 17  1  0
 16  8  2  0
 17  9  2  0
  4  6  1  0
 11 15  2  0
 10 14  2  0
  6 18  1  0
  6 19  1  0
 10 20  1  0
 11 21  1  0
 12 22  1  0
 13 23  1  0
 14 24  1  0
 15 25  1  0
 16 26  1  0
 17 27  1  0
M  END
> <Uni-Dock RESULT> 
ENERGY=   -4.420  LOWER_BOUND=    4.355  UPPER_BOUND=    6.484
INTER + INTRA:          -4.420
INTER:                  -4.420
INTRA:                   0.000
UNBOUND:                 0.000

$$$$
