
     RDKit          3D

 27 29  0  0  0  0  0  0  0  0999 V2000
   44.9894    2.2493    9.3841 C   0  0  0  0  0  0  0  0  0  0  0  0
   45.9303    2.4309    8.2577 C   0  0  0  0  0  0  0  0  0  0  0  0
   44.4333    3.4268   10.0852 C   0  0  0  0  0  0  0  0  0  0  0  0
   46.2924    3.7240    7.8580 C   0  0  0  0  0  0  0  0  0  0  0  0
   44.8024    4.7153    9.6771 C   0  0  0  0  0  0  0  0  0  0  0  0
   45.7555    4.9547    8.5375 C   0  0  0  0  0  0  0  0  0  0  0  0
   44.6681    1.1148    9.7393 O   0  0  0  0  0  0  0  0  0  0  0  0
   46.4615    1.3176    7.5881 C   0  0  0  0  0  0  0  0  0  0  0  0
   43.5399    3.2613   11.1551 C   0  0  0  0  0  0  0  0  0  0  0  0
   47.1882    3.8792    6.7851 C   0  0  0  0  0  0  0  0  0  0  0  0
   44.2646    5.8242   10.3543 C   0  0  0  0  0  0  0  0  0  0  0  0
   46.1551    0.0250    7.9210 O   0  0  0  0  0  0  0  0  0  0  0  0
   43.1332    2.0355   11.6103 O   0  0  0  0  0  0  0  0  0  0  0  0
   47.7113    2.7662    6.1252 C   0  0  0  0  0  0  0  0  0  0  0  0
   43.3769    5.6499   11.4170 C   0  0  0  0  0  0  0  0  0  0  0  0
   47.3473    1.4840    6.5276 C   0  0  0  0  0  0  0  0  0  0  0  0
   43.0144    4.3668   11.8175 C   0  0  0  0  0  0  0  0  0  0  0  0
   46.6076    5.5303    8.9217 H   0  0  0  0  0  0  0  0  0  0  0  0
   45.2384    5.5617    7.7831 H   0  0  0  0  0  0  0  0  0  0  0  0
   47.4844    4.8739    6.4561 H   0  0  0  0  0  0  0  0  0  0  0  0
   44.5364    6.8353   10.0554 H   0  0  0  0  0  0  0  0  0  0  0  0
   45.5272    0.0511    8.6768 H   0  0  0  0  0  0  0  0  0  0  0  0
   43.5744    1.3504   11.0608 H   0  0  0  0  0  0  0  0  0  0  0  0
   48.4033    2.8973    5.2967 H   0  0  0  0  0  0  0  0  0  0  0  0
   42.9669    6.5143   11.9339 H   0  0  0  0  0  0  0  0  0  0  0  0
   47.7514    0.6135    6.0175 H   0  0  0  0  0  0  0  0  0  0  0  0
   42.3235    4.2248   12.6444 H   0  0  0  0  0  0  0  0  0  0  0  0
  2  1  1  0
  3  1  1  0
  4  2  2  0
  5  3  2  0
  6  5  1  0
  7  1  2  0
  8  2  1  0
  9  3  1  0
 10  4  1  0
 11  5  1  0
 12  8  1  0
 13  9  1  0
 14 16  1  0
 15 17  1  0
 16  8  2  0
 17  9  2  0
  4  6  1  0
 11 15  2  0
 10 14  2  0
  6 18  1  0
  6 19  1  0
 10 20  1  0
 11 21  1  0
 12 22  1  0
 13 23  1  0
 14 24  1  0
 15 25  1  0
 16 26  1  0
 17 27  1  0
M  END
> <Uni-Dock RESULT> 
ENERGY=   -6.279  LOWER_BOUND=    0.000  UPPER_BOUND=    0.000
INTER + INTRA:          -6.279
INTER:                  -6.279
INTRA:                   0.000
UNBOUND:                 0.000

$$$$

     RDKit          3D

 27 29  0  0  0  0  0  0  0  0999 V2000
   45.5629    4.5635    8.9775 C   0  0  0  0  0  0  0  0  0  0  0  0
   46.0054    3.3425    8.2702 C   0  0  0  0  0  0  0  0  0  0  0  0
   44.6610    4.4605   10.1449 C   0  0  0  0  0  0  0  0  0  0  0  0
   45.5660    2.0875    8.7115 C   0  0  0  0  0  0  0  0  0  0  0  0
   44.2276    3.2003   10.5777 C   0  0  0  0  0  0  0  0  0  0  0  0
   44.6483    1.9277    9.8935 C   0  0  0  0  0  0  0  0  0  0  0  0
   45.9464    5.6690    8.5934 O   0  0  0  0  0  0  0  0  0  0  0  0
   46.8615    3.4334    7.1615 C   0  0  0  0  0  0  0  0  0  0  0  0
   44.2373    5.6156   10.8207 C   0  0  0  0  0  0  0  0  0  0  0  0
   45.9961    0.9363    8.0278 C   0  0  0  0  0  0  0  0  0  0  0  0
   43.3702    3.1199   11.6893 C   0  0  0  0  0  0  0  0  0  0  0  0
   47.3322    4.6228    6.6724 O   0  0  0  0  0  0  0  0  0  0  0  0
   44.6179    6.8797   10.4571 O   0  0  0  0  0  0  0  0  0  0  0  0
   46.8474    1.0365    6.9264 C   0  0  0  0  0  0  0  0  0  0  0  0
   42.9541    4.2738   12.3550 C   0  0  0  0  0  0  0  0  0  0  0  0
   47.2803    2.2868    6.4931 C   0  0  0  0  0  0  0  0  0  0  0  0
   43.3885    5.5229   11.9197 C   0  0  0  0  0  0  0  0  0  0  0  0
   43.7428    1.4088    9.5534 H   0  0  0  0  0  0  0  0  0  0  0  0
   45.1541    1.2945   10.6338 H   0  0  0  0  0  0  0  0  0  0  0  0
   45.6682   -0.0500    8.3520 H   0  0  0  0  0  0  0  0  0  0  0  0
   43.0201    2.1519   12.0442 H   0  0  0  0  0  0  0  0  0  0  0  0
   46.9634    5.3431    7.2303 H   0  0  0  0  0  0  0  0  0  0  0  0
   45.2095    6.8016    9.6761 H   0  0  0  0  0  0  0  0  0  0  0  0
   47.1740    0.1401    6.4048 H   0  0  0  0  0  0  0  0  0  0  0  0
   42.2910    4.2003   13.2136 H   0  0  0  0  0  0  0  0  0  0  0  0
   47.9433    2.3711    5.6359 H   0  0  0  0  0  0  0  0  0  0  0  0
   43.0678    6.4251   12.4341 H   0  0  0  0  0  0  0  0  0  0  0  0
  2  1  1  0
  3  1  1  0
  4  2  2  0
  5  3  2  0
  6  5  1  0
  7  1  2  0
  8  2  1  0
  9  3  1  0
 10  4  1  0
 11  5  1  0
 12  8  1  0
 13  9  1  0
 14 16  1  0
 15 17  1  0
 16  8  2  0
 17  9  2  0
  4  6  1  0
 11 15  2  0
 10 14  2  0
  6 18  1  0
  6 19  1  0
 10 20  1  0
 11 21  1  0
 12 22  1  0
 13 23  1  0
 14 24  1  0
 15 25  1  0
 16 26  1  0
 17 27  1  0
M  END
> <Uni-Dock RESULT> 
ENERGY=   -4.687  LOWER_BOUND=    2.176  UPPER_BOUND=    2.912
INTER + INTRA:          -4.687
INTER:                  -4.687
INTRA:                   0.000
UNBOUND:                 0.000

$$$$

     RDKit          3D

 27 29  0  0  0  0  0  0  0  0999 V2000
   45.1148    7.1333   12.3520 C   0  0  0  0  0  0  0  0  0  0  0  0
   46.4020    7.5029   12.9793 C   0  0  0  0  0  0  0  0  0  0  0  0
   44.7182    5.7122   12.2510 C   0  0  0  0  0  0  0  0  0  0  0  0
   47.2441    6.5001   13.4775 C   0  0  0  0  0  0  0  0  0  0  0  0
   45.5681    4.7175   12.7525 C   0  0  0  0  0  0  0  0  0  0  0  0
   46.8879    5.0400   13.3997 C   0  0  0  0  0  0  0  0  0  0  0  0
   44.3712    8.0111   11.9126 O   0  0  0  0  0  0  0  0  0  0  0  0
   46.7842    8.8498   13.0784 C   0  0  0  0  0  0  0  0  0  0  0  0
   43.4979    5.3546   11.6567 C   0  0  0  0  0  0  0  0  0  0  0  0
   48.4646    6.8685   14.0710 C   0  0  0  0  0  0  0  0  0  0  0  0
   45.1762    3.3710   12.6485 C   0  0  0  0  0  0  0  0  0  0  0  0
   46.0153    9.8841   12.6152 O   0  0  0  0  0  0  0  0  0  0  0  0
   42.6163    6.2689   11.1447 O   0  0  0  0  0  0  0  0  0  0  0  0
   48.8362    8.2105   14.1651 C   0  0  0  0  0  0  0  0  0  0  0  0
   43.9608    3.0250   12.0560 C   0  0  0  0  0  0  0  0  0  0  0  0
   47.9947    9.2020   13.6680 C   0  0  0  0  0  0  0  0  0  0  0  0
   43.1211    4.0184   11.5597 C   0  0  0  0  0  0  0  0  0  0  0  0
   47.6777    4.5267   12.8362 H   0  0  0  0  0  0  0  0  0  0  0  0
   46.8731    4.6385   14.4211 H   0  0  0  0  0  0  0  0  0  0  0  0
   49.1357    6.1073   14.4655 H   0  0  0  0  0  0  0  0  0  0  0  0
   45.8197    2.5804   13.0309 H   0  0  0  0  0  0  0  0  0  0  0  0
   45.1981    9.4995   12.2274 H   0  0  0  0  0  0  0  0  0  0  0  0
   43.0016    7.1633   11.2773 H   0  0  0  0  0  0  0  0  0  0  0  0
   49.7822    8.4846   14.6260 H   0  0  0  0  0  0  0  0  0  0  0  0
   43.6674    1.9807   11.9807 H   0  0  0  0  0  0  0  0  0  0  0  0
   48.2788   10.2488   13.7385 H   0  0  0  0  0  0  0  0  0  0  0  0
   42.1734    3.7550   11.0972 H   0  0  0  0  0  0  0  0  0  0  0  0
  2  1  1  0
  3  1  1  0
  4  2  2  0
  5  3  2  0
  6  5  1  0
  7  1  2  0
  8  2  1  0
  9  3  1  0
 10  4  1  0
 11  5  1  0
 12  8  1  0
 13  9  1  0
 14 16  1  0
 15 17  1  0
 16  8  2  0
 17  9  2  0
  4  6  1  0
 11 15  2  0
 10 14  2  0
  6 18  1  0
  6 19  1  0
 10 20  1  0
 11 21  1  0
 12 22  1  0
 13 23  1  0
 14 24  1  0
 15 25  1  0
 16 26  1  0
 17 27  1  0
M  END
> <Uni-Dock RESULT> 
ENERGY=   -4.606  LOWER_BOUND=    4.567  UPPER_BOUND=    6.588
INTER + INTRA:          -4.606
INTER:                  -4.606
INTRA:                   0.000
UNBOUND:                 0.000

$$$$

     RDKit          3D

 27 29  0  0  0  0  0  0  0  0999 V2000
   46.8034    5.7950   12.9988 C   0  0  0  0  0  0  0  0  0  0  0  0
   45.4914    5.2899   12.5403 C   0  0  0  0  0  0  0  0  0  0  0  0
   47.1054    7.2415   12.9382 C   0  0  0  0  0  0  0  0  0  0  0  0
   44.5356    6.1884   12.0481 C   0  0  0  0  0  0  0  0  0  0  0  0
   46.1423    8.1311   12.4440 C   0  0  0  0  0  0  0  0  0  0  0  0
   44.7926    7.6689   11.9653 C   0  0  0  0  0  0  0  0  0  0  0  0
   47.6468    5.0092   13.4322 O   0  0  0  0  0  0  0  0  0  0  0  0
   45.1985    3.9183   12.5953 C   0  0  0  0  0  0  0  0  0  0  0  0
   48.3489    7.7274   13.3718 C   0  0  0  0  0  0  0  0  0  0  0  0
   43.2930    5.6917   11.6161 C   0  0  0  0  0  0  0  0  0  0  0  0
   46.4454    9.5033   12.3931 C   0  0  0  0  0  0  0  0  0  0  0  0
   46.0803    2.9808   13.0630 O   0  0  0  0  0  0  0  0  0  0  0  0
   49.3388    6.9206   13.8661 O   0  0  0  0  0  0  0  0  0  0  0  0
   43.0106    4.3261   11.6746 C   0  0  0  0  0  0  0  0  0  0  0  0
   47.6845    9.9773   12.8265 C   0  0  0  0  0  0  0  0  0  0  0  0
   43.9649    3.4387   12.1648 C   0  0  0  0  0  0  0  0  0  0  0  0
   48.6370    9.0878   13.3163 C   0  0  0  0  0  0  0  0  0  0  0  0
   44.6799    7.9756   10.9174 H   0  0  0  0  0  0  0  0  0  0  0  0
   44.0263    8.1811   12.5614 H   0  0  0  0  0  0  0  0  0  0  0  0
   42.5342    6.3703   11.2298 H   0  0  0  0  0  0  0  0  0  0  0  0
   45.7131   10.2139   12.0132 H   0  0  0  0  0  0  0  0  0  0  0  0
   46.9017    3.4495   13.3310 H   0  0  0  0  0  0  0  0  0  0  0  0
   49.0073    5.9955   13.8500 H   0  0  0  0  0  0  0  0  0  0  0  0
   42.0465    3.9525   11.3380 H   0  0  0  0  0  0  0  0  0  0  0  0
   47.9086   11.0404   12.7827 H   0  0  0  0  0  0  0  0  0  0  0  0
   43.7507    2.3742   12.2128 H   0  0  0  0  0  0  0  0  0  0  0  0
   49.6037    9.4511   13.6552 H   0  0  0  0  0  0  0  0  0  0  0  0
  2  1  1  0
  3  1  1  0
  4  2  2  0
  5  3  2  0
  6  5  1  0
  7  1  2  0
  8  2  1  0
  9  3  1  0
 10  4  1  0
 11  5  1  0
 12  8  1  0
 13  9  1  0
 14 16  1  0
 15 17  1  0
 16  8  2  0
 17  9  2  0
  4  6  1  0
 11 15  2  0
 10 14  2  0
  6 18  1  0
  6 19  1  0
 10 20  1  0
 11 21  1  0
 12 22  1  0
 13 23  1  0
 14 24  1  0
 15 25  1  0
 16 26  1  0
 17 27  1  0
M  END
> <Uni-Dock RESULT> 
ENERGY=   -4.436  LOWER_BOUND=    4.298  UPPER_BOUND=    6.122
INTER + INTRA:          -4.436
INTER:                  -4.436
INTRA:                   0.000
UNBOUND:                 0.000

$$$$

     RDKit          3D

 27 29  0  0  0  0  0  0  0  0999 V2000
   46.8029    5.7946   12.9988 C   0  0  0  0  0  0  0  0  0  0  0  0
   47.1044    7.2411   12.9380 C   0  0  0  0  0  0  0  0  0  0  0  0
   45.4911    5.2889   12.5400 C   0  0  0  0  0  0  0  0  0  0  0  0
   46.1411    8.1302   12.4436 C   0  0  0  0  0  0  0  0  0  0  0  0
   44.5351    6.1870   12.0475 C   0  0  0  0  0  0  0  0  0  0  0  0
   44.7916    7.6675   11.9645 C   0  0  0  0  0  0  0  0  0  0  0  0
   47.6463    5.0090   13.4326 O   0  0  0  0  0  0  0  0  0  0  0  0
   48.3475    7.7274   13.3717 C   0  0  0  0  0  0  0  0  0  0  0  0
   45.1986    3.9171   12.5952 C   0  0  0  0  0  0  0  0  0  0  0  0
   46.4437    9.5026   12.3924 C   0  0  0  0  0  0  0  0  0  0  0  0
   43.2927    5.6898   11.6154 C   0  0  0  0  0  0  0  0  0  0  0  0
   49.3377    6.9211   13.8664 O   0  0  0  0  0  0  0  0  0  0  0  0
   46.0807    2.9801   13.0633 O   0  0  0  0  0  0  0  0  0  0  0  0
   47.6826    9.9770   12.8259 C   0  0  0  0  0  0  0  0  0  0  0  0
   43.0108    4.3241   11.6739 C   0  0  0  0  0  0  0  0  0  0  0  0
   48.6353    9.0880   13.3161 C   0  0  0  0  0  0  0  0  0  0  0  0
   43.9652    3.4372   12.1645 C   0  0  0  0  0  0  0  0  0  0  0  0
   44.0251    8.1796   12.5604 H   0  0  0  0  0  0  0  0  0  0  0  0
   44.6790    7.9741   10.9165 H   0  0  0  0  0  0  0  0  0  0  0  0
   45.7114   10.2129   12.0122 H   0  0  0  0  0  0  0  0  0  0  0  0
   42.5339    6.3682   11.2287 H   0  0  0  0  0  0  0  0  0  0  0  0
   49.0065    5.9958   13.8504 H   0  0  0  0  0  0  0  0  0  0  0  0
   46.9018    3.4490   13.3313 H   0  0  0  0  0  0  0  0  0  0  0  0
   47.9064   11.0402   12.7821 H   0  0  0  0  0  0  0  0  0  0  0  0
   42.0469    3.9502   11.3372 H   0  0  0  0  0  0  0  0  0  0  0  0
   49.6018    9.4516   13.6551 H   0  0  0  0  0  0  0  0  0  0  0  0
   43.7514    2.3726   12.2125 H   0  0  0  0  0  0  0  0  0  0  0  0
  2  1  1  0
  3  1  1  0
  4  2  2  0
  5  3  2  0
  6  5  1  0
  7  1  2  0
  8  2  1  0
  9  3  1  0
 10  4  1  0
 11  5  1  0
 12  8  1  0
 13  9  1  0
 14 16  1  0
 15 17  1  0
 16  8  2  0
 17  9  2  0
  4  6  1  0
 11 15  2  0
 10 14  2  0
  6 18  1  0
  6 19  1  0
 10 20  1  0
 11 21  1  0
 12 22  1  0
 13 23  1  0
 14 24  1  0
 15 25  1  0
 16 26  1  0
 17 27  1  0
M  END
> <Uni-Dock RESULT> 
ENERGY=   -4.433  LOWER_BOUND=    4.298  UPPER_BOUND=    6.196
INTER + INTRA:          -4.433
INTER:                  -4.433
INTRA:                   0.000
UNBOUND:                 0.000

$$$$

     RDKit          3D

 27 29  0  0  0  0  0  0  0  0999 V2000
   43.9271    6.9802   11.5599 C   0  0  0  0  0  0  0  0  0  0  0  0
   44.6073    5.7881   12.1105 C   0  0  0  0  0  0  0  0  0  0  0  0
   44.5669    8.3103   11.6527 C   0  0  0  0  0  0  0  0  0  0  0  0
   45.8611    5.9249   12.7207 C   0  0  0  0  0  0  0  0  0  0  0  0
   45.8209    8.4355   12.2652 C   0  0  0  0  0  0  0  0  0  0  0  0
   46.5550    7.2549   12.8410 C   0  0  0  0  0  0  0  0  0  0  0  0
   42.8249    6.8651   11.0226 O   0  0  0  0  0  0  0  0  0  0  0  0
   44.0055    4.5230   12.0255 C   0  0  0  0  0  0  0  0  0  0  0  0
   43.9266    9.4457   11.1322 C   0  0  0  0  0  0  0  0  0  0  0  0
   46.4944    4.7814   13.2392 C   0  0  0  0  0  0  0  0  0  0  0  0
   46.4155    9.7073   12.3453 C   0  0  0  0  0  0  0  0  0  0  0  0
   42.7837    4.3107   11.4445 O   0  0  0  0  0  0  0  0  0  0  0  0
   42.7021    9.4023   10.5206 O   0  0  0  0  0  0  0  0  0  0  0  0
   45.8883    3.5274   13.1500 C   0  0  0  0  0  0  0  0  0  0  0  0
   45.7712   10.8307   11.8248 C   0  0  0  0  0  0  0  0  0  0  0  0
   44.6422    3.3986   12.5423 C   0  0  0  0  0  0  0  0  0  0  0  0
   44.5253   10.6991   11.2177 C   0  0  0  0  0  0  0  0  0  0  0  0
   46.7323    7.4510   13.9064 H   0  0  0  0  0  0  0  0  0  0  0  0
   47.5264    7.1787   12.3356 H   0  0  0  0  0  0  0  0  0  0  0  0
   47.4690    4.8625   13.7178 H   0  0  0  0  0  0  0  0  0  0  0  0
   47.3894    9.8298   12.8165 H   0  0  0  0  0  0  0  0  0  0  0  0
   42.4491    5.1779   11.1250 H   0  0  0  0  0  0  0  0  0  0  0  0
   42.3965    8.4682   10.5279 H   0  0  0  0  0  0  0  0  0  0  0  0
   46.3866    2.6496   13.5542 H   0  0  0  0  0  0  0  0  0  0  0  0
   46.2399   11.8095   11.8921 H   0  0  0  0  0  0  0  0  0  0  0  0
   44.1653    2.4246   12.4700 H   0  0  0  0  0  0  0  0  0  0  0  0
   44.0188   11.5703   10.8105 H   0  0  0  0  0  0  0  0  0  0  0  0
  2  1  1  0
  3  1  1  0
  4  2  2  0
  5  3  2  0
  6  5  1  0
  7  1  2  0
  8  2  1  0
  9  3  1  0
 10  4  1  0
 11  5  1  0
 12  8  1  0
 13  9  1  0
 14 16  1  0
 15 17  1  0
 16  8  2  0
 17  9  2  0
  4  6  1  0
 11 15  2  0
 10 14  2  0
  6 18  1  0
  6 19  1  0
 10 20  1  0
 11 21  1  0
 12 22  1  0
 13 23  1  0
 14 24  1  0
 15 25  1  0
 16 26  1  0
 17 27  1  0
M  END
> <Uni-Dock RESULT> 
ENERGY=   -4.431  LOWER_BOUND=    4.357  UPPER_BOUND=    5.990
INTER + INTRA:          -4.431
INTER:                  -4.431
INTRA:                   0.000
UNBOUND:                 0.000

$$$$

     RDKit          3D

 27 29  0  0  0  0  0  0  0  0999 V2000
   43.9228    6.9793   11.5623 C   0  0  0  0  0  0  0  0  0  0  0  0
   44.5580    8.3118   11.6510 C   0  0  0  0  0  0  0  0  0  0  0  0
   44.6071    5.7913   12.1166 C   0  0  0  0  0  0  0  0  0  0  0  0
   45.8116    8.4433   12.2629 C   0  0  0  0  0  0  0  0  0  0  0  0
   45.8605    5.9343   12.7263 C   0  0  0  0  0  0  0  0  0  0  0  0
   46.5498    7.2669   12.8425 C   0  0  0  0  0  0  0  0  0  0  0  0
   42.8210    6.8586   11.0253 O   0  0  0  0  0  0  0  0  0  0  0  0
   43.9138    9.4434   11.1270 C   0  0  0  0  0  0  0  0  0  0  0  0
   44.0096    4.5237   12.0356 C   0  0  0  0  0  0  0  0  0  0  0  0
   46.4018    9.7174   12.3391 C   0  0  0  0  0  0  0  0  0  0  0  0
   46.4977    4.7946   13.2483 C   0  0  0  0  0  0  0  0  0  0  0  0
   42.6894    9.3939   10.5155 O   0  0  0  0  0  0  0  0  0  0  0  0
   42.7886    4.3055   11.4553 O   0  0  0  0  0  0  0  0  0  0  0  0
   45.7536   10.8369   11.8152 C   0  0  0  0  0  0  0  0  0  0  0  0
   45.8958    3.5382   13.1631 C   0  0  0  0  0  0  0  0  0  0  0  0
   44.5081   10.6992   11.2085 C   0  0  0  0  0  0  0  0  0  0  0  0
   44.6503    3.4032   12.5559 C   0  0  0  0  0  0  0  0  0  0  0  0
   47.5215    7.1926   12.3373 H   0  0  0  0  0  0  0  0  0  0  0  0
   46.7264    7.4670   13.9072 H   0  0  0  0  0  0  0  0  0  0  0  0
   47.3752    9.8447   12.8100 H   0  0  0  0  0  0  0  0  0  0  0  0
   47.4720    4.8806   13.7267 H   0  0  0  0  0  0  0  0  0  0  0  0
   42.3870    8.4588   10.5258 H   0  0  0  0  0  0  0  0  0  0  0  0
   42.4510    5.1706   11.1332 H   0  0  0  0  0  0  0  0  0  0  0  0
   46.2189   11.8176   11.8794 H   0  0  0  0  0  0  0  0  0  0  0  0
   46.3973    2.6634   13.5701 H   0  0  0  0  0  0  0  0  0  0  0  0
   43.9986   11.5674   10.7987 H   0  0  0  0  0  0  0  0  0  0  0  0
   44.1767    2.4274   12.4867 H   0  0  0  0  0  0  0  0  0  0  0  0
  2  1  1  0
  3  1  1  0
  4  2  2  0
  5  3  2  0
  6  5  1  0
  7  1  2  0
  8  2  1  0
  9  3  1  0
 10  4  1  0
 11  5  1  0
 12  8  1  0
 13  9  1  0
 14 16  1  0
 15 17  1  0
 16  8  2  0
 17  9  2  0
  4  6  1  0
 11 15  2  0
 10 14  2  0
  6 18  1  0
  6 19  1  0
 10 20  1  0
 11 21  1  0
 12 22  1  0
 13 23  1  0
 14 24  1  0
 15 25  1  0
 16 26  1  0
 17 27  1  0
M  END
> <Uni-Dock RESULT> 
ENERGY=   -4.422  LOWER_BOUND=    4.363  UPPER_BOUND=    6.490
INTER + INTRA:          -4.422
INTER:                  -4.422
INTRA:                   0.000
UNBOUND:                 0.000

$$$$

     RDKit          3D

 27 29  0  0  0  0  0  0  0  0999 V2000
   46.3567    6.1211   12.8321 C   0  0  0  0  0  0  0  0  0  0  0  0
   45.2890    5.1833   12.4229 C   0  0  0  0  0  0  0  0  0  0  0  0
   46.2135    7.5698   12.5717 C   0  0  0  0  0  0  0  0  0  0  0  0
   44.1410    5.6740   11.7870 C   0  0  0  0  0  0  0  0  0  0  0  0
   45.0613    8.0496   11.9350 C   0  0  0  0  0  0  0  0  0  0  0  0
   43.9461    7.1381   11.4988 C   0  0  0  0  0  0  0  0  0  0  0  0
   47.3677    5.6946   13.3913 O   0  0  0  0  0  0  0  0  0  0  0  0
   45.4187    3.8072   12.6673 C   0  0  0  0  0  0  0  0  0  0  0  0
   47.2233    8.4652   12.9575 C   0  0  0  0  0  0  0  0  0  0  0  0
   43.1351    4.7689   11.4043 C   0  0  0  0  0  0  0  0  0  0  0  0
   44.9408    9.4298   11.6948 C   0  0  0  0  0  0  0  0  0  0  0  0
   46.5096    3.2540   13.2829 O   0  0  0  0  0  0  0  0  0  0  0  0
   48.3762    8.0717   13.5830 O   0  0  0  0  0  0  0  0  0  0  0  0
   43.2728    3.4022   11.6515 C   0  0  0  0  0  0  0  0  0  0  0  0
   45.9501   10.3126   12.0820 C   0  0  0  0  0  0  0  0  0  0  0  0
   44.4162    2.9213   12.2838 C   0  0  0  0  0  0  0  0  0  0  0  0
   47.0924    9.8292   12.7141 C   0  0  0  0  0  0  0  0  0  0  0  0
   43.8136    7.2569   10.4156 H   0  0  0  0  0  0  0  0  0  0  0  0
   43.0250    7.4638   11.9991 H   0  0  0  0  0  0  0  0  0  0  0  0
   42.2338    5.1263   10.9089 H   0  0  0  0  0  0  0  0  0  0  0  0
   44.0547    9.8264   11.2017 H   0  0  0  0  0  0  0  0  0  0  0  0
   47.1335    3.9823   13.4984 H   0  0  0  0  0  0  0  0  0  0  0  0
   48.3396    7.0956   13.6924 H   0  0  0  0  0  0  0  0  0  0  0  0
   42.4889    2.7109   11.3515 H   0  0  0  0  0  0  0  0  0  0  0  0
   45.8468   11.3782   11.8914 H   0  0  0  0  0  0  0  0  0  0  0  0
   44.5290    1.8580   12.4790 H   0  0  0  0  0  0  0  0  0  0  0  0
   47.8817   10.5119   13.0180 H   0  0  0  0  0  0  0  0  0  0  0  0
  2  1  1  0
  3  1  1  0
  4  2  2  0
  5  3  2  0
  6  5  1  0
  7  1  2  0
  8  2  1  0
  9  3  1  0
 10  4  1  0
 11  5  1  0
 12  8  1  0
 13  9  1  0
 14 16  1  0
 15 17  1  0
 16  8  2  0
 17  9  2  0
  4  6  1  0
 11 15  2  0
 10 14  2  0
  6 18  1  0
  6 19  1  0
 10 20  1  0
 11 21  1  0
 12 22  1  0
 13 23  1  0
 14 24  1  0
 15 25  1  0
 16 26  1  0
 17 27  1  0
M  END
> <Uni-Dock RESULT> 
ENERGY=   -4.372  LOWER_BOUND=    4.286  UPPER_BOUND=    5.879
INTER + INTRA:          -4.372
INTER:                  -4.372
INTRA:                   0.000
UNBOUND:                 0.000

$$$$

     RDKit          3D

 27 29  0  0  0  0  0  0  0  0999 V2000
   51.3114    4.2220   18.4533 C   0  0  0  0  0  0  0  0  0  0  0  0
   49.9336    4.0954   17.9313 C   0  0  0  0  0  0  0  0  0  0  0  0
   52.2641    3.0992   18.3165 C   0  0  0  0  0  0  0  0  0  0  0  0
   49.5351    2.9064   17.3065 C   0  0  0  0  0  0  0  0  0  0  0  0
   51.8549    1.9147   17.6900 C   0  0  0  0  0  0  0  0  0  0  0  0
   50.4650    1.7347   17.1419 C   0  0  0  0  0  0  0  0  0  0  0  0
   51.6665    5.2651   19.0033 O   0  0  0  0  0  0  0  0  0  0  0  0
   49.0246    5.1574   18.0578 C   0  0  0  0  0  0  0  0  0  0  0  0
   53.5733    3.2130   18.8098 C   0  0  0  0  0  0  0  0  0  0  0  0
   48.2214    2.8023   16.8157 C   0  0  0  0  0  0  0  0  0  0  0  0
   52.7731    0.8566   17.5681 C   0  0  0  0  0  0  0  0  0  0  0  0
   49.3405    6.3484   18.6553 O   0  0  0  0  0  0  0  0  0  0  0  0
   54.0453    4.3373   19.4331 O   0  0  0  0  0  0  0  0  0  0  0  0
   47.3244    3.8636   16.9460 C   0  0  0  0  0  0  0  0  0  0  0  0
   54.0728    0.9788   18.0616 C   0  0  0  0  0  0  0  0  0  0  0  0
   47.7270    5.0424   17.5680 C   0  0  0  0  0  0  0  0  0  0  0  0
   54.4729    2.1586   18.6831 C   0  0  0  0  0  0  0  0  0  0  0  0
   50.0121    0.8682   17.6408 H   0  0  0  0  0  0  0  0  0  0  0  0
   50.5479    1.5141   16.0699 H   0  0  0  0  0  0  0  0  0  0  0  0
   47.8885    1.8884   16.3263 H   0  0  0  0  0  0  0  0  0  0  0  0
   52.4784   -0.0737   17.0851 H   0  0  0  0  0  0  0  0  0  0  0  0
   50.2759    6.2956   18.9526 H   0  0  0  0  0  0  0  0  0  0  0  0
   53.3162    4.9960   19.4552 H   0  0  0  0  0  0  0  0  0  0  0  0
   46.3108    3.7727   16.5629 H   0  0  0  0  0  0  0  0  0  0  0  0
   54.7749    0.1544   17.9621 H   0  0  0  0  0  0  0  0  0  0  0  0
   47.0329    5.8722   17.6724 H   0  0  0  0  0  0  0  0  0  0  0  0
   55.4838    2.2596   19.0695 H   0  0  0  0  0  0  0  0  0  0  0  0
  2  1  1  0
  3  1  1  0
  4  2  2  0
  5  3  2  0
  6  5  1  0
  7  1  2  0
  8  2  1  0
  9  3  1  0
 10  4  1  0
 11  5  1  0
 12  8  1  0
 13  9  1  0
 14 16  1  0
 15 17  1  0
 16  8  2  0
 17  9  2  0
  4  6  1  0
 11 15  2  0
 10 14  2  0
  6 18  1  0
  6 19  1  0
 10 20  1  0
 11 21  1  0
 12 22  1  0
 13 23  1  0
 14 24  1  0
 15 25  1  0
 16 26  1  0
 17 27  1  0
M  END
> <Uni-Dock RESULT> 
ENERGY=   -4.203  LOWER_BOUND=   10.530  UPPER_BOUND=   11.778
INTER + INTRA:          -4.203
INTER:                  -4.203
INTRA:                   0.000
UNBOUND:                 0.000

$$$$
