
     RDKit          3D

 27 29  0  0  0  0  0  0  0  0999 V2000
   44.9894    2.2493    9.3840 C   0  0  0  0  0  0  0  0  0  0  0  0
   45.9304    2.4308    8.2576 C   0  0  0  0  0  0  0  0  0  0  0  0
   44.4334    3.4267   10.0851 C   0  0  0  0  0  0  0  0  0  0  0  0
   46.2925    3.7239    7.8579 C   0  0  0  0  0  0  0  0  0  0  0  0
   44.8024    4.7153    9.6769 C   0  0  0  0  0  0  0  0  0  0  0  0
   45.7557    4.9546    8.5373 C   0  0  0  0  0  0  0  0  0  0  0  0
   44.6681    1.1146    9.7391 O   0  0  0  0  0  0  0  0  0  0  0  0
   46.4616    1.3175    7.5880 C   0  0  0  0  0  0  0  0  0  0  0  0
   43.5399    3.2613   11.1549 C   0  0  0  0  0  0  0  0  0  0  0  0
   47.1883    3.8790    6.7850 C   0  0  0  0  0  0  0  0  0  0  0  0
   44.2646    5.8241   10.3541 C   0  0  0  0  0  0  0  0  0  0  0  0
   46.1551    0.0250    7.9209 O   0  0  0  0  0  0  0  0  0  0  0  0
   43.1332    2.0355   11.6101 O   0  0  0  0  0  0  0  0  0  0  0  0
   47.7115    2.7661    6.1252 C   0  0  0  0  0  0  0  0  0  0  0  0
   43.3769    5.6499   11.4168 C   0  0  0  0  0  0  0  0  0  0  0  0
   47.3474    1.4840    6.5276 C   0  0  0  0  0  0  0  0  0  0  0  0
   43.0144    4.3667   11.8174 C   0  0  0  0  0  0  0  0  0  0  0  0
   46.6076    5.5302    8.9216 H   0  0  0  0  0  0  0  0  0  0  0  0
   45.2386    5.5616    7.7830 H   0  0  0  0  0  0  0  0  0  0  0  0
   47.4846    4.8739    6.4561 H   0  0  0  0  0  0  0  0  0  0  0  0
   44.5363    6.8353   10.0553 H   0  0  0  0  0  0  0  0  0  0  0  0
   45.5273    0.0511    8.6767 H   0  0  0  0  0  0  0  0  0  0  0  0
   43.5744    1.3503   11.0606 H   0  0  0  0  0  0  0  0  0  0  0  0
   48.4035    2.8973    5.2967 H   0  0  0  0  0  0  0  0  0  0  0  0
   42.9668    6.5142   11.9338 H   0  0  0  0  0  0  0  0  0  0  0  0
   47.7516    0.6135    6.0175 H   0  0  0  0  0  0  0  0  0  0  0  0
   42.3234    4.2248   12.6442 H   0  0  0  0  0  0  0  0  0  0  0  0
  2  1  1  0
  3  1  1  0
  4  2  2  0
  5  3  2  0
  6  5  1  0
  7  1  2  0
  8  2  1  0
  9  3  1  0
 10  4  1  0
 11  5  1  0
 12  8  1  0
 13  9  1  0
 14 16  1  0
 15 17  1  0
 16  8  2  0
 17  9  2  0
  4  6  1  0
 11 15  2  0
 10 14  2  0
  6 18  1  0
  6 19  1  0
 10 20  1  0
 11 21  1  0
 12 22  1  0
 13 23  1  0
 14 24  1  0
 15 25  1  0
 16 26  1  0
 17 27  1  0
M  END
> <Uni-Dock RESULT> 
ENERGY=   -6.282  LOWER_BOUND=    0.000  UPPER_BOUND=    0.000
INTER + INTRA:          -6.282
INTER:                  -6.282
INTRA:                   0.000
UNBOUND:                 0.000

$$$$

     RDKit          3D

 27 29  0  0  0  0  0  0  0  0999 V2000
   44.9894    2.2493    9.3841 C   0  0  0  0  0  0  0  0  0  0  0  0
   44.4334    3.4268   10.0852 C   0  0  0  0  0  0  0  0  0  0  0  0
   45.9304    2.4309    8.2577 C   0  0  0  0  0  0  0  0  0  0  0  0
   44.8024    4.7153    9.6769 C   0  0  0  0  0  0  0  0  0  0  0  0
   46.2925    3.7240    7.8579 C   0  0  0  0  0  0  0  0  0  0  0  0
   45.7556    4.9547    8.5374 C   0  0  0  0  0  0  0  0  0  0  0  0
   44.6681    1.1147    9.7392 O   0  0  0  0  0  0  0  0  0  0  0  0
   43.5399    3.2614   11.1549 C   0  0  0  0  0  0  0  0  0  0  0  0
   46.4616    1.3175    7.5881 C   0  0  0  0  0  0  0  0  0  0  0  0
   44.2646    5.8242   10.3543 C   0  0  0  0  0  0  0  0  0  0  0  0
   47.1883    3.8791    6.7851 C   0  0  0  0  0  0  0  0  0  0  0  0
   43.1331    2.0355   11.6102 O   0  0  0  0  0  0  0  0  0  0  0  0
   46.1551    0.0250    7.9210 O   0  0  0  0  0  0  0  0  0  0  0  0
   43.3769    5.6499   11.4169 C   0  0  0  0  0  0  0  0  0  0  0  0
   47.7115    2.7662    6.1252 C   0  0  0  0  0  0  0  0  0  0  0  0
   43.0144    4.3667   11.8173 C   0  0  0  0  0  0  0  0  0  0  0  0
   47.3474    1.4840    6.5276 C   0  0  0  0  0  0  0  0  0  0  0  0
   45.2386    5.5617    7.7830 H   0  0  0  0  0  0  0  0  0  0  0  0
   46.6076    5.5302    8.9216 H   0  0  0  0  0  0  0  0  0  0  0  0
   44.5365    6.8354   10.0553 H   0  0  0  0  0  0  0  0  0  0  0  0
   47.4847    4.8739    6.4561 H   0  0  0  0  0  0  0  0  0  0  0  0
   43.5744    1.3504   11.0607 H   0  0  0  0  0  0  0  0  0  0  0  0
   45.5272    0.0512    8.6767 H   0  0  0  0  0  0  0  0  0  0  0  0
   42.9669    6.5143   11.9338 H   0  0  0  0  0  0  0  0  0  0  0  0
   48.4035    2.8973    5.2967 H   0  0  0  0  0  0  0  0  0  0  0  0
   42.3234    4.2249   12.6442 H   0  0  0  0  0  0  0  0  0  0  0  0
   47.7516    0.6135    6.0176 H   0  0  0  0  0  0  0  0  0  0  0  0
  2  1  1  0
  3  1  1  0
  4  2  2  0
  5  3  2  0
  6  5  1  0
  7  1  2  0
  8  2  1  0
  9  3  1  0
 10  4  1  0
 11  5  1  0
 12  8  1  0
 13  9  1  0
 14 16  1  0
 15 17  1  0
 16  8  2  0
 17  9  2  0
  4  6  1  0
 11 15  2  0
 10 14  2  0
  6 18  1  0
  6 19  1  0
 10 20  1  0
 11 21  1  0
 12 22  1  0
 13 23  1  0
 14 24  1  0
 15 25  1  0
 16 26  1  0
 17 27  1  0
M  END
> <Uni-Dock RESULT> 
ENERGY=   -6.282  LOWER_BOUND=    0.000  UPPER_BOUND=    4.853
INTER + INTRA:          -6.282
INTER:                  -6.282
INTRA:                   0.000
UNBOUND:                 0.000

$$$$

     RDKit          3D

 27 29  0  0  0  0  0  0  0  0999 V2000
   45.5637    4.5635    8.9779 C   0  0  0  0  0  0  0  0  0  0  0  0
   46.0060    3.3425    8.2705 C   0  0  0  0  0  0  0  0  0  0  0  0
   44.6612    4.4606   10.1450 C   0  0  0  0  0  0  0  0  0  0  0  0
   45.5660    2.0875    8.7116 C   0  0  0  0  0  0  0  0  0  0  0  0
   44.2273    3.2005   10.5774 C   0  0  0  0  0  0  0  0  0  0  0  0
   44.6478    1.9279    9.8931 C   0  0  0  0  0  0  0  0  0  0  0  0
   45.9477    5.6690    8.5941 O   0  0  0  0  0  0  0  0  0  0  0  0
   46.8624    3.4333    7.1622 C   0  0  0  0  0  0  0  0  0  0  0  0
   44.2376    5.6157   10.8207 C   0  0  0  0  0  0  0  0  0  0  0  0
   45.9960    0.9364    8.0278 C   0  0  0  0  0  0  0  0  0  0  0  0
   43.3695    3.1202   11.6887 C   0  0  0  0  0  0  0  0  0  0  0  0
   47.3337    4.6226    6.6735 O   0  0  0  0  0  0  0  0  0  0  0  0
   44.6188    6.8798   10.4576 O   0  0  0  0  0  0  0  0  0  0  0  0
   46.8476    1.0365    6.9267 C   0  0  0  0  0  0  0  0  0  0  0  0
   42.9536    4.2741   12.3544 C   0  0  0  0  0  0  0  0  0  0  0  0
   47.2811    2.2866    6.4937 C   0  0  0  0  0  0  0  0  0  0  0  0
   43.3884    5.5232   11.9195 C   0  0  0  0  0  0  0  0  0  0  0  0
   43.7423    1.4093    9.5528 H   0  0  0  0  0  0  0  0  0  0  0  0
   45.1531    1.2944   10.6335 H   0  0  0  0  0  0  0  0  0  0  0  0
   45.6675   -0.0500    8.3518 H   0  0  0  0  0  0  0  0  0  0  0  0
   43.0190    2.1522   12.0435 H   0  0  0  0  0  0  0  0  0  0  0  0
   46.9650    5.3429    7.2314 H   0  0  0  0  0  0  0  0  0  0  0  0
   45.2106    6.8015    9.6767 H   0  0  0  0  0  0  0  0  0  0  0  0
   47.1741    0.1399    6.4051 H   0  0  0  0  0  0  0  0  0  0  0  0
   42.2901    4.2008   13.2128 H   0  0  0  0  0  0  0  0  0  0  0  0
   47.9443    2.3708    5.6368 H   0  0  0  0  0  0  0  0  0  0  0  0
   43.0679    6.4253   12.4339 H   0  0  0  0  0  0  0  0  0  0  0  0
  2  1  1  0
  3  1  1  0
  4  2  2  0
  5  3  2  0
  6  5  1  0
  7  1  2  0
  8  2  1  0
  9  3  1  0
 10  4  1  0
 11  5  1  0
 12  8  1  0
 13  9  1  0
 14 16  1  0
 15 17  1  0
 16  8  2  0
 17  9  2  0
  4  6  1  0
 11 15  2  0
 10 14  2  0
  6 18  1  0
  6 19  1  0
 10 20  1  0
 11 21  1  0
 12 22  1  0
 13 23  1  0
 14 24  1  0
 15 25  1  0
 16 26  1  0
 17 27  1  0
M  END
> <Uni-Dock RESULT> 
ENERGY=   -4.679  LOWER_BOUND=    2.176  UPPER_BOUND=    2.912
INTER + INTRA:          -4.679
INTER:                  -4.679
INTRA:                   0.000
UNBOUND:                 0.000

$$$$

     RDKit          3D

 27 29  0  0  0  0  0  0  0  0999 V2000
   45.1149    7.1332   12.3520 C   0  0  0  0  0  0  0  0  0  0  0  0
   44.7184    5.7120   12.2510 C   0  0  0  0  0  0  0  0  0  0  0  0
   46.4021    7.5029   12.9793 C   0  0  0  0  0  0  0  0  0  0  0  0
   45.5683    4.7175   12.7525 C   0  0  0  0  0  0  0  0  0  0  0  0
   47.2443    6.5000   13.4775 C   0  0  0  0  0  0  0  0  0  0  0  0
   46.8880    5.0400   13.3997 C   0  0  0  0  0  0  0  0  0  0  0  0
   44.3712    8.0111   11.9127 O   0  0  0  0  0  0  0  0  0  0  0  0
   43.4981    5.3545   11.6568 C   0  0  0  0  0  0  0  0  0  0  0  0
   46.7842    8.8498   13.0783 C   0  0  0  0  0  0  0  0  0  0  0  0
   45.1763    3.3709   12.6485 C   0  0  0  0  0  0  0  0  0  0  0  0
   48.4647    6.8685   14.0709 C   0  0  0  0  0  0  0  0  0  0  0  0
   42.6164    6.2688   11.1449 O   0  0  0  0  0  0  0  0  0  0  0  0
   46.0154    9.8840   12.6151 O   0  0  0  0  0  0  0  0  0  0  0  0
   43.9610    3.0249   12.0561 C   0  0  0  0  0  0  0  0  0  0  0  0
   48.8364    8.2105   14.1649 C   0  0  0  0  0  0  0  0  0  0  0  0
   43.1212    4.0183   11.5598 C   0  0  0  0  0  0  0  0  0  0  0  0
   47.9948    9.2020   13.6679 C   0  0  0  0  0  0  0  0  0  0  0  0
   46.8734    4.6384   14.4211 H   0  0  0  0  0  0  0  0  0  0  0  0
   47.6778    4.5267   12.8361 H   0  0  0  0  0  0  0  0  0  0  0  0
   45.8200    2.5802   13.0310 H   0  0  0  0  0  0  0  0  0  0  0  0
   49.1360    6.1073   14.4653 H   0  0  0  0  0  0  0  0  0  0  0  0
   43.0017    7.1632   11.2774 H   0  0  0  0  0  0  0  0  0  0  0  0
   45.1982    9.4994   12.2274 H   0  0  0  0  0  0  0  0  0  0  0  0
   43.6675    1.9806   11.9808 H   0  0  0  0  0  0  0  0  0  0  0  0
   49.7824    8.4846   14.6258 H   0  0  0  0  0  0  0  0  0  0  0  0
   42.1735    3.7548   11.0974 H   0  0  0  0  0  0  0  0  0  0  0  0
   48.2789   10.2487   13.7382 H   0  0  0  0  0  0  0  0  0  0  0  0
  2  1  1  0
  3  1  1  0
  4  2  2  0
  5  3  2  0
  6  5  1  0
  7  1  2  0
  8  2  1  0
  9  3  1  0
 10  4  1  0
 11  5  1  0
 12  8  1  0
 13  9  1  0
 14 16  1  0
 15 17  1  0
 16  8  2  0
 17  9  2  0
  4  6  1  0
 11 15  2  0
 10 14  2  0
  6 18  1  0
  6 19  1  0
 10 20  1  0
 11 21  1  0
 12 22  1  0
 13 23  1  0
 14 24  1  0
 15 25  1  0
 16 26  1  0
 17 27  1  0
M  END
> <Uni-Dock RESULT> 
ENERGY=   -4.607  LOWER_BOUND=    4.567  UPPER_BOUND=    6.425
INTER + INTRA:          -4.607
INTER:                  -4.607
INTRA:                   0.000
UNBOUND:                 0.000

$$$$

     RDKit          3D

 27 29  0  0  0  0  0  0  0  0999 V2000
   45.1149    7.1333   12.3521 C   0  0  0  0  0  0  0  0  0  0  0  0
   46.4021    7.5029   12.9794 C   0  0  0  0  0  0  0  0  0  0  0  0
   44.7184    5.7121   12.2510 C   0  0  0  0  0  0  0  0  0  0  0  0
   47.2442    6.5001   13.4776 C   0  0  0  0  0  0  0  0  0  0  0  0
   45.5683    4.7175   12.7525 C   0  0  0  0  0  0  0  0  0  0  0  0
   46.8880    5.0401   13.3997 C   0  0  0  0  0  0  0  0  0  0  0  0
   44.3712    8.0112   11.9126 O   0  0  0  0  0  0  0  0  0  0  0  0
   46.7843    8.8498   13.0784 C   0  0  0  0  0  0  0  0  0  0  0  0
   43.4981    5.3546   11.6567 C   0  0  0  0  0  0  0  0  0  0  0  0
   48.4646    6.8686   14.0711 C   0  0  0  0  0  0  0  0  0  0  0  0
   45.1763    3.3710   12.6486 C   0  0  0  0  0  0  0  0  0  0  0  0
   46.0154    9.8841   12.6151 O   0  0  0  0  0  0  0  0  0  0  0  0
   42.6164    6.2689   11.1447 O   0  0  0  0  0  0  0  0  0  0  0  0
   48.8363    8.2105   14.1651 C   0  0  0  0  0  0  0  0  0  0  0  0
   43.9609    3.0250   12.0561 C   0  0  0  0  0  0  0  0  0  0  0  0
   47.9948    9.2020   13.6680 C   0  0  0  0  0  0  0  0  0  0  0  0
   43.1211    4.0184   11.5596 C   0  0  0  0  0  0  0  0  0  0  0  0
   47.6778    4.5267   12.8363 H   0  0  0  0  0  0  0  0  0  0  0  0
   46.8732    4.6385   14.4212 H   0  0  0  0  0  0  0  0  0  0  0  0
   49.1358    6.1072   14.4655 H   0  0  0  0  0  0  0  0  0  0  0  0
   45.8197    2.5803   13.0310 H   0  0  0  0  0  0  0  0  0  0  0  0
   45.1982    9.4995   12.2274 H   0  0  0  0  0  0  0  0  0  0  0  0
   43.0017    7.1633   11.2773 H   0  0  0  0  0  0  0  0  0  0  0  0
   49.7823    8.4845   14.6260 H   0  0  0  0  0  0  0  0  0  0  0  0
   43.6674    1.9807   11.9807 H   0  0  0  0  0  0  0  0  0  0  0  0
   48.2789   10.2487   13.7384 H   0  0  0  0  0  0  0  0  0  0  0  0
   42.1735    3.7550   11.0973 H   0  0  0  0  0  0  0  0  0  0  0  0
  2  1  1  0
  3  1  1  0
  4  2  2  0
  5  3  2  0
  6  5  1  0
  7  1  2  0
  8  2  1  0
  9  3  1  0
 10  4  1  0
 11  5  1  0
 12  8  1  0
 13  9  1  0
 14 16  1  0
 15 17  1  0
 16  8  2  0
 17  9  2  0
  4  6  1  0
 11 15  2  0
 10 14  2  0
  6 18  1  0
  6 19  1  0
 10 20  1  0
 11 21  1  0
 12 22  1  0
 13 23  1  0
 14 24  1  0
 15 25  1  0
 16 26  1  0
 17 27  1  0
M  END
> <Uni-Dock RESULT> 
ENERGY=   -4.605  LOWER_BOUND=    4.567  UPPER_BOUND=    6.588
INTER + INTRA:          -4.605
INTER:                  -4.605
INTRA:                   0.000
UNBOUND:                 0.000

$$$$

     RDKit          3D

 27 29  0  0  0  0  0  0  0  0999 V2000
   46.8029    5.7941   12.9989 C   0  0  0  0  0  0  0  0  0  0  0  0
   47.1046    7.2406   12.9383 C   0  0  0  0  0  0  0  0  0  0  0  0
   45.4910    5.2886   12.5401 C   0  0  0  0  0  0  0  0  0  0  0  0
   46.1414    8.1299   12.4439 C   0  0  0  0  0  0  0  0  0  0  0  0
   44.5352    6.1869   12.0476 C   0  0  0  0  0  0  0  0  0  0  0  0
   44.7919    7.6674   11.9648 C   0  0  0  0  0  0  0  0  0  0  0  0
   47.6463    5.0084   13.4327 O   0  0  0  0  0  0  0  0  0  0  0  0
   48.3478    7.7268   13.3722 C   0  0  0  0  0  0  0  0  0  0  0  0
   45.1984    3.9169   12.5951 C   0  0  0  0  0  0  0  0  0  0  0  0
   46.4443    9.5022   12.3930 C   0  0  0  0  0  0  0  0  0  0  0  0
   43.2928    5.6899   11.6153 C   0  0  0  0  0  0  0  0  0  0  0  0
   49.3378    6.9202   13.8669 O   0  0  0  0  0  0  0  0  0  0  0  0
   46.0804    2.9797   13.0631 O   0  0  0  0  0  0  0  0  0  0  0  0
   47.6831    9.9765   12.8267 C   0  0  0  0  0  0  0  0  0  0  0  0
   43.0108    4.3243   11.6737 C   0  0  0  0  0  0  0  0  0  0  0  0
   48.6357    9.0873   13.3168 C   0  0  0  0  0  0  0  0  0  0  0  0
   43.9650    3.4371   12.1643 C   0  0  0  0  0  0  0  0  0  0  0  0
   44.0254    8.1795   12.5606 H   0  0  0  0  0  0  0  0  0  0  0  0
   44.6794    7.9741   10.9169 H   0  0  0  0  0  0  0  0  0  0  0  0
   45.7119   10.2128   12.0128 H   0  0  0  0  0  0  0  0  0  0  0  0
   42.5340    6.3683   11.2286 H   0  0  0  0  0  0  0  0  0  0  0  0
   49.0065    5.9950   13.8507 H   0  0  0  0  0  0  0  0  0  0  0  0
   46.9015    3.4486   13.3312 H   0  0  0  0  0  0  0  0  0  0  0  0
   47.9070   11.0396   12.7829 H   0  0  0  0  0  0  0  0  0  0  0  0
   42.0468    3.9505   11.3369 H   0  0  0  0  0  0  0  0  0  0  0  0
   49.6022    9.4508   13.6559 H   0  0  0  0  0  0  0  0  0  0  0  0
   43.7511    2.3726   12.2121 H   0  0  0  0  0  0  0  0  0  0  0  0
  2  1  1  0
  3  1  1  0
  4  2  2  0
  5  3  2  0
  6  5  1  0
  7  1  2  0
  8  2  1  0
  9  3  1  0
 10  4  1  0
 11  5  1  0
 12  8  1  0
 13  9  1  0
 14 16  1  0
 15 17  1  0
 16  8  2  0
 17  9  2  0
  4  6  1  0
 11 15  2  0
 10 14  2  0
  6 18  1  0
  6 19  1  0
 10 20  1  0
 11 21  1  0
 12 22  1  0
 13 23  1  0
 14 24  1  0
 15 25  1  0
 16 26  1  0
 17 27  1  0
M  END
> <Uni-Dock RESULT> 
ENERGY=   -4.432  LOWER_BOUND=    4.298  UPPER_BOUND=    6.196
INTER + INTRA:          -4.432
INTER:                  -4.432
INTRA:                   0.000
UNBOUND:                 0.000

$$$$

     RDKit          3D

 27 29  0  0  0  0  0  0  0  0999 V2000
   46.8029    5.7939   12.9993 C   0  0  0  0  0  0  0  0  0  0  0  0
   45.4911    5.2884   12.5402 C   0  0  0  0  0  0  0  0  0  0  0  0
   47.1047    7.2403   12.9387 C   0  0  0  0  0  0  0  0  0  0  0  0
   44.5355    6.1868   12.0476 C   0  0  0  0  0  0  0  0  0  0  0  0
   46.1416    8.1297   12.4441 C   0  0  0  0  0  0  0  0  0  0  0  0
   44.7922    7.6672   11.9648 C   0  0  0  0  0  0  0  0  0  0  0  0
   47.6463    5.0081   13.4331 O   0  0  0  0  0  0  0  0  0  0  0  0
   45.1984    3.9168   12.5951 C   0  0  0  0  0  0  0  0  0  0  0  0
   48.3479    7.7264   13.3727 C   0  0  0  0  0  0  0  0  0  0  0  0
   43.2930    5.6898   11.6152 C   0  0  0  0  0  0  0  0  0  0  0  0
   46.4445    9.5020   12.3933 C   0  0  0  0  0  0  0  0  0  0  0  0
   46.0803    2.9795   13.0633 O   0  0  0  0  0  0  0  0  0  0  0  0
   49.3378    6.9199   13.8675 O   0  0  0  0  0  0  0  0  0  0  0  0
   43.0109    4.3242   11.6735 C   0  0  0  0  0  0  0  0  0  0  0  0
   47.6833    9.9762   12.8272 C   0  0  0  0  0  0  0  0  0  0  0  0
   43.9651    3.4371   12.1641 C   0  0  0  0  0  0  0  0  0  0  0  0
   48.6359    9.0870   13.3174 C   0  0  0  0  0  0  0  0  0  0  0  0
   44.6798    7.9741   10.9169 H   0  0  0  0  0  0  0  0  0  0  0  0
   44.0256    8.1794   12.5605 H   0  0  0  0  0  0  0  0  0  0  0  0
   42.5343    6.3684   11.2284 H   0  0  0  0  0  0  0  0  0  0  0  0
   45.7123   10.2126   12.0131 H   0  0  0  0  0  0  0  0  0  0  0  0
   46.9014    3.4483   13.3315 H   0  0  0  0  0  0  0  0  0  0  0  0
   49.0064    5.9947   13.8513 H   0  0  0  0  0  0  0  0  0  0  0  0
   42.0470    3.9505   11.3365 H   0  0  0  0  0  0  0  0  0  0  0  0
   47.9074   11.0394   12.7835 H   0  0  0  0  0  0  0  0  0  0  0  0
   43.7511    2.3725   12.2119 H   0  0  0  0  0  0  0  0  0  0  0  0
   49.6023    9.4504   13.6567 H   0  0  0  0  0  0  0  0  0  0  0  0
  2  1  1  0
  3  1  1  0
  4  2  2  0
  5  3  2  0
  6  5  1  0
  7  1  2  0
  8  2  1  0
  9  3  1  0
 10  4  1  0
 11  5  1  0
 12  8  1  0
 13  9  1  0
 14 16  1  0
 15 17  1  0
 16  8  2  0
 17  9  2  0
  4  6  1  0
 11 15  2  0
 10 14  2  0
  6 18  1  0
  6 19  1  0
 10 20  1  0
 11 21  1  0
 12 22  1  0
 13 23  1  0
 14 24  1  0
 15 25  1  0
 16 26  1  0
 17 27  1  0
M  END
> <Uni-Dock RESULT> 
ENERGY=   -4.430  LOWER_BOUND=    4.298  UPPER_BOUND=    6.121
INTER + INTRA:          -4.430
INTER:                  -4.430
INTRA:                   0.000
UNBOUND:                 0.000

$$$$

     RDKit          3D

 27 29  0  0  0  0  0  0  0  0999 V2000
   43.9310    6.9735   11.5575 C   0  0  0  0  0  0  0  0  0  0  0  0
   44.6160    5.7865   12.1130 C   0  0  0  0  0  0  0  0  0  0  0  0
   44.5639    8.3071   11.6480 C   0  0  0  0  0  0  0  0  0  0  0  0
   45.8678    5.9314   12.7255 C   0  0  0  0  0  0  0  0  0  0  0  0
   45.8159    8.4404   12.2626 C   0  0  0  0  0  0  0  0  0  0  0  0
   46.5547    7.2651   12.8435 C   0  0  0  0  0  0  0  0  0  0  0  0
   42.8305    6.8513   11.0182 O   0  0  0  0  0  0  0  0  0  0  0  0
   44.0207    4.5181   12.0304 C   0  0  0  0  0  0  0  0  0  0  0  0
   43.9189    9.4377   11.1227 C   0  0  0  0  0  0  0  0  0  0  0  0
   46.5057    4.7925   13.2486 C   0  0  0  0  0  0  0  0  0  0  0  0
   46.4039    9.7154   12.3403 C   0  0  0  0  0  0  0  0  0  0  0  0
   42.8013    4.2980   11.4475 O   0  0  0  0  0  0  0  0  0  0  0  0
   42.6960    9.3864   10.5086 O   0  0  0  0  0  0  0  0  0  0  0  0
   45.9061    3.5353   13.1619 C   0  0  0  0  0  0  0  0  0  0  0  0
   45.7551   10.8340   11.8152 C   0  0  0  0  0  0  0  0  0  0  0  0
   44.6621    3.3984   12.5520 C   0  0  0  0  0  0  0  0  0  0  0  0
   44.5111   10.6945   11.2058 C   0  0  0  0  0  0  0  0  0  0  0  0
   46.7288    7.4653   13.9086 H   0  0  0  0  0  0  0  0  0  0  0  0
   47.5276    7.1924   12.3405 H   0  0  0  0  0  0  0  0  0  0  0  0
   47.4789    4.8800   13.7292 H   0  0  0  0  0  0  0  0  0  0  0  0
   47.3762    9.8443   12.8132 H   0  0  0  0  0  0  0  0  0  0  0  0
   42.4631    5.1626   11.1248 H   0  0  0  0  0  0  0  0  0  0  0  0
   42.3951    8.4508   10.5181 H   0  0  0  0  0  0  0  0  0  0  0  0
   46.4081    2.6612   13.5697 H   0  0  0  0  0  0  0  0  0  0  0  0
   46.2186   11.8154   11.8807 H   0  0  0  0  0  0  0  0  0  0  0  0
   44.1902    2.4218   12.4815 H   0  0  0  0  0  0  0  0  0  0  0  0
   44.0011   11.5619   10.7950 H   0  0  0  0  0  0  0  0  0  0  0  0
  2  1  1  0
  3  1  1  0
  4  2  2  0
  5  3  2  0
  6  5  1  0
  7  1  2  0
  8  2  1  0
  9  3  1  0
 10  4  1  0
 11  5  1  0
 12  8  1  0
 13  9  1  0
 14 16  1  0
 15 17  1  0
 16  8  2  0
 17  9  2  0
  4  6  1  0
 11 15  2  0
 10 14  2  0
  6 18  1  0
  6 19  1  0
 10 20  1  0
 11 21  1  0
 12 22  1  0
 13 23  1  0
 14 24  1  0
 15 25  1  0
 16 26  1  0
 17 27  1  0
M  END
> <Uni-Dock RESULT> 
ENERGY=   -4.429  LOWER_BOUND=    4.355  UPPER_BOUND=    5.987
INTER + INTRA:          -4.429
INTER:                  -4.429
INTRA:                   0.000
UNBOUND:                 0.000

$$$$

     RDKit          3D

 27 29  0  0  0  0  0  0  0  0999 V2000
   43.9322    6.9758   11.5623 C   0  0  0  0  0  0  0  0  0  0  0  0
   44.5724    8.3056   11.6559 C   0  0  0  0  0  0  0  0  0  0  0  0
   44.6119    5.7833   12.1128 C   0  0  0  0  0  0  0  0  0  0  0  0
   45.8261    8.4302   12.2688 C   0  0  0  0  0  0  0  0  0  0  0  0
   45.8655    5.9195   12.7236 C   0  0  0  0  0  0  0  0  0  0  0  0
   46.5597    7.2492   12.8446 C   0  0  0  0  0  0  0  0  0  0  0  0
   42.8302    6.8611   11.0244 O   0  0  0  0  0  0  0  0  0  0  0  0
   43.9326    9.4413   11.1354 C   0  0  0  0  0  0  0  0  0  0  0  0
   44.0097    4.5183   12.0271 C   0  0  0  0  0  0  0  0  0  0  0  0
   46.4210    9.7019   12.3497 C   0  0  0  0  0  0  0  0  0  0  0  0
   46.4982    4.7756   13.2419 C   0  0  0  0  0  0  0  0  0  0  0  0
   42.7083    9.3985   10.5233 O   0  0  0  0  0  0  0  0  0  0  0  0
   42.7881    4.3066   11.4455 O   0  0  0  0  0  0  0  0  0  0  0  0
   45.7773   10.8256   11.8293 C   0  0  0  0  0  0  0  0  0  0  0  0
   45.8917    3.5219   13.1522 C   0  0  0  0  0  0  0  0  0  0  0  0
   44.5317   10.6946   11.2215 C   0  0  0  0  0  0  0  0  0  0  0  0
   44.6459    3.3935   12.5439 C   0  0  0  0  0  0  0  0  0  0  0  0
   47.5313    7.1729   12.3398 H   0  0  0  0  0  0  0  0  0  0  0  0
   46.7366    7.4449   13.9101 H   0  0  0  0  0  0  0  0  0  0  0  0
   47.3949    9.8239   12.8214 H   0  0  0  0  0  0  0  0  0  0  0  0
   47.4726    4.8562   13.7212 H   0  0  0  0  0  0  0  0  0  0  0  0
   42.4025    8.4645   10.5302 H   0  0  0  0  0  0  0  0  0  0  0  0
   42.4540    5.1740   11.1262 H   0  0  0  0  0  0  0  0  0  0  0  0
   46.2463   11.8043   11.8971 H   0  0  0  0  0  0  0  0  0  0  0  0
   46.3897    2.6437   13.5563 H   0  0  0  0  0  0  0  0  0  0  0  0
   44.0256   11.5661   10.8144 H   0  0  0  0  0  0  0  0  0  0  0  0
   44.1687    2.4198   12.4711 H   0  0  0  0  0  0  0  0  0  0  0  0
  2  1  1  0
  3  1  1  0
  4  2  2  0
  5  3  2  0
  6  5  1  0
  7  1  2  0
  8  2  1  0
  9  3  1  0
 10  4  1  0
 11  5  1  0
 12  8  1  0
 13  9  1  0
 14 16  1  0
 15 17  1  0
 16  8  2  0
 17  9  2  0
  4  6  1  0
 11 15  2  0
 10 14  2  0
  6 18  1  0
  6 19  1  0
 10 20  1  0
 11 21  1  0
 12 22  1  0
 13 23  1  0
 14 24  1  0
 15 25  1  0
 16 26  1  0
 17 27  1  0
M  END
> <Uni-Dock RESULT> 
ENERGY=   -4.424  LOWER_BOUND=    4.356  UPPER_BOUND=    6.487
INTER + INTRA:          -4.424
INTER:                  -4.424
INTRA:                   0.000
UNBOUND:                 0.000

$$$$
