
     RDKit          3D

 27 29  0  0  0  0  0  0  0  0999 V2000
   44.9894    2.2493    9.3841 C   0  0  0  0  0  0  0  0  0  0  0  0
   45.9303    2.4308    8.2576 C   0  0  0  0  0  0  0  0  0  0  0  0
   44.4334    3.4268   10.0852 C   0  0  0  0  0  0  0  0  0  0  0  0
   46.2925    3.7239    7.8579 C   0  0  0  0  0  0  0  0  0  0  0  0
   44.8024    4.7153    9.6770 C   0  0  0  0  0  0  0  0  0  0  0  0
   45.7557    4.9546    8.5373 C   0  0  0  0  0  0  0  0  0  0  0  0
   44.6680    1.1147    9.7392 O   0  0  0  0  0  0  0  0  0  0  0  0
   46.4616    1.3174    7.5882 C   0  0  0  0  0  0  0  0  0  0  0  0
   43.5399    3.2614   11.1550 C   0  0  0  0  0  0  0  0  0  0  0  0
   47.1883    3.8791    6.7849 C   0  0  0  0  0  0  0  0  0  0  0  0
   44.2647    5.8243   10.3542 C   0  0  0  0  0  0  0  0  0  0  0  0
   46.1551    0.0250    7.9210 O   0  0  0  0  0  0  0  0  0  0  0  0
   43.1331    2.0355   11.6102 O   0  0  0  0  0  0  0  0  0  0  0  0
   47.7114    2.7661    6.1252 C   0  0  0  0  0  0  0  0  0  0  0  0
   43.3769    5.6499   11.4168 C   0  0  0  0  0  0  0  0  0  0  0  0
   47.3473    1.4839    6.5276 C   0  0  0  0  0  0  0  0  0  0  0  0
   43.0143    4.3668   11.8173 C   0  0  0  0  0  0  0  0  0  0  0  0
   45.2386    5.5616    7.7830 H   0  0  0  0  0  0  0  0  0  0  0  0
   46.6077    5.5302    8.9216 H   0  0  0  0  0  0  0  0  0  0  0  0
   47.4846    4.8738    6.4560 H   0  0  0  0  0  0  0  0  0  0  0  0
   44.5364    6.8354   10.0553 H   0  0  0  0  0  0  0  0  0  0  0  0
   45.5272    0.0511    8.6768 H   0  0  0  0  0  0  0  0  0  0  0  0
   43.5744    1.3504   11.0608 H   0  0  0  0  0  0  0  0  0  0  0  0
   48.4034    2.8972    5.2967 H   0  0  0  0  0  0  0  0  0  0  0  0
   42.9669    6.5143   11.9338 H   0  0  0  0  0  0  0  0  0  0  0  0
   47.7515    0.6134    6.0176 H   0  0  0  0  0  0  0  0  0  0  0  0
   42.3234    4.2249   12.6443 H   0  0  0  0  0  0  0  0  0  0  0  0
  2  1  1  0
  3  1  1  0
  4  2  2  0
  5  3  2  0
  6  5  1  0
  7  1  2  0
  8  2  1  0
  9  3  1  0
 10  4  1  0
 11  5  1  0
 12  8  1  0
 13  9  1  0
 14 16  1  0
 15 17  1  0
 16  8  2  0
 17  9  2  0
  4  6  1  0
 11 15  2  0
 10 14  2  0
  6 18  1  0
  6 19  1  0
 10 20  1  0
 11 21  1  0
 12 22  1  0
 13 23  1  0
 14 24  1  0
 15 25  1  0
 16 26  1  0
 17 27  1  0
M  END
> <Uni-Dock RESULT> 
ENERGY=   -6.281  LOWER_BOUND=    0.000  UPPER_BOUND=    0.000
INTER + INTRA:          -6.281
INTER:                  -6.281
INTRA:                   0.000
UNBOUND:                 0.000

$$$$

     RDKit          3D

 27 29  0  0  0  0  0  0  0  0999 V2000
   45.5634    4.5633    8.9777 C   0  0  0  0  0  0  0  0  0  0  0  0
   44.6611    4.4606   10.1449 C   0  0  0  0  0  0  0  0  0  0  0  0
   46.0058    3.3421    8.2704 C   0  0  0  0  0  0  0  0  0  0  0  0
   44.2273    3.2004   10.5775 C   0  0  0  0  0  0  0  0  0  0  0  0
   45.5658    2.0872    8.7116 C   0  0  0  0  0  0  0  0  0  0  0  0
   44.6478    1.9278    9.8934 C   0  0  0  0  0  0  0  0  0  0  0  0
   45.9474    5.6686    8.5936 O   0  0  0  0  0  0  0  0  0  0  0  0
   44.2377    5.6157   10.8204 C   0  0  0  0  0  0  0  0  0  0  0  0
   46.8621    3.4328    7.1619 C   0  0  0  0  0  0  0  0  0  0  0  0
   43.3695    3.1202   11.6889 C   0  0  0  0  0  0  0  0  0  0  0  0
   45.9957    0.9359    8.0280 C   0  0  0  0  0  0  0  0  0  0  0  0
   44.6187    6.8798   10.4570 O   0  0  0  0  0  0  0  0  0  0  0  0
   47.3332    4.6220    6.6730 O   0  0  0  0  0  0  0  0  0  0  0  0
   42.9537    4.2743   12.3545 C   0  0  0  0  0  0  0  0  0  0  0  0
   46.8472    1.0359    6.9268 C   0  0  0  0  0  0  0  0  0  0  0  0
   43.3885    5.5233   11.9193 C   0  0  0  0  0  0  0  0  0  0  0  0
   47.2806    2.2860    6.4936 C   0  0  0  0  0  0  0  0  0  0  0  0
   43.7422    1.4091    9.5531 H   0  0  0  0  0  0  0  0  0  0  0  0
   45.1531    1.2943   10.6338 H   0  0  0  0  0  0  0  0  0  0  0  0
   43.0190    2.1524   12.0438 H   0  0  0  0  0  0  0  0  0  0  0  0
   45.6673   -0.0503    8.3521 H   0  0  0  0  0  0  0  0  0  0  0  0
   45.2105    6.8014    9.6761 H   0  0  0  0  0  0  0  0  0  0  0  0
   46.9646    5.3424    7.2308 H   0  0  0  0  0  0  0  0  0  0  0  0
   42.2902    4.2011   13.2128 H   0  0  0  0  0  0  0  0  0  0  0  0
   47.1737    0.1393    6.4053 H   0  0  0  0  0  0  0  0  0  0  0  0
   43.0680    6.4256   12.4336 H   0  0  0  0  0  0  0  0  0  0  0  0
   47.9438    2.3700    5.6366 H   0  0  0  0  0  0  0  0  0  0  0  0
  2  1  1  0
  3  1  1  0
  4  2  2  0
  5  3  2  0
  6  5  1  0
  7  1  2  0
  8  2  1  0
  9  3  1  0
 10  4  1  0
 11  5  1  0
 12  8  1  0
 13  9  1  0
 14 16  1  0
 15 17  1  0
 16  8  2  0
 17  9  2  0
  4  6  1  0
 11 15  2  0
 10 14  2  0
  6 18  1  0
  6 19  1  0
 10 20  1  0
 11 21  1  0
 12 22  1  0
 13 23  1  0
 14 24  1  0
 15 25  1  0
 16 26  1  0
 17 27  1  0
M  END
> <Uni-Dock RESULT> 
ENERGY=   -4.685  LOWER_BOUND=    2.176  UPPER_BOUND=    5.653
INTER + INTRA:          -4.685
INTER:                  -4.685
INTRA:                   0.000
UNBOUND:                 0.000

$$$$

     RDKit          3D

 27 29  0  0  0  0  0  0  0  0999 V2000
   45.5634    4.5632    8.9776 C   0  0  0  0  0  0  0  0  0  0  0  0
   46.0058    3.3421    8.2704 C   0  0  0  0  0  0  0  0  0  0  0  0
   44.6611    4.4605   10.1449 C   0  0  0  0  0  0  0  0  0  0  0  0
   45.5657    2.0871    8.7116 C   0  0  0  0  0  0  0  0  0  0  0  0
   44.2272    3.2005   10.5775 C   0  0  0  0  0  0  0  0  0  0  0  0
   44.6477    1.9277    9.8933 C   0  0  0  0  0  0  0  0  0  0  0  0
   45.9475    5.6686    8.5936 O   0  0  0  0  0  0  0  0  0  0  0  0
   46.8620    3.4328    7.1620 C   0  0  0  0  0  0  0  0  0  0  0  0
   44.2376    5.6157   10.8205 C   0  0  0  0  0  0  0  0  0  0  0  0
   45.9957    0.9359    8.0281 C   0  0  0  0  0  0  0  0  0  0  0  0
   43.3695    3.1203   11.6889 C   0  0  0  0  0  0  0  0  0  0  0  0
   47.3333    4.6219    6.6731 O   0  0  0  0  0  0  0  0  0  0  0  0
   44.6188    6.8798   10.4570 O   0  0  0  0  0  0  0  0  0  0  0  0
   46.8472    1.0358    6.9268 C   0  0  0  0  0  0  0  0  0  0  0  0
   42.9537    4.2744   12.3544 C   0  0  0  0  0  0  0  0  0  0  0  0
   47.2807    2.2860    6.4937 C   0  0  0  0  0  0  0  0  0  0  0  0
   43.3885    5.5234   11.9193 C   0  0  0  0  0  0  0  0  0  0  0  0
   45.1530    1.2944   10.6338 H   0  0  0  0  0  0  0  0  0  0  0  0
   43.7421    1.4091    9.5531 H   0  0  0  0  0  0  0  0  0  0  0  0
   45.6673   -0.0503    8.3521 H   0  0  0  0  0  0  0  0  0  0  0  0
   43.0189    2.1524   12.0438 H   0  0  0  0  0  0  0  0  0  0  0  0
   46.9646    5.3424    7.2309 H   0  0  0  0  0  0  0  0  0  0  0  0
   45.2105    6.8014    9.6761 H   0  0  0  0  0  0  0  0  0  0  0  0
   47.1738    0.1392    6.4054 H   0  0  0  0  0  0  0  0  0  0  0  0
   42.2902    4.2012   13.2128 H   0  0  0  0  0  0  0  0  0  0  0  0
   47.9439    2.3700    5.6367 H   0  0  0  0  0  0  0  0  0  0  0  0
   43.0680    6.4256   12.4336 H   0  0  0  0  0  0  0  0  0  0  0  0
  2  1  1  0
  3  1  1  0
  4  2  2  0
  5  3  2  0
  6  5  1  0
  7  1  2  0
  8  2  1  0
  9  3  1  0
 10  4  1  0
 11  5  1  0
 12  8  1  0
 13  9  1  0
 14 16  1  0
 15 17  1  0
 16  8  2  0
 17  9  2  0
  4  6  1  0
 11 15  2  0
 10 14  2  0
  6 18  1  0
  6 19  1  0
 10 20  1  0
 11 21  1  0
 12 22  1  0
 13 23  1  0
 14 24  1  0
 15 25  1  0
 16 26  1  0
 17 27  1  0
M  END
> <Uni-Dock RESULT> 
ENERGY=   -4.685  LOWER_BOUND=    2.176  UPPER_BOUND=    2.912
INTER + INTRA:          -4.685
INTER:                  -4.685
INTRA:                   0.000
UNBOUND:                 0.000

$$$$

     RDKit          3D

 27 29  0  0  0  0  0  0  0  0999 V2000
   45.1149    7.1333   12.3521 C   0  0  0  0  0  0  0  0  0  0  0  0
   44.7183    5.7121   12.2510 C   0  0  0  0  0  0  0  0  0  0  0  0
   46.4021    7.5030   12.9793 C   0  0  0  0  0  0  0  0  0  0  0  0
   45.5682    4.7175   12.7526 C   0  0  0  0  0  0  0  0  0  0  0  0
   47.2443    6.5002   13.4776 C   0  0  0  0  0  0  0  0  0  0  0  0
   46.8879    5.0401   13.3997 C   0  0  0  0  0  0  0  0  0  0  0  0
   44.3712    8.0112   11.9127 O   0  0  0  0  0  0  0  0  0  0  0  0
   43.4980    5.3547   11.6568 C   0  0  0  0  0  0  0  0  0  0  0  0
   46.7843    8.8499   13.0783 C   0  0  0  0  0  0  0  0  0  0  0  0
   45.1763    3.3710   12.6485 C   0  0  0  0  0  0  0  0  0  0  0  0
   48.4647    6.8686   14.0710 C   0  0  0  0  0  0  0  0  0  0  0  0
   42.6164    6.2689   11.1448 O   0  0  0  0  0  0  0  0  0  0  0  0
   46.0154    9.8841   12.6151 O   0  0  0  0  0  0  0  0  0  0  0  0
   43.9609    3.0251   12.0561 C   0  0  0  0  0  0  0  0  0  0  0  0
   48.8363    8.2105   14.1650 C   0  0  0  0  0  0  0  0  0  0  0  0
   43.1211    4.0185   11.5597 C   0  0  0  0  0  0  0  0  0  0  0  0
   47.9948    9.2020   13.6679 C   0  0  0  0  0  0  0  0  0  0  0  0
   47.6778    4.5267   12.8362 H   0  0  0  0  0  0  0  0  0  0  0  0
   46.8733    4.6385   14.4212 H   0  0  0  0  0  0  0  0  0  0  0  0
   45.8198    2.5803   13.0309 H   0  0  0  0  0  0  0  0  0  0  0  0
   49.1359    6.1073   14.4654 H   0  0  0  0  0  0  0  0  0  0  0  0
   43.0017    7.1634   11.2773 H   0  0  0  0  0  0  0  0  0  0  0  0
   45.1982    9.4996   12.2274 H   0  0  0  0  0  0  0  0  0  0  0  0
   43.6674    1.9808   11.9806 H   0  0  0  0  0  0  0  0  0  0  0  0
   49.7824    8.4846   14.6259 H   0  0  0  0  0  0  0  0  0  0  0  0
   42.1734    3.7551   11.0973 H   0  0  0  0  0  0  0  0  0  0  0  0
   48.2790   10.2487   13.7383 H   0  0  0  0  0  0  0  0  0  0  0  0
  2  1  1  0
  3  1  1  0
  4  2  2  0
  5  3  2  0
  6  5  1  0
  7  1  2  0
  8  2  1  0
  9  3  1  0
 10  4  1  0
 11  5  1  0
 12  8  1  0
 13  9  1  0
 14 16  1  0
 15 17  1  0
 16  8  2  0
 17  9  2  0
  4  6  1  0
 11 15  2  0
 10 14  2  0
  6 18  1  0
  6 19  1  0
 10 20  1  0
 11 21  1  0
 12 22  1  0
 13 23  1  0
 14 24  1  0
 15 25  1  0
 16 26  1  0
 17 27  1  0
M  END
> <Uni-Dock RESULT> 
ENERGY=   -4.606  LOWER_BOUND=    4.567  UPPER_BOUND=    6.425
INTER + INTRA:          -4.606
INTER:                  -4.606
INTRA:                   0.000
UNBOUND:                 0.000

$$$$

     RDKit          3D

 27 29  0  0  0  0  0  0  0  0999 V2000
   45.1149    7.1331   12.3520 C   0  0  0  0  0  0  0  0  0  0  0  0
   46.4020    7.5029   12.9794 C   0  0  0  0  0  0  0  0  0  0  0  0
   44.7183    5.7120   12.2509 C   0  0  0  0  0  0  0  0  0  0  0  0
   47.2442    6.5000   13.4776 C   0  0  0  0  0  0  0  0  0  0  0  0
   45.5682    4.7173   12.7524 C   0  0  0  0  0  0  0  0  0  0  0  0
   46.8880    5.0400   13.3997 C   0  0  0  0  0  0  0  0  0  0  0  0
   44.3712    8.0110   11.9125 O   0  0  0  0  0  0  0  0  0  0  0  0
   46.7841    8.8498   13.0784 C   0  0  0  0  0  0  0  0  0  0  0  0
   43.4980    5.3544   11.6566 C   0  0  0  0  0  0  0  0  0  0  0  0
   48.4645    6.8685   14.0713 C   0  0  0  0  0  0  0  0  0  0  0  0
   45.1763    3.3708   12.6485 C   0  0  0  0  0  0  0  0  0  0  0  0
   46.0153    9.8839   12.6152 O   0  0  0  0  0  0  0  0  0  0  0  0
   42.6164    6.2687   11.1446 O   0  0  0  0  0  0  0  0  0  0  0  0
   48.8362    8.2104   14.1653 C   0  0  0  0  0  0  0  0  0  0  0  0
   43.9610    3.0249   12.0559 C   0  0  0  0  0  0  0  0  0  0  0  0
   47.9946    9.2019   13.6681 C   0  0  0  0  0  0  0  0  0  0  0  0
   43.1212    4.0182   11.5595 C   0  0  0  0  0  0  0  0  0  0  0  0
   46.8731    4.6384   14.4212 H   0  0  0  0  0  0  0  0  0  0  0  0
   47.6778    4.5266   12.8363 H   0  0  0  0  0  0  0  0  0  0  0  0
   49.1357    6.1072   14.4657 H   0  0  0  0  0  0  0  0  0  0  0  0
   45.8198    2.5801   13.0309 H   0  0  0  0  0  0  0  0  0  0  0  0
   45.1980    9.4994   12.2274 H   0  0  0  0  0  0  0  0  0  0  0  0
   43.0017    7.1632   11.2771 H   0  0  0  0  0  0  0  0  0  0  0  0
   49.7821    8.4845   14.6263 H   0  0  0  0  0  0  0  0  0  0  0  0
   43.6675    1.9805   11.9805 H   0  0  0  0  0  0  0  0  0  0  0  0
   48.2787   10.2487   13.7385 H   0  0  0  0  0  0  0  0  0  0  0  0
   42.1736    3.7547   11.0970 H   0  0  0  0  0  0  0  0  0  0  0  0
  2  1  1  0
  3  1  1  0
  4  2  2  0
  5  3  2  0
  6  5  1  0
  7  1  2  0
  8  2  1  0
  9  3  1  0
 10  4  1  0
 11  5  1  0
 12  8  1  0
 13  9  1  0
 14 16  1  0
 15 17  1  0
 16  8  2  0
 17  9  2  0
  4  6  1  0
 11 15  2  0
 10 14  2  0
  6 18  1  0
  6 19  1  0
 10 20  1  0
 11 21  1  0
 12 22  1  0
 13 23  1  0
 14 24  1  0
 15 25  1  0
 16 26  1  0
 17 27  1  0
M  END
> <Uni-Dock RESULT> 
ENERGY=   -4.605  LOWER_BOUND=    4.567  UPPER_BOUND=    6.588
INTER + INTRA:          -4.605
INTER:                  -4.605
INTRA:                   0.000
UNBOUND:                 0.000

$$$$

     RDKit          3D

 27 29  0  0  0  0  0  0  0  0999 V2000
   46.8028    5.7949   12.9987 C   0  0  0  0  0  0  0  0  0  0  0  0
   47.1044    7.2414   12.9377 C   0  0  0  0  0  0  0  0  0  0  0  0
   45.4910    5.2890   12.5401 C   0  0  0  0  0  0  0  0  0  0  0  0
   46.1409    8.1305   12.4434 C   0  0  0  0  0  0  0  0  0  0  0  0
   44.5349    6.1871   12.0475 C   0  0  0  0  0  0  0  0  0  0  0  0
   44.7915    7.6677   11.9644 C   0  0  0  0  0  0  0  0  0  0  0  0
   47.6464    5.0094   13.4325 O   0  0  0  0  0  0  0  0  0  0  0  0
   48.3474    7.7278   13.3715 C   0  0  0  0  0  0  0  0  0  0  0  0
   45.1986    3.9173   12.5952 C   0  0  0  0  0  0  0  0  0  0  0  0
   46.4435    9.5029   12.3921 C   0  0  0  0  0  0  0  0  0  0  0  0
   43.2926    5.6898   11.6154 C   0  0  0  0  0  0  0  0  0  0  0  0
   49.3376    6.9216   13.8661 O   0  0  0  0  0  0  0  0  0  0  0  0
   46.0808    2.9803   13.0633 O   0  0  0  0  0  0  0  0  0  0  0  0
   47.6823    9.9774   12.8256 C   0  0  0  0  0  0  0  0  0  0  0  0
   43.0108    4.3242   11.6741 C   0  0  0  0  0  0  0  0  0  0  0  0
   48.6351    9.0883   13.3158 C   0  0  0  0  0  0  0  0  0  0  0  0
   43.9653    3.4373   12.1646 C   0  0  0  0  0  0  0  0  0  0  0  0
   44.6787    7.9742   10.9165 H   0  0  0  0  0  0  0  0  0  0  0  0
   44.0248    8.1797   12.5603 H   0  0  0  0  0  0  0  0  0  0  0  0
   45.7111   10.2132   12.0119 H   0  0  0  0  0  0  0  0  0  0  0  0
   42.5336    6.3681   11.2287 H   0  0  0  0  0  0  0  0  0  0  0  0
   49.0065    5.9962   13.8501 H   0  0  0  0  0  0  0  0  0  0  0  0
   46.9019    3.4493   13.3313 H   0  0  0  0  0  0  0  0  0  0  0  0
   47.9061   11.0406   12.7816 H   0  0  0  0  0  0  0  0  0  0  0  0
   42.0469    3.9501   11.3374 H   0  0  0  0  0  0  0  0  0  0  0  0
   49.6016    9.4521   13.6548 H   0  0  0  0  0  0  0  0  0  0  0  0
   43.7515    2.3727   12.2127 H   0  0  0  0  0  0  0  0  0  0  0  0
  2  1  1  0
  3  1  1  0
  4  2  2  0
  5  3  2  0
  6  5  1  0
  7  1  2  0
  8  2  1  0
  9  3  1  0
 10  4  1  0
 11  5  1  0
 12  8  1  0
 13  9  1  0
 14 16  1  0
 15 17  1  0
 16  8  2  0
 17  9  2  0
  4  6  1  0
 11 15  2  0
 10 14  2  0
  6 18  1  0
  6 19  1  0
 10 20  1  0
 11 21  1  0
 12 22  1  0
 13 23  1  0
 14 24  1  0
 15 25  1  0
 16 26  1  0
 17 27  1  0
M  END
> <Uni-Dock RESULT> 
ENERGY=   -4.436  LOWER_BOUND=    4.298  UPPER_BOUND=    6.196
INTER + INTRA:          -4.436
INTER:                  -4.436
INTRA:                   0.000
UNBOUND:                 0.000

$$$$

     RDKit          3D

 27 29  0  0  0  0  0  0  0  0999 V2000
   46.8037    5.7942   12.9990 C   0  0  0  0  0  0  0  0  0  0  0  0
   45.4915    5.2893   12.5405 C   0  0  0  0  0  0  0  0  0  0  0  0
   47.1060    7.2406   12.9387 C   0  0  0  0  0  0  0  0  0  0  0  0
   44.5359    6.1881   12.0485 C   0  0  0  0  0  0  0  0  0  0  0  0
   46.1430    8.1305   12.4449 C   0  0  0  0  0  0  0  0  0  0  0  0
   44.7931    7.6685   11.9660 C   0  0  0  0  0  0  0  0  0  0  0  0
   47.6470    5.0081   13.4323 O   0  0  0  0  0  0  0  0  0  0  0  0
   45.1985    3.9178   12.5951 C   0  0  0  0  0  0  0  0  0  0  0  0
   48.3495    7.7262   13.3724 C   0  0  0  0  0  0  0  0  0  0  0  0
   43.2931    5.6917   11.6165 C   0  0  0  0  0  0  0  0  0  0  0  0
   46.4462    9.5027   12.3943 C   0  0  0  0  0  0  0  0  0  0  0  0
   46.0801    2.9800   13.0626 O   0  0  0  0  0  0  0  0  0  0  0  0
   49.3393    6.9191   13.8665 O   0  0  0  0  0  0  0  0  0  0  0  0
   43.0106    4.3262   11.6746 C   0  0  0  0  0  0  0  0  0  0  0  0
   47.6854    9.9763   12.8277 C   0  0  0  0  0  0  0  0  0  0  0  0
   43.9648    3.4386   12.1646 C   0  0  0  0  0  0  0  0  0  0  0  0
   48.6378    9.0866   13.3173 C   0  0  0  0  0  0  0  0  0  0  0  0
   44.0270    8.1808   12.5623 H   0  0  0  0  0  0  0  0  0  0  0  0
   44.6804    7.9757   10.9182 H   0  0  0  0  0  0  0  0  0  0  0  0
   42.5344    6.3706   11.2303 H   0  0  0  0  0  0  0  0  0  0  0  0
   45.7141   10.2136   12.0146 H   0  0  0  0  0  0  0  0  0  0  0  0
   46.9016    3.4485   13.3306 H   0  0  0  0  0  0  0  0  0  0  0  0
   49.0077    5.9940   13.8501 H   0  0  0  0  0  0  0  0  0  0  0  0
   42.0464    3.9529   11.3380 H   0  0  0  0  0  0  0  0  0  0  0  0
   47.9098   11.0394   12.7842 H   0  0  0  0  0  0  0  0  0  0  0  0
   43.7504    2.3741   12.2122 H   0  0  0  0  0  0  0  0  0  0  0  0
   49.6046    9.4497   13.6562 H   0  0  0  0  0  0  0  0  0  0  0  0
  2  1  1  0
  3  1  1  0
  4  2  2  0
  5  3  2  0
  6  5  1  0
  7  1  2  0
  8  2  1  0
  9  3  1  0
 10  4  1  0
 11  5  1  0
 12  8  1  0
 13  9  1  0
 14 16  1  0
 15 17  1  0
 16  8  2  0
 17  9  2  0
  4  6  1  0
 11 15  2  0
 10 14  2  0
  6 18  1  0
  6 19  1  0
 10 20  1  0
 11 21  1  0
 12 22  1  0
 13 23  1  0
 14 24  1  0
 15 25  1  0
 16 26  1  0
 17 27  1  0
M  END
> <Uni-Dock RESULT> 
ENERGY=   -4.433  LOWER_BOUND=    4.298  UPPER_BOUND=    6.122
INTER + INTRA:          -4.433
INTER:                  -4.433
INTRA:                   0.000
UNBOUND:                 0.000

$$$$

     RDKit          3D

 27 29  0  0  0  0  0  0  0  0999 V2000
   43.9217    6.9955   11.5599 C   0  0  0  0  0  0  0  0  0  0  0  0
   44.5654    8.3238   11.6504 C   0  0  0  0  0  0  0  0  0  0  0  0
   44.5988    5.8022   12.1119 C   0  0  0  0  0  0  0  0  0  0  0  0
   45.8202    8.4463   12.2617 C   0  0  0  0  0  0  0  0  0  0  0  0
   45.8533    5.9362   12.7211 C   0  0  0  0  0  0  0  0  0  0  0  0
   46.5512    7.2644   12.8389 C   0  0  0  0  0  0  0  0  0  0  0  0
   42.8188    6.8827   11.0234 O   0  0  0  0  0  0  0  0  0  0  0  0
   43.9280    9.4602   11.1284 C   0  0  0  0  0  0  0  0  0  0  0  0
   43.9931    4.5386   12.0292 C   0  0  0  0  0  0  0  0  0  0  0  0
   46.4185    9.7165   12.3396 C   0  0  0  0  0  0  0  0  0  0  0  0
   46.4836    4.7917   13.2409 C   0  0  0  0  0  0  0  0  0  0  0  0
   42.7031    9.4195   10.5177 O   0  0  0  0  0  0  0  0  0  0  0  0
   42.7704    4.3291   11.4493 O   0  0  0  0  0  0  0  0  0  0  0  0
   45.7772   10.8409   11.8178 C   0  0  0  0  0  0  0  0  0  0  0  0
   45.8737    3.5394   13.1541 C   0  0  0  0  0  0  0  0  0  0  0  0
   44.5304   10.7120   11.2116 C   0  0  0  0  0  0  0  0  0  0  0  0
   44.6270    3.4132   12.5474 C   0  0  0  0  0  0  0  0  0  0  0  0
   46.7297    7.4616   13.9039 H   0  0  0  0  0  0  0  0  0  0  0  0
   47.5221    7.1846   12.3331 H   0  0  0  0  0  0  0  0  0  0  0  0
   47.3930    9.8369   12.8100 H   0  0  0  0  0  0  0  0  0  0  0  0
   47.4588    4.8706   13.7189 H   0  0  0  0  0  0  0  0  0  0  0  0
   42.3947    8.4862   10.5267 H   0  0  0  0  0  0  0  0  0  0  0  0
   42.4382    5.1968   11.1287 H   0  0  0  0  0  0  0  0  0  0  0  0
   46.2487   11.8185   11.8833 H   0  0  0  0  0  0  0  0  0  0  0  0
   46.3698    2.6606   13.5593 H   0  0  0  0  0  0  0  0  0  0  0  0
   44.0262   11.5841   10.8034 H   0  0  0  0  0  0  0  0  0  0  0  0
   44.1472    2.4405   12.4769 H   0  0  0  0  0  0  0  0  0  0  0  0
  2  1  1  0
  3  1  1  0
  4  2  2  0
  5  3  2  0
  6  5  1  0
  7  1  2  0
  8  2  1  0
  9  3  1  0
 10  4  1  0
 11  5  1  0
 12  8  1  0
 13  9  1  0
 14 16  1  0
 15 17  1  0
 16  8  2  0
 17  9  2  0
  4  6  1  0
 11 15  2  0
 10 14  2  0
  6 18  1  0
  6 19  1  0
 10 20  1  0
 11 21  1  0
 12 22  1  0
 13 23  1  0
 14 24  1  0
 15 25  1  0
 16 26  1  0
 17 27  1  0
M  END
> <Uni-Dock RESULT> 
ENERGY=   -4.425  LOWER_BOUND=    4.369  UPPER_BOUND=    6.495
INTER + INTRA:          -4.425
INTER:                  -4.425
INTRA:                   0.000
UNBOUND:                 0.000

$$$$

     RDKit          3D

 27 29  0  0  0  0  0  0  0  0999 V2000
   43.9213    6.9987   11.5590 C   0  0  0  0  0  0  0  0  0  0  0  0
   44.6058    5.8120   12.1159 C   0  0  0  0  0  0  0  0  0  0  0  0
   44.5560    8.3317   11.6454 C   0  0  0  0  0  0  0  0  0  0  0  0
   45.8588    5.9567   12.7262 C   0  0  0  0  0  0  0  0  0  0  0  0
   45.8092    8.4649   12.2578 C   0  0  0  0  0  0  0  0  0  0  0  0
   46.5475    7.2898   12.8401 C   0  0  0  0  0  0  0  0  0  0  0  0
   42.8199    6.8766   11.0216 O   0  0  0  0  0  0  0  0  0  0  0  0
   44.0088    4.5442   12.0371 C   0  0  0  0  0  0  0  0  0  0  0  0
   43.9116    9.4620   11.1187 C   0  0  0  0  0  0  0  0  0  0  0  0
   46.4962    4.8183   13.2507 C   0  0  0  0  0  0  0  0  0  0  0  0
   46.3989    9.7393   12.3318 C   0  0  0  0  0  0  0  0  0  0  0  0
   42.7882    4.3243   11.4566 O   0  0  0  0  0  0  0  0  0  0  0  0
   42.6876    9.4107   10.5067 O   0  0  0  0  0  0  0  0  0  0  0  0
   45.8949    3.5616   13.1677 C   0  0  0  0  0  0  0  0  0  0  0  0
   45.7506   10.8574   11.8052 C   0  0  0  0  0  0  0  0  0  0  0  0
   44.6497    3.4249   12.5600 C   0  0  0  0  0  0  0  0  0  0  0  0
   44.5055   10.7181   11.1980 C   0  0  0  0  0  0  0  0  0  0  0  0
   47.5195    7.2149   12.3356 H   0  0  0  0  0  0  0  0  0  0  0  0
   46.7235    7.4921   13.9045 H   0  0  0  0  0  0  0  0  0  0  0  0
   47.4702    4.9055   13.7295 H   0  0  0  0  0  0  0  0  0  0  0  0
   47.3721    9.8679   12.8029 H   0  0  0  0  0  0  0  0  0  0  0  0
   42.4505    5.1886   11.1325 H   0  0  0  0  0  0  0  0  0  0  0  0
   42.3855    8.4756   10.5187 H   0  0  0  0  0  0  0  0  0  0  0  0
   46.3964    2.6877   13.5765 H   0  0  0  0  0  0  0  0  0  0  0  0
   46.2155   11.8385   11.8678 H   0  0  0  0  0  0  0  0  0  0  0  0
   44.1764    2.4487   12.4924 H   0  0  0  0  0  0  0  0  0  0  0  0
   43.9959   11.5853   10.7863 H   0  0  0  0  0  0  0  0  0  0  0  0
  2  1  1  0
  3  1  1  0
  4  2  2  0
  5  3  2  0
  6  5  1  0
  7  1  2  0
  8  2  1  0
  9  3  1  0
 10  4  1  0
 11  5  1  0
 12  8  1  0
 13  9  1  0
 14 16  1  0
 15 17  1  0
 16  8  2  0
 17  9  2  0
  4  6  1  0
 11 15  2  0
 10 14  2  0
  6 18  1  0
  6 19  1  0
 10 20  1  0
 11 21  1  0
 12 22  1  0
 13 23  1  0
 14 24  1  0
 15 25  1  0
 16 26  1  0
 17 27  1  0
M  END
> <Uni-Dock RESULT> 
ENERGY=   -4.425  LOWER_BOUND=    4.371  UPPER_BOUND=    6.006
INTER + INTRA:          -4.425
INTER:                  -4.425
INTRA:                   0.000
UNBOUND:                 0.000

$$$$
