
     RDKit          3D

 27 29  0  0  0  0  0  0  0  0999 V2000
   44.9894    2.2493    9.3841 C   0  0  0  0  0  0  0  0  0  0  0  0
   45.9303    2.4308    8.2577 C   0  0  0  0  0  0  0  0  0  0  0  0
   44.4334    3.4268   10.0853 C   0  0  0  0  0  0  0  0  0  0  0  0
   46.2925    3.7240    7.8579 C   0  0  0  0  0  0  0  0  0  0  0  0
   44.8024    4.7153    9.6770 C   0  0  0  0  0  0  0  0  0  0  0  0
   45.7556    4.9548    8.5375 C   0  0  0  0  0  0  0  0  0  0  0  0
   44.6681    1.1147    9.7392 O   0  0  0  0  0  0  0  0  0  0  0  0
   46.4616    1.3175    7.5881 C   0  0  0  0  0  0  0  0  0  0  0  0
   43.5399    3.2613   11.1550 C   0  0  0  0  0  0  0  0  0  0  0  0
   47.1883    3.8791    6.7851 C   0  0  0  0  0  0  0  0  0  0  0  0
   44.2646    5.8241   10.3543 C   0  0  0  0  0  0  0  0  0  0  0  0
   46.1551    0.0250    7.9210 O   0  0  0  0  0  0  0  0  0  0  0  0
   43.1332    2.0355   11.6103 O   0  0  0  0  0  0  0  0  0  0  0  0
   47.7114    2.7661    6.1253 C   0  0  0  0  0  0  0  0  0  0  0  0
   43.3769    5.6499   11.4170 C   0  0  0  0  0  0  0  0  0  0  0  0
   47.3474    1.4840    6.5277 C   0  0  0  0  0  0  0  0  0  0  0  0
   43.0144    4.3667   11.8174 C   0  0  0  0  0  0  0  0  0  0  0  0
   45.2385    5.5617    7.7831 H   0  0  0  0  0  0  0  0  0  0  0  0
   46.6077    5.5302    8.9217 H   0  0  0  0  0  0  0  0  0  0  0  0
   47.4846    4.8739    6.4562 H   0  0  0  0  0  0  0  0  0  0  0  0
   44.5364    6.8353   10.0553 H   0  0  0  0  0  0  0  0  0  0  0  0
   45.5272    0.0511    8.6768 H   0  0  0  0  0  0  0  0  0  0  0  0
   43.5744    1.3503   11.0608 H   0  0  0  0  0  0  0  0  0  0  0  0
   48.4035    2.8973    5.2968 H   0  0  0  0  0  0  0  0  0  0  0  0
   42.9669    6.5142   11.9339 H   0  0  0  0  0  0  0  0  0  0  0  0
   47.7516    0.6135    6.0176 H   0  0  0  0  0  0  0  0  0  0  0  0
   42.3234    4.2248   12.6444 H   0  0  0  0  0  0  0  0  0  0  0  0
  2  1  1  0
  3  1  1  0
  4  2  2  0
  5  3  2  0
  6  5  1  0
  7  1  2  0
  8  2  1  0
  9  3  1  0
 10  4  1  0
 11  5  1  0
 12  8  1  0
 13  9  1  0
 14 16  1  0
 15 17  1  0
 16  8  2  0
 17  9  2  0
  4  6  1  0
 11 15  2  0
 10 14  2  0
  6 18  1  0
  6 19  1  0
 10 20  1  0
 11 21  1  0
 12 22  1  0
 13 23  1  0
 14 24  1  0
 15 25  1  0
 16 26  1  0
 17 27  1  0
M  END
> <Uni-Dock RESULT> 
ENERGY=   -6.280  LOWER_BOUND=    0.000  UPPER_BOUND=    0.000
INTER + INTRA:          -6.280
INTER:                  -6.280
INTRA:                   0.000
UNBOUND:                 0.000

$$$$

     RDKit          3D

 27 29  0  0  0  0  0  0  0  0999 V2000
   45.1190    7.1362   12.3561 C   0  0  0  0  0  0  0  0  0  0  0  0
   46.4068    7.5037   12.9836 C   0  0  0  0  0  0  0  0  0  0  0  0
   44.7211    5.7155   12.2530 C   0  0  0  0  0  0  0  0  0  0  0  0
   47.2481    6.4993   13.4801 C   0  0  0  0  0  0  0  0  0  0  0  0
   45.5702    4.7194   12.7530 C   0  0  0  0  0  0  0  0  0  0  0  0
   46.8905    5.0397   13.4002 C   0  0  0  0  0  0  0  0  0  0  0  0
   44.3762    8.0154   11.9181 O   0  0  0  0  0  0  0  0  0  0  0  0
   46.7903    8.8501   13.0845 C   0  0  0  0  0  0  0  0  0  0  0  0
   43.5003    5.3601   11.6586 C   0  0  0  0  0  0  0  0  0  0  0  0
   48.4690    6.8658   14.0738 C   0  0  0  0  0  0  0  0  0  0  0  0
   45.1769    3.3735   12.6470 C   0  0  0  0  0  0  0  0  0  0  0  0
   46.0222    9.8858   12.6230 O   0  0  0  0  0  0  0  0  0  0  0  0
   42.6195    6.2759   11.1481 O   0  0  0  0  0  0  0  0  0  0  0  0
   48.8419    8.2073   14.1697 C   0  0  0  0  0  0  0  0  0  0  0  0
   43.9612    3.0295   12.0543 C   0  0  0  0  0  0  0  0  0  0  0  0
   48.0013    9.2003   13.6743 C   0  0  0  0  0  0  0  0  0  0  0  0
   43.1222    4.0243   11.5597 C   0  0  0  0  0  0  0  0  0  0  0  0
   46.8756    4.6367   14.4211 H   0  0  0  0  0  0  0  0  0  0  0  0
   47.6796    4.5265   12.8357 H   0  0  0  0  0  0  0  0  0  0  0  0
   49.1395    6.1033   14.4670 H   0  0  0  0  0  0  0  0  0  0  0  0
   45.8198    2.5816   13.0282 H   0  0  0  0  0  0  0  0  0  0  0  0
   45.2045    9.5025   12.2349 H   0  0  0  0  0  0  0  0  0  0  0  0
   43.0056    7.1698   11.2818 H   0  0  0  0  0  0  0  0  0  0  0  0
   49.7884    8.4798   14.6307 H   0  0  0  0  0  0  0  0  0  0  0  0
   43.6666    1.9856   11.9776 H   0  0  0  0  0  0  0  0  0  0  0  0
   48.2864   10.2467   13.7461 H   0  0  0  0  0  0  0  0  0  0  0  0
   42.1741    3.7625   11.0971 H   0  0  0  0  0  0  0  0  0  0  0  0
  2  1  1  0
  3  1  1  0
  4  2  2  0
  5  3  2  0
  6  5  1  0
  7  1  2  0
  8  2  1  0
  9  3  1  0
 10  4  1  0
 11  5  1  0
 12  8  1  0
 13  9  1  0
 14 16  1  0
 15 17  1  0
 16  8  2  0
 17  9  2  0
  4  6  1  0
 11 15  2  0
 10 14  2  0
  6 18  1  0
  6 19  1  0
 10 20  1  0
 11 21  1  0
 12 22  1  0
 13 23  1  0
 14 24  1  0
 15 25  1  0
 16 26  1  0
 17 27  1  0
M  END
> <Uni-Dock RESULT> 
ENERGY=   -4.608  LOWER_BOUND=    4.568  UPPER_BOUND=    6.591
INTER + INTRA:          -4.608
INTER:                  -4.608
INTRA:                   0.000
UNBOUND:                 0.000

$$$$

     RDKit          3D

 27 29  0  0  0  0  0  0  0  0999 V2000
   45.1148    7.1331   12.3525 C   0  0  0  0  0  0  0  0  0  0  0  0
   46.4026    7.5030   12.9786 C   0  0  0  0  0  0  0  0  0  0  0  0
   44.7185    5.7119   12.2517 C   0  0  0  0  0  0  0  0  0  0  0  0
   47.2453    6.5003   13.4762 C   0  0  0  0  0  0  0  0  0  0  0  0
   45.5689    4.7174   12.7526 C   0  0  0  0  0  0  0  0  0  0  0  0
   46.8892    5.0402   13.3986 C   0  0  0  0  0  0  0  0  0  0  0  0
   44.3708    8.0109   11.9137 O   0  0  0  0  0  0  0  0  0  0  0  0
   46.7847    8.8500   13.0773 C   0  0  0  0  0  0  0  0  0  0  0  0
   43.4976    5.3543   11.6586 C   0  0  0  0  0  0  0  0  0  0  0  0
   48.4662    6.8690   14.0685 C   0  0  0  0  0  0  0  0  0  0  0  0
   45.1770    3.3710   12.6489 C   0  0  0  0  0  0  0  0  0  0  0  0
   46.0153    9.8841   12.6147 O   0  0  0  0  0  0  0  0  0  0  0  0
   42.6155    6.2684   11.1473 O   0  0  0  0  0  0  0  0  0  0  0  0
   48.8377    8.2109   14.1622 C   0  0  0  0  0  0  0  0  0  0  0  0
   43.9612    3.0248   12.0575 C   0  0  0  0  0  0  0  0  0  0  0  0
   47.9957    9.2023   13.6658 C   0  0  0  0  0  0  0  0  0  0  0  0
   43.1209    4.0180   11.5619 C   0  0  0  0  0  0  0  0  0  0  0  0
   46.8754    4.6386   14.4201 H   0  0  0  0  0  0  0  0  0  0  0  0
   47.6786    4.5270   12.8344 H   0  0  0  0  0  0  0  0  0  0  0  0
   49.1378    6.1078   14.4624 H   0  0  0  0  0  0  0  0  0  0  0  0
   45.8210    2.5803   13.0309 H   0  0  0  0  0  0  0  0  0  0  0  0
   45.1977    9.4994   12.2278 H   0  0  0  0  0  0  0  0  0  0  0  0
   43.0007    7.1630   11.2795 H   0  0  0  0  0  0  0  0  0  0  0  0
   49.7842    8.4851   14.6222 H   0  0  0  0  0  0  0  0  0  0  0  0
   43.6678    1.9805   11.9824 H   0  0  0  0  0  0  0  0  0  0  0  0
   48.2797   10.2491   13.7360 H   0  0  0  0  0  0  0  0  0  0  0  0
   42.1728    3.7545   11.1003 H   0  0  0  0  0  0  0  0  0  0  0  0
  2  1  1  0
  3  1  1  0
  4  2  2  0
  5  3  2  0
  6  5  1  0
  7  1  2  0
  8  2  1  0
  9  3  1  0
 10  4  1  0
 11  5  1  0
 12  8  1  0
 13  9  1  0
 14 16  1  0
 15 17  1  0
 16  8  2  0
 17  9  2  0
  4  6  1  0
 11 15  2  0
 10 14  2  0
  6 18  1  0
  6 19  1  0
 10 20  1  0
 11 21  1  0
 12 22  1  0
 13 23  1  0
 14 24  1  0
 15 25  1  0
 16 26  1  0
 17 27  1  0
M  END
> <Uni-Dock RESULT> 
ENERGY=   -4.607  LOWER_BOUND=    4.568  UPPER_BOUND=    6.588
INTER + INTRA:          -4.607
INTER:                  -4.607
INTRA:                   0.000
UNBOUND:                 0.000

$$$$

     RDKit          3D

 27 29  0  0  0  0  0  0  0  0999 V2000
   45.1150    7.1333   12.3520 C   0  0  0  0  0  0  0  0  0  0  0  0
   44.7184    5.7121   12.2510 C   0  0  0  0  0  0  0  0  0  0  0  0
   46.4021    7.5029   12.9794 C   0  0  0  0  0  0  0  0  0  0  0  0
   45.5683    4.7174   12.7525 C   0  0  0  0  0  0  0  0  0  0  0  0
   47.2443    6.5000   13.4775 C   0  0  0  0  0  0  0  0  0  0  0  0
   46.8881    5.0400   13.3998 C   0  0  0  0  0  0  0  0  0  0  0  0
   44.3713    8.0111   11.9126 O   0  0  0  0  0  0  0  0  0  0  0  0
   43.4981    5.3546   11.6567 C   0  0  0  0  0  0  0  0  0  0  0  0
   46.7843    8.8499   13.0783 C   0  0  0  0  0  0  0  0  0  0  0  0
   45.1762    3.3710   12.6486 C   0  0  0  0  0  0  0  0  0  0  0  0
   48.4646    6.8686   14.0711 C   0  0  0  0  0  0  0  0  0  0  0  0
   42.6164    6.2688   11.1447 O   0  0  0  0  0  0  0  0  0  0  0  0
   46.0154    9.8840   12.6152 O   0  0  0  0  0  0  0  0  0  0  0  0
   43.9610    3.0250   12.0560 C   0  0  0  0  0  0  0  0  0  0  0  0
   48.8363    8.2105   14.1651 C   0  0  0  0  0  0  0  0  0  0  0  0
   43.1211    4.0184   11.5597 C   0  0  0  0  0  0  0  0  0  0  0  0
   47.9948    9.2020   13.6680 C   0  0  0  0  0  0  0  0  0  0  0  0
   47.6778    4.5267   12.8362 H   0  0  0  0  0  0  0  0  0  0  0  0
   46.8732    4.6385   14.4212 H   0  0  0  0  0  0  0  0  0  0  0  0
   45.8198    2.5803   13.0309 H   0  0  0  0  0  0  0  0  0  0  0  0
   49.1359    6.1072   14.4654 H   0  0  0  0  0  0  0  0  0  0  0  0
   43.0018    7.1633   11.2772 H   0  0  0  0  0  0  0  0  0  0  0  0
   45.1981    9.4995   12.2274 H   0  0  0  0  0  0  0  0  0  0  0  0
   43.6674    1.9806   11.9807 H   0  0  0  0  0  0  0  0  0  0  0  0
   49.7823    8.4846   14.6259 H   0  0  0  0  0  0  0  0  0  0  0  0
   42.1735    3.7550   11.0972 H   0  0  0  0  0  0  0  0  0  0  0  0
   48.2789   10.2487   13.7384 H   0  0  0  0  0  0  0  0  0  0  0  0
  2  1  1  0
  3  1  1  0
  4  2  2  0
  5  3  2  0
  6  5  1  0
  7  1  2  0
  8  2  1  0
  9  3  1  0
 10  4  1  0
 11  5  1  0
 12  8  1  0
 13  9  1  0
 14 16  1  0
 15 17  1  0
 16  8  2  0
 17  9  2  0
  4  6  1  0
 11 15  2  0
 10 14  2  0
  6 18  1  0
  6 19  1  0
 10 20  1  0
 11 21  1  0
 12 22  1  0
 13 23  1  0
 14 24  1  0
 15 25  1  0
 16 26  1  0
 17 27  1  0
M  END
> <Uni-Dock RESULT> 
ENERGY=   -4.606  LOWER_BOUND=    4.567  UPPER_BOUND=    6.425
INTER + INTRA:          -4.606
INTER:                  -4.606
INTRA:                   0.000
UNBOUND:                 0.000

$$$$

     RDKit          3D

 27 29  0  0  0  0  0  0  0  0999 V2000
   46.8030    5.7937   12.9993 C   0  0  0  0  0  0  0  0  0  0  0  0
   45.4910    5.2884   12.5402 C   0  0  0  0  0  0  0  0  0  0  0  0
   47.1049    7.2402   12.9387 C   0  0  0  0  0  0  0  0  0  0  0  0
   44.5354    6.1869   12.0477 C   0  0  0  0  0  0  0  0  0  0  0  0
   46.1418    8.1297   12.4443 C   0  0  0  0  0  0  0  0  0  0  0  0
   44.7923    7.6674   11.9649 C   0  0  0  0  0  0  0  0  0  0  0  0
   47.6462    5.0078   13.4330 O   0  0  0  0  0  0  0  0  0  0  0  0
   45.1982    3.9168   12.5950 C   0  0  0  0  0  0  0  0  0  0  0  0
   48.3481    7.7261   13.3728 C   0  0  0  0  0  0  0  0  0  0  0  0
   43.2930    5.6900   11.6152 C   0  0  0  0  0  0  0  0  0  0  0  0
   46.4448    9.5018   12.3935 C   0  0  0  0  0  0  0  0  0  0  0  0
   46.0800    2.9793   13.0631 O   0  0  0  0  0  0  0  0  0  0  0  0
   49.3379    6.9194   13.8675 O   0  0  0  0  0  0  0  0  0  0  0  0
   43.0108    4.3245   11.6735 C   0  0  0  0  0  0  0  0  0  0  0  0
   47.6837    9.9759   12.8274 C   0  0  0  0  0  0  0  0  0  0  0  0
   43.9649    3.4371   12.1640 C   0  0  0  0  0  0  0  0  0  0  0  0
   48.6361    9.0866   13.3176 C   0  0  0  0  0  0  0  0  0  0  0  0
   44.0258    8.1795   12.5608 H   0  0  0  0  0  0  0  0  0  0  0  0
   44.6800    7.9741   10.9171 H   0  0  0  0  0  0  0  0  0  0  0  0
   42.5343    6.3686   11.2286 H   0  0  0  0  0  0  0  0  0  0  0  0
   45.7126   10.2125   12.0134 H   0  0  0  0  0  0  0  0  0  0  0  0
   46.9012    3.4481   13.3314 H   0  0  0  0  0  0  0  0  0  0  0  0
   49.0065    5.9942   13.8511 H   0  0  0  0  0  0  0  0  0  0  0  0
   42.0467    3.9508   11.3364 H   0  0  0  0  0  0  0  0  0  0  0  0
   47.9078   11.0390   12.7838 H   0  0  0  0  0  0  0  0  0  0  0  0
   43.7508    2.3726   12.2118 H   0  0  0  0  0  0  0  0  0  0  0  0
   49.6027    9.4499   13.6568 H   0  0  0  0  0  0  0  0  0  0  0  0
  2  1  1  0
  3  1  1  0
  4  2  2  0
  5  3  2  0
  6  5  1  0
  7  1  2  0
  8  2  1  0
  9  3  1  0
 10  4  1  0
 11  5  1  0
 12  8  1  0
 13  9  1  0
 14 16  1  0
 15 17  1  0
 16  8  2  0
 17  9  2  0
  4  6  1  0
 11 15  2  0
 10 14  2  0
  6 18  1  0
  6 19  1  0
 10 20  1  0
 11 21  1  0
 12 22  1  0
 13 23  1  0
 14 24  1  0
 15 25  1  0
 16 26  1  0
 17 27  1  0
M  END
> <Uni-Dock RESULT> 
ENERGY=   -4.431  LOWER_BOUND=    4.298  UPPER_BOUND=    6.121
INTER + INTRA:          -4.431
INTER:                  -4.431
INTRA:                   0.000
UNBOUND:                 0.000

$$$$

     RDKit          3D

 27 29  0  0  0  0  0  0  0  0999 V2000
   46.8030    5.7931   12.9994 C   0  0  0  0  0  0  0  0  0  0  0  0
   47.1051    7.2396   12.9391 C   0  0  0  0  0  0  0  0  0  0  0  0
   45.4910    5.2880   12.5403 C   0  0  0  0  0  0  0  0  0  0  0  0
   46.1421    8.1293   12.4446 C   0  0  0  0  0  0  0  0  0  0  0  0
   44.5356    6.1867   12.0476 C   0  0  0  0  0  0  0  0  0  0  0  0
   44.7926    7.6671   11.9651 C   0  0  0  0  0  0  0  0  0  0  0  0
   47.6461    5.0073   13.4332 O   0  0  0  0  0  0  0  0  0  0  0  0
   48.3482    7.7255   13.3733 C   0  0  0  0  0  0  0  0  0  0  0  0
   45.1982    3.9164   12.5949 C   0  0  0  0  0  0  0  0  0  0  0  0
   46.4453    9.5015   12.3940 C   0  0  0  0  0  0  0  0  0  0  0  0
   43.2932    5.6900   11.6151 C   0  0  0  0  0  0  0  0  0  0  0  0
   49.3380    6.9186   13.8681 O   0  0  0  0  0  0  0  0  0  0  0  0
   46.0798    2.9790   13.0630 O   0  0  0  0  0  0  0  0  0  0  0  0
   47.6842    9.9754   12.8280 C   0  0  0  0  0  0  0  0  0  0  0  0
   43.0108    4.3245   11.6732 C   0  0  0  0  0  0  0  0  0  0  0  0
   48.6365    9.0859   13.3182 C   0  0  0  0  0  0  0  0  0  0  0  0
   43.9648    3.4370   12.1638 C   0  0  0  0  0  0  0  0  0  0  0  0
   44.6804    7.9741   10.9173 H   0  0  0  0  0  0  0  0  0  0  0  0
   44.0261    8.1793   12.5610 H   0  0  0  0  0  0  0  0  0  0  0  0
   45.7132   10.2122   12.0138 H   0  0  0  0  0  0  0  0  0  0  0  0
   42.5346    6.3687   11.2283 H   0  0  0  0  0  0  0  0  0  0  0  0
   49.0065    5.9934   13.8516 H   0  0  0  0  0  0  0  0  0  0  0  0
   46.9010    3.4476   13.3314 H   0  0  0  0  0  0  0  0  0  0  0  0
   47.9084   11.0386   12.7845 H   0  0  0  0  0  0  0  0  0  0  0  0
   42.0469    3.9509   11.3362 H   0  0  0  0  0  0  0  0  0  0  0  0
   49.6030    9.4491   13.6576 H   0  0  0  0  0  0  0  0  0  0  0  0
   43.7506    2.3725   12.2114 H   0  0  0  0  0  0  0  0  0  0  0  0
  2  1  1  0
  3  1  1  0
  4  2  2  0
  5  3  2  0
  6  5  1  0
  7  1  2  0
  8  2  1  0
  9  3  1  0
 10  4  1  0
 11  5  1  0
 12  8  1  0
 13  9  1  0
 14 16  1  0
 15 17  1  0
 16  8  2  0
 17  9  2  0
  4  6  1  0
 11 15  2  0
 10 14  2  0
  6 18  1  0
  6 19  1  0
 10 20  1  0
 11 21  1  0
 12 22  1  0
 13 23  1  0
 14 24  1  0
 15 25  1  0
 16 26  1  0
 17 27  1  0
M  END
> <Uni-Dock RESULT> 
ENERGY=   -4.430  LOWER_BOUND=    4.297  UPPER_BOUND=    6.195
INTER + INTRA:          -4.430
INTER:                  -4.430
INTRA:                   0.000
UNBOUND:                 0.000

$$$$

     RDKit          3D

 27 29  0  0  0  0  0  0  0  0999 V2000
   43.9433    6.9826   11.5546 C   0  0  0  0  0  0  0  0  0  0  0  0
   44.5689    8.3196   11.6446 C   0  0  0  0  0  0  0  0  0  0  0  0
   44.6318    5.8004   12.1163 C   0  0  0  0  0  0  0  0  0  0  0  0
   45.8173    8.4610   12.2649 C   0  0  0  0  0  0  0  0  0  0  0  0
   45.8799    5.9534   12.7345 C   0  0  0  0  0  0  0  0  0  0  0  0
   46.5594    7.2909   12.8523 C   0  0  0  0  0  0  0  0  0  0  0  0
   42.8461    6.8533   11.0103 O   0  0  0  0  0  0  0  0  0  0  0  0
   43.9206    9.4456   11.1135 C   0  0  0  0  0  0  0  0  0  0  0  0
   44.0434    4.5287   12.0341 C   0  0  0  0  0  0  0  0  0  0  0  0
   46.3983    9.7392   12.3421 C   0  0  0  0  0  0  0  0  0  0  0  0
   46.5211    4.8193   13.2634 C   0  0  0  0  0  0  0  0  0  0  0  0
   42.7009    9.3864   10.4937 O   0  0  0  0  0  0  0  0  0  0  0  0
   42.8280    4.3009   11.4459 O   0  0  0  0  0  0  0  0  0  0  0  0
   45.7462   10.8530   11.8111 C   0  0  0  0  0  0  0  0  0  0  0  0
   45.9285    3.5587   13.1770 C   0  0  0  0  0  0  0  0  0  0  0  0
   44.5059   10.7055   11.1961 C   0  0  0  0  0  0  0  0  0  0  0  0
   44.6881    3.4138   12.5616 C   0  0  0  0  0  0  0  0  0  0  0  0
   46.7272    7.4946   13.9177 H   0  0  0  0  0  0  0  0  0  0  0  0
   47.5350    7.2221   12.3540 H   0  0  0  0  0  0  0  0  0  0  0  0
   47.3676    9.8742   12.8194 H   0  0  0  0  0  0  0  0  0  0  0  0
   47.4916    4.9129   13.7485 H   0  0  0  0  0  0  0  0  0  0  0  0
   42.4047    8.4492   10.5041 H   0  0  0  0  0  0  0  0  0  0  0  0
   42.4868    5.1629   11.1194 H   0  0  0  0  0  0  0  0  0  0  0  0
   46.2044   11.8371   11.8763 H   0  0  0  0  0  0  0  0  0  0  0  0
   46.4330    2.6882   13.5894 H   0  0  0  0  0  0  0  0  0  0  0  0
   43.9934   11.5693   10.7808 H   0  0  0  0  0  0  0  0  0  0  0  0
   44.2216    2.4346   12.4913 H   0  0  0  0  0  0  0  0  0  0  0  0
  2  1  1  0
  3  1  1  0
  4  2  2  0
  5  3  2  0
  6  5  1  0
  7  1  2  0
  8  2  1  0
  9  3  1  0
 10  4  1  0
 11  5  1  0
 12  8  1  0
 13  9  1  0
 14 16  1  0
 15 17  1  0
 16  8  2  0
 17  9  2  0
  4  6  1  0
 11 15  2  0
 10 14  2  0
  6 18  1  0
  6 19  1  0
 10 20  1  0
 11 21  1  0
 12 22  1  0
 13 23  1  0
 14 24  1  0
 15 25  1  0
 16 26  1  0
 17 27  1  0
M  END
> <Uni-Dock RESULT> 
ENERGY=   -4.425  LOWER_BOUND=    4.355  UPPER_BOUND=    6.494
INTER + INTRA:          -4.425
INTER:                  -4.425
INTRA:                   0.000
UNBOUND:                 0.000

$$$$

     RDKit          3D

 27 29  0  0  0  0  0  0  0  0999 V2000
   43.9455    6.9458   11.5584 C   0  0  0  0  0  0  0  0  0  0  0  0
   44.6380    5.7641   12.1164 C   0  0  0  0  0  0  0  0  0  0  0  0
   44.5688    8.2838   11.6486 C   0  0  0  0  0  0  0  0  0  0  0  0
   45.8877    5.9185   12.7307 C   0  0  0  0  0  0  0  0  0  0  0  0
   45.8189    8.4266   12.2651 C   0  0  0  0  0  0  0  0  0  0  0  0
   46.5651    7.2572   12.8484 C   0  0  0  0  0  0  0  0  0  0  0  0
   42.8468    6.8151   11.0175 O   0  0  0  0  0  0  0  0  0  0  0  0
   44.0518    4.4914   12.0341 C   0  0  0  0  0  0  0  0  0  0  0  0
   43.9167    9.4093   11.1210 C   0  0  0  0  0  0  0  0  0  0  0  0
   46.5328    4.7847   13.2561 C   0  0  0  0  0  0  0  0  0  0  0  0
   46.3976    9.7058   12.3424 C   0  0  0  0  0  0  0  0  0  0  0  0
   42.8348    4.2621   11.4494 O   0  0  0  0  0  0  0  0  0  0  0  0
   42.6952    9.3487   10.5051 O   0  0  0  0  0  0  0  0  0  0  0  0
   45.9422    3.5232   13.1697 C   0  0  0  0  0  0  0  0  0  0  0  0
   45.7419   10.8192   11.8151 C   0  0  0  0  0  0  0  0  0  0  0  0
   44.7001    3.3768   12.5579 C   0  0  0  0  0  0  0  0  0  0  0  0
   44.4999   10.6702   11.2037 C   0  0  0  0  0  0  0  0  0  0  0  0
   47.5392    7.1908   12.3470 H   0  0  0  0  0  0  0  0  0  0  0  0
   46.7358    7.4596   13.9136 H   0  0  0  0  0  0  0  0  0  0  0  0
   47.5045    4.8795   13.7381 H   0  0  0  0  0  0  0  0  0  0  0  0
   47.3683    9.8419   12.8167 H   0  0  0  0  0  0  0  0  0  0  0  0
   42.4911    5.1240   11.1252 H   0  0  0  0  0  0  0  0  0  0  0  0
   42.4008    8.4110   10.5150 H   0  0  0  0  0  0  0  0  0  0  0  0
   46.4496    2.6530   13.5792 H   0  0  0  0  0  0  0  0  0  0  0  0
   46.1984   11.8039   11.8802 H   0  0  0  0  0  0  0  0  0  0  0  0
   44.2353    2.3969   12.4876 H   0  0  0  0  0  0  0  0  0  0  0  0
   43.9845   11.5337   10.7913 H   0  0  0  0  0  0  0  0  0  0  0  0
  2  1  1  0
  3  1  1  0
  4  2  2  0
  5  3  2  0
  6  5  1  0
  7  1  2  0
  8  2  1  0
  9  3  1  0
 10  4  1  0
 11  5  1  0
 12  8  1  0
 13  9  1  0
 14 16  1  0
 15 17  1  0
 16  8  2  0
 17  9  2  0
  4  6  1  0
 11 15  2  0
 10 14  2  0
  6 18  1  0
  6 19  1  0
 10 20  1  0
 11 21  1  0
 12 22  1  0
 13 23  1  0
 14 24  1  0
 15 25  1  0
 16 26  1  0
 17 27  1  0
M  END
> <Uni-Dock RESULT> 
ENERGY=   -4.422  LOWER_BOUND=    4.339  UPPER_BOUND=    5.968
INTER + INTRA:          -4.422
INTER:                  -4.422
INTRA:                   0.000
UNBOUND:                 0.000

$$$$

     RDKit          3D

 27 29  0  0  0  0  0  0  0  0999 V2000
   46.3266    6.1455   12.8223 C   0  0  0  0  0  0  0  0  0  0  0  0
   46.1694    7.5912   12.5532 C   0  0  0  0  0  0  0  0  0  0  0  0
   45.2676    5.1950   12.4195 C   0  0  0  0  0  0  0  0  0  0  0  0
   45.0122    8.0561   11.9145 C   0  0  0  0  0  0  0  0  0  0  0  0
   44.1146    5.6709   11.7814 C   0  0  0  0  0  0  0  0  0  0  0  0
   43.9055    7.1313   11.4845 C   0  0  0  0  0  0  0  0  0  0  0  0
   47.3420    5.7321   13.3835 O   0  0  0  0  0  0  0  0  0  0  0  0
   47.1707    8.4985   12.9330 C   0  0  0  0  0  0  0  0  0  0  0  0
   45.4108    3.8217   12.6720 C   0  0  0  0  0  0  0  0  0  0  0  0
   44.8784    9.4337   11.6661 C   0  0  0  0  0  0  0  0  0  0  0  0
   43.1173    4.7539   11.4048 C   0  0  0  0  0  0  0  0  0  0  0  0
   48.3278    8.1199   13.5602 O   0  0  0  0  0  0  0  0  0  0  0  0
   46.5074    3.2828   13.2902 O   0  0  0  0  0  0  0  0  0  0  0  0
   45.8793   10.3284   12.0474 C   0  0  0  0  0  0  0  0  0  0  0  0
   43.2683    3.3902   11.6601 C   0  0  0  0  0  0  0  0  0  0  0  0
   47.0267    9.8598   12.6817 C   0  0  0  0  0  0  0  0  0  0  0  0
   44.4166    2.9240   12.2944 C   0  0  0  0  0  0  0  0  0  0  0  0
   43.7713    7.2424   10.4008 H   0  0  0  0  0  0  0  0  0  0  0  0
   42.9817    7.4512   11.9835 H   0  0  0  0  0  0  0  0  0  0  0  0
   43.9883    9.8188   11.1712 H   0  0  0  0  0  0  0  0  0  0  0  0
   42.2123    5.0997   10.9077 H   0  0  0  0  0  0  0  0  0  0  0  0
   48.3006    7.1441   13.6754 H   0  0  0  0  0  0  0  0  0  0  0  0
   47.1243    4.0184   13.5010 H   0  0  0  0  0  0  0  0  0  0  0  0
   45.7658   11.3918   11.8505 H   0  0  0  0  0  0  0  0  0  0  0  0
   42.4909    2.6896   11.3647 H   0  0  0  0  0  0  0  0  0  0  0  0
   47.8096   10.5518   12.9809 H   0  0  0  0  0  0  0  0  0  0  0  0
   44.5397    1.8631   12.4958 H   0  0  0  0  0  0  0  0  0  0  0  0
  2  1  1  0
  3  1  1  0
  4  2  2  0
  5  3  2  0
  6  5  1  0
  7  1  2  0
  8  2  1  0
  9  3  1  0
 10  4  1  0
 11  5  1  0
 12  8  1  0
 13  9  1  0
 14 16  1  0
 15 17  1  0
 16  8  2  0
 17  9  2  0
  4  6  1  0
 11 15  2  0
 10 14  2  0
  6 18  1  0
  6 19  1  0
 10 20  1  0
 11 21  1  0
 12 22  1  0
 13 23  1  0
 14 24  1  0
 15 25  1  0
 16 26  1  0
 17 27  1  0
M  END
> <Uni-Dock RESULT> 
ENERGY=   -4.364  LOWER_BOUND=    4.295  UPPER_BOUND=    6.258
INTER + INTRA:          -4.364
INTER:                  -4.364
INTRA:                   0.000
UNBOUND:                 0.000

$$$$
