
     RDKit          3D

 27 29  0  0  0  0  0  0  0  0999 V2000
   44.9894    2.2493    9.3840 C   0  0  0  0  0  0  0  0  0  0  0  0
   45.9304    2.4308    8.2576 C   0  0  0  0  0  0  0  0  0  0  0  0
   44.4333    3.4268   10.0852 C   0  0  0  0  0  0  0  0  0  0  0  0
   46.2925    3.7239    7.8579 C   0  0  0  0  0  0  0  0  0  0  0  0
   44.8024    4.7153    9.6770 C   0  0  0  0  0  0  0  0  0  0  0  0
   45.7556    4.9547    8.5374 C   0  0  0  0  0  0  0  0  0  0  0  0
   44.6680    1.1147    9.7392 O   0  0  0  0  0  0  0  0  0  0  0  0
   46.4617    1.3175    7.5881 C   0  0  0  0  0  0  0  0  0  0  0  0
   43.5399    3.2613   11.1550 C   0  0  0  0  0  0  0  0  0  0  0  0
   47.1883    3.8790    6.7851 C   0  0  0  0  0  0  0  0  0  0  0  0
   44.2647    5.8241   10.3542 C   0  0  0  0  0  0  0  0  0  0  0  0
   46.1550    0.0250    7.9210 O   0  0  0  0  0  0  0  0  0  0  0  0
   43.1332    2.0355   11.6102 O   0  0  0  0  0  0  0  0  0  0  0  0
   47.7114    2.7661    6.1252 C   0  0  0  0  0  0  0  0  0  0  0  0
   43.3769    5.6499   11.4169 C   0  0  0  0  0  0  0  0  0  0  0  0
   47.3474    1.4840    6.5276 C   0  0  0  0  0  0  0  0  0  0  0  0
   43.0144    4.3667   11.8173 C   0  0  0  0  0  0  0  0  0  0  0  0
   46.6077    5.5302    8.9216 H   0  0  0  0  0  0  0  0  0  0  0  0
   45.2385    5.5617    7.7830 H   0  0  0  0  0  0  0  0  0  0  0  0
   47.4847    4.8739    6.4562 H   0  0  0  0  0  0  0  0  0  0  0  0
   44.5364    6.8353   10.0553 H   0  0  0  0  0  0  0  0  0  0  0  0
   45.5271    0.0511    8.6767 H   0  0  0  0  0  0  0  0  0  0  0  0
   43.5744    1.3503   11.0608 H   0  0  0  0  0  0  0  0  0  0  0  0
   48.4035    2.8973    5.2967 H   0  0  0  0  0  0  0  0  0  0  0  0
   42.9668    6.5143   11.9339 H   0  0  0  0  0  0  0  0  0  0  0  0
   47.7515    0.6135    6.0176 H   0  0  0  0  0  0  0  0  0  0  0  0
   42.3234    4.2248   12.6443 H   0  0  0  0  0  0  0  0  0  0  0  0
  2  1  1  0
  3  1  1  0
  4  2  2  0
  5  3  2  0
  6  5  1  0
  7  1  2  0
  8  2  1  0
  9  3  1  0
 10  4  1  0
 11  5  1  0
 12  8  1  0
 13  9  1  0
 14 16  1  0
 15 17  1  0
 16  8  2  0
 17  9  2  0
  4  6  1  0
 11 15  2  0
 10 14  2  0
  6 18  1  0
  6 19  1  0
 10 20  1  0
 11 21  1  0
 12 22  1  0
 13 23  1  0
 14 24  1  0
 15 25  1  0
 16 26  1  0
 17 27  1  0
M  END
> <Uni-Dock RESULT> 
ENERGY=   -6.281  LOWER_BOUND=    0.000  UPPER_BOUND=    0.000
INTER + INTRA:          -6.281
INTER:                  -6.281
INTRA:                   0.000
UNBOUND:                 0.000

$$$$

     RDKit          3D

 27 29  0  0  0  0  0  0  0  0999 V2000
   45.5636    4.5636    8.9778 C   0  0  0  0  0  0  0  0  0  0  0  0
   44.6613    4.4606   10.1450 C   0  0  0  0  0  0  0  0  0  0  0  0
   46.0061    3.3425    8.2703 C   0  0  0  0  0  0  0  0  0  0  0  0
   44.2275    3.2005   10.5773 C   0  0  0  0  0  0  0  0  0  0  0  0
   45.5662    2.0875    8.7113 C   0  0  0  0  0  0  0  0  0  0  0  0
   44.6480    1.9278    9.8930 C   0  0  0  0  0  0  0  0  0  0  0  0
   45.9477    5.6690    8.5939 O   0  0  0  0  0  0  0  0  0  0  0  0
   44.2378    5.6156   10.8208 C   0  0  0  0  0  0  0  0  0  0  0  0
   46.8625    3.4334    7.1620 C   0  0  0  0  0  0  0  0  0  0  0  0
   43.3698    3.1201   11.6888 C   0  0  0  0  0  0  0  0  0  0  0  0
   45.9961    0.9364    8.0276 C   0  0  0  0  0  0  0  0  0  0  0  0
   44.6188    6.8797   10.4575 O   0  0  0  0  0  0  0  0  0  0  0  0
   47.3335    4.6227    6.6733 O   0  0  0  0  0  0  0  0  0  0  0  0
   42.9538    4.2740   12.3544 C   0  0  0  0  0  0  0  0  0  0  0  0
   46.8477    1.0365    6.9264 C   0  0  0  0  0  0  0  0  0  0  0  0
   43.3887    5.5231   11.9196 C   0  0  0  0  0  0  0  0  0  0  0  0
   47.2810    2.2868    6.4935 C   0  0  0  0  0  0  0  0  0  0  0  0
   45.1534    1.2943   10.6334 H   0  0  0  0  0  0  0  0  0  0  0  0
   43.7424    1.4092    9.5527 H   0  0  0  0  0  0  0  0  0  0  0  0
   43.0194    2.1520   12.0435 H   0  0  0  0  0  0  0  0  0  0  0  0
   45.6677   -0.0499    8.3515 H   0  0  0  0  0  0  0  0  0  0  0  0
   45.2106    6.8016    9.6766 H   0  0  0  0  0  0  0  0  0  0  0  0
   46.9649    5.3430    7.2312 H   0  0  0  0  0  0  0  0  0  0  0  0
   42.2903    4.2005   13.2129 H   0  0  0  0  0  0  0  0  0  0  0  0
   47.1743    0.1401    6.4047 H   0  0  0  0  0  0  0  0  0  0  0  0
   43.0681    6.4252   12.4340 H   0  0  0  0  0  0  0  0  0  0  0  0
   47.9443    2.3710    5.6365 H   0  0  0  0  0  0  0  0  0  0  0  0
  2  1  1  0
  3  1  1  0
  4  2  2  0
  5  3  2  0
  6  5  1  0
  7  1  2  0
  8  2  1  0
  9  3  1  0
 10  4  1  0
 11  5  1  0
 12  8  1  0
 13  9  1  0
 14 16  1  0
 15 17  1  0
 16  8  2  0
 17  9  2  0
  4  6  1  0
 11 15  2  0
 10 14  2  0
  6 18  1  0
  6 19  1  0
 10 20  1  0
 11 21  1  0
 12 22  1  0
 13 23  1  0
 14 24  1  0
 15 25  1  0
 16 26  1  0
 17 27  1  0
M  END
> <Uni-Dock RESULT> 
ENERGY=   -4.678  LOWER_BOUND=    2.176  UPPER_BOUND=    5.653
INTER + INTRA:          -4.678
INTER:                  -4.678
INTRA:                   0.000
UNBOUND:                 0.000

$$$$

     RDKit          3D

 27 29  0  0  0  0  0  0  0  0999 V2000
   45.1150    7.1333   12.3521 C   0  0  0  0  0  0  0  0  0  0  0  0
   46.4022    7.5029   12.9794 C   0  0  0  0  0  0  0  0  0  0  0  0
   44.7184    5.7121   12.2510 C   0  0  0  0  0  0  0  0  0  0  0  0
   47.2442    6.5000   13.4776 C   0  0  0  0  0  0  0  0  0  0  0  0
   45.5682    4.7174   12.7526 C   0  0  0  0  0  0  0  0  0  0  0  0
   46.8880    5.0400   13.3999 C   0  0  0  0  0  0  0  0  0  0  0  0
   44.3714    8.0111   11.9126 O   0  0  0  0  0  0  0  0  0  0  0  0
   46.7845    8.8498   13.0783 C   0  0  0  0  0  0  0  0  0  0  0  0
   43.4981    5.3546   11.6567 C   0  0  0  0  0  0  0  0  0  0  0  0
   48.4647    6.8685   14.0711 C   0  0  0  0  0  0  0  0  0  0  0  0
   45.1762    3.3710   12.6487 C   0  0  0  0  0  0  0  0  0  0  0  0
   46.0156    9.8840   12.6151 O   0  0  0  0  0  0  0  0  0  0  0  0
   42.6165    6.2690   11.1447 O   0  0  0  0  0  0  0  0  0  0  0  0
   48.8364    8.2104   14.1652 C   0  0  0  0  0  0  0  0  0  0  0  0
   43.9609    3.0250   12.0561 C   0  0  0  0  0  0  0  0  0  0  0  0
   47.9950    9.2019   13.6679 C   0  0  0  0  0  0  0  0  0  0  0  0
   43.1211    4.0184   11.5598 C   0  0  0  0  0  0  0  0  0  0  0  0
   47.6778    4.5266   12.8364 H   0  0  0  0  0  0  0  0  0  0  0  0
   46.8732    4.6384   14.4214 H   0  0  0  0  0  0  0  0  0  0  0  0
   49.1358    6.1071   14.4655 H   0  0  0  0  0  0  0  0  0  0  0  0
   45.8197    2.5803   13.0312 H   0  0  0  0  0  0  0  0  0  0  0  0
   45.1983    9.4995   12.2274 H   0  0  0  0  0  0  0  0  0  0  0  0
   43.0018    7.1634   11.2771 H   0  0  0  0  0  0  0  0  0  0  0  0
   49.7825    8.4844   14.6261 H   0  0  0  0  0  0  0  0  0  0  0  0
   43.6672    1.9807   11.9808 H   0  0  0  0  0  0  0  0  0  0  0  0
   48.2791   10.2486   13.7383 H   0  0  0  0  0  0  0  0  0  0  0  0
   42.1734    3.7551   11.0973 H   0  0  0  0  0  0  0  0  0  0  0  0
  2  1  1  0
  3  1  1  0
  4  2  2  0
  5  3  2  0
  6  5  1  0
  7  1  2  0
  8  2  1  0
  9  3  1  0
 10  4  1  0
 11  5  1  0
 12  8  1  0
 13  9  1  0
 14 16  1  0
 15 17  1  0
 16  8  2  0
 17  9  2  0
  4  6  1  0
 11 15  2  0
 10 14  2  0
  6 18  1  0
  6 19  1  0
 10 20  1  0
 11 21  1  0
 12 22  1  0
 13 23  1  0
 14 24  1  0
 15 25  1  0
 16 26  1  0
 17 27  1  0
M  END
> <Uni-Dock RESULT> 
ENERGY=   -4.606  LOWER_BOUND=    4.567  UPPER_BOUND=    6.588
INTER + INTRA:          -4.606
INTER:                  -4.606
INTRA:                   0.000
UNBOUND:                 0.000

$$$$

     RDKit          3D

 27 29  0  0  0  0  0  0  0  0999 V2000
   45.1149    7.1332   12.3519 C   0  0  0  0  0  0  0  0  0  0  0  0
   44.7183    5.7121   12.2510 C   0  0  0  0  0  0  0  0  0  0  0  0
   46.4021    7.5030   12.9794 C   0  0  0  0  0  0  0  0  0  0  0  0
   45.5682    4.7175   12.7525 C   0  0  0  0  0  0  0  0  0  0  0  0
   47.2442    6.5001   13.4776 C   0  0  0  0  0  0  0  0  0  0  0  0
   46.8880    5.0401   13.3997 C   0  0  0  0  0  0  0  0  0  0  0  0
   44.3712    8.0112   11.9126 O   0  0  0  0  0  0  0  0  0  0  0  0
   43.4980    5.3546   11.6567 C   0  0  0  0  0  0  0  0  0  0  0  0
   46.7843    8.8499   13.0784 C   0  0  0  0  0  0  0  0  0  0  0  0
   45.1762    3.3710   12.6485 C   0  0  0  0  0  0  0  0  0  0  0  0
   48.4646    6.8686   14.0711 C   0  0  0  0  0  0  0  0  0  0  0  0
   42.6165    6.2689   11.1447 O   0  0  0  0  0  0  0  0  0  0  0  0
   46.0154    9.8840   12.6151 O   0  0  0  0  0  0  0  0  0  0  0  0
   43.9610    3.0250   12.0560 C   0  0  0  0  0  0  0  0  0  0  0  0
   48.8363    8.2105   14.1651 C   0  0  0  0  0  0  0  0  0  0  0  0
   43.1211    4.0184   11.5597 C   0  0  0  0  0  0  0  0  0  0  0  0
   47.9948    9.2020   13.6679 C   0  0  0  0  0  0  0  0  0  0  0  0
   46.8732    4.6385   14.4212 H   0  0  0  0  0  0  0  0  0  0  0  0
   47.6778    4.5267   12.8362 H   0  0  0  0  0  0  0  0  0  0  0  0
   45.8198    2.5803   13.0310 H   0  0  0  0  0  0  0  0  0  0  0  0
   49.1358    6.1072   14.4655 H   0  0  0  0  0  0  0  0  0  0  0  0
   43.0017    7.1634   11.2771 H   0  0  0  0  0  0  0  0  0  0  0  0
   45.1981    9.4996   12.2274 H   0  0  0  0  0  0  0  0  0  0  0  0
   43.6674    1.9806   11.9807 H   0  0  0  0  0  0  0  0  0  0  0  0
   49.7823    8.4846   14.6260 H   0  0  0  0  0  0  0  0  0  0  0  0
   42.1735    3.7550   11.0972 H   0  0  0  0  0  0  0  0  0  0  0  0
   48.2789   10.2488   13.7384 H   0  0  0  0  0  0  0  0  0  0  0  0
  2  1  1  0
  3  1  1  0
  4  2  2  0
  5  3  2  0
  6  5  1  0
  7  1  2  0
  8  2  1  0
  9  3  1  0
 10  4  1  0
 11  5  1  0
 12  8  1  0
 13  9  1  0
 14 16  1  0
 15 17  1  0
 16  8  2  0
 17  9  2  0
  4  6  1  0
 11 15  2  0
 10 14  2  0
  6 18  1  0
  6 19  1  0
 10 20  1  0
 11 21  1  0
 12 22  1  0
 13 23  1  0
 14 24  1  0
 15 25  1  0
 16 26  1  0
 17 27  1  0
M  END
> <Uni-Dock RESULT> 
ENERGY=   -4.605  LOWER_BOUND=    4.567  UPPER_BOUND=    6.425
INTER + INTRA:          -4.605
INTER:                  -4.605
INTRA:                   0.000
UNBOUND:                 0.000

$$$$

     RDKit          3D

 27 29  0  0  0  0  0  0  0  0999 V2000
   46.8043    5.7949   12.9990 C   0  0  0  0  0  0  0  0  0  0  0  0
   47.1068    7.2412   12.9385 C   0  0  0  0  0  0  0  0  0  0  0  0
   45.4918    5.2902   12.5407 C   0  0  0  0  0  0  0  0  0  0  0  0
   46.1440    8.1311   12.4447 C   0  0  0  0  0  0  0  0  0  0  0  0
   44.5364    6.1892   12.0488 C   0  0  0  0  0  0  0  0  0  0  0  0
   44.7939    7.6696   11.9660 C   0  0  0  0  0  0  0  0  0  0  0  0
   47.6474    5.0086   13.4323 O   0  0  0  0  0  0  0  0  0  0  0  0
   48.3505    7.7265   13.3719 C   0  0  0  0  0  0  0  0  0  0  0  0
   45.1984    3.9187   12.5956 C   0  0  0  0  0  0  0  0  0  0  0  0
   46.4476    9.5033   12.3939 C   0  0  0  0  0  0  0  0  0  0  0  0
   43.2935    5.6930   11.6170 C   0  0  0  0  0  0  0  0  0  0  0  0
   49.3402    6.9193   13.8659 O   0  0  0  0  0  0  0  0  0  0  0  0
   46.0801    2.9809   13.0631 O   0  0  0  0  0  0  0  0  0  0  0  0
   47.6869    9.9767   12.8270 C   0  0  0  0  0  0  0  0  0  0  0  0
   43.0106    4.3276   11.6753 C   0  0  0  0  0  0  0  0  0  0  0  0
   48.6392    9.0868   13.3166 C   0  0  0  0  0  0  0  0  0  0  0  0
   43.9646    3.4398   12.1653 C   0  0  0  0  0  0  0  0  0  0  0  0
   44.0280    8.1821   12.5624 H   0  0  0  0  0  0  0  0  0  0  0  0
   44.6812    7.9766   10.9182 H   0  0  0  0  0  0  0  0  0  0  0  0
   45.7155   10.2143   12.0142 H   0  0  0  0  0  0  0  0  0  0  0  0
   42.5349    6.3720   11.2308 H   0  0  0  0  0  0  0  0  0  0  0  0
   49.0084    5.9942   13.8498 H   0  0  0  0  0  0  0  0  0  0  0  0
   46.9016    3.4491   13.3310 H   0  0  0  0  0  0  0  0  0  0  0  0
   47.9115   11.0398   12.7834 H   0  0  0  0  0  0  0  0  0  0  0  0
   42.0463    3.9543   11.3389 H   0  0  0  0  0  0  0  0  0  0  0  0
   49.6061    9.4496   13.6554 H   0  0  0  0  0  0  0  0  0  0  0  0
   43.7500    2.3753   12.2131 H   0  0  0  0  0  0  0  0  0  0  0  0
  2  1  1  0
  3  1  1  0
  4  2  2  0
  5  3  2  0
  6  5  1  0
  7  1  2  0
  8  2  1  0
  9  3  1  0
 10  4  1  0
 11  5  1  0
 12  8  1  0
 13  9  1  0
 14 16  1  0
 15 17  1  0
 16  8  2  0
 17  9  2  0
  4  6  1  0
 11 15  2  0
 10 14  2  0
  6 18  1  0
  6 19  1  0
 10 20  1  0
 11 21  1  0
 12 22  1  0
 13 23  1  0
 14 24  1  0
 15 25  1  0
 16 26  1  0
 17 27  1  0
M  END
> <Uni-Dock RESULT> 
ENERGY=   -4.435  LOWER_BOUND=    4.299  UPPER_BOUND=    6.196
INTER + INTRA:          -4.435
INTER:                  -4.435
INTRA:                   0.000
UNBOUND:                 0.000

$$$$

     RDKit          3D

 27 29  0  0  0  0  0  0  0  0999 V2000
   43.9488    6.9381   11.5597 C   0  0  0  0  0  0  0  0  0  0  0  0
   44.5715    8.2763   11.6517 C   0  0  0  0  0  0  0  0  0  0  0  0
   44.6422    5.7558   12.1154 C   0  0  0  0  0  0  0  0  0  0  0  0
   45.8217    8.4187   12.2681 C   0  0  0  0  0  0  0  0  0  0  0  0
   45.8920    5.9098   12.7296 C   0  0  0  0  0  0  0  0  0  0  0  0
   46.5687    7.2486   12.8493 C   0  0  0  0  0  0  0  0  0  0  0  0
   42.8501    6.8077   11.0189 O   0  0  0  0  0  0  0  0  0  0  0  0
   43.9188    9.4023   11.1263 C   0  0  0  0  0  0  0  0  0  0  0  0
   44.0566    4.4829   12.0313 C   0  0  0  0  0  0  0  0  0  0  0  0
   46.3999    9.6981   12.3473 C   0  0  0  0  0  0  0  0  0  0  0  0
   46.5379    4.7756   13.2529 C   0  0  0  0  0  0  0  0  0  0  0  0
   42.6970    9.3420   10.5107 O   0  0  0  0  0  0  0  0  0  0  0  0
   42.8396    4.2540   11.4466 O   0  0  0  0  0  0  0  0  0  0  0  0
   45.7434   10.8120   11.8221 C   0  0  0  0  0  0  0  0  0  0  0  0
   45.9479    3.5138   13.1646 C   0  0  0  0  0  0  0  0  0  0  0  0
   44.5013   10.6634   11.2108 C   0  0  0  0  0  0  0  0  0  0  0  0
   44.7057    3.3679   12.5530 C   0  0  0  0  0  0  0  0  0  0  0  0
   47.5428    7.1836   12.3474 H   0  0  0  0  0  0  0  0  0  0  0  0
   46.7398    7.4495   13.9148 H   0  0  0  0  0  0  0  0  0  0  0  0
   47.3707    9.8339   12.8216 H   0  0  0  0  0  0  0  0  0  0  0  0
   47.5097    4.8701   13.7348 H   0  0  0  0  0  0  0  0  0  0  0  0
   42.4031    8.4042   10.5192 H   0  0  0  0  0  0  0  0  0  0  0  0
   42.4953    5.1162   11.1240 H   0  0  0  0  0  0  0  0  0  0  0  0
   46.1995   11.7969   11.8886 H   0  0  0  0  0  0  0  0  0  0  0  0
   46.4559    2.6432   13.5726 H   0  0  0  0  0  0  0  0  0  0  0  0
   43.9852   11.5271   10.8000 H   0  0  0  0  0  0  0  0  0  0  0  0
   44.2413    2.3878   12.4813 H   0  0  0  0  0  0  0  0  0  0  0  0
  2  1  1  0
  3  1  1  0
  4  2  2  0
  5  3  2  0
  6  5  1  0
  7  1  2  0
  8  2  1  0
  9  3  1  0
 10  4  1  0
 11  5  1  0
 12  8  1  0
 13  9  1  0
 14 16  1  0
 15 17  1  0
 16  8  2  0
 17  9  2  0
  4  6  1  0
 11 15  2  0
 10 14  2  0
  6 18  1  0
  6 19  1  0
 10 20  1  0
 11 21  1  0
 12 22  1  0
 13 23  1  0
 14 24  1  0
 15 25  1  0
 16 26  1  0
 17 27  1  0
M  END
> <Uni-Dock RESULT> 
ENERGY=   -4.425  LOWER_BOUND=    4.333  UPPER_BOUND=    6.471
INTER + INTRA:          -4.425
INTER:                  -4.425
INTRA:                   0.000
UNBOUND:                 0.000

$$$$

     RDKit          3D

 27 29  0  0  0  0  0  0  0  0999 V2000
   51.2798    4.1957   18.5161 C   0  0  0  0  0  0  0  0  0  0  0  0
   52.2379    3.0821   18.3461 C   0  0  0  0  0  0  0  0  0  0  0  0
   49.9023    4.0779   17.9906 C   0  0  0  0  0  0  0  0  0  0  0  0
   51.8343    1.9147   17.6849 C   0  0  0  0  0  0  0  0  0  0  0  0
   49.5095    2.9059   17.3310 C   0  0  0  0  0  0  0  0  0  0  0  0
   50.4451    1.7441   17.1318 C   0  0  0  0  0  0  0  0  0  0  0  0
   51.6298    5.2240   19.0966 O   0  0  0  0  0  0  0  0  0  0  0  0
   53.5466    3.1876   18.8424 C   0  0  0  0  0  0  0  0  0  0  0  0
   48.9882    5.1313   18.1486 C   0  0  0  0  0  0  0  0  0  0  0  0
   52.7576    0.8652   17.5317 C   0  0  0  0  0  0  0  0  0  0  0  0
   48.1963    2.8100   16.8374 C   0  0  0  0  0  0  0  0  0  0  0  0
   54.0131    4.2953   19.4986 O   0  0  0  0  0  0  0  0  0  0  0  0
   49.2985    6.3056   18.7810 O   0  0  0  0  0  0  0  0  0  0  0  0
   54.0568    0.9791   18.0285 C   0  0  0  0  0  0  0  0  0  0  0  0
   47.2942    3.8625   16.9992 C   0  0  0  0  0  0  0  0  0  0  0  0
   54.4513    2.1420   18.6846 C   0  0  0  0  0  0  0  0  0  0  0  0
   47.6911    5.0243   17.6557 C   0  0  0  0  0  0  0  0  0  0  0  0
   50.5289    1.5556   16.0537 H   0  0  0  0  0  0  0  0  0  0  0  0
   49.9966    0.8610   17.6049 H   0  0  0  0  0  0  0  0  0  0  0  0
   52.4673   -0.0519   17.0213 H   0  0  0  0  0  0  0  0  0  0  0  0
   47.8677    1.9092   16.3213 H   0  0  0  0  0  0  0  0  0  0  0  0
   53.2808    4.9496   19.5403 H   0  0  0  0  0  0  0  0  0  0  0  0
   50.2341    6.2487   19.0765 H   0  0  0  0  0  0  0  0  0  0  0  0
   54.7629    0.1614   17.9047 H   0  0  0  0  0  0  0  0  0  0  0  0
   46.2809    3.7780   16.6137 H   0  0  0  0  0  0  0  0  0  0  0  0
   55.4617    2.2365   19.0737 H   0  0  0  0  0  0  0  0  0  0  0  0
   46.9930    5.8473   17.7847 H   0  0  0  0  0  0  0  0  0  0  0  0
  2  1  1  0
  3  1  1  0
  4  2  2  0
  5  3  2  0
  6  5  1  0
  7  1  2  0
  8  2  1  0
  9  3  1  0
 10  4  1  0
 11  5  1  0
 12  8  1  0
 13  9  1  0
 14 16  1  0
 15 17  1  0
 16  8  2  0
 17  9  2  0
  4  6  1  0
 11 15  2  0
 10 14  2  0
  6 18  1  0
  6 19  1  0
 10 20  1  0
 11 21  1  0
 12 22  1  0
 13 23  1  0
 14 24  1  0
 15 25  1  0
 16 26  1  0
 17 27  1  0
M  END
> <Uni-Dock RESULT> 
ENERGY=   -4.208  LOWER_BOUND=   10.532  UPPER_BOUND=   11.197
INTER + INTRA:          -4.208
INTER:                  -4.208
INTRA:                   0.000
UNBOUND:                 0.000

$$$$

     RDKit          3D

 27 29  0  0  0  0  0  0  0  0999 V2000
   51.3141    4.2142   18.4620 C   0  0  0  0  0  0  0  0  0  0  0  0
   49.9380    4.0899   17.9346 C   0  0  0  0  0  0  0  0  0  0  0  0
   52.2670    3.0915   18.3246 C   0  0  0  0  0  0  0  0  0  0  0  0
   49.5415    2.9033   17.3040 C   0  0  0  0  0  0  0  0  0  0  0  0
   51.8597    1.9095   17.6921 C   0  0  0  0  0  0  0  0  0  0  0  0
   50.4717    1.7319   17.1384 C   0  0  0  0  0  0  0  0  0  0  0  0
   51.6674    5.2552   19.0172 O   0  0  0  0  0  0  0  0  0  0  0  0
   49.0288    5.1516   18.0619 C   0  0  0  0  0  0  0  0  0  0  0  0
   53.5744    3.2031   18.8230 C   0  0  0  0  0  0  0  0  0  0  0  0
   48.2295    2.8014   16.8081 C   0  0  0  0  0  0  0  0  0  0  0  0
   52.7780    0.8517   17.5696 C   0  0  0  0  0  0  0  0  0  0  0  0
   49.3430    6.3403   18.6649 O   0  0  0  0  0  0  0  0  0  0  0  0
   54.0444    4.3250   19.4521 O   0  0  0  0  0  0  0  0  0  0  0  0
   47.3324    3.8624   16.9392 C   0  0  0  0  0  0  0  0  0  0  0  0
   54.0760    0.9717   18.0683 C   0  0  0  0  0  0  0  0  0  0  0  0
   47.7330    5.0387   17.5670 C   0  0  0  0  0  0  0  0  0  0  0  0
   54.4741    2.1491   18.6956 C   0  0  0  0  0  0  0  0  0  0  0  0
   50.0168    0.8637   17.6324 H   0  0  0  0  0  0  0  0  0  0  0  0
   50.5584    1.5153   16.0658 H   0  0  0  0  0  0  0  0  0  0  0  0
   47.8981    1.8893   16.3142 H   0  0  0  0  0  0  0  0  0  0  0  0
   52.4848   -0.0768   17.0821 H   0  0  0  0  0  0  0  0  0  0  0  0
   50.2773    6.2862   18.9654 H   0  0  0  0  0  0  0  0  0  0  0  0
   53.3154    4.9839   19.4741 H   0  0  0  0  0  0  0  0  0  0  0  0
   46.3201    3.7732   16.5521 H   0  0  0  0  0  0  0  0  0  0  0  0
   54.7783    0.1475   17.9683 H   0  0  0  0  0  0  0  0  0  0  0  0
   47.0388    5.8684   17.6720 H   0  0  0  0  0  0  0  0  0  0  0  0
   55.4837    2.2484   19.0860 H   0  0  0  0  0  0  0  0  0  0  0  0
  2  1  1  0
  3  1  1  0
  4  2  2  0
  5  3  2  0
  6  5  1  0
  7  1  2  0
  8  2  1  0
  9  3  1  0
 10  4  1  0
 11  5  1  0
 12  8  1  0
 13  9  1  0
 14 16  1  0
 15 17  1  0
 16  8  2  0
 17  9  2  0
  4  6  1  0
 11 15  2  0
 10 14  2  0
  6 18  1  0
  6 19  1  0
 10 20  1  0
 11 21  1  0
 12 22  1  0
 13 23  1  0
 14 24  1  0
 15 25  1  0
 16 26  1  0
 17 27  1  0
M  END
> <Uni-Dock RESULT> 
ENERGY=   -4.206  LOWER_BOUND=   10.535  UPPER_BOUND=   11.783
INTER + INTRA:          -4.206
INTER:                  -4.206
INTRA:                   0.000
UNBOUND:                 0.000

$$$$

     RDKit          3D

 27 29  0  0  0  0  0  0  0  0999 V2000
   47.9115    7.2335   20.0864 C   0  0  0  0  0  0  0  0  0  0  0  0
   47.7024    6.9257   21.5177 C   0  0  0  0  0  0  0  0  0  0  0  0
   47.7879    8.6246   19.5995 C   0  0  0  0  0  0  0  0  0  0  0  0
   47.3867    7.9584   22.4103 C   0  0  0  0  0  0  0  0  0  0  0  0
   47.4717    9.6495   20.5010 C   0  0  0  0  0  0  0  0  0  0  0  0
   47.2493    9.3899   21.9666 C   0  0  0  0  0  0  0  0  0  0  0  0
   48.1892    6.3293   19.2978 O   0  0  0  0  0  0  0  0  0  0  0  0
   47.8182    5.6076   21.9861 C   0  0  0  0  0  0  0  0  0  0  0  0
   47.9850    8.9234   18.2423 C   0  0  0  0  0  0  0  0  0  0  0  0
   47.1910    7.6487   23.7680 C   0  0  0  0  0  0  0  0  0  0  0  0
   47.3580   10.9666   20.0219 C   0  0  0  0  0  0  0  0  0  0  0  0
   48.1236    4.5473   21.1752 O   0  0  0  0  0  0  0  0  0  0  0  0
   48.2961    7.9767   17.3031 O   0  0  0  0  0  0  0  0  0  0  0  0
   47.3083    6.3351   24.2247 C   0  0  0  0  0  0  0  0  0  0  0  0
   47.5557   11.2543   18.6706 C   0  0  0  0  0  0  0  0  0  0  0  0
   47.6222    5.3137   23.3322 C   0  0  0  0  0  0  0  0  0  0  0  0
   47.8697   10.2311   17.7802 C   0  0  0  0  0  0  0  0  0  0  0  0
   46.2375    9.7298   22.2227 H   0  0  0  0  0  0  0  0  0  0  0  0
   47.9716    9.9923   22.5324 H   0  0  0  0  0  0  0  0  0  0  0  0
   46.9448    8.4342   24.4808 H   0  0  0  0  0  0  0  0  0  0  0  0
   47.1132   11.7800   20.7032 H   0  0  0  0  0  0  0  0  0  0  0  0
   48.2348    4.8912   20.2612 H   0  0  0  0  0  0  0  0  0  0  0  0
   48.3462    7.1074   17.7589 H   0  0  0  0  0  0  0  0  0  0  0  0
   47.1550    6.1065   25.2767 H   0  0  0  0  0  0  0  0  0  0  0  0
   47.4654   12.2763   18.3105 H   0  0  0  0  0  0  0  0  0  0  0  0
   47.7149    4.2888   23.6820 H   0  0  0  0  0  0  0  0  0  0  0  0
   48.0249   10.4490   16.7267 H   0  0  0  0  0  0  0  0  0  0  0  0
  2  1  1  0
  3  1  1  0
  4  2  2  0
  5  3  2  0
  6  5  1  0
  7  1  2  0
  8  2  1  0
  9  3  1  0
 10  4  1  0
 11  5  1  0
 12  8  1  0
 13  9  1  0
 14 16  1  0
 15 17  1  0
 16  8  2  0
 17  9  2  0
  4  6  1  0
 11 15  2  0
 10 14  2  0
  6 18  1  0
  6 19  1  0
 10 20  1  0
 11 21  1  0
 12 22  1  0
 13 23  1  0
 14 24  1  0
 15 25  1  0
 16 26  1  0
 17 27  1  0
M  END
> <Uni-Dock RESULT> 
ENERGY=   -4.009  LOWER_BOUND=   11.300  UPPER_BOUND=   13.454
INTER + INTRA:          -4.009
INTER:                  -4.009
INTRA:                   0.000
UNBOUND:                 0.000

$$$$
