
     RDKit          3D

 69 68  0  0  0  0  0  0  0  0999 V2000
   46.1646    6.7551   11.9185 O   0  0  0  0  0  0  0  0  0  0  0  0
   44.9146    3.3362    9.8989 C   0  0  0  0  0  0  0  0  0  0  0  0
   44.9304    5.1518   11.6784 C   0  0  0  0  0  0  0  0  0  0  0  0
   44.8067    3.6609   11.4062 C   0  0  1  0  0  0  0  0  0  0  0  0
   45.7872    5.6077   12.6912 C   0  0  0  0  0  0  0  0  0  0  0  0
   46.0970    3.1732    9.4711 O   0  0  0  0  0  0  0  0  0  0  0  0
   43.8237    3.2464    9.2625 O   0  0  0  0  0  0  0  0  0  0  0  0
   45.9086    6.9740   12.9485 C   0  0  0  0  0  0  0  0  0  0  0  0
   46.7461    7.3707   13.9630 O   0  0  0  0  0  0  0  0  0  0  0  0
   47.8461    8.1258   13.6180 C   0  0  0  0  0  0  0  0  0  0  0  0
   44.1791    6.0952   10.9607 C   0  0  0  0  0  0  0  0  0  0  0  0
   44.2906    7.4598   11.2353 C   0  0  0  0  0  0  0  0  0  0  0  0
   45.1545    7.9028   12.2336 C   0  0  0  0  0  0  0  0  0  0  0  0
   43.5338    3.1011   12.0352 C   0  0  0  0  0  0  0  0  0  0  0  0
   48.5305    8.0132   12.4046 C   0  0  0  0  0  0  0  0  0  0  0  0
   48.3183    9.0003   14.5965 C   0  0  0  0  0  0  0  0  0  0  0  0
   49.4422    9.7920   14.3519 C   0  0  0  0  0  0  0  0  0  0  0  0
   49.6560    8.8051   12.1595 C   0  0  0  0  0  0  0  0  0  0  0  0
   50.1078    9.6974   13.1313 C   0  0  0  0  0  0  0  0  0  0  0  0
   44.2758    4.2746   10.0209 C   0  0  0  0  0  0  0  0  0  0  0  0
   45.1733    4.8271   12.3125 C   0  0  0  0  0  0  0  0  0  0  0  0
   43.9530    4.8745   11.4069 C   0  0  1  0  0  0  0  0  0  0  0  0
   46.2893    5.6437   12.0769 C   0  0  0  0  0  0  0  0  0  0  0  0
   44.1198    3.0193    9.9353 O   0  0  0  0  0  0  0  0  0  0  0  0
   44.6232    5.0935    9.1194 O   0  0  0  0  0  0  0  0  0  0  0  0
   47.3869    5.6036   12.9399 C   0  0  0  0  0  0  0  0  0  0  0  0
   48.5089    6.3753   12.7414 O   0  0  0  0  0  0  0  0  0  0  0  0
   48.3224    7.7256   12.5585 C   0  0  0  0  0  0  0  0  0  0  0  0
   45.2022    3.9453   13.4043 C   0  0  0  0  0  0  0  0  0  0  0  0
   46.3132    3.8868   14.2472 C   0  0  0  0  0  0  0  0  0  0  0  0
   47.4090    4.7128   14.0120 C   0  0  0  0  0  0  0  0  0  0  0  0
   43.3715    6.2855   11.3100 C   0  0  0  0  0  0  0  0  0  0  0  0
   47.4617    8.4906   13.3513 C   0  0  0  0  0  0  0  0  0  0  0  0
   49.0912    8.3376   11.5711 C   0  0  0  0  0  0  0  0  0  0  0  0
   47.3425    9.8613   13.1260 C   0  0  0  0  0  0  0  0  0  0  0  0
   48.9691    9.7088   11.3445 C   0  0  0  0  0  0  0  0  0  0  0  0
   48.0924   10.4699   12.1192 C   0  0  0  0  0  0  0  0  0  0  0  0
   46.2879    6.5354   12.2268 Ca  0  0  0  0  0 15  0  0  0  0  0  0
   46.1680    6.7581   11.9194 O   0  0  0  0  0  0  0  0  0  0  0  0
   46.9062    6.9294   12.5174 H   0  0  0  0  0  0  0  0  0  0  0  0
   45.7929    5.9217   12.2445 H   0  0  0  0  0  0  0  0  0  0  0  0
   45.6541    3.1469   11.8804 H   0  0  0  0  0  0  0  0  0  0  0  0
   46.3720    4.8979   13.2677 H   0  0  0  0  0  0  0  0  0  0  0  0
   43.4998    5.7604   10.1768 H   0  0  0  0  0  0  0  0  0  0  0  0
   43.7020    8.1711   10.6640 H   0  0  0  0  0  0  0  0  0  0  0  0
   45.2391    8.9620   12.4505 H   0  0  0  0  0  0  0  0  0  0  0  0
   42.6314    3.6081   11.6685 H   0  0  0  0  0  0  0  0  0  0  0  0
   43.4312    2.0330   11.8120 H   0  0  0  0  0  0  0  0  0  0  0  0
   43.5561    3.2166   13.1255 H   0  0  0  0  0  0  0  0  0  0  0  0
   48.2012    7.3151   11.6409 H   0  0  0  0  0  0  0  0  0  0  0  0
   47.8034    9.0703   15.5501 H   0  0  0  0  0  0  0  0  0  0  0  0
   49.7976   10.4813   15.1135 H   0  0  0  0  0  0  0  0  0  0  0  0
   50.1698    8.7240   11.2075 H   0  0  0  0  0  0  0  0  0  0  0  0
   50.9826   10.3134   12.9397 H   0  0  0  0  0  0  0  0  0  0  0  0
   43.1657    4.2465   11.8464 H   0  0  0  0  0  0  0  0  0  0  0  0
   46.3010    6.2962   11.2056 H   0  0  0  0  0  0  0  0  0  0  0  0
   44.3594    3.2810   13.5831 H   0  0  0  0  0  0  0  0  0  0  0  0
   46.3242    3.1865   15.0758 H   0  0  0  0  0  0  0  0  0  0  0  0
   48.2794    4.6622   14.6563 H   0  0  0  0  0  0  0  0  0  0  0  0
   44.0673    6.9993   10.8519 H   0  0  0  0  0  0  0  0  0  0  0  0
   43.1137    6.6703   12.3042 H   0  0  0  0  0  0  0  0  0  0  0  0
   42.4598    6.2838   10.6997 H   0  0  0  0  0  0  0  0  0  0  0  0
   46.8747    8.0247   14.1359 H   0  0  0  0  0  0  0  0  0  0  0  0
   49.7685    7.7415   10.9657 H   0  0  0  0  0  0  0  0  0  0  0  0
   46.6571   10.4509   13.7294 H   0  0  0  0  0  0  0  0  0  0  0  0
   49.5492   10.1785   10.5571 H   0  0  0  0  0  0  0  0  0  0  0  0
   47.9863   11.5347   11.9357 H   0  0  0  0  0  0  0  0  0  0  0  0
   45.7885    5.9251   12.2372 H   0  0  0  0  0  0  0  0  0  0  0  0
   46.9072    6.9230   12.5239 H   0  0  0  0  0  0  0  0  0  0  0  0
  3  4  1  0
  4  2  1  0
  5  3  2  0
  6  2  1  0
  7  2  2  0
  8  5  1  0
  9  8  1  0
 10  9  1  0
 11  3  1  0
 12 11  2  0
 13  8  2  0
 14  4  1  0
 15 10  2  0
 16 10  1  0
 17 16  2  0
 18 15  1  0
 19 17  1  0
 12 13  1  0
 18 19  2  0
 21 22  1  0
 22 20  1  0
 23 21  2  0
 24 20  1  0
 25 20  2  0
 26 23  1  0
 27 26  1  0
 28 27  1  0
 29 21  1  0
 30 29  2  0
 31 26  2  0
 32 22  1  0
 33 28  2  0
 34 28  1  0
 35 33  1  0
 36 34  2  0
 37 36  1  0
 30 31  1  0
 35 37  2  0
  1 40  1  0
  1 41  1  0
  4 42  1  6
  5 43  1  0
 11 44  1  0
 12 45  1  0
 13 46  1  0
 14 47  1  0
 14 48  1  0
 14 49  1  0
 15 50  1  0
 16 51  1  0
 17 52  1  0
 18 53  1  0
 19 54  1  0
 22 55  1  1
 23 56  1  0
 29 57  1  0
 30 58  1  0
 31 59  1  0
 32 60  1  0
 32 61  1  0
 32 62  1  0
 33 63  1  0
 34 64  1  0
 35 65  1  0
 36 66  1  0
 37 67  1  0
 39 68  1  0
 39 69  1  0
M  CHG  3   6  -1  24  -1  38   2
M  END
> <Uni-Dock RESULT> 
ENERGY=   -5.735  LOWER_BOUND=    0.000  UPPER_BOUND=    0.000
INTER + INTRA:          -5.735
INTER:                  -5.735
INTRA:                   0.000
UNBOUND:                 0.000

$$$$

     RDKit          3D

 69 68  0  0  0  0  0  0  0  0999 V2000
   48.3221    9.0146   20.4095 O   0  0  0  0  0  0  0  0  0  0  0  0
   49.9330    5.4032   21.7105 C   0  0  0  0  0  0  0  0  0  0  0  0
   48.1502    7.1361   21.1796 C   0  0  0  0  0  0  0  0  0  0  0  0
   48.6492    6.1168   22.1917 C   0  0  1  0  0  0  0  0  0  0  0  0
   47.7931    8.4243   21.6045 C   0  0  0  0  0  0  0  0  0  0  0  0
   51.0144    6.0025   21.9917 O   0  0  0  0  0  0  0  0  0  0  0  0
   49.7732    4.2982   21.1133 O   0  0  0  0  0  0  0  0  0  0  0  0
   47.3348    9.3676   20.6837 C   0  0  0  0  0  0  0  0  0  0  0  0
   46.9794   10.6100   21.1505 O   0  0  0  0  0  0  0  0  0  0  0  0
   47.7213   11.6867   20.7152 C   0  0  0  0  0  0  0  0  0  0  0  0
   48.0025    6.8129   19.8220 C   0  0  0  0  0  0  0  0  0  0  0  0
   47.5256    7.7549   18.9082 C   0  0  0  0  0  0  0  0  0  0  0  0
   47.1870    9.0354   19.3382 C   0  0  0  0  0  0  0  0  0  0  0  0
   47.5396    5.1367   22.5628 C   0  0  0  0  0  0  0  0  0  0  0  0
   49.0809   11.6300   20.3963 C   0  0  0  0  0  0  0  0  0  0  0  0
   47.0530   12.9099   20.6675 C   0  0  0  0  0  0  0  0  0  0  0  0
   47.7246   14.0651   20.2619 C   0  0  0  0  0  0  0  0  0  0  0  0
   49.7536   12.7863   19.9909 C   0  0  0  0  0  0  0  0  0  0  0  0
   49.0737   14.0017   19.9191 C   0  0  0  0  0  0  0  0  0  0  0  0
   49.2209    5.5015   20.8234 C   0  0  0  0  0  0  0  0  0  0  0  0
   47.8992    7.3936   21.8409 C   0  0  0  0  0  0  0  0  0  0  0  0
   47.8302    6.1597   20.9552 C   0  0  1  0  0  0  0  0  0  0  0  0
   48.5530    8.5603   21.4176 C   0  0  0  0  0  0  0  0  0  0  0  0
   49.5012    4.6639   21.7331 O   0  0  0  0  0  0  0  0  0  0  0  0
   49.9101    5.8371   19.8153 O   0  0  0  0  0  0  0  0  0  0  0  0
   48.5779    9.6912   22.2371 C   0  0  0  0  0  0  0  0  0  0  0  0
   49.2184   10.8528   21.8706 O   0  0  0  0  0  0  0  0  0  0  0  0
   48.9093   11.3830   20.6398 C   0  0  0  0  0  0  0  0  0  0  0  0
   47.3105    7.3757   23.1150 C   0  0  0  0  0  0  0  0  0  0  0  0
   47.3633    8.4981   23.9431 C   0  0  0  0  0  0  0  0  0  0  0  0
   48.0022    9.6554   23.5062 C   0  0  0  0  0  0  0  0  0  0  0  0
   47.2013    6.4701   19.5962 C   0  0  0  0  0  0  0  0  0  0  0  0
   47.5989   11.4976   20.1663 C   0  0  0  0  0  0  0  0  0  0  0  0
   49.9705   11.8777   19.8849 C   0  0  0  0  0  0  0  0  0  0  0  0
   47.3578   12.0709   18.9185 C   0  0  0  0  0  0  0  0  0  0  0  0
   49.7284   12.4486   18.6352 C   0  0  0  0  0  0  0  0  0  0  0  0
   48.4228   12.5420   18.1504 C   0  0  0  0  0  0  0  0  0  0  0  0
   48.2185    9.1097   20.7821 Ca  0  0  0  0  0 15  0  0  0  0  0  0
   48.3227    9.0191   20.4087 O   0  0  0  0  0  0  0  0  0  0  0  0
   48.2771    9.8956   20.8106 H   0  0  0  0  0  0  0  0  0  0  0  0
   48.0562    8.4188   21.1261 H   0  0  0  0  0  0  0  0  0  0  0  0
   48.9329    6.6466   23.1115 H   0  0  0  0  0  0  0  0  0  0  0  0
   47.8885    8.6967   22.6509 H   0  0  0  0  0  0  0  0  0  0  0  0
   48.2647    5.8138   19.4737 H   0  0  0  0  0  0  0  0  0  0  0  0
   47.4236    7.4827   17.8621 H   0  0  0  0  0  0  0  0  0  0  0  0
   46.8128    9.7668   18.6302 H   0  0  0  0  0  0  0  0  0  0  0  0
   47.1431    4.6067   21.6866 H   0  0  0  0  0  0  0  0  0  0  0  0
   47.9099    4.3848   23.2690 H   0  0  0  0  0  0  0  0  0  0  0  0
   46.7014    5.6606   23.0376 H   0  0  0  0  0  0  0  0  0  0  0  0
   49.6301   10.6954   20.4583 H   0  0  0  0  0  0  0  0  0  0  0  0
   46.0030   12.9610   20.9401 H   0  0  0  0  0  0  0  0  0  0  0  0
   47.1949   15.0132   20.2142 H   0  0  0  0  0  0  0  0  0  0  0  0
   50.8046   12.7289   19.7277 H   0  0  0  0  0  0  0  0  0  0  0  0
   49.5973   14.9002   19.6031 H   0  0  0  0  0  0  0  0  0  0  0  0
   47.1755    5.4195   21.4356 H   0  0  0  0  0  0  0  0  0  0  0  0
   49.0566    8.5718   20.4526 H   0  0  0  0  0  0  0  0  0  0  0  0
   46.8279    6.4688   23.4732 H   0  0  0  0  0  0  0  0  0  0  0  0
   46.9175    8.4595   24.9314 H   0  0  0  0  0  0  0  0  0  0  0  0
   48.0568   10.5256   24.1505 H   0  0  0  0  0  0  0  0  0  0  0  0
   47.7933    7.1830   19.0090 H   0  0  0  0  0  0  0  0  0  0  0  0
   46.1990    6.8981   19.7188 H   0  0  0  0  0  0  0  0  0  0  0  0
   47.1089    5.5549   18.9983 H   0  0  0  0  0  0  0  0  0  0  0  0
   46.7653   11.1331   20.7574 H   0  0  0  0  0  0  0  0  0  0  0  0
   50.9862   11.7983   20.2623 H   0  0  0  0  0  0  0  0  0  0  0  0
   46.3402   12.1400   18.5428 H   0  0  0  0  0  0  0  0  0  0  0  0
   50.5591   12.8089   18.0374 H   0  0  0  0  0  0  0  0  0  0  0  0
   48.2338   12.9740   17.1725 H   0  0  0  0  0  0  0  0  0  0  0  0
   48.0582    8.4145   21.1182 H   0  0  0  0  0  0  0  0  0  0  0  0
   48.2745    9.8955   20.8193 H   0  0  0  0  0  0  0  0  0  0  0  0
  3  4  1  0
  4  2  1  0
  5  3  2  0
  6  2  1  0
  7  2  2  0
  8  5  1  0
  9  8  1  0
 10  9  1  0
 11  3  1  0
 12 11  2  0
 13  8  2  0
 14  4  1  0
 15 10  2  0
 16 10  1  0
 17 16  2  0
 18 15  1  0
 19 17  1  0
 12 13  1  0
 18 19  2  0
 21 22  1  0
 22 20  1  0
 23 21  2  0
 24 20  1  0
 25 20  2  0
 26 23  1  0
 27 26  1  0
 28 27  1  0
 29 21  1  0
 30 29  2  0
 31 26  2  0
 32 22  1  0
 33 28  2  0
 34 28  1  0
 35 33  1  0
 36 34  2  0
 37 36  1  0
 30 31  1  0
 35 37  2  0
  1 40  1  0
  1 41  1  0
  4 42  1  6
  5 43  1  0
 11 44  1  0
 12 45  1  0
 13 46  1  0
 14 47  1  0
 14 48  1  0
 14 49  1  0
 15 50  1  0
 16 51  1  0
 17 52  1  0
 18 53  1  0
 19 54  1  0
 22 55  1  1
 23 56  1  0
 29 57  1  0
 30 58  1  0
 31 59  1  0
 32 60  1  0
 32 61  1  0
 32 62  1  0
 33 63  1  0
 34 64  1  0
 35 65  1  0
 36 66  1  0
 37 67  1  0
 39 68  1  0
 39 69  1  0
M  CHG  3   6  -1  24  -1  38   2
M  END
> <Uni-Dock RESULT> 
ENERGY=   -5.668  LOWER_BOUND=    8.015  UPPER_BOUND=    9.805
INTER + INTRA:          -5.668
INTER:                  -5.668
INTRA:                   0.000
UNBOUND:                 0.000

$$$$

     RDKit          3D

 69 68  0  0  0  0  0  0  0  0999 V2000
   48.8730    7.0229   19.3989 O   0  0  0  0  0  0  0  0  0  0  0  0
   50.9179    7.0565   15.7730 C   0  0  0  0  0  0  0  0  0  0  0  0
   48.9339    7.0564   17.3626 C   0  0  0  0  0  0  0  0  0  0  0  0
   49.5236    6.4697   16.0896 C   0  0  1  0  0  0  0  0  0  0  0  0
   48.3763    6.2069   18.3295 C   0  0  0  0  0  0  0  0  0  0  0  0
   51.8877    6.4591   16.3300 O   0  0  0  0  0  0  0  0  0  0  0  0
   50.9467    8.0457   14.9831 O   0  0  0  0  0  0  0  0  0  0  0  0
   47.8333    6.7350   19.5017 C   0  0  0  0  0  0  0  0  0  0  0  0
   47.2819    5.8644   20.4105 O   0  0  0  0  0  0  0  0  0  0  0  0
   47.8826    5.7749   21.6475 C   0  0  0  0  0  0  0  0  0  0  0  0
   48.9000    8.4413   17.5871 C   0  0  0  0  0  0  0  0  0  0  0  0
   48.3384    8.9653   18.7533 C   0  0  0  0  0  0  0  0  0  0  0  0
   47.8000    8.1121   19.7133 C   0  0  0  0  0  0  0  0  0  0  0  0
   48.5485    6.6180   14.9248 C   0  0  0  0  0  0  0  0  0  0  0  0
   49.2503    5.9524   21.8743 C   0  0  0  0  0  0  0  0  0  0  0  0
   47.0497    5.4153   22.7067 C   0  0  0  0  0  0  0  0  0  0  0  0
   47.5683    5.2753   23.9957 C   0  0  0  0  0  0  0  0  0  0  0  0
   49.7699    5.8118   23.1644 C   0  0  0  0  0  0  0  0  0  0  0  0
   48.9278    5.4784   24.2247 C   0  0  0  0  0  0  0  0  0  0  0  0
   50.2431    7.9043   16.1328 C   0  0  0  0  0  0  0  0  0  0  0  0
   48.6168    6.3759   17.3082 C   0  0  0  0  0  0  0  0  0  0  0  0
   48.7678    7.6702   16.5249 C   0  0  1  0  0  0  0  0  0  0  0  0
   49.1171    6.2495   18.6126 C   0  0  0  0  0  0  0  0  0  0  0  0
   50.5955    7.3637   15.0414 O   0  0  0  0  0  0  0  0  0  0  0  0
   50.9254    8.6308   16.9142 O   0  0  0  0  0  0  0  0  0  0  0  0
   48.9405    5.0600   19.3233 C   0  0  0  0  0  0  0  0  0  0  0  0
   49.4256    4.8849   20.5991 O   0  0  0  0  0  0  0  0  0  0  0  0
   49.1041    5.8412   21.5338 C   0  0  0  0  0  0  0  0  0  0  0  0
   47.9755    5.2730   16.7229 C   0  0  0  0  0  0  0  0  0  0  0  0
   47.8272    4.0761   17.4255 C   0  0  0  0  0  0  0  0  0  0  0  0
   48.3147    3.9673   18.7251 C   0  0  0  0  0  0  0  0  0  0  0  0
   48.1679    8.8610   17.2737 C   0  0  0  0  0  0  0  0  0  0  0  0
   47.8154    6.3636   21.6779 C   0  0  0  0  0  0  0  0  0  0  0  0
   50.1193    6.2368   22.4020 C   0  0  0  0  0  0  0  0  0  0  0  0
   47.5558    7.3122   22.6662 C   0  0  0  0  0  0  0  0  0  0  0  0
   49.8591    7.1881   23.3888 C   0  0  0  0  0  0  0  0  0  0  0  0
   48.5787    7.7284   23.5186 C   0  0  0  0  0  0  0  0  0  0  0  0
   48.7389    6.6550   19.3269 Ca  0  0  0  0  0 15  0  0  0  0  0  0
   48.8730    7.0219   19.4034 O   0  0  0  0  0  0  0  0  0  0  0  0
   48.6833    6.3205   20.0389 H   0  0  0  0  0  0  0  0  0  0  0  0
   48.6604    6.6215   18.5429 H   0  0  0  0  0  0  0  0  0  0  0  0
   49.6836    5.3934   16.2415 H   0  0  0  0  0  0  0  0  0  0  0  0
   48.3809    5.1324   18.1756 H   0  0  0  0  0  0  0  0  0  0  0  0
   49.3187    9.1188   16.8430 H   0  0  0  0  0  0  0  0  0  0  0  0
   48.3273   10.0401   18.9065 H   0  0  0  0  0  0  0  0  0  0  0  0
   47.3600    8.5180   20.6176 H   0  0  0  0  0  0  0  0  0  0  0  0
   48.2748    7.6658   14.7428 H   0  0  0  0  0  0  0  0  0  0  0  0
   48.9876    6.2221   14.0020 H   0  0  0  0  0  0  0  0  0  0  0  0
   47.6220    6.0652   15.1210 H   0  0  0  0  0  0  0  0  0  0  0  0
   49.9237    6.1998   21.0593 H   0  0  0  0  0  0  0  0  0  0  0  0
   45.9912    5.2512   22.5278 H   0  0  0  0  0  0  0  0  0  0  0  0
   46.9117    5.0077   24.8196 H   0  0  0  0  0  0  0  0  0  0  0  0
   50.8299    5.9695   23.3340 H   0  0  0  0  0  0  0  0  0  0  0  0
   49.3325    5.3700   25.2276 H   0  0  0  0  0  0  0  0  0  0  0  0
   48.2029    7.5801   15.5867 H   0  0  0  0  0  0  0  0  0  0  0  0
   49.6602    7.0798   19.0606 H   0  0  0  0  0  0  0  0  0  0  0  0
   47.6105    5.3418   15.7003 H   0  0  0  0  0  0  0  0  0  0  0  0
   47.3440    3.2289   16.9501 H   0  0  0  0  0  0  0  0  0  0  0  0
   48.2131    3.0359   19.2704 H   0  0  0  0  0  0  0  0  0  0  0  0
   48.6799    9.0658   18.2220 H   0  0  0  0  0  0  0  0  0  0  0  0
   47.1099    8.6847   17.5030 H   0  0  0  0  0  0  0  0  0  0  0  0
   48.2362    9.7710   16.6648 H   0  0  0  0  0  0  0  0  0  0  0  0
   47.0146    6.0454   21.0186 H   0  0  0  0  0  0  0  0  0  0  0  0
   51.1163    5.8187   22.2947 H   0  0  0  0  0  0  0  0  0  0  0  0
   46.5582    7.7328   22.7632 H   0  0  0  0  0  0  0  0  0  0  0  0
   50.6579    7.5143   24.0466 H   0  0  0  0  0  0  0  0  0  0  0  0
   48.3776    8.4785   24.2773 H   0  0  0  0  0  0  0  0  0  0  0  0
   48.6634    6.6301   18.5423 H   0  0  0  0  0  0  0  0  0  0  0  0
   48.6803    6.3128   20.0351 H   0  0  0  0  0  0  0  0  0  0  0  0
  3  4  1  0
  4  2  1  0
  5  3  2  0
  6  2  1  0
  7  2  2  0
  8  5  1  0
  9  8  1  0
 10  9  1  0
 11  3  1  0
 12 11  2  0
 13  8  2  0
 14  4  1  0
 15 10  2  0
 16 10  1  0
 17 16  2  0
 18 15  1  0
 19 17  1  0
 12 13  1  0
 18 19  2  0
 21 22  1  0
 22 20  1  0
 23 21  2  0
 24 20  1  0
 25 20  2  0
 26 23  1  0
 27 26  1  0
 28 27  1  0
 29 21  1  0
 30 29  2  0
 31 26  2  0
 32 22  1  0
 33 28  2  0
 34 28  1  0
 35 33  1  0
 36 34  2  0
 37 36  1  0
 30 31  1  0
 35 37  2  0
  1 40  1  0
  1 41  1  0
  4 42  1  6
  5 43  1  0
 11 44  1  0
 12 45  1  0
 13 46  1  0
 14 47  1  0
 14 48  1  0
 14 49  1  0
 15 50  1  0
 16 51  1  0
 17 52  1  0
 18 53  1  0
 19 54  1  0
 22 55  1  1
 23 56  1  0
 29 57  1  0
 30 58  1  0
 31 59  1  0
 32 60  1  0
 32 61  1  0
 32 62  1  0
 33 63  1  0
 34 64  1  0
 35 65  1  0
 36 66  1  0
 37 67  1  0
 39 68  1  0
 39 69  1  0
M  CHG  3   6  -1  24  -1  38   2
M  END
> <Uni-Dock RESULT> 
ENERGY=   -5.637  LOWER_BOUND=    6.175  UPPER_BOUND=    8.655
INTER + INTRA:          -5.637
INTER:                  -5.637
INTRA:                   0.000
UNBOUND:                 0.000

$$$$

     RDKit          3D

 69 68  0  0  0  0  0  0  0  0999 V2000
   48.0189    9.5638   19.9366 O   0  0  0  0  0  0  0  0  0  0  0  0
   49.0885   13.5778   19.6646 C   0  0  0  0  0  0  0  0  0  0  0  0
   47.7876   11.4456   19.1905 C   0  0  0  0  0  0  0  0  0  0  0  0
   48.4503   12.6735   18.5859 C   0  0  1  0  0  0  0  0  0  0  0  0
   48.0327   10.1785   18.6411 C   0  0  0  0  0  0  0  0  0  0  0  0
   50.2755   13.2692   19.9862 O   0  0  0  0  0  0  0  0  0  0  0  0
   48.3760   14.5331   20.0924 O   0  0  0  0  0  0  0  0  0  0  0  0
   47.4302    9.0451   19.1890 C   0  0  0  0  0  0  0  0  0  0  0  0
   47.6862    7.8282   18.6047 O   0  0  0  0  0  0  0  0  0  0  0  0
   48.3535    6.8895   19.3616 C   0  0  0  0  0  0  0  0  0  0  0  0
   46.9011   11.5468   20.2737 C   0  0  0  0  0  0  0  0  0  0  0  0
   46.2865   10.4115   20.8059 C   0  0  0  0  0  0  0  0  0  0  0  0
   46.5475    9.1564   20.2618 C   0  0  0  0  0  0  0  0  0  0  0  0
   47.4713   13.4305   17.6926 C   0  0  0  0  0  0  0  0  0  0  0  0
   49.3025    7.1963   20.3407 C   0  0  0  0  0  0  0  0  0  0  0  0
   48.0875    5.5554   19.0542 C   0  0  0  0  0  0  0  0  0  0  0  0
   48.7315    4.5296   19.7491 C   0  0  0  0  0  0  0  0  0  0  0  0
   49.9479    6.1697   21.0361 C   0  0  0  0  0  0  0  0  0  0  0  0
   49.6581    4.8374   20.7432 C   0  0  0  0  0  0  0  0  0  0  0  0
   48.0790   13.2113   20.0523 C   0  0  0  0  0  0  0  0  0  0  0  0
   47.9778   11.2297   18.4949 C   0  0  0  0  0  0  0  0  0  0  0  0
   47.1627   12.2912   19.2165 C   0  0  1  0  0  0  0  0  0  0  0  0
   48.6013   10.1866   19.1957 C   0  0  0  0  0  0  0  0  0  0  0  0
   48.5555   14.2025   19.4213 O   0  0  0  0  0  0  0  0  0  0  0  0
   48.2269   12.9024   21.2715 O   0  0  0  0  0  0  0  0  0  0  0  0
   49.3205    9.2064   18.5079 C   0  0  0  0  0  0  0  0  0  0  0  0
   49.9602    8.1729   19.1532 O   0  0  0  0  0  0  0  0  0  0  0  0
   49.2205    7.4303   20.0437 C   0  0  0  0  0  0  0  0  0  0  0  0
   48.1272   11.2882   17.1005 C   0  0  0  0  0  0  0  0  0  0  0  0
   48.8717   10.3235   16.4198 C   0  0  0  0  0  0  0  0  0  0  0  0
   49.4735    9.2844   17.1244 C   0  0  0  0  0  0  0  0  0  0  0  0
   46.0386   11.6752   20.0503 C   0  0  0  0  0  0  0  0  0  0  0  0
   47.9285    6.9734   19.7670 C   0  0  0  0  0  0  0  0  0  0  0  0
   49.8435    7.0815   21.2399 C   0  0  0  0  0  0  0  0  0  0  0  0
   47.2474    6.2016   20.7073 C   0  0  0  0  0  0  0  0  0  0  0  0
   49.1600    6.3115   22.1814 C   0  0  0  0  0  0  0  0  0  0  0  0
   47.8609    5.8747   21.9168 C   0  0  0  0  0  0  0  0  0  0  0  0
   48.1446    9.4987   19.5644 Ca  0  0  0  0  0 15  0  0  0  0  0  0
   48.0201    9.5595   19.9377 O   0  0  0  0  0  0  0  0  0  0  0  0
   48.4067    8.7549   19.5701 H   0  0  0  0  0  0  0  0  0  0  0  0
   48.0082   10.1774   19.1866 H   0  0  0  0  0  0  0  0  0  0  0  0
   49.2814   12.3440   17.9472 H   0  0  0  0  0  0  0  0  0  0  0  0
   48.7066   10.0741   17.7966 H   0  0  0  0  0  0  0  0  0  0  0  0
   46.6894   12.5238   20.7081 H   0  0  0  0  0  0  0  0  0  0  0  0
   45.6073   10.5143   21.6467 H   0  0  0  0  0  0  0  0  0  0  0  0
   46.0678    8.2744   20.6717 H   0  0  0  0  0  0  0  0  0  0  0  0
   46.5687   13.7415   18.2354 H   0  0  0  0  0  0  0  0  0  0  0  0
   47.9417   14.3314   17.2823 H   0  0  0  0  0  0  0  0  0  0  0  0
   47.1501   12.8053   16.8510 H   0  0  0  0  0  0  0  0  0  0  0  0
   49.5505    8.2274   20.5738 H   0  0  0  0  0  0  0  0  0  0  0  0
   47.3696    5.3149   18.2756 H   0  0  0  0  0  0  0  0  0  0  0  0
   48.5101    3.4916   19.5140 H   0  0  0  0  0  0  0  0  0  0  0  0
   50.6696    6.4177   21.8072 H   0  0  0  0  0  0  0  0  0  0  0  0
   50.1598    4.0397   21.2848 H   0  0  0  0  0  0  0  0  0  0  0  0
   46.6755   12.9291   18.4661 H   0  0  0  0  0  0  0  0  0  0  0  0
   48.5353   10.1567   20.2818 H   0  0  0  0  0  0  0  0  0  0  0  0
   47.6785   12.1084   16.5441 H   0  0  0  0  0  0  0  0  0  0  0  0
   48.9903   10.3951   15.3438 H   0  0  0  0  0  0  0  0  0  0  0  0
   50.0632    8.5397   16.6019 H   0  0  0  0  0  0  0  0  0  0  0  0
   46.4135   11.0360   20.8593 H   0  0  0  0  0  0  0  0  0  0  0  0
   45.3804   11.0605   19.4243 H   0  0  0  0  0  0  0  0  0  0  0  0
   45.4296   12.4613   20.5136 H   0  0  0  0  0  0  0  0  0  0  0  0
   47.4443    7.2238   18.8289 H   0  0  0  0  0  0  0  0  0  0  0  0
   50.8525    7.4279   21.4455 H   0  0  0  0  0  0  0  0  0  0  0  0
   46.2350    5.8649   20.4993 H   0  0  0  0  0  0  0  0  0  0  0  0
   49.6374    6.0636   23.1236 H   0  0  0  0  0  0  0  0  0  0  0  0
   47.3227    5.2865   22.6537 H   0  0  0  0  0  0  0  0  0  0  0  0
   48.0048   10.1810   19.1943 H   0  0  0  0  0  0  0  0  0  0  0  0
   48.4089    8.7557   19.5613 H   0  0  0  0  0  0  0  0  0  0  0  0
  3  4  1  0
  4  2  1  0
  5  3  2  0
  6  2  1  0
  7  2  2  0
  8  5  1  0
  9  8  1  0
 10  9  1  0
 11  3  1  0
 12 11  2  0
 13  8  2  0
 14  4  1  0
 15 10  2  0
 16 10  1  0
 17 16  2  0
 18 15  1  0
 19 17  1  0
 12 13  1  0
 18 19  2  0
 21 22  1  0
 22 20  1  0
 23 21  2  0
 24 20  1  0
 25 20  2  0
 26 23  1  0
 27 26  1  0
 28 27  1  0
 29 21  1  0
 30 29  2  0
 31 26  2  0
 32 22  1  0
 33 28  2  0
 34 28  1  0
 35 33  1  0
 36 34  2  0
 37 36  1  0
 30 31  1  0
 35 37  2  0
  1 40  1  0
  1 41  1  0
  4 42  1  6
  5 43  1  0
 11 44  1  0
 12 45  1  0
 13 46  1  0
 14 47  1  0
 14 48  1  0
 14 49  1  0
 15 50  1  0
 16 51  1  0
 17 52  1  0
 18 53  1  0
 19 54  1  0
 22 55  1  1
 23 56  1  0
 29 57  1  0
 30 58  1  0
 31 59  1  0
 32 60  1  0
 32 61  1  0
 32 62  1  0
 33 63  1  0
 34 64  1  0
 35 65  1  0
 36 66  1  0
 37 67  1  0
 39 68  1  0
 39 69  1  0
M  CHG  3   6  -1  24  -1  38   2
M  END
> <Uni-Dock RESULT> 
ENERGY=   -5.568  LOWER_BOUND=    6.995  UPPER_BOUND=   10.053
INTER + INTRA:          -5.568
INTER:                  -5.568
INTRA:                   0.000
UNBOUND:                 0.000

$$$$

     RDKit          3D

 69 68  0  0  0  0  0  0  0  0999 V2000
   48.8228    8.5860   18.4462 O   0  0  0  0  0  0  0  0  0  0  0  0
   51.0962    5.1065   18.2122 C   0  0  0  0  0  0  0  0  0  0  0  0
   49.0487    6.6031   18.0358 C   0  0  0  0  0  0  0  0  0  0  0  0
   49.5832    5.2543   18.4912 C   0  0  1  0  0  0  0  0  0  0  0  0
   48.2350    7.3573   18.8941 C   0  0  0  0  0  0  0  0  0  0  0  0
   51.8538    5.5564   19.1240 O   0  0  0  0  0  0  0  0  0  0  0  0
   51.4160    4.5388   17.1265 O   0  0  0  0  0  0  0  0  0  0  0  0
   47.7399    8.5967   18.4862 C   0  0  0  0  0  0  0  0  0  0  0  0
   46.9318    9.2898   19.3548 O   0  0  0  0  0  0  0  0  0  0  0  0
   47.3967   10.4988   19.8252 C   0  0  0  0  0  0  0  0  0  0  0  0
   49.3206    7.1074   16.7547 C   0  0  0  0  0  0  0  0  0  0  0  0
   48.8071    8.3396   16.3451 C   0  0  0  0  0  0  0  0  0  0  0  0
   48.0116    9.0868   17.2101 C   0  0  0  0  0  0  0  0  0  0  0  0
   48.7635    4.1171   17.8876 C   0  0  0  0  0  0  0  0  0  0  0  0
   48.7461   10.7973   20.0337 C   0  0  0  0  0  0  0  0  0  0  0  0
   46.4229   11.4362   20.1686 C   0  0  0  0  0  0  0  0  0  0  0  0
   46.7924   12.6832   20.6770 C   0  0  0  0  0  0  0  0  0  0  0  0
   49.1164   12.0452   20.5432 C   0  0  0  0  0  0  0  0  0  0  0  0
   48.1396   12.9889   20.8596 C   0  0  0  0  0  0  0  0  0  0  0  0
   50.6112    5.6136   17.3115 C   0  0  0  0  0  0  0  0  0  0  0  0
   48.5872    6.4002   18.5948 C   0  0  0  0  0  0  0  0  0  0  0  0
   49.0960    5.9055   17.2502 C   0  0  1  0  0  0  0  0  0  0  0  0
   48.9409    7.6646   19.0888 C   0  0  0  0  0  0  0  0  0  0  0  0
   50.9123    4.4449   17.7003 O   0  0  0  0  0  0  0  0  0  0  0  0
   51.3807    6.5476   16.9383 O   0  0  0  0  0  0  0  0  0  0  0  0
   48.4373    8.1091   20.3135 C   0  0  0  0  0  0  0  0  0  0  0  0
   48.7672    9.3350   20.8447 O   0  0  0  0  0  0  0  0  0  0  0  0
   48.6052   10.4370   20.0379 C   0  0  0  0  0  0  0  0  0  0  0  0
   47.7546    5.5815   19.3736 C   0  0  0  0  0  0  0  0  0  0  0  0
   47.2774    6.0174   20.6107 C   0  0  0  0  0  0  0  0  0  0  0  0
   47.6232    7.2803   21.0840 C   0  0  0  0  0  0  0  0  0  0  0  0
   48.7331    6.8659   16.1169 C   0  0  0  0  0  0  0  0  0  0  0  0
   47.4662   10.6481   19.2552 C   0  0  0  0  0  0  0  0  0  0  0  0
   49.6135   11.3975   20.0772 C   0  0  0  0  0  0  0  0  0  0  0  0
   47.3581   11.8027   18.4813 C   0  0  0  0  0  0  0  0  0  0  0  0
   49.5056   12.5513   19.3002 C   0  0  0  0  0  0  0  0  0  0  0  0
   48.3800   12.7522   18.4997 C   0  0  0  0  0  0  0  0  0  0  0  0
   48.6128    8.4358   18.7492 Ca  0  0  0  0  0 15  0  0  0  0  0  0
   48.8223    8.5902   18.4480 O   0  0  0  0  0  0  0  0  0  0  0  0
   48.4255    9.0616   19.1911 H   0  0  0  0  0  0  0  0  0  0  0  0
   48.5902    7.6598   18.6105 H   0  0  0  0  0  0  0  0  0  0  0  0
   49.4760    5.1855   19.5825 H   0  0  0  0  0  0  0  0  0  0  0  0
   48.0014    6.9851   19.8867 H   0  0  0  0  0  0  0  0  0  0  0  0
   49.9424    6.5317   16.0691 H   0  0  0  0  0  0  0  0  0  0  0  0
   49.0345    8.7109   15.3505 H   0  0  0  0  0  0  0  0  0  0  0  0
   47.6089   10.0421   16.8918 H   0  0  0  0  0  0  0  0  0  0  0  0
   48.7562    4.1473   16.7899 H   0  0  0  0  0  0  0  0  0  0  0  0
   49.1692    3.1457   18.1927 H   0  0  0  0  0  0  0  0  0  0  0  0
   47.7214    4.1678   18.2251 H   0  0  0  0  0  0  0  0  0  0  0  0
   49.5201   10.0709   19.8052 H   0  0  0  0  0  0  0  0  0  0  0  0
   45.3725   11.1964   20.0320 H   0  0  0  0  0  0  0  0  0  0  0  0
   46.0292   13.4146   20.9305 H   0  0  0  0  0  0  0  0  0  0  0  0
   50.1673   12.2747   20.6844 H   0  0  0  0  0  0  0  0  0  0  0  0
   48.4283   13.9592   21.2550 H   0  0  0  0  0  0  0  0  0  0  0  0
   48.6007    4.9528   17.0169 H   0  0  0  0  0  0  0  0  0  0  0  0
   49.6257    8.2899   18.5186 H   0  0  0  0  0  0  0  0  0  0  0  0
   47.4966    4.5848   19.0217 H   0  0  0  0  0  0  0  0  0  0  0  0
   46.6489    5.3635   21.2063 H   0  0  0  0  0  0  0  0  0  0  0  0
   47.2653    7.6185   22.0498 H   0  0  0  0  0  0  0  0  0  0  0  0
   49.2030    7.8507   16.2301 H   0  0  0  0  0  0  0  0  0  0  0  0
   47.6486    7.0229   16.0708 H   0  0  0  0  0  0  0  0  0  0  0  0
   49.0587    6.4602   15.1510 H   0  0  0  0  0  0  0  0  0  0  0  0
   46.6673    9.9141   19.2351 H   0  0  0  0  0  0  0  0  0  0  0  0
   50.4911   11.2355   20.6967 H   0  0  0  0  0  0  0  0  0  0  0  0
   46.4814   11.9552   17.8572 H   0  0  0  0  0  0  0  0  0  0  0  0
   50.3045   13.2853   19.3119 H   0  0  0  0  0  0  0  0  0  0  0  0
   48.3004   13.6431   17.8844 H   0  0  0  0  0  0  0  0  0  0  0  0
   48.5951    7.6610   18.6029 H   0  0  0  0  0  0  0  0  0  0  0  0
   48.4211    9.0561   19.1969 H   0  0  0  0  0  0  0  0  0  0  0  0
  3  4  1  0
  4  2  1  0
  5  3  2  0
  6  2  1  0
  7  2  2  0
  8  5  1  0
  9  8  1  0
 10  9  1  0
 11  3  1  0
 12 11  2  0
 13  8  2  0
 14  4  1  0
 15 10  2  0
 16 10  1  0
 17 16  2  0
 18 15  1  0
 19 17  1  0
 12 13  1  0
 18 19  2  0
 21 22  1  0
 22 20  1  0
 23 21  2  0
 24 20  1  0
 25 20  2  0
 26 23  1  0
 27 26  1  0
 28 27  1  0
 29 21  1  0
 30 29  2  0
 31 26  2  0
 32 22  1  0
 33 28  2  0
 34 28  1  0
 35 33  1  0
 36 34  2  0
 37 36  1  0
 30 31  1  0
 35 37  2  0
  1 40  1  0
  1 41  1  0
  4 42  1  6
  5 43  1  0
 11 44  1  0
 12 45  1  0
 13 46  1  0
 14 47  1  0
 14 48  1  0
 14 49  1  0
 15 50  1  0
 16 51  1  0
 17 52  1  0
 18 53  1  0
 19 54  1  0
 22 55  1  1
 23 56  1  0
 29 57  1  0
 30 58  1  0
 31 59  1  0
 32 60  1  0
 32 61  1  0
 32 62  1  0
 33 63  1  0
 34 64  1  0
 35 65  1  0
 36 66  1  0
 37 67  1  0
 39 68  1  0
 39 69  1  0
M  CHG  3   6  -1  24  -1  38   2
M  END
> <Uni-Dock RESULT> 
ENERGY=   -5.244  LOWER_BOUND=    6.145  UPPER_BOUND=    8.005
INTER + INTRA:          -5.244
INTER:                  -5.244
INTRA:                   0.000
UNBOUND:                 0.000

$$$$

     RDKit          3D

 69 68  0  0  0  0  0  0  0  0999 V2000
   48.6739    9.8967   18.4969 O   0  0  0  0  0  0  0  0  0  0  0  0
   49.0399   12.5492   21.6844 C   0  0  0  0  0  0  0  0  0  0  0  0
   47.9074   11.2423   19.8209 C   0  0  0  0  0  0  0  0  0  0  0  0
   48.0507   12.5964   20.4978 C   0  0  1  0  0  0  0  0  0  0  0  0
   47.9802   11.1494   18.4232 C   0  0  0  0  0  0  0  0  0  0  0  0
   50.2553   12.7332   21.3740 O   0  0  0  0  0  0  0  0  0  0  0  0
   48.5365   12.3564   22.8301 O   0  0  0  0  0  0  0  0  0  0  0  0
   47.8508    9.9114   17.7922 C   0  0  0  0  0  0  0  0  0  0  0  0
   47.9105    9.8737   16.4200 O   0  0  0  0  0  0  0  0  0  0  0  0
   48.9593    9.1851   15.8499 C   0  0  0  0  0  0  0  0  0  0  0  0
   47.6680   10.0729   20.5590 C   0  0  0  0  0  0  0  0  0  0  0  0
   47.5205    8.8396   19.9210 C   0  0  0  0  0  0  0  0  0  0  0  0
   47.6085    8.7564   18.5336 C   0  0  0  0  0  0  0  0  0  0  0  0
   46.6846   13.1477   20.8969 C   0  0  0  0  0  0  0  0  0  0  0  0
   50.2302    9.0709   16.4203 C   0  0  0  0  0  0  0  0  0  0  0  0
   48.7181    8.6377   14.5901 C   0  0  0  0  0  0  0  0  0  0  0  0
   49.7253    7.9412   13.9190 C   0  0  0  0  0  0  0  0  0  0  0  0
   51.2389    8.3743   15.7486 C   0  0  0  0  0  0  0  0  0  0  0  0
   50.9842    7.8058   14.5010 C   0  0  0  0  0  0  0  0  0  0  0  0
   48.3994   11.6044   21.7109 C   0  0  0  0  0  0  0  0  0  0  0  0
   47.7500   11.7386   19.2773 C   0  0  0  0  0  0  0  0  0  0  0  0
   47.2922   11.3327   20.6692 C   0  0  1  0  0  0  0  0  0  0  0  0
   48.7442   11.0196   18.5973 C   0  0  0  0  0  0  0  0  0  0  0  0
   48.3940   12.7741   22.2000 O   0  0  0  0  0  0  0  0  0  0  0  0
   49.1628   10.6327   21.9885 O   0  0  0  0  0  0  0  0  0  0  0  0
   49.1274   11.3941   17.3074 C   0  0  0  0  0  0  0  0  0  0  0  0
   50.1072   10.7282   16.6071 O   0  0  0  0  0  0  0  0  0  0  0  0
   49.9879    9.3623   16.4981 C   0  0  0  0  0  0  0  0  0  0  0  0
   47.1827   12.8599   18.6520 C   0  0  0  0  0  0  0  0  0  0  0  0
   47.5896   13.2488   17.3747 C   0  0  0  0  0  0  0  0  0  0  0  0
   48.5667   12.5185   16.7035 C   0  0  0  0  0  0  0  0  0  0  0  0
   46.8000    9.8854   20.7061 C   0  0  0  0  0  0  0  0  0  0  0  0
   48.7846    8.7251   16.1813 C   0  0  0  0  0  0  0  0  0  0  0  0
   51.1539    8.6159   16.6532 C   0  0  0  0  0  0  0  0  0  0  0  0
   48.7434    7.3367   16.0607 C   0  0  0  0  0  0  0  0  0  0  0  0
   51.1111    7.2264   16.5350 C   0  0  0  0  0  0  0  0  0  0  0  0
   49.9055    6.5866   16.2425 C   0  0  0  0  0  0  0  0  0  0  0  0
   48.6051   10.1980   18.2460 Ca  0  0  0  0  0 15  0  0  0  0  0  0
   48.6760    9.8944   18.4935 O   0  0  0  0  0  0  0  0  0  0  0  0
   48.9122    9.9598   17.5598 H   0  0  0  0  0  0  0  0  0  0  0  0
   48.2291   10.7376   18.6813 H   0  0  0  0  0  0  0  0  0  0  0  0
   48.4862   13.3032   19.7781 H   0  0  0  0  0  0  0  0  0  0  0  0
   48.1547   12.0405   17.8284 H   0  0  0  0  0  0  0  0  0  0  0  0
   47.5976   10.1256   21.6455 H   0  0  0  0  0  0  0  0  0  0  0  0
   47.3399    7.9480   20.5136 H   0  0  0  0  0  0  0  0  0  0  0  0
   47.4903    7.7998   18.0366 H   0  0  0  0  0  0  0  0  0  0  0  0
   46.1419   12.4680   21.5673 H   0  0  0  0  0  0  0  0  0  0  0  0
   46.7925   14.1093   21.4116 H   0  0  0  0  0  0  0  0  0  0  0  0
   46.0568   13.3080   20.0122 H   0  0  0  0  0  0  0  0  0  0  0  0
   50.4511    9.5175   17.3850 H   0  0  0  0  0  0  0  0  0  0  0  0
   47.7389    8.7478   14.1335 H   0  0  0  0  0  0  0  0  0  0  0  0
   49.5272    7.5055   12.9430 H   0  0  0  0  0  0  0  0  0  0  0  0
   52.2170    8.2752   16.2076 H   0  0  0  0  0  0  0  0  0  0  0  0
   51.7689    7.2638   13.9796 H   0  0  0  0  0  0  0  0  0  0  0  0
   46.4336   11.9573   20.9519 H   0  0  0  0  0  0  0  0  0  0  0  0
   49.2279   10.1779   19.0898 H   0  0  0  0  0  0  0  0  0  0  0  0
   46.4341   13.4490   19.1775 H   0  0  0  0  0  0  0  0  0  0  0  0
   47.1519   14.1285   16.9147 H   0  0  0  0  0  0  0  0  0  0  0  0
   48.8951   12.8238   15.7164 H   0  0  0  0  0  0  0  0  0  0  0  0
   47.5908    9.1633   20.4680 H   0  0  0  0  0  0  0  0  0  0  0  0
   45.9871    9.7313   19.9861 H   0  0  0  0  0  0  0  0  0  0  0  0
   46.4212    9.6343   21.7046 H   0  0  0  0  0  0  0  0  0  0  0  0
   47.8763    9.3013   16.0389 H   0  0  0  0  0  0  0  0  0  0  0  0
   52.0895    9.1163   16.8866 H   0  0  0  0  0  0  0  0  0  0  0  0
   47.8027    6.8411   15.8351 H   0  0  0  0  0  0  0  0  0  0  0  0
   52.0152    6.6451   16.6827 H   0  0  0  0  0  0  0  0  0  0  0  0
   49.8677    5.5045   16.1632 H   0  0  0  0  0  0  0  0  0  0  0  0
   48.2297   10.7321   18.6886 H   0  0  0  0  0  0  0  0  0  0  0  0
   48.9096    9.9677   17.5560 H   0  0  0  0  0  0  0  0  0  0  0  0
  3  4  1  0
  4  2  1  0
  5  3  2  0
  6  2  1  0
  7  2  2  0
  8  5  1  0
  9  8  1  0
 10  9  1  0
 11  3  1  0
 12 11  2  0
 13  8  2  0
 14  4  1  0
 15 10  2  0
 16 10  1  0
 17 16  2  0
 18 15  1  0
 19 17  1  0
 12 13  1  0
 18 19  2  0
 21 22  1  0
 22 20  1  0
 23 21  2  0
 24 20  1  0
 25 20  2  0
 26 23  1  0
 27 26  1  0
 28 27  1  0
 29 21  1  0
 30 29  2  0
 31 26  2  0
 32 22  1  0
 33 28  2  0
 34 28  1  0
 35 33  1  0
 36 34  2  0
 37 36  1  0
 30 31  1  0
 35 37  2  0
  1 40  1  0
  1 41  1  0
  4 42  1  6
  5 43  1  0
 11 44  1  0
 12 45  1  0
 13 46  1  0
 14 47  1  0
 14 48  1  0
 14 49  1  0
 15 50  1  0
 16 51  1  0
 17 52  1  0
 18 53  1  0
 19 54  1  0
 22 55  1  1
 23 56  1  0
 29 57  1  0
 30 58  1  0
 31 59  1  0
 32 60  1  0
 32 61  1  0
 32 62  1  0
 33 63  1  0
 34 64  1  0
 35 65  1  0
 36 66  1  0
 37 67  1  0
 39 68  1  0
 39 69  1  0
M  CHG  3   6  -1  24  -1  38   2
M  END
> <Uni-Dock RESULT> 
ENERGY=   -5.196  LOWER_BOUND=    5.605  UPPER_BOUND=    9.469
INTER + INTRA:          -5.196
INTER:                  -5.196
INTRA:                   0.000
UNBOUND:                 0.000

$$$$

     RDKit          3D

 69 68  0  0  0  0  0  0  0  0999 V2000
   47.2086   10.6509   11.4046 O   0  0  0  0  0  0  0  0  0  0  0  0
   49.0704    7.1446   12.6574 C   0  0  0  0  0  0  0  0  0  0  0  0
   47.6885    9.2719   12.8256 C   0  0  0  0  0  0  0  0  0  0  0  0
   48.7726    8.4239   13.4721 C   0  0  1  0  0  0  0  0  0  0  0  0
   47.8820   10.6525   12.6705 C   0  0  0  0  0  0  0  0  0  0  0  0
   49.9284    7.2868   11.7348 O   0  0  0  0  0  0  0  0  0  0  0  0
   48.4506    6.0972   13.0068 O   0  0  0  0  0  0  0  0  0  0  0  0
   46.8938   11.4397   12.0777 C   0  0  0  0  0  0  0  0  0  0  0  0
   47.1215   12.7900   11.9647 O   0  0  0  0  0  0  0  0  0  0  0  0
   47.2118   13.3133   10.6930 C   0  0  0  0  0  0  0  0  0  0  0  0
   46.4716    8.7140   12.4047 C   0  0  0  0  0  0  0  0  0  0  0  0
   45.4787    9.5096   11.8294 C   0  0  0  0  0  0  0  0  0  0  0  0
   45.6866   10.8771   11.6673 C   0  0  0  0  0  0  0  0  0  0  0  0
   48.4263    8.1227   14.9276 C   0  0  0  0  0  0  0  0  0  0  0  0
   47.7078   12.6168    9.5874 C   0  0  0  0  0  0  0  0  0  0  0  0
   46.8378   14.6497   10.5542 C   0  0  0  0  0  0  0  0  0  0  0  0
   46.9159   15.2783    9.3098 C   0  0  0  0  0  0  0  0  0  0  0  0
   47.7867   13.2459    8.3416 C   0  0  0  0  0  0  0  0  0  0  0  0
   47.3860   14.5744    8.2028 C   0  0  0  0  0  0  0  0  0  0  0  0
   47.9405    7.3076   12.6727 C   0  0  0  0  0  0  0  0  0  0  0  0
   48.1036    9.7660   13.2132 C   0  0  0  0  0  0  0  0  0  0  0  0
   47.2917    8.4964   13.4148 C   0  0  1  0  0  0  0  0  0  0  0  0
   48.1575   10.4077   11.9669 C   0  0  0  0  0  0  0  0  0  0  0  0
   48.8231    6.6843   13.3360 O   0  0  0  0  0  0  0  0  0  0  0  0
   47.5031    7.0629   11.5096 O   0  0  0  0  0  0  0  0  0  0  0  0
   48.8865   11.5892   11.8134 C   0  0  0  0  0  0  0  0  0  0  0  0
   48.9798   12.2461   10.6077 O   0  0  0  0  0  0  0  0  0  0  0  0
   47.8052   12.5331    9.9524 C   0  0  0  0  0  0  0  0  0  0  0  0
   48.8277   10.3125   14.2842 C   0  0  0  0  0  0  0  0  0  0  0  0
   49.5792   11.4771   14.1192 C   0  0  0  0  0  0  0  0  0  0  0  0
   49.6132   12.1135   12.8813 C   0  0  0  0  0  0  0  0  0  0  0  0
   45.8247    8.6928   13.0304 C   0  0  0  0  0  0  0  0  0  0  0  0
   46.6829   13.0628   10.5960 C   0  0  0  0  0  0  0  0  0  0  0  0
   47.7910   12.3349    8.5735 C   0  0  0  0  0  0  0  0  0  0  0  0
   45.5336   13.3547    9.8626 C   0  0  0  0  0  0  0  0  0  0  0  0
   46.6396   12.6247    7.8410 C   0  0  0  0  0  0  0  0  0  0  0  0
   45.5099   13.1311    8.4858 C   0  0  0  0  0  0  0  0  0  0  0  0
   47.4619   10.8698   11.6201 Ca  0  0  0  0  0 15  0  0  0  0  0  0
   47.2083   10.6543   11.4015 O   0  0  0  0  0  0  0  0  0  0  0  0
   47.5439   11.5393   11.2115 H   0  0  0  0  0  0  0  0  0  0  0  0
   47.6333   10.4190   12.2442 H   0  0  0  0  0  0  0  0  0  0  0  0
   49.7101    8.9969   13.4753 H   0  0  0  0  0  0  0  0  0  0  0  0
   48.8104   11.1105   12.9969 H   0  0  0  0  0  0  0  0  0  0  0  0
   46.2977    7.6448   12.5261 H   0  0  0  0  0  0  0  0  0  0  0  0
   44.5468    9.0546   11.5078 H   0  0  0  0  0  0  0  0  0  0  0  0
   44.9147   11.4968   11.2242 H   0  0  0  0  0  0  0  0  0  0  0  0
   47.4616    7.6075   15.0272 H   0  0  0  0  0  0  0  0  0  0  0  0
   49.1937    7.4862   15.3826 H   0  0  0  0  0  0  0  0  0  0  0  0
   48.3667    9.0485   15.5123 H   0  0  0  0  0  0  0  0  0  0  0  0
   48.0364   11.5860    9.6787 H   0  0  0  0  0  0  0  0  0  0  0  0
   46.4768   15.2004   11.4177 H   0  0  0  0  0  0  0  0  0  0  0  0
   46.6105   16.3163    9.2051 H   0  0  0  0  0  0  0  0  0  0  0  0
   48.1559   12.6916    7.4852 H   0  0  0  0  0  0  0  0  0  0  0  0
   47.4470   15.0627    7.2337 H   0  0  0  0  0  0  0  0  0  0  0  0
   47.2985    8.2421   14.4838 H   0  0  0  0  0  0  0  0  0  0  0  0
   47.6413    9.9679   11.1154 H   0  0  0  0  0  0  0  0  0  0  0  0
   48.8243    9.8103   15.2493 H   0  0  0  0  0  0  0  0  0  0  0  0
   50.1463   11.8750   14.9543 H   0  0  0  0  0  0  0  0  0  0  0  0
   50.2054   13.0113   12.7448 H   0  0  0  0  0  0  0  0  0  0  0  0
   45.6936    8.9230   11.9658 H   0  0  0  0  0  0  0  0  0  0  0  0
   45.3786    9.5159   13.6016 H   0  0  0  0  0  0  0  0  0  0  0  0
   45.2482    7.7831   13.2391 H   0  0  0  0  0  0  0  0  0  0  0  0
   46.6932   13.2390   11.6665 H   0  0  0  0  0  0  0  0  0  0  0  0
   48.6699   11.9351    8.0753 H   0  0  0  0  0  0  0  0  0  0  0  0
   44.6547   13.7467   10.3680 H   0  0  0  0  0  0  0  0  0  0  0  0
   46.6219   12.4444    6.7713 H   0  0  0  0  0  0  0  0  0  0  0  0
   44.6086   13.3449    7.9195 H   0  0  0  0  0  0  0  0  0  0  0  0
   47.6277   10.4125   12.2409 H   0  0  0  0  0  0  0  0  0  0  0  0
   47.5497   11.5424   11.2179 H   0  0  0  0  0  0  0  0  0  0  0  0
  3  4  1  0
  4  2  1  0
  5  3  2  0
  6  2  1  0
  7  2  2  0
  8  5  1  0
  9  8  1  0
 10  9  1  0
 11  3  1  0
 12 11  2  0
 13  8  2  0
 14  4  1  0
 15 10  2  0
 16 10  1  0
 17 16  2  0
 18 15  1  0
 19 17  1  0
 12 13  1  0
 18 19  2  0
 21 22  1  0
 22 20  1  0
 23 21  2  0
 24 20  1  0
 25 20  2  0
 26 23  1  0
 27 26  1  0
 28 27  1  0
 29 21  1  0
 30 29  2  0
 31 26  2  0
 32 22  1  0
 33 28  2  0
 34 28  1  0
 35 33  1  0
 36 34  2  0
 37 36  1  0
 30 31  1  0
 35 37  2  0
  1 40  1  0
  1 41  1  0
  4 42  1  6
  5 43  1  0
 11 44  1  0
 12 45  1  0
 13 46  1  0
 14 47  1  0
 14 48  1  0
 14 49  1  0
 15 50  1  0
 16 51  1  0
 17 52  1  0
 18 53  1  0
 19 54  1  0
 22 55  1  1
 23 56  1  0
 29 57  1  0
 30 58  1  0
 31 59  1  0
 32 60  1  0
 32 61  1  0
 32 62  1  0
 33 63  1  0
 34 64  1  0
 35 65  1  0
 36 66  1  0
 37 67  1  0
 39 68  1  0
 39 69  1  0
M  CHG  3   6  -1  24  -1  38   2
M  END
> <Uni-Dock RESULT> 
ENERGY=   -5.082  LOWER_BOUND=    3.286  UPPER_BOUND=    5.797
INTER + INTRA:          -5.082
INTER:                  -5.082
INTRA:                   0.000
UNBOUND:                 0.000

$$$$

     RDKit          3D

 69 68  0  0  0  0  0  0  0  0999 V2000
   48.5625    6.8642   19.1540 O   0  0  0  0  0  0  0  0  0  0  0  0
   47.8736    3.6292   16.6260 C   0  0  0  0  0  0  0  0  0  0  0  0
   49.0314    5.0282   18.4052 C   0  0  0  0  0  0  0  0  0  0  0  0
   49.2192    4.1583   17.1722 C   0  0  1  0  0  0  0  0  0  0  0  0
   49.6852    6.2662   18.4921 C   0  0  0  0  0  0  0  0  0  0  0  0
   47.2840    4.4057   15.8155 O   0  0  0  0  0  0  0  0  0  0  0  0
   47.5168    2.4810   17.0231 O   0  0  0  0  0  0  0  0  0  0  0  0
   49.5189    7.0726   19.6189 C   0  0  0  0  0  0  0  0  0  0  0  0
   50.1946    8.2681   19.6661 O   0  0  0  0  0  0  0  0  0  0  0  0
   49.4410    9.4217   19.6847 C   0  0  0  0  0  0  0  0  0  0  0  0
   48.2409    4.6101   19.4867 C   0  0  0  0  0  0  0  0  0  0  0  0
   48.0932    5.4127   20.6198 C   0  0  0  0  0  0  0  0  0  0  0  0
   48.7356    6.6464   20.6900 C   0  0  0  0  0  0  0  0  0  0  0  0
   50.2189    3.0386   17.4486 C   0  0  0  0  0  0  0  0  0  0  0  0
   48.1978    9.5613   19.0614 C   0  0  0  0  0  0  0  0  0  0  0  0
   50.0209   10.5203   20.3187 C   0  0  0  0  0  0  0  0  0  0  0  0
   49.3465   11.7419   20.3703 C   0  0  0  0  0  0  0  0  0  0  0  0
   47.5227   10.7843   19.1123 C   0  0  0  0  0  0  0  0  0  0  0  0
   48.0952   11.8719   19.7709 C   0  0  0  0  0  0  0  0  0  0  0  0
   47.8507    3.5645   17.7657 C   0  0  0  0  0  0  0  0  0  0  0  0
   49.6702    5.2798   18.0967 C   0  0  0  0  0  0  0  0  0  0  0  0
   49.0476    4.0027   18.6378 C   0  0  1  0  0  0  0  0  0  0  0  0
   48.9989    6.5091   18.1745 C   0  0  0  0  0  0  0  0  0  0  0  0
   48.1539    2.8337   16.7750 O   0  0  0  0  0  0  0  0  0  0  0  0
   46.7054    3.9470   18.1475 O   0  0  0  0  0  0  0  0  0  0  0  0
   49.6037    7.6740   17.6969 C   0  0  0  0  0  0  0  0  0  0  0  0
   48.9786    8.8993   17.7391 O   0  0  0  0  0  0  0  0  0  0  0  0
   48.4643    9.3046   18.9486 C   0  0  0  0  0  0  0  0  0  0  0  0
   50.9376    5.2413   17.4945 C   0  0  0  0  0  0  0  0  0  0  0  0
   51.5260    6.4028   16.9915 C   0  0  0  0  0  0  0  0  0  0  0  0
   50.8564    7.6197   17.0878 C   0  0  0  0  0  0  0  0  0  0  0  0
   48.6750    4.1336   20.1151 C   0  0  0  0  0  0  0  0  0  0  0  0
   49.1640    9.1852   20.1530 C   0  0  0  0  0  0  0  0  0  0  0  0
   47.2130    9.9165   18.9254 C   0  0  0  0  0  0  0  0  0  0  0  0
   48.5908    9.6426   21.3388 C   0  0  0  0  0  0  0  0  0  0  0  0
   46.6391   10.3713   20.1129 C   0  0  0  0  0  0  0  0  0  0  0  0
   47.3261   10.2311   21.3198 C   0  0  0  0  0  0  0  0  0  0  0  0
   48.8894    6.9626   18.9491 Ca  0  0  0  0  0 15  0  0  0  0  0  0
   48.5618    6.8686   19.1549 O   0  0  0  0  0  0  0  0  0  0  0  0
   48.9294    7.7483   19.0034 H   0  0  0  0  0  0  0  0  0  0  0  0
   49.1763    6.2752   18.6899 H   0  0  0  0  0  0  0  0  0  0  0  0
   49.6415    4.7768   16.3683 H   0  0  0  0  0  0  0  0  0  0  0  0
   50.3104    6.6085   17.6735 H   0  0  0  0  0  0  0  0  0  0  0  0
   47.7330    3.6466   19.4430 H   0  0  0  0  0  0  0  0  0  0  0  0
   47.4732    5.0696   21.4424 H   0  0  0  0  0  0  0  0  0  0  0  0
   48.6248    7.2690   21.5710 H   0  0  0  0  0  0  0  0  0  0  0  0
   49.9104    2.4046   18.2905 H   0  0  0  0  0  0  0  0  0  0  0  0
   50.3297    2.3950   16.5685 H   0  0  0  0  0  0  0  0  0  0  0  0
   51.2059    3.4503   17.6911 H   0  0  0  0  0  0  0  0  0  0  0  0
   47.7418    8.7295   18.5331 H   0  0  0  0  0  0  0  0  0  0  0  0
   50.9985   10.4211   20.7810 H   0  0  0  0  0  0  0  0  0  0  0  0
   49.7979   12.5909   20.8774 H   0  0  0  0  0  0  0  0  0  0  0  0
   46.5498   10.8779   18.6413 H   0  0  0  0  0  0  0  0  0  0  0  0
   47.5694   12.8223   19.8106 H   0  0  0  0  0  0  0  0  0  0  0  0
   49.7924    3.1970   18.5783 H   0  0  0  0  0  0  0  0  0  0  0  0
   47.9950    6.5453   18.5938 H   0  0  0  0  0  0  0  0  0  0  0  0
   51.4588    4.2915   17.3956 H   0  0  0  0  0  0  0  0  0  0  0  0
   52.4988    6.3503   16.5139 H   0  0  0  0  0  0  0  0  0  0  0  0
   51.3037    8.5224   16.6874 H   0  0  0  0  0  0  0  0  0  0  0  0
   47.9067    4.8965   20.2916 H   0  0  0  0  0  0  0  0  0  0  0  0
   49.5516    4.4052   20.7159 H   0  0  0  0  0  0  0  0  0  0  0  0
   48.2826    3.1832   20.4976 H   0  0  0  0  0  0  0  0  0  0  0  0
   50.1478    8.7282   20.1762 H   0  0  0  0  0  0  0  0  0  0  0  0
   46.6782   10.0188   17.9853 H   0  0  0  0  0  0  0  0  0  0  0  0
   49.1273    9.5299   22.2774 H   0  0  0  0  0  0  0  0  0  0  0  0
   45.6529   10.8234   20.0962 H   0  0  0  0  0  0  0  0  0  0  0  0
   46.8755   10.5725   22.2467 H   0  0  0  0  0  0  0  0  0  0  0  0
   49.1694    6.2708   18.6940 H   0  0  0  0  0  0  0  0  0  0  0  0
   48.9370    7.7482   18.9984 H   0  0  0  0  0  0  0  0  0  0  0  0
  3  4  1  0
  4  2  1  0
  5  3  2  0
  6  2  1  0
  7  2  2  0
  8  5  1  0
  9  8  1  0
 10  9  1  0
 11  3  1  0
 12 11  2  0
 13  8  2  0
 14  4  1  0
 15 10  2  0
 16 10  1  0
 17 16  2  0
 18 15  1  0
 19 17  1  0
 12 13  1  0
 18 19  2  0
 21 22  1  0
 22 20  1  0
 23 21  2  0
 24 20  1  0
 25 20  2  0
 26 23  1  0
 27 26  1  0
 28 27  1  0
 29 21  1  0
 30 29  2  0
 31 26  2  0
 32 22  1  0
 33 28  2  0
 34 28  1  0
 35 33  1  0
 36 34  2  0
 37 36  1  0
 30 31  1  0
 35 37  2  0
  1 40  1  0
  1 41  1  0
  4 42  1  6
  5 43  1  0
 11 44  1  0
 12 45  1  0
 13 46  1  0
 14 47  1  0
 14 48  1  0
 14 49  1  0
 15 50  1  0
 16 51  1  0
 17 52  1  0
 18 53  1  0
 19 54  1  0
 22 55  1  1
 23 56  1  0
 29 57  1  0
 30 58  1  0
 31 59  1  0
 32 60  1  0
 32 61  1  0
 32 62  1  0
 33 63  1  0
 34 64  1  0
 35 65  1  0
 36 66  1  0
 37 67  1  0
 39 68  1  0
 39 69  1  0
M  CHG  3   6  -1  24  -1  38   2
M  END
> <Uni-Dock RESULT> 
ENERGY=   -5.079  LOWER_BOUND=    5.721  UPPER_BOUND=    7.727
INTER + INTRA:          -5.079
INTER:                  -5.079
INTRA:                   0.000
UNBOUND:                 0.000

$$$$

     RDKit          3D

 69 68  0  0  0  0  0  0  0  0999 V2000
   48.6740    7.2462   17.4747 O   0  0  0  0  0  0  0  0  0  0  0  0
   48.4707    4.6911   20.7550 C   0  0  0  0  0  0  0  0  0  0  0  0
   49.0616    6.7709   19.4177 C   0  0  0  0  0  0  0  0  0  0  0  0
   49.5618    5.7285   20.4054 C   0  0  1  0  0  0  0  0  0  0  0  0
   49.8391    7.1009   18.2978 C   0  0  0  0  0  0  0  0  0  0  0  0
   48.4002    3.7030   19.9637 O   0  0  0  0  0  0  0  0  0  0  0  0
   47.7854    4.9228   21.7943 O   0  0  0  0  0  0  0  0  0  0  0  0
   49.3889    8.0556   17.3848 C   0  0  0  0  0  0  0  0  0  0  0  0
   50.1942    8.3586   16.3135 O   0  0  0  0  0  0  0  0  0  0  0  0
   49.7160    8.0584   15.0563 C   0  0  0  0  0  0  0  0  0  0  0  0
   47.8465    7.4454   19.6127 C   0  0  0  0  0  0  0  0  0  0  0  0
   47.4099    8.4133   18.7058 C   0  0  0  0  0  0  0  0  0  0  0  0
   48.1830    8.7234   17.5897 C   0  0  0  0  0  0  0  0  0  0  0  0
   50.1509    6.3975   21.6443 C   0  0  0  0  0  0  0  0  0  0  0  0
   48.8682    6.9846   14.7710 C   0  0  0  0  0  0  0  0  0  0  0  0
   50.1854    8.8606   14.0164 C   0  0  0  0  0  0  0  0  0  0  0  0
   49.7779    8.6219   12.7024 C   0  0  0  0  0  0  0  0  0  0  0  0
   48.4605    6.7449   13.4556 C   0  0  0  0  0  0  0  0  0  0  0  0
   48.9115    7.5667   12.4232 C   0  0  0  0  0  0  0  0  0  0  0  0
   47.9876    5.7251   20.7207 C   0  0  0  0  0  0  0  0  0  0  0  0
   49.8043    6.7440   19.2983 C   0  0  0  0  0  0  0  0  0  0  0  0
   48.7994    7.0014   20.4097 C   0  0  1  0  0  0  0  0  0  0  0  0
   49.3905    6.5305   17.9750 C   0  0  0  0  0  0  0  0  0  0  0  0
   48.5208    4.9494   21.5701 O   0  0  0  0  0  0  0  0  0  0  0  0
   46.8740    5.6073   20.1292 O   0  0  0  0  0  0  0  0  0  0  0  0
   50.3340    6.3251   16.9658 C   0  0  0  0  0  0  0  0  0  0  0  0
   49.9752    6.0977   15.6568 O   0  0  0  0  0  0  0  0  0  0  0  0
   49.1066    6.9918   15.0757 C   0  0  0  0  0  0  0  0  0  0  0  0
   51.1769    6.7056   19.5893 C   0  0  0  0  0  0  0  0  0  0  0  0
   52.1152    6.4705   18.5830 C   0  0  0  0  0  0  0  0  0  0  0  0
   51.6934    6.2747   17.2707 C   0  0  0  0  0  0  0  0  0  0  0  0
   47.9030    8.2008   20.0990 C   0  0  0  0  0  0  0  0  0  0  0  0
   49.2388    8.3775   15.2058 C   0  0  0  0  0  0  0  0  0  0  0  0
   48.0991    6.4584   14.2749 C   0  0  0  0  0  0  0  0  0  0  0  0
   48.3358    9.2255   14.5659 C   0  0  0  0  0  0  0  0  0  0  0  0
   47.1945    7.3077   13.6373 C   0  0  0  0  0  0  0  0  0  0  0  0
   47.3104    8.6908   13.7856 C   0  0  0  0  0  0  0  0  0  0  0  0
   49.0672    7.1898   17.4474 Ca  0  0  0  0  0 15  0  0  0  0  0  0
   48.6738    7.2467   17.4702 O   0  0  0  0  0  0  0  0  0  0  0  0
   49.2233    7.2470   16.6765 H   0  0  0  0  0  0  0  0  0  0  0  0
   49.3042    7.0762   18.1909 H   0  0  0  0  0  0  0  0  0  0  0  0
   50.3716    5.1570   19.9313 H   0  0  0  0  0  0  0  0  0  0  0  0
   50.7877    6.6009   18.1292 H   0  0  0  0  0  0  0  0  0  0  0  0
   47.2328    7.2108   20.4824 H   0  0  0  0  0  0  0  0  0  0  0  0
   46.4643    8.9190   18.8757 H   0  0  0  0  0  0  0  0  0  0  0  0
   47.8469    9.4778   16.8867 H   0  0  0  0  0  0  0  0  0  0  0  0
   49.4258    7.0499   22.1487 H   0  0  0  0  0  0  0  0  0  0  0  0
   50.4829    5.6443   22.3679 H   0  0  0  0  0  0  0  0  0  0  0  0
   51.0181    7.0136   21.3777 H   0  0  0  0  0  0  0  0  0  0  0  0
   48.5167    6.3263   15.5597 H   0  0  0  0  0  0  0  0  0  0  0  0
   50.8651    9.6795   14.2326 H   0  0  0  0  0  0  0  0  0  0  0  0
   50.1367    9.2587   11.8979 H   0  0  0  0  0  0  0  0  0  0  0  0
   47.7875    5.9200   13.2464 H   0  0  0  0  0  0  0  0  0  0  0  0
   48.5935    7.3801   11.4008 H   0  0  0  0  0  0  0  0  0  0  0  0
   49.3485    7.2568   21.3266 H   0  0  0  0  0  0  0  0  0  0  0  0
   48.3270    6.5081   17.7436 H   0  0  0  0  0  0  0  0  0  0  0  0
   51.5143    6.8362   20.6154 H   0  0  0  0  0  0  0  0  0  0  0  0
   53.1707    6.4273   18.8302 H   0  0  0  0  0  0  0  0  0  0  0  0
   52.4173    6.0793   16.4876 H   0  0  0  0  0  0  0  0  0  0  0  0
   47.2788    8.0435   19.2107 H   0  0  0  0  0  0  0  0  0  0  0  0
   48.5037    9.1014   19.9228 H   0  0  0  0  0  0  0  0  0  0  0  0
   47.2271    8.4025   20.9392 H   0  0  0  0  0  0  0  0  0  0  0  0
   50.0331    8.8012   15.8112 H   0  0  0  0  0  0  0  0  0  0  0  0
   48.0079    5.3812   14.1661 H   0  0  0  0  0  0  0  0  0  0  0  0
   48.4274   10.3020   14.6852 H   0  0  0  0  0  0  0  0  0  0  0  0
   46.3945    6.8890   13.0357 H   0  0  0  0  0  0  0  0  0  0  0  0
   46.5995    9.3528   13.3008 H   0  0  0  0  0  0  0  0  0  0  0  0
   49.2956    7.0772   18.1938 H   0  0  0  0  0  0  0  0  0  0  0  0
   49.2321    7.2455   16.6782 H   0  0  0  0  0  0  0  0  0  0  0  0
  3  4  1  0
  4  2  1  0
  5  3  2  0
  6  2  1  0
  7  2  2  0
  8  5  1  0
  9  8  1  0
 10  9  1  0
 11  3  1  0
 12 11  2  0
 13  8  2  0
 14  4  1  0
 15 10  2  0
 16 10  1  0
 17 16  2  0
 18 15  1  0
 19 17  1  0
 12 13  1  0
 18 19  2  0
 21 22  1  0
 22 20  1  0
 23 21  2  0
 24 20  1  0
 25 20  2  0
 26 23  1  0
 27 26  1  0
 28 27  1  0
 29 21  1  0
 30 29  2  0
 31 26  2  0
 32 22  1  0
 33 28  2  0
 34 28  1  0
 35 33  1  0
 36 34  2  0
 37 36  1  0
 30 31  1  0
 35 37  2  0
  1 40  1  0
  1 41  1  0
  4 42  1  6
  5 43  1  0
 11 44  1  0
 12 45  1  0
 13 46  1  0
 14 47  1  0
 14 48  1  0
 14 49  1  0
 15 50  1  0
 16 51  1  0
 17 52  1  0
 18 53  1  0
 19 54  1  0
 22 55  1  1
 23 56  1  0
 29 57  1  0
 30 58  1  0
 31 59  1  0
 32 60  1  0
 32 61  1  0
 32 62  1  0
 33 63  1  0
 34 64  1  0
 35 65  1  0
 36 66  1  0
 37 67  1  0
 39 68  1  0
 39 69  1  0
M  CHG  3   6  -1  24  -1  38   2
M  END
> <Uni-Dock RESULT> 
ENERGY=   -5.067  LOWER_BOUND=    4.785  UPPER_BOUND=    7.515
INTER + INTRA:          -5.067
INTER:                  -5.067
INTRA:                   0.000
UNBOUND:                 0.000

$$$$
