
     RDKit          3D

 69 68  0  0  0  0  0  0  0  0999 V2000
   47.3449    5.9866   13.7517 O   0  0  0  0  0  0  0  0  0  0  0  0
   49.1745    6.2167   16.7455 C   0  0  0  0  0  0  0  0  0  0  0  0
   48.8348    7.4846   14.6021 C   0  0  0  0  0  0  0  0  0  0  0  0
   49.3557    7.5737   16.0296 C   0  0  1  0  0  0  0  0  0  0  0  0
   47.4685    7.3169   14.3310 C   0  0  0  0  0  0  0  0  0  0  0  0
   48.1467    6.0958   17.4748 O   0  0  0  0  0  0  0  0  0  0  0  0
   50.0975    5.3741   16.5340 O   0  0  0  0  0  0  0  0  0  0  0  0
   47.0254    7.1894   13.0137 C   0  0  0  0  0  0  0  0  0  0  0  0
   45.6811    7.0184   12.7804 O   0  0  0  0  0  0  0  0  0  0  0  0
   45.2948    5.7669   12.3431 C   0  0  0  0  0  0  0  0  0  0  0  0
   49.7333    7.5403   13.5233 C   0  0  0  0  0  0  0  0  0  0  0  0
   49.2792    7.4435   12.2050 C   0  0  0  0  0  0  0  0  0  0  0  0
   47.9211    7.2733   11.9470 C   0  0  0  0  0  0  0  0  0  0  0  0
   48.7302    8.7366   16.7988 C   0  0  0  0  0  0  0  0  0  0  0  0
   45.8518    4.5786   12.8253 C   0  0  0  0  0  0  0  0  0  0  0  0
   44.2476    5.7205   11.4207 C   0  0  0  0  0  0  0  0  0  0  0  0
   43.7780    4.4899   10.9592 C   0  0  0  0  0  0  0  0  0  0  0  0
   45.3804    3.3504   12.3626 C   0  0  0  0  0  0  0  0  0  0  0  0
   44.3460    3.3050   11.4280 C   0  0  0  0  0  0  0  0  0  0  0  0
   48.7629    9.3621   16.3490 C   0  0  0  0  0  0  0  0  0  0  0  0
   48.6273    7.2854   14.9079 C   0  0  0  0  0  0  0  0  0  0  0  0
   49.0899    7.8555   16.2396 C   0  0  1  0  0  0  0  0  0  0  0  0
   47.7915    6.1587   14.8775 C   0  0  0  0  0  0  0  0  0  0  0  0
   49.6879   10.1633   16.0160 O   0  0  0  0  0  0  0  0  0  0  0  0
   47.6004    9.6274   16.7782 O   0  0  0  0  0  0  0  0  0  0  0  0
   47.3637    5.6319   13.6581 C   0  0  0  0  0  0  0  0  0  0  0  0
   46.5614    4.5147   13.6895 O   0  0  0  0  0  0  0  0  0  0  0  0
   45.3505    4.5937   13.0378 C   0  0  0  0  0  0  0  0  0  0  0  0
   49.0371    7.8520   13.6900 C   0  0  0  0  0  0  0  0  0  0  0  0
   48.6242    7.3091   12.4713 C   0  0  0  0  0  0  0  0  0  0  0  0
   47.7941    6.1903   12.4533 C   0  0  0  0  0  0  0  0  0  0  0  0
   50.5709    7.5602   16.4681 C   0  0  0  0  0  0  0  0  0  0  0  0
   44.9238    3.4410   12.3768 C   0  0  0  0  0  0  0  0  0  0  0  0
   44.5337    5.7272   13.0646 C   0  0  0  0  0  0  0  0  0  0  0  0
   43.6994    3.4331   11.7067 C   0  0  0  0  0  0  0  0  0  0  0  0
   43.3076    5.7164   12.3956 C   0  0  0  0  0  0  0  0  0  0  0  0
   42.8930    4.5719   11.7141 C   0  0  0  0  0  0  0  0  0  0  0  0
   47.2565    6.3673   13.6779 Ca  0  0  0  0  0 15  0  0  0  0  0  0
   47.3029    5.9747   13.7233 O   0  0  0  0  0  0  0  0  0  0  0  0
   47.8187    6.7779   14.0495 H   0  0  0  0  0  0  0  0  0  0  0  0
   46.6059    6.3375   13.2326 H   0  0  0  0  0  0  0  0  0  0  0  0
   50.4372    7.7688   16.0000 H   0  0  0  0  0  0  0  0  0  0  0  0
   46.7566    7.2380   15.1508 H   0  0  0  0  0  0  0  0  0  0  0  0
   50.7994    7.6427   13.7148 H   0  0  0  0  0  0  0  0  0  0  0  0
   49.9915    7.4851   11.3858 H   0  0  0  0  0  0  0  0  0  0  0  0
   47.5662    7.1923   10.9263 H   0  0  0  0  0  0  0  0  0  0  0  0
   48.9650    9.6902   16.3148 H   0  0  0  0  0  0  0  0  0  0  0  0
   49.1172    8.7729   17.8220 H   0  0  0  0  0  0  0  0  0  0  0  0
   47.6400    8.6610   16.8650 H   0  0  0  0  0  0  0  0  0  0  0  0
   46.6428    4.5936   13.5728 H   0  0  0  0  0  0  0  0  0  0  0  0
   43.7991    6.6408   11.0641 H   0  0  0  0  0  0  0  0  0  0  0  0
   42.9659    4.4547   10.2390 H   0  0  0  0  0  0  0  0  0  0  0  0
   45.8197    2.4320   12.7440 H   0  0  0  0  0  0  0  0  0  0  0  0
   43.9801    2.3462   11.0739 H   0  0  0  0  0  0  0  0  0  0  0  0
   48.5357    7.3585   17.0487 H   0  0  0  0  0  0  0  0  0  0  0  0
   47.4568    5.7033   15.8049 H   0  0  0  0  0  0  0  0  0  0  0  0
   49.6750    8.7360   13.6948 H   0  0  0  0  0  0  0  0  0  0  0  0
   48.9454    7.7692   11.5415 H   0  0  0  0  0  0  0  0  0  0  0  0
   47.4778    5.7682   11.5052 H   0  0  0  0  0  0  0  0  0  0  0  0
   51.2086    8.0233   15.7083 H   0  0  0  0  0  0  0  0  0  0  0  0
   50.8950    7.9391   17.4446 H   0  0  0  0  0  0  0  0  0  0  0  0
   50.7664    6.4837   16.4471 H   0  0  0  0  0  0  0  0  0  0  0  0
   45.5527    2.5551   12.3761 H   0  0  0  0  0  0  0  0  0  0  0  0
   44.8422    6.6190   13.6068 H   0  0  0  0  0  0  0  0  0  0  0  0
   43.3785    2.5399   11.1788 H   0  0  0  0  0  0  0  0  0  0  0  0
   42.6793    6.6014   12.4126 H   0  0  0  0  0  0  0  0  0  0  0  0
   41.9396    4.5663   11.1929 H   0  0  0  0  0  0  0  0  0  0  0  0
   47.8565    6.6863   14.0787 H   0  0  0  0  0  0  0  0  0  0  0  0
   46.6101    6.4410   13.2319 H   0  0  0  0  0  0  0  0  0  0  0  0
  3  4  1  0
  4  2  1  0
  5  3  2  0
  6  2  1  0
  7  2  2  0
  8  5  1  0
  9  8  1  0
 10  9  1  0
 11  3  1  0
 12 11  2  0
 13  8  2  0
 14  4  1  0
 15 10  2  0
 16 10  1  0
 17 16  2  0
 18 15  1  0
 19 17  1  0
 12 13  1  0
 18 19  2  0
 21 22  1  0
 22 20  1  0
 23 21  2  0
 24 20  1  0
 25 20  2  0
 26 23  1  0
 27 26  1  0
 28 27  1  0
 29 21  1  0
 30 29  2  0
 31 26  2  0
 32 22  1  0
 33 28  2  0
 34 28  1  0
 35 33  1  0
 36 34  2  0
 37 36  1  0
 30 31  1  0
 35 37  2  0
  1 40  1  0
  1 41  1  0
  4 42  1  6
  5 43  1  0
 11 44  1  0
 12 45  1  0
 13 46  1  0
 14 47  1  0
 14 48  1  0
 14 49  1  0
 15 50  1  0
 16 51  1  0
 17 52  1  0
 18 53  1  0
 19 54  1  0
 22 55  1  1
 23 56  1  0
 29 57  1  0
 30 58  1  0
 31 59  1  0
 32 60  1  0
 32 61  1  0
 32 62  1  0
 33 63  1  0
 34 64  1  0
 35 65  1  0
 36 66  1  0
 37 67  1  0
 39 68  1  0
 39 69  1  0
M  CHG  3   6  -1  24  -1  38   2
M  END
> <Uni-Dock RESULT> 
ENERGY=   -7.431  LOWER_BOUND=    0.000  UPPER_BOUND=    0.000
INTER + INTRA:          -7.431
INTER:                  -7.431
INTRA:                   0.000
UNBOUND:                 0.000

$$$$

     RDKit          3D

 69 68  0  0  0  0  0  0  0  0999 V2000
   46.5665    7.5902   11.9738 O   0  0  0  0  0  0  0  0  0  0  0  0
   49.9211    8.5771   12.3422 C   0  0  0  0  0  0  0  0  0  0  0  0
   47.6082    9.4047   12.8738 C   0  0  0  0  0  0  0  0  0  0  0  0
   49.0894    9.5715   13.1825 C   0  0  1  0  0  0  0  0  0  0  0  0
   46.9133    8.2391   13.2305 C   0  0  0  0  0  0  0  0  0  0  0  0
   50.2577    7.4986   12.9134 O   0  0  0  0  0  0  0  0  0  0  0  0
   50.1922    8.9675   11.1671 O   0  0  0  0  0  0  0  0  0  0  0  0
   45.5673    8.0937   12.8912 C   0  0  0  0  0  0  0  0  0  0  0  0
   44.9154    6.9367   13.2478 O   0  0  0  0  0  0  0  0  0  0  0  0
   44.5947    6.0773   12.2156 C   0  0  0  0  0  0  0  0  0  0  0  0
   46.9159   10.4189   12.1910 C   0  0  0  0  0  0  0  0  0  0  0  0
   45.5599   10.2799   11.8821 C   0  0  0  0  0  0  0  0  0  0  0  0
   44.8803    9.1173   12.2374 C   0  0  0  0  0  0  0  0  0  0  0  0
   49.3803    9.4691   14.6793 C   0  0  0  0  0  0  0  0  0  0  0  0
   45.4381    5.8354   11.1270 C   0  0  0  0  0  0  0  0  0  0  0  0
   43.3892    5.3821   12.3299 C   0  0  0  0  0  0  0  0  0  0  0  0
   43.0137    4.4692   11.3434 C   0  0  0  0  0  0  0  0  0  0  0  0
   45.0605    4.9223   10.1428 C   0  0  0  0  0  0  0  0  0  0  0  0
   43.8479    4.2411   10.2486 C   0  0  0  0  0  0  0  0  0  0  0  0
   48.8687    9.9113   15.0500 C   0  0  0  0  0  0  0  0  0  0  0  0
   47.8525    9.0637   12.8921 C   0  0  0  0  0  0  0  0  0  0  0  0
   49.1420    9.4462   13.6017 C   0  0  1  0  0  0  0  0  0  0  0  0
   47.7294    7.8032   12.2880 C   0  0  0  0  0  0  0  0  0  0  0  0
   48.7441   11.1613   15.2245 O   0  0  0  0  0  0  0  0  0  0  0  0
   48.8151    8.9814   15.9093 O   0  0  0  0  0  0  0  0  0  0  0  0
   46.5481    7.4471   11.6360 C   0  0  0  0  0  0  0  0  0  0  0  0
   46.4919    6.2058   11.0455 O   0  0  0  0  0  0  0  0  0  0  0  0
   45.4573    5.3781   11.4224 C   0  0  0  0  0  0  0  0  0  0  0  0
   46.7740    9.9591   12.8060 C   0  0  0  0  0  0  0  0  0  0  0  0
   45.6013    9.6071   12.1342 C   0  0  0  0  0  0  0  0  0  0  0  0
   45.4903    8.3526   11.5384 C   0  0  0  0  0  0  0  0  0  0  0  0
   49.9175   10.4825   12.7909 C   0  0  0  0  0  0  0  0  0  0  0  0
   44.8995    4.5841   10.4195 C   0  0  0  0  0  0  0  0  0  0  0  0
   45.0026    5.2640   12.7388 C   0  0  0  0  0  0  0  0  0  0  0  0
   43.8584    3.7053   10.7229 C   0  0  0  0  0  0  0  0  0  0  0  0
   43.9624    4.3821   13.0408 C   0  0  0  0  0  0  0  0  0  0  0  0
   43.3884    3.6067   12.0331 C   0  0  0  0  0  0  0  0  0  0  0  0
   46.4020    7.7252   12.3099 Ca  0  0  0  0  0 15  0  0  0  0  0  0
   46.5278    7.5554   11.9727 O   0  0  0  0  0  0  0  0  0  0  0  0
   46.8686    8.3205   12.5349 H   0  0  0  0  0  0  0  0  0  0  0  0
   45.7709    7.2648   12.4208 H   0  0  0  0  0  0  0  0  0  0  0  0
   49.4036   10.5790   12.8748 H   0  0  0  0  0  0  0  0  0  0  0  0
   47.4355    7.4256   13.7309 H   0  0  0  0  0  0  0  0  0  0  0  0
   47.4446   11.3183   11.8822 H   0  0  0  0  0  0  0  0  0  0  0  0
   45.0447   11.0749   11.3502 H   0  0  0  0  0  0  0  0  0  0  0  0
   43.8303    9.0039   11.9945 H   0  0  0  0  0  0  0  0  0  0  0  0
   48.8505   10.2533   15.2298 H   0  0  0  0  0  0  0  0  0  0  0  0
   50.4514    9.5861   14.8714 H   0  0  0  0  0  0  0  0  0  0  0  0
   49.0760    8.5067   15.1034 H   0  0  0  0  0  0  0  0  0  0  0  0
   46.3989    6.3391   11.0400 H   0  0  0  0  0  0  0  0  0  0  0  0
   42.7456    5.5516   13.1858 H   0  0  0  0  0  0  0  0  0  0  0  0
   42.0742    3.9315   11.4311 H   0  0  0  0  0  0  0  0  0  0  0  0
   45.7233    4.7408    9.3005 H   0  0  0  0  0  0  0  0  0  0  0  0
   43.5604    3.5285    9.4817 H   0  0  0  0  0  0  0  0  0  0  0  0
   49.7814    8.5551   13.6778 H   0  0  0  0  0  0  0  0  0  0  0  0
   48.5470    7.0903   12.3431 H   0  0  0  0  0  0  0  0  0  0  0  0
   46.8469   10.9374   13.2814 H   0  0  0  0  0  0  0  0  0  0  0  0
   44.7762   10.3115   12.0881 H   0  0  0  0  0  0  0  0  0  0  0  0
   44.5796    8.0830   11.0139 H   0  0  0  0  0  0  0  0  0  0  0  0
   49.3584   11.4152   12.6662 H   0  0  0  0  0  0  0  0  0  0  0  0
   50.8645   10.7305   13.2846 H   0  0  0  0  0  0  0  0  0  0  0  0
   50.1522   10.1058   11.7906 H   0  0  0  0  0  0  0  0  0  0  0  0
   45.2703    4.6609    9.4013 H   0  0  0  0  0  0  0  0  0  0  0  0
   45.4552    5.8536   13.5338 H   0  0  0  0  0  0  0  0  0  0  0  0
   43.4149    3.1015    9.9366 H   0  0  0  0  0  0  0  0  0  0  0  0
   43.6070    4.3018   14.0633 H   0  0  0  0  0  0  0  0  0  0  0  0
   42.5781    2.9226   12.2701 H   0  0  0  0  0  0  0  0  0  0  0  0
   46.9244    8.2993   12.4506 H   0  0  0  0  0  0  0  0  0  0  0  0
   45.7538    7.3209   12.5063 H   0  0  0  0  0  0  0  0  0  0  0  0
  3  4  1  0
  4  2  1  0
  5  3  2  0
  6  2  1  0
  7  2  2  0
  8  5  1  0
  9  8  1  0
 10  9  1  0
 11  3  1  0
 12 11  2  0
 13  8  2  0
 14  4  1  0
 15 10  2  0
 16 10  1  0
 17 16  2  0
 18 15  1  0
 19 17  1  0
 12 13  1  0
 18 19  2  0
 21 22  1  0
 22 20  1  0
 23 21  2  0
 24 20  1  0
 25 20  2  0
 26 23  1  0
 27 26  1  0
 28 27  1  0
 29 21  1  0
 30 29  2  0
 31 26  2  0
 32 22  1  0
 33 28  2  0
 34 28  1  0
 35 33  1  0
 36 34  2  0
 37 36  1  0
 30 31  1  0
 35 37  2  0
  1 40  1  0
  1 41  1  0
  4 42  1  6
  5 43  1  0
 11 44  1  0
 12 45  1  0
 13 46  1  0
 14 47  1  0
 14 48  1  0
 14 49  1  0
 15 50  1  0
 16 51  1  0
 17 52  1  0
 18 53  1  0
 19 54  1  0
 22 55  1  1
 23 56  1  0
 29 57  1  0
 30 58  1  0
 31 59  1  0
 32 60  1  0
 32 61  1  0
 32 62  1  0
 33 63  1  0
 34 64  1  0
 35 65  1  0
 36 66  1  0
 37 67  1  0
 39 68  1  0
 39 69  1  0
M  CHG  3   6  -1  24  -1  38   2
M  END
> <Uni-Dock RESULT> 
ENERGY=   -7.198  LOWER_BOUND=    1.999  UPPER_BOUND=    2.942
INTER + INTRA:          -7.198
INTER:                  -7.198
INTRA:                   0.000
UNBOUND:                 0.000

$$$$

     RDKit          3D

 69 68  0  0  0  0  0  0  0  0999 V2000
   43.8318    7.6583   11.4773 O   0  0  0  0  0  0  0  0  0  0  0  0
   41.8611   10.5306   10.9994 C   0  0  0  0  0  0  0  0  0  0  0  0
   44.2766    9.8794   11.2411 C   0  0  0  0  0  0  0  0  0  0  0  0
   43.3248   10.9779   10.7889 C   0  0  1  0  0  0  0  0  0  0  0  0
   44.3598    8.6567   10.5581 C   0  0  0  0  0  0  0  0  0  0  0  0
   41.2665   10.0506    9.9900 O   0  0  0  0  0  0  0  0  0  0  0  0
   41.4094   10.7153   12.1693 O   0  0  0  0  0  0  0  0  0  0  0  0
   45.2060    7.6493   11.0242 C   0  0  0  0  0  0  0  0  0  0  0  0
   45.2600    6.4591   10.3376 O   0  0  0  0  0  0  0  0  0  0  0  0
   44.6890    5.3695   10.9650 C   0  0  0  0  0  0  0  0  0  0  0  0
   45.0734   10.0685   12.3828 C   0  0  0  0  0  0  0  0  0  0  0  0
   45.9420    9.0671   12.8259 C   0  0  0  0  0  0  0  0  0  0  0  0
   46.0142    7.8555   12.1428 C   0  0  0  0  0  0  0  0  0  0  0  0
   43.6054   11.4286    9.3559 C   0  0  0  0  0  0  0  0  0  0  0  0
   43.5046    5.4421   11.7044 C   0  0  0  0  0  0  0  0  0  0  0  0
   45.3169    4.1368   10.7759 C   0  0  0  0  0  0  0  0  0  0  0  0
   44.7784    2.9840   11.3493 C   0  0  0  0  0  0  0  0  0  0  0  0
   42.9685    4.2885   12.2759 C   0  0  0  0  0  0  0  0  0  0  0  0
   43.6058    3.0601   12.1015 C   0  0  0  0  0  0  0  0  0  0  0  0
   44.3653   11.5407    9.2882 C   0  0  0  0  0  0  0  0  0  0  0  0
   43.9208    9.7732   11.0449 C   0  0  0  0  0  0  0  0  0  0  0  0
   43.3769   11.0133   10.3528 C   0  0  1  0  0  0  0  0  0  0  0  0
   43.1529    8.5998   11.0914 C   0  0  0  0  0  0  0  0  0  0  0  0
   45.1602   12.4549    9.6637 O   0  0  0  0  0  0  0  0  0  0  0  0
   44.2570   11.0043    8.1452 O   0  0  0  0  0  0  0  0  0  0  0  0
   43.6476    7.4590   11.7249 C   0  0  0  0  0  0  0  0  0  0  0  0
   42.8424    6.3439   11.7560 O   0  0  0  0  0  0  0  0  0  0  0  0
   43.3684    5.1762   11.2489 C   0  0  0  0  0  0  0  0  0  0  0  0
   45.1805    9.7779   11.6659 C   0  0  0  0  0  0  0  0  0  0  0  0
   45.6632    8.6408   12.3175 C   0  0  0  0  0  0  0  0  0  0  0  0
   44.8920    7.4811   12.3569 C   0  0  0  0  0  0  0  0  0  0  0  0
   42.9960   12.0801   11.3772 C   0  0  0  0  0  0  0  0  0  0  0  0
   43.0257    3.9990   11.9156 C   0  0  0  0  0  0  0  0  0  0  0  0
   44.1554    5.1228   10.0955 C   0  0  0  0  0  0  0  0  0  0  0  0
   43.5034    2.7712   11.4547 C   0  0  0  0  0  0  0  0  0  0  0  0
   44.6303    3.8928    9.6344 C   0  0  0  0  0  0  0  0  0  0  0  0
   44.3079    2.7189   10.3157 C   0  0  0  0  0  0  0  0  0  0  0  0
   44.1535    7.7398   11.2579 Ca  0  0  0  0  0 15  0  0  0  0  0  0
   43.8439    7.6081   11.4704 O   0  0  0  0  0  0  0  0  0  0  0  0
   44.1762    8.5278   11.2229 H   0  0  0  0  0  0  0  0  0  0  0  0
   44.4525    7.0332   11.0736 H   0  0  0  0  0  0  0  0  0  0  0  0
   43.4757   11.8611   11.4259 H   0  0  0  0  0  0  0  0  0  0  0  0
   43.7287    8.4738    9.6902 H   0  0  0  0  0  0  0  0  0  0  0  0
   45.0026   10.9996   12.9411 H   0  0  0  0  0  0  0  0  0  0  0  0
   46.5465    9.2327   13.7133 H   0  0  0  0  0  0  0  0  0  0  0  0
   46.6824    7.0748   12.4869 H   0  0  0  0  0  0  0  0  0  0  0  0
   44.6198   11.8316    9.2698 H   0  0  0  0  0  0  0  0  0  0  0  0
   42.9036   12.2129    9.0554 H   0  0  0  0  0  0  0  0  0  0  0  0
   43.5129   10.6130    8.6314 H   0  0  0  0  0  0  0  0  0  0  0  0
   42.9802    6.3874   11.8308 H   0  0  0  0  0  0  0  0  0  0  0  0
   46.2224    4.0758   10.1829 H   0  0  0  0  0  0  0  0  0  0  0  0
   45.2693    2.0261   11.2049 H   0  0  0  0  0  0  0  0  0  0  0  0
   42.0470    4.3552   12.8488 H   0  0  0  0  0  0  0  0  0  0  0  0
   43.1823    2.1644   12.5453 H   0  0  0  0  0  0  0  0  0  0  0  0
   42.4570   10.7430    9.8147 H   0  0  0  0  0  0  0  0  0  0  0  0
   42.1770    8.5680   10.6158 H   0  0  0  0  0  0  0  0  0  0  0  0
   45.7965   10.6764   11.6277 H   0  0  0  0  0  0  0  0  0  0  0  0
   46.6441    8.6636   12.7827 H   0  0  0  0  0  0  0  0  0  0  0  0
   45.2677    6.6004   12.8669 H   0  0  0  0  0  0  0  0  0  0  0  0
   43.8564   12.4193   11.9628 H   0  0  0  0  0  0  0  0  0  0  0  0
   42.5697   12.9594   10.8800 H   0  0  0  0  0  0  0  0  0  0  0  0
   42.2496   11.7017   12.0822 H   0  0  0  0  0  0  0  0  0  0  0  0
   42.3963    4.0432   12.8001 H   0  0  0  0  0  0  0  0  0  0  0  0
   44.3988    6.0320    9.5490 H   0  0  0  0  0  0  0  0  0  0  0  0
   43.2490    1.8588   11.9862 H   0  0  0  0  0  0  0  0  0  0  0  0
   45.2475    3.8564    8.7422 H   0  0  0  0  0  0  0  0  0  0  0  0
   44.6799    1.7634    9.9562 H   0  0  0  0  0  0  0  0  0  0  0  0
   44.0906    8.5258   11.2808 H   0  0  0  0  0  0  0  0  0  0  0  0
   44.5260    7.0855   11.0227 H   0  0  0  0  0  0  0  0  0  0  0  0
  3  4  1  0
  4  2  1  0
  5  3  2  0
  6  2  1  0
  7  2  2  0
  8  5  1  0
  9  8  1  0
 10  9  1  0
 11  3  1  0
 12 11  2  0
 13  8  2  0
 14  4  1  0
 15 10  2  0
 16 10  1  0
 17 16  2  0
 18 15  1  0
 19 17  1  0
 12 13  1  0
 18 19  2  0
 21 22  1  0
 22 20  1  0
 23 21  2  0
 24 20  1  0
 25 20  2  0
 26 23  1  0
 27 26  1  0
 28 27  1  0
 29 21  1  0
 30 29  2  0
 31 26  2  0
 32 22  1  0
 33 28  2  0
 34 28  1  0
 35 33  1  0
 36 34  2  0
 37 36  1  0
 30 31  1  0
 35 37  2  0
  1 40  1  0
  1 41  1  0
  4 42  1  6
  5 43  1  0
 11 44  1  0
 12 45  1  0
 13 46  1  0
 14 47  1  0
 14 48  1  0
 14 49  1  0
 15 50  1  0
 16 51  1  0
 17 52  1  0
 18 53  1  0
 19 54  1  0
 22 55  1  1
 23 56  1  0
 29 57  1  0
 30 58  1  0
 31 59  1  0
 32 60  1  0
 32 61  1  0
 32 62  1  0
 33 63  1  0
 34 64  1  0
 35 65  1  0
 36 66  1  0
 37 67  1  0
 39 68  1  0
 39 69  1  0
M  CHG  3   6  -1  24  -1  38   2
M  END
> <Uni-Dock RESULT> 
ENERGY=   -6.801  LOWER_BOUND=    3.916  UPPER_BOUND=    5.861
INTER + INTRA:          -6.801
INTER:                  -6.801
INTRA:                   0.000
UNBOUND:                 0.000

$$$$

     RDKit          3D

 69 68  0  0  0  0  0  0  0  0999 V2000
   46.4989    6.4325   12.8458 O   0  0  0  0  0  0  0  0  0  0  0  0
   44.6435    3.4668   12.4923 C   0  0  0  0  0  0  0  0  0  0  0  0
   44.8312    5.7480   11.4539 C   0  0  0  0  0  0  0  0  0  0  0  0
   44.2979    4.3352   11.2622 C   0  0  1  0  0  0  0  0  0  0  0  0
   46.2089    6.0123   11.4820 C   0  0  0  0  0  0  0  0  0  0  0  0
   45.6755    2.7396   12.3982 O   0  0  0  0  0  0  0  0  0  0  0  0
   43.8331    3.5678   13.4618 O   0  0  0  0  0  0  0  0  0  0  0  0
   46.6693    7.3103   11.7081 C   0  0  0  0  0  0  0  0  0  0  0  0
   48.0254    7.5364   11.7377 O   0  0  0  0  0  0  0  0  0  0  0  0
   48.5658    7.8279   12.9746 C   0  0  0  0  0  0  0  0  0  0  0  0
   43.9369    6.8160   11.6376 C   0  0  0  0  0  0  0  0  0  0  0  0
   44.4046    8.1186   11.8323 C   0  0  0  0  0  0  0  0  0  0  0  0
   45.7743    8.3696   11.8622 C   0  0  0  0  0  0  0  0  0  0  0  0
   44.7711    3.7148    9.9483 C   0  0  0  0  0  0  0  0  0  0  0  0
   48.1589    7.2033   14.1574 C   0  0  0  0  0  0  0  0  0  0  0  0
   49.6142    8.7497   12.9995 C   0  0  0  0  0  0  0  0  0  0  0  0
   50.2348    9.0685   14.2082 C   0  0  0  0  0  0  0  0  0  0  0  0
   48.7810    7.5235   15.3638 C   0  0  0  0  0  0  0  0  0  0  0  0
   49.8166    8.4576   15.3906 C   0  0  0  0  0  0  0  0  0  0  0  0
   44.6627    4.2347    9.3892 C   0  0  0  0  0  0  0  0  0  0  0  0
   45.0608    5.4232   11.5884 C   0  0  0  0  0  0  0  0  0  0  0  0
   44.5258    4.1627   10.9269 C   0  0  1  0  0  0  0  0  0  0  0  0
   46.0301    5.3300   12.5987 C   0  0  0  0  0  0  0  0  0  0  0  0
   43.6466    4.6495    8.7535 O   0  0  0  0  0  0  0  0  0  0  0  0
   45.7816    3.8524    8.9332 O   0  0  0  0  0  0  0  0  0  0  0  0
   46.5247    6.4836   13.2086 C   0  0  0  0  0  0  0  0  0  0  0  0
   47.4595    6.3299   14.2062 O   0  0  0  0  0  0  0  0  0  0  0  0
   48.6537    6.9995   14.0554 C   0  0  0  0  0  0  0  0  0  0  0  0
   44.5884    6.6947   11.2246 C   0  0  0  0  0  0  0  0  0  0  0  0
   45.0702    7.8455   11.8522 C   0  0  0  0  0  0  0  0  0  0  0  0
   46.0329    7.7409   12.8538 C   0  0  0  0  0  0  0  0  0  0  0  0
   43.0921    3.8850   11.3743 C   0  0  0  0  0  0  0  0  0  0  0  0
   49.2227    7.5250   15.2163 C   0  0  0  0  0  0  0  0  0  0  0  0
   49.3232    7.1150   12.8343 C   0  0  0  0  0  0  0  0  0  0  0  0
   50.4412    8.2028   15.1515 C   0  0  0  0  0  0  0  0  0  0  0  0
   50.5437    7.7914   12.7721 C   0  0  0  0  0  0  0  0  0  0  0  0
   51.0999    8.3381   13.9288 C   0  0  0  0  0  0  0  0  0  0  0  0
   46.5397    6.5515   12.4684 Ca  0  0  0  0  0 15  0  0  0  0  0  0
   46.5422    6.4598   12.8556 O   0  0  0  0  0  0  0  0  0  0  0  0
   45.9294    6.2246   12.0896 H   0  0  0  0  0  0  0  0  0  0  0  0
   47.1906    6.9974   12.4698 H   0  0  0  0  0  0  0  0  0  0  0  0
   43.2006    4.3758   11.2074 H   0  0  0  0  0  0  0  0  0  0  0  0
   46.9219    5.1968   11.3749 H   0  0  0  0  0  0  0  0  0  0  0  0
   42.8656    6.6263   11.6461 H   0  0  0  0  0  0  0  0  0  0  0  0
   43.6957    8.9292   11.9761 H   0  0  0  0  0  0  0  0  0  0  0  0
   46.1404    9.3775   12.0185 H   0  0  0  0  0  0  0  0  0  0  0  0
   44.4216    4.3051    9.0949 H   0  0  0  0  0  0  0  0  0  0  0  0
   44.3787    2.6989    9.8397 H   0  0  0  0  0  0  0  0  0  0  0  0
   45.8620    3.6522    9.8800 H   0  0  0  0  0  0  0  0  0  0  0  0
   47.3693    6.4542   14.1524 H   0  0  0  0  0  0  0  0  0  0  0  0
   49.9462    9.2169   12.0792 H   0  0  0  0  0  0  0  0  0  0  0  0
   51.0477    9.7883   14.2273 H   0  0  0  0  0  0  0  0  0  0  0  0
   48.4578    7.0321   16.2780 H   0  0  0  0  0  0  0  0  0  0  0  0
   50.3001    8.7004   16.3318 H   0  0  0  0  0  0  0  0  0  0  0  0
   45.1344    3.3069   11.2525 H   0  0  0  0  0  0  0  0  0  0  0  0
   46.4153    4.3592   12.8965 H   0  0  0  0  0  0  0  0  0  0  0  0
   43.8455    6.7868   10.4320 H   0  0  0  0  0  0  0  0  0  0  0  0
   44.6979    8.8193   11.5483 H   0  0  0  0  0  0  0  0  0  0  0  0
   46.4028    8.6362   13.3424 H   0  0  0  0  0  0  0  0  0  0  0  0
   42.4048    4.6869   11.0866 H   0  0  0  0  0  0  0  0  0  0  0  0
   42.7197    2.9563   10.9259 H   0  0  0  0  0  0  0  0  0  0  0  0
   43.0319    3.7772   12.4616 H   0  0  0  0  0  0  0  0  0  0  0  0
   48.7088    7.4147   16.1671 H   0  0  0  0  0  0  0  0  0  0  0  0
   48.9042    6.6780   11.9299 H   0  0  0  0  0  0  0  0  0  0  0  0
   50.8726    8.6255   16.0541 H   0  0  0  0  0  0  0  0  0  0  0  0
   51.0571    7.8853   11.8203 H   0  0  0  0  0  0  0  0  0  0  0  0
   52.0485    8.8654   13.8777 H   0  0  0  0  0  0  0  0  0  0  0  0
   45.9031    6.1845   12.1811 H   0  0  0  0  0  0  0  0  0  0  0  0
   47.1736    7.0101   12.3684 H   0  0  0  0  0  0  0  0  0  0  0  0
  3  4  1  0
  4  2  1  0
  5  3  2  0
  6  2  1  0
  7  2  2  0
  8  5  1  0
  9  8  1  0
 10  9  1  0
 11  3  1  0
 12 11  2  0
 13  8  2  0
 14  4  1  0
 15 10  2  0
 16 10  1  0
 17 16  2  0
 18 15  1  0
 19 17  1  0
 12 13  1  0
 18 19  2  0
 21 22  1  0
 22 20  1  0
 23 21  2  0
 24 20  1  0
 25 20  2  0
 26 23  1  0
 27 26  1  0
 28 27  1  0
 29 21  1  0
 30 29  2  0
 31 26  2  0
 32 22  1  0
 33 28  2  0
 34 28  1  0
 35 33  1  0
 36 34  2  0
 37 36  1  0
 30 31  1  0
 35 37  2  0
  1 40  1  0
  1 41  1  0
  4 42  1  6
  5 43  1  0
 11 44  1  0
 12 45  1  0
 13 46  1  0
 14 47  1  0
 14 48  1  0
 14 49  1  0
 15 50  1  0
 16 51  1  0
 17 52  1  0
 18 53  1  0
 19 54  1  0
 22 55  1  1
 23 56  1  0
 29 57  1  0
 30 58  1  0
 31 59  1  0
 32 60  1  0
 32 61  1  0
 32 62  1  0
 33 63  1  0
 34 64  1  0
 35 65  1  0
 36 66  1  0
 37 67  1  0
 39 68  1  0
 39 69  1  0
M  CHG  3   6  -1  24  -1  38   2
M  END
> <Uni-Dock RESULT> 
ENERGY=   -6.595  LOWER_BOUND=    1.769  UPPER_BOUND=    6.260
INTER + INTRA:          -6.595
INTER:                  -6.595
INTRA:                   0.000
UNBOUND:                 0.000

$$$$

     RDKit          3D

 69 68  0  0  0  0  0  0  0  0999 V2000
   47.9513    6.5748   20.3805 O   0  0  0  0  0  0  0  0  0  0  0  0
   47.7887   10.0412   20.9463 C   0  0  0  0  0  0  0  0  0  0  0  0
   48.3204    7.9182   22.1822 C   0  0  0  0  0  0  0  0  0  0  0  0
   48.4514    9.4346   22.2032 C   0  0  1  0  0  0  0  0  0  0  0  0
   48.9923    7.1391   21.2281 C   0  0  0  0  0  0  0  0  0  0  0  0
   48.5579   10.3146   19.9786 O   0  0  0  0  0  0  0  0  0  0  0  0
   46.5364   10.2165   21.0349 O   0  0  0  0  0  0  0  0  0  0  0  0
   48.8150    5.7549   21.2025 C   0  0  0  0  0  0  0  0  0  0  0  0
   49.4810    5.0192   20.2507 O   0  0  0  0  0  0  0  0  0  0  0  0
   48.7033    4.4824   19.2438 C   0  0  0  0  0  0  0  0  0  0  0  0
   47.4890    7.2735   23.1134 C   0  0  0  0  0  0  0  0  0  0  0  0
   47.3405    5.8837   23.1018 C   0  0  0  0  0  0  0  0  0  0  0  0
   48.0091    5.1199   22.1481 C   0  0  0  0  0  0  0  0  0  0  0  0
   49.9006    9.8846   22.3834 C   0  0  0  0  0  0  0  0  0  0  0  0
   47.6279    5.1588   18.6599 C   0  0  0  0  0  0  0  0  0  0  0  0
   49.0783    3.2259   18.7639 C   0  0  0  0  0  0  0  0  0  0  0  0
   48.3618    2.6342   17.7226 C   0  0  0  0  0  0  0  0  0  0  0  0
   46.9141    4.5652   17.6192 C   0  0  0  0  0  0  0  0  0  0  0  0
   47.2782    3.3024   17.1521 C   0  0  0  0  0  0  0  0  0  0  0  0
   50.2049    9.4748   22.9614 C   0  0  0  0  0  0  0  0  0  0  0  0
   48.3940    8.1217   21.8223 C   0  0  0  0  0  0  0  0  0  0  0  0
   48.8817    9.5210   22.1642 C   0  0  1  0  0  0  0  0  0  0  0  0
   48.1052    7.7832   20.4916 C   0  0  0  0  0  0  0  0  0  0  0  0
   50.1014    9.5176   24.2248 O   0  0  0  0  0  0  0  0  0  0  0  0
   51.2542    9.4143   22.2534 O   0  0  0  0  0  0  0  0  0  0  0  0
   47.6578    6.5005   20.1724 C   0  0  0  0  0  0  0  0  0  0  0  0
   47.3719    6.2318   18.8538 O   0  0  0  0  0  0  0  0  0  0  0  0
   48.0166    5.1592   18.2782 C   0  0  0  0  0  0  0  0  0  0  0  0
   48.2024    7.1520   22.8199 C   0  0  0  0  0  0  0  0  0  0  0  0
   47.7342    5.8759   22.4993 C   0  0  0  0  0  0  0  0  0  0  0  0
   47.4509    5.5509   21.1744 C   0  0  0  0  0  0  0  0  0  0  0  0
   47.7917   10.3116   22.8850 C   0  0  0  0  0  0  0  0  0  0  0  0
   47.2734    4.3995   17.3737 C   0  0  0  0  0  0  0  0  0  0  0  0
   49.3594    4.8513   18.5124 C   0  0  0  0  0  0  0  0  0  0  0  0
   47.8590    3.3059   16.7338 C   0  0  0  0  0  0  0  0  0  0  0  0
   49.9443    3.7582   17.8691 C   0  0  0  0  0  0  0  0  0  0  0  0
   49.1936    2.9841   16.9839 C   0  0  0  0  0  0  0  0  0  0  0  0
   48.2612    6.4674   20.6057 Ca  0  0  0  0  0 15  0  0  0  0  0  0
   47.9616    6.5324   20.3520 O   0  0  0  0  0  0  0  0  0  0  0  0
   48.3032    7.0231   21.1644 H   0  0  0  0  0  0  0  0  0  0  0  0
   48.5290    5.8044   20.2721 H   0  0  0  0  0  0  0  0  0  0  0  0
   47.8964    9.8257   23.0679 H   0  0  0  0  0  0  0  0  0  0  0  0
   49.6162    7.6181   20.4757 H   0  0  0  0  0  0  0  0  0  0  0  0
   46.9387    7.8633   23.8434 H   0  0  0  0  0  0  0  0  0  0  0  0
   46.6897    5.4058   23.8286 H   0  0  0  0  0  0  0  0  0  0  0  0
   47.8918    4.0427   22.1328 H   0  0  0  0  0  0  0  0  0  0  0  0
   50.3033    9.5176   23.3331 H   0  0  0  0  0  0  0  0  0  0  0  0
   49.9659   10.9772   22.3885 H   0  0  0  0  0  0  0  0  0  0  0  0
   50.5573    9.5223   21.5859 H   0  0  0  0  0  0  0  0  0  0  0  0
   47.3444    6.1549   18.9946 H   0  0  0  0  0  0  0  0  0  0  0  0
   49.9267    2.7109   19.2002 H   0  0  0  0  0  0  0  0  0  0  0  0
   48.6518    1.6553   17.3523 H   0  0  0  0  0  0  0  0  0  0  0  0
   46.0798    5.0994   17.1715 H   0  0  0  0  0  0  0  0  0  0  0  0
   46.7216    2.8464   16.3391 H   0  0  0  0  0  0  0  0  0  0  0  0
   49.1014   10.0570   21.2298 H   0  0  0  0  0  0  0  0  0  0  0  0
   48.2483    8.5132   19.7002 H   0  0  0  0  0  0  0  0  0  0  0  0
   48.4350    7.3932   23.8573 H   0  0  0  0  0  0  0  0  0  0  0  0
   47.6024    5.1385   23.2855 H   0  0  0  0  0  0  0  0  0  0  0  0
   47.0837    4.5601   20.9285 H   0  0  0  0  0  0  0  0  0  0  0  0
   47.5083    9.8538   23.8382 H   0  0  0  0  0  0  0  0  0  0  0  0
   48.1307   11.3321   23.0985 H   0  0  0  0  0  0  0  0  0  0  0  0
   46.8863   10.3823   22.2744 H   0  0  0  0  0  0  0  0  0  0  0  0
   46.2356    4.6551   17.1788 H   0  0  0  0  0  0  0  0  0  0  0  0
   49.9566    5.4592   19.1893 H   0  0  0  0  0  0  0  0  0  0  0  0
   47.2725    2.7065   16.0437 H   0  0  0  0  0  0  0  0  0  0  0  0
   50.9855    3.5179   18.0593 H   0  0  0  0  0  0  0  0  0  0  0  0
   49.6501    2.1331   16.4859 H   0  0  0  0  0  0  0  0  0  0  0  0
   48.2212    7.0659   21.1182 H   0  0  0  0  0  0  0  0  0  0  0  0
   48.6006    5.8041   20.3470 H   0  0  0  0  0  0  0  0  0  0  0  0
  3  4  1  0
  4  2  1  0
  5  3  2  0
  6  2  1  0
  7  2  2  0
  8  5  1  0
  9  8  1  0
 10  9  1  0
 11  3  1  0
 12 11  2  0
 13  8  2  0
 14  4  1  0
 15 10  2  0
 16 10  1  0
 17 16  2  0
 18 15  1  0
 19 17  1  0
 12 13  1  0
 18 19  2  0
 21 22  1  0
 22 20  1  0
 23 21  2  0
 24 20  1  0
 25 20  2  0
 26 23  1  0
 27 26  1  0
 28 27  1  0
 29 21  1  0
 30 29  2  0
 31 26  2  0
 32 22  1  0
 33 28  2  0
 34 28  1  0
 35 33  1  0
 36 34  2  0
 37 36  1  0
 30 31  1  0
 35 37  2  0
  1 40  1  0
  1 41  1  0
  4 42  1  6
  5 43  1  0
 11 44  1  0
 12 45  1  0
 13 46  1  0
 14 47  1  0
 14 48  1  0
 14 49  1  0
 15 50  1  0
 16 51  1  0
 17 52  1  0
 18 53  1  0
 19 54  1  0
 22 55  1  1
 23 56  1  0
 29 57  1  0
 30 58  1  0
 31 59  1  0
 32 60  1  0
 32 61  1  0
 32 62  1  0
 33 63  1  0
 34 64  1  0
 35 65  1  0
 36 66  1  0
 37 67  1  0
 39 68  1  0
 39 69  1  0
M  CHG  3   6  -1  24  -1  38   2
M  END
> <Uni-Dock RESULT> 
ENERGY=   -6.580  LOWER_BOUND=    5.127  UPPER_BOUND=    7.549
INTER + INTRA:          -6.580
INTER:                  -6.580
INTRA:                   0.000
UNBOUND:                 0.000

$$$$

     RDKit          3D

 69 68  0  0  0  0  0  0  0  0999 V2000
   48.8169    7.1110   19.6854 O   0  0  0  0  0  0  0  0  0  0  0  0
   50.2600    4.9278   17.3373 C   0  0  0  0  0  0  0  0  0  0  0  0
   48.5451    4.9082   19.1746 C   0  0  0  0  0  0  0  0  0  0  0  0
   49.0689    4.1623   17.9555 C   0  0  1  0  0  0  0  0  0  0  0  0
   47.9163    6.1567   19.0540 C   0  0  0  0  0  0  0  0  0  0  0  0
   49.9976    5.6835   16.3561 O   0  0  0  0  0  0  0  0  0  0  0  0
   51.3828    4.6944   17.8775 O   0  0  0  0  0  0  0  0  0  0  0  0
   47.4896    6.8399   20.1937 C   0  0  0  0  0  0  0  0  0  0  0  0
   46.8835    8.0651   20.0436 O   0  0  0  0  0  0  0  0  0  0  0  0
   47.6163    9.1600   20.4573 C   0  0  0  0  0  0  0  0  0  0  0  0
   48.7142    4.3608   20.4575 C   0  0  0  0  0  0  0  0  0  0  0  0
   48.2563    5.0360   21.5923 C   0  0  0  0  0  0  0  0  0  0  0  0
   47.6368    6.2766   21.4618 C   0  0  0  0  0  0  0  0  0  0  0  0
   47.9638    3.8691   16.9416 C   0  0  0  0  0  0  0  0  0  0  0  0
   48.9952    9.2808   20.2601 C   0  0  0  0  0  0  0  0  0  0  0  0
   46.9020   10.2091   21.0393 C   0  0  0  0  0  0  0  0  0  0  0  0
   47.5689   11.3642   21.4501 C   0  0  0  0  0  0  0  0  0  0  0  0
   49.6590   10.4364   20.6713 C   0  0  0  0  0  0  0  0  0  0  0  0
   48.9476   11.4768   21.2686 C   0  0  0  0  0  0  0  0  0  0  0  0
   47.3610    3.5805   17.3262 C   0  0  0  0  0  0  0  0  0  0  0  0
   48.6728    5.1278   18.8403 C   0  0  0  0  0  0  0  0  0  0  0  0
   48.7477    4.1789   17.6544 C   0  0  1  0  0  0  0  0  0  0  0  0
   49.1645    6.4370   18.7255 C   0  0  0  0  0  0  0  0  0  0  0  0
   47.1003    2.4512   17.8413 O   0  0  0  0  0  0  0  0  0  0  0  0
   46.6413    4.2873   16.5592 O   0  0  0  0  0  0  0  0  0  0  0  0
   49.0977    7.3120   19.8106 C   0  0  0  0  0  0  0  0  0  0  0  0
   49.6129    8.5770   19.6457 O   0  0  0  0  0  0  0  0  0  0  0  0
   48.7730    9.6358   19.9117 C   0  0  0  0  0  0  0  0  0  0  0  0
   48.1362    4.7163   20.0711 C   0  0  0  0  0  0  0  0  0  0  0  0
   48.0906    5.5881   21.1613 C   0  0  0  0  0  0  0  0  0  0  0  0
   48.5815    6.8859   21.0355 C   0  0  0  0  0  0  0  0  0  0  0  0
   49.8079    3.1047   17.8885 C   0  0  0  0  0  0  0  0  0  0  0  0
   49.3520   10.7513   20.5184 C   0  0  0  0  0  0  0  0  0  0  0  0
   47.4225    9.6568   19.5533 C   0  0  0  0  0  0  0  0  0  0  0  0
   48.5726   11.8731   20.8055 C   0  0  0  0  0  0  0  0  0  0  0  0
   46.6449   10.7814   19.8391 C   0  0  0  0  0  0  0  0  0  0  0  0
   47.2186   11.8866   20.4681 C   0  0  0  0  0  0  0  0  0  0  0  0
   48.4401    6.9841   19.6975 Ca  0  0  0  0  0 15  0  0  0  0  0  0
   48.7984    7.1571   19.7014 O   0  0  0  0  0  0  0  0  0  0  0  0
   48.4769    6.2295   19.4697 H   0  0  0  0  0  0  0  0  0  0  0  0
   48.0266    7.6118   19.9375 H   0  0  0  0  0  0  0  0  0  0  0  0
   49.4590    3.1865   18.2784 H   0  0  0  0  0  0  0  0  0  0  0  0
   47.8029    6.6166   18.0739 H   0  0  0  0  0  0  0  0  0  0  0  0
   49.2237    3.4064   20.5732 H   0  0  0  0  0  0  0  0  0  0  0  0
   48.4007    4.5964   22.5753 H   0  0  0  0  0  0  0  0  0  0  0  0
   47.2855    6.8055   22.3400 H   0  0  0  0  0  0  0  0  0  0  0  0
   47.1866    3.2409   17.3888 H   0  0  0  0  0  0  0  0  0  0  0  0
   48.3691    3.3388   16.0741 H   0  0  0  0  0  0  0  0  0  0  0  0
   47.4791    4.7781   16.5710 H   0  0  0  0  0  0  0  0  0  0  0  0
   49.5629    8.4898   19.7737 H   0  0  0  0  0  0  0  0  0  0  0  0
   45.8291   10.1261   21.1710 H   0  0  0  0  0  0  0  0  0  0  0  0
   47.0133   12.1783   21.9061 H   0  0  0  0  0  0  0  0  0  0  0  0
   50.7312   10.5209   20.5131 H   0  0  0  0  0  0  0  0  0  0  0  0
   49.4686   12.3758   21.5834 H   0  0  0  0  0  0  0  0  0  0  0  0
   49.0582    4.7471   16.7659 H   0  0  0  0  0  0  0  0  0  0  0  0
   49.5811    6.7821   17.7838 H   0  0  0  0  0  0  0  0  0  0  0  0
   47.7370    3.7071   20.1742 H   0  0  0  0  0  0  0  0  0  0  0  0
   47.6626    5.2518   22.1009 H   0  0  0  0  0  0  0  0  0  0  0  0
   48.5483    7.5600   21.8850 H   0  0  0  0  0  0  0  0  0  0  0  0
   49.5798    2.4785   18.7569 H   0  0  0  0  0  0  0  0  0  0  0  0
   49.8872    2.4429   17.0179 H   0  0  0  0  0  0  0  0  0  0  0  0
   50.7922    3.5520   18.0575 H   0  0  0  0  0  0  0  0  0  0  0  0
   50.4072   10.7387   20.7764 H   0  0  0  0  0  0  0  0  0  0  0  0
   46.9707    8.8052   19.0482 H   0  0  0  0  0  0  0  0  0  0  0  0
   49.0226   12.7328   21.2934 H   0  0  0  0  0  0  0  0  0  0  0  0
   45.5945   10.7909   19.5657 H   0  0  0  0  0  0  0  0  0  0  0  0
   46.6114   12.7596   20.6911 H   0  0  0  0  0  0  0  0  0  0  0  0
   48.5787    6.2444   19.4607 H   0  0  0  0  0  0  0  0  0  0  0  0
   47.9432    7.5507   19.9304 H   0  0  0  0  0  0  0  0  0  0  0  0
  3  4  1  0
  4  2  1  0
  5  3  2  0
  6  2  1  0
  7  2  2  0
  8  5  1  0
  9  8  1  0
 10  9  1  0
 11  3  1  0
 12 11  2  0
 13  8  2  0
 14  4  1  0
 15 10  2  0
 16 10  1  0
 17 16  2  0
 18 15  1  0
 19 17  1  0
 12 13  1  0
 18 19  2  0
 21 22  1  0
 22 20  1  0
 23 21  2  0
 24 20  1  0
 25 20  2  0
 26 23  1  0
 27 26  1  0
 28 27  1  0
 29 21  1  0
 30 29  2  0
 31 26  2  0
 32 22  1  0
 33 28  2  0
 34 28  1  0
 35 33  1  0
 36 34  2  0
 37 36  1  0
 30 31  1  0
 35 37  2  0
  1 40  1  0
  1 41  1  0
  4 42  1  6
  5 43  1  0
 11 44  1  0
 12 45  1  0
 13 46  1  0
 14 47  1  0
 14 48  1  0
 14 49  1  0
 15 50  1  0
 16 51  1  0
 17 52  1  0
 18 53  1  0
 19 54  1  0
 22 55  1  1
 23 56  1  0
 29 57  1  0
 30 58  1  0
 31 59  1  0
 32 60  1  0
 32 61  1  0
 32 62  1  0
 33 63  1  0
 34 64  1  0
 35 65  1  0
 36 66  1  0
 37 67  1  0
 39 68  1  0
 39 69  1  0
M  CHG  3   6  -1  24  -1  38   2
M  END
> <Uni-Dock RESULT> 
ENERGY=   -6.331  LOWER_BOUND=    4.805  UPPER_BOUND=    8.141
INTER + INTRA:          -6.331
INTER:                  -6.331
INTRA:                   0.000
UNBOUND:                 0.000

$$$$

     RDKit          3D

 69 68  0  0  0  0  0  0  0  0999 V2000
   47.1752    6.4913   12.2724 O   0  0  0  0  0  0  0  0  0  0  0  0
   44.9502    4.6675   10.2510 C   0  0  0  0  0  0  0  0  0  0  0  0
   45.5524    4.9449   12.6754 C   0  0  0  0  0  0  0  0  0  0  0  0
   44.4969    4.4273   11.7082 C   0  0  1  0  0  0  0  0  0  0  0  0
   45.8268    6.3158   12.7937 C   0  0  0  0  0  0  0  0  0  0  0  0
   44.4954    5.7027    9.6815 O   0  0  0  0  0  0  0  0  0  0  0  0
   45.7208    3.7790    9.7782 O   0  0  0  0  0  0  0  0  0  0  0  0
   46.8338    6.7576   13.6531 C   0  0  0  0  0  0  0  0  0  0  0  0
   47.0845    8.1068   13.7416 O   0  0  0  0  0  0  0  0  0  0  0  0
   48.2702    8.5422   13.1836 C   0  0  0  0  0  0  0  0  0  0  0  0
   46.2963    4.0399   13.4511 C   0  0  0  0  0  0  0  0  0  0  0  0
   47.2820    4.4916   14.3331 C   0  0  0  0  0  0  0  0  0  0  0  0
   47.5491    5.8544   14.4402 C   0  0  0  0  0  0  0  0  0  0  0  0
   43.1140    5.0080   12.0010 C   0  0  0  0  0  0  0  0  0  0  0  0
   48.7876    8.0368   11.9870 C   0  0  0  0  0  0  0  0  0  0  0  0
   48.9257    9.5862   13.8392 C   0  0  0  0  0  0  0  0  0  0  0  0
   50.1114   10.1039   13.3157 C   0  0  0  0  0  0  0  0  0  0  0  0
   49.9724    8.5562   11.4661 C   0  0  0  0  0  0  0  0  0  0  0  0
   50.6362    9.5873   12.1308 C   0  0  0  0  0  0  0  0  0  0  0  0
   42.9883    4.9475   12.7594 C   0  0  0  0  0  0  0  0  0  0  0  0
   45.4728    5.1619   12.3248 C   0  0  0  0  0  0  0  0  0  0  0  0
   44.1422    4.6822   11.7661 C   0  0  1  0  0  0  0  0  0  0  0  0
   46.2716    6.0431   11.5803 C   0  0  0  0  0  0  0  0  0  0  0  0
   42.6787    3.9888   13.5298 O   0  0  0  0  0  0  0  0  0  0  0  0
   42.4675    6.1001   12.6790 O   0  0  0  0  0  0  0  0  0  0  0  0
   47.4932    6.4866   12.0886 C   0  0  0  0  0  0  0  0  0  0  0  0
   48.2425    7.3344   11.3060 O   0  0  0  0  0  0  0  0  0  0  0  0
   48.6142    8.5381   11.8631 C   0  0  0  0  0  0  0  0  0  0  0  0
   45.9397    4.7235   13.5747 C   0  0  0  0  0  0  0  0  0  0  0  0
   47.1726    5.1528   14.0707 C   0  0  0  0  0  0  0  0  0  0  0  0
   47.9571    6.0282   13.3227 C   0  0  0  0  0  0  0  0  0  0  0  0
   44.2292    3.2158   11.3484 C   0  0  0  0  0  0  0  0  0  0  0  0
   49.8862    9.0087   11.5345 C   0  0  0  0  0  0  0  0  0  0  0  0
   47.7702    9.3076   12.6682 C   0  0  0  0  0  0  0  0  0  0  0  0
   50.3321   10.2293   12.0440 C   0  0  0  0  0  0  0  0  0  0  0  0
   48.2173   10.5300   13.1748 C   0  0  0  0  0  0  0  0  0  0  0  0
   49.4984   10.9883   12.8662 C   0  0  0  0  0  0  0  0  0  0  0  0
   46.9548    6.5636   12.5956 Ca  0  0  0  0  0 15  0  0  0  0  0  0
   47.2025    6.5336   12.2856 O   0  0  0  0  0  0  0  0  0  0  0  0
   46.4165    5.9867   12.6028 H   0  0  0  0  0  0  0  0  0  0  0  0
   47.2729    7.2129   12.9117 H   0  0  0  0  0  0  0  0  0  0  0  0
   44.4075    3.3386   11.8317 H   0  0  0  0  0  0  0  0  0  0  0  0
   45.2867    7.0340   12.1794 H   0  0  0  0  0  0  0  0  0  0  0  0
   46.1164    2.9714   13.3530 H   0  0  0  0  0  0  0  0  0  0  0  0
   47.8481    3.7744   14.9208 H   0  0  0  0  0  0  0  0  0  0  0  0
   48.3164    6.2076   15.1190 H   0  0  0  0  0  0  0  0  0  0  0  0
   42.7850    4.7320   13.0081 H   0  0  0  0  0  0  0  0  0  0  0  0
   42.3774    4.6245   11.2880 H   0  0  0  0  0  0  0  0  0  0  0  0
   43.0928    6.1006   11.9360 H   0  0  0  0  0  0  0  0  0  0  0  0
   48.2709    7.2493   11.4417 H   0  0  0  0  0  0  0  0  0  0  0  0
   48.5127    9.9948   14.7545 H   0  0  0  0  0  0  0  0  0  0  0  0
   50.6227   10.9135   13.8282 H   0  0  0  0  0  0  0  0  0  0  0  0
   50.3664    8.1568   10.5349 H   0  0  0  0  0  0  0  0  0  0  0  0
   51.5561    9.9907   11.7190 H   0  0  0  0  0  0  0  0  0  0  0  0
   43.9102    5.2602   10.8600 H   0  0  0  0  0  0  0  0  0  0  0  0
   45.9324    6.4006   10.6124 H   0  0  0  0  0  0  0  0  0  0  0  0
   45.3259    4.0498   14.1729 H   0  0  0  0  0  0  0  0  0  0  0  0
   47.5098    4.8087   15.0439 H   0  0  0  0  0  0  0  0  0  0  0  0
   48.9162    6.3572   13.7087 H   0  0  0  0  0  0  0  0  0  0  0  0
   44.4526    2.5561   12.1929 H   0  0  0  0  0  0  0  0  0  0  0  0
   43.2809    2.8808   10.9117 H   0  0  0  0  0  0  0  0  0  0  0  0
   45.0125    3.0646   10.5994 H   0  0  0  0  0  0  0  0  0  0  0  0
   50.5313    8.4168   10.8912 H   0  0  0  0  0  0  0  0  0  0  0  0
   46.7637    8.9651   12.9011 H   0  0  0  0  0  0  0  0  0  0  0  0
   51.3292   10.5843   11.8002 H   0  0  0  0  0  0  0  0  0  0  0  0
   47.5614   11.1214   13.8059 H   0  0  0  0  0  0  0  0  0  0  0  0
   49.8448   11.9387   13.2629 H   0  0  0  0  0  0  0  0  0  0  0  0
   46.4619    5.9528   12.5164 H   0  0  0  0  0  0  0  0  0  0  0  0
   47.2001    7.2044   12.9848 H   0  0  0  0  0  0  0  0  0  0  0  0
  3  4  1  0
  4  2  1  0
  5  3  2  0
  6  2  1  0
  7  2  2  0
  8  5  1  0
  9  8  1  0
 10  9  1  0
 11  3  1  0
 12 11  2  0
 13  8  2  0
 14  4  1  0
 15 10  2  0
 16 10  1  0
 17 16  2  0
 18 15  1  0
 19 17  1  0
 12 13  1  0
 18 19  2  0
 21 22  1  0
 22 20  1  0
 23 21  2  0
 24 20  1  0
 25 20  2  0
 26 23  1  0
 27 26  1  0
 28 27  1  0
 29 21  1  0
 30 29  2  0
 31 26  2  0
 32 22  1  0
 33 28  2  0
 34 28  1  0
 35 33  1  0
 36 34  2  0
 37 36  1  0
 30 31  1  0
 35 37  2  0
  1 40  1  0
  1 41  1  0
  4 42  1  6
  5 43  1  0
 11 44  1  0
 12 45  1  0
 13 46  1  0
 14 47  1  0
 14 48  1  0
 14 49  1  0
 15 50  1  0
 16 51  1  0
 17 52  1  0
 18 53  1  0
 19 54  1  0
 22 55  1  1
 23 56  1  0
 29 57  1  0
 30 58  1  0
 31 59  1  0
 32 60  1  0
 32 61  1  0
 32 62  1  0
 33 63  1  0
 34 64  1  0
 35 65  1  0
 36 66  1  0
 37 67  1  0
 39 68  1  0
 39 69  1  0
M  CHG  3   6  -1  24  -1  38   2
M  END
> <Uni-Dock RESULT> 
ENERGY=   -6.169  LOWER_BOUND=    2.080  UPPER_BOUND=    6.137
INTER + INTRA:          -6.169
INTER:                  -6.169
INTRA:                   0.000
UNBOUND:                 0.000

$$$$

     RDKit          3D

 69 68  0  0  0  0  0  0  0  0999 V2000
   46.9600    7.1437   12.9194 O   0  0  0  0  0  0  0  0  0  0  0  0
   48.6312   10.1533   12.2035 C   0  0  0  0  0  0  0  0  0  0  0  0
   49.0651    7.9295   13.2916 C   0  0  0  0  0  0  0  0  0  0  0  0
   49.7162    9.1697   12.6957 C   0  0  1  0  0  0  0  0  0  0  0  0
   48.3477    7.0251   12.4941 C   0  0  0  0  0  0  0  0  0  0  0  0
   48.3466   10.1095   10.9707 O   0  0  0  0  0  0  0  0  0  0  0  0
   48.1566   10.9159   13.0979 O   0  0  0  0  0  0  0  0  0  0  0  0
   47.7201    5.9224   13.0756 C   0  0  0  0  0  0  0  0  0  0  0  0
   47.0180    5.0581   12.2689 O   0  0  0  0  0  0  0  0  0  0  0  0
   45.6435    5.0867   12.3991 C   0  0  0  0  0  0  0  0  0  0  0  0
   49.1508    7.6879   14.6730 C   0  0  0  0  0  0  0  0  0  0  0  0
   48.5463    6.5646   15.2442 C   0  0  0  0  0  0  0  0  0  0  0  0
   47.8333    5.6750   14.4441 C   0  0  0  0  0  0  0  0  0  0  0  0
   50.7340    8.8203   11.6107 C   0  0  0  0  0  0  0  0  0  0  0  0
   44.9139    6.2642   12.5882 C   0  0  0  0  0  0  0  0  0  0  0  0
   44.9754    3.8680   12.2647 C   0  0  0  0  0  0  0  0  0  0  0  0
   43.5830    3.8225   12.3486 C   0  0  0  0  0  0  0  0  0  0  0  0
   43.5226    6.2158   12.6713 C   0  0  0  0  0  0  0  0  0  0  0  0
   42.8568    4.9957   12.5545 C   0  0  0  0  0  0  0  0  0  0  0  0
   51.1835    8.2554   11.8817 C   0  0  0  0  0  0  0  0  0  0  0  0
   48.8941    8.1063   12.9512 C   0  0  0  0  0  0  0  0  0  0  0  0
   49.9278    9.0350   12.3334 C   0  0  1  0  0  0  0  0  0  0  0  0
   47.5774    8.0976   12.4662 C   0  0  0  0  0  0  0  0  0  0  0  0
   52.1445    8.2108   12.7082 O   0  0  0  0  0  0  0  0  0  0  0  0
   51.1144    7.7576   10.7184 O   0  0  0  0  0  0  0  0  0  0  0  0
   46.6251    7.2470   13.0293 C   0  0  0  0  0  0  0  0  0  0  0  0
   45.3457    7.2958   12.5259 O   0  0  0  0  0  0  0  0  0  0  0  0
   44.8028    6.1121   12.0771 C   0  0  0  0  0  0  0  0  0  0  0  0
   49.2216    7.2604   14.0234 C   0  0  0  0  0  0  0  0  0  0  0  0
   48.2605    6.4261   14.5983 C   0  0  0  0  0  0  0  0  0  0  0  0
   46.9563    6.4257   14.1083 C   0  0  0  0  0  0  0  0  0  0  0  0
   50.2619   10.1811   13.2861 C   0  0  0  0  0  0  0  0  0  0  0  0
   43.4420    5.9206   12.3203 C   0  0  0  0  0  0  0  0  0  0  0  0
   45.5260    5.1564   11.3585 C   0  0  0  0  0  0  0  0  0  0  0  0
   42.8117    4.7548   11.8821 C   0  0  0  0  0  0  0  0  0  0  0  0
   44.8928    3.9917   10.9186 C   0  0  0  0  0  0  0  0  0  0  0  0
   43.5381    3.7895   11.1837 C   0  0  0  0  0  0  0  0  0  0  0  0
   47.2481    6.8739   12.8698 Ca  0  0  0  0  0 15  0  0  0  0  0  0
   46.9266    7.1051   12.9091 O   0  0  0  0  0  0  0  0  0  0  0  0
   47.9179    7.2734   12.9901 H   0  0  0  0  0  0  0  0  0  0  0  0
   46.8663    6.2047   12.6998 H   0  0  0  0  0  0  0  0  0  0  0  0
   50.2741    9.6910   13.4866 H   0  0  0  0  0  0  0  0  0  0  0  0
   48.2393    7.2079   11.4265 H   0  0  0  0  0  0  0  0  0  0  0  0
   49.6798    8.3924   15.3114 H   0  0  0  0  0  0  0  0  0  0  0  0
   48.6218    6.3988   16.3152 H   0  0  0  0  0  0  0  0  0  0  0  0
   47.3587    4.8060   14.8846 H   0  0  0  0  0  0  0  0  0  0  0  0
   51.5404    8.2045   12.0220 H   0  0  0  0  0  0  0  0  0  0  0  0
   51.1811    9.7293   11.1961 H   0  0  0  0  0  0  0  0  0  0  0  0
   50.2893    8.2663   10.7776 H   0  0  0  0  0  0  0  0  0  0  0  0
   45.4143    7.2283   12.6571 H   0  0  0  0  0  0  0  0  0  0  0  0
   45.5388    2.9576   12.0943 H   0  0  0  0  0  0  0  0  0  0  0  0
   43.0642    2.8737   12.2476 H   0  0  0  0  0  0  0  0  0  0  0  0
   42.9642    7.1369   12.8180 H   0  0  0  0  0  0  0  0  0  0  0  0
   41.7733    4.9640   12.6161 H   0  0  0  0  0  0  0  0  0  0  0  0
   49.5004    9.4864   11.4266 H   0  0  0  0  0  0  0  0  0  0  0  0
   47.2984    8.7392   11.6355 H   0  0  0  0  0  0  0  0  0  0  0  0
   50.2431    7.2440   14.4038 H   0  0  0  0  0  0  0  0  0  0  0  0
   48.5382    5.7730   15.4203 H   0  0  0  0  0  0  0  0  0  0  0  0
   46.2107    5.7793   14.5592 H   0  0  0  0  0  0  0  0  0  0  0  0
   50.7024    9.8267   14.2234 H   0  0  0  0  0  0  0  0  0  0  0  0
   50.9794   10.8704   12.8257 H   0  0  0  0  0  0  0  0  0  0  0  0
   49.3661   10.7550   13.5423 H   0  0  0  0  0  0  0  0  0  0  0  0
   42.8787    6.6759   12.8612 H   0  0  0  0  0  0  0  0  0  0  0  0
   46.5792    5.3132   11.1337 H   0  0  0  0  0  0  0  0  0  0  0  0
   41.7565    4.6013   12.0883 H   0  0  0  0  0  0  0  0  0  0  0  0
   45.4598    3.2484   10.3671 H   0  0  0  0  0  0  0  0  0  0  0  0
   43.0480    2.8819   10.8421 H   0  0  0  0  0  0  0  0  0  0  0  0
   47.8577    7.3557   13.0064 H   0  0  0  0  0  0  0  0  0  0  0  0
   46.9601    6.1610   12.6938 H   0  0  0  0  0  0  0  0  0  0  0  0
  3  4  1  0
  4  2  1  0
  5  3  2  0
  6  2  1  0
  7  2  2  0
  8  5  1  0
  9  8  1  0
 10  9  1  0
 11  3  1  0
 12 11  2  0
 13  8  2  0
 14  4  1  0
 15 10  2  0
 16 10  1  0
 17 16  2  0
 18 15  1  0
 19 17  1  0
 12 13  1  0
 18 19  2  0
 21 22  1  0
 22 20  1  0
 23 21  2  0
 24 20  1  0
 25 20  2  0
 26 23  1  0
 27 26  1  0
 28 27  1  0
 29 21  1  0
 30 29  2  0
 31 26  2  0
 32 22  1  0
 33 28  2  0
 34 28  1  0
 35 33  1  0
 36 34  2  0
 37 36  1  0
 30 31  1  0
 35 37  2  0
  1 40  1  0
  1 41  1  0
  4 42  1  6
  5 43  1  0
 11 44  1  0
 12 45  1  0
 13 46  1  0
 14 47  1  0
 14 48  1  0
 14 49  1  0
 15 50  1  0
 16 51  1  0
 17 52  1  0
 18 53  1  0
 19 54  1  0
 22 55  1  1
 23 56  1  0
 29 57  1  0
 30 58  1  0
 31 59  1  0
 32 60  1  0
 32 61  1  0
 32 62  1  0
 33 63  1  0
 34 64  1  0
 35 65  1  0
 36 66  1  0
 37 67  1  0
 39 68  1  0
 39 69  1  0
M  CHG  3   6  -1  24  -1  38   2
M  END
> <Uni-Dock RESULT> 
ENERGY=   -6.091  LOWER_BOUND=    1.806  UPPER_BOUND=    3.420
INTER + INTRA:          -6.091
INTER:                  -6.091
INTRA:                   0.000
UNBOUND:                 0.000

$$$$

     RDKit          3D

 69 68  0  0  0  0  0  0  0  0999 V2000
   47.8703    7.4268   13.5222 O   0  0  0  0  0  0  0  0  0  0  0  0
   49.0108    9.3300   16.2498 C   0  0  0  0  0  0  0  0  0  0  0  0
   49.3550    9.1363   13.7676 C   0  0  0  0  0  0  0  0  0  0  0  0
   49.5571   10.0282   14.9845 C   0  0  1  0  0  0  0  0  0  0  0  0
   48.0725    8.8479   13.2770 C   0  0  0  0  0  0  0  0  0  0  0  0
   47.8422    9.6538   16.6134 O   0  0  0  0  0  0  0  0  0  0  0  0
   49.8126    8.5158   16.7986 O   0  0  0  0  0  0  0  0  0  0  0  0
   47.9151    7.9877   12.1892 C   0  0  0  0  0  0  0  0  0  0  0  0
   46.6450    7.7183   11.7361 O   0  0  0  0  0  0  0  0  0  0  0  0
   46.1712    6.4441   11.9786 C   0  0  0  0  0  0  0  0  0  0  0  0
   50.4656    8.5587   13.1297 C   0  0  0  0  0  0  0  0  0  0  0  0
   50.3024    7.7231   12.0212 C   0  0  0  0  0  0  0  0  0  0  0  0
   49.0247    7.4402   11.5444 C   0  0  0  0  0  0  0  0  0  0  0  0
   48.9700   11.4240   14.7789 C   0  0  0  0  0  0  0  0  0  0  0  0
   46.4136    5.7471   13.1662 C   0  0  0  0  0  0  0  0  0  0  0  0
   45.3582    5.8793   10.9939 C   0  0  0  0  0  0  0  0  0  0  0  0
   44.8128    4.6087   11.1832 C   0  0  0  0  0  0  0  0  0  0  0  0
   45.8670    4.4777   13.3528 C   0  0  0  0  0  0  0  0  0  0  0  0
   45.0692    3.9068   12.3613 C   0  0  0  0  0  0  0  0  0  0  0  0
   49.1992   11.6770   14.0875 C   0  0  0  0  0  0  0  0  0  0  0  0
   49.0565    9.1499   14.0626 C   0  0  0  0  0  0  0  0  0  0  0  0
   49.2997   10.3804   14.9224 C   0  0  1  0  0  0  0  0  0  0  0  0
   48.0804    8.2132   14.4353 C   0  0  0  0  0  0  0  0  0  0  0  0
   50.2896   12.1381   13.6324 O   0  0  0  0  0  0  0  0  0  0  0  0
   48.0278   12.1447   13.9646 O   0  0  0  0  0  0  0  0  0  0  0  0
   47.8529    7.0826   13.6496 C   0  0  0  0  0  0  0  0  0  0  0  0
   46.8969    6.1893   14.0747 O   0  0  0  0  0  0  0  0  0  0  0  0
   45.8867    5.8833   13.1897 C   0  0  0  0  0  0  0  0  0  0  0  0
   49.8080    8.9119   12.9003 C   0  0  0  0  0  0  0  0  0  0  0  0
   49.5922    7.7685   12.1281 C   0  0  0  0  0  0  0  0  0  0  0  0
   48.6200    6.8455   12.5077 C   0  0  0  0  0  0  0  0  0  0  0  0
   50.6286   10.2651   15.6664 C   0  0  0  0  0  0  0  0  0  0  0  0
   45.4387    4.5616   13.1904 C   0  0  0  0  0  0  0  0  0  0  0  0
   45.2738    6.8290   12.3633 C   0  0  0  0  0  0  0  0  0  0  0  0
   44.4058    4.1741   12.3353 C   0  0  0  0  0  0  0  0  0  0  0  0
   44.2386    6.4396   11.5102 C   0  0  0  0  0  0  0  0  0  0  0  0
   43.8080    5.1128   11.4935 C   0  0  0  0  0  0  0  0  0  0  0  0
   47.8616    7.6962   13.2297 Ca  0  0  0  0  0 15  0  0  0  0  0  0
   47.8342    7.4009   13.4950 O   0  0  0  0  0  0  0  0  0  0  0  0
   48.3862    8.2439   13.4478 H   0  0  0  0  0  0  0  0  0  0  0  0
   47.3283    7.4179   12.7191 H   0  0  0  0  0  0  0  0  0  0  0  0
   50.6357   10.1672   15.1460 H   0  0  0  0  0  0  0  0  0  0  0  0
   47.1948    9.2570   13.7741 H   0  0  0  0  0  0  0  0  0  0  0  0
   51.4661    8.7490   13.5124 H   0  0  0  0  0  0  0  0  0  0  0  0
   51.1746    7.2839   11.5451 H   0  0  0  0  0  0  0  0  0  0  0  0
   48.8943    6.7883   10.6886 H   0  0  0  0  0  0  0  0  0  0  0  0
   49.4532   11.9251   13.9338 H   0  0  0  0  0  0  0  0  0  0  0  0
   49.1237   12.0406   15.6701 H   0  0  0  0  0  0  0  0  0  0  0  0
   47.8940   11.4038   14.5779 H   0  0  0  0  0  0  0  0  0  0  0  0
   47.0133    6.1865   13.9611 H   0  0  0  0  0  0  0  0  0  0  0  0
   45.1503    6.4289   10.0827 H   0  0  0  0  0  0  0  0  0  0  0  0
   44.1834    4.1686   10.4153 H   0  0  0  0  0  0  0  0  0  0  0  0
   46.0609    3.9441   14.2799 H   0  0  0  0  0  0  0  0  0  0  0  0
   44.6430    2.9200   12.5132 H   0  0  0  0  0  0  0  0  0  0  0  0
   48.5099   10.4407   15.6849 H   0  0  0  0  0  0  0  0  0  0  0  0
   47.4825    8.3750   15.3275 H   0  0  0  0  0  0  0  0  0  0  0  0
   50.5610    9.6359   12.5882 H   0  0  0  0  0  0  0  0  0  0  0  0
   50.1782    7.6093   11.2279 H   0  0  0  0  0  0  0  0  0  0  0  0
   48.4569    5.9562   11.9081 H   0  0  0  0  0  0  0  0  0  0  0  0
   51.4825   10.2051   14.9842 H   0  0  0  0  0  0  0  0  0  0  0  0
   50.7861   11.1354   16.3144 H   0  0  0  0  0  0  0  0  0  0  0  0
   50.6511    9.3716   16.2977 H   0  0  0  0  0  0  0  0  0  0  0  0
   45.9041    3.8342   13.8496 H   0  0  0  0  0  0  0  0  0  0  0  0
   45.5929    7.8693   12.3813 H   0  0  0  0  0  0  0  0  0  0  0  0
   44.0715    3.1408   12.3261 H   0  0  0  0  0  0  0  0  0  0  0  0
   43.7700    7.1757   10.8645 H   0  0  0  0  0  0  0  0  0  0  0  0
   43.0037    4.8118   10.8278 H   0  0  0  0  0  0  0  0  0  0  0  0
   48.4018    8.1855   13.5316 H   0  0  0  0  0  0  0  0  0  0  0  0
   47.3489    7.5022   12.6625 H   0  0  0  0  0  0  0  0  0  0  0  0
  3  4  1  0
  4  2  1  0
  5  3  2  0
  6  2  1  0
  7  2  2  0
  8  5  1  0
  9  8  1  0
 10  9  1  0
 11  3  1  0
 12 11  2  0
 13  8  2  0
 14  4  1  0
 15 10  2  0
 16 10  1  0
 17 16  2  0
 18 15  1  0
 19 17  1  0
 12 13  1  0
 18 19  2  0
 21 22  1  0
 22 20  1  0
 23 21  2  0
 24 20  1  0
 25 20  2  0
 26 23  1  0
 27 26  1  0
 28 27  1  0
 29 21  1  0
 30 29  2  0
 31 26  2  0
 32 22  1  0
 33 28  2  0
 34 28  1  0
 35 33  1  0
 36 34  2  0
 37 36  1  0
 30 31  1  0
 35 37  2  0
  1 40  1  0
  1 41  1  0
  4 42  1  6
  5 43  1  0
 11 44  1  0
 12 45  1  0
 13 46  1  0
 14 47  1  0
 14 48  1  0
 14 49  1  0
 15 50  1  0
 16 51  1  0
 17 52  1  0
 18 53  1  0
 19 54  1  0
 22 55  1  1
 23 56  1  0
 29 57  1  0
 30 58  1  0
 31 59  1  0
 32 60  1  0
 32 61  1  0
 32 62  1  0
 33 63  1  0
 34 64  1  0
 35 65  1  0
 36 66  1  0
 37 67  1  0
 39 68  1  0
 39 69  1  0
M  CHG  3   6  -1  24  -1  38   2
M  END
> <Uni-Dock RESULT> 
ENERGY=   -6.079  LOWER_BOUND=    1.490  UPPER_BOUND=    2.069
INTER + INTRA:          -6.079
INTER:                  -6.079
INTRA:                   0.000
UNBOUND:                 0.000

$$$$
