
     RDKit          3D

 69 68  0  0  0  0  0  0  0  0999 V2000
   42.3046   14.3528   13.3466 O   0  0  0  0  0  0  0  0  0  0  0  0
   45.8587   13.5680   12.2123 C   0  0  0  0  0  0  0  0  0  0  0  0
   44.0573   15.2647   12.6353 C   0  0  0  0  0  0  0  0  0  0  0  0
   44.9969   14.6867   11.5881 C   0  0  1  0  0  0  0  0  0  0  0  0
   42.6752   15.0626   12.5236 C   0  0  0  0  0  0  0  0  0  0  0  0
   45.3208   12.4213   12.2174 O   0  0  0  0  0  0  0  0  0  0  0  0
   47.0045   13.9095   12.6280 O   0  0  0  0  0  0  0  0  0  0  0  0
   41.8136   15.5445   13.5104 C   0  0  0  0  0  0  0  0  0  0  0  0
   40.4662   15.2954   13.3876 O   0  0  0  0  0  0  0  0  0  0  0  0
   39.9236   14.3834   14.2698 C   0  0  0  0  0  0  0  0  0  0  0  0
   44.5449   15.9783   13.7429 C   0  0  0  0  0  0  0  0  0  0  0  0
   43.6738   16.4930   14.7066 C   0  0  0  0  0  0  0  0  0  0  0  0
   42.3025   16.2834   14.5878 C   0  0  0  0  0  0  0  0  0  0  0  0
   45.8330   15.7724   10.9130 C   0  0  0  0  0  0  0  0  0  0  0  0
   40.6288   13.3111   14.8248 C   0  0  0  0  0  0  0  0  0  0  0  0
   38.5678   14.5446   14.5616 C   0  0  0  0  0  0  0  0  0  0  0  0
   37.9252   13.6575   15.4268 C   0  0  0  0  0  0  0  0  0  0  0  0
   39.9844   12.4239   15.6892 C   0  0  0  0  0  0  0  0  0  0  0  0
   38.6348   12.5985   15.9921 C   0  0  0  0  0  0  0  0  0  0  0  0
   44.3145   16.2824   10.0531 C   0  0  0  0  0  0  0  0  0  0  0  0
   44.1502   15.3209   12.4052 C   0  0  0  0  0  0  0  0  0  0  0  0
   44.6903   15.1179   10.9973 C   0  0  1  0  0  0  0  0  0  0  0  0
   42.7927   15.5889   12.6383 C   0  0  0  0  0  0  0  0  0  0  0  0
   43.2763   16.1212    9.3458 O   0  0  0  0  0  0  0  0  0  0  0  0
   45.1148   17.2646   10.0713 O   0  0  0  0  0  0  0  0  0  0  0  0
   42.3097   15.6875   13.9439 C   0  0  0  0  0  0  0  0  0  0  0  0
   40.9695   15.9476   14.1261 O   0  0  0  0  0  0  0  0  0  0  0  0
   40.2573   14.9814   14.8029 C   0  0  0  0  0  0  0  0  0  0  0  0
   45.0086   15.1845   13.5086 C   0  0  0  0  0  0  0  0  0  0  0  0
   44.5261   15.3145   14.8138 C   0  0  0  0  0  0  0  0  0  0  0  0
   43.1742   15.5682   15.0338 C   0  0  0  0  0  0  0  0  0  0  0  0
   44.2492   13.7615   10.4451 C   0  0  0  0  0  0  0  0  0  0  0  0
   39.3932   15.4131   15.8111 C   0  0  0  0  0  0  0  0  0  0  0  0
   40.3340   13.6237   14.4767 C   0  0  0  0  0  0  0  0  0  0  0  0
   38.6318   14.4816   16.5191 C   0  0  0  0  0  0  0  0  0  0  0  0
   39.5730   12.6946   15.1872 C   0  0  0  0  0  0  0  0  0  0  0  0
   38.7277   13.1226   16.2128 C   0  0  0  0  0  0  0  0  0  0  0  0
   42.3808   14.6868   13.5486 Ca  0  0  0  0  0 15  0  0  0  0  0  0
   42.3223   14.3569   13.3342 O   0  0  0  0  0  0  0  0  0  0  0  0
   41.8093   14.7256   14.0912 H   0  0  0  0  0  0  0  0  0  0  0  0
   43.0284   14.9820   13.2080 H   0  0  0  0  0  0  0  0  0  0  0  0
   44.3963   14.2195   10.7962 H   0  0  0  0  0  0  0  0  0  0  0  0
   42.2739   14.4908   11.6910 H   0  0  0  0  0  0  0  0  0  0  0  0
   45.6191   16.1100   13.8673 H   0  0  0  0  0  0  0  0  0  0  0  0
   44.0752   17.0363   15.5574 H   0  0  0  0  0  0  0  0  0  0  0  0
   41.6240   16.6677   15.3408 H   0  0  0  0  0  0  0  0  0  0  0  0
   45.1889   16.5106   10.4206 H   0  0  0  0  0  0  0  0  0  0  0  0
   46.4879   15.3334   10.1518 H   0  0  0  0  0  0  0  0  0  0  0  0
   46.4708   16.3156   11.6212 H   0  0  0  0  0  0  0  0  0  0  0  0
   41.6775   13.1466   14.5874 H   0  0  0  0  0  0  0  0  0  0  0  0
   38.0129   15.3643   14.1167 H   0  0  0  0  0  0  0  0  0  0  0  0
   36.8721   13.7881   15.6543 H   0  0  0  0  0  0  0  0  0  0  0  0
   40.5403   11.5924   16.1162 H   0  0  0  0  0  0  0  0  0  0  0  0
   38.1349   11.9042   16.6623 H   0  0  0  0  0  0  0  0  0  0  0  0
   45.7881   15.1044   11.0400 H   0  0  0  0  0  0  0  0  0  0  0  0
   42.1085   15.7075   11.7981 H   0  0  0  0  0  0  0  0  0  0  0  0
   46.0644   14.9813   13.3466 H   0  0  0  0  0  0  0  0  0  0  0  0
   45.2062   15.2148   15.6529 H   0  0  0  0  0  0  0  0  0  0  0  0
   42.7951   15.6716   16.0444 H   0  0  0  0  0  0  0  0  0  0  0  0
   44.6332   12.9437   11.0667 H   0  0  0  0  0  0  0  0  0  0  0  0
   43.1572   13.6611   10.4102 H   0  0  0  0  0  0  0  0  0  0  0  0
   44.6267   13.6189    9.4270 H   0  0  0  0  0  0  0  0  0  0  0  0
   39.3217   16.4719   16.0434 H   0  0  0  0  0  0  0  0  0  0  0  0
   40.9773   13.2873   13.6655 H   0  0  0  0  0  0  0  0  0  0  0  0
   37.9682   14.8164   17.3123 H   0  0  0  0  0  0  0  0  0  0  0  0
   39.6424   11.6398   14.9370 H   0  0  0  0  0  0  0  0  0  0  0  0
   38.1377   12.3970   16.7656 H   0  0  0  0  0  0  0  0  0  0  0  0
   43.0266   15.0151   13.2364 H   0  0  0  0  0  0  0  0  0  0  0  0
   41.7933   14.6882   14.0753 H   0  0  0  0  0  0  0  0  0  0  0  0
  3  4  1  0
  4  2  1  0
  5  3  2  0
  6  2  1  0
  7  2  2  0
  8  5  1  0
  9  8  1  0
 10  9  1  0
 11  3  1  0
 12 11  2  0
 13  8  2  0
 14  4  1  0
 15 10  2  0
 16 10  1  0
 17 16  2  0
 18 15  1  0
 19 17  1  0
 12 13  1  0
 18 19  2  0
 21 22  1  0
 22 20  1  0
 23 21  2  0
 24 20  1  0
 25 20  2  0
 26 23  1  0
 27 26  1  0
 28 27  1  0
 29 21  1  0
 30 29  2  0
 31 26  2  0
 32 22  1  0
 33 28  2  0
 34 28  1  0
 35 33  1  0
 36 34  2  0
 37 36  1  0
 30 31  1  0
 35 37  2  0
  1 40  1  0
  1 41  1  0
  4 42  1  1
  5 43  1  0
 11 44  1  0
 12 45  1  0
 13 46  1  0
 14 47  1  0
 14 48  1  0
 14 49  1  0
 15 50  1  0
 16 51  1  0
 17 52  1  0
 18 53  1  0
 19 54  1  0
 22 55  1  6
 23 56  1  0
 29 57  1  0
 30 58  1  0
 31 59  1  0
 32 60  1  0
 32 61  1  0
 32 62  1  0
 33 63  1  0
 34 64  1  0
 35 65  1  0
 36 66  1  0
 37 67  1  0
 39 68  1  0
 39 69  1  0
M  CHG  3   6  -1  24  -1  38   2
M  END
> <Uni-Dock RESULT> 
ENERGY=   -6.021  LOWER_BOUND=    0.000  UPPER_BOUND=    0.000
INTER + INTRA:          -6.021
INTER:                  -6.021
INTRA:                   0.000
UNBOUND:                 0.000

$$$$

     RDKit          3D

 69 68  0  0  0  0  0  0  0  0999 V2000
   46.9482    6.8575   13.9849 O   0  0  0  0  0  0  0  0  0  0  0  0
   48.2666    9.6665   16.1996 C   0  0  0  0  0  0  0  0  0  0  0  0
   48.6967    7.9272   14.4412 C   0  0  0  0  0  0  0  0  0  0  0  0
   49.0997    8.4228   15.8215 C   0  0  1  0  0  0  0  0  0  0  0  0
   48.0397    6.6971   14.3032 C   0  0  0  0  0  0  0  0  0  0  0  0
   47.1434    9.4148   16.7281 O   0  0  0  0  0  0  0  0  0  0  0  0
   48.7985   10.7904   15.9623 O   0  0  0  0  0  0  0  0  0  0  0  0
   47.6198    6.2632   13.0447 C   0  0  0  0  0  0  0  0  0  0  0  0
   46.9447    5.0682   12.9512 O   0  0  0  0  0  0  0  0  0  0  0  0
   45.5973    5.1409   12.6618 C   0  0  0  0  0  0  0  0  0  0  0  0
   48.9398    8.6923   13.2883 C   0  0  0  0  0  0  0  0  0  0  0  0
   48.5528    8.2338   12.0263 C   0  0  0  0  0  0  0  0  0  0  0  0
   47.8975    7.0118   11.9009 C   0  0  0  0  0  0  0  0  0  0  0  0
   50.6047    8.6643   15.9221 C   0  0  0  0  0  0  0  0  0  0  0  0
   44.7710    6.2077   13.0278 C   0  0  0  0  0  0  0  0  0  0  0  0
   45.0506    4.0358   12.0064 C   0  0  0  0  0  0  0  0  0  0  0  0
   43.6912    4.0081   11.6909 C   0  0  0  0  0  0  0  0  0  0  0  0
   43.4111    6.1780   12.7126 C   0  0  0  0  0  0  0  0  0  0  0  0
   42.8723    5.0807   12.0424 C   0  0  0  0  0  0  0  0  0  0  0  0
   50.8049    6.8573   15.9177 C   0  0  0  0  0  0  0  0  0  0  0  0
   48.8851    7.9003   14.6100 C   0  0  0  0  0  0  0  0  0  0  0  0
   49.5938    7.8167   15.9539 C   0  0  1  0  0  0  0  0  0  0  0  0
   48.4494    6.7481   13.9378 C   0  0  0  0  0  0  0  0  0  0  0  0
   50.5939    5.6694   16.3032 O   0  0  0  0  0  0  0  0  0  0  0  0
   51.8915    7.3825   15.5316 O   0  0  0  0  0  0  0  0  0  0  0  0
   47.7283    6.8588   12.7481 C   0  0  0  0  0  0  0  0  0  0  0  0
   47.3172    5.7018   12.1243 O   0  0  0  0  0  0  0  0  0  0  0  0
   45.9550    5.5474   11.9836 C   0  0  0  0  0  0  0  0  0  0  0  0
   48.6049    9.1556   14.0454 C   0  0  0  0  0  0  0  0  0  0  0  0
   47.9091    9.2603   12.8379 C   0  0  0  0  0  0  0  0  0  0  0  0
   47.4706    8.1104   12.1856 C   0  0  0  0  0  0  0  0  0  0  0  0
   48.6023    7.4535   17.0604 C   0  0  0  0  0  0  0  0  0  0  0  0
   45.4844    5.1301   10.7371 C   0  0  0  0  0  0  0  0  0  0  0  0
   45.0630    5.7384   13.0436 C   0  0  0  0  0  0  0  0  0  0  0  0
   44.1158    4.9389   10.5400 C   0  0  0  0  0  0  0  0  0  0  0  0
   43.6953    5.5482   12.8433 C   0  0  0  0  0  0  0  0  0  0  0  0
   43.2211    5.1556   11.5900 C   0  0  0  0  0  0  0  0  0  0  0  0
   47.1487    6.9464   13.6531 Ca  0  0  0  0  0 15  0  0  0  0  0  0
   46.9643    6.8670   13.9965 O   0  0  0  0  0  0  0  0  0  0  0  0
   46.7001    6.6651   13.0682 H   0  0  0  0  0  0  0  0  0  0  0  0
   47.7980    7.3166   13.9063 H   0  0  0  0  0  0  0  0  0  0  0  0
   48.8597    7.6447   16.5585 H   0  0  0  0  0  0  0  0  0  0  0  0
   47.8152    6.0980   15.1818 H   0  0  0  0  0  0  0  0  0  0  0  0
   49.4128    9.6692   13.3810 H   0  0  0  0  0  0  0  0  0  0  0  0
   48.7463    8.8462   11.1502 H   0  0  0  0  0  0  0  0  0  0  0  0
   47.5818    6.6588   10.9258 H   0  0  0  0  0  0  0  0  0  0  0  0
   51.1619    7.7426   15.7164 H   0  0  0  0  0  0  0  0  0  0  0  0
   50.8716    9.0034   16.9295 H   0  0  0  0  0  0  0  0  0  0  0  0
   50.9584    9.4248   15.2152 H   0  0  0  0  0  0  0  0  0  0  0  0
   45.1677    7.0651   13.5669 H   0  0  0  0  0  0  0  0  0  0  0  0
   45.6856    3.1975   11.7387 H   0  0  0  0  0  0  0  0  0  0  0  0
   43.2703    3.1492   11.1781 H   0  0  0  0  0  0  0  0  0  0  0  0
   42.7755    7.0119   13.0014 H   0  0  0  0  0  0  0  0  0  0  0  0
   41.8126    5.0587   11.8017 H   0  0  0  0  0  0  0  0  0  0  0  0
   49.9993    8.8077   16.2002 H   0  0  0  0  0  0  0  0  0  0  0  0
   48.6623    5.7625   14.3517 H   0  0  0  0  0  0  0  0  0  0  0  0
   48.9389   10.0588   14.5502 H   0  0  0  0  0  0  0  0  0  0  0  0
   47.7101   10.2382   12.4130 H   0  0  0  0  0  0  0  0  0  0  0  0
   46.9318    8.1860   11.2476 H   0  0  0  0  0  0  0  0  0  0  0  0
   47.8187    8.2158   17.1476 H   0  0  0  0  0  0  0  0  0  0  0  0
   48.1053    6.4930   16.8755 H   0  0  0  0  0  0  0  0  0  0  0  0
   49.1129    7.3808   18.0264 H   0  0  0  0  0  0  0  0  0  0  0  0
   46.1856    4.9614    9.9248 H   0  0  0  0  0  0  0  0  0  0  0  0
   45.4297    6.0262   14.0274 H   0  0  0  0  0  0  0  0  0  0  0  0
   43.7482    4.6259    9.5660 H   0  0  0  0  0  0  0  0  0  0  0  0
   43.0047    5.7066   13.6667 H   0  0  0  0  0  0  0  0  0  0  0  0
   42.1556    5.0099   11.4362 H   0  0  0  0  0  0  0  0  0  0  0  0
   47.8102    7.3207   13.8646 H   0  0  0  0  0  0  0  0  0  0  0  0
   46.6716    6.6514   13.0983 H   0  0  0  0  0  0  0  0  0  0  0  0
  3  4  1  0
  4  2  1  0
  5  3  2  0
  6  2  1  0
  7  2  2  0
  8  5  1  0
  9  8  1  0
 10  9  1  0
 11  3  1  0
 12 11  2  0
 13  8  2  0
 14  4  1  0
 15 10  2  0
 16 10  1  0
 17 16  2  0
 18 15  1  0
 19 17  1  0
 12 13  1  0
 18 19  2  0
 21 22  1  0
 22 20  1  0
 23 21  2  0
 24 20  1  0
 25 20  2  0
 26 23  1  0
 27 26  1  0
 28 27  1  0
 29 21  1  0
 30 29  2  0
 31 26  2  0
 32 22  1  0
 33 28  2  0
 34 28  1  0
 35 33  1  0
 36 34  2  0
 37 36  1  0
 30 31  1  0
 35 37  2  0
  1 40  1  0
  1 41  1  0
  4 42  1  1
  5 43  1  0
 11 44  1  0
 12 45  1  0
 13 46  1  0
 14 47  1  0
 14 48  1  0
 14 49  1  0
 15 50  1  0
 16 51  1  0
 17 52  1  0
 18 53  1  0
 19 54  1  0
 22 55  1  6
 23 56  1  0
 29 57  1  0
 30 58  1  0
 31 59  1  0
 32 60  1  0
 32 61  1  0
 32 62  1  0
 33 63  1  0
 34 64  1  0
 35 65  1  0
 36 66  1  0
 37 67  1  0
 39 68  1  0
 39 69  1  0
M  CHG  3   6  -1  24  -1  38   2
M  END
> <Uni-Dock RESULT> 
ENERGY=   -5.827  LOWER_BOUND=    8.214  UPPER_BOUND=   10.126
INTER + INTRA:          -5.827
INTER:                  -5.827
INTRA:                   0.000
UNBOUND:                 0.000

$$$$

     RDKit          3D

 69 68  0  0  0  0  0  0  0  0999 V2000
   47.2019    9.5319   12.9881 O   0  0  0  0  0  0  0  0  0  0  0  0
   50.8823    9.0609   13.8634 C   0  0  0  0  0  0  0  0  0  0  0  0
   48.5301    8.1843   13.8987 C   0  0  0  0  0  0  0  0  0  0  0  0
   49.7273    8.5611   14.7578 C   0  0  1  0  0  0  0  0  0  0  0  0
   47.3550    8.9449   13.9630 C   0  0  0  0  0  0  0  0  0  0  0  0
   50.8335   10.2917   13.5685 O   0  0  0  0  0  0  0  0  0  0  0  0
   51.7542    8.2013   13.5421 O   0  0  0  0  0  0  0  0  0  0  0  0
   46.2729    8.6358   13.1372 C   0  0  0  0  0  0  0  0  0  0  0  0
   45.1491    9.4266   13.2001 O   0  0  0  0  0  0  0  0  0  0  0  0
   44.9103   10.2482   12.1173 C   0  0  0  0  0  0  0  0  0  0  0  0
   48.5806    7.0994   13.0074 C   0  0  0  0  0  0  0  0  0  0  0  0
   47.4795    6.7704   12.2124 C   0  0  0  0  0  0  0  0  0  0  0  0
   46.3181    7.5349   12.2816 C   0  0  0  0  0  0  0  0  0  0  0  0
   50.1451    7.4198   15.6831 C   0  0  0  0  0  0  0  0  0  0  0  0
   45.9114   10.7858   11.3025 C   0  0  0  0  0  0  0  0  0  0  0  0
   43.5750   10.5829   11.8843 C   0  0  0  0  0  0  0  0  0  0  0  0
   43.2369   11.4265   10.8249 C   0  0  0  0  0  0  0  0  0  0  0  0
   45.5718   11.6304   10.2439 C   0  0  0  0  0  0  0  0  0  0  0  0
   44.2358   11.9482   10.0035 C   0  0  0  0  0  0  0  0  0  0  0  0
   48.6501    7.7779   16.6537 C   0  0  0  0  0  0  0  0  0  0  0  0
   48.6182    8.1505   14.1350 C   0  0  0  0  0  0  0  0  0  0  0  0
   49.3433    8.4395   15.4410 C   0  0  1  0  0  0  0  0  0  0  0  0
   47.2463    8.4049   13.9860 C   0  0  0  0  0  0  0  0  0  0  0  0
   47.8383    8.5021   17.3023 O   0  0  0  0  0  0  0  0  0  0  0  0
   49.0003    6.5819   16.8825 O   0  0  0  0  0  0  0  0  0  0  0  0
   46.6250    8.2092   12.7518 C   0  0  0  0  0  0  0  0  0  0  0  0
   45.2775    8.4754   12.6500 O   0  0  0  0  0  0  0  0  0  0  0  0
   44.9266    9.4607   11.7528 C   0  0  0  0  0  0  0  0  0  0  0  0
   49.3379    7.6704   13.0283 C   0  0  0  0  0  0  0  0  0  0  0  0
   48.7048    7.4468   11.8026 C   0  0  0  0  0  0  0  0  0  0  0  0
   47.3451    7.7146   11.6627 C   0  0  0  0  0  0  0  0  0  0  0  0
   49.5245    9.9462   15.6307 C   0  0  0  0  0  0  0  0  0  0  0  0
   43.8594    9.1922   10.8936 C   0  0  0  0  0  0  0  0  0  0  0  0
   45.5580   10.7082   11.7207 C   0  0  0  0  0  0  0  0  0  0  0  0
   43.4467   10.1593    9.9754 C   0  0  0  0  0  0  0  0  0  0  0  0
   45.1445   11.6724   10.8008 C   0  0  0  0  0  0  0  0  0  0  0  0
   44.0940   11.3955    9.9236 C   0  0  0  0  0  0  0  0  0  0  0  0
   47.1204    9.1586   12.8777 Ca  0  0  0  0  0 15  0  0  0  0  0  0
   47.2178    9.5240   13.0011 O   0  0  0  0  0  0  0  0  0  0  0  0
   46.5235    9.2283   12.3664 H   0  0  0  0  0  0  0  0  0  0  0  0
   47.6358    8.7157   13.2787 H   0  0  0  0  0  0  0  0  0  0  0  0
   49.4439    9.4001   15.4075 H   0  0  0  0  0  0  0  0  0  0  0  0
   47.2990    9.8058   14.6242 H   0  0  0  0  0  0  0  0  0  0  0  0
   49.4996    6.5220   12.9146 H   0  0  0  0  0  0  0  0  0  0  0  0
   47.5448    5.9306   11.5264 H   0  0  0  0  0  0  0  0  0  0  0  0
   45.4666    7.2929   11.6559 H   0  0  0  0  0  0  0  0  0  0  0  0
   49.3226    7.1389   16.3516 H   0  0  0  0  0  0  0  0  0  0  0  0
   50.9970    7.7217   16.3030 H   0  0  0  0  0  0  0  0  0  0  0  0
   50.4422    6.5181   15.1336 H   0  0  0  0  0  0  0  0  0  0  0  0
   46.9609   10.5649   11.4839 H   0  0  0  0  0  0  0  0  0  0  0  0
   42.7974   10.1831   12.5272 H   0  0  0  0  0  0  0  0  0  0  0  0
   42.1976   11.6816   10.6444 H   0  0  0  0  0  0  0  0  0  0  0  0
   46.3568   12.0444    9.6153 H   0  0  0  0  0  0  0  0  0  0  0  0
   43.9748   12.6089    9.1810 H   0  0  0  0  0  0  0  0  0  0  0  0
   50.3491    8.0001   15.3899 H   0  0  0  0  0  0  0  0  0  0  0  0
   46.6647    8.7697   14.8326 H   0  0  0  0  0  0  0  0  0  0  0  0
   50.4008    7.4634   13.1269 H   0  0  0  0  0  0  0  0  0  0  0  0
   49.2756    7.0671   10.9619 H   0  0  0  0  0  0  0  0  0  0  0  0
   46.8488    7.5412   10.7143 H   0  0  0  0  0  0  0  0  0  0  0  0
   50.1257   10.3721   14.8184 H   0  0  0  0  0  0  0  0  0  0  0  0
   48.5673   10.4823   15.6451 H   0  0  0  0  0  0  0  0  0  0  0  0
   50.0353   10.1567   16.5763 H   0  0  0  0  0  0  0  0  0  0  0  0
   43.3587    8.2292   10.9401 H   0  0  0  0  0  0  0  0  0  0  0  0
   46.3649   10.9355   12.4152 H   0  0  0  0  0  0  0  0  0  0  0  0
   42.6238    9.9457    9.2980 H   0  0  0  0  0  0  0  0  0  0  0  0
   45.6436   12.6368   10.7726 H   0  0  0  0  0  0  0  0  0  0  0  0
   43.7752   12.1473    9.2071 H   0  0  0  0  0  0  0  0  0  0  0  0
   47.6182    8.6805   13.2598 H   0  0  0  0  0  0  0  0  0  0  0  0
   46.5251    9.2714   12.3723 H   0  0  0  0  0  0  0  0  0  0  0  0
  3  4  1  0
  4  2  1  0
  5  3  2  0
  6  2  1  0
  7  2  2  0
  8  5  1  0
  9  8  1  0
 10  9  1  0
 11  3  1  0
 12 11  2  0
 13  8  2  0
 14  4  1  0
 15 10  2  0
 16 10  1  0
 17 16  2  0
 18 15  1  0
 19 17  1  0
 12 13  1  0
 18 19  2  0
 21 22  1  0
 22 20  1  0
 23 21  2  0
 24 20  1  0
 25 20  2  0
 26 23  1  0
 27 26  1  0
 28 27  1  0
 29 21  1  0
 30 29  2  0
 31 26  2  0
 32 22  1  0
 33 28  2  0
 34 28  1  0
 35 33  1  0
 36 34  2  0
 37 36  1  0
 30 31  1  0
 35 37  2  0
  1 40  1  0
  1 41  1  0
  4 42  1  1
  5 43  1  0
 11 44  1  0
 12 45  1  0
 13 46  1  0
 14 47  1  0
 14 48  1  0
 14 49  1  0
 15 50  1  0
 16 51  1  0
 17 52  1  0
 18 53  1  0
 19 54  1  0
 22 55  1  6
 23 56  1  0
 29 57  1  0
 30 58  1  0
 31 59  1  0
 32 60  1  0
 32 61  1  0
 32 62  1  0
 33 63  1  0
 34 64  1  0
 35 65  1  0
 36 66  1  0
 37 67  1  0
 39 68  1  0
 39 69  1  0
M  CHG  3   6  -1  24  -1  38   2
M  END
> <Uni-Dock RESULT> 
ENERGY=   -5.804  LOWER_BOUND=    5.720  UPPER_BOUND=    8.651
INTER + INTRA:          -5.804
INTER:                  -5.804
INTRA:                   0.000
UNBOUND:                 0.000

$$$$

     RDKit          3D

 69 68  0  0  0  0  0  0  0  0999 V2000
   47.9795   12.8143   16.9078 O   0  0  0  0  0  0  0  0  0  0  0  0
   49.7203   13.6996   13.6337 C   0  0  0  0  0  0  0  0  0  0  0  0
   48.5892   14.4528   15.7446 C   0  0  0  0  0  0  0  0  0  0  0  0
   48.5571   14.5244   14.2256 C   0  0  1  0  0  0  0  0  0  0  0  0
   47.5732   13.7788   16.4353 C   0  0  0  0  0  0  0  0  0  0  0  0
   49.4751   12.4664   13.4807 O   0  0  0  0  0  0  0  0  0  0  0  0
   50.7740   14.3409   13.3495 O   0  0  0  0  0  0  0  0  0  0  0  0
   47.6268   13.6638   17.8254 C   0  0  0  0  0  0  0  0  0  0  0  0
   46.6321   12.9632   18.4674 O   0  0  0  0  0  0  0  0  0  0  0  0
   46.9831   11.7390   18.9990 C   0  0  0  0  0  0  0  0  0  0  0  0
   49.6391   15.0241   16.4828 C   0  0  0  0  0  0  0  0  0  0  0  0
   49.6660   14.9403   17.8774 C   0  0  0  0  0  0  0  0  0  0  0  0
   48.6534   14.2653   18.5535 C   0  0  0  0  0  0  0  0  0  0  0  0
   48.5383   15.9673   13.7245 C   0  0  0  0  0  0  0  0  0  0  0  0
   47.9835   10.9130   18.4774 C   0  0  0  0  0  0  0  0  0  0  0  0
   46.2335   11.3092   20.0958 C   0  0  0  0  0  0  0  0  0  0  0  0
   46.5005   10.0739   20.6883 C   0  0  0  0  0  0  0  0  0  0  0  0
   48.2486    9.6771   19.0705 C   0  0  0  0  0  0  0  0  0  0  0  0
   47.5098    9.2592   20.1765 C   0  0  0  0  0  0  0  0  0  0  0  0
   46.8176   16.0528   14.3054 C   0  0  0  0  0  0  0  0  0  0  0  0
   48.4835   14.5906   15.5586 C   0  0  0  0  0  0  0  0  0  0  0  0
   47.8769   14.9317   14.2056 C   0  0  1  0  0  0  0  0  0  0  0  0
   47.6794   14.2696   16.6629 C   0  0  0  0  0  0  0  0  0  0  0  0
   45.6114   15.6802   14.4066 O   0  0  0  0  0  0  0  0  0  0  0  0
   47.2791   17.2312   14.2425 O   0  0  0  0  0  0  0  0  0  0  0  0
   48.2641   13.8793   17.8685 C   0  0  0  0  0  0  0  0  0  0  0  0
   47.4366   13.5694   18.9249 O   0  0  0  0  0  0  0  0  0  0  0  0
   47.5295   12.2798   19.4017 C   0  0  0  0  0  0  0  0  0  0  0  0
   49.8796   14.5379   15.7044 C   0  0  0  0  0  0  0  0  0  0  0  0
   50.4609   14.1762   16.9228 C   0  0  0  0  0  0  0  0  0  0  0  0
   49.6529   13.8475   18.0088 C   0  0  0  0  0  0  0  0  0  0  0  0
   47.3245   13.6736   13.5340 C   0  0  0  0  0  0  0  0  0  0  0  0
   47.6020   12.1139   20.7861 C   0  0  0  0  0  0  0  0  0  0  0  0
   47.4972   11.1629   18.5608 C   0  0  0  0  0  0  0  0  0  0  0  0
   47.6793   10.8301   21.3286 C   0  0  0  0  0  0  0  0  0  0  0  0
   47.5764    9.8808   19.1057 C   0  0  0  0  0  0  0  0  0  0  0  0
   47.6747    9.7146   20.4886 C   0  0  0  0  0  0  0  0  0  0  0  0
   48.1400   13.0968   17.1370 Ca  0  0  0  0  0 15  0  0  0  0  0  0
   47.9824   12.8274   16.8904 O   0  0  0  0  0  0  0  0  0  0  0  0
   48.1262   12.7938   17.8653 H   0  0  0  0  0  0  0  0  0  0  0  0
   48.3144   13.6825   16.6377 H   0  0  0  0  0  0  0  0  0  0  0  0
   47.6270   14.0601   13.8712 H   0  0  0  0  0  0  0  0  0  0  0  0
   46.7636   13.3045   15.8867 H   0  0  0  0  0  0  0  0  0  0  0  0
   50.4583   15.5166   15.9601 H   0  0  0  0  0  0  0  0  0  0  0  0
   50.4917   15.3848   18.4258 H   0  0  0  0  0  0  0  0  0  0  0  0
   48.6778   14.1845   19.6342 H   0  0  0  0  0  0  0  0  0  0  0  0
   47.6610   16.5017   14.1081 H   0  0  0  0  0  0  0  0  0  0  0  0
   48.4975   15.9919   12.6296 H   0  0  0  0  0  0  0  0  0  0  0  0
   49.4262   16.5329   14.0328 H   0  0  0  0  0  0  0  0  0  0  0  0
   48.5592   11.2123   17.6044 H   0  0  0  0  0  0  0  0  0  0  0  0
   45.4431   11.9394   20.4906 H   0  0  0  0  0  0  0  0  0  0  0  0
   45.9183    9.7447   21.5430 H   0  0  0  0  0  0  0  0  0  0  0  0
   49.0282    9.0408   18.6581 H   0  0  0  0  0  0  0  0  0  0  0  0
   47.7158    8.2950   20.6337 H   0  0  0  0  0  0  0  0  0  0  0  0
   48.6699   15.3212   13.5524 H   0  0  0  0  0  0  0  0  0  0  0  0
   46.5936   14.3115   16.5768 H   0  0  0  0  0  0  0  0  0  0  0  0
   50.5182   14.7880   14.8606 H   0  0  0  0  0  0  0  0  0  0  0  0
   51.5410   14.1500   17.0186 H   0  0  0  0  0  0  0  0  0  0  0  0
   50.0988   13.5678   18.9568 H   0  0  0  0  0  0  0  0  0  0  0  0
   48.1221   12.9407   13.3625 H   0  0  0  0  0  0  0  0  0  0  0  0
   46.5534   13.1821   14.1404 H   0  0  0  0  0  0  0  0  0  0  0  0
   46.8763   13.9192   12.5654 H   0  0  0  0  0  0  0  0  0  0  0  0
   47.6033   12.9856   21.4344 H   0  0  0  0  0  0  0  0  0  0  0  0
   47.4017   11.2867   17.4834 H   0  0  0  0  0  0  0  0  0  0  0  0
   47.7482   10.7013   22.4058 H   0  0  0  0  0  0  0  0  0  0  0  0
   47.5604    9.0159   18.4485 H   0  0  0  0  0  0  0  0  0  0  0  0
   47.7380    8.7154   20.9101 H   0  0  0  0  0  0  0  0  0  0  0  0
   48.3298   13.7052   16.6718 H   0  0  0  0  0  0  0  0  0  0  0  0
   48.1078   12.7579   17.8487 H   0  0  0  0  0  0  0  0  0  0  0  0
  3  4  1  0
  4  2  1  0
  5  3  2  0
  6  2  1  0
  7  2  2  0
  8  5  1  0
  9  8  1  0
 10  9  1  0
 11  3  1  0
 12 11  2  0
 13  8  2  0
 14  4  1  0
 15 10  2  0
 16 10  1  0
 17 16  2  0
 18 15  1  0
 19 17  1  0
 12 13  1  0
 18 19  2  0
 21 22  1  0
 22 20  1  0
 23 21  2  0
 24 20  1  0
 25 20  2  0
 26 23  1  0
 27 26  1  0
 28 27  1  0
 29 21  1  0
 30 29  2  0
 31 26  2  0
 32 22  1  0
 33 28  2  0
 34 28  1  0
 35 33  1  0
 36 34  2  0
 37 36  1  0
 30 31  1  0
 35 37  2  0
  1 40  1  0
  1 41  1  0
  4 42  1  1
  5 43  1  0
 11 44  1  0
 12 45  1  0
 13 46  1  0
 14 47  1  0
 14 48  1  0
 14 49  1  0
 15 50  1  0
 16 51  1  0
 17 52  1  0
 18 53  1  0
 19 54  1  0
 22 55  1  6
 23 56  1  0
 29 57  1  0
 30 58  1  0
 31 59  1  0
 32 60  1  0
 32 61  1  0
 32 62  1  0
 33 63  1  0
 34 64  1  0
 35 65  1  0
 36 66  1  0
 37 67  1  0
 39 68  1  0
 39 69  1  0
M  CHG  3   6  -1  24  -1  38   2
M  END
> <Uni-Dock RESULT> 
ENERGY=   -5.727  LOWER_BOUND=    5.674  UPPER_BOUND=    7.408
INTER + INTRA:          -5.727
INTER:                  -5.727
INTRA:                   0.000
UNBOUND:                 0.000

$$$$

     RDKit          3D

 69 68  0  0  0  0  0  0  0  0999 V2000
   48.8440    6.7109   19.2165 O   0  0  0  0  0  0  0  0  0  0  0  0
   50.2447    9.3466   21.5882 C   0  0  0  0  0  0  0  0  0  0  0  0
   48.2546    8.2001   20.5745 C   0  0  0  0  0  0  0  0  0  0  0  0
   48.9449    9.5401   20.7777 C   0  0  1  0  0  0  0  0  0  0  0  0
   48.1749    7.6410   19.2921 C   0  0  0  0  0  0  0  0  0  0  0  0
   51.2620    9.0406   20.8984 O   0  0  0  0  0  0  0  0  0  0  0  0
   50.1589    9.5326   22.8373 O   0  0  0  0  0  0  0  0  0  0  0  0
   47.5905    6.3867   19.1086 C   0  0  0  0  0  0  0  0  0  0  0  0
   47.5629    5.8517   17.8415 O   0  0  0  0  0  0  0  0  0  0  0  0
   48.3997    4.7800   17.6051 C   0  0  0  0  0  0  0  0  0  0  0  0
   47.7149    7.4828   21.6552 C   0  0  0  0  0  0  0  0  0  0  0  0
   47.0951    6.2459   21.4592 C   0  0  0  0  0  0  0  0  0  0  0  0
   47.0245    5.6977   20.1814 C   0  0  0  0  0  0  0  0  0  0  0  0
   48.0076   10.5744   21.3984 C   0  0  0  0  0  0  0  0  0  0  0  0
   49.6193    4.5759   18.2577 C   0  0  0  0  0  0  0  0  0  0  0  0
   47.9925    3.8928   16.6067 C   0  0  0  0  0  0  0  0  0  0  0  0
   48.7842    2.7903   16.2814 C   0  0  0  0  0  0  0  0  0  0  0  0
   50.4107    3.4732   17.9303 C   0  0  0  0  0  0  0  0  0  0  0  0
   49.9923    2.5797   16.9452 C   0  0  0  0  0  0  0  0  0  0  0  0
   47.1614   10.6415   19.7906 C   0  0  0  0  0  0  0  0  0  0  0  0
   48.2046    8.4491   20.5579 C   0  0  0  0  0  0  0  0  0  0  0  0
   48.4290    9.9356   20.3233 C   0  0  1  0  0  0  0  0  0  0  0  0
   47.6892    7.6174   19.5520 C   0  0  0  0  0  0  0  0  0  0  0  0
   47.0753   10.7708   18.5336 O   0  0  0  0  0  0  0  0  0  0  0  0
   46.3579   11.0432   20.6842 O   0  0  0  0  0  0  0  0  0  0  0  0
   47.5725    6.2435   19.7671 C   0  0  0  0  0  0  0  0  0  0  0  0
   47.0653    5.4647   18.7507 O   0  0  0  0  0  0  0  0  0  0  0  0
   47.9101    4.4921   18.2613 C   0  0  0  0  0  0  0  0  0  0  0  0
   48.5695    7.8733   21.7861 C   0  0  0  0  0  0  0  0  0  0  0  0
   48.4221    6.5012   22.0076 C   0  0  0  0  0  0  0  0  0  0  0  0
   47.9211    5.6833   20.9976 C   0  0  0  0  0  0  0  0  0  0  0  0
   49.6387   10.1575   19.4142 C   0  0  0  0  0  0  0  0  0  0  0  0
   47.3755    3.2157   18.0756 C   0  0  0  0  0  0  0  0  0  0  0  0
   49.2356    4.7578   17.9034 C   0  0  0  0  0  0  0  0  0  0  0  0
   48.1784    2.1940   17.5655 C   0  0  0  0  0  0  0  0  0  0  0  0
   50.0363    3.7342   17.3953 C   0  0  0  0  0  0  0  0  0  0  0  0
   49.5101    2.4511   17.2332 C   0  0  0  0  0  0  0  0  0  0  0  0
   48.5435    6.5827   19.4433 Ca  0  0  0  0  0 15  0  0  0  0  0  0
   48.8428    6.7303   19.2267 O   0  0  0  0  0  0  0  0  0  0  0  0
   48.4244    5.8375   19.2131 H   0  0  0  0  0  0  0  0  0  0  0  0
   48.3622    7.1999   19.9004 H   0  0  0  0  0  0  0  0  0  0  0  0
   49.2393    9.9365   19.7966 H   0  0  0  0  0  0  0  0  0  0  0  0
   48.6084    8.1624   18.4426 H   0  0  0  0  0  0  0  0  0  0  0  0
   47.8037    7.8832   22.6644 H   0  0  0  0  0  0  0  0  0  0  0  0
   46.6906    5.7073   22.3115 H   0  0  0  0  0  0  0  0  0  0  0  0
   46.5582    4.7315   20.0264 H   0  0  0  0  0  0  0  0  0  0  0  0
   47.1305   10.7377   20.7609 H   0  0  0  0  0  0  0  0  0  0  0  0
   48.5224   11.5345   21.5181 H   0  0  0  0  0  0  0  0  0  0  0  0
   47.6414   10.2726   22.3873 H   0  0  0  0  0  0  0  0  0  0  0  0
   49.9725    5.2707   19.0164 H   0  0  0  0  0  0  0  0  0  0  0  0
   47.0558    4.0596   16.0846 H   0  0  0  0  0  0  0  0  0  0  0  0
   48.4628    2.1007   15.5074 H   0  0  0  0  0  0  0  0  0  0  0  0
   51.3580    3.3222   18.4426 H   0  0  0  0  0  0  0  0  0  0  0  0
   50.6122    1.7243   16.6899 H   0  0  0  0  0  0  0  0  0  0  0  0
   48.6600   10.4129   21.2857 H   0  0  0  0  0  0  0  0  0  0  0  0
   47.3910    8.0422   18.5935 H   0  0  0  0  0  0  0  0  0  0  0  0
   48.9663    8.5033   22.5785 H   0  0  0  0  0  0  0  0  0  0  0  0
   48.7010    6.0764   22.9658 H   0  0  0  0  0  0  0  0  0  0  0  0
   47.8031    4.6185   21.1649 H   0  0  0  0  0  0  0  0  0  0  0  0
   50.5500    9.7547   19.8723 H   0  0  0  0  0  0  0  0  0  0  0  0
   49.5208    9.6711   18.4378 H   0  0  0  0  0  0  0  0  0  0  0  0
   49.7942   11.2264   19.2342 H   0  0  0  0  0  0  0  0  0  0  0  0
   46.3383    3.0225   18.3343 H   0  0  0  0  0  0  0  0  0  0  0  0
   49.6448    5.7609   18.0103 H   0  0  0  0  0  0  0  0  0  0  0  0
   47.7657    1.1972   17.4324 H   0  0  0  0  0  0  0  0  0  0  0  0
   51.0682    3.9424   17.1272 H   0  0  0  0  0  0  0  0  0  0  0  0
   50.1361    1.6555   16.8391 H   0  0  0  0  0  0  0  0  0  0  0  0
   48.3310    7.1754   19.9187 H   0  0  0  0  0  0  0  0  0  0  0  0
   48.4569    5.8425   19.1844 H   0  0  0  0  0  0  0  0  0  0  0  0
  3  4  1  0
  4  2  1  0
  5  3  2  0
  6  2  1  0
  7  2  2  0
  8  5  1  0
  9  8  1  0
 10  9  1  0
 11  3  1  0
 12 11  2  0
 13  8  2  0
 14  4  1  0
 15 10  2  0
 16 10  1  0
 17 16  2  0
 18 15  1  0
 19 17  1  0
 12 13  1  0
 18 19  2  0
 21 22  1  0
 22 20  1  0
 23 21  2  0
 24 20  1  0
 25 20  2  0
 26 23  1  0
 27 26  1  0
 28 27  1  0
 29 21  1  0
 30 29  2  0
 31 26  2  0
 32 22  1  0
 33 28  2  0
 34 28  1  0
 35 33  1  0
 36 34  2  0
 37 36  1  0
 30 31  1  0
 35 37  2  0
  1 40  1  0
  1 41  1  0
  4 42  1  1
  5 43  1  0
 11 44  1  0
 12 45  1  0
 13 46  1  0
 14 47  1  0
 14 48  1  0
 14 49  1  0
 15 50  1  0
 16 51  1  0
 17 52  1  0
 18 53  1  0
 19 54  1  0
 22 55  1  6
 23 56  1  0
 29 57  1  0
 30 58  1  0
 31 59  1  0
 32 60  1  0
 32 61  1  0
 32 62  1  0
 33 63  1  0
 34 64  1  0
 35 65  1  0
 36 66  1  0
 37 67  1  0
 39 68  1  0
 39 69  1  0
M  CHG  3   6  -1  24  -1  38   2
M  END
> <Uni-Dock RESULT> 
ENERGY=   -5.649  LOWER_BOUND=   10.577  UPPER_BOUND=   12.643
INTER + INTRA:          -5.649
INTER:                  -5.649
INTRA:                   0.000
UNBOUND:                 0.000

$$$$

     RDKit          3D

 69 68  0  0  0  0  0  0  0  0999 V2000
   51.9585    3.6304   18.1077 O   0  0  0  0  0  0  0  0  0  0  0  0
   54.9457    1.7542   19.5537 C   0  0  0  0  0  0  0  0  0  0  0  0
   53.9029    3.9249   18.8442 C   0  0  0  0  0  0  0  0  0  0  0  0
   55.0828    2.9880   18.6357 C   0  0  1  0  0  0  0  0  0  0  0  0
   52.9634    4.1062   17.8205 C   0  0  0  0  0  0  0  0  0  0  0  0
   54.2433    0.8129   19.0796 O   0  0  0  0  0  0  0  0  0  0  0  0
   55.5596    1.8077   20.6594 O   0  0  0  0  0  0  0  0  0  0  0  0
   51.8500    4.9226   18.0263 C   0  0  0  0  0  0  0  0  0  0  0  0
   50.9286    5.0481   17.0125 O   0  0  0  0  0  0  0  0  0  0  0  0
   49.7079    4.4348   17.2078 C   0  0  0  0  0  0  0  0  0  0  0  0
   53.7086    4.5985   20.0617 C   0  0  0  0  0  0  0  0  0  0  0  0
   52.6134    5.4462   20.2475 C   0  0  0  0  0  0  0  0  0  0  0  0
   51.6840    5.6165   19.2250 C   0  0  0  0  0  0  0  0  0  0  0  0
   56.4186    3.7089   18.8070 C   0  0  0  0  0  0  0  0  0  0  0  0
   49.5216    3.2810   17.9753 C   0  0  0  0  0  0  0  0  0  0  0  0
   48.6224    5.0024   16.5376 C   0  0  0  0  0  0  0  0  0  0  0  0
   47.3510    4.4388   16.6564 C   0  0  0  0  0  0  0  0  0  0  0  0
   48.2493    2.7178   18.0923 C   0  0  0  0  0  0  0  0  0  0  0  0
   47.1647    3.2976   17.4358 C   0  0  0  0  0  0  0  0  0  0  0  0
   56.0843    4.5189   17.2140 C   0  0  0  0  0  0  0  0  0  0  0  0
   54.1358    3.9254   18.7419 C   0  0  0  0  0  0  0  0  0  0  0  0
   55.3857    3.4152   18.0401 C   0  0  1  0  0  0  0  0  0  0  0  0
   53.1186    4.5883   18.0384 C   0  0  0  0  0  0  0  0  0  0  0  0
   55.7896    4.5728   15.9834 O   0  0  0  0  0  0  0  0  0  0  0  0
   56.9059    5.2328   17.8627 O   0  0  0  0  0  0  0  0  0  0  0  0
   51.9463    4.9709   18.6918 C   0  0  0  0  0  0  0  0  0  0  0  0
   50.9727    5.6154   17.9613 O   0  0  0  0  0  0  0  0  0  0  0  0
   49.7554    4.9738   17.8862 C   0  0  0  0  0  0  0  0  0  0  0  0
   53.9584    3.6848   20.1144 C   0  0  0  0  0  0  0  0  0  0  0  0
   52.7957    4.0973   20.7711 C   0  0  0  0  0  0  0  0  0  0  0  0
   51.7871    4.7434   20.0601 C   0  0  0  0  0  0  0  0  0  0  0  0
   55.0603    2.1814   17.1968 C   0  0  0  0  0  0  0  0  0  0  0  0
   48.6119    5.7456   18.1009 C   0  0  0  0  0  0  0  0  0  0  0  0
   49.6378    3.6204   17.5545 C   0  0  0  0  0  0  0  0  0  0  0  0
   47.3499    5.1546   18.0198 C   0  0  0  0  0  0  0  0  0  0  0  0
   48.3751    3.0318   17.4758 C   0  0  0  0  0  0  0  0  0  0  0  0
   47.2319    3.7969   17.7155 C   0  0  0  0  0  0  0  0  0  0  0  0
   51.9724    3.9511   18.3425 Ca  0  0  0  0  0 15  0  0  0  0  0  0
   51.9802    3.6279   18.1107 O   0  0  0  0  0  0  0  0  0  0  0  0
   51.2282    4.2119   18.3670 H   0  0  0  0  0  0  0  0  0  0  0  0
   52.7306    4.0109   18.5528 H   0  0  0  0  0  0  0  0  0  0  0  0
   55.0596    2.6179   17.6019 H   0  0  0  0  0  0  0  0  0  0  0  0
   53.0753    3.5758   16.8784 H   0  0  0  0  0  0  0  0  0  0  0  0
   54.4066    4.4379   20.8825 H   0  0  0  0  0  0  0  0  0  0  0  0
   52.4814    5.9514   21.2001 H   0  0  0  0  0  0  0  0  0  0  0  0
   50.8246    6.2611   19.3696 H   0  0  0  0  0  0  0  0  0  0  0  0
   56.5104    4.5348   18.0915 H   0  0  0  0  0  0  0  0  0  0  0  0
   57.2515    3.0178   18.6347 H   0  0  0  0  0  0  0  0  0  0  0  0
   56.5447    4.1312   19.8115 H   0  0  0  0  0  0  0  0  0  0  0  0
   50.3575    2.8027   18.4809 H   0  0  0  0  0  0  0  0  0  0  0  0
   48.7676    5.8864   15.9250 H   0  0  0  0  0  0  0  0  0  0  0  0
   46.5088    4.8848   16.1370 H   0  0  0  0  0  0  0  0  0  0  0  0
   48.1134    1.8201   18.6910 H   0  0  0  0  0  0  0  0  0  0  0  0
   46.1762    2.8548   17.5256 H   0  0  0  0  0  0  0  0  0  0  0  0
   56.1128    3.1000   18.8011 H   0  0  0  0  0  0  0  0  0  0  0  0
   53.2368    4.7940   16.9745 H   0  0  0  0  0  0  0  0  0  0  0  0
   54.7383    3.1766   20.6764 H   0  0  0  0  0  0  0  0  0  0  0  0
   52.6809    3.9105   21.8333 H   0  0  0  0  0  0  0  0  0  0  0  0
   50.8837    5.0670   20.5651 H   0  0  0  0  0  0  0  0  0  0  0  0
   54.6801    1.3679   17.8263 H   0  0  0  0  0  0  0  0  0  0  0  0
   54.2995    2.3874   16.4335 H   0  0  0  0  0  0  0  0  0  0  0  0
   55.9563    1.8202   16.6811 H   0  0  0  0  0  0  0  0  0  0  0  0
   48.7102    6.8018   18.3355 H   0  0  0  0  0  0  0  0  0  0  0  0
   50.5251    3.0244   17.3483 H   0  0  0  0  0  0  0  0  0  0  0  0
   46.4600    5.7527   18.1991 H   0  0  0  0  0  0  0  0  0  0  0  0
   48.2883    1.9780   17.2269 H   0  0  0  0  0  0  0  0  0  0  0  0
   46.2501    3.3358   17.6553 H   0  0  0  0  0  0  0  0  0  0  0  0
   52.7199    4.0463   18.5761 H   0  0  0  0  0  0  0  0  0  0  0  0
   51.2170    4.1789   18.3407 H   0  0  0  0  0  0  0  0  0  0  0  0
  3  4  1  0
  4  2  1  0
  5  3  2  0
  6  2  1  0
  7  2  2  0
  8  5  1  0
  9  8  1  0
 10  9  1  0
 11  3  1  0
 12 11  2  0
 13  8  2  0
 14  4  1  0
 15 10  2  0
 16 10  1  0
 17 16  2  0
 18 15  1  0
 19 17  1  0
 12 13  1  0
 18 19  2  0
 21 22  1  0
 22 20  1  0
 23 21  2  0
 24 20  1  0
 25 20  2  0
 26 23  1  0
 27 26  1  0
 28 27  1  0
 29 21  1  0
 30 29  2  0
 31 26  2  0
 32 22  1  0
 33 28  2  0
 34 28  1  0
 35 33  1  0
 36 34  2  0
 37 36  1  0
 30 31  1  0
 35 37  2  0
  1 40  1  0
  1 41  1  0
  4 42  1  1
  5 43  1  0
 11 44  1  0
 12 45  1  0
 13 46  1  0
 14 47  1  0
 14 48  1  0
 14 49  1  0
 15 50  1  0
 16 51  1  0
 17 52  1  0
 18 53  1  0
 19 54  1  0
 22 55  1  6
 23 56  1  0
 29 57  1  0
 30 58  1  0
 31 59  1  0
 32 60  1  0
 32 61  1  0
 32 62  1  0
 33 63  1  0
 34 64  1  0
 35 65  1  0
 36 66  1  0
 37 67  1  0
 39 68  1  0
 39 69  1  0
M  CHG  3   6  -1  24  -1  38   2
M  END
> <Uni-Dock RESULT> 
ENERGY=   -5.551  LOWER_BOUND=   13.232  UPPER_BOUND=   15.419
INTER + INTRA:          -5.551
INTER:                  -5.551
INTRA:                   0.000
UNBOUND:                 0.000

$$$$

     RDKit          3D

 69 68  0  0  0  0  0  0  0  0999 V2000
   47.9583    8.9932   16.2630 O   0  0  0  0  0  0  0  0  0  0  0  0
   47.7601    6.4310   13.4470 C   0  0  0  0  0  0  0  0  0  0  0  0
   48.7066    8.5755   14.3460 C   0  0  0  0  0  0  0  0  0  0  0  0
   47.9225    7.9471   13.2041 C   0  0  1  0  0  0  0  0  0  0  0  0
   48.0736    9.4663   15.2231 C   0  0  0  0  0  0  0  0  0  0  0  0
   46.7707    6.1103   14.1699 O   0  0  0  0  0  0  0  0  0  0  0  0
   48.6113    5.6797   12.8873 O   0  0  0  0  0  0  0  0  0  0  0  0
   48.7742   10.0035   16.3042 C   0  0  0  0  0  0  0  0  0  0  0  0
   48.1108   10.8453   17.1665 O   0  0  0  0  0  0  0  0  0  0  0  0
   47.8338   10.3486   18.4240 C   0  0  0  0  0  0  0  0  0  0  0  0
   50.0574    8.2597   14.5678 C   0  0  0  0  0  0  0  0  0  0  0  0
   50.7647    8.8322   15.6284 C   0  0  0  0  0  0  0  0  0  0  0  0
   50.1251    9.7133   16.4960 C   0  0  0  0  0  0  0  0  0  0  0  0
   48.5422    8.2668   11.8450 C   0  0  0  0  0  0  0  0  0  0  0  0
   47.6149    8.9965   18.7044 C   0  0  0  0  0  0  0  0  0  0  0  0
   47.7220   11.2938   19.4455 C   0  0  0  0  0  0  0  0  0  0  0  0
   47.4224   10.8889   20.7473 C   0  0  0  0  0  0  0  0  0  0  0  0
   47.3142    8.5931   20.0069 C   0  0  0  0  0  0  0  0  0  0  0  0
   47.2208    9.5379   21.0278 C   0  0  0  0  0  0  0  0  0  0  0  0
   47.9193    9.9613   12.0593 C   0  0  0  0  0  0  0  0  0  0  0  0
   48.6326    8.6288   14.1085 C   0  0  0  0  0  0  0  0  0  0  0  0
   47.7755    8.6420   12.8514 C   0  0  1  0  0  0  0  0  0  0  0  0
   48.5612    9.6616   15.0557 C   0  0  0  0  0  0  0  0  0  0  0  0
   47.0503   10.8536   12.2891 O   0  0  0  0  0  0  0  0  0  0  0  0
   48.8833    9.9889   11.2374 O   0  0  0  0  0  0  0  0  0  0  0  0
   49.2965    9.5822   16.2392 C   0  0  0  0  0  0  0  0  0  0  0  0
   49.1930   10.6167   17.1424 O   0  0  0  0  0  0  0  0  0  0  0  0
   48.6982   10.2819   18.3842 C   0  0  0  0  0  0  0  0  0  0  0  0
   49.4776    7.5366   14.3658 C   0  0  0  0  0  0  0  0  0  0  0  0
   50.2355    7.4761   15.5385 C   0  0  0  0  0  0  0  0  0  0  0  0
   50.1473    8.5011   16.4775 C   0  0  0  0  0  0  0  0  0  0  0  0
   46.3179    8.3301   13.1939 C   0  0  0  0  0  0  0  0  0  0  0  0
   49.3750   10.7825   19.4981 C   0  0  0  0  0  0  0  0  0  0  0  0
   47.5362    9.5219   18.5509 C   0  0  0  0  0  0  0  0  0  0  0  0
   48.9099   10.4919   20.7818 C   0  0  0  0  0  0  0  0  0  0  0  0
   47.0745    9.2315   19.8352 C   0  0  0  0  0  0  0  0  0  0  0  0
   47.7652    9.7102   20.9504 C   0  0  0  0  0  0  0  0  0  0  0  0
   48.3483    9.0686   16.2453 Ca  0  0  0  0  0 15  0  0  0  0  0  0
   47.9588    8.9878   16.2417 O   0  0  0  0  0  0  0  0  0  0  0  0
   48.5404    9.2952   16.9763 H   0  0  0  0  0  0  0  0  0  0  0  0
   48.5464    8.9174   15.4966 H   0  0  0  0  0  0  0  0  0  0  0  0
   46.9116    8.3763   13.1936 H   0  0  0  0  0  0  0  0  0  0  0  0
   47.0219    9.7066   15.0902 H   0  0  0  0  0  0  0  0  0  0  0  0
   50.5545    7.5382   13.9205 H   0  0  0  0  0  0  0  0  0  0  0  0
   51.8069    8.5678   15.7831 H   0  0  0  0  0  0  0  0  0  0  0  0
   50.6653   10.1482   17.3291 H   0  0  0  0  0  0  0  0  0  0  0  0
   48.5766    9.3498   11.6774 H   0  0  0  0  0  0  0  0  0  0  0  0
   47.9501    7.8183   11.0392 H   0  0  0  0  0  0  0  0  0  0  0  0
   49.5673    7.8884   11.7489 H   0  0  0  0  0  0  0  0  0  0  0  0
   47.6653    8.2455   17.9192 H   0  0  0  0  0  0  0  0  0  0  0  0
   47.8718   12.3463   19.2269 H   0  0  0  0  0  0  0  0  0  0  0  0
   47.3399   11.6259   21.5396 H   0  0  0  0  0  0  0  0  0  0  0  0
   47.1451    7.5394   20.2162 H   0  0  0  0  0  0  0  0  0  0  0  0
   46.9829    9.2213   22.0399 H   0  0  0  0  0  0  0  0  0  0  0  0
   48.1238    7.8455   12.1794 H   0  0  0  0  0  0  0  0  0  0  0  0
   47.9191   10.5236   14.8745 H   0  0  0  0  0  0  0  0  0  0  0  0
   49.5489    6.7294   13.6408 H   0  0  0  0  0  0  0  0  0  0  0  0
   50.8892    6.6289   15.7153 H   0  0  0  0  0  0  0  0  0  0  0  0
   50.7345    8.4599   17.3882 H   0  0  0  0  0  0  0  0  0  0  0  0
   46.2275    7.3343   13.6443 H   0  0  0  0  0  0  0  0  0  0  0  0
   45.8937    9.0504   13.9046 H   0  0  0  0  0  0  0  0  0  0  0  0
   45.6973    8.3514   12.2919 H   0  0  0  0  0  0  0  0  0  0  0  0
   50.2639   11.3915   19.3603 H   0  0  0  0  0  0  0  0  0  0  0  0
   46.9838    9.1622   17.6845 H   0  0  0  0  0  0  0  0  0  0  0  0
   49.4439   10.8714   21.6493 H   0  0  0  0  0  0  0  0  0  0  0  0
   46.1767    8.6330   19.9607 H   0  0  0  0  0  0  0  0  0  0  0  0
   47.4046    9.4813   21.9493 H   0  0  0  0  0  0  0  0  0  0  0  0
   48.5874    8.9284   15.5066 H   0  0  0  0  0  0  0  0  0  0  0  0
   48.4987    9.2896   16.9877 H   0  0  0  0  0  0  0  0  0  0  0  0
  3  4  1  0
  4  2  1  0
  5  3  2  0
  6  2  1  0
  7  2  2  0
  8  5  1  0
  9  8  1  0
 10  9  1  0
 11  3  1  0
 12 11  2  0
 13  8  2  0
 14  4  1  0
 15 10  2  0
 16 10  1  0
 17 16  2  0
 18 15  1  0
 19 17  1  0
 12 13  1  0
 18 19  2  0
 21 22  1  0
 22 20  1  0
 23 21  2  0
 24 20  1  0
 25 20  2  0
 26 23  1  0
 27 26  1  0
 28 27  1  0
 29 21  1  0
 30 29  2  0
 31 26  2  0
 32 22  1  0
 33 28  2  0
 34 28  1  0
 35 33  1  0
 36 34  2  0
 37 36  1  0
 30 31  1  0
 35 37  2  0
  1 40  1  0
  1 41  1  0
  4 42  1  1
  5 43  1  0
 11 44  1  0
 12 45  1  0
 13 46  1  0
 14 47  1  0
 14 48  1  0
 14 49  1  0
 15 50  1  0
 16 51  1  0
 17 52  1  0
 18 53  1  0
 19 54  1  0
 22 55  1  6
 23 56  1  0
 29 57  1  0
 30 58  1  0
 31 59  1  0
 32 60  1  0
 32 61  1  0
 32 62  1  0
 33 63  1  0
 34 64  1  0
 35 65  1  0
 36 66  1  0
 37 67  1  0
 39 68  1  0
 39 69  1  0
M  CHG  3   6  -1  24  -1  38   2
M  END
> <Uni-Dock RESULT> 
ENERGY=   -5.479  LOWER_BOUND=    7.644  UPPER_BOUND=    9.207
INTER + INTRA:          -5.479
INTER:                  -5.479
INTRA:                   0.000
UNBOUND:                 0.000

$$$$

     RDKit          3D

 69 68  0  0  0  0  0  0  0  0999 V2000
   47.2098    7.9205   11.8468 O   0  0  0  0  0  0  0  0  0  0  0  0
   50.7443    9.3044   11.4918 C   0  0  0  0  0  0  0  0  0  0  0  0
   48.6838    8.9909   12.8913 C   0  0  0  0  0  0  0  0  0  0  0  0
   49.6305   10.0175   12.2886 C   0  0  1  0  0  0  0  0  0  0  0  0
   47.3644    8.8985   12.4284 C   0  0  0  0  0  0  0  0  0  0  0  0
   50.4458    9.0240   10.2933 O   0  0  0  0  0  0  0  0  0  0  0  0
   51.8300    9.0978   12.1089 O   0  0  0  0  0  0  0  0  0  0  0  0
   46.5080    7.9223   12.9402 C   0  0  0  0  0  0  0  0  0  0  0  0
   45.2310    7.8362   12.4359 O   0  0  0  0  0  0  0  0  0  0  0  0
   44.9530    6.7428   11.6411 C   0  0  0  0  0  0  0  0  0  0  0  0
   49.1094    8.0999   13.8907 C   0  0  0  0  0  0  0  0  0  0  0  0
   48.2352    7.1513   14.4277 C   0  0  0  0  0  0  0  0  0  0  0  0
   46.9274    7.0656   13.9580 C   0  0  0  0  0  0  0  0  0  0  0  0
   50.1778   10.9757   13.3448 C   0  0  0  0  0  0  0  0  0  0  0  0
   45.8990    6.0872   10.8472 C   0  0  0  0  0  0  0  0  0  0  0  0
   43.6204    6.3268   11.6148 C   0  0  0  0  0  0  0  0  0  0  0  0
   43.2386    5.2428   10.8229 C   0  0  0  0  0  0  0  0  0  0  0  0
   45.5153    5.0036   10.0546 C   0  0  0  0  0  0  0  0  0  0  0  0
   44.1871    4.5800   10.0446 C   0  0  0  0  0  0  0  0  0  0  0  0
   48.5235   11.7285   13.3907 C   0  0  0  0  0  0  0  0  0  0  0  0
   48.7446    9.2368   12.9151 C   0  0  0  0  0  0  0  0  0  0  0  0
   49.1976   10.6371   12.5288 C   0  0  1  0  0  0  0  0  0  0  0  0
   47.3845    8.8976   12.9793 C   0  0  0  0  0  0  0  0  0  0  0  0
   47.4834   12.2655   12.9069 O   0  0  0  0  0  0  0  0  0  0  0  0
   49.1126   11.9871   14.4823 O   0  0  0  0  0  0  0  0  0  0  0  0
   46.9997    7.5847   13.2544 C   0  0  0  0  0  0  0  0  0  0  0  0
   45.6539    7.2959   13.3038 O   0  0  0  0  0  0  0  0  0  0  0  0
   45.2042    6.3727   12.3848 C   0  0  0  0  0  0  0  0  0  0  0  0
   49.7001    8.2370   13.1611 C   0  0  0  0  0  0  0  0  0  0  0  0
   49.3095    6.9304   13.4664 C   0  0  0  0  0  0  0  0  0  0  0  0
   47.9567    6.6021   13.5153 C   0  0  0  0  0  0  0  0  0  0  0  0
   48.9898   10.8731   11.0320 C   0  0  0  0  0  0  0  0  0  0  0  0
   44.3570    5.3661   12.8522 C   0  0  0  0  0  0  0  0  0  0  0  0
   45.5208    6.4495   11.0248 C   0  0  0  0  0  0  0  0  0  0  0  0
   43.8550    4.4131   11.9644 C   0  0  0  0  0  0  0  0  0  0  0  0
   45.0190    5.4945   10.1399 C   0  0  0  0  0  0  0  0  0  0  0  0
   44.1922    4.4725   10.6106 C   0  0  0  0  0  0  0  0  0  0  0  0
   47.2346    7.7941   12.2230 Ca  0  0  0  0  0 15  0  0  0  0  0  0
   47.2252    7.9355   11.8513 O   0  0  0  0  0  0  0  0  0  0  0  0
   46.7129    7.2041   12.2694 H   0  0  0  0  0  0  0  0  0  0  0  0
   47.7812    8.2578   12.5529 H   0  0  0  0  0  0  0  0  0  0  0  0
   49.0715   10.6326   11.5706 H   0  0  0  0  0  0  0  0  0  0  0  0
   47.0175    9.5576   11.6369 H   0  0  0  0  0  0  0  0  0  0  0  0
   50.1429    8.1304   14.2338 H   0  0  0  0  0  0  0  0  0  0  0  0
   48.5894    6.4691   15.1954 H   0  0  0  0  0  0  0  0  0  0  0  0
   46.2500    6.3214   14.3608 H   0  0  0  0  0  0  0  0  0  0  0  0
   49.3625   11.5159   13.8408 H   0  0  0  0  0  0  0  0  0  0  0  0
   50.8422   11.7152   12.8835 H   0  0  0  0  0  0  0  0  0  0  0  0
   50.7511   10.4608   14.1254 H   0  0  0  0  0  0  0  0  0  0  0  0
   46.9366    6.4129   10.8269 H   0  0  0  0  0  0  0  0  0  0  0  0
   42.8801    6.8463   12.2147 H   0  0  0  0  0  0  0  0  0  0  0  0
   42.2025    4.9199   10.8077 H   0  0  0  0  0  0  0  0  0  0  0  0
   46.2574    4.4996    9.4399 H   0  0  0  0  0  0  0  0  0  0  0  0
   43.8906    3.7387    9.4238 H   0  0  0  0  0  0  0  0  0  0  0  0
   50.2762   10.7233   12.7196 H   0  0  0  0  0  0  0  0  0  0  0  0
   46.6243    9.6581   12.8007 H   0  0  0  0  0  0  0  0  0  0  0  0
   50.7585    8.4830   13.1202 H   0  0  0  0  0  0  0  0  0  0  0  0
   50.0619    6.1741   13.6623 H   0  0  0  0  0  0  0  0  0  0  0  0
   47.6482    5.5902   13.7534 H   0  0  0  0  0  0  0  0  0  0  0  0
   49.5771   10.1613   10.4396 H   0  0  0  0  0  0  0  0  0  0  0  0
   47.9400   10.7589   10.7342 H   0  0  0  0  0  0  0  0  0  0  0  0
   49.3037   11.8849   10.7544 H   0  0  0  0  0  0  0  0  0  0  0  0
   44.0968    5.3264   13.9062 H   0  0  0  0  0  0  0  0  0  0  0  0
   46.1497    7.2552   10.6500 H   0  0  0  0  0  0  0  0  0  0  0  0
   43.2052    3.6222   12.3304 H   0  0  0  0  0  0  0  0  0  0  0  0
   45.2748    5.5522    9.0857 H   0  0  0  0  0  0  0  0  0  0  0  0
   43.8043    3.7292    9.9198 H   0  0  0  0  0  0  0  0  0  0  0  0
   47.7753    8.2360   12.5903 H   0  0  0  0  0  0  0  0  0  0  0  0
   46.7034    7.2108   12.2273 H   0  0  0  0  0  0  0  0  0  0  0  0
  3  4  1  0
  4  2  1  0
  5  3  2  0
  6  2  1  0
  7  2  2  0
  8  5  1  0
  9  8  1  0
 10  9  1  0
 11  3  1  0
 12 11  2  0
 13  8  2  0
 14  4  1  0
 15 10  2  0
 16 10  1  0
 17 16  2  0
 18 15  1  0
 19 17  1  0
 12 13  1  0
 18 19  2  0
 21 22  1  0
 22 20  1  0
 23 21  2  0
 24 20  1  0
 25 20  2  0
 26 23  1  0
 27 26  1  0
 28 27  1  0
 29 21  1  0
 30 29  2  0
 31 26  2  0
 32 22  1  0
 33 28  2  0
 34 28  1  0
 35 33  1  0
 36 34  2  0
 37 36  1  0
 30 31  1  0
 35 37  2  0
  1 40  1  0
  1 41  1  0
  4 42  1  1
  5 43  1  0
 11 44  1  0
 12 45  1  0
 13 46  1  0
 14 47  1  0
 14 48  1  0
 14 49  1  0
 15 50  1  0
 16 51  1  0
 17 52  1  0
 18 53  1  0
 19 54  1  0
 22 55  1  6
 23 56  1  0
 29 57  1  0
 30 58  1  0
 31 59  1  0
 32 60  1  0
 32 61  1  0
 32 62  1  0
 33 63  1  0
 34 64  1  0
 35 65  1  0
 36 66  1  0
 37 67  1  0
 39 68  1  0
 39 69  1  0
M  CHG  3   6  -1  24  -1  38   2
M  END
> <Uni-Dock RESULT> 
ENERGY=   -5.446  LOWER_BOUND=    7.293  UPPER_BOUND=    9.057
INTER + INTRA:          -5.446
INTER:                  -5.446
INTRA:                   0.000
UNBOUND:                 0.000

$$$$

     RDKit          3D

 69 68  0  0  0  0  0  0  0  0999 V2000
   49.1978    5.9269   16.1142 O   0  0  0  0  0  0  0  0  0  0  0  0
   48.8655    3.8799   19.3132 C   0  0  0  0  0  0  0  0  0  0  0  0
   49.9049    5.8089   18.0879 C   0  0  0  0  0  0  0  0  0  0  0  0
   50.1903    4.5261   18.8538 C   0  0  1  0  0  0  0  0  0  0  0  0
   50.1753    5.8795   16.7148 C   0  0  0  0  0  0  0  0  0  0  0  0
   48.3146    3.1273   18.4562 O   0  0  0  0  0  0  0  0  0  0  0  0
   48.4878    4.1526   20.4902 O   0  0  0  0  0  0  0  0  0  0  0  0
   49.8649    7.0357   15.9970 C   0  0  0  0  0  0  0  0  0  0  0  0
   50.1093    7.0564   14.6434 O   0  0  0  0  0  0  0  0  0  0  0  0
   49.0055    7.0234   13.8157 C   0  0  0  0  0  0  0  0  0  0  0  0
   49.3412    6.9296   18.7204 C   0  0  0  0  0  0  0  0  0  0  0  0
   49.0700    8.0985   18.0043 C   0  0  0  0  0  0  0  0  0  0  0  0
   49.3393    8.1567   16.6396 C   0  0  0  0  0  0  0  0  0  0  0  0
   51.1681    4.7564   20.0046 C   0  0  0  0  0  0  0  0  0  0  0  0
   47.7960    6.4029   14.1427 C   0  0  0  0  0  0  0  0  0  0  0  0
   49.1632    7.6126   12.5597 C   0  0  0  0  0  0  0  0  0  0  0  0
   48.1089    7.6092   11.6450 C   0  0  0  0  0  0  0  0  0  0  0  0
   46.7426    6.3993   13.2262 C   0  0  0  0  0  0  0  0  0  0  0  0
   46.8979    7.0043   11.9798 C   0  0  0  0  0  0  0  0  0  0  0  0
   52.4684    4.9346   18.7464 C   0  0  0  0  0  0  0  0  0  0  0  0
   50.0983    5.6901   18.2029 C   0  0  0  0  0  0  0  0  0  0  0  0
   50.9708    4.5539   18.7156 C   0  0  1  0  0  0  0  0  0  0  0  0
   50.3642    6.3245   16.9799 C   0  0  0  0  0  0  0  0  0  0  0  0
   53.1562    4.5962   17.7383 O   0  0  0  0  0  0  0  0  0  0  0  0
   52.8490    5.5213   19.8031 O   0  0  0  0  0  0  0  0  0  0  0  0
   49.4992    7.3063   16.4946 C   0  0  0  0  0  0  0  0  0  0  0  0
   49.7970    7.8997   15.2879 O   0  0  0  0  0  0  0  0  0  0  0  0
   48.8601    7.7349   14.2908 C   0  0  0  0  0  0  0  0  0  0  0  0
   48.9656    6.0850   18.9339 C   0  0  0  0  0  0  0  0  0  0  0  0
   48.1191    7.0903   18.4584 C   0  0  0  0  0  0  0  0  0  0  0  0
   48.3860    7.7046   17.2371 C   0  0  0  0  0  0  0  0  0  0  0  0
   50.7158    3.2782   17.9114 C   0  0  0  0  0  0  0  0  0  0  0  0
   48.5044    8.8667   13.5547 C   0  0  0  0  0  0  0  0  0  0  0  0
   48.3144    6.4878   13.9701 C   0  0  0  0  0  0  0  0  0  0  0  0
   47.5737    8.7579   12.5199 C   0  0  0  0  0  0  0  0  0  0  0  0
   47.3831    6.3823   12.9364 C   0  0  0  0  0  0  0  0  0  0  0  0
   47.0075    7.5181   12.2164 C   0  0  0  0  0  0  0  0  0  0  0  0
   49.2157    6.2886   16.2785 Ca  0  0  0  0  0 15  0  0  0  0  0  0
   49.2061    5.9186   16.1328 O   0  0  0  0  0  0  0  0  0  0  0  0
   48.9353    6.7735   15.7229 H   0  0  0  0  0  0  0  0  0  0  0  0
   49.5140    6.1654   16.9986 H   0  0  0  0  0  0  0  0  0  0  0  0
   50.6728    3.8108   18.1742 H   0  0  0  0  0  0  0  0  0  0  0  0
   50.5862    5.0175   16.1956 H   0  0  0  0  0  0  0  0  0  0  0  0
   49.0868    6.8787   19.7784 H   0  0  0  0  0  0  0  0  0  0  0  0
   48.6284    8.9500   18.5143 H   0  0  0  0  0  0  0  0  0  0  0  0
   49.1166    9.0559   16.0768 H   0  0  0  0  0  0  0  0  0  0  0  0
   52.1220    5.1491   19.6329 H   0  0  0  0  0  0  0  0  0  0  0  0
   51.3708    3.8155   20.5288 H   0  0  0  0  0  0  0  0  0  0  0  0
   50.7873    5.4698   20.7457 H   0  0  0  0  0  0  0  0  0  0  0  0
   47.6602    5.9098   15.1027 H   0  0  0  0  0  0  0  0  0  0  0  0
   50.1076    8.0775   12.2955 H   0  0  0  0  0  0  0  0  0  0  0  0
   48.2338    8.0714   10.6710 H   0  0  0  0  0  0  0  0  0  0  0  0
   45.8053    5.9142   13.4886 H   0  0  0  0  0  0  0  0  0  0  0  0
   46.0775    6.9966   11.2670 H   0  0  0  0  0  0  0  0  0  0  0  0
   50.6915    4.3375   19.7560 H   0  0  0  0  0  0  0  0  0  0  0  0
   51.2417    6.0413   16.3986 H   0  0  0  0  0  0  0  0  0  0  0  0
   48.7467    5.6075   19.8859 H   0  0  0  0  0  0  0  0  0  0  0  0
   47.2543    7.3879   19.0415 H   0  0  0  0  0  0  0  0  0  0  0  0
   47.7333    8.4862   16.8645 H   0  0  0  0  0  0  0  0  0  0  0  0
   49.6706    2.9598   18.0059 H   0  0  0  0  0  0  0  0  0  0  0  0
   50.9218    3.4118   16.8420 H   0  0  0  0  0  0  0  0  0  0  0  0
   51.3520    2.4626   18.2710 H   0  0  0  0  0  0  0  0  0  0  0  0
   48.9498    9.8280   13.7945 H   0  0  0  0  0  0  0  0  0  0  0  0
   48.6182    5.5964   14.5162 H   0  0  0  0  0  0  0  0  0  0  0  0
   47.2875    9.6413   11.9548 H   0  0  0  0  0  0  0  0  0  0  0  0
   46.9545    5.4134   12.6965 H   0  0  0  0  0  0  0  0  0  0  0  0
   46.2808    7.4335   11.4132 H   0  0  0  0  0  0  0  0  0  0  0  0
   49.5112    6.2084   17.0056 H   0  0  0  0  0  0  0  0  0  0  0  0
   48.9297    6.7388   15.6971 H   0  0  0  0  0  0  0  0  0  0  0  0
  3  4  1  0
  4  2  1  0
  5  3  2  0
  6  2  1  0
  7  2  2  0
  8  5  1  0
  9  8  1  0
 10  9  1  0
 11  3  1  0
 12 11  2  0
 13  8  2  0
 14  4  1  0
 15 10  2  0
 16 10  1  0
 17 16  2  0
 18 15  1  0
 19 17  1  0
 12 13  1  0
 18 19  2  0
 21 22  1  0
 22 20  1  0
 23 21  2  0
 24 20  1  0
 25 20  2  0
 26 23  1  0
 27 26  1  0
 28 27  1  0
 29 21  1  0
 30 29  2  0
 31 26  2  0
 32 22  1  0
 33 28  2  0
 34 28  1  0
 35 33  1  0
 36 34  2  0
 37 36  1  0
 30 31  1  0
 35 37  2  0
  1 40  1  0
  1 41  1  0
  4 42  1  1
  5 43  1  0
 11 44  1  0
 12 45  1  0
 13 46  1  0
 14 47  1  0
 14 48  1  0
 14 49  1  0
 15 50  1  0
 16 51  1  0
 17 52  1  0
 18 53  1  0
 19 54  1  0
 22 55  1  6
 23 56  1  0
 29 57  1  0
 30 58  1  0
 31 59  1  0
 32 60  1  0
 32 61  1  0
 32 62  1  0
 33 63  1  0
 34 64  1  0
 35 65  1  0
 36 66  1  0
 37 67  1  0
 39 68  1  0
 39 69  1  0
M  CHG  3   6  -1  24  -1  38   2
M  END
> <Uni-Dock RESULT> 
ENERGY=   -5.426  LOWER_BOUND=    9.497  UPPER_BOUND=   12.292
INTER + INTRA:          -5.426
INTER:                  -5.426
INTRA:                   0.000
UNBOUND:                 0.000

$$$$
