
     RDKit          3D

 69 68  0  0  0  0  0  0  0  0999 V2000
   47.2173    7.6835   12.6980 O   0  0  0  0  0  0  0  0  0  0  0  0
   48.9777    9.6577   15.9075 C   0  0  0  0  0  0  0  0  0  0  0  0
   48.6726    9.0443   13.4826 C   0  0  0  0  0  0  0  0  0  0  0  0
   49.2008   10.0996   14.4439 C   0  0  1  0  0  0  0  0  0  0  0  0
   47.2969    8.8297   13.3052 C   0  0  0  0  0  0  0  0  0  0  0  0
   49.8625    8.8741   16.3686 O   0  0  0  0  0  0  0  0  0  0  0  0
   47.9711   10.1479   16.4988 O   0  0  0  0  0  0  0  0  0  0  0  0
   46.8400    7.8589   12.4103 C   0  0  0  0  0  0  0  0  0  0  0  0
   45.4760    7.7405   12.2623 O   0  0  0  0  0  0  0  0  0  0  0  0
   44.9546    6.4706   12.1978 C   0  0  0  0  0  0  0  0  0  0  0  0
   49.5741    8.2533   12.7514 C   0  0  0  0  0  0  0  0  0  0  0  0
   49.1154    7.2967   11.8418 C   0  0  0  0  0  0  0  0  0  0  0  0
   47.7471    7.1073   11.6577 C   0  0  0  0  0  0  0  0  0  0  0  0
   48.6269   11.4842   14.1447 C   0  0  0  0  0  0  0  0  0  0  0  0
   44.0546    6.2017   11.1650 C   0  0  0  0  0  0  0  0  0  0  0  0
   45.2451    5.4948   13.1541 C   0  0  0  0  0  0  0  0  0  0  0  0
   44.6615    4.2312   13.0491 C   0  0  0  0  0  0  0  0  0  0  0  0
   43.4706    4.9376   11.0636 C   0  0  0  0  0  0  0  0  0  0  0  0
   43.7806    3.9529   12.0019 C   0  0  0  0  0  0  0  0  0  0  0  0
   50.7854    9.0509   13.8126 C   0  0  0  0  0  0  0  0  0  0  0  0
   48.2712    9.3452   13.7842 C   0  0  0  0  0  0  0  0  0  0  0  0
   49.5526    9.6178   14.5642 C   0  0  1  0  0  0  0  0  0  0  0  0
   47.5210    8.1715   13.9425 C   0  0  0  0  0  0  0  0  0  0  0  0
   51.2138    9.7785   12.8625 O   0  0  0  0  0  0  0  0  0  0  0  0
   51.2653    7.9646   14.2510 O   0  0  0  0  0  0  0  0  0  0  0  0
   46.3382    7.9772   13.2201 C   0  0  0  0  0  0  0  0  0  0  0  0
   45.6477    6.8103   13.4689 O   0  0  0  0  0  0  0  0  0  0  0  0
   45.0593    6.1645   12.4029 C   0  0  0  0  0  0  0  0  0  0  0  0
   47.8207   10.3021   12.8600 C   0  0  0  0  0  0  0  0  0  0  0  0
   46.6299   10.1200   12.1537 C   0  0  0  0  0  0  0  0  0  0  0  0
   45.8751    8.9667   12.3481 C   0  0  0  0  0  0  0  0  0  0  0  0
   49.4911    9.1526   16.0234 C   0  0  0  0  0  0  0  0  0  0  0  0
   43.7830    5.6354   12.6087 C   0  0  0  0  0  0  0  0  0  0  0  0
   45.7061    5.9716   11.1813 C   0  0  0  0  0  0  0  0  0  0  0  0
   43.1308    4.9578   11.5772 C   0  0  0  0  0  0  0  0  0  0  0  0
   45.0513    5.2975   10.1496 C   0  0  0  0  0  0  0  0  0  0  0  0
   43.7637    4.7946   10.3463 C   0  0  0  0  0  0  0  0  0  0  0  0
   46.9680    7.7017   13.0074 Ca  0  0  0  0  0 15  0  0  0  0  0  0
   47.2182    7.6846   12.6988 O   0  0  0  0  0  0  0  0  0  0  0  0
   47.2937    8.2307   13.4941 H   0  0  0  0  0  0  0  0  0  0  0  0
   46.3930    7.1909   12.8302 H   0  0  0  0  0  0  0  0  0  0  0  0
   50.2900   10.1873   14.3113 H   0  0  0  0  0  0  0  0  0  0  0  0
   46.5812    9.4117   13.8833 H   0  0  0  0  0  0  0  0  0  0  0  0
   50.6461    8.3776   12.9035 H   0  0  0  0  0  0  0  0  0  0  0  0
   49.8293    6.6988   11.2832 H   0  0  0  0  0  0  0  0  0  0  0  0
   47.3986    6.3730   10.9372 H   0  0  0  0  0  0  0  0  0  0  0  0
   47.5415   11.5284   14.2887 H   0  0  0  0  0  0  0  0  0  0  0  0
   48.8363   11.7803   13.1096 H   0  0  0  0  0  0  0  0  0  0  0  0
   49.0750   12.2343   14.8063 H   0  0  0  0  0  0  0  0  0  0  0  0
   43.8168    6.9770   10.4442 H   0  0  0  0  0  0  0  0  0  0  0  0
   45.9200    5.7222   13.9787 H   0  0  0  0  0  0  0  0  0  0  0  0
   44.8862    3.4664   13.7864 H   0  0  0  0  0  0  0  0  0  0  0  0
   42.7696    4.7144   10.2556 H   0  0  0  0  0  0  0  0  0  0  0  0
   43.3239    2.9729   11.9226 H   0  0  0  0  0  0  0  0  0  0  0  0
   49.6854   10.7150   14.6093 H   0  0  0  0  0  0  0  0  0  0  0  0
   47.8659    7.3929   14.6171 H   0  0  0  0  0  0  0  0  0  0  0  0
   48.4177   11.1956   12.6861 H   0  0  0  0  0  0  0  0  0  0  0  0
   46.3028   10.8791   11.4503 H   0  0  0  0  0  0  0  0  0  0  0  0
   44.9428    8.8402   11.8068 H   0  0  0  0  0  0  0  0  0  0  0  0
   50.3831    9.4858   16.5667 H   0  0  0  0  0  0  0  0  0  0  0  0
   49.4510    8.0623   16.1161 H   0  0  0  0  0  0  0  0  0  0  0  0
   48.6179    9.5655   16.5348 H   0  0  0  0  0  0  0  0  0  0  0  0
   43.2984    5.7563   13.5736 H   0  0  0  0  0  0  0  0  0  0  0  0
   46.7130    6.3505   11.0286 H   0  0  0  0  0  0  0  0  0  0  0  0
   42.1341    4.5561   11.7367 H   0  0  0  0  0  0  0  0  0  0  0  0
   45.5503    5.1655    9.1952 H   0  0  0  0  0  0  0  0  0  0  0  0
   43.2569    4.2684    9.5421 H   0  0  0  0  0  0  0  0  0  0  0  0
   46.3946    7.1902   12.8273 H   0  0  0  0  0  0  0  0  0  0  0  0
   47.2911    8.2302   13.4962 H   0  0  0  0  0  0  0  0  0  0  0  0
  3  4  1  0
  4  2  1  0
  5  3  2  0
  6  2  1  0
  7  2  2  0
  8  5  1  0
  9  8  1  0
 10  9  1  0
 11  3  1  0
 12 11  2  0
 13  8  2  0
 14  4  1  0
 15 10  2  0
 16 10  1  0
 17 16  2  0
 18 15  1  0
 19 17  1  0
 12 13  1  0
 18 19  2  0
 21 22  1  0
 22 20  1  0
 23 21  2  0
 24 20  1  0
 25 20  2  0
 26 23  1  0
 27 26  1  0
 28 27  1  0
 29 21  1  0
 30 29  2  0
 31 26  2  0
 32 22  1  0
 33 28  2  0
 34 28  1  0
 35 33  1  0
 36 34  2  0
 37 36  1  0
 30 31  1  0
 35 37  2  0
  1 40  1  0
  1 41  1  0
  4 42  1  1
  5 43  1  0
 11 44  1  0
 12 45  1  0
 13 46  1  0
 14 47  1  0
 14 48  1  0
 14 49  1  0
 15 50  1  0
 16 51  1  0
 17 52  1  0
 18 53  1  0
 19 54  1  0
 22 55  1  6
 23 56  1  0
 29 57  1  0
 30 58  1  0
 31 59  1  0
 32 60  1  0
 32 61  1  0
 32 62  1  0
 33 63  1  0
 34 64  1  0
 35 65  1  0
 36 66  1  0
 37 67  1  0
 39 68  1  0
 39 69  1  0
M  CHG  3   6  -1  24  -1  38   2
M  END
> <Uni-Dock RESULT> 
ENERGY=   -6.616  LOWER_BOUND=    0.000  UPPER_BOUND=    0.000
INTER + INTRA:          -6.616
INTER:                  -6.616
INTRA:                   0.000
UNBOUND:                 0.000

$$$$

     RDKit          3D

 69 68  0  0  0  0  0  0  0  0999 V2000
   47.1554    6.2940   13.8686 O   0  0  0  0  0  0  0  0  0  0  0  0
   48.5347    9.6532   15.8960 C   0  0  0  0  0  0  0  0  0  0  0  0
   48.6491    7.2865   15.0386 C   0  0  0  0  0  0  0  0  0  0  0  0
   49.4650    8.4807   15.5129 C   0  0  1  0  0  0  0  0  0  0  0  0
   47.9889    7.2886   13.8000 C   0  0  0  0  0  0  0  0  0  0  0  0
   48.0505    9.5890   17.0670 O   0  0  0  0  0  0  0  0  0  0  0  0
   48.3857   10.5634   15.0286 O   0  0  0  0  0  0  0  0  0  0  0  0
   47.2529    6.1755   13.3866 C   0  0  0  0  0  0  0  0  0  0  0  0
   46.6713    6.2408   12.1400 O   0  0  0  0  0  0  0  0  0  0  0  0
   45.3894    5.7619   12.0141 C   0  0  0  0  0  0  0  0  0  0  0  0
   48.5407    6.1479   15.8540 C   0  0  0  0  0  0  0  0  0  0  0  0
   47.8209    5.0275   15.4303 C   0  0  0  0  0  0  0  0  0  0  0  0
   47.1875    5.0326   14.1890 C   0  0  0  0  0  0  0  0  0  0  0  0
   50.5392    8.8778   14.5007 C   0  0  0  0  0  0  0  0  0  0  0  0
   45.1348    4.8896   10.9542 C   0  0  0  0  0  0  0  0  0  0  0  0
   44.3536    6.1706   12.8575 C   0  0  0  0  0  0  0  0  0  0  0  0
   43.0658    5.6693   12.6608 C   0  0  0  0  0  0  0  0  0  0  0  0
   43.8453    4.3913   10.7586 C   0  0  0  0  0  0  0  0  0  0  0  0
   42.8151    4.7768   11.6164 C   0  0  0  0  0  0  0  0  0  0  0  0
   49.3647    7.2039   17.0520 C   0  0  0  0  0  0  0  0  0  0  0  0
   48.6605    7.7513   14.6829 C   0  0  0  0  0  0  0  0  0  0  0  0
   49.1447    8.3296   16.0079 C   0  0  1  0  0  0  0  0  0  0  0  0
   47.3036    7.5523   14.3918 C   0  0  0  0  0  0  0  0  0  0  0  0
   50.4602    6.5704   16.9328 O   0  0  0  0  0  0  0  0  0  0  0  0
   48.4692    7.0695   17.9367 O   0  0  0  0  0  0  0  0  0  0  0  0
   46.9070    7.0396   13.1516 C   0  0  0  0  0  0  0  0  0  0  0  0
   45.5504    6.9137   12.9409 O   0  0  0  0  0  0  0  0  0  0  0  0
   45.0996    5.8027   12.2613 C   0  0  0  0  0  0  0  0  0  0  0  0
   49.6081    7.3925   13.7103 C   0  0  0  0  0  0  0  0  0  0  0  0
   49.2139    6.9005   12.4642 C   0  0  0  0  0  0  0  0  0  0  0  0
   47.8616    6.7430   12.1745 C   0  0  0  0  0  0  0  0  0  0  0  0
   48.2578    9.4596   16.5426 C   0  0  0  0  0  0  0  0  0  0  0  0
   44.0841    6.0026   11.3231 C   0  0  0  0  0  0  0  0  0  0  0  0
   45.5663    4.5131   12.5204 C   0  0  0  0  0  0  0  0  0  0  0  0
   43.5701    4.9211   10.6057 C   0  0  0  0  0  0  0  0  0  0  0  0
   45.0544    3.4333   11.7995 C   0  0  0  0  0  0  0  0  0  0  0  0
   44.0603    3.6377   10.8407 C   0  0  0  0  0  0  0  0  0  0  0  0
   46.9776    6.6236   13.7345 Ca  0  0  0  0  0 15  0  0  0  0  0  0
   47.1564    6.2950   13.8694 O   0  0  0  0  0  0  0  0  0  0  0  0
   47.4086    7.2155   14.0289 H   0  0  0  0  0  0  0  0  0  0  0  0
   46.3689    6.3613   13.3060 H   0  0  0  0  0  0  0  0  0  0  0  0
   50.0024    8.2010   16.4319 H   0  0  0  0  0  0  0  0  0  0  0  0
   48.0359    8.1719   13.1652 H   0  0  0  0  0  0  0  0  0  0  0  0
   49.0135    6.1413   16.8358 H   0  0  0  0  0  0  0  0  0  0  0  0
   47.7533    4.1558   16.0742 H   0  0  0  0  0  0  0  0  0  0  0  0
   46.6434    4.1519   13.8600 H   0  0  0  0  0  0  0  0  0  0  0  0
   50.1140    9.2204   13.5506 H   0  0  0  0  0  0  0  0  0  0  0  0
   51.2028    8.0326   14.2811 H   0  0  0  0  0  0  0  0  0  0  0  0
   51.1539    9.6941   14.8968 H   0  0  0  0  0  0  0  0  0  0  0  0
   45.9428    4.6011   10.2901 H   0  0  0  0  0  0  0  0  0  0  0  0
   44.5510    6.8800   13.6605 H   0  0  0  0  0  0  0  0  0  0  0  0
   42.2567    5.9792   13.3153 H   0  0  0  0  0  0  0  0  0  0  0  0
   43.6363    3.7033    9.9358 H   0  0  0  0  0  0  0  0  0  0  0  0
   41.8141    4.3907   11.4609 H   0  0  0  0  0  0  0  0  0  0  0  0
   50.1333    8.7911   15.8258 H   0  0  0  0  0  0  0  0  0  0  0  0
   46.5485    7.7788   15.1395 H   0  0  0  0  0  0  0  0  0  0  0  0
   50.6678    7.4914   13.9385 H   0  0  0  0  0  0  0  0  0  0  0  0
   49.9680    6.6371   11.7293 H   0  0  0  0  0  0  0  0  0  0  0  0
   47.5633    6.3748   11.1979 H   0  0  0  0  0  0  0  0  0  0  0  0
   48.7192    9.9207   17.4237 H   0  0  0  0  0  0  0  0  0  0  0  0
   47.2674    9.1077   16.8498 H   0  0  0  0  0  0  0  0  0  0  0  0
   48.1184   10.2429   15.7932 H   0  0  0  0  0  0  0  0  0  0  0  0
   43.6982    7.0037   11.1514 H   0  0  0  0  0  0  0  0  0  0  0  0
   46.3309    4.3484   13.2746 H   0  0  0  0  0  0  0  0  0  0  0  0
   42.7875    5.0809    9.8694 H   0  0  0  0  0  0  0  0  0  0  0  0
   45.4329    2.4345   11.9908 H   0  0  0  0  0  0  0  0  0  0  0  0
   43.6620    2.7952   10.2823 H   0  0  0  0  0  0  0  0  0  0  0  0
   46.3699    6.3582   13.3067 H   0  0  0  0  0  0  0  0  0  0  0  0
   47.4065    7.2177   14.0273 H   0  0  0  0  0  0  0  0  0  0  0  0
  3  4  1  0
  4  2  1  0
  5  3  2  0
  6  2  1  0
  7  2  2  0
  8  5  1  0
  9  8  1  0
 10  9  1  0
 11  3  1  0
 12 11  2  0
 13  8  2  0
 14  4  1  0
 15 10  2  0
 16 10  1  0
 17 16  2  0
 18 15  1  0
 19 17  1  0
 12 13  1  0
 18 19  2  0
 21 22  1  0
 22 20  1  0
 23 21  2  0
 24 20  1  0
 25 20  2  0
 26 23  1  0
 27 26  1  0
 28 27  1  0
 29 21  1  0
 30 29  2  0
 31 26  2  0
 32 22  1  0
 33 28  2  0
 34 28  1  0
 35 33  1  0
 36 34  2  0
 37 36  1  0
 30 31  1  0
 35 37  2  0
  1 40  1  0
  1 41  1  0
  4 42  1  1
  5 43  1  0
 11 44  1  0
 12 45  1  0
 13 46  1  0
 14 47  1  0
 14 48  1  0
 14 49  1  0
 15 50  1  0
 16 51  1  0
 17 52  1  0
 18 53  1  0
 19 54  1  0
 22 55  1  6
 23 56  1  0
 29 57  1  0
 30 58  1  0
 31 59  1  0
 32 60  1  0
 32 61  1  0
 32 62  1  0
 33 63  1  0
 34 64  1  0
 35 65  1  0
 36 66  1  0
 37 67  1  0
 39 68  1  0
 39 69  1  0
M  CHG  3   6  -1  24  -1  38   2
M  END
> <Uni-Dock RESULT> 
ENERGY=   -6.473  LOWER_BOUND=    1.575  UPPER_BOUND=    2.451
INTER + INTRA:          -6.473
INTER:                  -6.473
INTRA:                   0.000
UNBOUND:                 0.000

$$$$

     RDKit          3D

 69 68  0  0  0  0  0  0  0  0999 V2000
   46.9951    7.3899   12.6356 O   0  0  0  0  0  0  0  0  0  0  0  0
   50.8106    8.7292   11.6636 C   0  0  0  0  0  0  0  0  0  0  0  0
   48.6488    8.7114   12.9580 C   0  0  0  0  0  0  0  0  0  0  0  0
   50.1199    9.1007   12.9947 C   0  0  1  0  0  0  0  0  0  0  0  0
   48.2385    7.3702   13.0127 C   0  0  0  0  0  0  0  0  0  0  0  0
   50.6659    9.5788   10.7325 O   0  0  0  0  0  0  0  0  0  0  0  0
   51.4731    7.6503   11.6523 O   0  0  0  0  0  0  0  0  0  0  0  0
   46.8808    7.0421   12.9847 C   0  0  0  0  0  0  0  0  0  0  0  0
   46.5603    5.7066   13.0859 O   0  0  0  0  0  0  0  0  0  0  0  0
   45.5663    5.2307   12.2648 C   0  0  0  0  0  0  0  0  0  0  0  0
   47.6654    9.7098   12.8615 C   0  0  0  0  0  0  0  0  0  0  0  0
   46.3072    9.3811   12.8541 C   0  0  0  0  0  0  0  0  0  0  0  0
   45.9108    8.0473   12.9309 C   0  0  0  0  0  0  0  0  0  0  0  0
   50.8333    8.5256   14.2179 C   0  0  0  0  0  0  0  0  0  0  0  0
   44.5649    4.4583   12.8562 C   0  0  0  0  0  0  0  0  0  0  0  0
   45.5744    5.4404   10.8839 C   0  0  0  0  0  0  0  0  0  0  0  0
   44.5504    4.9069   10.0995 C   0  0  0  0  0  0  0  0  0  0  0  0
   43.5430    3.9242   12.0689 C   0  0  0  0  0  0  0  0  0  0  0  0
   43.5342    4.1554   10.6933 C   0  0  0  0  0  0  0  0  0  0  0  0
   49.0908   10.7737   12.6053 C   0  0  0  0  0  0  0  0  0  0  0  0
   49.0337    8.2710   12.9817 C   0  0  0  0  0  0  0  0  0  0  0  0
   49.8977    9.4502   12.5487 C   0  0  1  0  0  0  0  0  0  0  0  0
   48.2414    7.5405   12.0850 C   0  0  0  0  0  0  0  0  0  0  0  0
   48.9817   11.2844   13.7642 O   0  0  0  0  0  0  0  0  0  0  0  0
   48.6766   11.2318   11.5003 O   0  0  0  0  0  0  0  0  0  0  0  0
   47.4826    6.4507   12.5268 C   0  0  0  0  0  0  0  0  0  0  0  0
   46.7643    5.7693   11.5676 O   0  0  0  0  0  0  0  0  0  0  0  0
   45.5037    5.3205   11.8977 C   0  0  0  0  0  0  0  0  0  0  0  0
   49.0190    7.8994   14.3360 C   0  0  0  0  0  0  0  0  0  0  0  0
   48.2793    6.7995   14.7757 C   0  0  0  0  0  0  0  0  0  0  0  0
   47.5263    6.0599   13.8682 C   0  0  0  0  0  0  0  0  0  0  0  0
   50.5848    9.2404   11.1947 C   0  0  0  0  0  0  0  0  0  0  0  0
   45.1491    4.0443   11.4540 C   0  0  0  0  0  0  0  0  0  0  0  0
   44.5748    6.1036   12.5846 C   0  0  0  0  0  0  0  0  0  0  0  0
   43.8838    3.5291   11.7411 C   0  0  0  0  0  0  0  0  0  0  0  0
   43.3117    5.5858   12.8745 C   0  0  0  0  0  0  0  0  0  0  0  0
   42.9682    4.2987   12.4565 C   0  0  0  0  0  0  0  0  0  0  0  0
   47.2003    7.1075   12.4450 Ca  0  0  0  0  0 15  0  0  0  0  0  0
   46.9965    7.3907   12.6358 O   0  0  0  0  0  0  0  0  0  0  0  0
   47.9470    7.3626   12.4564 H   0  0  0  0  0  0  0  0  0  0  0  0
   46.6589    6.5700   12.2430 H   0  0  0  0  0  0  0  0  0  0  0  0
   50.1953   10.1951   13.0859 H   0  0  0  0  0  0  0  0  0  0  0  0
   48.9851    6.5792   13.0584 H   0  0  0  0  0  0  0  0  0  0  0  0
   47.9645   10.7545   12.7789 H   0  0  0  0  0  0  0  0  0  0  0  0
   45.5630   10.1686   12.7834 H   0  0  0  0  0  0  0  0  0  0  0  0
   44.8529    7.8010   12.9406 H   0  0  0  0  0  0  0  0  0  0  0  0
   50.8594    7.4301   14.2116 H   0  0  0  0  0  0  0  0  0  0  0  0
   50.3382    8.8400   15.1447 H   0  0  0  0  0  0  0  0  0  0  0  0
   51.8708    8.8769   14.2549 H   0  0  0  0  0  0  0  0  0  0  0  0
   44.5851    4.2805   13.9263 H   0  0  0  0  0  0  0  0  0  0  0  0
   46.3785    6.0133   10.4232 H   0  0  0  0  0  0  0  0  0  0  0  0
   44.5479    5.0696    9.0259 H   0  0  0  0  0  0  0  0  0  0  0  0
   42.7510    3.3233   12.5223 H   0  0  0  0  0  0  0  0  0  0  0  0
   42.7412    3.7374   10.0837 H   0  0  0  0  0  0  0  0  0  0  0  0
   50.7181    9.5469   13.2843 H   0  0  0  0  0  0  0  0  0  0  0  0
   48.1969    7.8299   11.0388 H   0  0  0  0  0  0  0  0  0  0  0  0
   49.5873    8.4872   15.0548 H   0  0  0  0  0  0  0  0  0  0  0  0
   48.2915    6.5315   15.8274 H   0  0  0  0  0  0  0  0  0  0  0  0
   46.9667    5.1971   14.2155 H   0  0  0  0  0  0  0  0  0  0  0  0
   51.2880   10.0572   10.9943 H   0  0  0  0  0  0  0  0  0  0  0  0
   49.8749    9.2203   10.3612 H   0  0  0  0  0  0  0  0  0  0  0  0
   51.1497    8.3049   11.1772 H   0  0  0  0  0  0  0  0  0  0  0  0
   45.8630    3.4527   10.8876 H   0  0  0  0  0  0  0  0  0  0  0  0
   44.8341    7.1103   12.9007 H   0  0  0  0  0  0  0  0  0  0  0  0
   43.6143    2.5323   11.4036 H   0  0  0  0  0  0  0  0  0  0  0  0
   42.5987    6.1909   13.4249 H   0  0  0  0  0  0  0  0  0  0  0  0
   41.9835    3.8987   12.6816 H   0  0  0  0  0  0  0  0  0  0  0  0
   46.6565    6.5719   12.2444 H   0  0  0  0  0  0  0  0  0  0  0  0
   47.9478    7.3599   12.4547 H   0  0  0  0  0  0  0  0  0  0  0  0
  3  4  1  0
  4  2  1  0
  5  3  2  0
  6  2  1  0
  7  2  2  0
  8  5  1  0
  9  8  1  0
 10  9  1  0
 11  3  1  0
 12 11  2  0
 13  8  2  0
 14  4  1  0
 15 10  2  0
 16 10  1  0
 17 16  2  0
 18 15  1  0
 19 17  1  0
 12 13  1  0
 18 19  2  0
 21 22  1  0
 22 20  1  0
 23 21  2  0
 24 20  1  0
 25 20  2  0
 26 23  1  0
 27 26  1  0
 28 27  1  0
 29 21  1  0
 30 29  2  0
 31 26  2  0
 32 22  1  0
 33 28  2  0
 34 28  1  0
 35 33  1  0
 36 34  2  0
 37 36  1  0
 30 31  1  0
 35 37  2  0
  1 40  1  0
  1 41  1  0
  4 42  1  1
  5 43  1  0
 11 44  1  0
 12 45  1  0
 13 46  1  0
 14 47  1  0
 14 48  1  0
 14 49  1  0
 15 50  1  0
 16 51  1  0
 17 52  1  0
 18 53  1  0
 19 54  1  0
 22 55  1  6
 23 56  1  0
 29 57  1  0
 30 58  1  0
 31 59  1  0
 32 60  1  0
 32 61  1  0
 32 62  1  0
 33 63  1  0
 34 64  1  0
 35 65  1  0
 36 66  1  0
 37 67  1  0
 39 68  1  0
 39 69  1  0
M  CHG  3   6  -1  24  -1  38   2
M  END
> <Uni-Dock RESULT> 
ENERGY=   -6.371  LOWER_BOUND=    1.423  UPPER_BOUND=    2.933
INTER + INTRA:          -6.371
INTER:                  -6.371
INTRA:                   0.000
UNBOUND:                 0.000

$$$$

     RDKit          3D

 69 68  0  0  0  0  0  0  0  0999 V2000
   46.9152    6.4914   12.4776 O   0  0  0  0  0  0  0  0  0  0  0  0
   44.4675    4.2986    9.9285 C   0  0  0  0  0  0  0  0  0  0  0  0
   45.1662    5.3058   12.1301 C   0  0  0  0  0  0  0  0  0  0  0  0
   43.9913    4.7816   11.3166 C   0  0  1  0  0  0  0  0  0  0  0  0
   45.7946    6.5220   11.8201 C   0  0  0  0  0  0  0  0  0  0  0  0
   44.9373    3.1203    9.9063 O   0  0  0  0  0  0  0  0  0  0  0  0
   44.3052    5.1025    8.9639 O   0  0  0  0  0  0  0  0  0  0  0  0
   46.8666    6.9826   12.5886 C   0  0  0  0  0  0  0  0  0  0  0  0
   47.3997    8.2050   12.2452 O   0  0  0  0  0  0  0  0  0  0  0  0
   48.7689    8.3230   12.2539 C   0  0  0  0  0  0  0  0  0  0  0  0
   45.6483    4.5606   13.2188 C   0  0  0  0  0  0  0  0  0  0  0  0
   46.7075    5.0325   13.9988 C   0  0  0  0  0  0  0  0  0  0  0  0
   47.3097    6.2519   13.6950 C   0  0  0  0  0  0  0  0  0  0  0  0
   42.8526    5.7981   11.2362 C   0  0  0  0  0  0  0  0  0  0  0  0
   49.3104    9.4276   12.9139 C   0  0  0  0  0  0  0  0  0  0  0  0
   49.5998    7.4256   11.5791 C   0  0  0  0  0  0  0  0  0  0  0  0
   50.9825    7.6155   11.6020 C   0  0  0  0  0  0  0  0  0  0  0  0
   50.6936    9.6162   12.9335 C   0  0  0  0  0  0  0  0  0  0  0  0
   51.5272    8.7059   12.2834 C   0  0  0  0  0  0  0  0  0  0  0  0
   44.5079    3.3234   12.5879 C   0  0  0  0  0  0  0  0  0  0  0  0
   45.0005    5.6318   11.6730 C   0  0  0  0  0  0  0  0  0  0  0  0
   44.3406    4.2880   11.3847 C   0  0  1  0  0  0  0  0  0  0  0  0
   46.3465    5.8948   11.3823 C   0  0  0  0  0  0  0  0  0  0  0  0
   43.6921    3.5142   13.5438 O   0  0  0  0  0  0  0  0  0  0  0  0
   45.3903    2.4230   12.4730 O   0  0  0  0  0  0  0  0  0  0  0  0
   46.9012    7.1527   11.6444 C   0  0  0  0  0  0  0  0  0  0  0  0
   48.2216    7.3309   11.2907 O   0  0  0  0  0  0  0  0  0  0  0  0
   49.0262    8.0653   12.1350 C   0  0  0  0  0  0  0  0  0  0  0  0
   44.2365    6.6524   12.2623 C   0  0  0  0  0  0  0  0  0  0  0  0
   44.7819    7.9149   12.5054 C   0  0  0  0  0  0  0  0  0  0  0  0
   46.1095    8.1741   12.1773 C   0  0  0  0  0  0  0  0  0  0  0  0
   44.7894    3.6576   10.0616 C   0  0  0  0  0  0  0  0  0  0  0  0
   49.9201    8.9589   11.5401 C   0  0  0  0  0  0  0  0  0  0  0  0
   49.0218    7.9015   13.5210 C   0  0  0  0  0  0  0  0  0  0  0  0
   50.7743    9.7273   12.3328 C   0  0  0  0  0  0  0  0  0  0  0  0
   49.8734    8.6733   14.3126 C   0  0  0  0  0  0  0  0  0  0  0  0
   50.7458    9.5878   13.7192 C   0  0  0  0  0  0  0  0  0  0  0  0
   46.9718    6.5993   12.0990 Ca  0  0  0  0  0 15  0  0  0  0  0  0
   46.9138    6.4906   12.4771 O   0  0  0  0  0  0  0  0  0  0  0  0
   46.3640    6.2812   11.7088 H   0  0  0  0  0  0  0  0  0  0  0  0
   47.6360    7.0253   12.1105 H   0  0  0  0  0  0  0  0  0  0  0  0
   43.5744    3.8982   11.8238 H   0  0  0  0  0  0  0  0  0  0  0  0
   45.4557    7.1012   10.9629 H   0  0  0  0  0  0  0  0  0  0  0  0
   45.1993    3.5954   13.4521 H   0  0  0  0  0  0  0  0  0  0  0  0
   47.0619    4.4429   14.8390 H   0  0  0  0  0  0  0  0  0  0  0  0
   48.1218    6.6194   14.3156 H   0  0  0  0  0  0  0  0  0  0  0  0
   43.1429    6.7119   10.7056 H   0  0  0  0  0  0  0  0  0  0  0  0
   42.5156    6.0897   12.2384 H   0  0  0  0  0  0  0  0  0  0  0  0
   41.9954    5.3697   10.7044 H   0  0  0  0  0  0  0  0  0  0  0  0
   48.6520   10.1320   13.4114 H   0  0  0  0  0  0  0  0  0  0  0  0
   49.1689    6.5858   11.0349 H   0  0  0  0  0  0  0  0  0  0  0  0
   51.6348    6.9193   11.0833 H   0  0  0  0  0  0  0  0  0  0  0  0
   51.1284   10.4740   13.4523 H   0  0  0  0  0  0  0  0  0  0  0  0
   52.6007    8.8560   12.2977 H   0  0  0  0  0  0  0  0  0  0  0  0
   43.2554    4.4697   11.2721 H   0  0  0  0  0  0  0  0  0  0  0  0
   46.9756    5.1126   10.9666 H   0  0  0  0  0  0  0  0  0  0  0  0
   43.2043    6.4496   12.5425 H   0  0  0  0  0  0  0  0  0  0  0  0
   44.1661    8.6866   12.9563 H   0  0  0  0  0  0  0  0  0  0  0  0
   46.5211    9.1626   12.3551 H   0  0  0  0  0  0  0  0  0  0  0  0
   44.1935    2.7633    9.8449 H   0  0  0  0  0  0  0  0  0  0  0  0
   45.8385    3.3442   10.0792 H   0  0  0  0  0  0  0  0  0  0  0  0
   44.6603    4.3520    9.2274 H   0  0  0  0  0  0  0  0  0  0  0  0
   49.9456    9.0561   10.4583 H   0  0  0  0  0  0  0  0  0  0  0  0
   48.3532    7.1819   13.9854 H   0  0  0  0  0  0  0  0  0  0  0  0
   51.4614   10.4289   11.8681 H   0  0  0  0  0  0  0  0  0  0  0  0
   49.8540    8.5563   15.3911 H   0  0  0  0  0  0  0  0  0  0  0  0
   51.4093   10.1860   14.3375 H   0  0  0  0  0  0  0  0  0  0  0  0
   47.6362    7.0248   12.1138 H   0  0  0  0  0  0  0  0  0  0  0  0
   46.3652    6.2825   11.7060 H   0  0  0  0  0  0  0  0  0  0  0  0
  3  4  1  0
  4  2  1  0
  5  3  2  0
  6  2  1  0
  7  2  2  0
  8  5  1  0
  9  8  1  0
 10  9  1  0
 11  3  1  0
 12 11  2  0
 13  8  2  0
 14  4  1  0
 15 10  2  0
 16 10  1  0
 17 16  2  0
 18 15  1  0
 19 17  1  0
 12 13  1  0
 18 19  2  0
 21 22  1  0
 22 20  1  0
 23 21  2  0
 24 20  1  0
 25 20  2  0
 26 23  1  0
 27 26  1  0
 28 27  1  0
 29 21  1  0
 30 29  2  0
 31 26  2  0
 32 22  1  0
 33 28  2  0
 34 28  1  0
 35 33  1  0
 36 34  2  0
 37 36  1  0
 30 31  1  0
 35 37  2  0
  1 40  1  0
  1 41  1  0
  4 42  1  1
  5 43  1  0
 11 44  1  0
 12 45  1  0
 13 46  1  0
 14 47  1  0
 14 48  1  0
 14 49  1  0
 15 50  1  0
 16 51  1  0
 17 52  1  0
 18 53  1  0
 19 54  1  0
 22 55  1  6
 23 56  1  0
 29 57  1  0
 30 58  1  0
 31 59  1  0
 32 60  1  0
 32 61  1  0
 32 62  1  0
 33 63  1  0
 34 64  1  0
 35 65  1  0
 36 66  1  0
 37 67  1  0
 39 68  1  0
 39 69  1  0
M  CHG  3   6  -1  24  -1  38   2
M  END
> <Uni-Dock RESULT> 
ENERGY=   -5.878  LOWER_BOUND=    1.891  UPPER_BOUND=    6.416
INTER + INTRA:          -5.878
INTER:                  -5.878
INTRA:                   0.000
UNBOUND:                 0.000

$$$$

     RDKit          3D

 69 68  0  0  0  0  0  0  0  0999 V2000
   48.8987    9.0030   21.7055 O   0  0  0  0  0  0  0  0  0  0  0  0
   47.9561    4.9524   21.7457 C   0  0  0  0  0  0  0  0  0  0  0  0
   49.2543    7.0098   22.4025 C   0  0  0  0  0  0  0  0  0  0  0  0
   48.8585    5.6004   22.8195 C   0  0  1  0  0  0  0  0  0  0  0  0
   48.3317    8.0676   22.4072 C   0  0  0  0  0  0  0  0  0  0  0  0
   48.5780    4.4301   20.7711 O   0  0  0  0  0  0  0  0  0  0  0  0
   46.7096    4.9747   21.9664 O   0  0  0  0  0  0  0  0  0  0  0  0
   48.7246    9.3531   22.0265 C   0  0  0  0  0  0  0  0  0  0  0  0
   47.7706   10.3436   22.1000 O   0  0  0  0  0  0  0  0  0  0  0  0
   47.7121   11.2436   21.0631 C   0  0  0  0  0  0  0  0  0  0  0  0
   50.5727    7.2720   21.9948 C   0  0  0  0  0  0  0  0  0  0  0  0
   50.9691    8.5625   21.6338 C   0  0  0  0  0  0  0  0  0  0  0  0
   50.0499    9.6095   21.6631 C   0  0  0  0  0  0  0  0  0  0  0  0
   48.2393    5.5700   24.2166 C   0  0  0  0  0  0  0  0  0  0  0  0
   47.6641   12.5987   21.3958 C   0  0  0  0  0  0  0  0  0  0  0  0
   47.6332   10.8404   19.7281 C   0  0  0  0  0  0  0  0  0  0  0  0
   47.5475   11.8031   18.7210 C   0  0  0  0  0  0  0  0  0  0  0  0
   47.5763   13.5593   20.3865 C   0  0  0  0  0  0  0  0  0  0  0  0
   47.5251   13.1598   19.0509 C   0  0  0  0  0  0  0  0  0  0  0  0
   50.7179    5.4832   22.0858 C   0  0  0  0  0  0  0  0  0  0  0  0
   48.6937    6.9305   22.5509 C   0  0  0  0  0  0  0  0  0  0  0  0
   49.1838    5.5064   22.3138 C   0  0  1  0  0  0  0  0  0  0  0  0
   48.3049    7.7833   21.5083 C   0  0  0  0  0  0  0  0  0  0  0  0
   51.4170    5.5430   23.1456 O   0  0  0  0  0  0  0  0  0  0  0  0
   51.1104    5.3535   20.8893 O   0  0  0  0  0  0  0  0  0  0  0  0
   47.8398    9.0753   21.7783 C   0  0  0  0  0  0  0  0  0  0  0  0
   47.4444    9.8283   20.6933 O   0  0  0  0  0  0  0  0  0  0  0  0
   47.7522   11.1717   20.6890 C   0  0  0  0  0  0  0  0  0  0  0  0
   48.6337    7.4192   23.8663 C   0  0  0  0  0  0  0  0  0  0  0  0
   48.1500    8.7004   24.1399 C   0  0  0  0  0  0  0  0  0  0  0  0
   47.7321    9.5234   23.0980 C   0  0  0  0  0  0  0  0  0  0  0  0
   48.4161    4.7713   21.2093 C   0  0  0  0  0  0  0  0  0  0  0  0
   46.7658   12.0462   20.2267 C   0  0  0  0  0  0  0  0  0  0  0  0
   49.0042   11.6649   21.0593 C   0  0  0  0  0  0  0  0  0  0  0  0
   47.0117   13.4196   20.1829 C   0  0  0  0  0  0  0  0  0  0  0  0
   49.2473   13.0386   21.0189 C   0  0  0  0  0  0  0  0  0  0  0  0
   48.2509   13.9150   20.5848 C   0  0  0  0  0  0  0  0  0  0  0  0
   48.5222    8.9438   21.5916 Ca  0  0  0  0  0 15  0  0  0  0  0  0
   48.8987    9.0015   21.7061 O   0  0  0  0  0  0  0  0  0  0  0  0
   48.3687    8.1965   21.7936 H   0  0  0  0  0  0  0  0  0  0  0  0
   48.2992    9.6318   21.2757 H   0  0  0  0  0  0  0  0  0  0  0  0
   49.7652    4.9790   22.8756 H   0  0  0  0  0  0  0  0  0  0  0  0
   47.2978    7.8803   22.6919 H   0  0  0  0  0  0  0  0  0  0  0  0
   51.2942    6.4567   21.9471 H   0  0  0  0  0  0  0  0  0  0  0  0
   51.9943    8.7446   21.3259 H   0  0  0  0  0  0  0  0  0  0  0  0
   50.3697   10.6128   21.3964 H   0  0  0  0  0  0  0  0  0  0  0  0
   47.2966    6.1260   24.2697 H   0  0  0  0  0  0  0  0  0  0  0  0
   48.9219    6.0033   24.9577 H   0  0  0  0  0  0  0  0  0  0  0  0
   48.0272    4.5377   24.5177 H   0  0  0  0  0  0  0  0  0  0  0  0
   47.6991   12.8974   22.4382 H   0  0  0  0  0  0  0  0  0  0  0  0
   47.6342    9.7802   19.4770 H   0  0  0  0  0  0  0  0  0  0  0  0
   47.4903   11.4969   17.6808 H   0  0  0  0  0  0  0  0  0  0  0  0
   47.5443   14.6229   20.6354 H   0  0  0  0  0  0  0  0  0  0  0  0
   47.4542   13.9075   18.2692 H   0  0  0  0  0  0  0  0  0  0  0  0
   48.9918    4.9320   23.2394 H   0  0  0  0  0  0  0  0  0  0  0  0
   48.3811    7.4505   20.4769 H   0  0  0  0  0  0  0  0  0  0  0  0
   48.9804    6.7895   24.6838 H   0  0  0  0  0  0  0  0  0  0  0  0
   48.1091    9.0496   25.1667 H   0  0  0  0  0  0  0  0  0  0  0  0
   47.3429   10.5119   23.3206 H   0  0  0  0  0  0  0  0  0  0  0  0
   48.7217    3.7192   21.1693 H   0  0  0  0  0  0  0  0  0  0  0  0
   48.6002    5.1940   20.2161 H   0  0  0  0  0  0  0  0  0  0  0  0
   47.3386    4.7968   21.3907 H   0  0  0  0  0  0  0  0  0  0  0  0
   45.8052   11.6537   19.9047 H   0  0  0  0  0  0  0  0  0  0  0  0
   49.7863   10.9849   21.3857 H   0  0  0  0  0  0  0  0  0  0  0  0
   46.2393   14.0984   19.8326 H   0  0  0  0  0  0  0  0  0  0  0  0
   50.2160   13.4199   21.3250 H   0  0  0  0  0  0  0  0  0  0  0  0
   48.4433   14.9838   20.5523 H   0  0  0  0  0  0  0  0  0  0  0  0
   48.3023    9.6330   21.2764 H   0  0  0  0  0  0  0  0  0  0  0  0
   48.3657    8.1969   21.7924 H   0  0  0  0  0  0  0  0  0  0  0  0
  3  4  1  0
  4  2  1  0
  5  3  2  0
  6  2  1  0
  7  2  2  0
  8  5  1  0
  9  8  1  0
 10  9  1  0
 11  3  1  0
 12 11  2  0
 13  8  2  0
 14  4  1  0
 15 10  2  0
 16 10  1  0
 17 16  2  0
 18 15  1  0
 19 17  1  0
 12 13  1  0
 18 19  2  0
 21 22  1  0
 22 20  1  0
 23 21  2  0
 24 20  1  0
 25 20  2  0
 26 23  1  0
 27 26  1  0
 28 27  1  0
 29 21  1  0
 30 29  2  0
 31 26  2  0
 32 22  1  0
 33 28  2  0
 34 28  1  0
 35 33  1  0
 36 34  2  0
 37 36  1  0
 30 31  1  0
 35 37  2  0
  1 40  1  0
  1 41  1  0
  4 42  1  1
  5 43  1  0
 11 44  1  0
 12 45  1  0
 13 46  1  0
 14 47  1  0
 14 48  1  0
 14 49  1  0
 15 50  1  0
 16 51  1  0
 17 52  1  0
 18 53  1  0
 19 54  1  0
 22 55  1  6
 23 56  1  0
 29 57  1  0
 30 58  1  0
 31 59  1  0
 32 60  1  0
 32 61  1  0
 32 62  1  0
 33 63  1  0
 34 64  1  0
 35 65  1  0
 36 66  1  0
 37 67  1  0
 39 68  1  0
 39 69  1  0
M  CHG  3   6  -1  24  -1  38   2
M  END
> <Uni-Dock RESULT> 
ENERGY=   -5.672  LOWER_BOUND=    7.922  UPPER_BOUND=   10.193
INTER + INTRA:          -5.672
INTER:                  -5.672
INTRA:                   0.000
UNBOUND:                 0.000

$$$$

     RDKit          3D

 69 68  0  0  0  0  0  0  0  0999 V2000
   51.5759    3.7517   18.6968 O   0  0  0  0  0  0  0  0  0  0  0  0
   55.3012    2.3844   19.9417 C   0  0  0  0  0  0  0  0  0  0  0  0
   53.4430    2.7864   18.2879 C   0  0  0  0  0  0  0  0  0  0  0  0
   54.9369    2.5423   18.4486 C   0  0  1  0  0  0  0  0  0  0  0  0
   52.8501    4.0040   18.6566 C   0  0  0  0  0  0  0  0  0  0  0  0
   55.1164    1.2221   20.4155 O   0  0  0  0  0  0  0  0  0  0  0  0
   55.7770    3.4060   20.5187 O   0  0  0  0  0  0  0  0  0  0  0  0
   51.4772    4.2032   18.4911 C   0  0  0  0  0  0  0  0  0  0  0  0
   50.9809    5.4404   18.8369 O   0  0  0  0  0  0  0  0  0  0  0  0
   49.7899    5.4753   19.5218 C   0  0  0  0  0  0  0  0  0  0  0  0
   52.6234    1.7734   17.7634 C   0  0  0  0  0  0  0  0  0  0  0  0
   51.2538    1.9814   17.5797 C   0  0  0  0  0  0  0  0  0  0  0  0
   50.6796    3.2022   17.9290 C   0  0  0  0  0  0  0  0  0  0  0  0
   55.7702    3.6104   17.7409 C   0  0  0  0  0  0  0  0  0  0  0  0
   48.8108    6.3545   19.0554 C   0  0  0  0  0  0  0  0  0  0  0  0
   49.5714    4.7230   20.6782 C   0  0  0  0  0  0  0  0  0  0  0  0
   48.3494    4.8234   21.3453 C   0  0  0  0  0  0  0  0  0  0  0  0
   47.5902    6.4543   19.7258 C   0  0  0  0  0  0  0  0  0  0  0  0
   47.3595    5.6835   20.8654 C   0  0  0  0  0  0  0  0  0  0  0  0
   54.1213    0.7925   17.9172 C   0  0  0  0  0  0  0  0  0  0  0  0
   53.7536    3.2223   18.5248 C   0  0  0  0  0  0  0  0  0  0  0  0
   54.6913    2.0280   18.6620 C   0  0  1  0  0  0  0  0  0  0  0  0
   52.7052    3.4717   19.4216 C   0  0  0  0  0  0  0  0  0  0  0  0
   54.3104    0.7914   16.6603 O   0  0  0  0  0  0  0  0  0  0  0  0
   53.5825   -0.1014   18.6336 O   0  0  0  0  0  0  0  0  0  0  0  0
   51.8851    4.5950   19.2668 C   0  0  0  0  0  0  0  0  0  0  0  0
   50.9043    4.7790   20.2180 O   0  0  0  0  0  0  0  0  0  0  0  0
   49.6742    5.2401   19.8011 C   0  0  0  0  0  0  0  0  0  0  0  0
   53.9360    4.1109   17.4525 C   0  0  0  0  0  0  0  0  0  0  0  0
   53.1324    5.2438   17.3080 C   0  0  0  0  0  0  0  0  0  0  0  0
   52.1188    5.4996   18.2271 C   0  0  0  0  0  0  0  0  0  0  0  0
   55.0725    1.7131   20.1128 C   0  0  0  0  0  0  0  0  0  0  0  0
   49.0519    6.1994   20.6035 C   0  0  0  0  0  0  0  0  0  0  0  0
   49.0212    4.7454   18.6712 C   0  0  0  0  0  0  0  0  0  0  0  0
   47.7992    6.7032   20.2494 C   0  0  0  0  0  0  0  0  0  0  0  0
   47.7706    5.2529   18.3160 C   0  0  0  0  0  0  0  0  0  0  0  0
   47.1623    6.2333   19.1023 C   0  0  0  0  0  0  0  0  0  0  0  0
   51.6962    3.9449   19.0231 Ca  0  0  0  0  0 15  0  0  0  0  0  0
   51.5774    3.7511   18.6967 O   0  0  0  0  0  0  0  0  0  0  0  0
   52.4619    3.7656   19.0891 H   0  0  0  0  0  0  0  0  0  0  0  0
   51.0508    4.3172   19.2833 H   0  0  0  0  0  0  0  0  0  0  0  0
   55.1944    1.5872   17.9660 H   0  0  0  0  0  0  0  0  0  0  0  0
   53.4622    4.7920   19.0920 H   0  0  0  0  0  0  0  0  0  0  0  0
   53.0579    0.8073   17.5073 H   0  0  0  0  0  0  0  0  0  0  0  0
   50.6388    1.1866   17.1684 H   0  0  0  0  0  0  0  0  0  0  0  0
   49.6172    3.3617   17.7683 H   0  0  0  0  0  0  0  0  0  0  0  0
   55.6268    4.6078   18.1717 H   0  0  0  0  0  0  0  0  0  0  0  0
   55.5113    3.6687   16.6767 H   0  0  0  0  0  0  0  0  0  0  0  0
   56.8375    3.3729   17.8149 H   0  0  0  0  0  0  0  0  0  0  0  0
   49.0035    6.9531   18.1713 H   0  0  0  0  0  0  0  0  0  0  0  0
   50.3531    4.0660   21.0581 H   0  0  0  0  0  0  0  0  0  0  0  0
   48.1710    4.2382   22.2425 H   0  0  0  0  0  0  0  0  0  0  0  0
   46.8146    7.1348   19.3660 H   0  0  0  0  0  0  0  0  0  0  0  0
   46.4120    5.7648   21.3858 H   0  0  0  0  0  0  0  0  0  0  0  0
   55.6398    2.2925   18.1582 H   0  0  0  0  0  0  0  0  0  0  0  0
   52.5105    2.7795   20.2361 H   0  0  0  0  0  0  0  0  0  0  0  0
   54.7118    3.9047   16.7173 H   0  0  0  0  0  0  0  0  0  0  0  0
   53.3001    5.9166   16.4730 H   0  0  0  0  0  0  0  0  0  0  0  0
   51.5089    6.3907   18.1164 H   0  0  0  0  0  0  0  0  0  0  0  0
   55.8422    0.9331   20.1431 H   0  0  0  0  0  0  0  0  0  0  0  0
   54.2245    1.3462   20.7005 H   0  0  0  0  0  0  0  0  0  0  0  0
   55.4743    2.5953   20.6177 H   0  0  0  0  0  0  0  0  0  0  0  0
   49.5483    6.5546   21.5024 H   0  0  0  0  0  0  0  0  0  0  0  0
   49.4859    3.9735   18.0638 H   0  0  0  0  0  0  0  0  0  0  0  0
   47.3221    7.4566   20.8698 H   0  0  0  0  0  0  0  0  0  0  0  0
   47.2742    4.8790   17.4266 H   0  0  0  0  0  0  0  0  0  0  0  0
   46.1877    6.6253   18.8248 H   0  0  0  0  0  0  0  0  0  0  0  0
   51.0491    4.3159   19.2807 H   0  0  0  0  0  0  0  0  0  0  0  0
   52.4620    3.7675   19.0918 H   0  0  0  0  0  0  0  0  0  0  0  0
  3  4  1  0
  4  2  1  0
  5  3  2  0
  6  2  1  0
  7  2  2  0
  8  5  1  0
  9  8  1  0
 10  9  1  0
 11  3  1  0
 12 11  2  0
 13  8  2  0
 14  4  1  0
 15 10  2  0
 16 10  1  0
 17 16  2  0
 18 15  1  0
 19 17  1  0
 12 13  1  0
 18 19  2  0
 21 22  1  0
 22 20  1  0
 23 21  2  0
 24 20  1  0
 25 20  2  0
 26 23  1  0
 27 26  1  0
 28 27  1  0
 29 21  1  0
 30 29  2  0
 31 26  2  0
 32 22  1  0
 33 28  2  0
 34 28  1  0
 35 33  1  0
 36 34  2  0
 37 36  1  0
 30 31  1  0
 35 37  2  0
  1 40  1  0
  1 41  1  0
  4 42  1  1
  5 43  1  0
 11 44  1  0
 12 45  1  0
 13 46  1  0
 14 47  1  0
 14 48  1  0
 14 49  1  0
 15 50  1  0
 16 51  1  0
 17 52  1  0
 18 53  1  0
 19 54  1  0
 22 55  1  6
 23 56  1  0
 29 57  1  0
 30 58  1  0
 31 59  1  0
 32 60  1  0
 32 61  1  0
 32 62  1  0
 33 63  1  0
 34 64  1  0
 35 65  1  0
 36 66  1  0
 37 67  1  0
 39 68  1  0
 39 69  1  0
M  CHG  3   6  -1  24  -1  38   2
M  END
> <Uni-Dock RESULT> 
ENERGY=   -5.612  LOWER_BOUND=    7.110  UPPER_BOUND=    9.351
INTER + INTRA:          -5.612
INTER:                  -5.612
INTRA:                   0.000
UNBOUND:                 0.000

$$$$

     RDKit          3D

 69 68  0  0  0  0  0  0  0  0999 V2000
   48.7641    7.5347   19.6010 O   0  0  0  0  0  0  0  0  0  0  0  0
   47.9491    4.0784   17.4361 C   0  0  0  0  0  0  0  0  0  0  0  0
   49.1767    5.4879   19.1260 C   0  0  0  0  0  0  0  0  0  0  0  0
   48.8221    4.0671   18.7108 C   0  0  1  0  0  0  0  0  0  0  0  0
   48.2213    6.3564   19.6764 C   0  0  0  0  0  0  0  0  0  0  0  0
   48.5950    4.1761   16.3485 O   0  0  0  0  0  0  0  0  0  0  0  0
   46.7008    3.9508   17.6046 O   0  0  0  0  0  0  0  0  0  0  0  0
   48.5765    7.6533   20.0556 C   0  0  0  0  0  0  0  0  0  0  0  0
   47.5913    8.4273   20.6272 O   0  0  0  0  0  0  0  0  0  0  0  0
   47.5128    9.7422   20.2353 C   0  0  0  0  0  0  0  0  0  0  0  0
   50.4894    5.9575   18.9543 C   0  0  0  0  0  0  0  0  0  0  0  0
   50.8478    7.2481   19.3528 C   0  0  0  0  0  0  0  0  0  0  0  0
   49.8960    8.0943   19.9183 C   0  0  0  0  0  0  0  0  0  0  0  0
   48.1930    3.2763   19.8576 C   0  0  0  0  0  0  0  0  0  0  0  0
   47.4196   10.7042   21.2427 C   0  0  0  0  0  0  0  0  0  0  0  0
   47.4573   10.1185   18.8913 C   0  0  0  0  0  0  0  0  0  0  0  0
   47.3494   11.4696   18.5575 C   0  0  0  0  0  0  0  0  0  0  0  0
   47.3096   12.0547   20.9059 C   0  0  0  0  0  0  0  0  0  0  0  0
   47.2817   12.4351   19.5641 C   0  0  0  0  0  0  0  0  0  0  0  0
   50.6900    4.4042   18.0733 C   0  0  0  0  0  0  0  0  0  0  0  0
   48.6177    5.3288   19.1952 C   0  0  0  0  0  0  0  0  0  0  0  0
   49.1542    4.2670   18.2416 C   0  0  1  0  0  0  0  0  0  0  0  0
   48.2106    6.5996   18.7653 C   0  0  0  0  0  0  0  0  0  0  0  0
   51.3785    3.9001   19.0154 O   0  0  0  0  0  0  0  0  0  0  0  0
   51.0960    4.9471   17.0042 O   0  0  0  0  0  0  0  0  0  0  0  0
   47.7030    7.5330   19.6761 C   0  0  0  0  0  0  0  0  0  0  0  0
   47.2928    8.7423   19.1567 O   0  0  0  0  0  0  0  0  0  0  0  0
   47.5581    9.8837   19.8822 C   0  0  0  0  0  0  0  0  0  0  0  0
   48.5318    5.0320   20.5653 C   0  0  0  0  0  0  0  0  0  0  0  0
   48.0059    5.9538   21.4729 C   0  0  0  0  0  0  0  0  0  0  0  0
   47.5707    7.1985   21.0269 C   0  0  0  0  0  0  0  0  0  0  0  0
   48.4189    4.2244   16.8974 C   0  0  0  0  0  0  0  0  0  0  0  0
   46.5484   10.8474   19.9390 C   0  0  0  0  0  0  0  0  0  0  0  0
   48.7910   10.1280   20.4890 C   0  0  0  0  0  0  0  0  0  0  0  0
   46.7514   12.0339   20.6459 C   0  0  0  0  0  0  0  0  0  0  0  0
   48.9911   11.3129   21.1988 C   0  0  0  0  0  0  0  0  0  0  0  0
   47.9711   12.2628   21.2802 C   0  0  0  0  0  0  0  0  0  0  0  0
   48.3906    7.5377   19.4642 Ca  0  0  0  0  0 15  0  0  0  0  0  0
   48.7642    7.5331   19.6006 O   0  0  0  0  0  0  0  0  0  0  0  0
   48.2591    6.7959   19.2293 H   0  0  0  0  0  0  0  0  0  0  0  0
   48.1486    8.2825   19.5623 H   0  0  0  0  0  0  0  0  0  0  0  0
   49.7475    3.5333   18.4457 H   0  0  0  0  0  0  0  0  0  0  0  0
   47.1915    6.0224   19.7913 H   0  0  0  0  0  0  0  0  0  0  0  0
   51.2365    5.3121   18.4930 H   0  0  0  0  0  0  0  0  0  0  0  0
   51.8693    7.5899   19.2153 H   0  0  0  0  0  0  0  0  0  0  0  0
   50.1861    9.0903   20.2401 H   0  0  0  0  0  0  0  0  0  0  0  0
   47.2329    3.6954   20.1789 H   0  0  0  0  0  0  0  0  0  0  0  0
   48.8557    3.2582   20.7314 H   0  0  0  0  0  0  0  0  0  0  0  0
   48.0112    2.2397   19.5518 H   0  0  0  0  0  0  0  0  0  0  0  0
   47.4368   10.3962   22.2829 H   0  0  0  0  0  0  0  0  0  0  0  0
   47.4936    9.3601   18.1099 H   0  0  0  0  0  0  0  0  0  0  0  0
   47.3102   11.7697   17.5147 H   0  0  0  0  0  0  0  0  0  0  0  0
   47.2421   12.8165   21.6864 H   0  0  0  0  0  0  0  0  0  0  0  0
   47.1935   13.4840   19.3051 H   0  0  0  0  0  0  0  0  0  0  0  0
   48.9730    3.2809   18.7088 H   0  0  0  0  0  0  0  0  0  0  0  0
   48.3054    6.8755   17.7187 H   0  0  0  0  0  0  0  0  0  0  0  0
   48.8916    4.0693   20.9243 H   0  0  0  0  0  0  0  0  0  0  0  0
   47.9459    5.6950   22.5252 H   0  0  0  0  0  0  0  0  0  0  0  0
   47.1488    7.9033   21.7365 H   0  0  0  0  0  0  0  0  0  0  0  0
   48.7578    3.3661   16.3055 H   0  0  0  0  0  0  0  0  0  0  0  0
   48.5975    5.1189   16.2915 H   0  0  0  0  0  0  0  0  0  0  0  0
   47.3397    4.1244   17.0386 H   0  0  0  0  0  0  0  0  0  0  0  0
   45.6033   10.6684   19.4340 H   0  0  0  0  0  0  0  0  0  0  0  0
   49.5914    9.3968   20.4173 H   0  0  0  0  0  0  0  0  0  0  0  0
   45.9607   12.7772   20.6970 H   0  0  0  0  0  0  0  0  0  0  0  0
   49.9448   11.4911   21.6847 H   0  0  0  0  0  0  0  0  0  0  0  0
   48.1301   13.1853   21.8316 H   0  0  0  0  0  0  0  0  0  0  0  0
   48.1516    8.2832   19.5636 H   0  0  0  0  0  0  0  0  0  0  0  0
   48.2560    6.7968   19.2284 H   0  0  0  0  0  0  0  0  0  0  0  0
  3  4  1  0
  4  2  1  0
  5  3  2  0
  6  2  1  0
  7  2  2  0
  8  5  1  0
  9  8  1  0
 10  9  1  0
 11  3  1  0
 12 11  2  0
 13  8  2  0
 14  4  1  0
 15 10  2  0
 16 10  1  0
 17 16  2  0
 18 15  1  0
 19 17  1  0
 12 13  1  0
 18 19  2  0
 21 22  1  0
 22 20  1  0
 23 21  2  0
 24 20  1  0
 25 20  2  0
 26 23  1  0
 27 26  1  0
 28 27  1  0
 29 21  1  0
 30 29  2  0
 31 26  2  0
 32 22  1  0
 33 28  2  0
 34 28  1  0
 35 33  1  0
 36 34  2  0
 37 36  1  0
 30 31  1  0
 35 37  2  0
  1 40  1  0
  1 41  1  0
  4 42  1  1
  5 43  1  0
 11 44  1  0
 12 45  1  0
 13 46  1  0
 14 47  1  0
 14 48  1  0
 14 49  1  0
 15 50  1  0
 16 51  1  0
 17 52  1  0
 18 53  1  0
 19 54  1  0
 22 55  1  6
 23 56  1  0
 29 57  1  0
 30 58  1  0
 31 59  1  0
 32 60  1  0
 32 61  1  0
 32 62  1  0
 33 63  1  0
 34 64  1  0
 35 65  1  0
 36 66  1  0
 37 67  1  0
 39 68  1  0
 39 69  1  0
M  CHG  3   6  -1  24  -1  38   2
M  END
> <Uni-Dock RESULT> 
ENERGY=   -5.523  LOWER_BOUND=    5.855  UPPER_BOUND=    8.608
INTER + INTRA:          -5.523
INTER:                  -5.523
INTRA:                   0.000
UNBOUND:                 0.000

$$$$

     RDKit          3D

 69 68  0  0  0  0  0  0  0  0999 V2000
   48.8052    8.8955   18.7797 O   0  0  0  0  0  0  0  0  0  0  0  0
   46.7316   12.1737   20.2799 C   0  0  0  0  0  0  0  0  0  0  0  0
   48.6249   11.0055   19.0964 C   0  0  0  0  0  0  0  0  0  0  0  0
   47.8740   12.3206   19.2501 C   0  0  1  0  0  0  0  0  0  0  0  0
   48.0543    9.9015   18.4440 C   0  0  0  0  0  0  0  0  0  0  0  0
   47.0867   12.2985   21.4914 O   0  0  0  0  0  0  0  0  0  0  0  0
   45.5699   11.9863   19.8126 O   0  0  0  0  0  0  0  0  0  0  0  0
   48.7694    8.7087   18.3109 C   0  0  0  0  0  0  0  0  0  0  0  0
   48.1554    7.6878   17.6201 O   0  0  0  0  0  0  0  0  0  0  0  0
   48.2707    6.4181   18.1331 C   0  0  0  0  0  0  0  0  0  0  0  0
   49.9214   10.8773   19.6213 C   0  0  0  0  0  0  0  0  0  0  0  0
   50.6431    9.6903   19.4696 C   0  0  0  0  0  0  0  0  0  0  0  0
   50.0748    8.6078   18.8008 C   0  0  0  0  0  0  0  0  0  0  0  0
   47.3977   12.8677   17.9047 C   0  0  0  0  0  0  0  0  0  0  0  0
   48.6487    5.4046   17.2504 C   0  0  0  0  0  0  0  0  0  0  0  0
   47.9612    6.1188   19.4619 C   0  0  0  0  0  0  0  0  0  0  0  0
   48.0716    4.8035   19.9161 C   0  0  0  0  0  0  0  0  0  0  0  0
   48.7562    4.0897   17.7069 C   0  0  0  0  0  0  0  0  0  0  0  0
   48.4741    3.7930   19.0405 C   0  0  0  0  0  0  0  0  0  0  0  0
   49.5470   12.4820   20.3384 C   0  0  0  0  0  0  0  0  0  0  0  0
   48.0807   11.0207   18.8814 C   0  0  0  0  0  0  0  0  0  0  0  0
   48.1122   12.2345   19.8035 C   0  0  1  0  0  0  0  0  0  0  0  0
   47.8673    9.7166   19.3497 C   0  0  0  0  0  0  0  0  0  0  0  0
   50.3234   13.0812   19.5297 O   0  0  0  0  0  0  0  0  0  0  0  0
   49.7784   12.1166   21.5281 O   0  0  0  0  0  0  0  0  0  0  0  0
   47.8239    8.6367   18.4607 C   0  0  0  0  0  0  0  0  0  0  0  0
   47.5714    7.3967   19.0076 O   0  0  0  0  0  0  0  0  0  0  0  0
   48.2552    6.3126   18.5011 C   0  0  0  0  0  0  0  0  0  0  0  0
   48.2810   11.2073   17.5038 C   0  0  0  0  0  0  0  0  0  0  0  0
   48.2172   10.1343   16.6124 C   0  0  0  0  0  0  0  0  0  0  0  0
   47.9674    8.8497   17.0866 C   0  0  0  0  0  0  0  0  0  0  0  0
   47.0702   12.1771   20.9261 C   0  0  0  0  0  0  0  0  0  0  0  0
   47.5296    5.1322   18.3238 C   0  0  0  0  0  0  0  0  0  0  0  0
   49.6240    6.3378   18.2296 C   0  0  0  0  0  0  0  0  0  0  0  0
   48.1598    3.9904   17.8261 C   0  0  0  0  0  0  0  0  0  0  0  0
   50.2520    5.1968   17.7281 C   0  0  0  0  0  0  0  0  0  0  0  0
   49.5198    4.0258   17.5231 C   0  0  0  0  0  0  0  0  0  0  0  0
   48.4194    8.8104   18.8255 Ca  0  0  0  0  0 15  0  0  0  0  0  0
   48.8048    8.8970   18.7799 O   0  0  0  0  0  0  0  0  0  0  0  0
   48.0733    9.5111   18.9356 H   0  0  0  0  0  0  0  0  0  0  0  0
   48.3795    8.0248   18.7611 H   0  0  0  0  0  0  0  0  0  0  0  0
   48.5619   13.0765   19.6589 H   0  0  0  0  0  0  0  0  0  0  0  0
   47.0396    9.9699   18.0553 H   0  0  0  0  0  0  0  0  0  0  0  0
   50.3673   11.7098   20.1652 H   0  0  0  0  0  0  0  0  0  0  0  0
   51.6459    9.6136   19.8791 H   0  0  0  0  0  0  0  0  0  0  0  0
   50.6481    7.6941   18.6731 H   0  0  0  0  0  0  0  0  0  0  0  0
   46.6661   12.2113   17.4204 H   0  0  0  0  0  0  0  0  0  0  0  0
   48.2391   12.9940   17.2126 H   0  0  0  0  0  0  0  0  0  0  0  0
   46.9216   13.8459   18.0375 H   0  0  0  0  0  0  0  0  0  0  0  0
   48.8603    5.6464   16.2140 H   0  0  0  0  0  0  0  0  0  0  0  0
   47.6315    6.9080   20.1369 H   0  0  0  0  0  0  0  0  0  0  0  0
   47.8368    4.5644   20.9490 H   0  0  0  0  0  0  0  0  0  0  0  0
   49.0571    3.2898   17.0259 H   0  0  0  0  0  0  0  0  0  0  0  0
   48.5557    2.7708   19.3919 H   0  0  0  0  0  0  0  0  0  0  0  0
   47.8432   13.1187   19.1957 H   0  0  0  0  0  0  0  0  0  0  0  0
   47.7525    9.5335   20.4145 H   0  0  0  0  0  0  0  0  0  0  0  0
   48.4996   12.2056   17.1288 H   0  0  0  0  0  0  0  0  0  0  0  0
   48.3698   10.3090   15.5520 H   0  0  0  0  0  0  0  0  0  0  0  0
   47.9038    8.0237   16.3853 H   0  0  0  0  0  0  0  0  0  0  0  0
   47.0516   13.1249   21.4766 H   0  0  0  0  0  0  0  0  0  0  0  0
   47.2816   11.3892   21.6565 H   0  0  0  0  0  0  0  0  0  0  0  0
   46.0670   12.0054   20.5277 H   0  0  0  0  0  0  0  0  0  0  0  0
   46.4720    5.1071   18.5715 H   0  0  0  0  0  0  0  0  0  0  0  0
   50.1997    7.2435   18.3996 H   0  0  0  0  0  0  0  0  0  0  0  0
   47.5908    3.0766   17.6796 H   0  0  0  0  0  0  0  0  0  0  0  0
   51.3126    5.2257   17.5009 H   0  0  0  0  0  0  0  0  0  0  0  0
   50.0114    3.1382   17.1347 H   0  0  0  0  0  0  0  0  0  0  0  0
   48.3828    8.0248   18.7606 H   0  0  0  0  0  0  0  0  0  0  0  0
   48.0704    9.5095   18.9359 H   0  0  0  0  0  0  0  0  0  0  0  0
  3  4  1  0
  4  2  1  0
  5  3  2  0
  6  2  1  0
  7  2  2  0
  8  5  1  0
  9  8  1  0
 10  9  1  0
 11  3  1  0
 12 11  2  0
 13  8  2  0
 14  4  1  0
 15 10  2  0
 16 10  1  0
 17 16  2  0
 18 15  1  0
 19 17  1  0
 12 13  1  0
 18 19  2  0
 21 22  1  0
 22 20  1  0
 23 21  2  0
 24 20  1  0
 25 20  2  0
 26 23  1  0
 27 26  1  0
 28 27  1  0
 29 21  1  0
 30 29  2  0
 31 26  2  0
 32 22  1  0
 33 28  2  0
 34 28  1  0
 35 33  1  0
 36 34  2  0
 37 36  1  0
 30 31  1  0
 35 37  2  0
  1 40  1  0
  1 41  1  0
  4 42  1  1
  5 43  1  0
 11 44  1  0
 12 45  1  0
 13 46  1  0
 14 47  1  0
 14 48  1  0
 14 49  1  0
 15 50  1  0
 16 51  1  0
 17 52  1  0
 18 53  1  0
 19 54  1  0
 22 55  1  6
 23 56  1  0
 29 57  1  0
 30 58  1  0
 31 59  1  0
 32 60  1  0
 32 61  1  0
 32 62  1  0
 33 63  1  0
 34 64  1  0
 35 65  1  0
 36 66  1  0
 37 67  1  0
 39 68  1  0
 39 69  1  0
M  CHG  3   6  -1  24  -1  38   2
M  END
> <Uni-Dock RESULT> 
ENERGY=   -5.497  LOWER_BOUND=    5.297  UPPER_BOUND=    6.771
INTER + INTRA:          -5.497
INTER:                  -5.497
INTRA:                   0.000
UNBOUND:                 0.000

$$$$

     RDKit          3D

 69 68  0  0  0  0  0  0  0  0999 V2000
   49.8531    6.8735   15.7161 O   0  0  0  0  0  0  0  0  0  0  0  0
   47.7072    3.6147   17.1554 C   0  0  0  0  0  0  0  0  0  0  0  0
   49.3390    5.5292   17.3014 C   0  0  0  0  0  0  0  0  0  0  0  0
   48.4135    4.6176   18.0948 C   0  0  1  0  0  0  0  0  0  0  0  0
   48.8403    6.5315   16.4550 C   0  0  0  0  0  0  0  0  0  0  0  0
   48.3874    2.5828   16.8688 O   0  0  0  0  0  0  0  0  0  0  0  0
   46.5249    3.9034   16.8063 O   0  0  0  0  0  0  0  0  0  0  0  0
   49.7132    7.3589   15.7442 C   0  0  0  0  0  0  0  0  0  0  0  0
   49.1448    8.3453   14.9693 O   0  0  0  0  0  0  0  0  0  0  0  0
   49.6798    8.5562   13.7212 C   0  0  0  0  0  0  0  0  0  0  0  0
   50.7309    5.3708   17.4053 C   0  0  0  0  0  0  0  0  0  0  0  0
   51.6029    6.2123   16.7094 C   0  0  0  0  0  0  0  0  0  0  0  0
   51.0966    7.2184   15.8887 C   0  0  0  0  0  0  0  0  0  0  0  0
   47.4373    5.4100   18.9638 C   0  0  0  0  0  0  0  0  0  0  0  0
   49.9688    9.8748   13.3649 C   0  0  0  0  0  0  0  0  0  0  0  0
   49.8705    7.5187   12.8055 C   0  0  0  0  0  0  0  0  0  0  0  0
   50.3921    7.8014   11.5421 C   0  0  0  0  0  0  0  0  0  0  0  0
   50.4886   10.1548   12.0997 C   0  0  0  0  0  0  0  0  0  0  0  0
   50.7055    9.1167   11.1935 C   0  0  0  0  0  0  0  0  0  0  0  0
   50.2685    3.9017   18.3311 C   0  0  0  0  0  0  0  0  0  0  0  0
   48.7646    5.6102   17.2231 C   0  0  0  0  0  0  0  0  0  0  0  0
   48.8249    4.2302   17.8686 C   0  0  1  0  0  0  0  0  0  0  0  0
   48.9884    5.8190   15.8550 C   0  0  0  0  0  0  0  0  0  0  0  0
   50.6091    4.4290   19.4364 O   0  0  0  0  0  0  0  0  0  0  0  0
   50.9308    3.1093   17.5990 O   0  0  0  0  0  0  0  0  0  0  0  0
   48.8992    7.1026   15.3046 C   0  0  0  0  0  0  0  0  0  0  0  0
   49.0977    7.2060   13.9443 O   0  0  0  0  0  0  0  0  0  0  0  0
   49.8024    8.2923   13.4720 C   0  0  0  0  0  0  0  0  0  0  0  0
   48.4815    6.7259   18.0278 C   0  0  0  0  0  0  0  0  0  0  0  0
   48.3711    8.0046   17.4774 C   0  0  0  0  0  0  0  0  0  0  0  0
   48.5589    8.1925   16.1110 C   0  0  0  0  0  0  0  0  0  0  0  0
   48.2215    3.1215   16.9991 C   0  0  0  0  0  0  0  0  0  0  0  0
   49.3243    8.9008   12.3090 C   0  0  0  0  0  0  0  0  0  0  0  0
   50.9805    8.7490   14.0649 C   0  0  0  0  0  0  0  0  0  0  0  0
   49.9942    9.9988   11.7666 C   0  0  0  0  0  0  0  0  0  0  0  0
   51.6470    9.8493   13.5238 C   0  0  0  0  0  0  0  0  0  0  0  0
   51.1522   10.4756   12.3783 C   0  0  0  0  0  0  0  0  0  0  0  0
   49.5279    6.8095   15.4962 Ca  0  0  0  0  0 15  0  0  0  0  0  0
   49.8525    6.8725   15.7172 O   0  0  0  0  0  0  0  0  0  0  0  0
   49.0936    6.3092   15.9249 H   0  0  0  0  0  0  0  0  0  0  0  0
   49.6369    7.2459   14.8477 H   0  0  0  0  0  0  0  0  0  0  0  0
   49.0185    4.0152   18.7896 H   0  0  0  0  0  0  0  0  0  0  0  0
   47.7647    6.6525   16.3375 H   0  0  0  0  0  0  0  0  0  0  0  0
   51.1375    4.5734   18.0270 H   0  0  0  0  0  0  0  0  0  0  0  0
   52.6757    6.0758   16.8072 H   0  0  0  0  0  0  0  0  0  0  0  0
   51.7809    7.8786   15.3636 H   0  0  0  0  0  0  0  0  0  0  0  0
   46.7473    6.0200   18.3701 H   0  0  0  0  0  0  0  0  0  0  0  0
   47.9744    6.0833   19.6430 H   0  0  0  0  0  0  0  0  0  0  0  0
   46.8310    4.7306   19.5736 H   0  0  0  0  0  0  0  0  0  0  0  0
   49.7908   10.6747   14.0760 H   0  0  0  0  0  0  0  0  0  0  0  0
   49.6087    6.4964   13.0764 H   0  0  0  0  0  0  0  0  0  0  0  0
   50.5471    6.9992   10.8268 H   0  0  0  0  0  0  0  0  0  0  0  0
   50.7240   11.1826   11.8126 H   0  0  0  0  0  0  0  0  0  0  0  0
   51.1066    9.3370   10.2107 H   0  0  0  0  0  0  0  0  0  0  0  0
   48.1994    4.2639   18.7803 H   0  0  0  0  0  0  0  0  0  0  0  0
   49.2526    4.9828   15.2136 H   0  0  0  0  0  0  0  0  0  0  0  0
   48.3562    6.5897   19.1006 H   0  0  0  0  0  0  0  0  0  0  0  0
   48.1452    8.8478   18.1224 H   0  0  0  0  0  0  0  0  0  0  0  0
   48.4559    9.1871   15.6888 H   0  0  0  0  0  0  0  0  0  0  0  0
   48.1756    2.1807   17.5601 H   0  0  0  0  0  0  0  0  0  0  0  0
   48.8114    2.9257   16.0976 H   0  0  0  0  0  0  0  0  0  0  0  0
   47.2043    3.3713   16.6871 H   0  0  0  0  0  0  0  0  0  0  0  0
   48.4270    8.5185   11.8303 H   0  0  0  0  0  0  0  0  0  0  0  0
   51.3755    8.2564   14.9491 H   0  0  0  0  0  0  0  0  0  0  0  0
   49.6144   10.4764   10.8678 H   0  0  0  0  0  0  0  0  0  0  0  0
   52.5526   10.2128   13.9982 H   0  0  0  0  0  0  0  0  0  0  0  0
   51.6740   11.3308   11.9578 H   0  0  0  0  0  0  0  0  0  0  0  0
   49.6398    7.2469   14.8489 H   0  0  0  0  0  0  0  0  0  0  0  0
   49.0913    6.3092   15.9225 H   0  0  0  0  0  0  0  0  0  0  0  0
  3  4  1  0
  4  2  1  0
  5  3  2  0
  6  2  1  0
  7  2  2  0
  8  5  1  0
  9  8  1  0
 10  9  1  0
 11  3  1  0
 12 11  2  0
 13  8  2  0
 14  4  1  0
 15 10  2  0
 16 10  1  0
 17 16  2  0
 18 15  1  0
 19 17  1  0
 12 13  1  0
 18 19  2  0
 21 22  1  0
 22 20  1  0
 23 21  2  0
 24 20  1  0
 25 20  2  0
 26 23  1  0
 27 26  1  0
 28 27  1  0
 29 21  1  0
 30 29  2  0
 31 26  2  0
 32 22  1  0
 33 28  2  0
 34 28  1  0
 35 33  1  0
 36 34  2  0
 37 36  1  0
 30 31  1  0
 35 37  2  0
  1 40  1  0
  1 41  1  0
  4 42  1  1
  5 43  1  0
 11 44  1  0
 12 45  1  0
 13 46  1  0
 14 47  1  0
 14 48  1  0
 14 49  1  0
 15 50  1  0
 16 51  1  0
 17 52  1  0
 18 53  1  0
 19 54  1  0
 22 55  1  6
 23 56  1  0
 29 57  1  0
 30 58  1  0
 31 59  1  0
 32 60  1  0
 32 61  1  0
 32 62  1  0
 33 63  1  0
 34 64  1  0
 35 65  1  0
 36 66  1  0
 37 67  1  0
 39 68  1  0
 39 69  1  0
M  CHG  3   6  -1  24  -1  38   2
M  END
> <Uni-Dock RESULT> 
ENERGY=   -5.370  LOWER_BOUND=    3.847  UPPER_BOUND=    6.215
INTER + INTRA:          -5.370
INTER:                  -5.370
INTRA:                   0.000
UNBOUND:                 0.000

$$$$
