
     RDKit          3D

 69 68  0  0  0  0  0  0  0  0999 V2000
   48.2563    6.2895   19.6926 O   0  0  0  0  0  0  0  0  0  0  0  0
   49.2798   10.3252   20.8727 C   0  0  0  0  0  0  0  0  0  0  0  0
   47.8797    8.2832   20.3321 C   0  0  0  0  0  0  0  0  0  0  0  0
   47.9871    9.7960   20.2081 C   0  0  1  0  0  0  0  0  0  0  0  0
   47.6518    7.4996   19.1915 C   0  0  0  0  0  0  0  0  0  0  0  0
   49.1652   10.7658   22.0541 O   0  0  0  0  0  0  0  0  0  0  0  0
   50.3161   10.2763   20.1443 O   0  0  0  0  0  0  0  0  0  0  0  0
   47.5577    6.1116   19.2996 C   0  0  0  0  0  0  0  0  0  0  0  0
   47.3229    5.3897   18.1519 O   0  0  0  0  0  0  0  0  0  0  0  0
   48.2726    4.4529   17.8052 C   0  0  0  0  0  0  0  0  0  0  0  0
   47.9771    7.6442   21.5791 C   0  0  0  0  0  0  0  0  0  0  0  0
   47.8575    6.2566   21.6856 C   0  0  0  0  0  0  0  0  0  0  0  0
   47.6413    5.4866   20.5447 C   0  0  0  0  0  0  0  0  0  0  0  0
   46.7268   10.4688   20.7485 C   0  0  0  0  0  0  0  0  0  0  0  0
   47.8009    3.2684   17.2362 C   0  0  0  0  0  0  0  0  0  0  0  0
   49.6477    4.6661   17.9367 C   0  0  0  0  0  0  0  0  0  0  0  0
   50.5456    3.6764   17.5327 C   0  0  0  0  0  0  0  0  0  0  0  0
   48.7012    2.2813   16.8309 C   0  0  0  0  0  0  0  0  0  0  0  0
   50.0731    2.4841   16.9838 C   0  0  0  0  0  0  0  0  0  0  0  0
   48.7058    7.8597   22.8136 C   0  0  0  0  0  0  0  0  0  0  0  0
   48.2170    8.4228   20.4027 C   0  0  0  0  0  0  0  0  0  0  0  0
   48.1162    8.9060   21.8411 C   0  0  1  0  0  0  0  0  0  0  0  0
   47.5573    7.2600   19.9752 C   0  0  0  0  0  0  0  0  0  0  0  0
   47.8830    7.0559   23.3419 O   0  0  0  0  0  0  0  0  0  0  0  0
   49.9577    7.9427   22.9919 O   0  0  0  0  0  0  0  0  0  0  0  0
   47.6795    6.8275   18.6549 C   0  0  0  0  0  0  0  0  0  0  0  0
   47.0088    5.6886   18.2732 O   0  0  0  0  0  0  0  0  0  0  0  0
   47.7922    4.6224   17.8866 C   0  0  0  0  0  0  0  0  0  0  0  0
   48.9811    9.1441   19.4720 C   0  0  0  0  0  0  0  0  0  0  0  0
   49.0805    8.7204   18.1444 C   0  0  0  0  0  0  0  0  0  0  0  0
   48.4240    7.5630   17.7314 C   0  0  0  0  0  0  0  0  0  0  0  0
   46.6822    9.2965   22.1960 C   0  0  0  0  0  0  0  0  0  0  0  0
   47.3516    3.8838   16.7875 C   0  0  0  0  0  0  0  0  0  0  0  0
   48.9436    4.2307   18.5754 C   0  0  0  0  0  0  0  0  0  0  0  0
   48.0788    2.7736   16.3552 C   0  0  0  0  0  0  0  0  0  0  0  0
   49.6660    3.1167   18.1450 C   0  0  0  0  0  0  0  0  0  0  0  0
   49.2367    2.3916   17.0334 C   0  0  0  0  0  0  0  0  0  0  0  0
   48.2422    6.5311   19.3766 Ca  0  0  0  0  0 15  0  0  0  0  0  0
   48.2665    6.2621   19.6686 O   0  0  0  0  0  0  0  0  0  0  0  0
   48.4417    6.0726   18.7666 H   0  0  0  0  0  0  0  0  0  0  0  0
   48.0285    7.2311   19.6708 H   0  0  0  0  0  0  0  0  0  0  0  0
   48.0635   10.0602   19.1430 H   0  0  0  0  0  0  0  0  0  0  0  0
   47.5706    7.9697   18.2155 H   0  0  0  0  0  0  0  0  0  0  0  0
   48.1595    8.2383   22.4750 H   0  0  0  0  0  0  0  0  0  0  0  0
   47.9424    5.7854   22.6596 H   0  0  0  0  0  0  0  0  0  0  0  0
   47.5455    4.4092   20.6263 H   0  0  0  0  0  0  0  0  0  0  0  0
   46.5719   10.2646   21.8143 H   0  0  0  0  0  0  0  0  0  0  0  0
   46.7838   11.5541   20.6242 H   0  0  0  0  0  0  0  0  0  0  0  0
   45.8367   10.1165   20.2164 H   0  0  0  0  0  0  0  0  0  0  0  0
   46.7313    3.1168   17.1172 H   0  0  0  0  0  0  0  0  0  0  0  0
   50.0286    5.5994   18.3468 H   0  0  0  0  0  0  0  0  0  0  0  0
   51.6136    3.8427   17.6441 H   0  0  0  0  0  0  0  0  0  0  0  0
   48.3336    1.3569   16.3946 H   0  0  0  0  0  0  0  0  0  0  0  0
   50.7766    1.7182   16.6685 H   0  0  0  0  0  0  0  0  0  0  0  0
   48.7264    9.8135   21.9550 H   0  0  0  0  0  0  0  0  0  0  0  0
   46.9772    6.6738   20.6853 H   0  0  0  0  0  0  0  0  0  0  0  0
   49.5145   10.0370   19.7888 H   0  0  0  0  0  0  0  0  0  0  0  0
   49.6780    9.2898   17.4394 H   0  0  0  0  0  0  0  0  0  0  0  0
   48.5007    7.2307   16.7018 H   0  0  0  0  0  0  0  0  0  0  0  0
   45.9840    8.4563   22.1069 H   0  0  0  0  0  0  0  0  0  0  0  0
   46.6251    9.6621   23.2275 H   0  0  0  0  0  0  0  0  0  0  0  0
   46.3213   10.0944   21.5368 H   0  0  0  0  0  0  0  0  0  0  0  0
   46.4419    4.1777   16.2715 H   0  0  0  0  0  0  0  0  0  0  0  0
   49.2796    4.7784   19.4545 H   0  0  0  0  0  0  0  0  0  0  0  0
   47.7378    2.2037   15.4960 H   0  0  0  0  0  0  0  0  0  0  0  0
   50.5574    2.8165   18.6888 H   0  0  0  0  0  0  0  0  0  0  0  0
   49.8017    1.5247   16.7018 H   0  0  0  0  0  0  0  0  0  0  0  0
   48.0269    7.1985   19.7382 H   0  0  0  0  0  0  0  0  0  0  0  0
   48.4332    6.1326   18.7232 H   0  0  0  0  0  0  0  0  0  0  0  0
  3  4  1  0
  4  2  1  0
  5  3  2  0
  6  2  1  0
  7  2  2  0
  8  5  1  0
  9  8  1  0
 10  9  1  0
 11  3  1  0
 12 11  2  0
 13  8  2  0
 14  4  1  0
 15 10  2  0
 16 10  1  0
 17 16  2  0
 18 15  1  0
 19 17  1  0
 12 13  1  0
 18 19  2  0
 21 22  1  0
 22 20  1  0
 23 21  2  0
 24 20  1  0
 25 20  2  0
 26 23  1  0
 27 26  1  0
 28 27  1  0
 29 21  1  0
 30 29  2  0
 31 26  2  0
 32 22  1  0
 33 28  2  0
 34 28  1  0
 35 33  1  0
 36 34  2  0
 37 36  1  0
 30 31  1  0
 35 37  2  0
  1 40  1  0
  1 41  1  0
  4 42  1  6
  5 43  1  0
 11 44  1  0
 12 45  1  0
 13 46  1  0
 14 47  1  0
 14 48  1  0
 14 49  1  0
 15 50  1  0
 16 51  1  0
 17 52  1  0
 18 53  1  0
 19 54  1  0
 22 55  1  6
 23 56  1  0
 29 57  1  0
 30 58  1  0
 31 59  1  0
 32 60  1  0
 32 61  1  0
 32 62  1  0
 33 63  1  0
 34 64  1  0
 35 65  1  0
 36 66  1  0
 37 67  1  0
 39 68  1  0
 39 69  1  0
M  CHG  3   6  -1  24  -1  38   2
M  END
> <Uni-Dock RESULT> 
ENERGY=   -6.815  LOWER_BOUND=    0.000  UPPER_BOUND=    0.000
INTER + INTRA:          -6.815
INTER:                  -6.815
INTRA:                   0.000
UNBOUND:                 0.000

$$$$

     RDKit          3D

 69 68  0  0  0  0  0  0  0  0999 V2000
   46.9736    7.3363   12.3978 O   0  0  0  0  0  0  0  0  0  0  0  0
   48.8832   11.1494   11.6629 C   0  0  0  0  0  0  0  0  0  0  0  0
   47.8919    9.1833   12.9177 C   0  0  0  0  0  0  0  0  0  0  0  0
   48.0261   10.6983   12.8690 C   0  0  1  0  0  0  0  0  0  0  0  0
   46.6229    8.5936   13.0118 C   0  0  0  0  0  0  0  0  0  0  0  0
   50.1052   11.3838   11.8975 O   0  0  0  0  0  0  0  0  0  0  0  0
   48.2544   11.2541   10.5672 O   0  0  0  0  0  0  0  0  0  0  0  0
   46.4946    7.2046   13.0517 C   0  0  0  0  0  0  0  0  0  0  0  0
   45.2282    6.6766   13.1549 O   0  0  0  0  0  0  0  0  0  0  0  0
   44.8218    5.8401   12.1375 C   0  0  0  0  0  0  0  0  0  0  0  0
   49.0219    8.3494   12.8977 C   0  0  0  0  0  0  0  0  0  0  0  0
   48.8897    6.9603   12.9627 C   0  0  0  0  0  0  0  0  0  0  0  0
   47.6238    6.3844   13.0459 C   0  0  0  0  0  0  0  0  0  0  0  0
   48.5513   11.2329   14.2000 C   0  0  0  0  0  0  0  0  0  0  0  0
   44.0270    4.7527   12.5048 C   0  0  0  0  0  0  0  0  0  0  0  0
   45.1114    6.0707   10.7897 C   0  0  0  0  0  0  0  0  0  0  0  0
   44.6355    5.1901    9.8167 C   0  0  0  0  0  0  0  0  0  0  0  0
   43.5505    3.8748   11.5294 C   0  0  0  0  0  0  0  0  0  0  0  0
   43.8591    4.0916   10.1860 C   0  0  0  0  0  0  0  0  0  0  0  0
   50.3363    8.3791   12.2873 C   0  0  0  0  0  0  0  0  0  0  0  0
   48.0147    9.3197   12.5943 C   0  0  0  0  0  0  0  0  0  0  0  0
   49.4973    9.5538   12.8389 C   0  0  1  0  0  0  0  0  0  0  0  0
   47.3452    8.2243   13.1617 C   0  0  0  0  0  0  0  0  0  0  0  0
   50.6493    7.4738   13.1146 O   0  0  0  0  0  0  0  0  0  0  0  0
   50.6394    8.4699   11.0601 O   0  0  0  0  0  0  0  0  0  0  0  0
   45.9889    8.0212   12.9081 C   0  0  0  0  0  0  0  0  0  0  0  0
   45.3673    6.9413   13.4914 O   0  0  0  0  0  0  0  0  0  0  0  0
   44.8856    5.9788   12.6304 C   0  0  0  0  0  0  0  0  0  0  0  0
   47.2877   10.2087   11.7874 C   0  0  0  0  0  0  0  0  0  0  0  0
   45.9235   10.0148   11.5562 C   0  0  0  0  0  0  0  0  0  0  0  0
   45.2694    8.9224   12.1219 C   0  0  0  0  0  0  0  0  0  0  0  0
   49.7785    9.8355   14.3142 C   0  0  0  0  0  0  0  0  0  0  0  0
   43.6453    5.4200   12.9418 C   0  0  0  0  0  0  0  0  0  0  0  0
   45.6037    5.5138   11.5251 C   0  0  0  0  0  0  0  0  0  0  0  0
   43.1063    4.4199   12.1308 C   0  0  0  0  0  0  0  0  0  0  0  0
   45.0656    4.5097   10.7188 C   0  0  0  0  0  0  0  0  0  0  0  0
   43.8162    3.9664   11.0186 C   0  0  0  0  0  0  0  0  0  0  0  0
   46.7011    7.6264   12.3960 Ca  0  0  0  0  0 15  0  0  0  0  0  0
   46.9464    7.3135   12.3844 O   0  0  0  0  0  0  0  0  0  0  0  0
   46.0455    7.2821   12.1246 H   0  0  0  0  0  0  0  0  0  0  0  0
   47.0845    8.2609   12.6655 H   0  0  0  0  0  0  0  0  0  0  0  0
   47.0297   11.1381   12.7143 H   0  0  0  0  0  0  0  0  0  0  0  0
   45.7332    9.2165   13.0311 H   0  0  0  0  0  0  0  0  0  0  0  0
   50.0153    8.7917   12.8194 H   0  0  0  0  0  0  0  0  0  0  0  0
   49.7777    6.3367   12.9397 H   0  0  0  0  0  0  0  0  0  0  0  0
   47.5199    5.3059   13.0992 H   0  0  0  0  0  0  0  0  0  0  0  0
   49.5510   10.8497   14.4355 H   0  0  0  0  0  0  0  0  0  0  0  0
   48.6111   12.3250   14.1820 H   0  0  0  0  0  0  0  0  0  0  0  0
   47.8899   10.9466   15.0247 H   0  0  0  0  0  0  0  0  0  0  0  0
   43.7876    4.5900   13.5524 H   0  0  0  0  0  0  0  0  0  0  0  0
   45.7010    6.9343   10.4879 H   0  0  0  0  0  0  0  0  0  0  0  0
   44.8696    5.3684    8.7706 H   0  0  0  0  0  0  0  0  0  0  0  0
   42.9377    3.0249   11.8162 H   0  0  0  0  0  0  0  0  0  0  0  0
   43.4889    3.4108    9.4242 H   0  0  0  0  0  0  0  0  0  0  0  0
   49.8126   10.4481   12.2825 H   0  0  0  0  0  0  0  0  0  0  0  0
   47.8945    7.5106   13.7729 H   0  0  0  0  0  0  0  0  0  0  0  0
   47.7929   11.0527   11.3239 H   0  0  0  0  0  0  0  0  0  0  0  0
   45.3782   10.7115   10.9275 H   0  0  0  0  0  0  0  0  0  0  0  0
   44.2108    8.7684   11.9429 H   0  0  0  0  0  0  0  0  0  0  0  0
   49.4904    9.0007   14.9633 H   0  0  0  0  0  0  0  0  0  0  0  0
   50.8461   10.0228   14.4754 H   0  0  0  0  0  0  0  0  0  0  0  0
   49.2277   10.7204   14.6536 H   0  0  0  0  0  0  0  0  0  0  0  0
   43.1031    5.7672   13.8168 H   0  0  0  0  0  0  0  0  0  0  0  0
   46.5872    5.9180   11.2904 H   0  0  0  0  0  0  0  0  0  0  0  0
   42.1383    3.9904   12.3712 H   0  0  0  0  0  0  0  0  0  0  0  0
   45.6324    4.1509    9.8642 H   0  0  0  0  0  0  0  0  0  0  0  0
   43.4010    3.1844   10.3886 H   0  0  0  0  0  0  0  0  0  0  0  0
   47.1453    8.2175   12.6714 H   0  0  0  0  0  0  0  0  0  0  0  0
   46.0118    7.3481   12.1321 H   0  0  0  0  0  0  0  0  0  0  0  0
  3  4  1  0
  4  2  1  0
  5  3  2  0
  6  2  1  0
  7  2  2  0
  8  5  1  0
  9  8  1  0
 10  9  1  0
 11  3  1  0
 12 11  2  0
 13  8  2  0
 14  4  1  0
 15 10  2  0
 16 10  1  0
 17 16  2  0
 18 15  1  0
 19 17  1  0
 12 13  1  0
 18 19  2  0
 21 22  1  0
 22 20  1  0
 23 21  2  0
 24 20  1  0
 25 20  2  0
 26 23  1  0
 27 26  1  0
 28 27  1  0
 29 21  1  0
 30 29  2  0
 31 26  2  0
 32 22  1  0
 33 28  2  0
 34 28  1  0
 35 33  1  0
 36 34  2  0
 37 36  1  0
 30 31  1  0
 35 37  2  0
  1 40  1  0
  1 41  1  0
  4 42  1  6
  5 43  1  0
 11 44  1  0
 12 45  1  0
 13 46  1  0
 14 47  1  0
 14 48  1  0
 14 49  1  0
 15 50  1  0
 16 51  1  0
 17 52  1  0
 18 53  1  0
 19 54  1  0
 22 55  1  6
 23 56  1  0
 29 57  1  0
 30 58  1  0
 31 59  1  0
 32 60  1  0
 32 61  1  0
 32 62  1  0
 33 63  1  0
 34 64  1  0
 35 65  1  0
 36 66  1  0
 37 67  1  0
 39 68  1  0
 39 69  1  0
M  CHG  3   6  -1  24  -1  38   2
M  END
> <Uni-Dock RESULT> 
ENERGY=   -6.789  LOWER_BOUND=    6.690  UPPER_BOUND=    8.031
INTER + INTRA:          -6.789
INTER:                  -6.789
INTRA:                   0.000
UNBOUND:                 0.000

$$$$

     RDKit          3D

 69 68  0  0  0  0  0  0  0  0999 V2000
   46.9337    6.9034   13.7786 O   0  0  0  0  0  0  0  0  0  0  0  0
   49.0498    6.7800   17.5513 C   0  0  0  0  0  0  0  0  0  0  0  0
   48.6340    6.9390   15.0564 C   0  0  0  0  0  0  0  0  0  0  0  0
   49.5337    6.3660   16.1416 C   0  0  1  0  0  0  0  0  0  0  0  0
   48.0906    6.0951   14.0769 C   0  0  0  0  0  0  0  0  0  0  0  0
   49.6241    7.7813   18.0716 O   0  0  0  0  0  0  0  0  0  0  0  0
   48.1364    6.0500   18.0407 O   0  0  0  0  0  0  0  0  0  0  0  0
   47.2609    6.6152   13.0827 C   0  0  0  0  0  0  0  0  0  0  0  0
   46.7621    5.7466   12.1393 O   0  0  0  0  0  0  0  0  0  0  0  0
   45.3899    5.6485   12.0528 C   0  0  0  0  0  0  0  0  0  0  0  0
   48.3512    8.3133   14.9930 C   0  0  0  0  0  0  0  0  0  0  0  0
   47.5401    8.8329   13.9814 C   0  0  0  0  0  0  0  0  0  0  0  0
   46.9971    7.9842   13.0191 C   0  0  0  0  0  0  0  0  0  0  0  0
   50.9914    6.7421   15.8831 C   0  0  0  0  0  0  0  0  0  0  0  0
   44.8566    5.4807   10.7735 C   0  0  0  0  0  0  0  0  0  0  0  0
   44.5470    5.6443   13.1677 C   0  0  0  0  0  0  0  0  0  0  0  0
   43.1682    5.5098   12.9952 C   0  0  0  0  0  0  0  0  0  0  0  0
   43.4776    5.3441   10.6041 C   0  0  0  0  0  0  0  0  0  0  0  0
   42.6336    5.3635   11.7151 C   0  0  0  0  0  0  0  0  0  0  0  0
   48.1689    9.3914   15.9447 C   0  0  0  0  0  0  0  0  0  0  0  0
   48.4914    6.9485   15.3996 C   0  0  0  0  0  0  0  0  0  0  0  0
   49.1271    8.1814   16.0228 C   0  0  1  0  0  0  0  0  0  0  0  0
   48.1338    6.9182   14.0427 C   0  0  0  0  0  0  0  0  0  0  0  0
   48.3291   10.1736   14.9627 O   0  0  0  0  0  0  0  0  0  0  0  0
   47.3379    9.4763   16.8977 O   0  0  0  0  0  0  0  0  0  0  0  0
   47.5358    5.7818   13.4985 C   0  0  0  0  0  0  0  0  0  0  0  0
   47.2097    5.7886   12.1620 O   0  0  0  0  0  0  0  0  0  0  0  0
   45.8671    5.6990   11.8632 C   0  0  0  0  0  0  0  0  0  0  0  0
   48.2517    5.8098   16.1846 C   0  0  0  0  0  0  0  0  0  0  0  0
   47.6749    4.6649   15.6292 C   0  0  0  0  0  0  0  0  0  0  0  0
   47.3210    4.6467   14.2818 C   0  0  0  0  0  0  0  0  0  0  0  0
   50.4941    8.4730   15.4053 C   0  0  0  0  0  0  0  0  0  0  0  0
   45.5160    4.8916   10.7805 C   0  0  0  0  0  0  0  0  0  0  0  0
   44.8824    6.4167   12.5479 C   0  0  0  0  0  0  0  0  0  0  0  0
   44.1777    4.7742   10.4017 C   0  0  0  0  0  0  0  0  0  0  0  0
   43.5454    6.3024   12.1638 C   0  0  0  0  0  0  0  0  0  0  0  0
   43.1928    5.4786   11.0948 C   0  0  0  0  0  0  0  0  0  0  0  0
   47.0502    6.5310   13.8567 Ca  0  0  0  0  0 15  0  0  0  0  0  0
   46.9041    6.8882   13.7606 O   0  0  0  0  0  0  0  0  0  0  0  0
   46.4984    6.0759   13.5242 H   0  0  0  0  0  0  0  0  0  0  0  0
   47.7186    6.6137   14.2674 H   0  0  0  0  0  0  0  0  0  0  0  0
   49.4725    5.2681   16.1103 H   0  0  0  0  0  0  0  0  0  0  0  0
   48.2957    5.0286   14.1024 H   0  0  0  0  0  0  0  0  0  0  0  0
   48.7614    8.9822   15.7499 H   0  0  0  0  0  0  0  0  0  0  0  0
   47.3312    9.8977   13.9570 H   0  0  0  0  0  0  0  0  0  0  0  0
   46.3693    8.3868   12.2314 H   0  0  0  0  0  0  0  0  0  0  0  0
   51.1497    7.8266   15.9027 H   0  0  0  0  0  0  0  0  0  0  0  0
   51.6456    6.2984   16.6393 H   0  0  0  0  0  0  0  0  0  0  0  0
   51.3201    6.3824   14.9023 H   0  0  0  0  0  0  0  0  0  0  0  0
   45.5189    5.4639    9.9119 H   0  0  0  0  0  0  0  0  0  0  0  0
   44.9540    5.7396   14.1725 H   0  0  0  0  0  0  0  0  0  0  0  0
   42.5154    5.5151   13.8639 H   0  0  0  0  0  0  0  0  0  0  0  0
   43.0622    5.2204    9.6080 H   0  0  0  0  0  0  0  0  0  0  0  0
   41.5599    5.2564   11.5867 H   0  0  0  0  0  0  0  0  0  0  0  0
   49.2993    7.9909   17.0919 H   0  0  0  0  0  0  0  0  0  0  0  0
   48.2909    7.7976   13.4210 H   0  0  0  0  0  0  0  0  0  0  0  0
   48.5047    5.8208   17.2420 H   0  0  0  0  0  0  0  0  0  0  0  0
   47.4949    3.7946   16.2523 H   0  0  0  0  0  0  0  0  0  0  0  0
   46.8716    3.7598   13.8482 H   0  0  0  0  0  0  0  0  0  0  0  0
   50.4348    8.6714   14.3290 H   0  0  0  0  0  0  0  0  0  0  0  0
   50.9515    9.3508   15.8757 H   0  0  0  0  0  0  0  0  0  0  0  0
   51.1738    7.6246   15.5457 H   0  0  0  0  0  0  0  0  0  0  0  0
   46.2886    4.3562   10.2358 H   0  0  0  0  0  0  0  0  0  0  0  0
   45.1468    7.0760   13.3732 H   0  0  0  0  0  0  0  0  0  0  0  0
   43.9057    4.1406    9.5627 H   0  0  0  0  0  0  0  0  0  0  0  0
   42.7868    6.8672   12.6985 H   0  0  0  0  0  0  0  0  0  0  0  0
   42.1509    5.3928   10.7986 H   0  0  0  0  0  0  0  0  0  0  0  0
   47.7096    6.6878   14.2606 H   0  0  0  0  0  0  0  0  0  0  0  0
   46.5370    6.0170   13.5490 H   0  0  0  0  0  0  0  0  0  0  0  0
  3  4  1  0
  4  2  1  0
  5  3  2  0
  6  2  1  0
  7  2  2  0
  8  5  1  0
  9  8  1  0
 10  9  1  0
 11  3  1  0
 12 11  2  0
 13  8  2  0
 14  4  1  0
 15 10  2  0
 16 10  1  0
 17 16  2  0
 18 15  1  0
 19 17  1  0
 12 13  1  0
 18 19  2  0
 21 22  1  0
 22 20  1  0
 23 21  2  0
 24 20  1  0
 25 20  2  0
 26 23  1  0
 27 26  1  0
 28 27  1  0
 29 21  1  0
 30 29  2  0
 31 26  2  0
 32 22  1  0
 33 28  2  0
 34 28  1  0
 35 33  1  0
 36 34  2  0
 37 36  1  0
 30 31  1  0
 35 37  2  0
  1 40  1  0
  1 41  1  0
  4 42  1  6
  5 43  1  0
 11 44  1  0
 12 45  1  0
 13 46  1  0
 14 47  1  0
 14 48  1  0
 14 49  1  0
 15 50  1  0
 16 51  1  0
 17 52  1  0
 18 53  1  0
 19 54  1  0
 22 55  1  6
 23 56  1  0
 29 57  1  0
 30 58  1  0
 31 59  1  0
 32 60  1  0
 32 61  1  0
 32 62  1  0
 33 63  1  0
 34 64  1  0
 35 65  1  0
 36 66  1  0
 37 67  1  0
 39 68  1  0
 39 69  1  0
M  CHG  3   6  -1  24  -1  38   2
M  END
> <Uni-Dock RESULT> 
ENERGY=   -6.486  LOWER_BOUND=    4.701  UPPER_BOUND=    6.789
INTER + INTRA:          -6.486
INTER:                  -6.486
INTRA:                   0.000
UNBOUND:                 0.000

$$$$

     RDKit          3D

 69 68  0  0  0  0  0  0  0  0999 V2000
   48.3822    8.6036   18.6092 O   0  0  0  0  0  0  0  0  0  0  0  0
   49.8222    4.5344   18.9159 C   0  0  0  0  0  0  0  0  0  0  0  0
   48.3226    6.4944   18.3395 C   0  0  0  0  0  0  0  0  0  0  0  0
   48.3684    5.0566   18.8357 C   0  0  1  0  0  0  0  0  0  0  0  0
   47.6224    7.4666   19.0684 C   0  0  0  0  0  0  0  0  0  0  0  0
   50.2307    3.8539   17.9294 O   0  0  0  0  0  0  0  0  0  0  0  0
   50.4413    4.8328   19.9810 O   0  0  0  0  0  0  0  0  0  0  0  0
   47.5820    8.7875   18.6200 C   0  0  0  0  0  0  0  0  0  0  0  0
   46.8726    9.7005   19.3660 O   0  0  0  0  0  0  0  0  0  0  0  0
   47.5773   10.7778   19.8588 C   0  0  0  0  0  0  0  0  0  0  0  0
   48.9489    6.8732   17.1408 C   0  0  0  0  0  0  0  0  0  0  0  0
   48.8848    8.1914   16.6832 C   0  0  0  0  0  0  0  0  0  0  0  0
   48.1950    9.1517   17.4202 C   0  0  0  0  0  0  0  0  0  0  0  0
   47.4670    4.1663   17.9824 C   0  0  0  0  0  0  0  0  0  0  0  0
   46.9038   12.0002   19.8922 C   0  0  0  0  0  0  0  0  0  0  0  0
   48.8742   10.6799   20.3704 C   0  0  0  0  0  0  0  0  0  0  0  0
   49.5073   11.8150   20.8797 C   0  0  0  0  0  0  0  0  0  0  0  0
   47.5385   13.1335   20.4041 C   0  0  0  0  0  0  0  0  0  0  0  0
   48.8419   13.0411   20.8933 C   0  0  0  0  0  0  0  0  0  0  0  0
   50.1402    6.4849   16.4119 C   0  0  0  0  0  0  0  0  0  0  0  0
   48.6575    6.3775   18.4511 C   0  0  0  0  0  0  0  0  0  0  0  0
   49.1897    5.6046   17.2544 C   0  0  1  0  0  0  0  0  0  0  0  0
   47.8758    7.5315   18.2860 C   0  0  0  0  0  0  0  0  0  0  0  0
   49.6257    7.0788   15.4197 O   0  0  0  0  0  0  0  0  0  0  0  0
   51.3462    6.4921   16.8012 O   0  0  0  0  0  0  0  0  0  0  0  0
   47.4141    8.2331   19.3994 C   0  0  0  0  0  0  0  0  0  0  0  0
   46.6424    9.3535   19.1948 O   0  0  0  0  0  0  0  0  0  0  0  0
   47.1796   10.5484   19.6232 C   0  0  0  0  0  0  0  0  0  0  0  0
   48.9450    5.9398   19.7534 C   0  0  0  0  0  0  0  0  0  0  0  0
   48.4596    6.6320   20.8657 C   0  0  0  0  0  0  0  0  0  0  0  0
   47.6870    7.7781   20.6904 C   0  0  0  0  0  0  0  0  0  0  0  0
   48.0510    5.0098   16.4271 C   0  0  0  0  0  0  0  0  0  0  0  0
   46.3057   11.4473   20.2363 C   0  0  0  0  0  0  0  0  0  0  0  0
   48.5150   10.9043   19.4144 C   0  0  0  0  0  0  0  0  0  0  0  0
   46.7724   12.6888   20.6712 C   0  0  0  0  0  0  0  0  0  0  0  0
   48.9782   12.1486   19.8449 C   0  0  0  0  0  0  0  0  0  0  0  0
   48.1091   13.0381   20.4767 C   0  0  0  0  0  0  0  0  0  0  0  0
   48.2331    8.4311   18.9354 Ca  0  0  0  0  0 15  0  0  0  0  0  0
   48.3809    8.6362   18.6283 O   0  0  0  0  0  0  0  0  0  0  0  0
   48.1483    9.0214   19.4516 H   0  0  0  0  0  0  0  0  0  0  0  0
   48.1689    7.6683   18.7453 H   0  0  0  0  0  0  0  0  0  0  0  0
   47.9769    5.0231   19.8632 H   0  0  0  0  0  0  0  0  0  0  0  0
   47.1277    7.1989   19.9977 H   0  0  0  0  0  0  0  0  0  0  0  0
   49.5018    6.1306   16.5649 H   0  0  0  0  0  0  0  0  0  0  0  0
   49.3819    8.4610   15.7568 H   0  0  0  0  0  0  0  0  0  0  0  0
   48.1421   10.1751   17.0646 H   0  0  0  0  0  0  0  0  0  0  0  0
   47.7881    4.1334   16.9349 H   0  0  0  0  0  0  0  0  0  0  0  0
   47.4665    3.1399   18.3609 H   0  0  0  0  0  0  0  0  0  0  0  0
   46.4337    4.5292   17.9953 H   0  0  0  0  0  0  0  0  0  0  0  0
   45.8878   12.0660   19.5120 H   0  0  0  0  0  0  0  0  0  0  0  0
   49.3967    9.7252   20.3816 H   0  0  0  0  0  0  0  0  0  0  0  0
   50.5187   11.7365   21.2692 H   0  0  0  0  0  0  0  0  0  0  0  0
   47.0168   14.0861   20.4236 H   0  0  0  0  0  0  0  0  0  0  0  0
   49.3385   13.9210   21.2934 H   0  0  0  0  0  0  0  0  0  0  0  0
   49.7906    4.7581   17.6165 H   0  0  0  0  0  0  0  0  0  0  0  0
   47.6590    7.9007   17.2854 H   0  0  0  0  0  0  0  0  0  0  0  0
   49.5644    5.0585   19.9017 H   0  0  0  0  0  0  0  0  0  0  0  0
   48.6942    6.2798   21.8652 H   0  0  0  0  0  0  0  0  0  0  0  0
   47.3102    8.3186   21.5520 H   0  0  0  0  0  0  0  0  0  0  0  0
   47.3816    5.7770   16.0215 H   0  0  0  0  0  0  0  0  0  0  0  0
   48.4464    4.4385   15.5797 H   0  0  0  0  0  0  0  0  0  0  0  0
   47.4418    4.3306   17.0346 H   0  0  0  0  0  0  0  0  0  0  0  0
   45.2628   11.1756   20.3728 H   0  0  0  0  0  0  0  0  0  0  0  0
   49.1992   10.2256   18.9076 H   0  0  0  0  0  0  0  0  0  0  0  0
   46.0923   13.3846   21.1535 H   0  0  0  0  0  0  0  0  0  0  0  0
   50.0167   12.4191   19.6747 H   0  0  0  0  0  0  0  0  0  0  0  0
   48.4736   14.0060   20.8099 H   0  0  0  0  0  0  0  0  0  0  0  0
   48.1966    7.6861   18.6780 H   0  0  0  0  0  0  0  0  0  0  0  0
   48.1220    8.9709   19.4998 H   0  0  0  0  0  0  0  0  0  0  0  0
  3  4  1  0
  4  2  1  0
  5  3  2  0
  6  2  1  0
  7  2  2  0
  8  5  1  0
  9  8  1  0
 10  9  1  0
 11  3  1  0
 12 11  2  0
 13  8  2  0
 14  4  1  0
 15 10  2  0
 16 10  1  0
 17 16  2  0
 18 15  1  0
 19 17  1  0
 12 13  1  0
 18 19  2  0
 21 22  1  0
 22 20  1  0
 23 21  2  0
 24 20  1  0
 25 20  2  0
 26 23  1  0
 27 26  1  0
 28 27  1  0
 29 21  1  0
 30 29  2  0
 31 26  2  0
 32 22  1  0
 33 28  2  0
 34 28  1  0
 35 33  1  0
 36 34  2  0
 37 36  1  0
 30 31  1  0
 35 37  2  0
  1 40  1  0
  1 41  1  0
  4 42  1  6
  5 43  1  0
 11 44  1  0
 12 45  1  0
 13 46  1  0
 14 47  1  0
 14 48  1  0
 14 49  1  0
 15 50  1  0
 16 51  1  0
 17 52  1  0
 18 53  1  0
 19 54  1  0
 22 55  1  6
 23 56  1  0
 29 57  1  0
 30 58  1  0
 31 59  1  0
 32 60  1  0
 32 61  1  0
 32 62  1  0
 33 63  1  0
 34 64  1  0
 35 65  1  0
 36 66  1  0
 37 67  1  0
 39 68  1  0
 39 69  1  0
M  CHG  3   6  -1  24  -1  38   2
M  END
> <Uni-Dock RESULT> 
ENERGY=   -6.008  LOWER_BOUND=    2.094  UPPER_BOUND=    6.458
INTER + INTRA:          -6.008
INTER:                  -6.008
INTRA:                   0.000
UNBOUND:                 0.000

$$$$

     RDKit          3D

 69 68  0  0  0  0  0  0  0  0999 V2000
   47.9070    9.9003   19.9888 O   0  0  0  0  0  0  0  0  0  0  0  0
   50.0462   13.3346   18.4537 C   0  0  0  0  0  0  0  0  0  0  0  0
   48.2887   11.5210   18.6648 C   0  0  0  0  0  0  0  0  0  0  0  0
   49.1574   12.3163   17.7014 C   0  0  1  0  0  0  0  0  0  0  0  0
   48.2862   10.1194   18.6144 C   0  0  0  0  0  0  0  0  0  0  0  0
   49.6119   14.5223   18.5157 O   0  0  0  0  0  0  0  0  0  0  0  0
   51.1308   12.8646   18.9114 O   0  0  0  0  0  0  0  0  0  0  0  0
   47.4950    9.3857   19.4992 C   0  0  0  0  0  0  0  0  0  0  0  0
   47.5205    8.0134   19.4014 O   0  0  0  0  0  0  0  0  0  0  0  0
   47.9309    7.3210   20.5203 C   0  0  0  0  0  0  0  0  0  0  0  0
   47.4576   12.1624   19.5978 C   0  0  0  0  0  0  0  0  0  0  0  0
   46.6486   11.4241   20.4648 C   0  0  0  0  0  0  0  0  0  0  0  0
   46.6614   10.0319   20.4133 C   0  0  0  0  0  0  0  0  0  0  0  0
   48.2991   12.9677   16.6187 C   0  0  0  0  0  0  0  0  0  0  0  0
   47.2833    6.1110   20.7767 C   0  0  0  0  0  0  0  0  0  0  0  0
   48.9814    7.7394   21.3419 C   0  0  0  0  0  0  0  0  0  0  0  0
   49.3554    6.9632   22.4403 C   0  0  0  0  0  0  0  0  0  0  0  0
   47.6609    5.3356   21.8745 C   0  0  0  0  0  0  0  0  0  0  0  0
   48.6939    5.7647   22.7085 C   0  0  0  0  0  0  0  0  0  0  0  0
   47.5088   13.3776   20.3865 C   0  0  0  0  0  0  0  0  0  0  0  0
   48.5703   11.7051   18.8229 C   0  0  0  0  0  0  0  0  0  0  0  0
   48.0444   13.1255   18.9590 C   0  0  1  0  0  0  0  0  0  0  0  0
   47.7276   10.5953   18.9913 C   0  0  0  0  0  0  0  0  0  0  0  0
   46.2644   13.2205   20.5565 O   0  0  0  0  0  0  0  0  0  0  0  0
   48.3836   13.7408   21.2283 O   0  0  0  0  0  0  0  0  0  0  0  0
   48.2374    9.3021   18.8789 C   0  0  0  0  0  0  0  0  0  0  0  0
   47.3764    8.2414   19.0409 O   0  0  0  0  0  0  0  0  0  0  0  0
   47.6210    7.4189   20.1196 C   0  0  0  0  0  0  0  0  0  0  0  0
   49.9234   11.4835   18.5226 C   0  0  0  0  0  0  0  0  0  0  0  0
   50.4243   10.1863   18.3868 C   0  0  0  0  0  0  0  0  0  0  0  0
   49.5796    9.0918   18.5589 C   0  0  0  0  0  0  0  0  0  0  0  0
   47.0104   13.4402   17.8788 C   0  0  0  0  0  0  0  0  0  0  0  0
   47.4643    6.0475   19.9135 C   0  0  0  0  0  0  0  0  0  0  0  0
   47.9495    7.9015   21.3895 C   0  0  0  0  0  0  0  0  0  0  0  0
   47.6681    5.1550   20.9671 C   0  0  0  0  0  0  0  0  0  0  0  0
   48.1472    7.0077   22.4431 C   0  0  0  0  0  0  0  0  0  0  0  0
   48.0111    5.6356   22.2313 C   0  0  0  0  0  0  0  0  0  0  0  0
   48.1638    9.7856   19.7073 Ca  0  0  0  0  0 15  0  0  0  0  0  0
   47.9126    9.8665   20.0049 O   0  0  0  0  0  0  0  0  0  0  0  0
   48.3796    9.0572   19.9197 H   0  0  0  0  0  0  0  0  0  0  0  0
   48.2049   10.3992   19.2134 H   0  0  0  0  0  0  0  0  0  0  0  0
   49.8487   11.6266   17.1947 H   0  0  0  0  0  0  0  0  0  0  0  0
   48.9185    9.5992   17.9005 H   0  0  0  0  0  0  0  0  0  0  0  0
   47.4517   13.2512   19.6535 H   0  0  0  0  0  0  0  0  0  0  0  0
   46.0193   11.9426   21.1812 H   0  0  0  0  0  0  0  0  0  0  0  0
   46.0317    9.4574   21.0841 H   0  0  0  0  0  0  0  0  0  0  0  0
   47.5790   13.6821   17.0342 H   0  0  0  0  0  0  0  0  0  0  0  0
   48.9245   13.5073   15.9015 H   0  0  0  0  0  0  0  0  0  0  0  0
   47.7285   12.2139   16.0658 H   0  0  0  0  0  0  0  0  0  0  0  0
   46.4809    5.7804   20.1223 H   0  0  0  0  0  0  0  0  0  0  0  0
   49.5167    8.6634   21.1322 H   0  0  0  0  0  0  0  0  0  0  0  0
   50.1673    7.2959   23.0813 H   0  0  0  0  0  0  0  0  0  0  0  0
   47.1522    4.3975   22.0777 H   0  0  0  0  0  0  0  0  0  0  0  0
   48.9910    5.1630   23.5633 H   0  0  0  0  0  0  0  0  0  0  0  0
   48.8768   13.8286   18.8116 H   0  0  0  0  0  0  0  0  0  0  0  0
   46.6800   10.7440   19.2458 H   0  0  0  0  0  0  0  0  0  0  0  0
   50.5958   12.3302   18.4070 H   0  0  0  0  0  0  0  0  0  0  0  0
   51.4741   10.0345   18.1566 H   0  0  0  0  0  0  0  0  0  0  0  0
   49.9660    8.0836   18.4557 H   0  0  0  0  0  0  0  0  0  0  0  0
   46.1342   12.7841   17.9326 H   0  0  0  0  0  0  0  0  0  0  0  0
   46.6537   14.4720   17.9739 H   0  0  0  0  0  0  0  0  0  0  0  0
   47.4449   13.3262   16.8788 H   0  0  0  0  0  0  0  0  0  0  0  0
   47.1837    5.6798   18.9305 H   0  0  0  0  0  0  0  0  0  0  0  0
   48.0422    8.9710   21.5716 H   0  0  0  0  0  0  0  0  0  0  0  0
   47.5516    4.0878   20.8034 H   0  0  0  0  0  0  0  0  0  0  0  0
   48.3980    7.3915   23.4282 H   0  0  0  0  0  0  0  0  0  0  0  0
   48.1654    4.9431   23.0543 H   0  0  0  0  0  0  0  0  0  0  0  0
   48.1558   10.4341   19.2580 H   0  0  0  0  0  0  0  0  0  0  0  0
   48.4230    9.0561   19.8591 H   0  0  0  0  0  0  0  0  0  0  0  0
  3  4  1  0
  4  2  1  0
  5  3  2  0
  6  2  1  0
  7  2  2  0
  8  5  1  0
  9  8  1  0
 10  9  1  0
 11  3  1  0
 12 11  2  0
 13  8  2  0
 14  4  1  0
 15 10  2  0
 16 10  1  0
 17 16  2  0
 18 15  1  0
 19 17  1  0
 12 13  1  0
 18 19  2  0
 21 22  1  0
 22 20  1  0
 23 21  2  0
 24 20  1  0
 25 20  2  0
 26 23  1  0
 27 26  1  0
 28 27  1  0
 29 21  1  0
 30 29  2  0
 31 26  2  0
 32 22  1  0
 33 28  2  0
 34 28  1  0
 35 33  1  0
 36 34  2  0
 37 36  1  0
 30 31  1  0
 35 37  2  0
  1 40  1  0
  1 41  1  0
  4 42  1  6
  5 43  1  0
 11 44  1  0
 12 45  1  0
 13 46  1  0
 14 47  1  0
 14 48  1  0
 14 49  1  0
 15 50  1  0
 16 51  1  0
 17 52  1  0
 18 53  1  0
 19 54  1  0
 22 55  1  6
 23 56  1  0
 29 57  1  0
 30 58  1  0
 31 59  1  0
 32 60  1  0
 32 61  1  0
 32 62  1  0
 33 63  1  0
 34 64  1  0
 35 65  1  0
 36 66  1  0
 37 67  1  0
 39 68  1  0
 39 69  1  0
M  CHG  3   6  -1  24  -1  38   2
M  END
> <Uni-Dock RESULT> 
ENERGY=   -5.998  LOWER_BOUND=    2.798  UPPER_BOUND=    4.569
INTER + INTRA:          -5.998
INTER:                  -5.998
INTRA:                   0.000
UNBOUND:                 0.000

$$$$

     RDKit          3D

 69 68  0  0  0  0  0  0  0  0999 V2000
   48.5216   10.6672   15.9558 O   0  0  0  0  0  0  0  0  0  0  0  0
   46.9980   11.9437   19.7998 C   0  0  0  0  0  0  0  0  0  0  0  0
   48.6377   11.4408   17.9341 C   0  0  0  0  0  0  0  0  0  0  0  0
   48.3929   11.3836   19.4348 C   0  0  1  0  0  0  0  0  0  0  0  0
   49.0472   10.2899   17.2451 C   0  0  0  0  0  0  0  0  0  0  0  0
   46.9580   13.1515   20.1775 O   0  0  0  0  0  0  0  0  0  0  0  0
   46.0438   11.1154   19.6976 O   0  0  0  0  0  0  0  0  0  0  0  0
   49.2680   10.3363   15.8681 C   0  0  0  0  0  0  0  0  0  0  0  0
   49.6789    9.1822   15.2414 O   0  0  0  0  0  0  0  0  0  0  0  0
   48.8631    8.6967   14.2421 C   0  0  0  0  0  0  0  0  0  0  0  0
   48.4885   12.6382   17.2153 C   0  0  0  0  0  0  0  0  0  0  0  0
   48.7347   12.6855   15.8411 C   0  0  0  0  0  0  0  0  0  0  0  0
   49.1313   11.5339   15.1645 C   0  0  0  0  0  0  0  0  0  0  0  0
   49.5246   12.0787   20.1893 C   0  0  0  0  0  0  0  0  0  0  0  0
   49.5007    8.1176   13.1434 C   0  0  0  0  0  0  0  0  0  0  0  0
   47.4674    8.7030   14.3171 C   0  0  0  0  0  0  0  0  0  0  0  0
   46.7135    8.1630   13.2737 C   0  0  0  0  0  0  0  0  0  0  0  0
   48.7443    7.5763   12.1022 C   0  0  0  0  0  0  0  0  0  0  0  0
   47.3508    7.6036   12.1660 C   0  0  0  0  0  0  0  0  0  0  0  0
   47.6305   13.8043   17.2871 C   0  0  0  0  0  0  0  0  0  0  0  0
   48.2832   11.4848   18.0370 C   0  0  0  0  0  0  0  0  0  0  0  0
   48.2013   12.9487   18.4405 C   0  0  1  0  0  0  0  0  0  0  0  0
   49.0918   11.0659   16.9689 C   0  0  0  0  0  0  0  0  0  0  0  0
   48.4761   14.3696   16.5338 O   0  0  0  0  0  0  0  0  0  0  0  0
   46.3654   13.8626   17.2414 O   0  0  0  0  0  0  0  0  0  0  0  0
   49.1364    9.7198   16.6068 C   0  0  0  0  0  0  0  0  0  0  0  0
   49.9491    9.3488   15.5607 O   0  0  0  0  0  0  0  0  0  0  0  0
   49.3147    8.8335   14.4508 C   0  0  0  0  0  0  0  0  0  0  0  0
   47.5412   10.5212   18.7379 C   0  0  0  0  0  0  0  0  0  0  0  0
   47.6082    9.1705   18.3870 C   0  0  0  0  0  0  0  0  0  0  0  0
   48.4117    8.7660   17.3232 C   0  0  0  0  0  0  0  0  0  0  0  0
   49.5504   13.4623   18.9417 C   0  0  0  0  0  0  0  0  0  0  0  0
   49.9266    7.7471   13.8240 C   0  0  0  0  0  0  0  0  0  0  0  0
   48.1487    9.3850   13.9123 C   0  0  0  0  0  0  0  0  0  0  0  0
   49.3564    7.1896   12.6784 C   0  0  0  0  0  0  0  0  0  0  0  0
   47.5835    8.8298   12.7633 C   0  0  0  0  0  0  0  0  0  0  0  0
   48.1840    7.7305   12.1494 C   0  0  0  0  0  0  0  0  0  0  0  0
   48.5411   10.3668   16.2162 Ca  0  0  0  0  0 15  0  0  0  0  0  0
   48.5165   10.6409   15.9291 O   0  0  0  0  0  0  0  0  0  0  0  0
   48.4456    9.7176   15.7784 H   0  0  0  0  0  0  0  0  0  0  0  0
   48.6561   10.7155   16.9142 H   0  0  0  0  0  0  0  0  0  0  0  0
   48.3901   10.3308   19.7541 H   0  0  0  0  0  0  0  0  0  0  0  0
   49.1719    9.3516   17.7784 H   0  0  0  0  0  0  0  0  0  0  0  0
   48.1657   13.5407   17.7348 H   0  0  0  0  0  0  0  0  0  0  0  0
   48.6067   13.6213   15.3065 H   0  0  0  0  0  0  0  0  0  0  0  0
   49.3254   11.5699   14.0979 H   0  0  0  0  0  0  0  0  0  0  0  0
   49.5991   13.1428   19.9370 H   0  0  0  0  0  0  0  0  0  0  0  0
   49.3721   12.0045   21.2700 H   0  0  0  0  0  0  0  0  0  0  0  0
   50.4909   11.6195   19.9546 H   0  0  0  0  0  0  0  0  0  0  0  0
   50.5865    8.0969   13.1001 H   0  0  0  0  0  0  0  0  0  0  0  0
   46.9594    9.1203   15.1844 H   0  0  0  0  0  0  0  0  0  0  0  0
   45.6285    8.1771   13.3320 H   0  0  0  0  0  0  0  0  0  0  0  0
   49.2407    7.1320   11.2442 H   0  0  0  0  0  0  0  0  0  0  0  0
   46.7591    7.1822   11.3577 H   0  0  0  0  0  0  0  0  0  0  0  0
   47.4963   13.0479   19.2783 H   0  0  0  0  0  0  0  0  0  0  0  0
   49.6585   11.7991   16.3982 H   0  0  0  0  0  0  0  0  0  0  0  0
   46.8948   10.8288   19.5563 H   0  0  0  0  0  0  0  0  0  0  0  0
   47.0254    8.4399   18.9391 H   0  0  0  0  0  0  0  0  0  0  0  0
   48.4644    7.7183   17.0474 H   0  0  0  0  0  0  0  0  0  0  0  0
   50.3336   13.3999   18.1776 H   0  0  0  0  0  0  0  0  0  0  0  0
   49.4748   14.5116   19.2487 H   0  0  0  0  0  0  0  0  0  0  0  0
   49.8901   12.8830   19.8081 H   0  0  0  0  0  0  0  0  0  0  0  0
   50.8467    7.3386   14.2322 H   0  0  0  0  0  0  0  0  0  0  0  0
   47.6798   10.2534   14.3724 H   0  0  0  0  0  0  0  0  0  0  0  0
   49.8306    6.3404   12.1954 H   0  0  0  0  0  0  0  0  0  0  0  0
   46.6795    9.2673   12.3487 H   0  0  0  0  0  0  0  0  0  0  0  0
   47.7410    7.3014   11.2548 H   0  0  0  0  0  0  0  0  0  0  0  0
   48.6547   10.7811   16.8780 H   0  0  0  0  0  0  0  0  0  0  0  0
   48.4521    9.6783   15.8414 H   0  0  0  0  0  0  0  0  0  0  0  0
  3  4  1  0
  4  2  1  0
  5  3  2  0
  6  2  1  0
  7  2  2  0
  8  5  1  0
  9  8  1  0
 10  9  1  0
 11  3  1  0
 12 11  2  0
 13  8  2  0
 14  4  1  0
 15 10  2  0
 16 10  1  0
 17 16  2  0
 18 15  1  0
 19 17  1  0
 12 13  1  0
 18 19  2  0
 21 22  1  0
 22 20  1  0
 23 21  2  0
 24 20  1  0
 25 20  2  0
 26 23  1  0
 27 26  1  0
 28 27  1  0
 29 21  1  0
 30 29  2  0
 31 26  2  0
 32 22  1  0
 33 28  2  0
 34 28  1  0
 35 33  1  0
 36 34  2  0
 37 36  1  0
 30 31  1  0
 35 37  2  0
  1 40  1  0
  1 41  1  0
  4 42  1  6
  5 43  1  0
 11 44  1  0
 12 45  1  0
 13 46  1  0
 14 47  1  0
 14 48  1  0
 14 49  1  0
 15 50  1  0
 16 51  1  0
 17 52  1  0
 18 53  1  0
 19 54  1  0
 22 55  1  6
 23 56  1  0
 29 57  1  0
 30 58  1  0
 31 59  1  0
 32 60  1  0
 32 61  1  0
 32 62  1  0
 33 63  1  0
 34 64  1  0
 35 65  1  0
 36 66  1  0
 37 67  1  0
 39 68  1  0
 39 69  1  0
M  CHG  3   6  -1  24  -1  38   2
M  END
> <Uni-Dock RESULT> 
ENERGY=   -5.934  LOWER_BOUND=    4.355  UPPER_BOUND=    5.918
INTER + INTRA:          -5.934
INTER:                  -5.934
INTRA:                   0.000
UNBOUND:                 0.000

$$$$

     RDKit          3D

 69 68  0  0  0  0  0  0  0  0999 V2000
   45.6648   10.3999   11.2810 O   0  0  0  0  0  0  0  0  0  0  0  0
   49.6498    8.9698   12.1761 C   0  0  0  0  0  0  0  0  0  0  0  0
   47.3510    9.9832   12.5092 C   0  0  0  0  0  0  0  0  0  0  0  0
   48.8251   10.0762   12.8750 C   0  0  1  0  0  0  0  0  0  0  0  0
   46.6755   11.1124   12.0239 C   0  0  0  0  0  0  0  0  0  0  0  0
   49.8903    7.9311   12.8591 O   0  0  0  0  0  0  0  0  0  0  0  0
   50.0133    9.2389   10.9919 O   0  0  0  0  0  0  0  0  0  0  0  0
   45.3250   11.0306   11.6824 C   0  0  0  0  0  0  0  0  0  0  0  0
   44.7062   12.1697   11.2210 O   0  0  0  0  0  0  0  0  0  0  0  0
   44.1608   12.1087    9.9566 C   0  0  0  0  0  0  0  0  0  0  0  0
   46.6325    8.7874   12.6723 C   0  0  0  0  0  0  0  0  0  0  0  0
   45.2746    8.7170   12.3523 C   0  0  0  0  0  0  0  0  0  0  0  0
   44.6155    9.8421   11.8613 C   0  0  0  0  0  0  0  0  0  0  0  0
   49.0019   10.0756   14.3922 C   0  0  0  0  0  0  0  0  0  0  0  0
   42.9639   12.8001    9.7603 C   0  0  0  0  0  0  0  0  0  0  0  0
   44.7760   11.4574    8.8838 C   0  0  0  0  0  0  0  0  0  0  0  0
   44.1713   11.4685    7.6257 C   0  0  0  0  0  0  0  0  0  0  0  0
   42.3624   12.8114    8.5004 C   0  0  0  0  0  0  0  0  0  0  0  0
   42.9644   12.1415    7.4347 C   0  0  0  0  0  0  0  0  0  0  0  0
   46.9180    7.3700   12.5684 C   0  0  0  0  0  0  0  0  0  0  0  0
   47.5798    9.7893   12.2894 C   0  0  0  0  0  0  0  0  0  0  0  0
   47.8345    8.5090   13.0695 C   0  0  1  0  0  0  0  0  0  0  0  0
   46.3278   10.4234   12.3155 C   0  0  0  0  0  0  0  0  0  0  0  0
   45.8411    7.1911   13.2089 O   0  0  0  0  0  0  0  0  0  0  0  0
   47.3666    6.7216   11.5763 O   0  0  0  0  0  0  0  0  0  0  0  0
   46.1137   11.5872   11.5774 C   0  0  0  0  0  0  0  0  0  0  0  0
   44.8755   12.1836   11.6379 O   0  0  0  0  0  0  0  0  0  0  0  0
   44.1608   12.2221   10.4600 C   0  0  0  0  0  0  0  0  0  0  0  0
   48.6080   10.3607   11.5235 C   0  0  0  0  0  0  0  0  0  0  0  0
   48.3959   11.5402   10.8053 C   0  0  0  0  0  0  0  0  0  0  0  0
   47.1483   12.1598   10.8359 C   0  0  0  0  0  0  0  0  0  0  0  0
   47.7126    8.7429   14.5746 C   0  0  0  0  0  0  0  0  0  0  0  0
   43.4563   13.3960   10.1895 C   0  0  0  0  0  0  0  0  0  0  0  0
   44.0704   11.1357    9.5852 C   0  0  0  0  0  0  0  0  0  0  0  0
   42.6880   13.4978    9.0286 C   0  0  0  0  0  0  0  0  0  0  0  0
   43.2968   11.2375    8.4280 C   0  0  0  0  0  0  0  0  0  0  0  0
   42.6099   12.4187    8.1475 C   0  0  0  0  0  0  0  0  0  0  0  0
   45.9253   10.6999   11.2572 Ca  0  0  0  0  0 15  0  0  0  0  0  0
   45.6450   10.4177   11.2542 O   0  0  0  0  0  0  0  0  0  0  0  0
   45.6273   11.1787   10.7057 H   0  0  0  0  0  0  0  0  0  0  0  0
   46.4837   10.5210   11.7847 H   0  0  0  0  0  0  0  0  0  0  0  0
   49.2234   11.0319   12.5034 H   0  0  0  0  0  0  0  0  0  0  0  0
   47.2080   12.0498   11.8906 H   0  0  0  0  0  0  0  0  0  0  0  0
   47.1440    7.8990   13.0434 H   0  0  0  0  0  0  0  0  0  0  0  0
   44.7424    7.7800   12.4814 H   0  0  0  0  0  0  0  0  0  0  0  0
   43.5604    9.7895   11.6151 H   0  0  0  0  0  0  0  0  0  0  0  0
   48.6356    9.1505   14.8522 H   0  0  0  0  0  0  0  0  0  0  0  0
   50.0573   10.1826   14.6590 H   0  0  0  0  0  0  0  0  0  0  0  0
   48.4542   10.9063   14.8500 H   0  0  0  0  0  0  0  0  0  0  0  0
   42.5006   13.3222   10.5933 H   0  0  0  0  0  0  0  0  0  0  0  0
   45.7265   10.9443    9.0164 H   0  0  0  0  0  0  0  0  0  0  0  0
   44.6487   10.9542    6.7960 H   0  0  0  0  0  0  0  0  0  0  0  0
   41.4276   13.3437    8.3495 H   0  0  0  0  0  0  0  0  0  0  0  0
   42.4995   12.1493    6.4525 H   0  0  0  0  0  0  0  0  0  0  0  0
   48.8672    8.1797   12.8852 H   0  0  0  0  0  0  0  0  0  0  0  0
   45.5104    9.9858   12.8854 H   0  0  0  0  0  0  0  0  0  0  0  0
   49.5791    9.8740   11.4758 H   0  0  0  0  0  0  0  0  0  0  0  0
   49.2022   11.9661   10.2167 H   0  0  0  0  0  0  0  0  0  0  0  0
   46.9803   13.0747   10.2780 H   0  0  0  0  0  0  0  0  0  0  0  0
   46.7130    9.0843   14.8668 H   0  0  0  0  0  0  0  0  0  0  0  0
   47.9180    7.8191   15.1272 H   0  0  0  0  0  0  0  0  0  0  0  0
   48.4295    9.5011   14.9102 H   0  0  0  0  0  0  0  0  0  0  0  0
   43.5097   14.2281   10.8858 H   0  0  0  0  0  0  0  0  0  0  0  0
   44.5883   10.2025    9.8014 H   0  0  0  0  0  0  0  0  0  0  0  0
   42.1453   14.4142    8.8167 H   0  0  0  0  0  0  0  0  0  0  0  0
   43.2284   10.3867    7.7556 H   0  0  0  0  0  0  0  0  0  0  0  0
   42.0084   12.4938    7.2458 H   0  0  0  0  0  0  0  0  0  0  0  0
   46.4445   10.4590   11.8002 H   0  0  0  0  0  0  0  0  0  0  0  0
   45.6863   11.2229   10.7171 H   0  0  0  0  0  0  0  0  0  0  0  0
  3  4  1  0
  4  2  1  0
  5  3  2  0
  6  2  1  0
  7  2  2  0
  8  5  1  0
  9  8  1  0
 10  9  1  0
 11  3  1  0
 12 11  2  0
 13  8  2  0
 14  4  1  0
 15 10  2  0
 16 10  1  0
 17 16  2  0
 18 15  1  0
 19 17  1  0
 12 13  1  0
 18 19  2  0
 21 22  1  0
 22 20  1  0
 23 21  2  0
 24 20  1  0
 25 20  2  0
 26 23  1  0
 27 26  1  0
 28 27  1  0
 29 21  1  0
 30 29  2  0
 31 26  2  0
 32 22  1  0
 33 28  2  0
 34 28  1  0
 35 33  1  0
 36 34  2  0
 37 36  1  0
 30 31  1  0
 35 37  2  0
  1 40  1  0
  1 41  1  0
  4 42  1  6
  5 43  1  0
 11 44  1  0
 12 45  1  0
 13 46  1  0
 14 47  1  0
 14 48  1  0
 14 49  1  0
 15 50  1  0
 16 51  1  0
 17 52  1  0
 18 53  1  0
 19 54  1  0
 22 55  1  6
 23 56  1  0
 29 57  1  0
 30 58  1  0
 31 59  1  0
 32 60  1  0
 32 61  1  0
 32 62  1  0
 33 63  1  0
 34 64  1  0
 35 65  1  0
 36 66  1  0
 37 67  1  0
 39 68  1  0
 39 69  1  0
M  CHG  3   6  -1  24  -1  38   2
M  END
> <Uni-Dock RESULT> 
ENERGY=   -5.668  LOWER_BOUND=    8.517  UPPER_BOUND=   10.614
INTER + INTRA:          -5.668
INTER:                  -5.668
INTRA:                   0.000
UNBOUND:                 0.000

$$$$

     RDKit          3D

 69 68  0  0  0  0  0  0  0  0999 V2000
   48.0459    8.8469   20.6037 O   0  0  0  0  0  0  0  0  0  0  0  0
   49.7305    6.4997   23.8254 C   0  0  0  0  0  0  0  0  0  0  0  0
   48.0158    7.5006   22.2504 C   0  0  0  0  0  0  0  0  0  0  0  0
   48.3123    7.1021   23.6887 C   0  0  1  0  0  0  0  0  0  0  0  0
   47.5587    8.7944   21.9604 C   0  0  0  0  0  0  0  0  0  0  0  0
   49.8085    5.2360   23.8121 O   0  0  0  0  0  0  0  0  0  0  0  0
   50.6632    7.3480   23.9569 O   0  0  0  0  0  0  0  0  0  0  0  0
   47.2903    9.1660   20.6424 C   0  0  0  0  0  0  0  0  0  0  0  0
   46.8339   10.4436   20.4126 O   0  0  0  0  0  0  0  0  0  0  0  0
   47.6037   11.2368   19.5891 C   0  0  0  0  0  0  0  0  0  0  0  0
   48.1640    6.5866   21.1943 C   0  0  0  0  0  0  0  0  0  0  0  0
   47.8704    6.9557   19.8795 C   0  0  0  0  0  0  0  0  0  0  0  0
   47.4266    8.2467   19.6011 C   0  0  0  0  0  0  0  0  0  0  0  0
   47.2225    6.1750   24.2235 C   0  0  0  0  0  0  0  0  0  0  0  0
   46.9159   12.1054   18.7397 C   0  0  0  0  0  0  0  0  0  0  0  0
   49.0010   11.2502   19.6204 C   0  0  0  0  0  0  0  0  0  0  0  0
   49.7063   12.1069   18.7734 C   0  0  0  0  0  0  0  0  0  0  0  0
   47.6237   12.9627   17.8952 C   0  0  0  0  0  0  0  0  0  0  0  0
   49.0189   12.9596   17.9093 C   0  0  0  0  0  0  0  0  0  0  0  0
   49.0478    5.4813   20.8805 C   0  0  0  0  0  0  0  0  0  0  0  0
   48.3746    7.4379   22.3251 C   0  0  0  0  0  0  0  0  0  0  0  0
   48.5007    5.9240   22.2563 C   0  0  1  0  0  0  0  0  0  0  0  0
   47.5203    8.1395   21.4601 C   0  0  0  0  0  0  0  0  0  0  0  0
   48.1878    5.1489   20.0133 O   0  0  0  0  0  0  0  0  0  0  0  0
   50.3114    5.4783   20.7846 O   0  0  0  0  0  0  0  0  0  0  0  0
   47.4353    9.5298   21.5310 C   0  0  0  0  0  0  0  0  0  0  0  0
   46.5786   10.1789   20.6724 O   0  0  0  0  0  0  0  0  0  0  0  0
   47.1627   11.0289   19.7579 C   0  0  0  0  0  0  0  0  0  0  0  0
   49.1209    8.1621   23.2678 C   0  0  0  0  0  0  0  0  0  0  0  0
   49.0139    9.5527   23.3514 C   0  0  0  0  0  0  0  0  0  0  0  0
   48.1651   10.2394   22.4859 C   0  0  0  0  0  0  0  0  0  0  0  0
   47.1810    5.2406   22.6119 C   0  0  0  0  0  0  0  0  0  0  0  0
   46.5069   12.2361   19.5127 C   0  0  0  0  0  0  0  0  0  0  0  0
   48.3199   10.7049   19.0441 C   0  0  0  0  0  0  0  0  0  0  0  0
   47.0246   13.1352   18.5789 C   0  0  0  0  0  0  0  0  0  0  0  0
   48.8327   11.6028   18.1067 C   0  0  0  0  0  0  0  0  0  0  0  0
   48.1884   12.8186   17.8774 C   0  0  0  0  0  0  0  0  0  0  0  0
   48.0295    9.0523   20.9442 Ca  0  0  0  0  0 15  0  0  0  0  0  0
   48.0496    8.8803   20.5861 O   0  0  0  0  0  0  0  0  0  0  0  0
   48.0961    9.8070   20.7249 H   0  0  0  0  0  0  0  0  0  0  0  0
   47.9465    8.5028   21.5040 H   0  0  0  0  0  0  0  0  0  0  0  0
   48.3048    8.0057   24.3161 H   0  0  0  0  0  0  0  0  0  0  0  0
   47.4336    9.5195   22.7595 H   0  0  0  0  0  0  0  0  0  0  0  0
   48.5235    5.5785   21.4021 H   0  0  0  0  0  0  0  0  0  0  0  0
   47.9986    6.2333   19.0797 H   0  0  0  0  0  0  0  0  0  0  0  0
   47.1957    8.5338   18.5809 H   0  0  0  0  0  0  0  0  0  0  0  0
   47.1609    5.2378   23.6582 H   0  0  0  0  0  0  0  0  0  0  0  0
   47.4115    5.9186   25.2700 H   0  0  0  0  0  0  0  0  0  0  0  0
   46.2393    6.6544   24.1678 H   0  0  0  0  0  0  0  0  0  0  0  0
   45.8291   12.1053   18.7346 H   0  0  0  0  0  0  0  0  0  0  0  0
   49.5479   10.6026   20.3030 H   0  0  0  0  0  0  0  0  0  0  0  0
   50.7927   12.1087   18.7949 H   0  0  0  0  0  0  0  0  0  0  0  0
   47.0883   13.6335   17.2294 H   0  0  0  0  0  0  0  0  0  0  0  0
   49.5729   13.6264   17.2541 H   0  0  0  0  0  0  0  0  0  0  0  0
   49.2368    5.5941   23.0034 H   0  0  0  0  0  0  0  0  0  0  0  0
   46.9489    7.5999   20.7073 H   0  0  0  0  0  0  0  0  0  0  0  0
   49.8021    7.6382   23.9339 H   0  0  0  0  0  0  0  0  0  0  0  0
   49.6007   10.0960   24.0853 H   0  0  0  0  0  0  0  0  0  0  0  0
   48.0812   11.3191   22.5474 H   0  0  0  0  0  0  0  0  0  0  0  0
   46.3702    5.5106   21.9258 H   0  0  0  0  0  0  0  0  0  0  0  0
   47.2890    4.1506   22.5790 H   0  0  0  0  0  0  0  0  0  0  0  0
   46.8603    5.5156   23.6234 H   0  0  0  0  0  0  0  0  0  0  0  0
   45.5935   12.4714   20.0517 H   0  0  0  0  0  0  0  0  0  0  0  0
   48.8226    9.7520   19.2019 H   0  0  0  0  0  0  0  0  0  0  0  0
   46.5163   14.0768   18.3937 H   0  0  0  0  0  0  0  0  0  0  0  0
   49.7303   11.3412   17.5530 H   0  0  0  0  0  0  0  0  0  0  0  0
   48.5906   13.5147   17.1464 H   0  0  0  0  0  0  0  0  0  0  0  0
   47.9480    8.4516   21.4493 H   0  0  0  0  0  0  0  0  0  0  0  0
   48.0910    9.8248   20.7971 H   0  0  0  0  0  0  0  0  0  0  0  0
  3  4  1  0
  4  2  1  0
  5  3  2  0
  6  2  1  0
  7  2  2  0
  8  5  1  0
  9  8  1  0
 10  9  1  0
 11  3  1  0
 12 11  2  0
 13  8  2  0
 14  4  1  0
 15 10  2  0
 16 10  1  0
 17 16  2  0
 18 15  1  0
 19 17  1  0
 12 13  1  0
 18 19  2  0
 21 22  1  0
 22 20  1  0
 23 21  2  0
 24 20  1  0
 25 20  2  0
 26 23  1  0
 27 26  1  0
 28 27  1  0
 29 21  1  0
 30 29  2  0
 31 26  2  0
 32 22  1  0
 33 28  2  0
 34 28  1  0
 35 33  1  0
 36 34  2  0
 37 36  1  0
 30 31  1  0
 35 37  2  0
  1 40  1  0
  1 41  1  0
  4 42  1  6
  5 43  1  0
 11 44  1  0
 12 45  1  0
 13 46  1  0
 14 47  1  0
 14 48  1  0
 14 49  1  0
 15 50  1  0
 16 51  1  0
 17 52  1  0
 18 53  1  0
 19 54  1  0
 22 55  1  6
 23 56  1  0
 29 57  1  0
 30 58  1  0
 31 59  1  0
 32 60  1  0
 32 61  1  0
 32 62  1  0
 33 63  1  0
 34 64  1  0
 35 65  1  0
 36 66  1  0
 37 67  1  0
 39 68  1  0
 39 69  1  0
M  CHG  3   6  -1  24  -1  38   2
M  END
> <Uni-Dock RESULT> 
ENERGY=   -5.585  LOWER_BOUND=    2.696  UPPER_BOUND=    5.882
INTER + INTRA:          -5.585
INTER:                  -5.585
INTRA:                   0.000
UNBOUND:                 0.000

$$$$

     RDKit          3D

 69 68  0  0  0  0  0  0  0  0999 V2000
   49.5645    6.0830   16.1266 O   0  0  0  0  0  0  0  0  0  0  0  0
   53.1283    4.5150   18.0152 C   0  0  0  0  0  0  0  0  0  0  0  0
   50.8724    5.6374   17.7440 C   0  0  0  0  0  0  0  0  0  0  0  0
   52.2135    5.6796   18.4618 C   0  0  1  0  0  0  0  0  0  0  0  0
   50.3953    6.7769   17.0802 C   0  0  0  0  0  0  0  0  0  0  0  0
   53.1402    3.4915   18.7605 O   0  0  0  0  0  0  0  0  0  0  0  0
   53.7858    4.7265   16.9523 O   0  0  0  0  0  0  0  0  0  0  0  0
   49.1684    6.7414   16.4163 C   0  0  0  0  0  0  0  0  0  0  0  0
   48.7407    7.8893   15.7895 O   0  0  0  0  0  0  0  0  0  0  0  0
   48.5217    7.8075   14.4311 C   0  0  0  0  0  0  0  0  0  0  0  0
   50.0766    4.4801   17.7515 C   0  0  0  0  0  0  0  0  0  0  0  0
   48.8378    4.4570   17.1064 C   0  0  0  0  0  0  0  0  0  0  0  0
   48.3778    5.5915   16.4412 C   0  0  0  0  0  0  0  0  0  0  0  0
   52.0102    5.7245   19.9750 C   0  0  0  0  0  0  0  0  0  0  0  0
   47.4466    8.5425   13.9279 C   0  0  0  0  0  0  0  0  0  0  0  0
   49.3489    7.0932   13.5599 C   0  0  0  0  0  0  0  0  0  0  0  0
   49.0747    7.0863   12.1911 C   0  0  0  0  0  0  0  0  0  0  0  0
   47.1759    8.5356   12.5583 C   0  0  0  0  0  0  0  0  0  0  0  0
   47.9877    7.8035   11.6911 C   0  0  0  0  0  0  0  0  0  0  0  0
   50.3072    3.0490   17.7547 C   0  0  0  0  0  0  0  0  0  0  0  0
   51.1383    5.4263   17.5924 C   0  0  0  0  0  0  0  0  0  0  0  0
   51.1279    4.1643   18.4408 C   0  0  1  0  0  0  0  0  0  0  0  0
   49.9522    6.1142   17.2924 C   0  0  0  0  0  0  0  0  0  0  0  0
   49.0980    2.9391   18.1121 O   0  0  0  0  0  0  0  0  0  0  0  0
   50.9534    2.3475   16.9202 O   0  0  0  0  0  0  0  0  0  0  0  0
   49.9856    7.2596   16.4973 C   0  0  0  0  0  0  0  0  0  0  0  0
   48.8024    7.9104   16.2349 O   0  0  0  0  0  0  0  0  0  0  0  0
   48.4033    7.9383   14.9159 C   0  0  0  0  0  0  0  0  0  0  0  0
   52.3511    5.9258   17.0924 C   0  0  0  0  0  0  0  0  0  0  0  0
   52.3824    7.0874   16.3168 C   0  0  0  0  0  0  0  0  0  0  0  0
   51.1987    7.7608   16.0225 C   0  0  0  0  0  0  0  0  0  0  0  0
   50.6504    4.4557   19.8628 C   0  0  0  0  0  0  0  0  0  0  0  0
   47.8473    9.1313   14.4518 C   0  0  0  0  0  0  0  0  0  0  0  0
   48.4768    6.8269   14.0716 C   0  0  0  0  0  0  0  0  0  0  0  0
   47.3952    9.2254   13.1346 C   0  0  0  0  0  0  0  0  0  0  0  0
   48.0188    6.9213   12.7566 C   0  0  0  0  0  0  0  0  0  0  0  0
   47.4827    8.1205   12.2871 C   0  0  0  0  0  0  0  0  0  0  0  0
   49.8376    6.3705   16.1611 Ca  0  0  0  0  0 15  0  0  0  0  0  0
   49.5528    6.1007   16.0953 O   0  0  0  0  0  0  0  0  0  0  0  0
   49.7093    6.8421   15.5420 H   0  0  0  0  0  0  0  0  0  0  0  0
   50.2389    6.1863   16.8147 H   0  0  0  0  0  0  0  0  0  0  0  0
   52.7388    6.6037   18.1784 H   0  0  0  0  0  0  0  0  0  0  0  0
   50.9907    7.6853   17.0613 H   0  0  0  0  0  0  0  0  0  0  0  0
   50.4354    3.5840   18.2585 H   0  0  0  0  0  0  0  0  0  0  0  0
   48.2437    3.5488   17.1212 H   0  0  0  0  0  0  0  0  0  0  0  0
   47.4148    5.5758   15.9422 H   0  0  0  0  0  0  0  0  0  0  0  0
   51.4957    4.8327   20.3511 H   0  0  0  0  0  0  0  0  0  0  0  0
   52.9713    5.7953   20.4927 H   0  0  0  0  0  0  0  0  0  0  0  0
   51.4091    6.5935   20.2632 H   0  0  0  0  0  0  0  0  0  0  0  0
   46.8191    9.1129   14.6076 H   0  0  0  0  0  0  0  0  0  0  0  0
   50.2103    6.5447   13.9361 H   0  0  0  0  0  0  0  0  0  0  0  0
   49.7155    6.5231   11.5180 H   0  0  0  0  0  0  0  0  0  0  0  0
   46.3352    9.1020   12.1679 H   0  0  0  0  0  0  0  0  0  0  0  0
   47.7803    7.7969   10.6244 H   0  0  0  0  0  0  0  0  0  0  0  0
   52.1562    3.7847   18.5262 H   0  0  0  0  0  0  0  0  0  0  0  0
   48.9985    5.7324   17.6517 H   0  0  0  0  0  0  0  0  0  0  0  0
   53.2782    5.3963   17.2985 H   0  0  0  0  0  0  0  0  0  0  0  0
   53.3294    7.4574   15.9369 H   0  0  0  0  0  0  0  0  0  0  0  0
   51.2197    8.6620   15.4193 H   0  0  0  0  0  0  0  0  0  0  0  0
   49.6281    4.8499   19.8899 H   0  0  0  0  0  0  0  0  0  0  0  0
   50.6664    3.5439   20.4705 H   0  0  0  0  0  0  0  0  0  0  0  0
   51.2996    5.1937   20.3481 H   0  0  0  0  0  0  0  0  0  0  0  0
   47.7690    9.9842   15.1201 H   0  0  0  0  0  0  0  0  0  0  0  0
   48.8777    5.8805   14.4312 H   0  0  0  0  0  0  0  0  0  0  0  0
   46.9684   10.1563   12.7735 H   0  0  0  0  0  0  0  0  0  0  0  0
   48.0756    6.0513   12.1083 H   0  0  0  0  0  0  0  0  0  0  0  0
   47.1267    8.1897   11.2628 H   0  0  0  0  0  0  0  0  0  0  0  0
   50.1940    6.1267   16.8214 H   0  0  0  0  0  0  0  0  0  0  0  0
   49.7658    6.8840   15.5666 H   0  0  0  0  0  0  0  0  0  0  0  0
  3  4  1  0
  4  2  1  0
  5  3  2  0
  6  2  1  0
  7  2  2  0
  8  5  1  0
  9  8  1  0
 10  9  1  0
 11  3  1  0
 12 11  2  0
 13  8  2  0
 14  4  1  0
 15 10  2  0
 16 10  1  0
 17 16  2  0
 18 15  1  0
 19 17  1  0
 12 13  1  0
 18 19  2  0
 21 22  1  0
 22 20  1  0
 23 21  2  0
 24 20  1  0
 25 20  2  0
 26 23  1  0
 27 26  1  0
 28 27  1  0
 29 21  1  0
 30 29  2  0
 31 26  2  0
 32 22  1  0
 33 28  2  0
 34 28  1  0
 35 33  1  0
 36 34  2  0
 37 36  1  0
 30 31  1  0
 35 37  2  0
  1 40  1  0
  1 41  1  0
  4 42  1  6
  5 43  1  0
 11 44  1  0
 12 45  1  0
 13 46  1  0
 14 47  1  0
 14 48  1  0
 14 49  1  0
 15 50  1  0
 16 51  1  0
 17 52  1  0
 18 53  1  0
 19 54  1  0
 22 55  1  6
 23 56  1  0
 29 57  1  0
 30 58  1  0
 31 59  1  0
 32 60  1  0
 32 61  1  0
 32 62  1  0
 33 63  1  0
 34 64  1  0
 35 65  1  0
 36 66  1  0
 37 67  1  0
 39 68  1  0
 39 69  1  0
M  CHG  3   6  -1  24  -1  38   2
M  END
> <Uni-Dock RESULT> 
ENERGY=   -5.535  LOWER_BOUND=    3.838  UPPER_BOUND=    5.796
INTER + INTRA:          -5.535
INTER:                  -5.535
INTRA:                   0.000
UNBOUND:                 0.000

$$$$
