
     RDKit          3D

 69 68  0  0  0  0  0  0  0  0999 V2000
   48.4348    7.2941   19.2662 O   0  0  0  0  0  0  0  0  0  0  0  0
   51.1477    5.0395   17.8693 C   0  0  0  0  0  0  0  0  0  0  0  0
   49.0056    5.0551   19.2028 C   0  0  0  0  0  0  0  0  0  0  0  0
   49.8779    4.2478   18.2552 C   0  0  1  0  0  0  0  0  0  0  0  0
   48.4381    6.2765   18.8101 C   0  0  0  0  0  0  0  0  0  0  0  0
   51.0914    5.7056   16.7952 O   0  0  0  0  0  0  0  0  0  0  0  0
   52.1222    4.9075   18.6688 O   0  0  0  0  0  0  0  0  0  0  0  0
   47.6627    7.0117   19.7067 C   0  0  0  0  0  0  0  0  0  0  0  0
   47.1234    8.2036   19.2784 O   0  0  0  0  0  0  0  0  0  0  0  0
   47.5419    9.3365   19.9421 C   0  0  0  0  0  0  0  0  0  0  0  0
   48.7581    4.5846   20.5026 C   0  0  0  0  0  0  0  0  0  0  0  0
   47.9562    5.3096   21.3869 C   0  0  0  0  0  0  0  0  0  0  0  0
   47.4015    6.5234   20.9878 C   0  0  0  0  0  0  0  0  0  0  0  0
   49.0903    3.7736   17.0360 C   0  0  0  0  0  0  0  0  0  0  0  0
   48.8689    9.5596   20.3150 C   0  0  0  0  0  0  0  0  0  0  0  0
   46.5752   10.3154   20.1807 C   0  0  0  0  0  0  0  0  0  0  0  0
   46.9253   11.4997   20.8279 C   0  0  0  0  0  0  0  0  0  0  0  0
   49.2180   10.7476   20.9590 C   0  0  0  0  0  0  0  0  0  0  0  0
   48.2466   11.7137   21.2198 C   0  0  0  0  0  0  0  0  0  0  0  0
   47.6199   10.6659   19.2584 C   0  0  0  0  0  0  0  0  0  0  0  0
   48.7095    8.9445   20.7480 C   0  0  0  0  0  0  0  0  0  0  0  0
   48.5435   10.4316   20.4760 C   0  0  1  0  0  0  0  0  0  0  0  0
   49.2865    8.0881   19.7977 C   0  0  0  0  0  0  0  0  0  0  0  0
   48.1925   10.9024   18.1546 O   0  0  0  0  0  0  0  0  0  0  0  0
   46.3787   10.6188   19.5114 O   0  0  0  0  0  0  0  0  0  0  0  0
   49.4002    6.7229   20.0607 C   0  0  0  0  0  0  0  0  0  0  0  0
   49.9679    5.9152   19.1027 O   0  0  0  0  0  0  0  0  0  0  0  0
   49.1355    4.9787   18.5256 C   0  0  0  0  0  0  0  0  0  0  0  0
   48.2776    8.4017   21.9691 C   0  0  0  0  0  0  0  0  0  0  0  0
   48.4211    7.0383   22.2390 C   0  0  0  0  0  0  0  0  0  0  0  0
   48.9889    6.1958   21.2858 C   0  0  0  0  0  0  0  0  0  0  0  0
   49.8982   11.1240   20.3351 C   0  0  0  0  0  0  0  0  0  0  0  0
   49.6959    3.7310   18.2459 C   0  0  0  0  0  0  0  0  0  0  0  0
   47.8126    5.2470   18.1646 C   0  0  0  0  0  0  0  0  0  0  0  0
   48.9243    2.7397   17.6386 C   0  0  0  0  0  0  0  0  0  0  0  0
   47.0431    4.2545   17.5568 C   0  0  0  0  0  0  0  0  0  0  0  0
   47.5968    3.0009   17.2979 C   0  0  0  0  0  0  0  0  0  0  0  0
   48.5436    7.1294   19.6115 Ca  0  0  0  0  0 15  0  0  0  0  0  0
   48.4348    7.2955   19.2669 O   0  0  0  0  0  0  0  0  0  0  0  0
   48.5998    7.7365   20.1123 H   0  0  0  0  0  0  0  0  0  0  0  0
   48.5963    6.3577   19.4560 H   0  0  0  0  0  0  0  0  0  0  0  0
   50.2238    3.3441   18.7755 H   0  0  0  0  0  0  0  0  0  0  0  0
   48.6343    6.6716   17.8146 H   0  0  0  0  0  0  0  0  0  0  0  0
   49.2068    3.6508   20.8323 H   0  0  0  0  0  0  0  0  0  0  0  0
   47.7767    4.9307   22.3881 H   0  0  0  0  0  0  0  0  0  0  0  0
   46.7810    7.0900   21.6731 H   0  0  0  0  0  0  0  0  0  0  0  0
   48.6827    4.6038   16.4505 H   0  0  0  0  0  0  0  0  0  0  0  0
   49.7290    3.1827   16.3699 H   0  0  0  0  0  0  0  0  0  0  0  0
   48.2477    3.1424   17.3393 H   0  0  0  0  0  0  0  0  0  0  0  0
   49.6390    8.8218   20.0987 H   0  0  0  0  0  0  0  0  0  0  0  0
   45.5519   10.1481   19.8628 H   0  0  0  0  0  0  0  0  0  0  0  0
   46.1717   12.2563   21.0209 H   0  0  0  0  0  0  0  0  0  0  0  0
   50.2518   10.9159   21.2475 H   0  0  0  0  0  0  0  0  0  0  0  0
   48.5225   12.6368   21.7225 H   0  0  0  0  0  0  0  0  0  0  0  0
   48.0396   10.8966   21.3351 H   0  0  0  0  0  0  0  0  0  0  0  0
   49.6115    8.4837   18.8376 H   0  0  0  0  0  0  0  0  0  0  0  0
   47.8114    9.0461   22.7107 H   0  0  0  0  0  0  0  0  0  0  0  0
   48.0778    6.6368   23.1875 H   0  0  0  0  0  0  0  0  0  0  0  0
   49.0970    5.1354   21.4898 H   0  0  0  0  0  0  0  0  0  0  0  0
   50.4831   10.7338   19.4937 H   0  0  0  0  0  0  0  0  0  0  0  0
   50.4995   10.9952   21.2432 H   0  0  0  0  0  0  0  0  0  0  0  0
   49.7649   12.1981   20.1697 H   0  0  0  0  0  0  0  0  0  0  0  0
   50.7327    3.5361   18.5045 H   0  0  0  0  0  0  0  0  0  0  0  0
   47.3754    6.2275   18.3415 H   0  0  0  0  0  0  0  0  0  0  0  0
   49.3591    1.7679   17.4263 H   0  0  0  0  0  0  0  0  0  0  0  0
   46.0137    4.4688   17.2801 H   0  0  0  0  0  0  0  0  0  0  0  0
   46.9940    2.2329   16.8212 H   0  0  0  0  0  0  0  0  0  0  0  0
   48.5954    6.3582   19.4530 H   0  0  0  0  0  0  0  0  0  0  0  0
   48.6007    7.7345   20.1147 H   0  0  0  0  0  0  0  0  0  0  0  0
  3  4  1  0
  4  2  1  0
  5  3  2  0
  6  2  1  0
  7  2  2  0
  8  5  1  0
  9  8  1  0
 10  9  1  0
 11  3  1  0
 12 11  2  0
 13  8  2  0
 14  4  1  0
 15 10  2  0
 16 10  1  0
 17 16  2  0
 18 15  1  0
 19 17  1  0
 12 13  1  0
 18 19  2  0
 21 22  1  0
 22 20  1  0
 23 21  2  0
 24 20  1  0
 25 20  2  0
 26 23  1  0
 27 26  1  0
 28 27  1  0
 29 21  1  0
 30 29  2  0
 31 26  2  0
 32 22  1  0
 33 28  2  0
 34 28  1  0
 35 33  1  0
 36 34  2  0
 37 36  1  0
 30 31  1  0
 35 37  2  0
  1 40  1  0
  1 41  1  0
  4 42  1  1
  5 43  1  0
 11 44  1  0
 12 45  1  0
 13 46  1  0
 14 47  1  0
 14 48  1  0
 14 49  1  0
 15 50  1  0
 16 51  1  0
 17 52  1  0
 18 53  1  0
 19 54  1  0
 22 55  1  6
 23 56  1  0
 29 57  1  0
 30 58  1  0
 31 59  1  0
 32 60  1  0
 32 61  1  0
 32 62  1  0
 33 63  1  0
 34 64  1  0
 35 65  1  0
 36 66  1  0
 37 67  1  0
 39 68  1  0
 39 69  1  0
M  CHG  3   6  -1  24  -1  38   2
M  END
> <Uni-Dock RESULT> 
ENERGY=   -5.601  LOWER_BOUND=    0.000  UPPER_BOUND=    0.000
INTER + INTRA:          -5.601
INTER:                  -5.601
INTRA:                   0.000
UNBOUND:                 0.000

$$$$

     RDKit          3D

 69 68  0  0  0  0  0  0  0  0999 V2000
   48.5198    7.1255   16.4007 O   0  0  0  0  0  0  0  0  0  0  0  0
   47.9264    3.7668   18.0624 C   0  0  0  0  0  0  0  0  0  0  0  0
   49.1509    5.9608   18.2948 C   0  0  0  0  0  0  0  0  0  0  0  0
   48.5105    4.8052   19.0465 C   0  0  1  0  0  0  0  0  0  0  0  0
   48.3948    6.7956   17.4585 C   0  0  0  0  0  0  0  0  0  0  0  0
   46.6997    3.8886   17.7775 O   0  0  0  0  0  0  0  0  0  0  0  0
   48.7465    2.8842   17.6692 O   0  0  0  0  0  0  0  0  0  0  0  0
   49.0105    7.8332   16.7587 C   0  0  0  0  0  0  0  0  0  0  0  0
   48.2299    8.6292   15.9513 O   0  0  0  0  0  0  0  0  0  0  0  0
   48.5257    8.6097   14.6054 C   0  0  0  0  0  0  0  0  0  0  0  0
   50.5273    6.2070   18.4257 C   0  0  0  0  0  0  0  0  0  0  0  0
   51.1339    7.2659   17.7465 C   0  0  0  0  0  0  0  0  0  0  0  0
   50.3742    8.0857   16.9152 C   0  0  0  0  0  0  0  0  0  0  0  0
   47.4783    5.2987   20.0579 C   0  0  0  0  0  0  0  0  0  0  0  0
   48.8382    7.4417   13.9068 C   0  0  0  0  0  0  0  0  0  0  0  0
   48.4370    9.8269   13.9271 C   0  0  0  0  0  0  0  0  0  0  0  0
   48.6999    9.8850   12.5591 C   0  0  0  0  0  0  0  0  0  0  0  0
   49.0971    7.5015   12.5366 C   0  0  0  0  0  0  0  0  0  0  0  0
   49.0334    8.7221   11.8650 C   0  0  0  0  0  0  0  0  0  0  0  0
   47.4718    8.8260   13.5645 C   0  0  0  0  0  0  0  0  0  0  0  0
   49.4347    7.4720   14.3912 C   0  0  0  0  0  0  0  0  0  0  0  0
   48.7203    8.0084   13.1603 C   0  0  1  0  0  0  0  0  0  0  0  0
   48.8009    6.5851   15.2749 C   0  0  0  0  0  0  0  0  0  0  0  0
   46.3594    8.2258   13.4961 O   0  0  0  0  0  0  0  0  0  0  0  0
   47.7034   10.0266   13.8989 O   0  0  0  0  0  0  0  0  0  0  0  0
   49.4686    6.1310   16.4124 C   0  0  0  0  0  0  0  0  0  0  0  0
   48.8125    5.2655   17.2566 O   0  0  0  0  0  0  0  0  0  0  0  0
   48.5316    5.7437   18.5198 C   0  0  0  0  0  0  0  0  0  0  0  0
   50.7545    7.8664   14.6645 C   0  0  0  0  0  0  0  0  0  0  0  0
   51.4288    7.3850   15.7895 C   0  0  0  0  0  0  0  0  0  0  0  0
   50.7878    6.5103   16.6642 C   0  0  0  0  0  0  0  0  0  0  0  0
   48.4014    6.8878   12.1719 C   0  0  0  0  0  0  0  0  0  0  0  0
   48.6552    4.8369   19.5741 C   0  0  0  0  0  0  0  0  0  0  0  0
   48.0810    7.0433   18.7654 C   0  0  0  0  0  0  0  0  0  0  0  0
   48.3635    5.2388   20.8780 C   0  0  0  0  0  0  0  0  0  0  0  0
   47.7892    7.4428   20.0699 C   0  0  0  0  0  0  0  0  0  0  0  0
   47.9343    6.5430   21.1256 C   0  0  0  0  0  0  0  0  0  0  0  0
   48.9008    7.0132   16.4205 Ca  0  0  0  0  0 15  0  0  0  0  0  0
   48.5200    7.1260   16.3992 O   0  0  0  0  0  0  0  0  0  0  0  0
   49.1944    7.1788   15.7071 H   0  0  0  0  0  0  0  0  0  0  0  0
   48.9883    6.7352   17.1537 H   0  0  0  0  0  0  0  0  0  0  0  0
   49.2873    4.2828   19.6214 H   0  0  0  0  0  0  0  0  0  0  0  0
   47.3302    6.6102   17.3246 H   0  0  0  0  0  0  0  0  0  0  0  0
   51.1338    5.5577   19.0523 H   0  0  0  0  0  0  0  0  0  0  0  0
   52.1993    7.4404   17.8590 H   0  0  0  0  0  0  0  0  0  0  0  0
   50.8429    8.9068   16.3842 H   0  0  0  0  0  0  0  0  0  0  0  0
   46.6605    5.8531   19.5868 H   0  0  0  0  0  0  0  0  0  0  0  0
   47.0357    4.4557   20.6002 H   0  0  0  0  0  0  0  0  0  0  0  0
   47.9431    5.9639   20.7941 H   0  0  0  0  0  0  0  0  0  0  0  0
   48.8712    6.4808   14.4163 H   0  0  0  0  0  0  0  0  0  0  0  0
   48.1655   10.7256   14.4702 H   0  0  0  0  0  0  0  0  0  0  0  0
   48.6394   10.8329   12.0342 H   0  0  0  0  0  0  0  0  0  0  0  0
   49.3404    6.5900   11.9979 H   0  0  0  0  0  0  0  0  0  0  0  0
   49.2368    8.7644   10.7983 H   0  0  0  0  0  0  0  0  0  0  0  0
   49.3877    8.7088   12.6384 H   0  0  0  0  0  0  0  0  0  0  0  0
   47.7723    6.2805   15.0928 H   0  0  0  0  0  0  0  0  0  0  0  0
   51.2561    8.5671   14.0012 H   0  0  0  0  0  0  0  0  0  0  0  0
   52.4478    7.7043   15.9858 H   0  0  0  0  0  0  0  0  0  0  0  0
   51.3066    6.1386   17.5419 H   0  0  0  0  0  0  0  0  0  0  0  0
   47.7297    6.1324   12.5969 H   0  0  0  0  0  0  0  0  0  0  0  0
   49.3169    6.3744   11.8543 H   0  0  0  0  0  0  0  0  0  0  0  0
   47.9148    7.2914   11.2781 H   0  0  0  0  0  0  0  0  0  0  0  0
   48.9805    3.8200   19.3745 H   0  0  0  0  0  0  0  0  0  0  0  0
   47.9431    7.7481   17.9482 H   0  0  0  0  0  0  0  0  0  0  0  0
   48.4649    4.5348   21.6981 H   0  0  0  0  0  0  0  0  0  0  0  0
   47.4410    8.4560   20.2548 H   0  0  0  0  0  0  0  0  0  0  0  0
   47.7023    6.8585   22.1391 H   0  0  0  0  0  0  0  0  0  0  0  0
   48.9853    6.7359   17.1543 H   0  0  0  0  0  0  0  0  0  0  0  0
   49.1972    7.1777   15.7080 H   0  0  0  0  0  0  0  0  0  0  0  0
  3  4  1  0
  4  2  1  0
  5  3  2  0
  6  2  1  0
  7  2  2  0
  8  5  1  0
  9  8  1  0
 10  9  1  0
 11  3  1  0
 12 11  2  0
 13  8  2  0
 14  4  1  0
 15 10  2  0
 16 10  1  0
 17 16  2  0
 18 15  1  0
 19 17  1  0
 12 13  1  0
 18 19  2  0
 21 22  1  0
 22 20  1  0
 23 21  2  0
 24 20  1  0
 25 20  2  0
 26 23  1  0
 27 26  1  0
 28 27  1  0
 29 21  1  0
 30 29  2  0
 31 26  2  0
 32 22  1  0
 33 28  2  0
 34 28  1  0
 35 33  1  0
 36 34  2  0
 37 36  1  0
 30 31  1  0
 35 37  2  0
  1 40  1  0
  1 41  1  0
  4 42  1  1
  5 43  1  0
 11 44  1  0
 12 45  1  0
 13 46  1  0
 14 47  1  0
 14 48  1  0
 14 49  1  0
 15 50  1  0
 16 51  1  0
 17 52  1  0
 18 53  1  0
 19 54  1  0
 22 55  1  6
 23 56  1  0
 29 57  1  0
 30 58  1  0
 31 59  1  0
 32 60  1  0
 32 61  1  0
 32 62  1  0
 33 63  1  0
 34 64  1  0
 35 65  1  0
 36 66  1  0
 37 67  1  0
 39 68  1  0
 39 69  1  0
M  CHG  3   6  -1  24  -1  38   2
M  END
> <Uni-Dock RESULT> 
ENERGY=   -5.416  LOWER_BOUND=    3.701  UPPER_BOUND=    5.305
INTER + INTRA:          -5.416
INTER:                  -5.416
INTRA:                   0.000
UNBOUND:                 0.000

$$$$

     RDKit          3D

 69 68  0  0  0  0  0  0  0  0999 V2000
   48.8143    7.3570   19.8080 O   0  0  0  0  0  0  0  0  0  0  0  0
   46.6317   10.4457   20.1088 C   0  0  0  0  0  0  0  0  0  0  0  0
   48.2120    8.9428   21.3780 C   0  0  0  0  0  0  0  0  0  0  0  0
   47.6717   10.3577   21.2484 C   0  0  1  0  0  0  0  0  0  0  0  0
   48.9233    8.3348   20.3328 C   0  0  0  0  0  0  0  0  0  0  0  0
   47.0649   10.8120   18.9780 O   0  0  0  0  0  0  0  0  0  0  0  0
   45.4436   10.1638   20.4480 O   0  0  0  0  0  0  0  0  0  0  0  0
   49.3862    7.0258   20.4660 C   0  0  0  0  0  0  0  0  0  0  0  0
   50.0816    6.4694   19.4164 O   0  0  0  0  0  0  0  0  0  0  0  0
   49.5106    5.3641   18.8235 C   0  0  0  0  0  0  0  0  0  0  0  0
   47.9982    8.2149   22.5598 C   0  0  0  0  0  0  0  0  0  0  0  0
   48.4898    6.9151   22.7000 C   0  0  0  0  0  0  0  0  0  0  0  0
   49.1909    6.3197   21.6539 C   0  0  0  0  0  0  0  0  0  0  0  0
   48.7993   11.3755   21.0920 C   0  0  0  0  0  0  0  0  0  0  0  0
   48.1444    5.2589   18.5549 C   0  0  0  0  0  0  0  0  0  0  0  0
   50.3806    4.3458   18.4288 C   0  0  0  0  0  0  0  0  0  0  0  0
   49.8816    3.2045   17.8023 C   0  0  0  0  0  0  0  0  0  0  0  0
   47.6474    4.1173   17.9240 C   0  0  0  0  0  0  0  0  0  0  0  0
   48.5140    3.0895   17.5533 C   0  0  0  0  0  0  0  0  0  0  0  0
   49.7133    5.0559   17.3727 C   0  0  0  0  0  0  0  0  0  0  0  0
   48.1283    5.2859   19.3232 C   0  0  0  0  0  0  0  0  0  0  0  0
   48.4311    4.5159   18.0470 C   0  0  1  0  0  0  0  0  0  0  0  0
   47.8656    6.6642   19.2996 C   0  0  0  0  0  0  0  0  0  0  0  0
   49.5469    5.8616   16.4106 O   0  0  0  0  0  0  0  0  0  0  0  0
   50.7985    4.6062   17.8490 O   0  0  0  0  0  0  0  0  0  0  0  0
   47.6197    7.3522   20.4880 C   0  0  0  0  0  0  0  0  0  0  0  0
   47.3702    8.7034   20.4242 O   0  0  0  0  0  0  0  0  0  0  0  0
   48.3103    9.5241   21.0122 C   0  0  0  0  0  0  0  0  0  0  0  0
   48.1117    4.6184   20.5587 C   0  0  0  0  0  0  0  0  0  0  0  0
   47.8355    5.3070   21.7426 C   0  0  0  0  0  0  0  0  0  0  0  0
   47.5829    6.6767   21.7087 C   0  0  0  0  0  0  0  0  0  0  0  0
   47.2263    4.5041   17.1075 C   0  0  0  0  0  0  0  0  0  0  0  0
   47.8268   10.6461   21.6877 C   0  0  0  0  0  0  0  0  0  0  0  0
   49.6874    9.3131   20.9046 C   0  0  0  0  0  0  0  0  0  0  0  0
   48.7176   11.5377   22.2864 C   0  0  0  0  0  0  0  0  0  0  0  0
   50.5763   10.2063   21.5034 C   0  0  0  0  0  0  0  0  0  0  0  0
   50.0920   11.3150   22.1973 C   0  0  0  0  0  0  0  0  0  0  0  0
   48.5913    7.2295   20.1116 Ca  0  0  0  0  0 15  0  0  0  0  0  0
   48.8141    7.3556   19.8072 O   0  0  0  0  0  0  0  0  0  0  0  0
   48.3959    6.4899   19.9181 H   0  0  0  0  0  0  0  0  0  0  0  0
   48.5638    7.8415   20.6088 H   0  0  0  0  0  0  0  0  0  0  0  0
   47.1394   10.6196   22.1730 H   0  0  0  0  0  0  0  0  0  0  0  0
   49.0821    8.8721   19.3991 H   0  0  0  0  0  0  0  0  0  0  0  0
   47.4307    8.6613   23.3725 H   0  0  0  0  0  0  0  0  0  0  0  0
   48.3140    6.3673   23.6204 H   0  0  0  0  0  0  0  0  0  0  0  0
   49.5712    5.3097   21.7587 H   0  0  0  0  0  0  0  0  0  0  0  0
   49.4086   11.1936   20.2010 H   0  0  0  0  0  0  0  0  0  0  0  0
   48.3946   12.3907   21.0131 H   0  0  0  0  0  0  0  0  0  0  0  0
   49.4698   11.3484   21.9581 H   0  0  0  0  0  0  0  0  0  0  0  0
   47.4616    6.0632   18.8214 H   0  0  0  0  0  0  0  0  0  0  0  0
   51.4443    4.4465   18.6145 H   0  0  0  0  0  0  0  0  0  0  0  0
   50.5572    2.4095   17.5038 H   0  0  0  0  0  0  0  0  0  0  0  0
   46.5836    4.0403   17.7179 H   0  0  0  0  0  0  0  0  0  0  0  0
   48.1228    2.2019   17.0634 H   0  0  0  0  0  0  0  0  0  0  0  0
   48.6402    3.4679   18.3048 H   0  0  0  0  0  0  0  0  0  0  0  0
   47.8913    7.2052   18.3559 H   0  0  0  0  0  0  0  0  0  0  0  0
   48.3308    3.5540   20.5994 H   0  0  0  0  0  0  0  0  0  0  0  0
   47.8307    4.7741   22.6885 H   0  0  0  0  0  0  0  0  0  0  0  0
   47.3733    7.2159   22.6269 H   0  0  0  0  0  0  0  0  0  0  0  0
   46.9379    5.5110   16.7830 H   0  0  0  0  0  0  0  0  0  0  0  0
   46.3544    4.0520   17.5954 H   0  0  0  0  0  0  0  0  0  0  0  0
   47.4474    3.9218   16.2072 H   0  0  0  0  0  0  0  0  0  0  0  0
   46.7562   10.8198   21.7459 H   0  0  0  0  0  0  0  0  0  0  0  0
   50.0784    8.4640   20.3480 H   0  0  0  0  0  0  0  0  0  0  0  0
   48.3408   12.4072   22.8162 H   0  0  0  0  0  0  0  0  0  0  0  0
   51.6466   10.0356   21.4179 H   0  0  0  0  0  0  0  0  0  0  0  0
   50.7888   12.0093   22.6587 H   0  0  0  0  0  0  0  0  0  0  0  0
   48.5656    7.8432   20.6068 H   0  0  0  0  0  0  0  0  0  0  0  0
   48.3942    6.4897   19.9208 H   0  0  0  0  0  0  0  0  0  0  0  0
  3  4  1  0
  4  2  1  0
  5  3  2  0
  6  2  1  0
  7  2  2  0
  8  5  1  0
  9  8  1  0
 10  9  1  0
 11  3  1  0
 12 11  2  0
 13  8  2  0
 14  4  1  0
 15 10  2  0
 16 10  1  0
 17 16  2  0
 18 15  1  0
 19 17  1  0
 12 13  1  0
 18 19  2  0
 21 22  1  0
 22 20  1  0
 23 21  2  0
 24 20  1  0
 25 20  2  0
 26 23  1  0
 27 26  1  0
 28 27  1  0
 29 21  1  0
 30 29  2  0
 31 26  2  0
 32 22  1  0
 33 28  2  0
 34 28  1  0
 35 33  1  0
 36 34  2  0
 37 36  1  0
 30 31  1  0
 35 37  2  0
  1 40  1  0
  1 41  1  0
  4 42  1  1
  5 43  1  0
 11 44  1  0
 12 45  1  0
 13 46  1  0
 14 47  1  0
 14 48  1  0
 14 49  1  0
 15 50  1  0
 16 51  1  0
 17 52  1  0
 18 53  1  0
 19 54  1  0
 22 55  1  6
 23 56  1  0
 29 57  1  0
 30 58  1  0
 31 59  1  0
 32 60  1  0
 32 61  1  0
 32 62  1  0
 33 63  1  0
 34 64  1  0
 35 65  1  0
 36 66  1  0
 37 67  1  0
 39 68  1  0
 39 69  1  0
M  CHG  3   6  -1  24  -1  38   2
M  END
> <Uni-Dock RESULT> 
ENERGY=   -5.414  LOWER_BOUND=    0.914  UPPER_BOUND=    5.931
INTER + INTRA:          -5.414
INTER:                  -5.414
INTRA:                   0.000
UNBOUND:                 0.000

$$$$

     RDKit          3D

 69 68  0  0  0  0  0  0  0  0999 V2000
   48.2262    9.0105   19.1376 O   0  0  0  0  0  0  0  0  0  0  0  0
   46.6493   12.2265   20.3884 C   0  0  0  0  0  0  0  0  0  0  0  0
   48.6691   11.2779   19.2106 C   0  0  0  0  0  0  0  0  0  0  0  0
   47.7669   12.4927   19.3551 C   0  0  1  0  0  0  0  0  0  0  0  0
   48.1726   10.0520   18.7429 C   0  0  0  0  0  0  0  0  0  0  0  0
   45.5443   11.8151   19.9297 O   0  0  0  0  0  0  0  0  0  0  0  0
   46.9623   12.4800   21.5901 O   0  0  0  0  0  0  0  0  0  0  0  0
   49.0148    8.9445   18.6441 C   0  0  0  0  0  0  0  0  0  0  0  0
   48.4861    7.7620   18.1780 O   0  0  0  0  0  0  0  0  0  0  0  0
   48.5013    6.6989   19.0548 C   0  0  0  0  0  0  0  0  0  0  0  0
   50.0280   11.3675   19.5533 C   0  0  0  0  0  0  0  0  0  0  0  0
   50.8741   10.2638   19.4241 C   0  0  0  0  0  0  0  0  0  0  0  0
   50.3694    9.0502   18.9629 C   0  0  0  0  0  0  0  0  0  0  0  0
   47.2192   12.9473   18.0041 C   0  0  0  0  0  0  0  0  0  0  0  0
   48.1891    6.8197   20.4104 C   0  0  0  0  0  0  0  0  0  0  0  0
   48.7861    5.4442   18.5126 C   0  0  0  0  0  0  0  0  0  0  0  0
   48.7990    4.3159   19.3316 C   0  0  0  0  0  0  0  0  0  0  0  0
   48.1985    5.6883   21.2277 C   0  0  0  0  0  0  0  0  0  0  0  0
   48.5083    4.4393   20.6902 C   0  0  0  0  0  0  0  0  0  0  0  0
   47.4531    5.6310   19.0156 C   0  0  0  0  0  0  0  0  0  0  0  0
   48.8245    7.2517   20.3801 C   0  0  0  0  0  0  0  0  0  0  0  0
   48.1751    5.8765   20.3605 C   0  0  1  0  0  0  0  0  0  0  0  0
   48.0596    8.4223   20.2622 C   0  0  0  0  0  0  0  0  0  0  0  0
   46.2010    5.8173   19.0065 O   0  0  0  0  0  0  0  0  0  0  0  0
   48.2017    5.2422   18.0694 O   0  0  0  0  0  0  0  0  0  0  0  0
   48.6831    9.6702   20.2537 C   0  0  0  0  0  0  0  0  0  0  0  0
   47.8996   10.7943   20.1324 O   0  0  0  0  0  0  0  0  0  0  0  0
   48.0663   11.5302   18.9776 C   0  0  0  0  0  0  0  0  0  0  0  0
   50.2176    7.3684   20.5143 C   0  0  0  0  0  0  0  0  0  0  0  0
   50.8338    8.6221   20.5350 C   0  0  0  0  0  0  0  0  0  0  0  0
   50.0657    9.7777   20.4102 C   0  0  0  0  0  0  0  0  0  0  0  0
   47.2621    5.6772   21.5692 C   0  0  0  0  0  0  0  0  0  0  0  0
   48.0048   12.9190   19.1061 C   0  0  0  0  0  0  0  0  0  0  0  0
   48.2255   10.9519   17.7156 C   0  0  0  0  0  0  0  0  0  0  0  0
   48.1385   13.7307   17.9791 C   0  0  0  0  0  0  0  0  0  0  0  0
   48.3582   11.7654   16.5900 C   0  0  0  0  0  0  0  0  0  0  0  0
   48.3192   13.1533   16.7219 C   0  0  0  0  0  0  0  0  0  0  0  0
   48.5272    9.1245   19.3713 Ca  0  0  0  0  0 15  0  0  0  0  0  0
   48.2263    9.0090   19.1382 O   0  0  0  0  0  0  0  0  0  0  0  0
   48.7286    8.4731   19.7683 H   0  0  0  0  0  0  0  0  0  0  0  0
   48.6269    9.8899   19.2078 H   0  0  0  0  0  0  0  0  0  0  0  0
   48.3597   13.3291   19.7500 H   0  0  0  0  0  0  0  0  0  0  0  0
   47.1177    9.9532   18.4920 H   0  0  0  0  0  0  0  0  0  0  0  0
   50.4262   12.3030   19.9381 H   0  0  0  0  0  0  0  0  0  0  0  0
   51.9216   10.3514   19.6949 H   0  0  0  0  0  0  0  0  0  0  0  0
   51.0232    8.1909   18.8644 H   0  0  0  0  0  0  0  0  0  0  0  0
   46.6210   12.1739   17.5118 H   0  0  0  0  0  0  0  0  0  0  0  0
   46.5821   13.8307   18.1234 H   0  0  0  0  0  0  0  0  0  0  0  0
   48.0357   13.2124   17.3232 H   0  0  0  0  0  0  0  0  0  0  0  0
   47.9262    7.7857   20.8368 H   0  0  0  0  0  0  0  0  0  0  0  0
   48.9996    5.3530   17.4532 H   0  0  0  0  0  0  0  0  0  0  0  0
   49.0291    3.3423   18.9113 H   0  0  0  0  0  0  0  0  0  0  0  0
   47.9554    5.7878   22.2819 H   0  0  0  0  0  0  0  0  0  0  0  0
   48.5156    3.5612   21.3302 H   0  0  0  0  0  0  0  0  0  0  0  0
   48.9608    5.1108   20.4292 H   0  0  0  0  0  0  0  0  0  0  0  0
   46.9806    8.3551   20.1388 H   0  0  0  0  0  0  0  0  0  0  0  0
   50.8290    6.4722   20.5887 H   0  0  0  0  0  0  0  0  0  0  0  0
   51.9126    8.6917   20.6360 H   0  0  0  0  0  0  0  0  0  0  0  0
   50.5416   10.7530   20.4204 H   0  0  0  0  0  0  0  0  0  0  0  0
   46.4331    6.3945   21.5913 H   0  0  0  0  0  0  0  0  0  0  0  0
   47.8222    5.7910   22.5053 H   0  0  0  0  0  0  0  0  0  0  0  0
   46.8251    4.6735   21.5588 H   0  0  0  0  0  0  0  0  0  0  0  0
   47.8544   13.3631   20.0859 H   0  0  0  0  0  0  0  0  0  0  0  0
   48.2361    9.8705   17.5965 H   0  0  0  0  0  0  0  0  0  0  0  0
   48.0960   14.8107   18.0804 H   0  0  0  0  0  0  0  0  0  0  0  0
   48.4840   11.3094   15.6110 H   0  0  0  0  0  0  0  0  0  0  0  0
   48.4196   13.7820   15.8415 H   0  0  0  0  0  0  0  0  0  0  0  0
   48.6245    9.8898   19.2057 H   0  0  0  0  0  0  0  0  0  0  0  0
   48.7309    8.4747   19.7699 H   0  0  0  0  0  0  0  0  0  0  0  0
  3  4  1  0
  4  2  1  0
  5  3  2  0
  6  2  1  0
  7  2  2  0
  8  5  1  0
  9  8  1  0
 10  9  1  0
 11  3  1  0
 12 11  2  0
 13  8  2  0
 14  4  1  0
 15 10  2  0
 16 10  1  0
 17 16  2  0
 18 15  1  0
 19 17  1  0
 12 13  1  0
 18 19  2  0
 21 22  1  0
 22 20  1  0
 23 21  2  0
 24 20  1  0
 25 20  2  0
 26 23  1  0
 27 26  1  0
 28 27  1  0
 29 21  1  0
 30 29  2  0
 31 26  2  0
 32 22  1  0
 33 28  2  0
 34 28  1  0
 35 33  1  0
 36 34  2  0
 37 36  1  0
 30 31  1  0
 35 37  2  0
  1 40  1  0
  1 41  1  0
  4 42  1  1
  5 43  1  0
 11 44  1  0
 12 45  1  0
 13 46  1  0
 14 47  1  0
 14 48  1  0
 14 49  1  0
 15 50  1  0
 16 51  1  0
 17 52  1  0
 18 53  1  0
 19 54  1  0
 22 55  1  6
 23 56  1  0
 29 57  1  0
 30 58  1  0
 31 59  1  0
 32 60  1  0
 32 61  1  0
 32 62  1  0
 33 63  1  0
 34 64  1  0
 35 65  1  0
 36 66  1  0
 37 67  1  0
 39 68  1  0
 39 69  1  0
M  CHG  3   6  -1  24  -1  38   2
M  END
> <Uni-Dock RESULT> 
ENERGY=   -5.132  LOWER_BOUND=    1.685  UPPER_BOUND=    6.096
INTER + INTRA:          -5.132
INTER:                  -5.132
INTRA:                   0.000
UNBOUND:                 0.000

$$$$

     RDKit          3D

 69 68  0  0  0  0  0  0  0  0999 V2000
   51.8000    3.7646   18.9766 O   0  0  0  0  0  0  0  0  0  0  0  0
   54.4912    1.2611   18.0363 C   0  0  0  0  0  0  0  0  0  0  0  0
   54.0997    3.6401   18.7807 C   0  0  0  0  0  0  0  0  0  0  0  0
   55.0674    2.4682   18.8101 C   0  0  1  0  0  0  0  0  0  0  0  0
   52.8249    3.5483   19.3590 C   0  0  0  0  0  0  0  0  0  0  0  0
   53.8699    0.3976   18.7211 O   0  0  0  0  0  0  0  0  0  0  0  0
   54.7335    1.2600   16.7923 O   0  0  0  0  0  0  0  0  0  0  0  0
   51.9451    4.6288   19.2958 C   0  0  0  0  0  0  0  0  0  0  0  0
   50.7051    4.4957   19.8787 O   0  0  0  0  0  0  0  0  0  0  0  0
   49.6204    4.5845   19.0332 C   0  0  0  0  0  0  0  0  0  0  0  0
   54.4729    4.8437   18.1609 C   0  0  0  0  0  0  0  0  0  0  0  0
   53.5996    5.9332   18.1266 C   0  0  0  0  0  0  0  0  0  0  0  0
   52.3345    5.8293   18.7002 C   0  0  0  0  0  0  0  0  0  0  0  0
   55.4696    2.1100   20.2390 C   0  0  0  0  0  0  0  0  0  0  0  0
   49.5826    3.9888   17.7708 C   0  0  0  0  0  0  0  0  0  0  0  0
   48.4990    5.2576   19.5219 C   0  0  0  0  0  0  0  0  0  0  0  0
   47.3540    5.3709   18.7344 C   0  0  0  0  0  0  0  0  0  0  0  0
   48.4340    4.0999   16.9857 C   0  0  0  0  0  0  0  0  0  0  0  0
   47.3235    4.7945   17.4646 C   0  0  0  0  0  0  0  0  0  0  0  0
   48.3476    3.8452   19.3053 C   0  0  0  0  0  0  0  0  0  0  0  0
   50.1482    4.4982   17.6619 C   0  0  0  0  0  0  0  0  0  0  0  0
   48.6657    4.2065   17.8360 C   0  0  1  0  0  0  0  0  0  0  0  0
   51.1203    3.5196   17.9199 C   0  0  0  0  0  0  0  0  0  0  0  0
   48.2459    2.6120   19.5725 O   0  0  0  0  0  0  0  0  0  0  0  0
   48.1981    4.8373   20.0800 O   0  0  0  0  0  0  0  0  0  0  0  0
   52.4750    3.8222   17.7806 C   0  0  0  0  0  0  0  0  0  0  0  0
   53.3979    2.8375   18.0464 O   0  0  0  0  0  0  0  0  0  0  0  0
   54.2231    3.0539   19.1306 C   0  0  0  0  0  0  0  0  0  0  0  0
   50.5685    5.7696   17.2386 C   0  0  0  0  0  0  0  0  0  0  0  0
   51.9254    6.0581   17.0721 C   0  0  0  0  0  0  0  0  0  0  0  0
   52.8826    5.0814   17.3378 C   0  0  0  0  0  0  0  0  0  0  0  0
   48.1899    3.1434   16.8471 C   0  0  0  0  0  0  0  0  0  0  0  0
   55.5511    2.6443   18.9979 C   0  0  0  0  0  0  0  0  0  0  0  0
   53.7756    3.5925   20.3397 C   0  0  0  0  0  0  0  0  0  0  0  0
   56.4408    2.8061   20.0606 C   0  0  0  0  0  0  0  0  0  0  0  0
   54.6668    3.7527   21.4013 C   0  0  0  0  0  0  0  0  0  0  0  0
   55.9988    3.3640   21.2606 C   0  0  0  0  0  0  0  0  0  0  0  0
   51.9643    3.9777   18.6838 Ca  0  0  0  0  0 15  0  0  0  0  0  0
   51.7985    3.7649   18.9760 O   0  0  0  0  0  0  0  0  0  0  0  0
   51.3519    4.2428   18.2628 H   0  0  0  0  0  0  0  0  0  0  0  0
   52.7411    3.9258   18.8119 H   0  0  0  0  0  0  0  0  0  0  0  0
   55.9899    2.7575   18.2884 H   0  0  0  0  0  0  0  0  0  0  0  0
   52.5057    2.6177   19.8257 H   0  0  0  0  0  0  0  0  0  0  0  0
   55.4485    4.9268   17.6883 H   0  0  0  0  0  0  0  0  0  0  0  0
   53.9050    6.8554   17.6422 H   0  0  0  0  0  0  0  0  0  0  0  0
   51.6533    6.6724   18.6725 H   0  0  0  0  0  0  0  0  0  0  0  0
   54.6132    1.8202   20.8561 H   0  0  0  0  0  0  0  0  0  0  0  0
   56.1767    1.2730   20.2425 H   0  0  0  0  0  0  0  0  0  0  0  0
   55.9545    2.9605   20.7309 H   0  0  0  0  0  0  0  0  0  0  0  0
   50.4355    3.4273   17.3949 H   0  0  0  0  0  0  0  0  0  0  0  0
   48.5248    5.6933   20.5148 H   0  0  0  0  0  0  0  0  0  0  0  0
   46.4860    5.9018   19.1113 H   0  0  0  0  0  0  0  0  0  0  0  0
   48.4099    3.6351   16.0040 H   0  0  0  0  0  0  0  0  0  0  0  0
   46.4316    4.8797   16.8496 H   0  0  0  0  0  0  0  0  0  0  0  0
   48.0950    5.1198   17.6160 H   0  0  0  0  0  0  0  0  0  0  0  0
   50.8185    2.5333   18.2665 H   0  0  0  0  0  0  0  0  0  0  0  0
   49.8311    6.5465   17.0512 H   0  0  0  0  0  0  0  0  0  0  0  0
   52.2309    7.0480   16.7474 H   0  0  0  0  0  0  0  0  0  0  0  0
   53.9378    5.3035   17.2147 H   0  0  0  0  0  0  0  0  0  0  0  0
   48.6982    2.1821   16.9881 H   0  0  0  0  0  0  0  0  0  0  0  0
   48.3688    3.4630   15.8134 H   0  0  0  0  0  0  0  0  0  0  0  0
   47.1160    2.9649   16.9627 H   0  0  0  0  0  0  0  0  0  0  0  0
   55.8876    2.2018   18.0648 H   0  0  0  0  0  0  0  0  0  0  0  0
   52.7343    3.8798   20.4695 H   0  0  0  0  0  0  0  0  0  0  0  0
   57.4746    2.4924   19.9550 H   0  0  0  0  0  0  0  0  0  0  0  0
   54.3130    4.1743   22.3389 H   0  0  0  0  0  0  0  0  0  0  0  0
   56.6876    3.4878   22.0917 H   0  0  0  0  0  0  0  0  0  0  0  0
   52.7406    3.9240   18.8145 H   0  0  0  0  0  0  0  0  0  0  0  0
   51.3539    4.2443   18.2608 H   0  0  0  0  0  0  0  0  0  0  0  0
  3  4  1  0
  4  2  1  0
  5  3  2  0
  6  2  1  0
  7  2  2  0
  8  5  1  0
  9  8  1  0
 10  9  1  0
 11  3  1  0
 12 11  2  0
 13  8  2  0
 14  4  1  0
 15 10  2  0
 16 10  1  0
 17 16  2  0
 18 15  1  0
 19 17  1  0
 12 13  1  0
 18 19  2  0
 21 22  1  0
 22 20  1  0
 23 21  2  0
 24 20  1  0
 25 20  2  0
 26 23  1  0
 27 26  1  0
 28 27  1  0
 29 21  1  0
 30 29  2  0
 31 26  2  0
 32 22  1  0
 33 28  2  0
 34 28  1  0
 35 33  1  0
 36 34  2  0
 37 36  1  0
 30 31  1  0
 35 37  2  0
  1 40  1  0
  1 41  1  0
  4 42  1  1
  5 43  1  0
 11 44  1  0
 12 45  1  0
 13 46  1  0
 14 47  1  0
 14 48  1  0
 14 49  1  0
 15 50  1  0
 16 51  1  0
 17 52  1  0
 18 53  1  0
 19 54  1  0
 22 55  1  6
 23 56  1  0
 29 57  1  0
 30 58  1  0
 31 59  1  0
 32 60  1  0
 32 61  1  0
 32 62  1  0
 33 63  1  0
 34 64  1  0
 35 65  1  0
 36 66  1  0
 37 67  1  0
 39 68  1  0
 39 69  1  0
M  CHG  3   6  -1  24  -1  38   2
M  END
> <Uni-Dock RESULT> 
ENERGY=   -5.003  LOWER_BOUND=    3.566  UPPER_BOUND=    6.290
INTER + INTRA:          -5.003
INTER:                  -5.003
INTRA:                   0.000
UNBOUND:                 0.000

$$$$

     RDKit          3D

 69 68  0  0  0  0  0  0  0  0999 V2000
   48.4458    7.9553   19.0583 O   0  0  0  0  0  0  0  0  0  0  0  0
   50.2515   10.5537   21.1516 C   0  0  0  0  0  0  0  0  0  0  0  0
   48.6774   10.2505   19.2030 C   0  0  0  0  0  0  0  0  0  0  0  0
   49.0861   11.1680   20.3439 C   0  0  1  0  0  0  0  0  0  0  0  0
   48.1724    8.9644   19.4461 C   0  0  0  0  0  0  0  0  0  0  0  0
   49.9347    9.8867   22.1790 O   0  0  0  0  0  0  0  0  0  0  0  0
   51.4075   10.8143   20.7024 O   0  0  0  0  0  0  0  0  0  0  0  0
   47.8290    8.1314   18.3812 C   0  0  0  0  0  0  0  0  0  0  0  0
   47.3352    6.8784   18.6658 O   0  0  0  0  0  0  0  0  0  0  0  0
   48.0858    5.8112   18.2222 C   0  0  0  0  0  0  0  0  0  0  0  0
   48.8072   10.6827   17.8731 C   0  0  0  0  0  0  0  0  0  0  0  0
   48.4337    9.8562   16.8110 C   0  0  0  0  0  0  0  0  0  0  0  0
   47.9377    8.5794   17.0639 C   0  0  0  0  0  0  0  0  0  0  0  0
   47.8925   11.5334   21.2235 C   0  0  0  0  0  0  0  0  0  0  0  0
   49.4791    5.7674   18.3055 C   0  0  0  0  0  0  0  0  0  0  0  0
   47.3806    4.7116   17.7292 C   0  0  0  0  0  0  0  0  0  0  0  0
   48.0683    3.5842   17.2816 C   0  0  0  0  0  0  0  0  0  0  0  0
   50.1652    4.6364   17.8606 C   0  0  0  0  0  0  0  0  0  0  0  0
   49.4612    3.5487   17.3445 C   0  0  0  0  0  0  0  0  0  0  0  0
   48.1054    4.5047   18.9526 C   0  0  0  0  0  0  0  0  0  0  0  0
   49.3922    6.3554   17.8175 C   0  0  0  0  0  0  0  0  0  0  0  0
   49.3364    4.8596   18.0871 C   0  0  1  0  0  0  0  0  0  0  0  0
   49.5169    7.2819   18.8640 C   0  0  0  0  0  0  0  0  0  0  0  0
   48.3144    4.3477   20.1912 O   0  0  0  0  0  0  0  0  0  0  0  0
   47.0178    4.3851   18.3126 O   0  0  0  0  0  0  0  0  0  0  0  0
   49.5362    8.6499   18.5916 C   0  0  0  0  0  0  0  0  0  0  0  0
   49.6558    9.5270   19.6445 O   0  0  0  0  0  0  0  0  0  0  0  0
   48.5700   10.3441   19.8819 C   0  0  0  0  0  0  0  0  0  0  0  0
   49.3145    6.8346   16.4997 C   0  0  0  0  0  0  0  0  0  0  0  0
   49.3642    8.2047   16.2304 C   0  0  0  0  0  0  0  0  0  0  0  0
   49.4811    9.1163   17.2773 C   0  0  0  0  0  0  0  0  0  0  0  0
   50.6483    4.3548   18.6858 C   0  0  0  0  0  0  0  0  0  0  0  0
   48.8471   11.6558   20.2715 C   0  0  0  0  0  0  0  0  0  0  0  0
   47.2467    9.9014   19.8105 C   0  0  0  0  0  0  0  0  0  0  0  0
   47.8015   12.5353   20.5546 C   0  0  0  0  0  0  0  0  0  0  0  0
   46.2027   10.7824   20.0946 C   0  0  0  0  0  0  0  0  0  0  0  0
   46.4796   12.0990   20.4620 C   0  0  0  0  0  0  0  0  0  0  0  0
   48.6389    8.1327   18.7594 Ca  0  0  0  0  0 15  0  0  0  0  0  0
   48.4462    7.9538   19.0578 O   0  0  0  0  0  0  0  0  0  0  0  0
   48.9307    7.5383   18.3304 H   0  0  0  0  0  0  0  0  0  0  0  0
   48.5404    8.9047   18.8894 H   0  0  0  0  0  0  0  0  0  0  0  0
   49.4647   12.1095   19.9230 H   0  0  0  0  0  0  0  0  0  0  0  0
   48.0836    8.5998   20.4682 H   0  0  0  0  0  0  0  0  0  0  0  0
   49.2168   11.6679   17.6642 H   0  0  0  0  0  0  0  0  0  0  0  0
   48.5421   10.2070   15.7895 H   0  0  0  0  0  0  0  0  0  0  0  0
   47.6497    7.9344   16.2414 H   0  0  0  0  0  0  0  0  0  0  0  0
   47.4256   10.6565   21.6831 H   0  0  0  0  0  0  0  0  0  0  0  0
   48.2008   12.2049   22.0326 H   0  0  0  0  0  0  0  0  0  0  0  0
   47.1211   12.0459   20.6382 H   0  0  0  0  0  0  0  0  0  0  0  0
   50.0377    6.6018   18.7248 H   0  0  0  0  0  0  0  0  0  0  0  0
   46.2970    4.7406   17.6939 H   0  0  0  0  0  0  0  0  0  0  0  0
   47.5200    2.7335   16.8903 H   0  0  0  0  0  0  0  0  0  0  0  0
   51.2492    4.6077   17.9271 H   0  0  0  0  0  0  0  0  0  0  0  0
   49.9994    2.6705   16.9982 H   0  0  0  0  0  0  0  0  0  0  0  0
   49.2012    4.3307   17.1329 H   0  0  0  0  0  0  0  0  0  0  0  0
   49.5604    6.9341   19.8941 H   0  0  0  0  0  0  0  0  0  0  0  0
   49.1993    6.1330   15.6768 H   0  0  0  0  0  0  0  0  0  0  0  0
   49.2991    8.5560   15.2051 H   0  0  0  0  0  0  0  0  0  0  0  0
   49.5146   10.1815   17.0723 H   0  0  0  0  0  0  0  0  0  0  0  0
   50.8746    4.8205   19.6524 H   0  0  0  0  0  0  0  0  0  0  0  0
   51.4901    4.5624   18.0142 H   0  0  0  0  0  0  0  0  0  0  0  0
   50.6054    3.2728   18.8468 H   0  0  0  0  0  0  0  0  0  0  0  0
   49.8783   11.9875   20.3512 H   0  0  0  0  0  0  0  0  0  0  0  0
   47.0181    8.8711   19.5460 H   0  0  0  0  0  0  0  0  0  0  0  0
   48.0175   13.5567   20.8522 H   0  0  0  0  0  0  0  0  0  0  0  0
   45.1751   10.4325   20.0352 H   0  0  0  0  0  0  0  0  0  0  0  0
   45.6629   12.7799   20.6856 H   0  0  0  0  0  0  0  0  0  0  0  0
   48.5387    8.9040   18.8920 H   0  0  0  0  0  0  0  0  0  0  0  0
   48.9320    7.5404   18.3283 H   0  0  0  0  0  0  0  0  0  0  0  0
  3  4  1  0
  4  2  1  0
  5  3  2  0
  6  2  1  0
  7  2  2  0
  8  5  1  0
  9  8  1  0
 10  9  1  0
 11  3  1  0
 12 11  2  0
 13  8  2  0
 14  4  1  0
 15 10  2  0
 16 10  1  0
 17 16  2  0
 18 15  1  0
 19 17  1  0
 12 13  1  0
 18 19  2  0
 21 22  1  0
 22 20  1  0
 23 21  2  0
 24 20  1  0
 25 20  2  0
 26 23  1  0
 27 26  1  0
 28 27  1  0
 29 21  1  0
 30 29  2  0
 31 26  2  0
 32 22  1  0
 33 28  2  0
 34 28  1  0
 35 33  1  0
 36 34  2  0
 37 36  1  0
 30 31  1  0
 35 37  2  0
  1 40  1  0
  1 41  1  0
  4 42  1  1
  5 43  1  0
 11 44  1  0
 12 45  1  0
 13 46  1  0
 14 47  1  0
 14 48  1  0
 14 49  1  0
 15 50  1  0
 16 51  1  0
 17 52  1  0
 18 53  1  0
 19 54  1  0
 22 55  1  6
 23 56  1  0
 29 57  1  0
 30 58  1  0
 31 59  1  0
 32 60  1  0
 32 61  1  0
 32 62  1  0
 33 63  1  0
 34 64  1  0
 35 65  1  0
 36 66  1  0
 37 67  1  0
 39 68  1  0
 39 69  1  0
M  CHG  3   6  -1  24  -1  38   2
M  END
> <Uni-Dock RESULT> 
ENERGY=   -4.967  LOWER_BOUND=    1.817  UPPER_BOUND=    6.010
INTER + INTRA:          -4.967
INTER:                  -4.967
INTRA:                   0.000
UNBOUND:                 0.000

$$$$

     RDKit          3D

 69 68  0  0  0  0  0  0  0  0999 V2000
   48.6137    9.0470   20.1822 O   0  0  0  0  0  0  0  0  0  0  0  0
   46.4124   12.0749   19.5653 C   0  0  0  0  0  0  0  0  0  0  0  0
   48.0145   11.0286   21.2101 C   0  0  0  0  0  0  0  0  0  0  0  0
   47.4632   12.3372   20.6675 C   0  0  1  0  0  0  0  0  0  0  0  0
   48.7206   10.1377   20.3881 C   0  0  0  0  0  0  0  0  0  0  0  0
   46.8328   12.0864   18.3721 O   0  0  0  0  0  0  0  0  0  0  0  0
   45.2293   11.9031   19.9861 O   0  0  0  0  0  0  0  0  0  0  0  0
   49.1938    8.9309   20.9032 C   0  0  0  0  0  0  0  0  0  0  0  0
   49.8835    8.0878   20.0615 O   0  0  0  0  0  0  0  0  0  0  0  0
   49.3150    6.8532   19.8340 C   0  0  0  0  0  0  0  0  0  0  0  0
   47.8165   10.6883   22.5581 C   0  0  0  0  0  0  0  0  0  0  0  0
   48.3184    9.4925   23.0768 C   0  0  0  0  0  0  0  0  0  0  0  0
   49.0141    8.6132   22.2502 C   0  0  0  0  0  0  0  0  0  0  0  0
   48.5822   13.2655   20.2008 C   0  0  0  0  0  0  0  0  0  0  0  0
   47.9471    6.6668   19.6239 C   0  0  0  0  0  0  0  0  0  0  0  0
   50.1884    5.7668   19.7538 C   0  0  0  0  0  0  0  0  0  0  0  0
   49.6918    4.4881   19.5043 C   0  0  0  0  0  0  0  0  0  0  0  0
   47.4525    5.3866   19.3702 C   0  0  0  0  0  0  0  0  0  0  0  0
   48.3229    4.2983   19.3159 C   0  0  0  0  0  0  0  0  0  0  0  0
   49.5068    6.1245   18.5405 C   0  0  0  0  0  0  0  0  0  0  0  0
   47.9378    6.9232   20.3489 C   0  0  0  0  0  0  0  0  0  0  0  0
   48.2345    5.8067   19.3595 C   0  0  1  0  0  0  0  0  0  0  0  0
   47.6653    8.2298   19.9154 C   0  0  0  0  0  0  0  0  0  0  0  0
   49.3260    6.6035   17.3828 O   0  0  0  0  0  0  0  0  0  0  0  0
   50.5993    5.8428   19.1182 O   0  0  0  0  0  0  0  0  0  0  0  0
   47.4254    9.2418   20.8450 C   0  0  0  0  0  0  0  0  0  0  0  0
   47.1658   10.5106   20.3812 O   0  0  0  0  0  0  0  0  0  0  0  0
   48.1055   11.4736   20.6857 C   0  0  0  0  0  0  0  0  0  0  0  0
   47.9370    6.6574   21.7278 C   0  0  0  0  0  0  0  0  0  0  0  0
   47.6667    7.6686   22.6533 C   0  0  0  0  0  0  0  0  0  0  0  0
   47.4043    8.9639   22.2125 C   0  0  0  0  0  0  0  0  0  0  0  0
   47.0214    5.5087   18.4798 C   0  0  0  0  0  0  0  0  0  0  0  0
   47.6203   12.7448   20.9984 C   0  0  0  0  0  0  0  0  0  0  0  0
   49.4829   11.2455   20.6316 C   0  0  0  0  0  0  0  0  0  0  0  0
   48.5101   13.7786   21.2922 C   0  0  0  0  0  0  0  0  0  0  0  0
   50.3709   12.2809   20.9252 C   0  0  0  0  0  0  0  0  0  0  0  0
   49.8852   13.5448   21.2593 C   0  0  0  0  0  0  0  0  0  0  0  0
   48.3944    9.0156   20.5125 Ca  0  0  0  0  0 15  0  0  0  0  0  0
   48.6135    9.0454   20.1819 O   0  0  0  0  0  0  0  0  0  0  0  0
   48.2024    8.2514   20.5520 H   0  0  0  0  0  0  0  0  0  0  0  0
   48.3670    9.7486   20.8033 H   0  0  0  0  0  0  0  0  0  0  0  0
   46.9375   12.8625   21.4765 H   0  0  0  0  0  0  0  0  0  0  0  0
   48.8672   10.3705   19.3346 H   0  0  0  0  0  0  0  0  0  0  0  0
   47.2532   11.3558   23.2054 H   0  0  0  0  0  0  0  0  0  0  0  0
   48.1547    9.2456   24.1210 H   0  0  0  0  0  0  0  0  0  0  0  0
   49.4024    7.6828   22.6493 H   0  0  0  0  0  0  0  0  0  0  0  0
   49.1847   12.8269   19.3990 H   0  0  0  0  0  0  0  0  0  0  0  0
   48.1697   14.2085   19.8251 H   0  0  0  0  0  0  0  0  0  0  0  0
   49.2607   13.5024   21.0279 H   0  0  0  0  0  0  0  0  0  0  0  0
   47.2612    7.5113   19.6440 H   0  0  0  0  0  0  0  0  0  0  0  0
   51.2531    5.9228   19.8894 H   0  0  0  0  0  0  0  0  0  0  0  0
   50.3702    3.6429   19.4509 H   0  0  0  0  0  0  0  0  0  0  0  0
   46.3874    5.2470   19.2081 H   0  0  0  0  0  0  0  0  0  0  0  0
   47.9335    3.3030   19.1192 H   0  0  0  0  0  0  0  0  0  0  0  0
   48.4532    4.8854   19.9177 H   0  0  0  0  0  0  0  0  0  0  0  0
   47.6787    8.4626   18.8526 H   0  0  0  0  0  0  0  0  0  0  0  0
   48.1639    5.6552   22.0838 H   0  0  0  0  0  0  0  0  0  0  0  0
   47.6741    7.4443   23.7155 H   0  0  0  0  0  0  0  0  0  0  0  0
   47.1992    9.7530   22.9287 H   0  0  0  0  0  0  0  0  0  0  0  0
   46.7230    6.3706   17.8711 H   0  0  0  0  0  0  0  0  0  0  0  0
   46.1570    5.2205   19.0902 H   0  0  0  0  0  0  0  0  0  0  0  0
   47.2384    4.6838   17.7935 H   0  0  0  0  0  0  0  0  0  0  0  0
   46.5491   12.9238   21.0132 H   0  0  0  0  0  0  0  0  0  0  0  0
   49.8748   10.2700   20.3514 H   0  0  0  0  0  0  0  0  0  0  0  0
   48.1321   14.7654   21.5406 H   0  0  0  0  0  0  0  0  0  0  0  0
   51.4416   12.0965   20.8834 H   0  0  0  0  0  0  0  0  0  0  0  0
   50.5813   14.3483   21.4836 H   0  0  0  0  0  0  0  0  0  0  0  0
   48.3688    9.7496   20.8009 H   0  0  0  0  0  0  0  0  0  0  0  0
   48.2007    8.2519   20.5547 H   0  0  0  0  0  0  0  0  0  0  0  0
  3  4  1  0
  4  2  1  0
  5  3  2  0
  6  2  1  0
  7  2  2  0
  8  5  1  0
  9  8  1  0
 10  9  1  0
 11  3  1  0
 12 11  2  0
 13  8  2  0
 14  4  1  0
 15 10  2  0
 16 10  1  0
 17 16  2  0
 18 15  1  0
 19 17  1  0
 12 13  1  0
 18 19  2  0
 21 22  1  0
 22 20  1  0
 23 21  2  0
 24 20  1  0
 25 20  2  0
 26 23  1  0
 27 26  1  0
 28 27  1  0
 29 21  1  0
 30 29  2  0
 31 26  2  0
 32 22  1  0
 33 28  2  0
 34 28  1  0
 35 33  1  0
 36 34  2  0
 37 36  1  0
 30 31  1  0
 35 37  2  0
  1 40  1  0
  1 41  1  0
  4 42  1  1
  5 43  1  0
 11 44  1  0
 12 45  1  0
 13 46  1  0
 14 47  1  0
 14 48  1  0
 14 49  1  0
 15 50  1  0
 16 51  1  0
 17 52  1  0
 18 53  1  0
 19 54  1  0
 22 55  1  6
 23 56  1  0
 29 57  1  0
 30 58  1  0
 31 59  1  0
 32 60  1  0
 32 61  1  0
 32 62  1  0
 33 63  1  0
 34 64  1  0
 35 65  1  0
 36 66  1  0
 37 67  1  0
 39 68  1  0
 39 69  1  0
M  CHG  3   6  -1  24  -1  38   2
M  END
> <Uni-Dock RESULT> 
ENERGY=   -4.957  LOWER_BOUND=    1.411  UPPER_BOUND=    6.264
INTER + INTRA:          -4.957
INTER:                  -4.957
INTRA:                   0.000
UNBOUND:                 0.000

$$$$

     RDKit          3D

 69 68  0  0  0  0  0  0  0  0999 V2000
   49.0077    8.3074   19.0711 O   0  0  0  0  0  0  0  0  0  0  0  0
   47.8747    4.7259   18.5381 C   0  0  0  0  0  0  0  0  0  0  0  0
   49.4609    6.5012   17.7018 C   0  0  0  0  0  0  0  0  0  0  0  0
   49.2406    5.0069   17.8724 C   0  0  1  0  0  0  0  0  0  0  0  0
   49.5329    7.3592   18.8094 C   0  0  0  0  0  0  0  0  0  0  0  0
   47.8800    4.5804   19.7949 O   0  0  0  0  0  0  0  0  0  0  0  0
   46.8968    4.6452   17.7360 O   0  0  0  0  0  0  0  0  0  0  0  0
   49.7093    8.7306   18.6256 C   0  0  0  0  0  0  0  0  0  0  0  0
   49.7769    9.5351   19.7406 O   0  0  0  0  0  0  0  0  0  0  0  0
   48.7862   10.4844   19.8693 C   0  0  0  0  0  0  0  0  0  0  0  0
   49.5912    7.0496   16.4156 C   0  0  0  0  0  0  0  0  0  0  0  0
   49.7979    8.4194   16.2378 C   0  0  0  0  0  0  0  0  0  0  0  0
   49.8633    9.2627   17.3447 C   0  0  0  0  0  0  0  0  0  0  0  0
   50.4012    4.3513   18.6175 C   0  0  0  0  0  0  0  0  0  0  0  0
   47.4423   10.2324   19.5858 C   0  0  0  0  0  0  0  0  0  0  0  0
   49.1730   11.7291   20.3701 C   0  0  0  0  0  0  0  0  0  0  0  0
   48.2246   12.7352   20.5497 C   0  0  0  0  0  0  0  0  0  0  0  0
   46.4939   11.2397   19.7702 C   0  0  0  0  0  0  0  0  0  0  0  0
   46.8853   12.4907   20.2462 C   0  0  0  0  0  0  0  0  0  0  0  0
   48.3086   10.9471   21.2104 C   0  0  0  0  0  0  0  0  0  0  0  0
   47.7463   10.1429   18.8852 C   0  0  0  0  0  0  0  0  0  0  0  0
   47.3266   11.0624   20.0217 C   0  0  1  0  0  0  0  0  0  0  0  0
   47.8073    8.7514   19.0561 C   0  0  0  0  0  0  0  0  0  0  0  0
   47.9474   10.2033   22.1689 O   0  0  0  0  0  0  0  0  0  0  0  0
   49.3654   11.6383   21.1005 O   0  0  0  0  0  0  0  0  0  0  0  0
   48.2236    7.9329   18.0060 C   0  0  0  0  0  0  0  0  0  0  0  0
   48.2740    6.5740   18.2135 O   0  0  0  0  0  0  0  0  0  0  0  0
   49.5274    5.9990   18.1758 C   0  0  0  0  0  0  0  0  0  0  0  0
   48.0866   10.6832   17.6343 C   0  0  0  0  0  0  0  0  0  0  0  0
   48.4744    9.8561   16.5771 C   0  0  0  0  0  0  0  0  0  0  0  0
   48.5383    8.4765   16.7597 C   0  0  0  0  0  0  0  0  0  0  0  0
   45.8739   10.8166   20.4260 C   0  0  0  0  0  0  0  0  0  0  0  0
   49.6202    4.7389   17.5819 C   0  0  0  0  0  0  0  0  0  0  0  0
   50.6583    6.5861   18.7491 C   0  0  0  0  0  0  0  0  0  0  0  0
   50.8498    4.0814   17.5288 C   0  0  0  0  0  0  0  0  0  0  0  0
   51.8866    5.9265   18.6954 C   0  0  0  0  0  0  0  0  0  0  0  0
   51.9833    4.6776   18.0822 C   0  0  0  0  0  0  0  0  0  0  0  0
   48.9053    8.3452   18.6887 Ca  0  0  0  0  0 15  0  0  0  0  0  0
   49.0069    8.3087   19.0715 O   0  0  0  0  0  0  0  0  0  0  0  0
   48.4905    9.0158   18.6593 H   0  0  0  0  0  0  0  0  0  0  0  0
   49.2177    7.7126   18.3355 H   0  0  0  0  0  0  0  0  0  0  0  0
   49.2020    4.5389   16.8792 H   0  0  0  0  0  0  0  0  0  0  0  0
   49.4127    6.9594   19.8150 H   0  0  0  0  0  0  0  0  0  0  0  0
   49.5165    6.4038   15.5442 H   0  0  0  0  0  0  0  0  0  0  0  0
   49.8953    8.8256   15.2360 H   0  0  0  0  0  0  0  0  0  0  0  0
   50.0207   10.3269   17.2097 H   0  0  0  0  0  0  0  0  0  0  0  0
   50.5393    4.7610   19.6232 H   0  0  0  0  0  0  0  0  0  0  0  0
   50.2338    3.2734   18.7208 H   0  0  0  0  0  0  0  0  0  0  0  0
   51.3418    4.4939   18.0740 H   0  0  0  0  0  0  0  0  0  0  0  0
   47.1223    9.2540   19.2330 H   0  0  0  0  0  0  0  0  0  0  0  0
   50.2140   11.9091   20.6155 H   0  0  0  0  0  0  0  0  0  0  0  0
   48.5273   13.7051   20.9306 H   0  0  0  0  0  0  0  0  0  0  0  0
   45.4497   11.0385   19.5476 H   0  0  0  0  0  0  0  0  0  0  0  0
   46.1439   13.2725   20.3872 H   0  0  0  0  0  0  0  0  0  0  0  0
   47.3860   12.1044   19.6769 H   0  0  0  0  0  0  0  0  0  0  0  0
   47.5657    8.3124   20.0220 H   0  0  0  0  0  0  0  0  0  0  0  0
   48.0630   11.7604   17.4879 H   0  0  0  0  0  0  0  0  0  0  0  0
   48.7371   10.2928   15.6185 H   0  0  0  0  0  0  0  0  0  0  0  0
   48.8443    7.8314   15.9423 H   0  0  0  0  0  0  0  0  0  0  0  0
   45.7079    9.7973   20.7947 H   0  0  0  0  0  0  0  0  0  0  0  0
   45.1993   10.9741   19.5758 H   0  0  0  0  0  0  0  0  0  0  0  0
   45.5758   11.5048   21.2236 H   0  0  0  0  0  0  0  0  0  0  0  0
   48.7328    4.2751   17.1612 H   0  0  0  0  0  0  0  0  0  0  0  0
   50.5919    7.5500   19.2492 H   0  0  0  0  0  0  0  0  0  0  0  0
   50.9225    3.1040   17.0621 H   0  0  0  0  0  0  0  0  0  0  0  0
   52.7634    6.3895   19.1415 H   0  0  0  0  0  0  0  0  0  0  0  0
   52.9417    4.1669   18.0463 H   0  0  0  0  0  0  0  0  0  0  0  0
   49.2189    7.7116   18.3383 H   0  0  0  0  0  0  0  0  0  0  0  0
   48.4901    9.0154   18.6562 H   0  0  0  0  0  0  0  0  0  0  0  0
  3  4  1  0
  4  2  1  0
  5  3  2  0
  6  2  1  0
  7  2  2  0
  8  5  1  0
  9  8  1  0
 10  9  1  0
 11  3  1  0
 12 11  2  0
 13  8  2  0
 14  4  1  0
 15 10  2  0
 16 10  1  0
 17 16  2  0
 18 15  1  0
 19 17  1  0
 12 13  1  0
 18 19  2  0
 21 22  1  0
 22 20  1  0
 23 21  2  0
 24 20  1  0
 25 20  2  0
 26 23  1  0
 27 26  1  0
 28 27  1  0
 29 21  1  0
 30 29  2  0
 31 26  2  0
 32 22  1  0
 33 28  2  0
 34 28  1  0
 35 33  1  0
 36 34  2  0
 37 36  1  0
 30 31  1  0
 35 37  2  0
  1 40  1  0
  1 41  1  0
  4 42  1  1
  5 43  1  0
 11 44  1  0
 12 45  1  0
 13 46  1  0
 14 47  1  0
 14 48  1  0
 14 49  1  0
 15 50  1  0
 16 51  1  0
 17 52  1  0
 18 53  1  0
 19 54  1  0
 22 55  1  6
 23 56  1  0
 29 57  1  0
 30 58  1  0
 31 59  1  0
 32 60  1  0
 32 61  1  0
 32 62  1  0
 33 63  1  0
 34 64  1  0
 35 65  1  0
 36 66  1  0
 37 67  1  0
 39 68  1  0
 39 69  1  0
M  CHG  3   6  -1  24  -1  38   2
M  END
> <Uni-Dock RESULT> 
ENERGY=   -4.867  LOWER_BOUND=    1.923  UPPER_BOUND=    3.383
INTER + INTRA:          -4.867
INTER:                  -4.867
INTRA:                   0.000
UNBOUND:                 0.000

$$$$

     RDKit          3D

 69 68  0  0  0  0  0  0  0  0999 V2000
   49.3637    6.7838   15.4154 O   0  0  0  0  0  0  0  0  0  0  0  0
   47.3368    7.6360   12.3236 C   0  0  0  0  0  0  0  0  0  0  0  0
   49.0166    8.5524   13.9683 C   0  0  0  0  0  0  0  0  0  0  0  0
   48.5096    8.6192   12.5368 C   0  0  1  0  0  0  0  0  0  0  0  0
   49.5696    7.3744   14.4922 C   0  0  0  0  0  0  0  0  0  0  0  0
   47.6343    6.4955   11.8640 O   0  0  0  0  0  0  0  0  0  0  0  0
   46.1929    8.0998   12.6112 O   0  0  0  0  0  0  0  0  0  0  0  0
   50.0037    7.3305   15.8171 C   0  0  0  0  0  0  0  0  0  0  0  0
   50.5420    6.1547   16.2889 O   0  0  0  0  0  0  0  0  0  0  0  0
   49.8654    5.5454   17.3234 C   0  0  0  0  0  0  0  0  0  0  0  0
   48.9315    9.6830   14.7970 C   0  0  0  0  0  0  0  0  0  0  0  0
   49.3952    9.6431   16.1139 C   0  0  0  0  0  0  0  0  0  0  0  0
   49.9383    8.4666   16.6251 C   0  0  0  0  0  0  0  0  0  0  0  0
   49.6402    8.4089   11.5321 C   0  0  0  0  0  0  0  0  0  0  0  0
   48.4735    5.4475   17.3757 C   0  0  0  0  0  0  0  0  0  0  0  0
   50.6453    4.9531   18.3187 C   0  0  0  0  0  0  0  0  0  0  0  0
   50.0346    4.2981   19.3874 C   0  0  0  0  0  0  0  0  0  0  0  0
   47.8643    4.7879   18.4443 C   0  0  0  0  0  0  0  0  0  0  0  0
   48.6435    4.2188   19.4512 C   0  0  0  0  0  0  0  0  0  0  0  0
   49.8724    4.0591   17.5013 C   0  0  0  0  0  0  0  0  0  0  0  0
   48.5560    6.2108   17.4190 C   0  0  0  0  0  0  0  0  0  0  0  0
   48.6696    4.8432   18.0747 C   0  0  1  0  0  0  0  0  0  0  0  0
   48.3366    6.3432   16.0392 C   0  0  0  0  0  0  0  0  0  0  0  0
   49.6109    3.2016   16.6075 O   0  0  0  0  0  0  0  0  0  0  0  0
   50.9944    4.3494   18.0147 O   0  0  0  0  0  0  0  0  0  0  0  0
   48.2656    7.6095   15.4583 C   0  0  0  0  0  0  0  0  0  0  0  0
   48.0533    7.6982   14.1021 O   0  0  0  0  0  0  0  0  0  0  0  0
   49.0862    8.2298   13.3581 C   0  0  0  0  0  0  0  0  0  0  0  0
   48.6751    7.3742   18.1965 C   0  0  0  0  0  0  0  0  0  0  0  0
   48.5735    8.6401   17.6138 C   0  0  0  0  0  0  0  0  0  0  0  0
   48.3626    8.7602   16.2420 C   0  0  0  0  0  0  0  0  0  0  0  0
   47.3555    4.0701   17.9758 C   0  0  0  0  0  0  0  0  0  0  0  0
   48.7284    9.0586   12.2932 C   0  0  0  0  0  0  0  0  0  0  0  0
   50.4310    7.9267   13.5863 C   0  0  0  0  0  0  0  0  0  0  0  0
   49.7160    9.6135   11.4784 C   0  0  0  0  0  0  0  0  0  0  0  0
   51.4168    8.4821   12.7699 C   0  0  0  0  0  0  0  0  0  0  0  0
   51.0601    9.3280   11.7199 C   0  0  0  0  0  0  0  0  0  0  0  0
   49.1772    7.1013   15.5657 Ca  0  0  0  0  0 15  0  0  0  0  0  0
   49.3634    6.7829   15.4167 O   0  0  0  0  0  0  0  0  0  0  0  0
   48.9352    6.8701   16.2802 H   0  0  0  0  0  0  0  0  0  0  0  0
   49.2325    7.6500   15.0014 H   0  0  0  0  0  0  0  0  0  0  0  0
   48.1077    9.6245   12.3500 H   0  0  0  0  0  0  0  0  0  0  0  0
   49.6257    6.4792   13.8750 H   0  0  0  0  0  0  0  0  0  0  0  0
   48.4862   10.5985   14.4156 H   0  0  0  0  0  0  0  0  0  0  0  0
   49.3202   10.5265   16.7401 H   0  0  0  0  0  0  0  0  0  0  0  0
   50.2964    8.4317   17.6479 H   0  0  0  0  0  0  0  0  0  0  0  0
   50.1253    7.4340   11.6438 H   0  0  0  0  0  0  0  0  0  0  0  0
   49.2613    8.4730   10.5060 H   0  0  0  0  0  0  0  0  0  0  0  0
   50.4141    9.1752   11.6521 H   0  0  0  0  0  0  0  0  0  0  0  0
   47.8561    5.8701   16.5855 H   0  0  0  0  0  0  0  0  0  0  0  0
   51.7267    5.0078   18.2570 H   0  0  0  0  0  0  0  0  0  0  0  0
   50.6411    3.8456   20.1651 H   0  0  0  0  0  0  0  0  0  0  0  0
   46.7809    4.7151   18.4804 H   0  0  0  0  0  0  0  0  0  0  0  0
   48.1652    3.7071   20.2820 H   0  0  0  0  0  0  0  0  0  0  0  0
   48.8761    4.9781   19.1459 H   0  0  0  0  0  0  0  0  0  0  0  0
   48.2595    5.4556   15.4146 H   0  0  0  0  0  0  0  0  0  0  0  0
   48.8635    7.2921   19.2643 H   0  0  0  0  0  0  0  0  0  0  0  0
   48.6719    9.5278   18.2310 H   0  0  0  0  0  0  0  0  0  0  0  0
   48.2886    9.7418   15.7851 H   0  0  0  0  0  0  0  0  0  0  0  0
   47.0604    3.8758   16.9377 H   0  0  0  0  0  0  0  0  0  0  0  0
   46.5386    4.6248   18.4529 H   0  0  0  0  0  0  0  0  0  0  0  0
   47.4417    3.1008   18.4775 H   0  0  0  0  0  0  0  0  0  0  0  0
   47.6800    9.2699   12.1038 H   0  0  0  0  0  0  0  0  0  0  0  0
   50.7209    7.2514   14.3885 H   0  0  0  0  0  0  0  0  0  0  0  0
   49.4375   10.2622   10.6538 H   0  0  0  0  0  0  0  0  0  0  0  0
   52.4616    8.2442   12.9538 H   0  0  0  0  0  0  0  0  0  0  0  0
   51.8317    9.7549   11.0852 H   0  0  0  0  0  0  0  0  0  0  0  0
   49.2341    7.6479   14.9996 H   0  0  0  0  0  0  0  0  0  0  0  0
   48.9339    6.8730   16.2807 H   0  0  0  0  0  0  0  0  0  0  0  0
  3  4  1  0
  4  2  1  0
  5  3  2  0
  6  2  1  0
  7  2  2  0
  8  5  1  0
  9  8  1  0
 10  9  1  0
 11  3  1  0
 12 11  2  0
 13  8  2  0
 14  4  1  0
 15 10  2  0
 16 10  1  0
 17 16  2  0
 18 15  1  0
 19 17  1  0
 12 13  1  0
 18 19  2  0
 21 22  1  0
 22 20  1  0
 23 21  2  0
 24 20  1  0
 25 20  2  0
 26 23  1  0
 27 26  1  0
 28 27  1  0
 29 21  1  0
 30 29  2  0
 31 26  2  0
 32 22  1  0
 33 28  2  0
 34 28  1  0
 35 33  1  0
 36 34  2  0
 37 36  1  0
 30 31  1  0
 35 37  2  0
  1 40  1  0
  1 41  1  0
  4 42  1  1
  5 43  1  0
 11 44  1  0
 12 45  1  0
 13 46  1  0
 14 47  1  0
 14 48  1  0
 14 49  1  0
 15 50  1  0
 16 51  1  0
 17 52  1  0
 18 53  1  0
 19 54  1  0
 22 55  1  6
 23 56  1  0
 29 57  1  0
 30 58  1  0
 31 59  1  0
 32 60  1  0
 32 61  1  0
 32 62  1  0
 33 63  1  0
 34 64  1  0
 35 65  1  0
 36 66  1  0
 37 67  1  0
 39 68  1  0
 39 69  1  0
M  CHG  3   6  -1  24  -1  38   2
M  END
> <Uni-Dock RESULT> 
ENERGY=   -4.690  LOWER_BOUND=    4.230  UPPER_BOUND=    6.490
INTER + INTRA:          -4.690
INTER:                  -4.690
INTRA:                   0.000
UNBOUND:                 0.000

$$$$
