
     RDKit          3D

 69 68  0  0  0  0  0  0  0  0999 V2000
   46.7323    7.9834   11.9453 O   0  0  0  0  0  0  0  0  0  0  0  0
   49.5634   10.6702   11.3423 C   0  0  0  0  0  0  0  0  0  0  0  0
   47.8330    9.4852   12.7583 C   0  0  0  0  0  0  0  0  0  0  0  0
   48.2969   10.8284   12.2147 C   0  0  1  0  0  0  0  0  0  0  0  0
   46.5250    9.0410   12.5130 C   0  0  0  0  0  0  0  0  0  0  0  0
   50.6746   10.8544   11.9212 O   0  0  0  0  0  0  0  0  0  0  0  0
   49.3434   10.3932   10.1269 O   0  0  0  0  0  0  0  0  0  0  0  0
   46.1002    7.8042   12.9978 C   0  0  0  0  0  0  0  0  0  0  0  0
   44.8057    7.4204   12.7344 O   0  0  0  0  0  0  0  0  0  0  0  0
   44.6369    6.2353   12.0516 C   0  0  0  0  0  0  0  0  0  0  0  0
   48.6864    8.6738   13.5228 C   0  0  0  0  0  0  0  0  0  0  0  0
   48.2478    7.4491   14.0305 C   0  0  0  0  0  0  0  0  0  0  0  0
   46.9501    7.0140   13.7737 C   0  0  0  0  0  0  0  0  0  0  0  0
   48.4894   11.8405   13.3442 C   0  0  0  0  0  0  0  0  0  0  0  0
   43.5555    5.4422   12.4378 C   0  0  0  0  0  0  0  0  0  0  0  0
   45.4431    5.8448   10.9789 C   0  0  0  0  0  0  0  0  0  0  0  0
   45.1828    4.6438   10.3161 C   0  0  0  0  0  0  0  0  0  0  0  0
   43.2973    4.2418   11.7742 C   0  0  0  0  0  0  0  0  0  0  0  0
   44.1125    3.8417   10.7152 C   0  0  0  0  0  0  0  0  0  0  0  0
   50.2194    8.8910   12.9613 C   0  0  0  0  0  0  0  0  0  0  0  0
   47.7886    9.5393   13.1590 C   0  0  0  0  0  0  0  0  0  0  0  0
   49.1923    9.7883   13.6882 C   0  0  1  0  0  0  0  0  0  0  0  0
   47.1582    8.2947   13.3140 C   0  0  0  0  0  0  0  0  0  0  0  0
   50.4793    7.7787   13.5061 O   0  0  0  0  0  0  0  0  0  0  0  0
   50.7103    9.3896   11.9049 O   0  0  0  0  0  0  0  0  0  0  0  0
   45.8779    8.0855   12.8005 C   0  0  0  0  0  0  0  0  0  0  0  0
   45.2968    6.8515   12.9837 O   0  0  0  0  0  0  0  0  0  0  0  0
   44.9851    6.1425   11.8430 C   0  0  0  0  0  0  0  0  0  0  0  0
   47.0977   10.5650   12.4925 C   0  0  0  0  0  0  0  0  0  0  0  0
   45.8048   10.3588   12.0040 C   0  0  0  0  0  0  0  0  0  0  0  0
   45.1886    9.1195   12.1645 C   0  0  0  0  0  0  0  0  0  0  0  0
   49.2617    9.6281   15.2060 C   0  0  0  0  0  0  0  0  0  0  0  0
   45.8171    6.0891   10.7204 C   0  0  0  0  0  0  0  0  0  0  0  0
   43.8014    5.4035   11.8700 C   0  0  0  0  0  0  0  0  0  0  0  0
   45.4411    5.3265    9.6131 C   0  0  0  0  0  0  0  0  0  0  0  0
   43.4281    4.6409   10.7622 C   0  0  0  0  0  0  0  0  0  0  0  0
   44.2449    4.6089    9.6309 C   0  0  0  0  0  0  0  0  0  0  0  0
   46.6558    7.8925   12.3250 Ca  0  0  0  0  0 15  0  0  0  0  0  0
   46.7328    7.9841   11.9456 O   0  0  0  0  0  0  0  0  0  0  0  0
   46.1893    7.2574   12.2876 H   0  0  0  0  0  0  0  0  0  0  0  0
   47.0459    8.4367   12.7421 H   0  0  0  0  0  0  0  0  0  0  0  0
   47.5181   11.2319   11.5529 H   0  0  0  0  0  0  0  0  0  0  0  0
   45.8457    9.6482   11.9215 H   0  0  0  0  0  0  0  0  0  0  0  0
   49.7101    8.9983   13.7125 H   0  0  0  0  0  0  0  0  0  0  0  0
   48.9259    6.8383   14.6179 H   0  0  0  0  0  0  0  0  0  0  0  0
   46.6097    6.0633   14.1691 H   0  0  0  0  0  0  0  0  0  0  0  0
   47.5486   12.0083   13.8846 H   0  0  0  0  0  0  0  0  0  0  0  0
   49.2323   11.5083   14.0766 H   0  0  0  0  0  0  0  0  0  0  0  0
   48.8251   12.8054   12.9475 H   0  0  0  0  0  0  0  0  0  0  0  0
   42.9184    5.7609   13.2574 H   0  0  0  0  0  0  0  0  0  0  0  0
   46.2691    6.4703   10.6472 H   0  0  0  0  0  0  0  0  0  0  0  0
   45.8145    4.3422    9.4848 H   0  0  0  0  0  0  0  0  0  0  0  0
   42.4588    3.6234   12.0801 H   0  0  0  0  0  0  0  0  0  0  0  0
   43.9108    2.9094   10.1944 H   0  0  0  0  0  0  0  0  0  0  0  0
   49.4732   10.8283   13.4703 H   0  0  0  0  0  0  0  0  0  0  0  0
   47.6831    7.4771   13.8058 H   0  0  0  0  0  0  0  0  0  0  0  0
   47.5772   11.5301   12.3435 H   0  0  0  0  0  0  0  0  0  0  0  0
   45.2866   11.1631   11.4912 H   0  0  0  0  0  0  0  0  0  0  0  0
   44.1852    8.9569   11.7851 H   0  0  0  0  0  0  0  0  0  0  0  0
   48.9879    8.6198   15.5364 H   0  0  0  0  0  0  0  0  0  0  0  0
   48.5853   10.3318   15.7032 H   0  0  0  0  0  0  0  0  0  0  0  0
   50.2765    9.8251   15.5673 H   0  0  0  0  0  0  0  0  0  0  0  0
   46.7631    6.6273   10.7046 H   0  0  0  0  0  0  0  0  0  0  0  0
   43.1719    5.4264   12.7542 H   0  0  0  0  0  0  0  0  0  0  0  0
   46.0878    5.2936    8.7403 H   0  0  0  0  0  0  0  0  0  0  0  0
   42.5028    4.0723   10.7812 H   0  0  0  0  0  0  0  0  0  0  0  0
   43.9568    4.0154    8.7676 H   0  0  0  0  0  0  0  0  0  0  0  0
   46.1894    7.2575   12.2857 H   0  0  0  0  0  0  0  0  0  0  0  0
   47.0453    8.4360   12.7437 H   0  0  0  0  0  0  0  0  0  0  0  0
  3  4  1  0
  4  2  1  0
  5  3  2  0
  6  2  1  0
  7  2  2  0
  8  5  1  0
  9  8  1  0
 10  9  1  0
 11  3  1  0
 12 11  2  0
 13  8  2  0
 14  4  1  0
 15 10  2  0
 16 10  1  0
 17 16  2  0
 18 15  1  0
 19 17  1  0
 12 13  1  0
 18 19  2  0
 21 22  1  0
 22 20  1  0
 23 21  2  0
 24 20  1  0
 25 20  2  0
 26 23  1  0
 27 26  1  0
 28 27  1  0
 29 21  1  0
 30 29  2  0
 31 26  2  0
 32 22  1  0
 33 28  2  0
 34 28  1  0
 35 33  1  0
 36 34  2  0
 37 36  1  0
 30 31  1  0
 35 37  2  0
  1 40  1  0
  1 41  1  0
  4 42  1  6
  5 43  1  0
 11 44  1  0
 12 45  1  0
 13 46  1  0
 14 47  1  0
 14 48  1  0
 14 49  1  0
 15 50  1  0
 16 51  1  0
 17 52  1  0
 18 53  1  0
 19 54  1  0
 22 55  1  6
 23 56  1  0
 29 57  1  0
 30 58  1  0
 31 59  1  0
 32 60  1  0
 32 61  1  0
 32 62  1  0
 33 63  1  0
 34 64  1  0
 35 65  1  0
 36 66  1  0
 37 67  1  0
 39 68  1  0
 39 69  1  0
M  CHG  3   6  -1  24  -1  38   2
M  END
> <Uni-Dock RESULT> 
ENERGY=   -6.931  LOWER_BOUND=    0.000  UPPER_BOUND=    0.000
INTER + INTRA:          -6.931
INTER:                  -6.931
INTRA:                   0.000
UNBOUND:                 0.000

$$$$

     RDKit          3D

 69 68  0  0  0  0  0  0  0  0999 V2000
   46.9700    6.5552   13.9270 O   0  0  0  0  0  0  0  0  0  0  0  0
   48.5113    9.3616   16.2392 C   0  0  0  0  0  0  0  0  0  0  0  0
   48.6704    7.3847   14.6676 C   0  0  0  0  0  0  0  0  0  0  0  0
   49.0363    7.9207   16.0437 C   0  0  1  0  0  0  0  0  0  0  0  0
   47.9507    6.1863   14.5481 C   0  0  0  0  0  0  0  0  0  0  0  0
   49.3243   10.2985   15.9839 O   0  0  0  0  0  0  0  0  0  0  0  0
   47.3202    9.4434   16.6597 O   0  0  0  0  0  0  0  0  0  0  0  0
   47.6014    5.6989   13.2890 C   0  0  0  0  0  0  0  0  0  0  0  0
   46.9018    4.5159   13.2288 O   0  0  0  0  0  0  0  0  0  0  0  0
   45.6777    4.5507   12.5968 C   0  0  0  0  0  0  0  0  0  0  0  0
   49.0526    8.0591   13.4970 C   0  0  0  0  0  0  0  0  0  0  0  0
   48.7254    7.5524   12.2376 C   0  0  0  0  0  0  0  0  0  0  0  0
   48.0033    6.3664   12.1307 C   0  0  0  0  0  0  0  0  0  0  0  0
   50.5403    7.8090   16.2938 C   0  0  0  0  0  0  0  0  0  0  0  0
   45.3402    3.4345   11.8300 C   0  0  0  0  0  0  0  0  0  0  0  0
   44.7656    5.5992   12.7453 C   0  0  0  0  0  0  0  0  0  0  0  0
   43.5297    5.5410   12.0984 C   0  0  0  0  0  0  0  0  0  0  0  0
   44.1044    3.3786   11.1839 C   0  0  0  0  0  0  0  0  0  0  0  0
   43.2005    4.4328   11.3162 C   0  0  0  0  0  0  0  0  0  0  0  0
   49.0390    9.6736   13.8224 C   0  0  0  0  0  0  0  0  0  0  0  0
   49.0181    7.2454   14.5090 C   0  0  0  0  0  0  0  0  0  0  0  0
   49.8879    8.4760   14.3055 C   0  0  1  0  0  0  0  0  0  0  0  0
   48.3496    6.6362   13.4354 C   0  0  0  0  0  0  0  0  0  0  0  0
   48.9531    9.8330   12.5699 O   0  0  0  0  0  0  0  0  0  0  0  0
   48.5429   10.3837   14.7472 O   0  0  0  0  0  0  0  0  0  0  0  0
   47.5404    5.5205   13.6522 C   0  0  0  0  0  0  0  0  0  0  0  0
   46.9114    4.9521   12.5680 O   0  0  0  0  0  0  0  0  0  0  0  0
   45.5328    4.9411   12.5925 C   0  0  0  0  0  0  0  0  0  0  0  0
   48.8650    6.6988   15.7941 C   0  0  0  0  0  0  0  0  0  0  0  0
   48.0752    5.5649   16.0016 C   0  0  0  0  0  0  0  0  0  0  0  0
   47.4171    4.9681   14.9283 C   0  0  0  0  0  0  0  0  0  0  0  0
   51.0630    8.1905   13.3718 C   0  0  0  0  0  0  0  0  0  0  0  0
   44.7640    6.0156   13.0502 C   0  0  0  0  0  0  0  0  0  0  0  0
   44.9073    3.8086   12.0688 C   0  0  0  0  0  0  0  0  0  0  0  0
   43.3705    5.9359   13.0181 C   0  0  0  0  0  0  0  0  0  0  0  0
   43.5140    3.7316   12.0368 C   0  0  0  0  0  0  0  0  0  0  0  0
   42.7461    4.7927   12.5186 C   0  0  0  0  0  0  0  0  0  0  0  0
   47.2167    6.3943   13.6596 Ca  0  0  0  0  0 15  0  0  0  0  0  0
   46.9707    6.5556   13.9274 O   0  0  0  0  0  0  0  0  0  0  0  0
   46.7486    5.9703   13.1869 H   0  0  0  0  0  0  0  0  0  0  0  0
   47.9315    6.6575   13.8650 H   0  0  0  0  0  0  0  0  0  0  0  0
   48.5386    7.3076   16.8076 H   0  0  0  0  0  0  0  0  0  0  0  0
   47.6401    5.6467   15.4382 H   0  0  0  0  0  0  0  0  0  0  0  0
   49.6017    8.9983   13.5721 H   0  0  0  0  0  0  0  0  0  0  0  0
   49.0305    8.0919   11.3466 H   0  0  0  0  0  0  0  0  0  0  0  0
   47.7504    5.9729   11.1524 H   0  0  0  0  0  0  0  0  0  0  0  0
   50.8688    6.7625   16.2473 H   0  0  0  0  0  0  0  0  0  0  0  0
   51.1260    8.3684   15.5571 H   0  0  0  0  0  0  0  0  0  0  0  0
   50.7987    8.1979   17.2854 H   0  0  0  0  0  0  0  0  0  0  0  0
   46.0433    2.6123   11.7358 H   0  0  0  0  0  0  0  0  0  0  0  0
   45.0037    6.4598   13.3668 H   0  0  0  0  0  0  0  0  0  0  0  0
   42.8249    6.3602   12.2138 H   0  0  0  0  0  0  0  0  0  0  0  0
   43.8462    2.5117   10.5830 H   0  0  0  0  0  0  0  0  0  0  0  0
   42.2359    4.3895   10.8173 H   0  0  0  0  0  0  0  0  0  0  0  0
   50.3207    8.7670   15.2729 H   0  0  0  0  0  0  0  0  0  0  0  0
   48.4336    7.0560   12.4342 H   0  0  0  0  0  0  0  0  0  0  0  0
   49.3578    7.1689   16.6424 H   0  0  0  0  0  0  0  0  0  0  0  0
   47.9684    5.1569   17.0018 H   0  0  0  0  0  0  0  0  0  0  0  0
   46.8026    4.0881   15.0873 H   0  0  0  0  0  0  0  0  0  0  0  0
   50.7407    7.8787   12.3719 H   0  0  0  0  0  0  0  0  0  0  0  0
   51.6969    7.3938   13.7759 H   0  0  0  0  0  0  0  0  0  0  0  0
   51.6834    9.0847   13.2502 H   0  0  0  0  0  0  0  0  0  0  0  0
   45.2409    6.9210   13.4212 H   0  0  0  0  0  0  0  0  0  0  0  0
   45.5083    2.9879   11.6896 H   0  0  0  0  0  0  0  0  0  0  0  0
   42.7774    6.7710   13.3813 H   0  0  0  0  0  0  0  0  0  0  0  0
   43.0281    2.8465   11.6362 H   0  0  0  0  0  0  0  0  0  0  0  0
   41.6614    4.7355   12.4940 H   0  0  0  0  0  0  0  0  0  0  0  0
   46.7471    5.9708   13.1879 H   0  0  0  0  0  0  0  0  0  0  0  0
   47.9323    6.6566   13.8636 H   0  0  0  0  0  0  0  0  0  0  0  0
  3  4  1  0
  4  2  1  0
  5  3  2  0
  6  2  1  0
  7  2  2  0
  8  5  1  0
  9  8  1  0
 10  9  1  0
 11  3  1  0
 12 11  2  0
 13  8  2  0
 14  4  1  0
 15 10  2  0
 16 10  1  0
 17 16  2  0
 18 15  1  0
 19 17  1  0
 12 13  1  0
 18 19  2  0
 21 22  1  0
 22 20  1  0
 23 21  2  0
 24 20  1  0
 25 20  2  0
 26 23  1  0
 27 26  1  0
 28 27  1  0
 29 21  1  0
 30 29  2  0
 31 26  2  0
 32 22  1  0
 33 28  2  0
 34 28  1  0
 35 33  1  0
 36 34  2  0
 37 36  1  0
 30 31  1  0
 35 37  2  0
  1 40  1  0
  1 41  1  0
  4 42  1  6
  5 43  1  0
 11 44  1  0
 12 45  1  0
 13 46  1  0
 14 47  1  0
 14 48  1  0
 14 49  1  0
 15 50  1  0
 16 51  1  0
 17 52  1  0
 18 53  1  0
 19 54  1  0
 22 55  1  6
 23 56  1  0
 29 57  1  0
 30 58  1  0
 31 59  1  0
 32 60  1  0
 32 61  1  0
 32 62  1  0
 33 63  1  0
 34 64  1  0
 35 65  1  0
 36 66  1  0
 37 67  1  0
 39 68  1  0
 39 69  1  0
M  CHG  3   6  -1  24  -1  38   2
M  END
> <Uni-Dock RESULT> 
ENERGY=   -5.922  LOWER_BOUND=    2.007  UPPER_BOUND=    3.390
INTER + INTRA:          -5.922
INTER:                  -5.922
INTRA:                   0.000
UNBOUND:                 0.000

$$$$

     RDKit          3D

 69 68  0  0  0  0  0  0  0  0999 V2000
   43.5102   11.8933   11.4641 O   0  0  0  0  0  0  0  0  0  0  0  0
   47.0845   13.3708   12.2637 C   0  0  0  0  0  0  0  0  0  0  0  0
   45.4586   11.9949   10.8973 C   0  0  0  0  0  0  0  0  0  0  0  0
   46.7596   11.9741   11.6858 C   0  0  1  0  0  0  0  0  0  0  0  0
   44.4185   11.1153   11.2332 C   0  0  0  0  0  0  0  0  0  0  0  0
   47.8576   14.1007   11.5758 O   0  0  0  0  0  0  0  0  0  0  0  0
   46.5525   13.6217   13.3846 O   0  0  0  0  0  0  0  0  0  0  0  0
   43.2192   11.1407   10.5217 C   0  0  0  0  0  0  0  0  0  0  0  0
   42.2351   10.2521   10.8883 O   0  0  0  0  0  0  0  0  0  0  0  0
   41.0211   10.7890   11.2582 C   0  0  0  0  0  0  0  0  0  0  0  0
   45.2743   12.8728    9.8173 C   0  0  0  0  0  0  0  0  0  0  0  0
   44.0826   12.8750    9.0895 C   0  0  0  0  0  0  0  0  0  0  0  0
   43.0534   12.0036    9.4370 C   0  0  0  0  0  0  0  0  0  0  0  0
   47.9036   11.4115   10.8420 C   0  0  0  0  0  0  0  0  0  0  0  0
   39.8823   10.0845   10.8651 C   0  0  0  0  0  0  0  0  0  0  0  0
   40.8962   11.9387   12.0430 C   0  0  0  0  0  0  0  0  0  0  0  0
   39.6284   12.3978   12.4051 C   0  0  0  0  0  0  0  0  0  0  0  0
   38.6158   10.5454   11.2278 C   0  0  0  0  0  0  0  0  0  0  0  0
   38.4890   11.7032   11.9955 C   0  0  0  0  0  0  0  0  0  0  0  0
   46.0988   14.2587   10.1525 C   0  0  0  0  0  0  0  0  0  0  0  0
   45.5465   11.8266   10.5376 C   0  0  0  0  0  0  0  0  0  0  0  0
   46.5061   12.7958    9.8651 C   0  0  1  0  0  0  0  0  0  0  0  0
   44.1926   11.7653   10.1720 C   0  0  0  0  0  0  0  0  0  0  0  0
   45.3396   14.8084    9.3023 O   0  0  0  0  0  0  0  0  0  0  0  0
   46.6000   14.7551   11.2051 O   0  0  0  0  0  0  0  0  0  0  0  0
   43.3282   10.8820   10.8194 C   0  0  0  0  0  0  0  0  0  0  0  0
   42.0110   10.8512   10.4216 O   0  0  0  0  0  0  0  0  0  0  0  0
   41.0724   11.1855   11.3746 C   0  0  0  0  0  0  0  0  0  0  0  0
   46.0086   10.9726   11.5529 C   0  0  0  0  0  0  0  0  0  0  0  0
   45.1447   10.0704   12.1793 C   0  0  0  0  0  0  0  0  0  0  0  0
   43.8030   10.0177   11.8076 C   0  0  0  0  0  0  0  0  0  0  0  0
   46.6341   12.5184    8.3681 C   0  0  0  0  0  0  0  0  0  0  0  0
   41.2448   12.2283   12.2901 C   0  0  0  0  0  0  0  0  0  0  0  0
   39.8769   10.4655   11.3542 C   0  0  0  0  0  0  0  0  0  0  0  0
   40.2344   12.5206   13.2081 C   0  0  0  0  0  0  0  0  0  0  0  0
   38.8677   10.7601   12.2722 C   0  0  0  0  0  0  0  0  0  0  0  0
   39.0501   11.7831   13.2040 C   0  0  0  0  0  0  0  0  0  0  0  0
   43.4539   11.7642   11.0921 Ca  0  0  0  0  0 15  0  0  0  0  0  0
   43.5110   11.8934   11.4640 O   0  0  0  0  0  0  0  0  0  0  0  0
   42.6767   11.6385   11.0406 H   0  0  0  0  0  0  0  0  0  0  0  0
   44.1747   11.7607   10.7716 H   0  0  0  0  0  0  0  0  0  0  0  0
   46.6407   11.3057   12.5498 H   0  0  0  0  0  0  0  0  0  0  0  0
   44.5342   10.4282   12.0665 H   0  0  0  0  0  0  0  0  0  0  0  0
   46.0679   13.5717    9.5506 H   0  0  0  0  0  0  0  0  0  0  0  0
   43.9625   13.5637    8.2593 H   0  0  0  0  0  0  0  0  0  0  0  0
   42.1285   12.0051    8.8707 H   0  0  0  0  0  0  0  0  0  0  0  0
   47.6894   10.3816   10.5282 H   0  0  0  0  0  0  0  0  0  0  0  0
   48.0784   11.9998    9.9353 H   0  0  0  0  0  0  0  0  0  0  0  0
   48.8385   11.4003   11.4139 H   0  0  0  0  0  0  0  0  0  0  0  0
   39.9853    9.1792   10.2742 H   0  0  0  0  0  0  0  0  0  0  0  0
   41.7775   12.4783   12.3833 H   0  0  0  0  0  0  0  0  0  0  0  0
   39.5359   13.2942   13.0125 H   0  0  0  0  0  0  0  0  0  0  0  0
   37.7308    9.9988   10.9158 H   0  0  0  0  0  0  0  0  0  0  0  0
   37.5040   12.0616   12.2825 H   0  0  0  0  0  0  0  0  0  0  0  0
   47.5078   12.6577   10.2955 H   0  0  0  0  0  0  0  0  0  0  0  0
   43.8060   12.4341    9.4046 H   0  0  0  0  0  0  0  0  0  0  0  0
   47.0496   11.0198   11.8653 H   0  0  0  0  0  0  0  0  0  0  0  0
   45.5197    9.4186   12.9622 H   0  0  0  0  0  0  0  0  0  0  0  0
   43.1302    9.3186   12.2934 H   0  0  0  0  0  0  0  0  0  0  0  0
   45.6805   12.6192    7.8377 H   0  0  0  0  0  0  0  0  0  0  0  0
   47.0031   11.5025    8.1904 H   0  0  0  0  0  0  0  0  0  0  0  0
   47.3393   13.2177    7.9066 H   0  0  0  0  0  0  0  0  0  0  0  0
   42.1556   12.8244   12.2873 H   0  0  0  0  0  0  0  0  0  0  0  0
   39.7367    9.6745   10.6239 H   0  0  0  0  0  0  0  0  0  0  0  0
   40.3759   13.3276   13.9220 H   0  0  0  0  0  0  0  0  0  0  0  0
   37.9407   10.1940   12.2606 H   0  0  0  0  0  0  0  0  0  0  0  0
   38.2657   12.0149   13.9192 H   0  0  0  0  0  0  0  0  0  0  0  0
   42.6765   11.6391   11.0423 H   0  0  0  0  0  0  0  0  0  0  0  0
   44.1741   11.7600   10.7700 H   0  0  0  0  0  0  0  0  0  0  0  0
  3  4  1  0
  4  2  1  0
  5  3  2  0
  6  2  1  0
  7  2  2  0
  8  5  1  0
  9  8  1  0
 10  9  1  0
 11  3  1  0
 12 11  2  0
 13  8  2  0
 14  4  1  0
 15 10  2  0
 16 10  1  0
 17 16  2  0
 18 15  1  0
 19 17  1  0
 12 13  1  0
 18 19  2  0
 21 22  1  0
 22 20  1  0
 23 21  2  0
 24 20  1  0
 25 20  2  0
 26 23  1  0
 27 26  1  0
 28 27  1  0
 29 21  1  0
 30 29  2  0
 31 26  2  0
 32 22  1  0
 33 28  2  0
 34 28  1  0
 35 33  1  0
 36 34  2  0
 37 36  1  0
 30 31  1  0
 35 37  2  0
  1 40  1  0
  1 41  1  0
  4 42  1  6
  5 43  1  0
 11 44  1  0
 12 45  1  0
 13 46  1  0
 14 47  1  0
 14 48  1  0
 14 49  1  0
 15 50  1  0
 16 51  1  0
 17 52  1  0
 18 53  1  0
 19 54  1  0
 22 55  1  6
 23 56  1  0
 29 57  1  0
 30 58  1  0
 31 59  1  0
 32 60  1  0
 32 61  1  0
 32 62  1  0
 33 63  1  0
 34 64  1  0
 35 65  1  0
 36 66  1  0
 37 67  1  0
 39 68  1  0
 39 69  1  0
M  CHG  3   6  -1  24  -1  38   2
M  END
> <Uni-Dock RESULT> 
ENERGY=   -5.910  LOWER_BOUND=    4.503  UPPER_BOUND=    6.314
INTER + INTRA:          -5.910
INTER:                  -5.910
INTRA:                   0.000
UNBOUND:                 0.000

$$$$

     RDKit          3D

 69 68  0  0  0  0  0  0  0  0999 V2000
   48.5414    9.2801   20.0184 O   0  0  0  0  0  0  0  0  0  0  0  0
   49.8964    6.1271   21.9730 C   0  0  0  0  0  0  0  0  0  0  0  0
   48.1967    7.3503   20.5524 C   0  0  0  0  0  0  0  0  0  0  0  0
   48.4257    6.5872   21.8485 C   0  0  1  0  0  0  0  0  0  0  0  0
   47.6671    8.6492   20.5851 C   0  0  0  0  0  0  0  0  0  0  0  0
   50.1555    4.9512   21.5807 O   0  0  0  0  0  0  0  0  0  0  0  0
   50.6816    6.9804   22.4806 O   0  0  0  0  0  0  0  0  0  0  0  0
   47.4686    9.3573   19.4001 C   0  0  0  0  0  0  0  0  0  0  0  0
   46.9402   10.6243   19.4889 O   0  0  0  0  0  0  0  0  0  0  0  0
   47.6928   11.6489   18.9571 C   0  0  0  0  0  0  0  0  0  0  0  0
   48.4911    6.7755   19.3058 C   0  0  0  0  0  0  0  0  0  0  0  0
   48.2638    7.4774   18.1202 C   0  0  0  0  0  0  0  0  0  0  0  0
   47.7458    8.7693   18.1647 C   0  0  0  0  0  0  0  0  0  0  0  0
   47.4385    5.4278   21.9843 C   0  0  0  0  0  0  0  0  0  0  0  0
   46.9908   12.6664   18.3092 C   0  0  0  0  0  0  0  0  0  0  0  0
   49.0806   11.7356   19.0966 C   0  0  0  0  0  0  0  0  0  0  0  0
   49.7656   12.8265   18.5582 C   0  0  0  0  0  0  0  0  0  0  0  0
   47.6776   13.7559   17.7714 C   0  0  0  0  0  0  0  0  0  0  0  0
   49.0650   13.8344   17.8938 C   0  0  0  0  0  0  0  0  0  0  0  0
   49.7960    5.7904   19.5045 C   0  0  0  0  0  0  0  0  0  0  0  0
   47.8746    7.1739   20.3775 C   0  0  0  0  0  0  0  0  0  0  0  0
   48.3355    5.7723   20.0093 C   0  0  1  0  0  0  0  0  0  0  0  0
   47.7725    8.1879   19.4121 C   0  0  0  0  0  0  0  0  0  0  0  0
   49.9575    5.9035   18.2544 O   0  0  0  0  0  0  0  0  0  0  0  0
   50.6746    5.6605   20.4083 O   0  0  0  0  0  0  0  0  0  0  0  0
   47.3675    9.4714   19.7798 C   0  0  0  0  0  0  0  0  0  0  0  0
   47.2743   10.4309   18.7976 O   0  0  0  0  0  0  0  0  0  0  0  0
   48.0920   11.5327   18.9340 C   0  0  0  0  0  0  0  0  0  0  0  0
   47.5469    7.4777   21.7094 C   0  0  0  0  0  0  0  0  0  0  0  0
   47.1154    8.7575   22.0677 C   0  0  0  0  0  0  0  0  0  0  0  0
   47.0171    9.7559   21.1008 C   0  0  0  0  0  0  0  0  0  0  0  0
   47.3897    5.1101   19.0088 C   0  0  0  0  0  0  0  0  0  0  0  0
   49.4192   11.4554   19.3673 C   0  0  0  0  0  0  0  0  0  0  0  0
   47.5530   12.7623   18.5524 C   0  0  0  0  0  0  0  0  0  0  0  0
   50.1900   12.6162   19.4542 C   0  0  0  0  0  0  0  0  0  0  0  0
   48.3258   13.9213   18.6391 C   0  0  0  0  0  0  0  0  0  0  0  0
   49.6422   13.8486   19.0973 C   0  0  0  0  0  0  0  0  0  0  0  0
   48.2610    9.2090   19.7453 Ca  0  0  0  0  0 15  0  0  0  0  0  0
   48.5413    9.2793   20.0187 O   0  0  0  0  0  0  0  0  0  0  0  0
   48.1955    9.8865   19.3464 H   0  0  0  0  0  0  0  0  0  0  0  0
   48.0462    8.4605   19.8712 H   0  0  0  0  0  0  0  0  0  0  0  0
   48.2439    7.2630   22.6955 H   0  0  0  0  0  0  0  0  0  0  0  0
   47.4338    9.1182   21.5367 H   0  0  0  0  0  0  0  0  0  0  0  0
   48.9148    5.7715   19.2629 H   0  0  0  0  0  0  0  0  0  0  0  0
   48.5004    7.0129   17.1682 H   0  0  0  0  0  0  0  0  0  0  0  0
   47.5687    9.3135   17.2436 H   0  0  0  0  0  0  0  0  0  0  0  0
   46.4033    5.7935   21.9930 H   0  0  0  0  0  0  0  0  0  0  0  0
   47.5249    4.7109   21.1613 H   0  0  0  0  0  0  0  0  0  0  0  0
   47.6088    4.8805   22.9184 H   0  0  0  0  0  0  0  0  0  0  0  0
   45.9100   12.6057   18.2229 H   0  0  0  0  0  0  0  0  0  0  0  0
   49.6355   10.9652   19.6280 H   0  0  0  0  0  0  0  0  0  0  0  0
   50.8453   12.8881   18.6659 H   0  0  0  0  0  0  0  0  0  0  0  0
   47.1300   14.5436   17.2627 H   0  0  0  0  0  0  0  0  0  0  0  0
   49.6013   14.6840   17.4793 H   0  0  0  0  0  0  0  0  0  0  0  0
   48.3226    5.1469   20.9130 H   0  0  0  0  0  0  0  0  0  0  0  0
   48.0442    7.9829   18.3778 H   0  0  0  0  0  0  0  0  0  0  0  0
   47.6397    6.7113   22.4760 H   0  0  0  0  0  0  0  0  0  0  0  0
   46.8669    8.9738   23.1021 H   0  0  0  0  0  0  0  0  0  0  0  0
   46.6832   10.7507   21.3770 H   0  0  0  0  0  0  0  0  0  0  0  0
   47.3193    5.6634   18.0655 H   0  0  0  0  0  0  0  0  0  0  0  0
   46.3778    5.0337   19.4211 H   0  0  0  0  0  0  0  0  0  0  0  0
   47.7319    4.0981   18.7682 H   0  0  0  0  0  0  0  0  0  0  0  0
   49.8633   10.4961   19.6270 H   0  0  0  0  0  0  0  0  0  0  0  0
   46.5306   12.8136   18.1910 H   0  0  0  0  0  0  0  0  0  0  0  0
   51.2190   12.5518   19.7979 H   0  0  0  0  0  0  0  0  0  0  0  0
   47.9030   14.8789   18.3492 H   0  0  0  0  0  0  0  0  0  0  0  0
   50.2460   14.7493   19.1649 H   0  0  0  0  0  0  0  0  0  0  0  0
   48.1968    9.8872   19.3474 H   0  0  0  0  0  0  0  0  0  0  0  0
   48.0449    8.4605   19.8698 H   0  0  0  0  0  0  0  0  0  0  0  0
  3  4  1  0
  4  2  1  0
  5  3  2  0
  6  2  1  0
  7  2  2  0
  8  5  1  0
  9  8  1  0
 10  9  1  0
 11  3  1  0
 12 11  2  0
 13  8  2  0
 14  4  1  0
 15 10  2  0
 16 10  1  0
 17 16  2  0
 18 15  1  0
 19 17  1  0
 12 13  1  0
 18 19  2  0
 21 22  1  0
 22 20  1  0
 23 21  2  0
 24 20  1  0
 25 20  2  0
 26 23  1  0
 27 26  1  0
 28 27  1  0
 29 21  1  0
 30 29  2  0
 31 26  2  0
 32 22  1  0
 33 28  2  0
 34 28  1  0
 35 33  1  0
 36 34  2  0
 37 36  1  0
 30 31  1  0
 35 37  2  0
  1 40  1  0
  1 41  1  0
  4 42  1  6
  5 43  1  0
 11 44  1  0
 12 45  1  0
 13 46  1  0
 14 47  1  0
 14 48  1  0
 14 49  1  0
 15 50  1  0
 16 51  1  0
 17 52  1  0
 18 53  1  0
 19 54  1  0
 22 55  1  6
 23 56  1  0
 29 57  1  0
 30 58  1  0
 31 59  1  0
 32 60  1  0
 32 61  1  0
 32 62  1  0
 33 63  1  0
 34 64  1  0
 35 65  1  0
 36 66  1  0
 37 67  1  0
 39 68  1  0
 39 69  1  0
M  CHG  3   6  -1  24  -1  38   2
M  END
> <Uni-Dock RESULT> 
ENERGY=   -5.873  LOWER_BOUND=    6.930  UPPER_BOUND=    9.549
INTER + INTRA:          -5.873
INTER:                  -5.873
INTRA:                   0.000
UNBOUND:                 0.000

$$$$

     RDKit          3D

 69 68  0  0  0  0  0  0  0  0999 V2000
   43.3482   11.4115   10.5454 O   0  0  0  0  0  0  0  0  0  0  0  0
   42.6671   15.1592    9.5019 C   0  0  0  0  0  0  0  0  0  0  0  0
   42.0379   12.7165    9.7039 C   0  0  0  0  0  0  0  0  0  0  0  0
   42.2239   13.8848    8.7472 C   0  0  1  0  0  0  0  0  0  0  0  0
   42.7387   11.5189    9.4963 C   0  0  0  0  0  0  0  0  0  0  0  0
   41.7493   15.9644    9.8380 O   0  0  0  0  0  0  0  0  0  0  0  0
   43.9156   15.2667    9.6809 O   0  0  0  0  0  0  0  0  0  0  0  0
   42.5814   10.4506   10.3789 C   0  0  0  0  0  0  0  0  0  0  0  0
   43.2869    9.2973   10.1246 O   0  0  0  0  0  0  0  0  0  0  0  0
   44.1398    8.8608   11.1152 C   0  0  0  0  0  0  0  0  0  0  0  0
   41.1594   12.8009   10.7958 C   0  0  0  0  0  0  0  0  0  0  0  0
   40.9833   11.7186   11.6605 C   0  0  0  0  0  0  0  0  0  0  0  0
   41.6905   10.5375   11.4501 C   0  0  0  0  0  0  0  0  0  0  0  0
   40.9667   14.1117    7.9074 C   0  0  0  0  0  0  0  0  0  0  0  0
   44.2224    7.4803   11.3028 C   0  0  0  0  0  0  0  0  0  0  0  0
   44.9469    9.7186   11.8674 C   0  0  0  0  0  0  0  0  0  0  0  0
   45.8118    9.1926   12.8289 C   0  0  0  0  0  0  0  0  0  0  0  0
   45.0874    6.9566   12.2648 C   0  0  0  0  0  0  0  0  0  0  0  0
   45.8800    7.8129   13.0293 C   0  0  0  0  0  0  0  0  0  0  0  0
   41.1765   14.3578   11.3329 C   0  0  0  0  0  0  0  0  0  0  0  0
   41.6680   12.5677    9.6235 C   0  0  0  0  0  0  0  0  0  0  0  0
   40.6963   13.6608   10.0399 C   0  0  1  0  0  0  0  0  0  0  0  0
   41.8863   11.4377   10.4272 C   0  0  0  0  0  0  0  0  0  0  0  0
   40.7312   13.8913   12.4218 O   0  0  0  0  0  0  0  0  0  0  0  0
   41.9488   15.3458   11.1514 O   0  0  0  0  0  0  0  0  0  0  0  0
   42.7992   10.4591   10.0325 C   0  0  0  0  0  0  0  0  0  0  0  0
   42.9741    9.3650   10.8489 O   0  0  0  0  0  0  0  0  0  0  0  0
   44.2389    9.1786   11.3654 C   0  0  0  0  0  0  0  0  0  0  0  0
   42.3747   12.6801    8.4145 C   0  0  0  0  0  0  0  0  0  0  0  0
   43.2675   11.6839    8.0106 C   0  0  0  0  0  0  0  0  0  0  0  0
   43.4756   10.5663    8.8160 C   0  0  0  0  0  0  0  0  0  0  0  0
   39.2693   13.1307   10.1687 C   0  0  0  0  0  0  0  0  0  0  0  0
   45.0398   10.2251   11.8327 C   0  0  0  0  0  0  0  0  0  0  0  0
   44.6839    7.8597   11.4683 C   0  0  0  0  0  0  0  0  0  0  0  0
   46.3005    9.9501   12.3658 C   0  0  0  0  0  0  0  0  0  0  0  0
   45.9442    7.5870   12.0025 C   0  0  0  0  0  0  0  0  0  0  0  0
   46.7553    8.6335   12.4443 C   0  0  0  0  0  0  0  0  0  0  0  0
   43.0274   11.1786   10.5790 Ca  0  0  0  0  0 15  0  0  0  0  0  0
   43.3477   11.4122   10.5450 O   0  0  0  0  0  0  0  0  0  0  0  0
   43.2939   10.5218   10.9253 H   0  0  0  0  0  0  0  0  0  0  0  0
   42.4402   11.6026   10.2663 H   0  0  0  0  0  0  0  0  0  0  0  0
   43.0367   13.6452    8.0478 H   0  0  0  0  0  0  0  0  0  0  0  0
   43.4270   11.4287    8.6609 H   0  0  0  0  0  0  0  0  0  0  0  0
   40.6162   13.7286   10.9789 H   0  0  0  0  0  0  0  0  0  0  0  0
   40.2997   11.8076   12.4988 H   0  0  0  0  0  0  0  0  0  0  0  0
   41.5526    9.6971   12.1214 H   0  0  0  0  0  0  0  0  0  0  0  0
   40.7319   13.2241    7.3055 H   0  0  0  0  0  0  0  0  0  0  0  0
   40.0892   14.3294    8.5249 H   0  0  0  0  0  0  0  0  0  0  0  0
   41.1054   14.9551    7.2214 H   0  0  0  0  0  0  0  0  0  0  0  0
   43.6096    6.8165   10.7003 H   0  0  0  0  0  0  0  0  0  0  0  0
   44.9157   10.7943   11.7077 H   0  0  0  0  0  0  0  0  0  0  0  0
   46.4351    9.8635   13.4141 H   0  0  0  0  0  0  0  0  0  0  0  0
   45.1457    5.8824   12.4131 H   0  0  0  0  0  0  0  0  0  0  0  0
   46.5573    7.4069   13.7761 H   0  0  0  0  0  0  0  0  0  0  0  0
   40.6742   14.4315    9.2567 H   0  0  0  0  0  0  0  0  0  0  0  0
   41.3683   11.3401   11.3800 H   0  0  0  0  0  0  0  0  0  0  0  0
   42.2353   13.5583    7.7878 H   0  0  0  0  0  0  0  0  0  0  0  0
   43.8050   11.7882    7.0732 H   0  0  0  0  0  0  0  0  0  0  0  0
   44.1691    9.7920    8.5048 H   0  0  0  0  0  0  0  0  0  0  0  0
   39.1792   12.3417   10.9238 H   0  0  0  0  0  0  0  0  0  0  0  0
   38.9205   12.7157    9.2168 H   0  0  0  0  0  0  0  0  0  0  0  0
   38.5845   13.9358   10.4553 H   0  0  0  0  0  0  0  0  0  0  0  0
   44.6856   11.2538   11.7967 H   0  0  0  0  0  0  0  0  0  0  0  0
   44.0476    7.0482   11.1290 H   0  0  0  0  0  0  0  0  0  0  0  0
   46.9220   10.7675   12.7215 H   0  0  0  0  0  0  0  0  0  0  0  0
   46.2929    6.5609   12.0751 H   0  0  0  0  0  0  0  0  0  0  0  0
   47.7364    8.4237   12.8612 H   0  0  0  0  0  0  0  0  0  0  0  0
   43.2957   10.5225   10.9253 H   0  0  0  0  0  0  0  0  0  0  0  0
   42.4390   11.6012   10.2667 H   0  0  0  0  0  0  0  0  0  0  0  0
  3  4  1  0
  4  2  1  0
  5  3  2  0
  6  2  1  0
  7  2  2  0
  8  5  1  0
  9  8  1  0
 10  9  1  0
 11  3  1  0
 12 11  2  0
 13  8  2  0
 14  4  1  0
 15 10  2  0
 16 10  1  0
 17 16  2  0
 18 15  1  0
 19 17  1  0
 12 13  1  0
 18 19  2  0
 21 22  1  0
 22 20  1  0
 23 21  2  0
 24 20  1  0
 25 20  2  0
 26 23  1  0
 27 26  1  0
 28 27  1  0
 29 21  1  0
 30 29  2  0
 31 26  2  0
 32 22  1  0
 33 28  2  0
 34 28  1  0
 35 33  1  0
 36 34  2  0
 37 36  1  0
 30 31  1  0
 35 37  2  0
  1 40  1  0
  1 41  1  0
  4 42  1  6
  5 43  1  0
 11 44  1  0
 12 45  1  0
 13 46  1  0
 14 47  1  0
 14 48  1  0
 14 49  1  0
 15 50  1  0
 16 51  1  0
 17 52  1  0
 18 53  1  0
 19 54  1  0
 22 55  1  6
 23 56  1  0
 29 57  1  0
 30 58  1  0
 31 59  1  0
 32 60  1  0
 32 61  1  0
 32 62  1  0
 33 63  1  0
 34 64  1  0
 35 65  1  0
 36 66  1  0
 37 67  1  0
 39 68  1  0
 39 69  1  0
M  CHG  3   6  -1  24  -1  38   2
M  END
> <Uni-Dock RESULT> 
ENERGY=   -5.805  LOWER_BOUND=    4.792  UPPER_BOUND=    6.828
INTER + INTRA:          -5.805
INTER:                  -5.805
INTRA:                   0.000
UNBOUND:                 0.000

$$$$

     RDKit          3D

 69 68  0  0  0  0  0  0  0  0999 V2000
   51.8469    3.8530   18.9346 O   0  0  0  0  0  0  0  0  0  0  0  0
   55.2110    1.9427   19.7294 C   0  0  0  0  0  0  0  0  0  0  0  0
   53.5988    3.1417   18.1910 C   0  0  0  0  0  0  0  0  0  0  0  0
   54.3700    1.8531   18.4353 C   0  0  1  0  0  0  0  0  0  0  0  0
   52.2045    3.1089   18.0390 C   0  0  0  0  0  0  0  0  0  0  0  0
   56.4204    2.2929   19.5939 O   0  0  0  0  0  0  0  0  0  0  0  0
   54.5943    1.6299   20.7896 O   0  0  0  0  0  0  0  0  0  0  0  0
   51.4924    4.2895   17.8287 C   0  0  0  0  0  0  0  0  0  0  0  0
   50.1279    4.1995   17.6793 O   0  0  0  0  0  0  0  0  0  0  0  0
   49.3578    4.9155   18.5700 C   0  0  0  0  0  0  0  0  0  0  0  0
   54.2565    4.3786   18.0969 C   0  0  0  0  0  0  0  0  0  0  0  0
   53.5426    5.5546   17.8577 C   0  0  0  0  0  0  0  0  0  0  0  0
   52.1578    5.5115   17.7169 C   0  0  0  0  0  0  0  0  0  0  0  0
   55.2134    1.4790   17.2163 C   0  0  0  0  0  0  0  0  0  0  0  0
   48.2004    5.5051   18.0597 C   0  0  0  0  0  0  0  0  0  0  0  0
   49.6500    5.0132   19.9332 C   0  0  0  0  0  0  0  0  0  0  0  0
   48.7979    5.7290   20.7763 C   0  0  0  0  0  0  0  0  0  0  0  0
   47.3501    6.2205   18.9041 C   0  0  0  0  0  0  0  0  0  0  0  0
   47.6503    6.3344   20.2616 C   0  0  0  0  0  0  0  0  0  0  0  0
   55.5559    4.3326   19.1080 C   0  0  0  0  0  0  0  0  0  0  0  0
   53.6842    3.2488   17.8079 C   0  0  0  0  0  0  0  0  0  0  0  0
   55.1652    3.5936   17.8082 C   0  0  1  0  0  0  0  0  0  0  0  0
   52.6999    4.2496   17.8090 C   0  0  0  0  0  0  0  0  0  0  0  0
   55.5156    5.5970   19.0697 O   0  0  0  0  0  0  0  0  0  0  0  0
   55.9026    3.5797   20.0664 O   0  0  0  0  0  0  0  0  0  0  0  0
   51.3476    3.9067   17.8303 C   0  0  0  0  0  0  0  0  0  0  0  0
   50.4185    4.9220   17.8224 O   0  0  0  0  0  0  0  0  0  0  0  0
   49.5789    4.9963   18.9136 C   0  0  0  0  0  0  0  0  0  0  0  0
   53.2766    1.9044   17.8136 C   0  0  0  0  0  0  0  0  0  0  0  0
   51.9208    1.5661   17.8073 C   0  0  0  0  0  0  0  0  0  0  0  0
   50.9526    2.5680   17.8075 C   0  0  0  0  0  0  0  0  0  0  0  0
   55.5640    4.3777   16.5591 C   0  0  0  0  0  0  0  0  0  0  0  0
   50.0065    4.7839   20.2278 C   0  0  0  0  0  0  0  0  0  0  0  0
   48.2566    5.3650   18.6610 C   0  0  0  0  0  0  0  0  0  0  0  0
   49.0983    4.9033   21.2814 C   0  0  0  0  0  0  0  0  0  0  0  0
   47.3507    5.4848   19.7160 C   0  0  0  0  0  0  0  0  0  0  0  0
   47.7705    5.2464   21.0256 C   0  0  0  0  0  0  0  0  0  0  0  0
   51.8443    4.0707   18.6016 Ca  0  0  0  0  0 15  0  0  0  0  0  0
   51.8477    3.8526   18.9343 O   0  0  0  0  0  0  0  0  0  0  0  0
   51.1826    4.4977   18.6484 H   0  0  0  0  0  0  0  0  0  0  0  0
   52.5033    3.8613   18.2219 H   0  0  0  0  0  0  0  0  0  0  0  0
   53.6538    1.0348   18.5920 H   0  0  0  0  0  0  0  0  0  0  0  0
   51.6711    2.1653   18.1106 H   0  0  0  0  0  0  0  0  0  0  0  0
   55.3386    4.4236   18.2250 H   0  0  0  0  0  0  0  0  0  0  0  0
   54.0725    6.4993   17.7903 H   0  0  0  0  0  0  0  0  0  0  0  0
   51.6040    6.4251   17.5301 H   0  0  0  0  0  0  0  0  0  0  0  0
   54.5794    1.3240   16.3336 H   0  0  0  0  0  0  0  0  0  0  0  0
   55.9427    2.2552   16.9626 H   0  0  0  0  0  0  0  0  0  0  0  0
   55.7680    0.5514   17.3981 H   0  0  0  0  0  0  0  0  0  0  0  0
   47.9659    5.4075   17.0038 H   0  0  0  0  0  0  0  0  0  0  0  0
   50.5319    4.5304   20.3491 H   0  0  0  0  0  0  0  0  0  0  0  0
   49.0308    5.8053   21.8350 H   0  0  0  0  0  0  0  0  0  0  0  0
   46.4530    6.6833   18.5037 H   0  0  0  0  0  0  0  0  0  0  0  0
   46.9874    6.8876   20.9218 H   0  0  0  0  0  0  0  0  0  0  0  0
   55.7456    2.6604   17.7902 H   0  0  0  0  0  0  0  0  0  0  0  0
   52.9914    5.2986   17.8291 H   0  0  0  0  0  0  0  0  0  0  0  0
   54.0240    1.1141   17.8342 H   0  0  0  0  0  0  0  0  0  0  0  0
   51.6248    0.5217   17.8122 H   0  0  0  0  0  0  0  0  0  0  0  0
   49.8992    2.3076   17.8035 H   0  0  0  0  0  0  0  0  0  0  0  0
   55.0311    5.3313   16.4719 H   0  0  0  0  0  0  0  0  0  0  0  0
   55.3536    3.7998   15.6527 H   0  0  0  0  0  0  0  0  0  0  0  0
   56.6355    4.6033   16.5727 H   0  0  0  0  0  0  0  0  0  0  0  0
   51.0452    4.5377   20.4405 H   0  0  0  0  0  0  0  0  0  0  0  0
   47.9356    5.5553   17.6415 H   0  0  0  0  0  0  0  0  0  0  0  0
   49.4340    4.7306   22.3005 H   0  0  0  0  0  0  0  0  0  0  0  0
   46.3200    5.7642   19.5177 H   0  0  0  0  0  0  0  0  0  0  0  0
   47.0674    5.3398   21.8486 H   0  0  0  0  0  0  0  0  0  0  0  0
   51.1821    4.4969   18.6500 H   0  0  0  0  0  0  0  0  0  0  0  0
   52.5029    3.8625   18.2205 H   0  0  0  0  0  0  0  0  0  0  0  0
  3  4  1  0
  4  2  1  0
  5  3  2  0
  6  2  1  0
  7  2  2  0
  8  5  1  0
  9  8  1  0
 10  9  1  0
 11  3  1  0
 12 11  2  0
 13  8  2  0
 14  4  1  0
 15 10  2  0
 16 10  1  0
 17 16  2  0
 18 15  1  0
 19 17  1  0
 12 13  1  0
 18 19  2  0
 21 22  1  0
 22 20  1  0
 23 21  2  0
 24 20  1  0
 25 20  2  0
 26 23  1  0
 27 26  1  0
 28 27  1  0
 29 21  1  0
 30 29  2  0
 31 26  2  0
 32 22  1  0
 33 28  2  0
 34 28  1  0
 35 33  1  0
 36 34  2  0
 37 36  1  0
 30 31  1  0
 35 37  2  0
  1 40  1  0
  1 41  1  0
  4 42  1  6
  5 43  1  0
 11 44  1  0
 12 45  1  0
 13 46  1  0
 14 47  1  0
 14 48  1  0
 14 49  1  0
 15 50  1  0
 16 51  1  0
 17 52  1  0
 18 53  1  0
 19 54  1  0
 22 55  1  6
 23 56  1  0
 29 57  1  0
 30 58  1  0
 31 59  1  0
 32 60  1  0
 32 61  1  0
 32 62  1  0
 33 63  1  0
 34 64  1  0
 35 65  1  0
 36 66  1  0
 37 67  1  0
 39 68  1  0
 39 69  1  0
M  CHG  3   6  -1  24  -1  38   2
M  END
> <Uni-Dock RESULT> 
ENERGY=   -5.796  LOWER_BOUND=    7.462  UPPER_BOUND=   10.030
INTER + INTRA:          -5.796
INTER:                  -5.796
INTRA:                   0.000
UNBOUND:                 0.000

$$$$

     RDKit          3D

 69 68  0  0  0  0  0  0  0  0999 V2000
   48.0452    8.4827   13.3285 O   0  0  0  0  0  0  0  0  0  0  0  0
   48.9400   12.3282   13.2309 C   0  0  0  0  0  0  0  0  0  0  0  0
   49.4882    9.8861   13.6041 C   0  0  0  0  0  0  0  0  0  0  0  0
   49.4658   11.2725   14.2305 C   0  0  1  0  0  0  0  0  0  0  0  0
   48.8038    8.8260   14.2174 C   0  0  0  0  0  0  0  0  0  0  0  0
   49.8131   12.9643   12.5700 O   0  0  0  0  0  0  0  0  0  0  0  0
   47.6809   12.4555   13.2019 O   0  0  0  0  0  0  0  0  0  0  0  0
   48.8104    7.5570   13.6391 C   0  0  0  0  0  0  0  0  0  0  0  0
   48.1290    6.5520   14.2858 O   0  0  0  0  0  0  0  0  0  0  0  0
   47.1323    5.9207   13.5737 C   0  0  0  0  0  0  0  0  0  0  0  0
   50.1985    9.6323   12.4199 C   0  0  0  0  0  0  0  0  0  0  0  0
   50.2261    8.3535   11.8598 C   0  0  0  0  0  0  0  0  0  0  0  0
   49.5361    7.3104   12.4723 C   0  0  0  0  0  0  0  0  0  0  0  0
   50.8364   11.6397   14.7994 C   0  0  0  0  0  0  0  0  0  0  0  0
   46.9980    4.5461   13.7743 C   0  0  0  0  0  0  0  0  0  0  0  0
   46.2393    6.5961   12.7373 C   0  0  0  0  0  0  0  0  0  0  0  0
   45.2333    5.8868   12.0785 C   0  0  0  0  0  0  0  0  0  0  0  0
   45.9919    3.8388   13.1145 C   0  0  0  0  0  0  0  0  0  0  0  0
   45.1114    4.5088   12.2649 C   0  0  0  0  0  0  0  0  0  0  0  0
   50.1311   10.9930   11.4944 C   0  0  0  0  0  0  0  0  0  0  0  0
   49.8631    9.7428   13.6701 C   0  0  0  0  0  0  0  0  0  0  0  0
   50.7829   10.6324   12.8484 C   0  0  1  0  0  0  0  0  0  0  0  0
   49.5088    8.4562   13.2346 C   0  0  0  0  0  0  0  0  0  0  0  0
   50.4034   10.2337   10.5193 O   0  0  0  0  0  0  0  0  0  0  0  0
   49.4119   12.0362   11.5094 O   0  0  0  0  0  0  0  0  0  0  0  0
   48.6460    7.6681   13.9970 C   0  0  0  0  0  0  0  0  0  0  0  0
   48.3334    6.4103   13.5340 O   0  0  0  0  0  0  0  0  0  0  0  0
   47.0034    6.1671   13.2637 C   0  0  0  0  0  0  0  0  0  0  0  0
   49.3435   10.2072   14.8899 C   0  0  0  0  0  0  0  0  0  0  0  0
   48.5016    9.4033   15.6630 C   0  0  0  0  0  0  0  0  0  0  0  0
   48.1574    8.1276   15.2213 C   0  0  0  0  0  0  0  0  0  0  0  0
   52.1658   10.0073   12.6722 C   0  0  0  0  0  0  0  0  0  0  0  0
   46.1618    7.0985   12.6479 C   0  0  0  0  0  0  0  0  0  0  0  0
   46.5241    4.8945   13.5782 C   0  0  0  0  0  0  0  0  0  0  0  0
   44.8317    6.7653   12.3849 C   0  0  0  0  0  0  0  0  0  0  0  0
   45.1943    4.5633   13.3134 C   0  0  0  0  0  0  0  0  0  0  0  0
   44.3465    5.5020   12.7235 C   0  0  0  0  0  0  0  0  0  0  0  0
   48.3532    8.2314   13.3148 Ca  0  0  0  0  0 15  0  0  0  0  0  0
   48.0457    8.4834   13.3286 O   0  0  0  0  0  0  0  0  0  0  0  0
   48.0269    7.5230   13.1961 H   0  0  0  0  0  0  0  0  0  0  0  0
   48.9876    8.6885   13.4198 H   0  0  0  0  0  0  0  0  0  0  0  0
   48.7601   11.2704   15.0726 H   0  0  0  0  0  0  0  0  0  0  0  0
   48.2439    8.9964   15.1326 H   0  0  0  0  0  0  0  0  0  0  0  0
   50.7258   10.4477   11.9236 H   0  0  0  0  0  0  0  0  0  0  0  0
   50.7809    8.1815   10.9430 H   0  0  0  0  0  0  0  0  0  0  0  0
   49.5587    6.3173   12.0373 H   0  0  0  0  0  0  0  0  0  0  0  0
   51.1408   10.9285   15.5784 H   0  0  0  0  0  0  0  0  0  0  0  0
   51.6177   11.6384   14.0324 H   0  0  0  0  0  0  0  0  0  0  0  0
   50.8153   12.6395   15.2478 H   0  0  0  0  0  0  0  0  0  0  0  0
   47.6803    4.0294   14.4427 H   0  0  0  0  0  0  0  0  0  0  0  0
   46.3132    7.6727   12.5983 H   0  0  0  0  0  0  0  0  0  0  0  0
   44.5433    6.4155   11.4263 H   0  0  0  0  0  0  0  0  0  0  0  0
   45.8929    2.7683   13.2676 H   0  0  0  0  0  0  0  0  0  0  0  0
   44.3247    3.9607   11.7532 H   0  0  0  0  0  0  0  0  0  0  0  0
   50.9337   11.5785   13.3869 H   0  0  0  0  0  0  0  0  0  0  0  0
   49.8796    8.0838   12.2810 H   0  0  0  0  0  0  0  0  0  0  0  0
   49.5893   11.2094   15.2344 H   0  0  0  0  0  0  0  0  0  0  0  0
   48.1094    9.7793   16.6028 H   0  0  0  0  0  0  0  0  0  0  0  0
   47.5030    7.5021   15.8195 H   0  0  0  0  0  0  0  0  0  0  0  0
   52.1298    9.0445   12.1500 H   0  0  0  0  0  0  0  0  0  0  0  0
   52.6428    9.8366   13.6434 H   0  0  0  0  0  0  0  0  0  0  0  0
   52.8156   10.6695   12.0904 H   0  0  0  0  0  0  0  0  0  0  0  0
   46.5360    8.0791   12.3595 H   0  0  0  0  0  0  0  0  0  0  0  0
   47.1885    4.1653   14.0316 H   0  0  0  0  0  0  0  0  0  0  0  0
   44.1797    7.4952   11.9123 H   0  0  0  0  0  0  0  0  0  0  0  0
   44.8202    3.5752   13.5657 H   0  0  0  0  0  0  0  0  0  0  0  0
   43.3111    5.2462   12.5157 H   0  0  0  0  0  0  0  0  0  0  0  0
   48.0252    7.5238   13.1961 H   0  0  0  0  0  0  0  0  0  0  0  0
   48.9887    8.6870   13.4196 H   0  0  0  0  0  0  0  0  0  0  0  0
  3  4  1  0
  4  2  1  0
  5  3  2  0
  6  2  1  0
  7  2  2  0
  8  5  1  0
  9  8  1  0
 10  9  1  0
 11  3  1  0
 12 11  2  0
 13  8  2  0
 14  4  1  0
 15 10  2  0
 16 10  1  0
 17 16  2  0
 18 15  1  0
 19 17  1  0
 12 13  1  0
 18 19  2  0
 21 22  1  0
 22 20  1  0
 23 21  2  0
 24 20  1  0
 25 20  2  0
 26 23  1  0
 27 26  1  0
 28 27  1  0
 29 21  1  0
 30 29  2  0
 31 26  2  0
 32 22  1  0
 33 28  2  0
 34 28  1  0
 35 33  1  0
 36 34  2  0
 37 36  1  0
 30 31  1  0
 35 37  2  0
  1 40  1  0
  1 41  1  0
  4 42  1  6
  5 43  1  0
 11 44  1  0
 12 45  1  0
 13 46  1  0
 14 47  1  0
 14 48  1  0
 14 49  1  0
 15 50  1  0
 16 51  1  0
 17 52  1  0
 18 53  1  0
 19 54  1  0
 22 55  1  6
 23 56  1  0
 29 57  1  0
 30 58  1  0
 31 59  1  0
 32 60  1  0
 32 61  1  0
 32 62  1  0
 33 63  1  0
 34 64  1  0
 35 65  1  0
 36 66  1  0
 37 67  1  0
 39 68  1  0
 39 69  1  0
M  CHG  3   6  -1  24  -1  38   2
M  END
> <Uni-Dock RESULT> 
ENERGY=   -5.569  LOWER_BOUND=    1.815  UPPER_BOUND=    2.939
INTER + INTRA:          -5.569
INTER:                  -5.569
INTRA:                   0.000
UNBOUND:                 0.000

$$$$

     RDKit          3D

 69 68  0  0  0  0  0  0  0  0999 V2000
   48.6731    9.9453   20.9283 O   0  0  0  0  0  0  0  0  0  0  0  0
   50.1520   13.5921   20.5954 C   0  0  0  0  0  0  0  0  0  0  0  0
   48.8867   11.5764   19.7358 C   0  0  0  0  0  0  0  0  0  0  0  0
   50.0539   12.5198   19.4861 C   0  0  1  0  0  0  0  0  0  0  0  0
   49.1054   10.1929   19.8168 C   0  0  0  0  0  0  0  0  0  0  0  0
   49.5889   14.7017   20.3597 O   0  0  0  0  0  0  0  0  0  0  0  0
   50.8121   13.2439   21.6178 O   0  0  0  0  0  0  0  0  0  0  0  0
   48.0402    9.3259   20.0593 C   0  0  0  0  0  0  0  0  0  0  0  0
   48.3094    7.9783   20.1222 O   0  0  0  0  0  0  0  0  0  0  0  0
   47.9692    7.3317   21.2906 C   0  0  0  0  0  0  0  0  0  0  0  0
   47.5755   12.0590   19.8740 C   0  0  0  0  0  0  0  0  0  0  0  0
   46.5078   11.1848   20.0882 C   0  0  0  0  0  0  0  0  0  0  0  0
   46.7376    9.8141   20.1755 C   0  0  0  0  0  0  0  0  0  0  0  0
   49.9744   13.1326   18.0878 C   0  0  0  0  0  0  0  0  0  0  0  0
   47.4666    6.0361   21.1623 C   0  0  0  0  0  0  0  0  0  0  0  0
   48.1652    7.8835   22.5595 C   0  0  0  0  0  0  0  0  0  0  0  0
   47.8268    7.1473   23.6965 C   0  0  0  0  0  0  0  0  0  0  0  0
   47.1286    5.3020   22.3001 C   0  0  0  0  0  0  0  0  0  0  0  0
   47.3063    5.8587   23.5668 C   0  0  0  0  0  0  0  0  0  0  0  0
   47.6593   13.5344   20.6013 C   0  0  0  0  0  0  0  0  0  0  0  0
   48.6760   11.5691   19.3879 C   0  0  0  0  0  0  0  0  0  0  0  0
   48.1078   12.9712   19.2338 C   0  0  1  0  0  0  0  0  0  0  0  0
   47.8787   10.5006   19.8272 C   0  0  0  0  0  0  0  0  0  0  0  0
   46.4483   13.3466   20.9169 O   0  0  0  0  0  0  0  0  0  0  0  0
   48.5594   14.1513   21.2454 O   0  0  0  0  0  0  0  0  0  0  0  0
   48.4297    9.2280   19.9807 C   0  0  0  0  0  0  0  0  0  0  0  0
   47.6075    8.2097   20.4062 O   0  0  0  0  0  0  0  0  0  0  0  0
   47.9412    7.6079   21.6010 C   0  0  0  0  0  0  0  0  0  0  0  0
   50.0278   11.3236   19.0946 C   0  0  0  0  0  0  0  0  0  0  0  0
   50.5682   10.0415   19.2237 C   0  0  0  0  0  0  0  0  0  0  0  0
   49.7670    8.9883   19.6599 C   0  0  0  0  0  0  0  0  0  0  0  0
   46.9859   13.0165   18.1977 C   0  0  0  0  0  0  0  0  0  0  0  0
   48.3995    8.3160   22.7162 C   0  0  0  0  0  0  0  0  0  0  0  0
   47.7398    6.2292   21.6842 C   0  0  0  0  0  0  0  0  0  0  0  0
   48.6919    7.6347   23.8992 C   0  0  0  0  0  0  0  0  0  0  0  0
   48.0318    5.5504   22.8683 C   0  0  0  0  0  0  0  0  0  0  0  0
   48.5151    6.2529   23.9733 C   0  0  0  0  0  0  0  0  0  0  0  0
   48.3833    9.8504   20.6727 Ca  0  0  0  0  0 15  0  0  0  0  0  0
   48.6732    9.9460   20.9278 O   0  0  0  0  0  0  0  0  0  0  0  0
   48.0935    9.1689   20.9446 H   0  0  0  0  0  0  0  0  0  0  0  0
   48.3833   10.4371   20.1453 H   0  0  0  0  0  0  0  0  0  0  0  0
   50.9900   11.9464   19.5313 H   0  0  0  0  0  0  0  0  0  0  0  0
   50.1107    9.7938   19.7165 H   0  0  0  0  0  0  0  0  0  0  0  0
   47.3895   13.1325   19.8261 H   0  0  0  0  0  0  0  0  0  0  0  0
   45.5030   11.5812   20.1933 H   0  0  0  0  0  0  0  0  0  0  0  0
   45.9079    9.1356   20.3408 H   0  0  0  0  0  0  0  0  0  0  0  0
   50.0070   12.3529   17.3157 H   0  0  0  0  0  0  0  0  0  0  0  0
   49.0525   13.7036   17.9369 H   0  0  0  0  0  0  0  0  0  0  0  0
   50.8163   13.8125   17.9137 H   0  0  0  0  0  0  0  0  0  0  0  0
   47.3371    5.6031   20.1748 H   0  0  0  0  0  0  0  0  0  0  0  0
   48.5869    8.8799   22.6737 H   0  0  0  0  0  0  0  0  0  0  0  0
   47.9775    7.5817   24.6812 H   0  0  0  0  0  0  0  0  0  0  0  0
   46.7322    4.2962   22.1977 H   0  0  0  0  0  0  0  0  0  0  0  0
   47.0476    5.2873   24.4544 H   0  0  0  0  0  0  0  0  0  0  0  0
   48.9014   13.6359   18.8647 H   0  0  0  0  0  0  0  0  0  0  0  0
   46.8343   10.6714   20.0837 H   0  0  0  0  0  0  0  0  0  0  0  0
   50.6675   12.1428   18.7731 H   0  0  0  0  0  0  0  0  0  0  0  0
   51.6151    9.8709   18.9929 H   0  0  0  0  0  0  0  0  0  0  0  0
   50.1848    7.9921   19.7618 H   0  0  0  0  0  0  0  0  0  0  0  0
   46.1392   12.3742   18.4648 H   0  0  0  0  0  0  0  0  0  0  0  0
   47.3484   12.6910   17.2166 H   0  0  0  0  0  0  0  0  0  0  0  0
   46.6009   14.0362   18.0924 H   0  0  0  0  0  0  0  0  0  0  0  0
   48.5198    9.3970   22.6762 H   0  0  0  0  0  0  0  0  0  0  0  0
   47.3581    5.6876   20.8243 H   0  0  0  0  0  0  0  0  0  0  0  0
   49.0543    8.1886   24.7612 H   0  0  0  0  0  0  0  0  0  0  0  0
   47.8821    4.4763   22.9296 H   0  0  0  0  0  0  0  0  0  0  0  0
   48.7424    5.7268   24.8964 H   0  0  0  0  0  0  0  0  0  0  0  0
   48.0948    9.1689   20.9460 H   0  0  0  0  0  0  0  0  0  0  0  0
   48.3819   10.4363   20.1444 H   0  0  0  0  0  0  0  0  0  0  0  0
  3  4  1  0
  4  2  1  0
  5  3  2  0
  6  2  1  0
  7  2  2  0
  8  5  1  0
  9  8  1  0
 10  9  1  0
 11  3  1  0
 12 11  2  0
 13  8  2  0
 14  4  1  0
 15 10  2  0
 16 10  1  0
 17 16  2  0
 18 15  1  0
 19 17  1  0
 12 13  1  0
 18 19  2  0
 21 22  1  0
 22 20  1  0
 23 21  2  0
 24 20  1  0
 25 20  2  0
 26 23  1  0
 27 26  1  0
 28 27  1  0
 29 21  1  0
 30 29  2  0
 31 26  2  0
 32 22  1  0
 33 28  2  0
 34 28  1  0
 35 33  1  0
 36 34  2  0
 37 36  1  0
 30 31  1  0
 35 37  2  0
  1 40  1  0
  1 41  1  0
  4 42  1  6
  5 43  1  0
 11 44  1  0
 12 45  1  0
 13 46  1  0
 14 47  1  0
 14 48  1  0
 14 49  1  0
 15 50  1  0
 16 51  1  0
 17 52  1  0
 18 53  1  0
 19 54  1  0
 22 55  1  6
 23 56  1  0
 29 57  1  0
 30 58  1  0
 31 59  1  0
 32 60  1  0
 32 61  1  0
 32 62  1  0
 33 63  1  0
 34 64  1  0
 35 65  1  0
 36 66  1  0
 37 67  1  0
 39 68  1  0
 39 69  1  0
M  CHG  3   6  -1  24  -1  38   2
M  END
> <Uni-Dock RESULT> 
ENERGY=   -5.546  LOWER_BOUND=    8.368  UPPER_BOUND=    9.698
INTER + INTRA:          -5.546
INTER:                  -5.546
INTRA:                   0.000
UNBOUND:                 0.000

$$$$

     RDKit          3D

 69 68  0  0  0  0  0  0  0  0999 V2000
   48.8031    7.2967   13.6333 O   0  0  0  0  0  0  0  0  0  0  0  0
   52.2815    8.1670   15.2890 C   0  0  0  0  0  0  0  0  0  0  0  0
   50.1942    8.7371   13.9769 C   0  0  0  0  0  0  0  0  0  0  0  0
   51.7155    8.7199   13.9608 C   0  0  1  0  0  0  0  0  0  0  0  0
   49.4727    8.0719   12.9742 C   0  0  0  0  0  0  0  0  0  0  0  0
   52.5952    9.0222   16.1687 O   0  0  0  0  0  0  0  0  0  0  0  0
   52.3904    6.9069   15.3394 O   0  0  0  0  0  0  0  0  0  0  0  0
   48.0781    8.0737   12.9932 C   0  0  0  0  0  0  0  0  0  0  0  0
   47.4205    7.4119   11.9822 O   0  0  0  0  0  0  0  0  0  0  0  0
   46.5592    6.4040   12.3584 C   0  0  0  0  0  0  0  0  0  0  0  0
   49.4831    9.4237   14.9740 C   0  0  0  0  0  0  0  0  0  0  0  0
   48.0869    9.4468   14.9728 C   0  0  0  0  0  0  0  0  0  0  0  0
   47.3806    8.7759   13.9776 C   0  0  0  0  0  0  0  0  0  0  0  0
   52.2761   10.1002   13.6175 C   0  0  0  0  0  0  0  0  0  0  0  0
   45.3819    6.2819   11.6188 C   0  0  0  0  0  0  0  0  0  0  0  0
   46.8440    5.4897   13.3762 C   0  0  0  0  0  0  0  0  0  0  0  0
   45.9327    4.4741   13.6720 C   0  0  0  0  0  0  0  0  0  0  0  0
   44.4722    5.2662   11.9164 C   0  0  0  0  0  0  0  0  0  0  0  0
   44.7466    4.3641   12.9445 C   0  0  0  0  0  0  0  0  0  0  0  0
   50.3567    9.3288   16.3670 C   0  0  0  0  0  0  0  0  0  0  0  0
   50.0883    9.1142   13.8670 C   0  0  0  0  0  0  0  0  0  0  0  0
   50.5692   10.0113   14.9968 C   0  0  1  0  0  0  0  0  0  0  0  0
   48.7364    8.7581   13.7402 C   0  0  0  0  0  0  0  0  0  0  0  0
   49.2684    9.5848   16.9599 O   0  0  0  0  0  0  0  0  0  0  0  0
   51.3201    8.6041   16.7574 O   0  0  0  0  0  0  0  0  0  0  0  0
   48.3244    7.9162   12.7067 C   0  0  0  0  0  0  0  0  0  0  0  0
   46.9876    7.6012   12.6177 O   0  0  0  0  0  0  0  0  0  0  0  0
   46.6605    6.2672   12.7384 C   0  0  0  0  0  0  0  0  0  0  0  0
   51.0059    8.6178   12.9261 C   0  0  0  0  0  0  0  0  0  0  0  0
   50.5837    7.7971   11.8768 C   0  0  0  0  0  0  0  0  0  0  0  0
   49.2392    7.4510   11.7604 C   0  0  0  0  0  0  0  0  0  0  0  0
   49.9216   11.3937   14.9367 C   0  0  0  0  0  0  0  0  0  0  0  0
   47.2682    5.4073   13.6585 C   0  0  0  0  0  0  0  0  0  0  0  0
   45.6235    5.8020   11.9282 C   0  0  0  0  0  0  0  0  0  0  0  0
   46.8616    4.0740   13.7363 C   0  0  0  0  0  0  0  0  0  0  0  0
   45.2180    4.4689   12.0085 C   0  0  0  0  0  0  0  0  0  0  0  0
   45.8428    3.6033   12.9076 C   0  0  0  0  0  0  0  0  0  0  0  0
   48.5665    7.6058   13.5514 Ca  0  0  0  0  0 15  0  0  0  0  0  0
   48.8038    7.2973   13.6335 O   0  0  0  0  0  0  0  0  0  0  0  0
   47.8713    7.2812   13.3679 H   0  0  0  0  0  0  0  0  0  0  0  0
   49.0252    8.2396   13.6529 H   0  0  0  0  0  0  0  0  0  0  0  0
   52.0546    8.0322   13.1739 H   0  0  0  0  0  0  0  0  0  0  0  0
   49.9986    7.5306   12.1931 H   0  0  0  0  0  0  0  0  0  0  0  0
   50.0282    9.9356   15.7678 H   0  0  0  0  0  0  0  0  0  0  0  0
   47.5588    9.9831   15.7548 H   0  0  0  0  0  0  0  0  0  0  0  0
   46.2963    8.7951   13.9767 H   0  0  0  0  0  0  0  0  0  0  0  0
   51.9374   10.4250   12.6251 H   0  0  0  0  0  0  0  0  0  0  0  0
   51.9638   10.8651   14.3360 H   0  0  0  0  0  0  0  0  0  0  0  0
   53.3719   10.0827   13.6090 H   0  0  0  0  0  0  0  0  0  0  0  0
   45.1756    6.9812   10.8140 H   0  0  0  0  0  0  0  0  0  0  0  0
   47.7734    5.5544   13.9381 H   0  0  0  0  0  0  0  0  0  0  0  0
   46.1566    3.7674   14.4667 H   0  0  0  0  0  0  0  0  0  0  0  0
   43.5541    5.1766   11.3435 H   0  0  0  0  0  0  0  0  0  0  0  0
   44.0415    3.5699   13.1752 H   0  0  0  0  0  0  0  0  0  0  0  0
   51.6515   10.1679   14.8878 H   0  0  0  0  0  0  0  0  0  0  0  0
   48.0106    9.1109   14.4713 H   0  0  0  0  0  0  0  0  0  0  0  0
   52.0612    8.8650   13.0193 H   0  0  0  0  0  0  0  0  0  0  0  0
   51.3073    7.4226   11.1594 H   0  0  0  0  0  0  0  0  0  0  0  0
   48.9093    6.8130   10.9471 H   0  0  0  0  0  0  0  0  0  0  0  0
   48.8302   11.3522   15.0265 H   0  0  0  0  0  0  0  0  0  0  0  0
   50.1545   11.8920   13.9894 H   0  0  0  0  0  0  0  0  0  0  0  0
   50.2916   12.0272   15.7496 H   0  0  0  0  0  0  0  0  0  0  0  0
   48.0487    5.7698   14.3251 H   0  0  0  0  0  0  0  0  0  0  0  0
   45.1362    6.4800   11.2343 H   0  0  0  0  0  0  0  0  0  0  0  0
   47.3417    3.4080   14.4483 H   0  0  0  0  0  0  0  0  0  0  0  0
   44.4162    4.1059   11.3720 H   0  0  0  0  0  0  0  0  0  0  0  0
   45.5284    2.5653   12.9725 H   0  0  0  0  0  0  0  0  0  0  0  0
   47.8720    7.2795   13.3682 H   0  0  0  0  0  0  0  0  0  0  0  0
   49.0238    8.2407   13.6525 H   0  0  0  0  0  0  0  0  0  0  0  0
  3  4  1  0
  4  2  1  0
  5  3  2  0
  6  2  1  0
  7  2  2  0
  8  5  1  0
  9  8  1  0
 10  9  1  0
 11  3  1  0
 12 11  2  0
 13  8  2  0
 14  4  1  0
 15 10  2  0
 16 10  1  0
 17 16  2  0
 18 15  1  0
 19 17  1  0
 12 13  1  0
 18 19  2  0
 21 22  1  0
 22 20  1  0
 23 21  2  0
 24 20  1  0
 25 20  2  0
 26 23  1  0
 27 26  1  0
 28 27  1  0
 29 21  1  0
 30 29  2  0
 31 26  2  0
 32 22  1  0
 33 28  2  0
 34 28  1  0
 35 33  1  0
 36 34  2  0
 37 36  1  0
 30 31  1  0
 35 37  2  0
  1 40  1  0
  1 41  1  0
  4 42  1  6
  5 43  1  0
 11 44  1  0
 12 45  1  0
 13 46  1  0
 14 47  1  0
 14 48  1  0
 14 49  1  0
 15 50  1  0
 16 51  1  0
 17 52  1  0
 18 53  1  0
 19 54  1  0
 22 55  1  6
 23 56  1  0
 29 57  1  0
 30 58  1  0
 31 59  1  0
 32 60  1  0
 32 61  1  0
 32 62  1  0
 33 63  1  0
 34 64  1  0
 35 65  1  0
 36 66  1  0
 37 67  1  0
 39 68  1  0
 39 69  1  0
M  CHG  3   6  -1  24  -1  38   2
M  END
> <Uni-Dock RESULT> 
ENERGY=   -5.524  LOWER_BOUND=    1.974  UPPER_BOUND=    3.364
INTER + INTRA:          -5.524
INTER:                  -5.524
INTRA:                   0.000
UNBOUND:                 0.000

$$$$
