
     RDKit          3D

 69 68  0  0  0  0  0  0  0  0999 V2000
   46.9944    6.6054   11.8968 O   0  0  0  0  0  0  0  0  0  0  0  0
   50.1773    7.9770   11.7761 C   0  0  0  0  0  0  0  0  0  0  0  0
   47.8506    8.4827   12.6246 C   0  0  0  0  0  0  0  0  0  0  0  0
   49.2677    8.0950   13.0198 C   0  0  1  0  0  0  0  0  0  0  0  0
   47.0368    7.6182   11.8741 C   0  0  0  0  0  0  0  0  0  0  0  0
   50.7385    9.0574   11.4224 O   0  0  0  0  0  0  0  0  0  0  0  0
   50.2917    6.8229   11.2688 O   0  0  0  0  0  0  0  0  0  0  0  0
   45.7246    7.9805   11.5516 C   0  0  0  0  0  0  0  0  0  0  0  0
   44.8838    7.1862   10.8023 O   0  0  0  0  0  0  0  0  0  0  0  0
   44.8726    5.8401   11.0848 C   0  0  0  0  0  0  0  0  0  0  0  0
   47.3323    9.7289   13.0091 C   0  0  0  0  0  0  0  0  0  0  0  0
   46.0328   10.1017   12.6600 C   0  0  0  0  0  0  0  0  0  0  0  0
   45.2296    9.2276   11.9298 C   0  0  0  0  0  0  0  0  0  0  0  0
   49.2906    6.8293   13.8768 C   0  0  0  0  0  0  0  0  0  0  0  0
   44.6463    5.3504   12.3744 C   0  0  0  0  0  0  0  0  0  0  0  0
   45.0277    4.9600   10.0138 C   0  0  0  0  0  0  0  0  0  0  0  0
   44.9927    3.5835   10.2363 C   0  0  0  0  0  0  0  0  0  0  0  0
   44.6116    3.9729   12.5940 C   0  0  0  0  0  0  0  0  0  0  0  0
   44.7870    3.0908   11.5261 C   0  0  0  0  0  0  0  0  0  0  0  0
   43.0056    4.4286   11.5358 C   0  0  0  0  0  0  0  0  0  0  0  0
   45.1875    5.5879   12.1370 C   0  0  0  0  0  0  0  0  0  0  0  0
   44.1948    5.2746   11.0288 C   0  0  1  0  0  0  0  0  0  0  0  0
   45.6288    6.9050   12.3310 C   0  0  0  0  0  0  0  0  0  0  0  0
   43.1203    3.1720   11.4214 O   0  0  0  0  0  0  0  0  0  0  0  0
   42.0281    5.0969   11.9899 O   0  0  0  0  0  0  0  0  0  0  0  0
   46.5849    7.1865   13.3086 C   0  0  0  0  0  0  0  0  0  0  0  0
   46.9956    8.4822   13.4988 O   0  0  0  0  0  0  0  0  0  0  0  0
   48.1144    8.9105   12.8137 C   0  0  0  0  0  0  0  0  0  0  0  0
   45.7158    4.5755   12.9553 C   0  0  0  0  0  0  0  0  0  0  0  0
   46.6502    4.8695   13.9516 C   0  0  0  0  0  0  0  0  0  0  0  0
   47.0836    6.1800   14.1342 C   0  0  0  0  0  0  0  0  0  0  0  0
   44.9039    4.6173    9.8452 C   0  0  0  0  0  0  0  0  0  0  0  0
   48.5536   10.1964   13.1451 C   0  0  0  0  0  0  0  0  0  0  0  0
   48.8029    8.1795   11.8408 C   0  0  0  0  0  0  0  0  0  0  0  0
   49.6726   10.7464   12.5170 C   0  0  0  0  0  0  0  0  0  0  0  0
   49.9209    8.7316   11.2098 C   0  0  0  0  0  0  0  0  0  0  0  0
   50.3556   10.0129   11.5481 C   0  0  0  0  0  0  0  0  0  0  0  0
   46.7499    6.8595   12.0812 Ca  0  0  0  0  0 15  0  0  0  0  0  0
   46.9870    6.5991   11.8961 O   0  0  0  0  0  0  0  0  0  0  0  0
   47.1964    7.4926   12.2304 H   0  0  0  0  0  0  0  0  0  0  0  0
   46.0590    6.4804   12.1164 H   0  0  0  0  0  0  0  0  0  0  0  0
   49.6920    8.8961   13.6417 H   0  0  0  0  0  0  0  0  0  0  0  0
   47.4473    6.6710   11.5286 H   0  0  0  0  0  0  0  0  0  0  0  0
   47.9564   10.4239   13.5662 H   0  0  0  0  0  0  0  0  0  0  0  0
   45.6562   11.0775   12.9476 H   0  0  0  0  0  0  0  0  0  0  0  0
   44.2229    9.5189   11.6493 H   0  0  0  0  0  0  0  0  0  0  0  0
   50.3178    6.5768   14.1629 H   0  0  0  0  0  0  0  0  0  0  0  0
   48.8747    5.9601   13.3552 H   0  0  0  0  0  0  0  0  0  0  0  0
   48.7101    6.9708   14.7958 H   0  0  0  0  0  0  0  0  0  0  0  0
   44.5098    6.0356   13.2045 H   0  0  0  0  0  0  0  0  0  0  0  0
   45.1988    5.3498    9.0152 H   0  0  0  0  0  0  0  0  0  0  0  0
   45.1386    2.8975    9.4071 H   0  0  0  0  0  0  0  0  0  0  0  0
   44.4556    3.5895   13.5971 H   0  0  0  0  0  0  0  0  0  0  0  0
   44.7726    2.0185   11.6996 H   0  0  0  0  0  0  0  0  0  0  0  0
   43.7629    6.2179   10.6635 H   0  0  0  0  0  0  0  0  0  0  0  0
   45.2336    7.7101   11.7182 H   0  0  0  0  0  0  0  0  0  0  0  0
   45.3827    3.5458   12.8245 H   0  0  0  0  0  0  0  0  0  0  0  0
   47.0275    4.0710   14.5830 H   0  0  0  0  0  0  0  0  0  0  0  0
   47.8025    6.4154   14.9113 H   0  0  0  0  0  0  0  0  0  0  0  0
   44.1884    4.3650    9.0549 H   0  0  0  0  0  0  0  0  0  0  0  0
   45.4216    3.6952   10.1313 H   0  0  0  0  0  0  0  0  0  0  0  0
   45.6520    5.2934    9.4165 H   0  0  0  0  0  0  0  0  0  0  0  0
   48.0169   10.7703   13.8964 H   0  0  0  0  0  0  0  0  0  0  0  0
   48.4844    7.1811   11.5525 H   0  0  0  0  0  0  0  0  0  0  0  0
   50.0065   11.7461   12.7825 H   0  0  0  0  0  0  0  0  0  0  0  0
   50.4473    8.1580   10.4510 H   0  0  0  0  0  0  0  0  0  0  0  0
   51.2243   10.4386   11.0533 H   0  0  0  0  0  0  0  0  0  0  0  0
   47.2116    7.4837   12.2220 H   0  0  0  0  0  0  0  0  0  0  0  0
   46.0512    6.4957   12.1255 H   0  0  0  0  0  0  0  0  0  0  0  0
  3  4  1  0
  4  2  1  0
  5  3  2  0
  6  2  1  0
  7  2  2  0
  8  5  1  0
  9  8  1  0
 10  9  1  0
 11  3  1  0
 12 11  2  0
 13  8  2  0
 14  4  1  0
 15 10  2  0
 16 10  1  0
 17 16  2  0
 18 15  1  0
 19 17  1  0
 12 13  1  0
 18 19  2  0
 21 22  1  0
 22 20  1  0
 23 21  2  0
 24 20  1  0
 25 20  2  0
 26 23  1  0
 27 26  1  0
 28 27  1  0
 29 21  1  0
 30 29  2  0
 31 26  2  0
 32 22  1  0
 33 28  2  0
 34 28  1  0
 35 33  1  0
 36 34  2  0
 37 36  1  0
 30 31  1  0
 35 37  2  0
  1 40  1  0
  1 41  1  0
  4 42  1  1
  5 43  1  0
 11 44  1  0
 12 45  1  0
 13 46  1  0
 14 47  1  0
 14 48  1  0
 14 49  1  0
 15 50  1  0
 16 51  1  0
 17 52  1  0
 18 53  1  0
 19 54  1  0
 22 55  1  6
 23 56  1  0
 29 57  1  0
 30 58  1  0
 31 59  1  0
 32 60  1  0
 32 61  1  0
 32 62  1  0
 33 63  1  0
 34 64  1  0
 35 65  1  0
 36 66  1  0
 37 67  1  0
 39 68  1  0
 39 69  1  0
M  CHG  3   6  -1  24  -1  38   2
M  END
> <Uni-Dock RESULT> 
ENERGY=   -6.326  LOWER_BOUND=    0.000  UPPER_BOUND=    0.000
INTER + INTRA:          -6.326
INTER:                  -6.326
INTRA:                   0.000
UNBOUND:                 0.000

$$$$

     RDKit          3D

 69 68  0  0  0  0  0  0  0  0999 V2000
   49.1876    8.0190   18.7333 O   0  0  0  0  0  0  0  0  0  0  0  0
   51.7600    5.8593   17.8702 C   0  0  0  0  0  0  0  0  0  0  0  0
   49.2381    6.0264   17.8312 C   0  0  0  0  0  0  0  0  0  0  0  0
   50.5051    6.0517   16.9892 C   0  0  1  0  0  0  0  0  0  0  0  0
   48.9651    7.0306   18.7744 C   0  0  0  0  0  0  0  0  0  0  0  0
   52.0971    4.6520   18.0602 O   0  0  0  0  0  0  0  0  0  0  0  0
   52.3312    6.9136   18.2757 O   0  0  0  0  0  0  0  0  0  0  0  0
   47.7773    7.0064   19.5131 C   0  0  0  0  0  0  0  0  0  0  0  0
   47.4606    7.9501   20.4663 O   0  0  0  0  0  0  0  0  0  0  0  0
   47.7172    9.2659   20.1582 C   0  0  0  0  0  0  0  0  0  0  0  0
   48.3138    4.9820   17.6747 C   0  0  0  0  0  0  0  0  0  0  0  0
   47.1433    4.9428   18.4348 C   0  0  0  0  0  0  0  0  0  0  0  0
   46.8760    5.9547   19.3552 C   0  0  0  0  0  0  0  0  0  0  0  0
   50.5885    7.3128   16.1292 C   0  0  0  0  0  0  0  0  0  0  0  0
   47.2307    9.8681   18.9942 C   0  0  0  0  0  0  0  0  0  0  0  0
   48.4322   10.0145   21.0931 C   0  0  0  0  0  0  0  0  0  0  0  0
   48.6942   11.3624   20.8485 C   0  0  0  0  0  0  0  0  0  0  0  0
   47.4941   11.2168   18.7523 C   0  0  0  0  0  0  0  0  0  0  0  0
   48.2272   11.9622   19.6777 C   0  0  0  0  0  0  0  0  0  0  0  0
   46.2481   11.1386   20.2847 C   0  0  0  0  0  0  0  0  0  0  0  0
   47.7359    9.4847   19.0530 C   0  0  0  0  0  0  0  0  0  0  0  0
   47.2679    9.9849   20.4103 C   0  0  1  0  0  0  0  0  0  0  0  0
   47.7270    8.1109   18.7709 C   0  0  0  0  0  0  0  0  0  0  0  0
   46.7218   12.3134   20.3148 O   0  0  0  0  0  0  0  0  0  0  0  0
   45.0369   10.7750   20.1909 O   0  0  0  0  0  0  0  0  0  0  0  0
   48.2117    7.6438   17.5478 C   0  0  0  0  0  0  0  0  0  0  0  0
   48.1819    6.2983   17.2785 O   0  0  0  0  0  0  0  0  0  0  0  0
   49.3048    5.5556   17.5816 C   0  0  0  0  0  0  0  0  0  0  0  0
   48.2246   10.3676   18.0755 C   0  0  0  0  0  0  0  0  0  0  0  0
   48.6803    9.8952   16.8420 C   0  0  0  0  0  0  0  0  0  0  0  0
   48.6697    8.5291   16.5731 C   0  0  0  0  0  0  0  0  0  0  0  0
   48.4640   10.3678   21.2812 C   0  0  0  0  0  0  0  0  0  0  0  0
   49.2585    4.2200   17.1691 C   0  0  0  0  0  0  0  0  0  0  0  0
   50.4347    6.0266   18.2571 C   0  0  0  0  0  0  0  0  0  0  0  0
   50.3312    3.3630   17.4221 C   0  0  0  0  0  0  0  0  0  0  0  0
   51.5068    5.1677   18.5134 C   0  0  0  0  0  0  0  0  0  0  0  0
   51.4556    3.8381   18.0957 C   0  0  0  0  0  0  0  0  0  0  0  0
   48.8391    7.8482   18.6457 Ca  0  0  0  0  0 15  0  0  0  0  0  0
   49.1827    8.0270   18.7361 O   0  0  0  0  0  0  0  0  0  0  0  0
   49.0303    7.1297   18.3819 H   0  0  0  0  0  0  0  0  0  0  0  0
   48.2993    8.3959   18.8218 H   0  0  0  0  0  0  0  0  0  0  0  0
   50.4812    5.2032   16.2907 H   0  0  0  0  0  0  0  0  0  0  0  0
   49.6996    7.8172   18.9384 H   0  0  0  0  0  0  0  0  0  0  0  0
   48.5206    4.1799   16.9698 H   0  0  0  0  0  0  0  0  0  0  0  0
   46.4505    4.1166   18.3156 H   0  0  0  0  0  0  0  0  0  0  0  0
   45.9717    5.9215   19.9536 H   0  0  0  0  0  0  0  0  0  0  0  0
   51.4995    7.3036   15.5201 H   0  0  0  0  0  0  0  0  0  0  0  0
   50.6061    8.2303   16.7278 H   0  0  0  0  0  0  0  0  0  0  0  0
   49.7303    7.3787   15.4505 H   0  0  0  0  0  0  0  0  0  0  0  0
   46.6608    9.2892   18.2750 H   0  0  0  0  0  0  0  0  0  0  0  0
   48.8025    9.5391   21.9961 H   0  0  0  0  0  0  0  0  0  0  0  0
   49.2726   11.9397   21.5639 H   0  0  0  0  0  0  0  0  0  0  0  0
   47.1345   11.6824   17.8405 H   0  0  0  0  0  0  0  0  0  0  0  0
   48.4429   13.0089   19.4829 H   0  0  0  0  0  0  0  0  0  0  0  0
   46.7410    9.1684   20.9258 H   0  0  0  0  0  0  0  0  0  0  0  0
   47.3489    7.4044   19.5043 H   0  0  0  0  0  0  0  0  0  0  0  0
   48.2358   11.4397   18.2724 H   0  0  0  0  0  0  0  0  0  0  0  0
   49.0345   10.6010   16.0970 H   0  0  0  0  0  0  0  0  0  0  0  0
   49.0145    8.1574   15.6145 H   0  0  0  0  0  0  0  0  0  0  0  0
   48.1309   10.7542   22.2507 H   0  0  0  0  0  0  0  0  0  0  0  0
   49.0885   11.1370   20.8138 H   0  0  0  0  0  0  0  0  0  0  0  0
   49.1022    9.4972   21.4688 H   0  0  0  0  0  0  0  0  0  0  0  0
   48.3789    3.8485   16.6493 H   0  0  0  0  0  0  0  0  0  0  0  0
   50.5009    7.0561   18.5995 H   0  0  0  0  0  0  0  0  0  0  0  0
   50.2859    2.3270   17.0966 H   0  0  0  0  0  0  0  0  0  0  0  0
   52.3794    5.5413   19.0436 H   0  0  0  0  0  0  0  0  0  0  0  0
   52.2909    3.1737   18.2990 H   0  0  0  0  0  0  0  0  0  0  0  0
   49.0492    7.1338   18.3847 H   0  0  0  0  0  0  0  0  0  0  0  0
   48.2853    8.3836   18.8162 H   0  0  0  0  0  0  0  0  0  0  0  0
  3  4  1  0
  4  2  1  0
  5  3  2  0
  6  2  1  0
  7  2  2  0
  8  5  1  0
  9  8  1  0
 10  9  1  0
 11  3  1  0
 12 11  2  0
 13  8  2  0
 14  4  1  0
 15 10  2  0
 16 10  1  0
 17 16  2  0
 18 15  1  0
 19 17  1  0
 12 13  1  0
 18 19  2  0
 21 22  1  0
 22 20  1  0
 23 21  2  0
 24 20  1  0
 25 20  2  0
 26 23  1  0
 27 26  1  0
 28 27  1  0
 29 21  1  0
 30 29  2  0
 31 26  2  0
 32 22  1  0
 33 28  2  0
 34 28  1  0
 35 33  1  0
 36 34  2  0
 37 36  1  0
 30 31  1  0
 35 37  2  0
  1 40  1  0
  1 41  1  0
  4 42  1  1
  5 43  1  0
 11 44  1  0
 12 45  1  0
 13 46  1  0
 14 47  1  0
 14 48  1  0
 14 49  1  0
 15 50  1  0
 16 51  1  0
 17 52  1  0
 18 53  1  0
 19 54  1  0
 22 55  1  6
 23 56  1  0
 29 57  1  0
 30 58  1  0
 31 59  1  0
 32 60  1  0
 32 61  1  0
 32 62  1  0
 33 63  1  0
 34 64  1  0
 35 65  1  0
 36 66  1  0
 37 67  1  0
 39 68  1  0
 39 69  1  0
M  CHG  3   6  -1  24  -1  38   2
M  END
> <Uni-Dock RESULT> 
ENERGY=   -5.533  LOWER_BOUND=    5.978  UPPER_BOUND=    8.634
INTER + INTRA:          -5.533
INTER:                  -5.533
INTRA:                   0.000
UNBOUND:                 0.000

$$$$

     RDKit          3D

 69 68  0  0  0  0  0  0  0  0999 V2000
   48.1489    9.1201   19.1822 O   0  0  0  0  0  0  0  0  0  0  0  0
   47.6040    5.7085   19.4834 C   0  0  0  0  0  0  0  0  0  0  0  0
   48.7184    7.3939   17.9646 C   0  0  0  0  0  0  0  0  0  0  0  0
   48.9464    6.2959   18.9928 C   0  0  1  0  0  0  0  0  0  0  0  0
   48.0956    8.6042   18.3110 C   0  0  0  0  0  0  0  0  0  0  0  0
   47.1569    4.7481   18.7871 O   0  0  0  0  0  0  0  0  0  0  0  0
   47.1158    6.2186   20.5341 O   0  0  0  0  0  0  0  0  0  0  0  0
   47.9275    9.6140   17.3575 C   0  0  0  0  0  0  0  0  0  0  0  0
   47.3073   10.8144   17.6293 O   0  0  0  0  0  0  0  0  0  0  0  0
   47.6230   11.4305   18.8180 C   0  0  0  0  0  0  0  0  0  0  0  0
   49.1320    7.2067   16.6366 C   0  0  0  0  0  0  0  0  0  0  0  0
   48.9357    8.2037   15.6790 C   0  0  0  0  0  0  0  0  0  0  0  0
   48.3318    9.4069   16.0396 C   0  0  0  0  0  0  0  0  0  0  0  0
   49.8259    6.7753   20.1477 C   0  0  0  0  0  0  0  0  0  0  0  0
   48.9427   11.7060   19.1880 C   0  0  0  0  0  0  0  0  0  0  0  0
   46.5638   11.8424   19.6265 C   0  0  0  0  0  0  0  0  0  0  0  0
   46.8236   12.5008   20.8283 C   0  0  0  0  0  0  0  0  0  0  0  0
   49.1997   12.3651   20.3906 C   0  0  0  0  0  0  0  0  0  0  0  0
   48.1409   12.7598   21.2108 C   0  0  0  0  0  0  0  0  0  0  0  0
   48.3353   13.6748   19.1887 C   0  0  0  0  0  0  0  0  0  0  0  0
   48.6347   11.1498   19.2274 C   0  0  0  0  0  0  0  0  0  0  0  0
   47.6650   12.2969   18.9913 C   0  0  1  0  0  0  0  0  0  0  0  0
   48.7397   10.1157   18.2860 C   0  0  0  0  0  0  0  0  0  0  0  0
   48.2395   14.1863   20.3440 O   0  0  0  0  0  0  0  0  0  0  0  0
   48.8888   14.1543   18.1534 O   0  0  0  0  0  0  0  0  0  0  0  0
   49.5852    9.0314   18.5280 C   0  0  0  0  0  0  0  0  0  0  0  0
   49.6906    8.0343   17.5907 O   0  0  0  0  0  0  0  0  0  0  0  0
   48.8628    6.9378   17.7206 C   0  0  0  0  0  0  0  0  0  0  0  0
   49.4074   11.0729   20.3982 C   0  0  0  0  0  0  0  0  0  0  0  0
   50.2738    9.9994   20.6196 C   0  0  0  0  0  0  0  0  0  0  0  0
   50.3685    8.9764   19.6798 C   0  0  0  0  0  0  0  0  0  0  0  0
   46.4203   12.1335   19.8630 C   0  0  0  0  0  0  0  0  0  0  0  0
   49.1052    5.9037   16.8105 C   0  0  0  0  0  0  0  0  0  0  0  0
   47.8316    6.8022   18.6550 C   0  0  0  0  0  0  0  0  0  0  0  0
   48.3309    4.7423   16.8355 C   0  0  0  0  0  0  0  0  0  0  0  0
   47.0544    5.6410   18.6775 C   0  0  0  0  0  0  0  0  0  0  0  0
   47.3043    4.6122   17.7697 C   0  0  0  0  0  0  0  0  0  0  0  0
   48.3554    9.1902   18.8494 Ca  0  0  0  0  0 15  0  0  0  0  0  0
   48.1494    9.1297   19.1842 O   0  0  0  0  0  0  0  0  0  0  0  0
   48.4327    8.4822   18.5101 H   0  0  0  0  0  0  0  0  0  0  0  0
   48.4848    9.9684   18.8558 H   0  0  0  0  0  0  0  0  0  0  0  0
   49.4911    5.4707   18.5125 H   0  0  0  0  0  0  0  0  0  0  0  0
   47.7264    8.7384   19.3262 H   0  0  0  0  0  0  0  0  0  0  0  0
   49.5906    6.2654   16.3421 H   0  0  0  0  0  0  0  0  0  0  0  0
   49.2425    8.0332   14.6526 H   0  0  0  0  0  0  0  0  0  0  0  0
   48.1698   10.1793   15.2952 H   0  0  0  0  0  0  0  0  0  0  0  0
   49.9901    5.9659   20.8680 H   0  0  0  0  0  0  0  0  0  0  0  0
   49.3815    7.6137   20.6955 H   0  0  0  0  0  0  0  0  0  0  0  0
   50.8053    7.1036   19.7810 H   0  0  0  0  0  0  0  0  0  0  0  0
   49.7657   11.3995   18.5508 H   0  0  0  0  0  0  0  0  0  0  0  0
   45.5421   11.6276   19.3289 H   0  0  0  0  0  0  0  0  0  0  0  0
   46.0004   12.7995   21.4707 H   0  0  0  0  0  0  0  0  0  0  0  0
   50.2237   12.5632   20.6901 H   0  0  0  0  0  0  0  0  0  0  0  0
   48.3420   13.2616   22.1531 H   0  0  0  0  0  0  0  0  0  0  0  0
   47.3317   12.2684   17.9434 H   0  0  0  0  0  0  0  0  0  0  0  0
   48.1598   10.1506   17.3681 H   0  0  0  0  0  0  0  0  0  0  0  0
   49.3445   11.8686   21.1407 H   0  0  0  0  0  0  0  0  0  0  0  0
   50.8741    9.9746   21.5239 H   0  0  0  0  0  0  0  0  0  0  0  0
   51.0453    8.1449   19.8425 H   0  0  0  0  0  0  0  0  0  0  0  0
   45.7304   12.9718   19.7163 H   0  0  0  0  0  0  0  0  0  0  0  0
   46.6639   12.0866   20.9300 H   0  0  0  0  0  0  0  0  0  0  0  0
   45.8861   11.2114   19.6082 H   0  0  0  0  0  0  0  0  0  0  0  0
   49.9019    6.0084   16.0782 H   0  0  0  0  0  0  0  0  0  0  0  0
   47.6100    7.5892   19.3711 H   0  0  0  0  0  0  0  0  0  0  0  0
   48.5280    3.9441   16.1247 H   0  0  0  0  0  0  0  0  0  0  0  0
   46.2516    5.5461   19.4044 H   0  0  0  0  0  0  0  0  0  0  0  0
   46.6960    3.7121   17.7899 H   0  0  0  0  0  0  0  0  0  0  0  0
   48.4227    8.4741   18.5249 H   0  0  0  0  0  0  0  0  0  0  0  0
   48.4943    9.9668   18.8390 H   0  0  0  0  0  0  0  0  0  0  0  0
  3  4  1  0
  4  2  1  0
  5  3  2  0
  6  2  1  0
  7  2  2  0
  8  5  1  0
  9  8  1  0
 10  9  1  0
 11  3  1  0
 12 11  2  0
 13  8  2  0
 14  4  1  0
 15 10  2  0
 16 10  1  0
 17 16  2  0
 18 15  1  0
 19 17  1  0
 12 13  1  0
 18 19  2  0
 21 22  1  0
 22 20  1  0
 23 21  2  0
 24 20  1  0
 25 20  2  0
 26 23  1  0
 27 26  1  0
 28 27  1  0
 29 21  1  0
 30 29  2  0
 31 26  2  0
 32 22  1  0
 33 28  2  0
 34 28  1  0
 35 33  1  0
 36 34  2  0
 37 36  1  0
 30 31  1  0
 35 37  2  0
  1 40  1  0
  1 41  1  0
  4 42  1  1
  5 43  1  0
 11 44  1  0
 12 45  1  0
 13 46  1  0
 14 47  1  0
 14 48  1  0
 14 49  1  0
 15 50  1  0
 16 51  1  0
 17 52  1  0
 18 53  1  0
 19 54  1  0
 22 55  1  6
 23 56  1  0
 29 57  1  0
 30 58  1  0
 31 59  1  0
 32 60  1  0
 32 61  1  0
 32 62  1  0
 33 63  1  0
 34 64  1  0
 35 65  1  0
 36 66  1  0
 37 67  1  0
 39 68  1  0
 39 69  1  0
M  CHG  3   6  -1  24  -1  38   2
M  END
> <Uni-Dock RESULT> 
ENERGY=   -5.523  LOWER_BOUND=    5.938  UPPER_BOUND=    9.164
INTER + INTRA:          -5.523
INTER:                  -5.523
INTRA:                   0.000
UNBOUND:                 0.000

$$$$

     RDKit          3D

 69 68  0  0  0  0  0  0  0  0999 V2000
   51.3462    3.9157   18.9640 O   0  0  0  0  0  0  0  0  0  0  0  0
   48.3640    4.8959   20.4378 C   0  0  0  0  0  0  0  0  0  0  0  0
   49.7517    5.2874   18.3617 C   0  0  0  0  0  0  0  0  0  0  0  0
   48.4954    4.6359   18.9202 C   0  0  1  0  0  0  0  0  0  0  0  0
   51.0326    4.8538   18.7413 C   0  0  0  0  0  0  0  0  0  0  0  0
   47.7570    5.9658   20.7441 O   0  0  0  0  0  0  0  0  0  0  0  0
   48.8396    4.0085   21.2050 O   0  0  0  0  0  0  0  0  0  0  0  0
   52.1743    5.4440   18.1887 C   0  0  0  0  0  0  0  0  0  0  0  0
   53.4571    5.0775   18.5344 O   0  0  0  0  0  0  0  0  0  0  0  0
   53.7163    3.7319   18.6538 C   0  0  0  0  0  0  0  0  0  0  0  0
   49.6442    6.3473   17.4482 C   0  0  0  0  0  0  0  0  0  0  0  0
   50.7849    6.9558   16.9209 C   0  0  0  0  0  0  0  0  0  0  0  0
   52.0501    6.5047   17.2927 C   0  0  0  0  0  0  0  0  0  0  0  0
   48.4300    3.1471   18.5794 C   0  0  0  0  0  0  0  0  0  0  0  0
   53.4308    2.8235   17.6303 C   0  0  0  0  0  0  0  0  0  0  0  0
   54.3480    3.3029   19.8210 C   0  0  0  0  0  0  0  0  0  0  0  0
   54.6642    1.9541   19.9831 C   0  0  0  0  0  0  0  0  0  0  0  0
   53.7484    1.4749   17.7952 C   0  0  0  0  0  0  0  0  0  0  0  0
   54.3625    1.0408   18.9716 C   0  0  0  0  0  0  0  0  0  0  0  0
   55.4580    2.4556   17.6444 C   0  0  0  0  0  0  0  0  0  0  0  0
   53.0257    3.0750   18.0527 C   0  0  0  0  0  0  0  0  0  0  0  0
   54.4683    3.3014   18.4763 C   0  0  1  0  0  0  0  0  0  0  0  0
   52.1903    4.1718   17.7955 C   0  0  0  0  0  0  0  0  0  0  0  0
   55.7758    1.3273   18.1253 O   0  0  0  0  0  0  0  0  0  0  0  0
   55.8644    3.0041   16.5757 O   0  0  0  0  0  0  0  0  0  0  0  0
   50.8494    3.9684   17.4642 C   0  0  0  0  0  0  0  0  0  0  0  0
   50.0472    5.0501   17.1991 O   0  0  0  0  0  0  0  0  0  0  0  0
   49.3201    5.5843   18.2434 C   0  0  0  0  0  0  0  0  0  0  0  0
   52.4859    1.7818   17.9521 C   0  0  0  0  0  0  0  0  0  0  0  0
   51.1506    1.5853   17.5909 C   0  0  0  0  0  0  0  0  0  0  0  0
   50.3290    2.6811   17.3404 C   0  0  0  0  0  0  0  0  0  0  0  0
   54.6291    3.0624   19.9772 C   0  0  0  0  0  0  0  0  0  0  0  0
   48.4299    6.6014   17.8837 C   0  0  0  0  0  0  0  0  0  0  0  0
   49.4189    5.2009   19.5843 C   0  0  0  0  0  0  0  0  0  0  0  0
   47.6407    7.2266   18.8509 C   0  0  0  0  0  0  0  0  0  0  0  0
   48.6313    5.8293   20.5528 C   0  0  0  0  0  0  0  0  0  0  0  0
   47.7429    6.8400   20.1865 C   0  0  0  0  0  0  0  0  0  0  0  0
   51.3894    4.1066   18.6175 Ca  0  0  0  0  0 15  0  0  0  0  0  0
   51.3545    3.9108   18.9620 O   0  0  0  0  0  0  0  0  0  0  0  0
   50.7662    4.5888   18.5771 H   0  0  0  0  0  0  0  0  0  0  0  0
   52.0557    3.8155   18.3116 H   0  0  0  0  0  0  0  0  0  0  0  0
   47.6179    5.0992   18.4472 H   0  0  0  0  0  0  0  0  0  0  0  0
   51.1259    4.0663   19.4871 H   0  0  0  0  0  0  0  0  0  0  0  0
   48.6615    6.7163   17.1633 H   0  0  0  0  0  0  0  0  0  0  0  0
   50.6828    7.7877   16.2323 H   0  0  0  0  0  0  0  0  0  0  0  0
   52.9380    6.9820   16.8916 H   0  0  0  0  0  0  0  0  0  0  0  0
   47.5113    2.7013   18.9770 H   0  0  0  0  0  0  0  0  0  0  0  0
   49.2723    2.5827   18.9947 H   0  0  0  0  0  0  0  0  0  0  0  0
   48.4353    2.9956   17.4937 H   0  0  0  0  0  0  0  0  0  0  0  0
   52.9538    3.1606   16.7159 H   0  0  0  0  0  0  0  0  0  0  0  0
   54.5695    4.0164   20.6086 H   0  0  0  0  0  0  0  0  0  0  0  0
   55.1333    1.6150   20.9022 H   0  0  0  0  0  0  0  0  0  0  0  0
   53.5106    0.7640   17.0106 H   0  0  0  0  0  0  0  0  0  0  0  0
   54.5980   -0.0113   19.1047 H   0  0  0  0  0  0  0  0  0  0  0  0
   54.7320    4.3522   18.2862 H   0  0  0  0  0  0  0  0  0  0  0  0
   52.5807    5.1834   17.8588 H   0  0  0  0  0  0  0  0  0  0  0  0
   53.1192    0.9154   18.1430 H   0  0  0  0  0  0  0  0  0  0  0  0
   50.7643    0.5746   17.5014 H   0  0  0  0  0  0  0  0  0  0  0  0
   49.2941    2.5343   17.0516 H   0  0  0  0  0  0  0  0  0  0  0  0
   55.6724    3.1981   20.2827 H   0  0  0  0  0  0  0  0  0  0  0  0
   54.3255    2.0518   20.2716 H   0  0  0  0  0  0  0  0  0  0  0  0
   54.0176    3.7680   20.5504 H   0  0  0  0  0  0  0  0  0  0  0  0
   48.3552    6.9066   16.8430 H   0  0  0  0  0  0  0  0  0  0  0  0
   50.1061    4.4204   19.9005 H   0  0  0  0  0  0  0  0  0  0  0  0
   46.9513    8.0152   18.5610 H   0  0  0  0  0  0  0  0  0  0  0  0
   48.7181    5.5281   21.5938 H   0  0  0  0  0  0  0  0  0  0  0  0
   47.1341    7.3268   20.9434 H   0  0  0  0  0  0  0  0  0  0  0  0
   50.7601    4.5821   18.5944 H   0  0  0  0  0  0  0  0  0  0  0  0
   52.0534    3.8271   18.2962 H   0  0  0  0  0  0  0  0  0  0  0  0
  3  4  1  0
  4  2  1  0
  5  3  2  0
  6  2  1  0
  7  2  2  0
  8  5  1  0
  9  8  1  0
 10  9  1  0
 11  3  1  0
 12 11  2  0
 13  8  2  0
 14  4  1  0
 15 10  2  0
 16 10  1  0
 17 16  2  0
 18 15  1  0
 19 17  1  0
 12 13  1  0
 18 19  2  0
 21 22  1  0
 22 20  1  0
 23 21  2  0
 24 20  1  0
 25 20  2  0
 26 23  1  0
 27 26  1  0
 28 27  1  0
 29 21  1  0
 30 29  2  0
 31 26  2  0
 32 22  1  0
 33 28  2  0
 34 28  1  0
 35 33  1  0
 36 34  2  0
 37 36  1  0
 30 31  1  0
 35 37  2  0
  1 40  1  0
  1 41  1  0
  4 42  1  1
  5 43  1  0
 11 44  1  0
 12 45  1  0
 13 46  1  0
 14 47  1  0
 14 48  1  0
 14 49  1  0
 15 50  1  0
 16 51  1  0
 17 52  1  0
 18 53  1  0
 19 54  1  0
 22 55  1  6
 23 56  1  0
 29 57  1  0
 30 58  1  0
 31 59  1  0
 32 60  1  0
 32 61  1  0
 32 62  1  0
 33 63  1  0
 34 64  1  0
 35 65  1  0
 36 66  1  0
 37 67  1  0
 39 68  1  0
 39 69  1  0
M  CHG  3   6  -1  24  -1  38   2
M  END
> <Uni-Dock RESULT> 
ENERGY=   -5.283  LOWER_BOUND=    6.950  UPPER_BOUND=    9.898
INTER + INTRA:          -5.283
INTER:                  -5.283
INTRA:                   0.000
UNBOUND:                 0.000

$$$$

     RDKit          3D

 69 68  0  0  0  0  0  0  0  0999 V2000
   49.2484    6.8594   20.2414 O   0  0  0  0  0  0  0  0  0  0  0  0
   50.6020    8.7494   22.8147 C   0  0  0  0  0  0  0  0  0  0  0  0
   48.4875    8.5173   21.4493 C   0  0  0  0  0  0  0  0  0  0  0  0
   49.1278    8.2861   22.8100 C   0  0  1  0  0  0  0  0  0  0  0  0
   48.9125    7.8135   20.3106 C   0  0  0  0  0  0  0  0  0  0  0  0
   50.7759    9.9689   23.1140 O   0  0  0  0  0  0  0  0  0  0  0  0
   51.4713    7.8662   22.5563 O   0  0  0  0  0  0  0  0  0  0  0  0
   48.2862    8.0165   19.0762 C   0  0  0  0  0  0  0  0  0  0  0  0
   48.6692    7.3725   17.9194 O   0  0  0  0  0  0  0  0  0  0  0  0
   48.9533    6.0298   18.0116 C   0  0  0  0  0  0  0  0  0  0  0  0
   47.4501    9.4526   21.3132 C   0  0  0  0  0  0  0  0  0  0  0  0
   46.8467    9.6763   20.0741 C   0  0  0  0  0  0  0  0  0  0  0  0
   47.2661    8.9589   18.9552 C   0  0  0  0  0  0  0  0  0  0  0  0
   48.9744    6.8361   23.2691 C   0  0  0  0  0  0  0  0  0  0  0  0
   48.0516    5.1123   18.5585 C   0  0  0  0  0  0  0  0  0  0  0  0
   50.1620    5.5927   17.4697 C   0  0  0  0  0  0  0  0  0  0  0  0
   50.4887    4.2373   17.5061 C   0  0  0  0  0  0  0  0  0  0  0  0
   48.3809    3.7569   18.5933 C   0  0  0  0  0  0  0  0  0  0  0  0
   49.5995    3.3206   18.0696 C   0  0  0  0  0  0  0  0  0  0  0  0
   48.1025    4.2339   16.6954 C   0  0  0  0  0  0  0  0  0  0  0  0
   48.4412    5.5087   18.8695 C   0  0  0  0  0  0  0  0  0  0  0  0
   48.8274    5.4005   17.4029 C   0  0  1  0  0  0  0  0  0  0  0  0
   48.0536    6.7466   19.4028 C   0  0  0  0  0  0  0  0  0  0  0  0
   48.7183    3.1271   16.6618 O   0  0  0  0  0  0  0  0  0  0  0  0
   46.9723    4.5271   16.2005 O   0  0  0  0  0  0  0  0  0  0  0  0
   47.7558    6.8613   20.7620 C   0  0  0  0  0  0  0  0  0  0  0  0
   47.3621    8.0751   21.2674 O   0  0  0  0  0  0  0  0  0  0  0  0
   48.3351    8.9000   21.7938 C   0  0  0  0  0  0  0  0  0  0  0  0
   48.5040    4.3981   19.7275 C   0  0  0  0  0  0  0  0  0  0  0  0
   48.1756    4.5143   21.0806 C   0  0  0  0  0  0  0  0  0  0  0  0
   47.7947    5.7485   21.6006 C   0  0  0  0  0  0  0  0  0  0  0  0
   50.3456    5.3077   17.2547 C   0  0  0  0  0  0  0  0  0  0  0  0
   47.8560   10.0636   22.4044 C   0  0  0  0  0  0  0  0  0  0  0  0
   49.7128    8.6660   21.7486 C   0  0  0  0  0  0  0  0  0  0  0  0
   48.7416   10.9828   22.9701 C   0  0  0  0  0  0  0  0  0  0  0  0
   50.5993    9.5879   22.3119 C   0  0  0  0  0  0  0  0  0  0  0  0
   50.1143   10.7441   22.9226 C   0  0  0  0  0  0  0  0  0  0  0  0
   48.8808    6.9901   20.1631 Ca  0  0  0  0  0 15  0  0  0  0  0  0
   49.2470    6.8523   20.2347 O   0  0  0  0  0  0  0  0  0  0  0  0
   48.7835    7.6094   20.6420 H   0  0  0  0  0  0  0  0  0  0  0  0
   48.6104    6.5014   19.6058 H   0  0  0  0  0  0  0  0  0  0  0  0
   48.6047    8.9023   23.5550 H   0  0  0  0  0  0  0  0  0  0  0  0
   49.7498    7.1230   20.3963 H   0  0  0  0  0  0  0  0  0  0  0  0
   47.1259   10.0281   22.1773 H   0  0  0  0  0  0  0  0  0  0  0  0
   46.0607   10.4184   19.9833 H   0  0  0  0  0  0  0  0  0  0  0  0
   46.8052    9.1377   17.9895 H   0  0  0  0  0  0  0  0  0  0  0  0
   49.4281    6.6950   24.2566 H   0  0  0  0  0  0  0  0  0  0  0  0
   49.4529    6.1253   22.5862 H   0  0  0  0  0  0  0  0  0  0  0  0
   47.9159    6.5608   23.3425 H   0  0  0  0  0  0  0  0  0  0  0  0
   47.1044    5.4509   18.9654 H   0  0  0  0  0  0  0  0  0  0  0  0
   50.8541    6.3123   17.0434 H   0  0  0  0  0  0  0  0  0  0  0  0
   51.4407    3.8992   17.1072 H   0  0  0  0  0  0  0  0  0  0  0  0
   47.6916    3.0445   19.0347 H   0  0  0  0  0  0  0  0  0  0  0  0
   49.8610    2.2669   18.1084 H   0  0  0  0  0  0  0  0  0  0  0  0
   48.5074    6.3163   16.8843 H   0  0  0  0  0  0  0  0  0  0  0  0
   47.9893    7.6219   18.7628 H   0  0  0  0  0  0  0  0  0  0  0  0
   48.7982    3.4256   19.3324 H   0  0  0  0  0  0  0  0  0  0  0  0
   48.2137    3.6358   21.7173 H   0  0  0  0  0  0  0  0  0  0  0  0
   47.5308    5.8429   22.6482 H   0  0  0  0  0  0  0  0  0  0  0  0
   50.6275    5.2025   16.2012 H   0  0  0  0  0  0  0  0  0  0  0  0
   50.7643    4.4531   17.7975 H   0  0  0  0  0  0  0  0  0  0  0  0
   50.8296    6.2109   17.6424 H   0  0  0  0  0  0  0  0  0  0  0  0
   46.7858   10.2521   22.4356 H   0  0  0  0  0  0  0  0  0  0  0  0
   50.1204    7.7768   21.2747 H   0  0  0  0  0  0  0  0  0  0  0  0
   48.3590   11.8834   23.4431 H   0  0  0  0  0  0  0  0  0  0  0  0
   51.6692    9.4002   22.2679 H   0  0  0  0  0  0  0  0  0  0  0  0
   50.8076   11.4588   23.3574 H   0  0  0  0  0  0  0  0  0  0  0  0
   48.8016    7.6067   20.6490 H   0  0  0  0  0  0  0  0  0  0  0  0
   48.5937    6.5113   19.6056 H   0  0  0  0  0  0  0  0  0  0  0  0
  3  4  1  0
  4  2  1  0
  5  3  2  0
  6  2  1  0
  7  2  2  0
  8  5  1  0
  9  8  1  0
 10  9  1  0
 11  3  1  0
 12 11  2  0
 13  8  2  0
 14  4  1  0
 15 10  2  0
 16 10  1  0
 17 16  2  0
 18 15  1  0
 19 17  1  0
 12 13  1  0
 18 19  2  0
 21 22  1  0
 22 20  1  0
 23 21  2  0
 24 20  1  0
 25 20  2  0
 26 23  1  0
 27 26  1  0
 28 27  1  0
 29 21  1  0
 30 29  2  0
 31 26  2  0
 32 22  1  0
 33 28  2  0
 34 28  1  0
 35 33  1  0
 36 34  2  0
 37 36  1  0
 30 31  1  0
 35 37  2  0
  1 40  1  0
  1 41  1  0
  4 42  1  1
  5 43  1  0
 11 44  1  0
 12 45  1  0
 13 46  1  0
 14 47  1  0
 14 48  1  0
 14 49  1  0
 15 50  1  0
 16 51  1  0
 17 52  1  0
 18 53  1  0
 19 54  1  0
 22 55  1  6
 23 56  1  0
 29 57  1  0
 30 58  1  0
 31 59  1  0
 32 60  1  0
 32 61  1  0
 32 62  1  0
 33 63  1  0
 34 64  1  0
 35 65  1  0
 36 66  1  0
 37 67  1  0
 39 68  1  0
 39 69  1  0
M  CHG  3   6  -1  24  -1  38   2
M  END
> <Uni-Dock RESULT> 
ENERGY=   -5.242  LOWER_BOUND=    7.100  UPPER_BOUND=    8.733
INTER + INTRA:          -5.242
INTER:                  -5.242
INTRA:                   0.000
UNBOUND:                 0.000

$$$$

     RDKit          3D

 69 68  0  0  0  0  0  0  0  0999 V2000
   42.1210   12.1815    8.3738 O   0  0  0  0  0  0  0  0  0  0  0  0
   38.9772   12.1267    9.8365 C   0  0  0  0  0  0  0  0  0  0  0  0
   41.4272   11.9696   10.4379 C   0  0  0  0  0  0  0  0  0  0  0  0
   40.1830   12.8440   10.4840 C   0  0  1  0  0  0  0  0  0  0  0  0
   42.0388   11.6293    9.2201 C   0  0  0  0  0  0  0  0  0  0  0  0
   38.3042   11.3981   10.6262 O   0  0  0  0  0  0  0  0  0  0  0  0
   38.7708   12.3656    8.6107 O   0  0  0  0  0  0  0  0  0  0  0  0
   43.2024   10.8529    9.2030 C   0  0  0  0  0  0  0  0  0  0  0  0
   43.8379   10.4691    8.0418 O   0  0  0  0  0  0  0  0  0  0  0  0
   43.9716   11.4179    7.0549 C   0  0  0  0  0  0  0  0  0  0  0  0
   41.9861   11.4831   11.6297 C   0  0  0  0  0  0  0  0  0  0  0  0
   43.1300   10.6827   11.6090 C   0  0  0  0  0  0  0  0  0  0  0  0
   43.7371   10.3665   10.3950 C   0  0  0  0  0  0  0  0  0  0  0  0
   40.4357   14.2214    9.8709 C   0  0  0  0  0  0  0  0  0  0  0  0
   44.5533   12.6663    7.2941 C   0  0  0  0  0  0  0  0  0  0  0  0
   43.5650   11.0647    5.7683 C   0  0  0  0  0  0  0  0  0  0  0  0
   43.7064   11.9755    4.7214 C   0  0  0  0  0  0  0  0  0  0  0  0
   44.6938   13.5753    6.2449 C   0  0  0  0  0  0  0  0  0  0  0  0
   44.2685   13.2306    4.9605 C   0  0  0  0  0  0  0  0  0  0  0  0
   45.9391   12.0830    5.8854 C   0  0  0  0  0  0  0  0  0  0  0  0
   43.9602   12.4796    7.4324 C   0  0  0  0  0  0  0  0  0  0  0  0
   44.6286   11.5106    6.4700 C   0  0  1  0  0  0  0  0  0  0  0  0
   43.5418   12.0364    8.6955 C   0  0  0  0  0  0  0  0  0  0  0  0
   45.8418   12.6942    4.7798 O   0  0  0  0  0  0  0  0  0  0  0  0
   46.9788   11.8509    6.5734 O   0  0  0  0  0  0  0  0  0  0  0  0
   42.8747   12.9081    9.5581 C   0  0  0  0  0  0  0  0  0  0  0  0
   42.4853   12.4658   10.7977 O   0  0  0  0  0  0  0  0  0  0  0  0
   41.2093   11.9569   10.9285 C   0  0  0  0  0  0  0  0  0  0  0  0
   43.7073   13.8134    7.0712 C   0  0  0  0  0  0  0  0  0  0  0  0
   43.0656   14.6883    7.9516 C   0  0  0  0  0  0  0  0  0  0  0  0
   42.6518   14.2374    9.2023 C   0  0  0  0  0  0  0  0  0  0  0  0
   43.6507   11.0825    5.3764 C   0  0  0  0  0  0  0  0  0  0  0  0
   40.8308   11.6408   12.2374 C   0  0  0  0  0  0  0  0  0  0  0  0
   40.3104   11.7334    9.8811 C   0  0  0  0  0  0  0  0  0  0  0  0
   39.5656   11.1125   12.5008 C   0  0  0  0  0  0  0  0  0  0  0  0
   39.0453   11.2013   10.1447 C   0  0  0  0  0  0  0  0  0  0  0  0
   38.6732   10.8922   11.4527 C   0  0  0  0  0  0  0  0  0  0  0  0
   42.3971   12.1339    8.6563 Ca  0  0  0  0  0 15  0  0  0  0  0  0
   42.1282   12.1826    8.3672 O   0  0  0  0  0  0  0  0  0  0  0  0
   41.9854   12.0234    9.3202 H   0  0  0  0  0  0  0  0  0  0  0  0
   43.0848   12.1968    8.2750 H   0  0  0  0  0  0  0  0  0  0  0  0
   39.9140   13.0192   11.5354 H   0  0  0  0  0  0  0  0  0  0  0  0
   41.5838   11.9602    8.2881 H   0  0  0  0  0  0  0  0  0  0  0  0
   41.5110   11.7120   12.5810 H   0  0  0  0  0  0  0  0  0  0  0  0
   43.5357   10.2981   12.5386 H   0  0  0  0  0  0  0  0  0  0  0  0
   44.6205    9.7371   10.3757 H   0  0  0  0  0  0  0  0  0  0  0  0
   39.5327   14.8396    9.9283 H   0  0  0  0  0  0  0  0  0  0  0  0
   40.7260   14.1658    8.8159 H   0  0  0  0  0  0  0  0  0  0  0  0
   41.2366   14.7447   10.4058 H   0  0  0  0  0  0  0  0  0  0  0  0
   44.8841   12.9344    8.2920 H   0  0  0  0  0  0  0  0  0  0  0  0
   43.1180   10.0913    5.5914 H   0  0  0  0  0  0  0  0  0  0  0  0
   43.3669   11.7108    3.7243 H   0  0  0  0  0  0  0  0  0  0  0  0
   45.1272   14.5526    6.4311 H   0  0  0  0  0  0  0  0  0  0  0  0
   44.3665   13.9434    4.1466 H   0  0  0  0  0  0  0  0  0  0  0  0
   44.9132   10.6031    7.0225 H   0  0  0  0  0  0  0  0  0  0  0  0
   43.7293   11.0123    9.0056 H   0  0  0  0  0  0  0  0  0  0  0  0
   44.0285   14.1797    6.0961 H   0  0  0  0  0  0  0  0  0  0  0  0
   42.9001   15.7194    7.6548 H   0  0  0  0  0  0  0  0  0  0  0  0
   42.1607   14.9141    9.8929 H   0  0  0  0  0  0  0  0  0  0  0  0
   44.1356   10.4050    4.6649 H   0  0  0  0  0  0  0  0  0  0  0  0
   43.2615   11.9358    4.8102 H   0  0  0  0  0  0  0  0  0  0  0  0
   42.7918   10.5565    5.8077 H   0  0  0  0  0  0  0  0  0  0  0  0
   41.5295   11.8071   13.0535 H   0  0  0  0  0  0  0  0  0  0  0  0
   40.5743   11.9593    8.8513 H   0  0  0  0  0  0  0  0  0  0  0  0
   39.2809   10.8711   13.5216 H   0  0  0  0  0  0  0  0  0  0  0  0
   38.3546   11.0263    9.3236 H   0  0  0  0  0  0  0  0  0  0  0  0
   37.6892   10.4769   11.6523 H   0  0  0  0  0  0  0  0  0  0  0  0
   41.9688   12.0251    9.3100 H   0  0  0  0  0  0  0  0  0  0  0  0
   43.0942   12.1940    8.2918 H   0  0  0  0  0  0  0  0  0  0  0  0
  3  4  1  0
  4  2  1  0
  5  3  2  0
  6  2  1  0
  7  2  2  0
  8  5  1  0
  9  8  1  0
 10  9  1  0
 11  3  1  0
 12 11  2  0
 13  8  2  0
 14  4  1  0
 15 10  2  0
 16 10  1  0
 17 16  2  0
 18 15  1  0
 19 17  1  0
 12 13  1  0
 18 19  2  0
 21 22  1  0
 22 20  1  0
 23 21  2  0
 24 20  1  0
 25 20  2  0
 26 23  1  0
 27 26  1  0
 28 27  1  0
 29 21  1  0
 30 29  2  0
 31 26  2  0
 32 22  1  0
 33 28  2  0
 34 28  1  0
 35 33  1  0
 36 34  2  0
 37 36  1  0
 30 31  1  0
 35 37  2  0
  1 40  1  0
  1 41  1  0
  4 42  1  1
  5 43  1  0
 11 44  1  0
 12 45  1  0
 13 46  1  0
 14 47  1  0
 14 48  1  0
 14 49  1  0
 15 50  1  0
 16 51  1  0
 17 52  1  0
 18 53  1  0
 19 54  1  0
 22 55  1  6
 23 56  1  0
 29 57  1  0
 30 58  1  0
 31 59  1  0
 32 60  1  0
 32 61  1  0
 32 62  1  0
 33 63  1  0
 34 64  1  0
 35 65  1  0
 36 66  1  0
 37 67  1  0
 39 68  1  0
 39 69  1  0
M  CHG  3   6  -1  24  -1  38   2
M  END
> <Uni-Dock RESULT> 
ENERGY=   -5.150  LOWER_BOUND=    6.206  UPPER_BOUND=    9.241
INTER + INTRA:          -5.150
INTER:                  -5.150
INTRA:                   0.000
UNBOUND:                 0.000

$$$$

     RDKit          3D

 69 68  0  0  0  0  0  0  0  0999 V2000
   41.2045   14.1076   12.8078 O   0  0  0  0  0  0  0  0  0  0  0  0
   41.0105   11.4250   10.6187 C   0  0  0  0  0  0  0  0  0  0  0  0
   39.6552   12.6218   12.3849 C   0  0  0  0  0  0  0  0  0  0  0  0
   39.8126   12.3615   10.8942 C   0  0  1  0  0  0  0  0  0  0  0  0
   40.6246   13.3331   13.1109 C   0  0  0  0  0  0  0  0  0  0  0  0
   40.7364   10.1875   10.6471 O   0  0  0  0  0  0  0  0  0  0  0  0
   42.1167   11.9848   10.3634 O   0  0  0  0  0  0  0  0  0  0  0  0
   40.4428   13.5912   14.4738 C   0  0  0  0  0  0  0  0  0  0  0  0
   41.3649   14.2653   15.2450 O   0  0  0  0  0  0  0  0  0  0  0  0
   41.9452   15.3852   14.6963 C   0  0  0  0  0  0  0  0  0  0  0  0
   38.5230   12.1451   13.0635 C   0  0  0  0  0  0  0  0  0  0  0  0
   38.3578   12.3771   14.4304 C   0  0  0  0  0  0  0  0  0  0  0  0
   39.3189   13.0991   15.1357 C   0  0  0  0  0  0  0  0  0  0  0  0
   39.8998   13.6636   10.0980 C   0  0  0  0  0  0  0  0  0  0  0  0
   41.1880   16.4398   14.1780 C   0  0  0  0  0  0  0  0  0  0  0  0
   43.3368   15.4698   14.7362 C   0  0  0  0  0  0  0  0  0  0  0  0
   43.9783   16.5971   14.2233 C   0  0  0  0  0  0  0  0  0  0  0  0
   41.8323   17.5664   13.6659 C   0  0  0  0  0  0  0  0  0  0  0  0
   43.2263   17.6435   13.6867 C   0  0  0  0  0  0  0  0  0  0  0  0
   42.1230   17.5749   15.6210 C   0  0  0  0  0  0  0  0  0  0  0  0
   41.3226   15.8829   13.8997 C   0  0  0  0  0  0  0  0  0  0  0  0
   42.2139   16.1203   15.1084 C   0  0  1  0  0  0  0  0  0  0  0  0
   40.4574   14.7794   13.8726 C   0  0  0  0  0  0  0  0  0  0  0  0
   42.9823   18.3866   15.1645 O   0  0  0  0  0  0  0  0  0  0  0  0
   41.2049   17.7874   16.4695 O   0  0  0  0  0  0  0  0  0  0  0  0
   39.6815   14.5253   12.7402 C   0  0  0  0  0  0  0  0  0  0  0  0
   38.8270   13.4512   12.7335 O   0  0  0  0  0  0  0  0  0  0  0  0
   39.2953   12.2587   12.2207 C   0  0  0  0  0  0  0  0  0  0  0  0
   41.3730   16.7242   12.7757 C   0  0  0  0  0  0  0  0  0  0  0  0
   40.5713   16.4804   11.6576 C   0  0  0  0  0  0  0  0  0  0  0  0
   39.7178   15.3805   11.6399 C   0  0  0  0  0  0  0  0  0  0  0  0
   43.6532   15.7084   14.8012 C   0  0  0  0  0  0  0  0  0  0  0  0
   38.3406   11.2409   12.1266 C   0  0  0  0  0  0  0  0  0  0  0  0
   40.6099   12.0062   11.8169 C   0  0  0  0  0  0  0  0  0  0  0  0
   38.6914    9.9846   11.6288 C   0  0  0  0  0  0  0  0  0  0  0  0
   40.9616   10.7475   11.3220 C   0  0  0  0  0  0  0  0  0  0  0  0
   40.0035    9.7385   11.2272 C   0  0  0  0  0  0  0  0  0  0  0  0
   40.8674   14.1289   13.0181 Ca  0  0  0  0  0 15  0  0  0  0  0  0
   41.2076   14.1157   12.8123 O   0  0  0  0  0  0  0  0  0  0  0  0
   40.4467   13.5041   12.7834 H   0  0  0  0  0  0  0  0  0  0  0  0
   40.9510   14.7749   13.4631 H   0  0  0  0  0  0  0  0  0  0  0  0
   38.9170   11.8376   10.5313 H   0  0  0  0  0  0  0  0  0  0  0  0
   41.5297   13.6631   12.6039 H   0  0  0  0  0  0  0  0  0  0  0  0
   37.7748   11.5679   12.5250 H   0  0  0  0  0  0  0  0  0  0  0  0
   37.4867   11.9829   14.9427 H   0  0  0  0  0  0  0  0  0  0  0  0
   39.1973   13.2725   16.1997 H   0  0  0  0  0  0  0  0  0  0  0  0
   39.9971   13.4538    9.0268 H   0  0  0  0  0  0  0  0  0  0  0  0
   40.7587   14.2784   10.3890 H   0  0  0  0  0  0  0  0  0  0  0  0
   38.9975   14.2691   10.2419 H   0  0  0  0  0  0  0  0  0  0  0  0
   40.1047   16.3803   14.1618 H   0  0  0  0  0  0  0  0  0  0  0  0
   43.9163   14.6475   15.1444 H   0  0  0  0  0  0  0  0  0  0  0  0
   45.0630   16.6529   14.2310 H   0  0  0  0  0  0  0  0  0  0  0  0
   41.2482   18.3784   13.2451 H   0  0  0  0  0  0  0  0  0  0  0  0
   43.7280   18.5153   13.2763 H   0  0  0  0  0  0  0  0  0  0  0  0
   41.8652   15.4844   15.9354 H   0  0  0  0  0  0  0  0  0  0  0  0
   40.3917   14.1148   14.7293 H   0  0  0  0  0  0  0  0  0  0  0  0
   42.0350   17.5902   12.7779 H   0  0  0  0  0  0  0  0  0  0  0  0
   40.6156   17.1577   10.8102 H   0  0  0  0  0  0  0  0  0  0  0  0
   39.0873   15.1911   10.7782 H   0  0  0  0  0  0  0  0  0  0  0  0
   44.3047   15.9026   15.6603 H   0  0  0  0  0  0  0  0  0  0  0  0
   44.0656   16.2494   13.9425 H   0  0  0  0  0  0  0  0  0  0  0  0
   43.7105   14.6384   14.5724 H   0  0  0  0  0  0  0  0  0  0  0  0
   37.3190   11.4316   12.4457 H   0  0  0  0  0  0  0  0  0  0  0  0
   41.3791   12.7711   11.8842 H   0  0  0  0  0  0  0  0  0  0  0  0
   37.9418    9.2007   11.5588 H   0  0  0  0  0  0  0  0  0  0  0  0
   41.9872   10.5586   11.0149 H   0  0  0  0  0  0  0  0  0  0  0  0
   40.2823    8.7609   10.8435 H   0  0  0  0  0  0  0  0  0  0  0  0
   40.4612   13.4991   12.7713 H   0  0  0  0  0  0  0  0  0  0  0  0
   40.9334   14.7717   13.4707 H   0  0  0  0  0  0  0  0  0  0  0  0
  3  4  1  0
  4  2  1  0
  5  3  2  0
  6  2  1  0
  7  2  2  0
  8  5  1  0
  9  8  1  0
 10  9  1  0
 11  3  1  0
 12 11  2  0
 13  8  2  0
 14  4  1  0
 15 10  2  0
 16 10  1  0
 17 16  2  0
 18 15  1  0
 19 17  1  0
 12 13  1  0
 18 19  2  0
 21 22  1  0
 22 20  1  0
 23 21  2  0
 24 20  1  0
 25 20  2  0
 26 23  1  0
 27 26  1  0
 28 27  1  0
 29 21  1  0
 30 29  2  0
 31 26  2  0
 32 22  1  0
 33 28  2  0
 34 28  1  0
 35 33  1  0
 36 34  2  0
 37 36  1  0
 30 31  1  0
 35 37  2  0
  1 40  1  0
  1 41  1  0
  4 42  1  1
  5 43  1  0
 11 44  1  0
 12 45  1  0
 13 46  1  0
 14 47  1  0
 14 48  1  0
 14 49  1  0
 15 50  1  0
 16 51  1  0
 17 52  1  0
 18 53  1  0
 19 54  1  0
 22 55  1  6
 23 56  1  0
 29 57  1  0
 30 58  1  0
 31 59  1  0
 32 60  1  0
 32 61  1  0
 32 62  1  0
 33 63  1  0
 34 64  1  0
 35 65  1  0
 36 66  1  0
 37 67  1  0
 39 68  1  0
 39 69  1  0
M  CHG  3   6  -1  24  -1  38   2
M  END
> <Uni-Dock RESULT> 
ENERGY=   -5.125  LOWER_BOUND=    7.540  UPPER_BOUND=   11.006
INTER + INTRA:          -5.125
INTER:                  -5.125
INTRA:                   0.000
UNBOUND:                 0.000

$$$$

     RDKit          3D

 69 68  0  0  0  0  0  0  0  0999 V2000
   48.9504    8.9364   20.9709 O   0  0  0  0  0  0  0  0  0  0  0  0
   50.2930   11.7463   22.4969 C   0  0  0  0  0  0  0  0  0  0  0  0
   48.3365   11.0343   21.0636 C   0  0  0  0  0  0  0  0  0  0  0  0
   48.7733   11.4692   22.4546 C   0  0  1  0  0  0  0  0  0  0  0  0
   48.7676    9.8191   20.5068 C   0  0  0  0  0  0  0  0  0  0  0  0
   50.6270   12.9305   22.1918 O   0  0  0  0  0  0  0  0  0  0  0  0
   51.0315   10.7844   22.8598 O   0  0  0  0  0  0  0  0  0  0  0  0
   48.3257    9.4225   19.2401 C   0  0  0  0  0  0  0  0  0  0  0  0
   48.7274    8.2531   18.6314 O   0  0  0  0  0  0  0  0  0  0  0  0
   48.7784    7.1224   19.4130 C   0  0  0  0  0  0  0  0  0  0  0  0
   47.4860   11.8558   20.3077 C   0  0  0  0  0  0  0  0  0  0  0  0
   47.0704   11.4728   19.0310 C   0  0  0  0  0  0  0  0  0  0  0  0
   47.4917   10.2564   18.4968 C   0  0  0  0  0  0  0  0  0  0  0  0
   48.3366   10.4682   23.5243 C   0  0  0  0  0  0  0  0  0  0  0  0
   47.6842    6.6858   20.1656 C   0  0  0  0  0  0  0  0  0  0  0  0
   49.9537    6.3722   19.3774 C   0  0  0  0  0  0  0  0  0  0  0  0
   50.0507    5.1988   20.1251 C   0  0  0  0  0  0  0  0  0  0  0  0
   47.7839    5.5115   20.9124 C   0  0  0  0  0  0  0  0  0  0  0  0
   48.9670    4.7703   20.8937 C   0  0  0  0  0  0  0  0  0  0  0  0
   47.8021    4.9862   19.0069 C   0  0  0  0  0  0  0  0  0  0  0  0
   48.0953    7.1509   20.3087 C   0  0  0  0  0  0  0  0  0  0  0  0
   48.6217    6.2850   19.1752 C   0  0  1  0  0  0  0  0  0  0  0  0
   47.8554    8.5160   20.0948 C   0  0  0  0  0  0  0  0  0  0  0  0
   48.2306    3.9669   19.6257 O   0  0  0  0  0  0  0  0  0  0  0  0
   46.7974    5.0827   18.2392 O   0  0  0  0  0  0  0  0  0  0  0  0
   47.4287    9.3258   21.1490 C   0  0  0  0  0  0  0  0  0  0  0  0
   47.1821   10.6567   20.9217 O   0  0  0  0  0  0  0  0  0  0  0  0
   48.2101   11.5498   21.1454 C   0  0  0  0  0  0  0  0  0  0  0  0
   47.8804    6.6248   21.5936 C   0  0  0  0  0  0  0  0  0  0  0  0
   47.4247    7.4354   22.6364 C   0  0  0  0  0  0  0  0  0  0  0  0
   47.1923    8.7901   22.4140 C   0  0  0  0  0  0  0  0  0  0  0  0
   50.1119    6.0034   19.3646 C   0  0  0  0  0  0  0  0  0  0  0  0
   47.8598   12.8978   21.0172 C   0  0  0  0  0  0  0  0  0  0  0  0
   49.5280   11.2107   21.4663 C   0  0  0  0  0  0  0  0  0  0  0  0
   48.8129   13.8990   21.2131 C   0  0  0  0  0  0  0  0  0  0  0  0
   50.4827   12.2129   21.6589 C   0  0  0  0  0  0  0  0  0  0  0  0
   50.1253   13.5552   21.5334 C   0  0  0  0  0  0  0  0  0  0  0  0
   48.6200    9.0399   20.7748 Ca  0  0  0  0  0 15  0  0  0  0  0  0
   48.9487    8.9271   20.9684 O   0  0  0  0  0  0  0  0  0  0  0  0
   48.5708    9.8219   20.8665 H   0  0  0  0  0  0  0  0  0  0  0  0
   48.3387    8.3613   20.4870 H   0  0  0  0  0  0  0  0  0  0  0  0
   48.2762   12.4186   22.6995 H   0  0  0  0  0  0  0  0  0  0  0  0
   49.4671    9.1992   21.0650 H   0  0  0  0  0  0  0  0  0  0  0  0
   47.1639   12.8137   20.7098 H   0  0  0  0  0  0  0  0  0  0  0  0
   46.4301   12.1302   18.4526 H   0  0  0  0  0  0  0  0  0  0  0  0
   47.1777    9.9610   17.5013 H   0  0  0  0  0  0  0  0  0  0  0  0
   48.6473   10.8078   24.5188 H   0  0  0  0  0  0  0  0  0  0  0  0
   48.7677    9.4727   23.3705 H   0  0  0  0  0  0  0  0  0  0  0  0
   47.2461   10.3573   23.5317 H   0  0  0  0  0  0  0  0  0  0  0  0
   46.7646    7.2615   20.1802 H   0  0  0  0  0  0  0  0  0  0  0  0
   50.7967    6.7172   18.7868 H   0  0  0  0  0  0  0  0  0  0  0  0
   50.9743    4.6273   20.1179 H   0  0  0  0  0  0  0  0  0  0  0  0
   46.9431    5.1800   21.5129 H   0  0  0  0  0  0  0  0  0  0  0  0
   49.0486    3.8628   21.4853 H   0  0  0  0  0  0  0  0  0  0  0  0
   48.5146    6.8366   18.2296 H   0  0  0  0  0  0  0  0  0  0  0  0
   48.0061    8.9502   19.1106 H   0  0  0  0  0  0  0  0  0  0  0  0
   48.0561    5.5653   21.7802 H   0  0  0  0  0  0  0  0  0  0  0  0
   47.2481    6.9990   23.6147 H   0  0  0  0  0  0  0  0  0  0  0  0
   46.8307    9.4223   23.2175 H   0  0  0  0  0  0  0  0  0  0  0  0
   50.4900    5.3575   18.5645 H   0  0  0  0  0  0  0  0  0  0  0  0
   50.3229    5.5084   20.3188 H   0  0  0  0  0  0  0  0  0  0  0  0
   50.6887    6.9347   19.3442 H   0  0  0  0  0  0  0  0  0  0  0  0
   46.8375   13.1651   20.7613 H   0  0  0  0  0  0  0  0  0  0  0  0
   49.8371   10.1734   21.5654 H   0  0  0  0  0  0  0  0  0  0  0  0
   48.5302   14.9436   21.1121 H   0  0  0  0  0  0  0  0  0  0  0  0
   51.5062   11.9399   21.9035 H   0  0  0  0  0  0  0  0  0  0  0  0
   50.8716   14.3307   21.6823 H   0  0  0  0  0  0  0  0  0  0  0  0
   48.5873    9.8216   20.8771 H   0  0  0  0  0  0  0  0  0  0  0  0
   48.3240    8.3711   20.4791 H   0  0  0  0  0  0  0  0  0  0  0  0
  3  4  1  0
  4  2  1  0
  5  3  2  0
  6  2  1  0
  7  2  2  0
  8  5  1  0
  9  8  1  0
 10  9  1  0
 11  3  1  0
 12 11  2  0
 13  8  2  0
 14  4  1  0
 15 10  2  0
 16 10  1  0
 17 16  2  0
 18 15  1  0
 19 17  1  0
 12 13  1  0
 18 19  2  0
 21 22  1  0
 22 20  1  0
 23 21  2  0
 24 20  1  0
 25 20  2  0
 26 23  1  0
 27 26  1  0
 28 27  1  0
 29 21  1  0
 30 29  2  0
 31 26  2  0
 32 22  1  0
 33 28  2  0
 34 28  1  0
 35 33  1  0
 36 34  2  0
 37 36  1  0
 30 31  1  0
 35 37  2  0
  1 40  1  0
  1 41  1  0
  4 42  1  1
  5 43  1  0
 11 44  1  0
 12 45  1  0
 13 46  1  0
 14 47  1  0
 14 48  1  0
 14 49  1  0
 15 50  1  0
 16 51  1  0
 17 52  1  0
 18 53  1  0
 19 54  1  0
 22 55  1  6
 23 56  1  0
 29 57  1  0
 30 58  1  0
 31 59  1  0
 32 60  1  0
 32 61  1  0
 32 62  1  0
 33 63  1  0
 34 64  1  0
 35 65  1  0
 36 66  1  0
 37 67  1  0
 39 68  1  0
 39 69  1  0
M  CHG  3   6  -1  24  -1  38   2
M  END
> <Uni-Dock RESULT> 
ENERGY=   -5.117  LOWER_BOUND=    7.663  UPPER_BOUND=    9.410
INTER + INTRA:          -5.117
INTER:                  -5.117
INTRA:                   0.000
UNBOUND:                 0.000

$$$$

     RDKit          3D

 69 68  0  0  0  0  0  0  0  0999 V2000
   47.8712    7.1500   15.0437 O   0  0  0  0  0  0  0  0  0  0  0  0
   46.4885    9.3320   12.7299 C   0  0  0  0  0  0  0  0  0  0  0  0
   48.6225    8.0625   13.2026 C   0  0  0  0  0  0  0  0  0  0  0  0
   47.3868    8.1438   12.3187 C   0  0  1  0  0  0  0  0  0  0  0  0
   48.5257    7.7638   14.5716 C   0  0  0  0  0  0  0  0  0  0  0  0
   46.7713   10.4327   12.1682 O   0  0  0  0  0  0  0  0  0  0  0  0
   45.5560    9.0773   13.5472 O   0  0  0  0  0  0  0  0  0  0  0  0
   49.6777    7.6597   15.3584 C   0  0  0  0  0  0  0  0  0  0  0  0
   49.6483    7.3892   16.7095 O   0  0  0  0  0  0  0  0  0  0  0  0
   48.7785    6.4131   17.1368 C   0  0  0  0  0  0  0  0  0  0  0  0
   49.8934    8.2906   12.6526 C   0  0  0  0  0  0  0  0  0  0  0  0
   51.0399    8.2165   13.4460 C   0  0  0  0  0  0  0  0  0  0  0  0
   50.9315    7.9024   14.7995 C   0  0  0  0  0  0  0  0  0  0  0  0
   46.6216    6.8207   12.2918 C   0  0  0  0  0  0  0  0  0  0  0  0
   48.7764    5.1255   16.5926 C   0  0  0  0  0  0  0  0  0  0  0  0
   47.9297    6.7316   18.1968 C   0  0  0  0  0  0  0  0  0  0  0  0
   47.0487    5.7708   18.6929 C   0  0  0  0  0  0  0  0  0  0  0  0
   47.8941    4.1663   17.0910 C   0  0  0  0  0  0  0  0  0  0  0  0
   47.0297    4.4898   18.1386 C   0  0  0  0  0  0  0  0  0  0  0  0
   49.2265    4.5160   18.5085 C   0  0  0  0  0  0  0  0  0  0  0  0
   48.5161    5.6527   16.3476 C   0  0  0  0  0  0  0  0  0  0  0  0
   48.8765    5.8497   17.8115 C   0  0  1  0  0  0  0  0  0  0  0  0
   49.1174    6.4516   15.3641 C   0  0  0  0  0  0  0  0  0  0  0  0
   48.2751    3.9242   19.1002 O   0  0  0  0  0  0  0  0  0  0  0  0
   50.4453    4.1747   18.4304 O   0  0  0  0  0  0  0  0  0  0  0  0
   48.7448    6.3138   14.0257 C   0  0  0  0  0  0  0  0  0  0  0  0
   49.3530    7.0907   13.0716 O   0  0  0  0  0  0  0  0  0  0  0  0
   48.7471    8.2822   12.7287 C   0  0  0  0  0  0  0  0  0  0  0  0
   47.5529    4.7102   15.9506 C   0  0  0  0  0  0  0  0  0  0  0  0
   47.2070    4.5574   14.6055 C   0  0  0  0  0  0  0  0  0  0  0  0
   47.8078    5.3575   13.6373 C   0  0  0  0  0  0  0  0  0  0  0  0
   47.7644    6.6038   18.5397 C   0  0  0  0  0  0  0  0  0  0  0  0
   49.3465    8.9650   11.6653 C   0  0  0  0  0  0  0  0  0  0  0  0
   47.6271    8.8362   13.3560 C   0  0  0  0  0  0  0  0  0  0  0  0
   48.8305   10.1860   11.2269 C   0  0  0  0  0  0  0  0  0  0  0  0
   47.1129   10.0601   12.9193 C   0  0  0  0  0  0  0  0  0  0  0  0
   47.7132   10.7335   11.8557 C   0  0  0  0  0  0  0  0  0  0  0  0
   48.2443    7.0642   14.9352 Ca  0  0  0  0  0 15  0  0  0  0  0  0
   47.8722    7.1437   15.0512 O   0  0  0  0  0  0  0  0  0  0  0  0
   48.3713    7.5051   14.2934 H   0  0  0  0  0  0  0  0  0  0  0  0
   48.4904    6.5375   15.4685 H   0  0  0  0  0  0  0  0  0  0  0  0
   47.7053    8.3368   11.2844 H   0  0  0  0  0  0  0  0  0  0  0  0
   47.5409    7.6349   15.0173 H   0  0  0  0  0  0  0  0  0  0  0  0
   49.9870    8.5511   11.6008 H   0  0  0  0  0  0  0  0  0  0  0  0
   52.0121    8.4168   13.0084 H   0  0  0  0  0  0  0  0  0  0  0  0
   51.8201    7.8535   15.4199 H   0  0  0  0  0  0  0  0  0  0  0  0
   45.7452    6.8962   11.6382 H   0  0  0  0  0  0  0  0  0  0  0  0
   46.2638    6.5209   13.2831 H   0  0  0  0  0  0  0  0  0  0  0  0
   47.2561    6.0115   11.9121 H   0  0  0  0  0  0  0  0  0  0  0  0
   49.4481    4.8737   15.7785 H   0  0  0  0  0  0  0  0  0  0  0  0
   47.9414    7.7330   18.6158 H   0  0  0  0  0  0  0  0  0  0  0  0
   46.3697    6.0254   19.5016 H   0  0  0  0  0  0  0  0  0  0  0  0
   47.8764    3.1716   16.6578 H   0  0  0  0  0  0  0  0  0  0  0  0
   46.3342    3.7465   18.5178 H   0  0  0  0  0  0  0  0  0  0  0  0
   49.7820    6.4712   17.8724 H   0  0  0  0  0  0  0  0  0  0  0  0
   49.8703    7.1845   15.6397 H   0  0  0  0  0  0  0  0  0  0  0  0
   47.0770    4.0758   16.6984 H   0  0  0  0  0  0  0  0  0  0  0  0
   46.4738    3.8079   14.3239 H   0  0  0  0  0  0  0  0  0  0  0  0
   47.5493    5.2377   12.5910 H   0  0  0  0  0  0  0  0  0  0  0  0
   48.0074    6.7246   19.6011 H   0  0  0  0  0  0  0  0  0  0  0  0
   46.8011    6.0858   18.4763 H   0  0  0  0  0  0  0  0  0  0  0  0
   47.6278    7.6029   18.1114 H   0  0  0  0  0  0  0  0  0  0  0  0
   50.2214    8.5405   11.1794 H   0  0  0  0  0  0  0  0  0  0  0  0
   47.1415    8.3372   14.1906 H   0  0  0  0  0  0  0  0  0  0  0  0
   49.3029   10.7082   10.3991 H   0  0  0  0  0  0  0  0  0  0  0  0
   46.2446   10.4858   13.4160 H   0  0  0  0  0  0  0  0  0  0  0  0
   47.3109   11.6857   11.5211 H   0  0  0  0  0  0  0  0  0  0  0  0
   48.3531    7.5122   14.2949 H   0  0  0  0  0  0  0  0  0  0  0  0
   48.5075    6.5367   15.4595 H   0  0  0  0  0  0  0  0  0  0  0  0
  3  4  1  0
  4  2  1  0
  5  3  2  0
  6  2  1  0
  7  2  2  0
  8  5  1  0
  9  8  1  0
 10  9  1  0
 11  3  1  0
 12 11  2  0
 13  8  2  0
 14  4  1  0
 15 10  2  0
 16 10  1  0
 17 16  2  0
 18 15  1  0
 19 17  1  0
 12 13  1  0
 18 19  2  0
 21 22  1  0
 22 20  1  0
 23 21  2  0
 24 20  1  0
 25 20  2  0
 26 23  1  0
 27 26  1  0
 28 27  1  0
 29 21  1  0
 30 29  2  0
 31 26  2  0
 32 22  1  0
 33 28  2  0
 34 28  1  0
 35 33  1  0
 36 34  2  0
 37 36  1  0
 30 31  1  0
 35 37  2  0
  1 40  1  0
  1 41  1  0
  4 42  1  1
  5 43  1  0
 11 44  1  0
 12 45  1  0
 13 46  1  0
 14 47  1  0
 14 48  1  0
 14 49  1  0
 15 50  1  0
 16 51  1  0
 17 52  1  0
 18 53  1  0
 19 54  1  0
 22 55  1  6
 23 56  1  0
 29 57  1  0
 30 58  1  0
 31 59  1  0
 32 60  1  0
 32 61  1  0
 32 62  1  0
 33 63  1  0
 34 64  1  0
 35 65  1  0
 36 66  1  0
 37 67  1  0
 39 68  1  0
 39 69  1  0
M  CHG  3   6  -1  24  -1  38   2
M  END
> <Uni-Dock RESULT> 
ENERGY=   -5.098  LOWER_BOUND=    3.006  UPPER_BOUND=    5.486
INTER + INTRA:          -5.098
INTER:                  -5.098
INTRA:                   0.000
UNBOUND:                 0.000

$$$$
