
     RDKit          3D

 69 68  0  0  0  0  0  0  0  0999 V2000
   48.1646    6.7868   19.1451 O   0  0  0  0  0  0  0  0  0  0  0  0
   47.3901    3.2923   17.4785 C   0  0  0  0  0  0  0  0  0  0  0  0
   48.9303    4.9209   18.6417 C   0  0  0  0  0  0  0  0  0  0  0  0
   48.7773    3.9729   17.4627 C   0  0  1  0  0  0  0  0  0  0  0  0
   49.1846    6.2823   18.4209 C   0  0  0  0  0  0  0  0  0  0  0  0
   46.4651    3.9541   16.9215 O   0  0  0  0  0  0  0  0  0  0  0  0
   47.3298    2.1490   18.0184 O   0  0  0  0  0  0  0  0  0  0  0  0
   49.3160    7.1583   19.4997 C   0  0  0  0  0  0  0  0  0  0  0  0
   49.5770    8.4808   19.2226 O   0  0  0  0  0  0  0  0  0  0  0  0
   48.6981    9.4095   19.7359 C   0  0  0  0  0  0  0  0  0  0  0  0
   48.8315    4.4613   19.9650 C   0  0  0  0  0  0  0  0  0  0  0  0
   48.9903    5.3360   21.0423 C   0  0  0  0  0  0  0  0  0  0  0  0
   49.2416    6.6866   20.8116 C   0  0  0  0  0  0  0  0  0  0  0  0
   49.9237    2.9641   17.4135 C   0  0  0  0  0  0  0  0  0  0  0  0
   47.3123    9.2285   19.7496 C   0  0  0  0  0  0  0  0  0  0  0  0
   49.2513   10.6052   20.1970 C   0  0  0  0  0  0  0  0  0  0  0  0
   48.4239   11.6073   20.7054 C   0  0  0  0  0  0  0  0  0  0  0  0
   46.4865   10.2320   20.2592 C   0  0  0  0  0  0  0  0  0  0  0  0
   47.0420   11.4185   20.7396 C   0  0  0  0  0  0  0  0  0  0  0  0
   49.8575   10.2963   21.0006 C   0  0  0  0  0  0  0  0  0  0  0  0
   48.1989    8.6230   20.0772 C   0  0  0  0  0  0  0  0  0  0  0  0
   48.6788   10.0648   20.0285 C   0  0  1  0  0  0  0  0  0  0  0  0
   48.1277    7.8664   18.8991 C   0  0  0  0  0  0  0  0  0  0  0  0
   50.9968    9.9811   20.5447 O   0  0  0  0  0  0  0  0  0  0  0  0
   49.5671   10.7918   22.1286 O   0  0  0  0  0  0  0  0  0  0  0  0
   47.6985    6.5391   18.9416 C   0  0  0  0  0  0  0  0  0  0  0  0
   47.6387    5.8376   17.7600 O   0  0  0  0  0  0  0  0  0  0  0  0
   48.4674    4.7421   17.6445 C   0  0  0  0  0  0  0  0  0  0  0  0
   47.8026    8.0262   21.2853 C   0  0  0  0  0  0  0  0  0  0  0  0
   47.3484    6.7056   21.3184 C   0  0  0  0  0  0  0  0  0  0  0  0
   47.2890    5.9598   20.1432 C   0  0  0  0  0  0  0  0  0  0  0  0
   47.5209   11.0322   20.2685 C   0  0  0  0  0  0  0  0  0  0  0  0
   47.9805    3.6770   16.8845 C   0  0  0  0  0  0  0  0  0  0  0  0
   49.7551    4.6811   18.1843 C   0  0  0  0  0  0  0  0  0  0  0  0
   48.7654    2.5393   16.6894 C   0  0  0  0  0  0  0  0  0  0  0  0
   50.5385    3.5423   17.9886 C   0  0  0  0  0  0  0  0  0  0  0  0
   50.0430    2.4714   17.2448 C   0  0  0  0  0  0  0  0  0  0  0  0
   48.5504    6.8301   19.2319 Ca  0  0  0  0  0 15  0  0  0  0  0  0
   48.1607    6.8169   19.1535 O   0  0  0  0  0  0  0  0  0  0  0  0
   48.8692    6.1251   19.0782 H   0  0  0  0  0  0  0  0  0  0  0  0
   48.6174    7.5785   19.4723 H   0  0  0  0  0  0  0  0  0  0  0  0
   48.8259    4.5540   16.5311 H   0  0  0  0  0  0  0  0  0  0  0  0
   49.2554    6.6650   17.4065 H   0  0  0  0  0  0  0  0  0  0  0  0
   48.6136    3.4102   20.1539 H   0  0  0  0  0  0  0  0  0  0  0  0
   48.9072    4.9581   22.0565 H   0  0  0  0  0  0  0  0  0  0  0  0
   49.3667    7.3648   21.6488 H   0  0  0  0  0  0  0  0  0  0  0  0
   50.8892    3.4746   17.3252 H   0  0  0  0  0  0  0  0  0  0  0  0
   49.8146    2.2986   16.5497 H   0  0  0  0  0  0  0  0  0  0  0  0
   49.9654    2.3351   18.3092 H   0  0  0  0  0  0  0  0  0  0  0  0
   46.8674    8.3144   19.3614 H   0  0  0  0  0  0  0  0  0  0  0  0
   50.3270   10.7499   20.1632 H   0  0  0  0  0  0  0  0  0  0  0  0
   48.8564   12.5342   21.0704 H   0  0  0  0  0  0  0  0  0  0  0  0
   45.4096   10.0848   20.2736 H   0  0  0  0  0  0  0  0  0  0  0  0
   46.3959   12.1980   21.1337 H   0  0  0  0  0  0  0  0  0  0  0  0
   49.0684   10.2757   19.0227 H   0  0  0  0  0  0  0  0  0  0  0  0
   48.4316    8.3026   17.9519 H   0  0  0  0  0  0  0  0  0  0  0  0
   47.8623    8.5970   22.2121 H   0  0  0  0  0  0  0  0  0  0  0  0
   47.0515    6.2640   22.2646 H   0  0  0  0  0  0  0  0  0  0  0  0
   46.9358    4.9341   20.1663 H   0  0  0  0  0  0  0  0  0  0  0  0
   46.7467   10.9116   19.5031 H   0  0  0  0  0  0  0  0  0  0  0  0
   47.8702   12.0691   20.2324 H   0  0  0  0  0  0  0  0  0  0  0  0
   47.0457   10.8782   21.2431 H   0  0  0  0  0  0  0  0  0  0  0  0
   46.9879    3.7364   16.4477 H   0  0  0  0  0  0  0  0  0  0  0  0
   50.1632    5.5154   18.7506 H   0  0  0  0  0  0  0  0  0  0  0  0
   48.3822    1.7101   16.1022 H   0  0  0  0  0  0  0  0  0  0  0  0
   51.5377    3.4991   18.4145 H   0  0  0  0  0  0  0  0  0  0  0  0
   50.6575    1.5883   17.0920 H   0  0  0  0  0  0  0  0  0  0  0  0
   48.6783    7.5678   19.4807 H   0  0  0  0  0  0  0  0  0  0  0  0
   48.8123    6.1057   19.0614 H   0  0  0  0  0  0  0  0  0  0  0  0
  3  4  1  0
  4  2  1  0
  5  3  2  0
  6  2  1  0
  7  2  2  0
  8  5  1  0
  9  8  1  0
 10  9  1  0
 11  3  1  0
 12 11  2  0
 13  8  2  0
 14  4  1  0
 15 10  2  0
 16 10  1  0
 17 16  2  0
 18 15  1  0
 19 17  1  0
 12 13  1  0
 18 19  2  0
 21 22  1  0
 22 20  1  0
 23 21  2  0
 24 20  1  0
 25 20  2  0
 26 23  1  0
 27 26  1  0
 28 27  1  0
 29 21  1  0
 30 29  2  0
 31 26  2  0
 32 22  1  0
 33 28  2  0
 34 28  1  0
 35 33  1  0
 36 34  2  0
 37 36  1  0
 30 31  1  0
 35 37  2  0
  1 40  1  0
  1 41  1  0
  4 42  1  1
  5 43  1  0
 11 44  1  0
 12 45  1  0
 13 46  1  0
 14 47  1  0
 14 48  1  0
 14 49  1  0
 15 50  1  0
 16 51  1  0
 17 52  1  0
 18 53  1  0
 19 54  1  0
 22 55  1  1
 23 56  1  0
 29 57  1  0
 30 58  1  0
 31 59  1  0
 32 60  1  0
 32 61  1  0
 32 62  1  0
 33 63  1  0
 34 64  1  0
 35 65  1  0
 36 66  1  0
 37 67  1  0
 39 68  1  0
 39 69  1  0
M  CHG  3   6  -1  24  -1  38   2
M  END
> <Uni-Dock RESULT> 
ENERGY=   -6.680  LOWER_BOUND=    0.000  UPPER_BOUND=    0.000
INTER + INTRA:          -6.680
INTER:                  -6.680
INTRA:                   0.000
UNBOUND:                 0.000

$$$$

     RDKit          3D

 69 68  0  0  0  0  0  0  0  0999 V2000
   48.9324    6.8931   19.3484 O   0  0  0  0  0  0  0  0  0  0  0  0
   49.5584   10.3959   21.0594 C   0  0  0  0  0  0  0  0  0  0  0  0
   48.0438    8.6054   20.1226 C   0  0  0  0  0  0  0  0  0  0  0  0
   48.3727   10.0899   20.1169 C   0  0  1  0  0  0  0  0  0  0  0  0
   48.0993    7.8682   18.9308 C   0  0  0  0  0  0  0  0  0  0  0  0
   50.7040   10.2550   20.5382 O   0  0  0  0  0  0  0  0  0  0  0  0
   49.2637   10.7732   22.2312 O   0  0  0  0  0  0  0  0  0  0  0  0
   47.8078    6.5032   18.9327 C   0  0  0  0  0  0  0  0  0  0  0  0
   47.8671    5.8341   17.7316 O   0  0  0  0  0  0  0  0  0  0  0  0
   48.7008    4.7390   17.6696 C   0  0  0  0  0  0  0  0  0  0  0  0
   47.6714    7.9452   21.3049 C   0  0  0  0  0  0  0  0  0  0  0  0
   47.3543    6.5850   21.2979 C   0  0  0  0  0  0  0  0  0  0  0  0
   47.4138    5.8620   20.1086 C   0  0  0  0  0  0  0  0  0  0  0  0
   47.1377   10.9301   20.4383 C   0  0  0  0  0  0  0  0  0  0  0  0
   49.9703    4.7073   18.2534 C   0  0  0  0  0  0  0  0  0  0  0  0
   48.2474    3.6498   16.9237 C   0  0  0  0  0  0  0  0  0  0  0  0
   49.0466    2.5137   16.7896 C   0  0  0  0  0  0  0  0  0  0  0  0
   50.7679    3.5697   18.1186 C   0  0  0  0  0  0  0  0  0  0  0  0
   50.3051    2.4729   17.3905 C   0  0  0  0  0  0  0  0  0  0  0  0
   47.3893    3.3385   17.4485 C   0  0  0  0  0  0  0  0  0  0  0  0
   48.9376    4.9726   18.6043 C   0  0  0  0  0  0  0  0  0  0  0  0
   48.7441    4.0794   17.3893 C   0  0  1  0  0  0  0  0  0  0  0  0
   49.2217    6.3352   18.4360 C   0  0  0  0  0  0  0  0  0  0  0  0
   46.3974    4.0027   17.0240 O   0  0  0  0  0  0  0  0  0  0  0  0
   47.4160    2.1520   17.8886 O   0  0  0  0  0  0  0  0  0  0  0  0
   49.3888    7.1605   19.5489 C   0  0  0  0  0  0  0  0  0  0  0  0
   49.6725    8.4893   19.3355 O   0  0  0  0  0  0  0  0  0  0  0  0
   48.7413    9.4033   19.7799 C   0  0  0  0  0  0  0  0  0  0  0  0
   48.8557    4.4584   19.9087 C   0  0  0  0  0  0  0  0  0  0  0  0
   49.0502    5.2834   21.0191 C   0  0  0  0  0  0  0  0  0  0  0  0
   49.3242    6.6377   20.8411 C   0  0  0  0  0  0  0  0  0  0  0  0
   49.9271    3.1275   17.2198 C   0  0  0  0  0  0  0  0  0  0  0  0
   49.2419   10.6281   20.2255 C   0  0  0  0  0  0  0  0  0  0  0  0
   47.3609    9.1867   19.7444 C   0  0  0  0  0  0  0  0  0  0  0  0
   48.3680   11.6240   20.6647 C   0  0  0  0  0  0  0  0  0  0  0  0
   46.4885   10.1836   20.1846 C   0  0  0  0  0  0  0  0  0  0  0  0
   46.9915   11.3995   20.6472 C   0  0  0  0  0  0  0  0  0  0  0  0
   48.5513    6.8408   19.2472 Ca  0  0  0  0  0 15  0  0  0  0  0  0
   48.9387    6.8661   19.3334 O   0  0  0  0  0  0  0  0  0  0  0  0
   48.1770    7.4644   19.5530 H   0  0  0  0  0  0  0  0  0  0  0  0
   48.5443    6.1650   18.8403 H   0  0  0  0  0  0  0  0  0  0  0  0
   48.6982   10.3776   19.1073 H   0  0  0  0  0  0  0  0  0  0  0  0
   48.3945    8.3532   18.0045 H   0  0  0  0  0  0  0  0  0  0  0  0
   47.6433    8.4987   22.2434 H   0  0  0  0  0  0  0  0  0  0  0  0
   47.0715    6.0956   22.2247 H   0  0  0  0  0  0  0  0  0  0  0  0
   47.1655    4.8062   20.1038 H   0  0  0  0  0  0  0  0  0  0  0  0
   46.3413   10.7484   19.7080 H   0  0  0  0  0  0  0  0  0  0  0  0
   47.3808   11.9983   20.4124 H   0  0  0  0  0  0  0  0  0  0  0  0
   46.7298   10.7103   21.4307 H   0  0  0  0  0  0  0  0  0  0  0  0
   50.3482    5.5637   18.8086 H   0  0  0  0  0  0  0  0  0  0  0  0
   47.2694    3.6883   16.4532 H   0  0  0  0  0  0  0  0  0  0  0  0
   48.6894    1.6643   16.2149 H   0  0  0  0  0  0  0  0  0  0  0  0
   51.7522    3.5468   18.5792 H   0  0  0  0  0  0  0  0  0  0  0  0
   50.9295    1.5900   17.2862 H   0  0  0  0  0  0  0  0  0  0  0  0
   48.7078    4.7079   16.4885 H   0  0  0  0  0  0  0  0  0  0  0  0
   49.2870    6.7593   17.4382 H   0  0  0  0  0  0  0  0  0  0  0  0
   48.6246    3.4035   20.0574 H   0  0  0  0  0  0  0  0  0  0  0  0
   48.9777    4.8645   22.0179 H   0  0  0  0  0  0  0  0  0  0  0  0
   49.4763    7.2803   21.7020 H   0  0  0  0  0  0  0  0  0  0  0  0
   50.8594    3.6850   17.0796 H   0  0  0  0  0  0  0  0  0  0  0  0
   49.7843    2.4864   16.3440 H   0  0  0  0  0  0  0  0  0  0  0  0
   50.0627    2.4741   18.0881 H   0  0  0  0  0  0  0  0  0  0  0  0
   50.3140   10.8017   20.2312 H   0  0  0  0  0  0  0  0  0  0  0  0
   46.9522    8.2512   19.3688 H   0  0  0  0  0  0  0  0  0  0  0  0
   48.7604   12.5737   21.0158 H   0  0  0  0  0  0  0  0  0  0  0  0
   45.4161   10.0075   20.1585 H   0  0  0  0  0  0  0  0  0  0  0  0
   46.3087   12.1742   20.9856 H   0  0  0  0  0  0  0  0  0  0  0  0
   48.4828    6.1725   18.8335 H   0  0  0  0  0  0  0  0  0  0  0  0
   48.2322    7.4837   19.5747 H   0  0  0  0  0  0  0  0  0  0  0  0
  3  4  1  0
  4  2  1  0
  5  3  2  0
  6  2  1  0
  7  2  2  0
  8  5  1  0
  9  8  1  0
 10  9  1  0
 11  3  1  0
 12 11  2  0
 13  8  2  0
 14  4  1  0
 15 10  2  0
 16 10  1  0
 17 16  2  0
 18 15  1  0
 19 17  1  0
 12 13  1  0
 18 19  2  0
 21 22  1  0
 22 20  1  0
 23 21  2  0
 24 20  1  0
 25 20  2  0
 26 23  1  0
 27 26  1  0
 28 27  1  0
 29 21  1  0
 30 29  2  0
 31 26  2  0
 32 22  1  0
 33 28  2  0
 34 28  1  0
 35 33  1  0
 36 34  2  0
 37 36  1  0
 30 31  1  0
 35 37  2  0
  1 40  1  0
  1 41  1  0
  4 42  1  1
  5 43  1  0
 11 44  1  0
 12 45  1  0
 13 46  1  0
 14 47  1  0
 14 48  1  0
 14 49  1  0
 15 50  1  0
 16 51  1  0
 17 52  1  0
 18 53  1  0
 19 54  1  0
 22 55  1  1
 23 56  1  0
 29 57  1  0
 30 58  1  0
 31 59  1  0
 32 60  1  0
 32 61  1  0
 32 62  1  0
 33 63  1  0
 34 64  1  0
 35 65  1  0
 36 66  1  0
 37 67  1  0
 39 68  1  0
 39 69  1  0
M  CHG  3   6  -1  24  -1  38   2
M  END
> <Uni-Dock RESULT> 
ENERGY=   -6.533  LOWER_BOUND=    0.265  UPPER_BOUND=    6.408
INTER + INTRA:          -6.533
INTER:                  -6.533
INTRA:                   0.000
UNBOUND:                 0.000

$$$$

     RDKit          3D

 69 68  0  0  0  0  0  0  0  0999 V2000
   48.0467    7.7732   18.8145 O   0  0  0  0  0  0  0  0  0  0  0  0
   47.7118   11.6532   19.4641 C   0  0  0  0  0  0  0  0  0  0  0  0
   48.3288    9.3123   20.1830 C   0  0  0  0  0  0  0  0  0  0  0  0
   47.5693   10.5742   20.5610 C   0  0  1  0  0  0  0  0  0  0  0  0
   47.6488    8.0915   20.0634 C   0  0  0  0  0  0  0  0  0  0  0  0
   46.8731   11.5669   18.5190 O   0  0  0  0  0  0  0  0  0  0  0  0
   48.6247   12.5132   19.6353 O   0  0  0  0  0  0  0  0  0  0  0  0
   48.3399    6.9323   19.7070 C   0  0  0  0  0  0  0  0  0  0  0  0
   47.6224    5.7613   19.6166 O   0  0  0  0  0  0  0  0  0  0  0  0
   47.6822    5.0859   18.4172 C   0  0  0  0  0  0  0  0  0  0  0  0
   49.7145    9.3351   19.9563 C   0  0  0  0  0  0  0  0  0  0  0  0
   50.4070    8.1680   19.6262 C   0  0  0  0  0  0  0  0  0  0  0  0
   49.7215    6.9609   19.5089 C   0  0  0  0  0  0  0  0  0  0  0  0
   47.9922   11.0809   21.9390 C   0  0  0  0  0  0  0  0  0  0  0  0
   47.6403    5.7240   17.1744 C   0  0  0  0  0  0  0  0  0  0  0  0
   47.7207    3.6923   18.4862 C   0  0  0  0  0  0  0  0  0  0  0  0
   47.7535    2.9355   17.3142 C   0  0  0  0  0  0  0  0  0  0  0  0
   47.6739    4.9652   16.0033 C   0  0  0  0  0  0  0  0  0  0  0  0
   47.7339    3.5728   16.0732 C   0  0  0  0  0  0  0  0  0  0  0  0
   48.6312    3.5003   18.9791 C   0  0  0  0  0  0  0  0  0  0  0  0
   48.2425    5.8463   18.1139 C   0  0  0  0  0  0  0  0  0  0  0  0
   47.7122    4.4218   18.1459 C   0  0  1  0  0  0  0  0  0  0  0  0
   47.4209    6.9106   18.5115 C   0  0  0  0  0  0  0  0  0  0  0  0
   48.4231    3.5255   20.2286 O   0  0  0  0  0  0  0  0  0  0  0  0
   49.4702    2.8084   18.3313 O   0  0  0  0  0  0  0  0  0  0  0  0
   47.9080    8.2183   18.4942 C   0  0  0  0  0  0  0  0  0  0  0  0
   47.0642    9.2310   18.8869 O   0  0  0  0  0  0  0  0  0  0  0  0
   47.4296    9.9458   20.0074 C   0  0  0  0  0  0  0  0  0  0  0  0
   49.5456    6.1303   17.6736 C   0  0  0  0  0  0  0  0  0  0  0  0
   50.0194    7.4438   17.6329 C   0  0  0  0  0  0  0  0  0  0  0  0
   49.1976    8.4934   18.0377 C   0  0  0  0  0  0  0  0  0  0  0  0
   47.4802    3.8956   16.7305 C   0  0  0  0  0  0  0  0  0  0  0  0
   47.0721   11.2953   20.0229 C   0  0  0  0  0  0  0  0  0  0  0  0
   48.0643    9.3809   21.1171 C   0  0  0  0  0  0  0  0  0  0  0  0
   47.3754   12.0877   21.1312 C   0  0  0  0  0  0  0  0  0  0  0  0
   48.3675   10.1750   22.2245 C   0  0  0  0  0  0  0  0  0  0  0  0
   48.0263   11.5274   22.2302 C   0  0  0  0  0  0  0  0  0  0  0  0
   48.1449    7.5731   19.1441 Ca  0  0  0  0  0 15  0  0  0  0  0  0
   48.0431    7.7453   18.8002 O   0  0  0  0  0  0  0  0  0  0  0  0
   48.2879    8.1329   19.6813 H   0  0  0  0  0  0  0  0  0  0  0  0
   48.1001    6.8134   18.9365 H   0  0  0  0  0  0  0  0  0  0  0  0
   46.4978   10.3380   20.6250 H   0  0  0  0  0  0  0  0  0  0  0  0
   46.5750    8.0490   20.2236 H   0  0  0  0  0  0  0  0  0  0  0  0
   50.2547   10.2792   20.0249 H   0  0  0  0  0  0  0  0  0  0  0  0
   51.4778    8.2106   19.4532 H   0  0  0  0  0  0  0  0  0  0  0  0
   50.2605    6.0546   19.2545 H   0  0  0  0  0  0  0  0  0  0  0  0
   47.8079   10.3218   22.7073 H   0  0  0  0  0  0  0  0  0  0  0  0
   47.4254   11.9787   22.2101 H   0  0  0  0  0  0  0  0  0  0  0  0
   49.0557   11.3391   21.9807 H   0  0  0  0  0  0  0  0  0  0  0  0
   47.5758    6.8084   17.1085 H   0  0  0  0  0  0  0  0  0  0  0  0
   47.7302    3.2005   19.4544 H   0  0  0  0  0  0  0  0  0  0  0  0
   47.7908    1.8516   17.3695 H   0  0  0  0  0  0  0  0  0  0  0  0
   47.6472    5.4657   15.0388 H   0  0  0  0  0  0  0  0  0  0  0  0
   47.7580    2.9855   15.1595 H   0  0  0  0  0  0  0  0  0  0  0  0
   46.7369    4.4172   18.6526 H   0  0  0  0  0  0  0  0  0  0  0  0
   46.4102    6.7184   18.8597 H   0  0  0  0  0  0  0  0  0  0  0  0
   50.2011    5.3134   17.3715 H   0  0  0  0  0  0  0  0  0  0  0  0
   51.0317    7.6387   17.2931 H   0  0  0  0  0  0  0  0  0  0  0  0
   49.5631    9.5146   18.0063 H   0  0  0  0  0  0  0  0  0  0  0  0
   46.7475    4.5130   16.1999 H   0  0  0  0  0  0  0  0  0  0  0  0
   47.0982    2.8700   16.7576 H   0  0  0  0  0  0  0  0  0  0  0  0
   48.3983    3.8897   16.1335 H   0  0  0  0  0  0  0  0  0  0  0  0
   46.5592   11.7263   19.1680 H   0  0  0  0  0  0  0  0  0  0  0  0
   48.3199    8.3236   21.1359 H   0  0  0  0  0  0  0  0  0  0  0  0
   47.1009   13.1382   21.1384 H   0  0  0  0  0  0  0  0  0  0  0  0
   48.8649    9.7307   23.0829 H   0  0  0  0  0  0  0  0  0  0  0  0
   48.2610   12.1411   23.0958 H   0  0  0  0  0  0  0  0  0  0  0  0
   48.1170    6.7990   18.9947 H   0  0  0  0  0  0  0  0  0  0  0  0
   48.2744    8.1751   19.6373 H   0  0  0  0  0  0  0  0  0  0  0  0
  3  4  1  0
  4  2  1  0
  5  3  2  0
  6  2  1  0
  7  2  2  0
  8  5  1  0
  9  8  1  0
 10  9  1  0
 11  3  1  0
 12 11  2  0
 13  8  2  0
 14  4  1  0
 15 10  2  0
 16 10  1  0
 17 16  2  0
 18 15  1  0
 19 17  1  0
 12 13  1  0
 18 19  2  0
 21 22  1  0
 22 20  1  0
 23 21  2  0
 24 20  1  0
 25 20  2  0
 26 23  1  0
 27 26  1  0
 28 27  1  0
 29 21  1  0
 30 29  2  0
 31 26  2  0
 32 22  1  0
 33 28  2  0
 34 28  1  0
 35 33  1  0
 36 34  2  0
 37 36  1  0
 30 31  1  0
 35 37  2  0
  1 40  1  0
  1 41  1  0
  4 42  1  1
  5 43  1  0
 11 44  1  0
 12 45  1  0
 13 46  1  0
 14 47  1  0
 14 48  1  0
 14 49  1  0
 15 50  1  0
 16 51  1  0
 17 52  1  0
 18 53  1  0
 19 54  1  0
 22 55  1  1
 23 56  1  0
 29 57  1  0
 30 58  1  0
 31 59  1  0
 32 60  1  0
 32 61  1  0
 32 62  1  0
 33 63  1  0
 34 64  1  0
 35 65  1  0
 36 66  1  0
 37 67  1  0
 39 68  1  0
 39 69  1  0
M  CHG  3   6  -1  24  -1  38   2
M  END
> <Uni-Dock RESULT> 
ENERGY=   -5.868  LOWER_BOUND=    1.599  UPPER_BOUND=    6.357
INTER + INTRA:          -5.868
INTER:                  -5.868
INTRA:                   0.000
UNBOUND:                 0.000

$$$$

     RDKit          3D

 69 68  0  0  0  0  0  0  0  0999 V2000
   48.2925    7.3038   19.4592 O   0  0  0  0  0  0  0  0  0  0  0  0
   48.6633    3.4358   18.7592 C   0  0  0  0  0  0  0  0  0  0  0  0
   48.3206    5.8207   18.0029 C   0  0  0  0  0  0  0  0  0  0  0  0
   47.8040    4.3940   17.9041 C   0  0  1  0  0  0  0  0  0  0  0  0
   47.4851    6.8394   18.4837 C   0  0  0  0  0  0  0  0  0  0  0  0
   48.3217    3.3555   19.9761 O   0  0  0  0  0  0  0  0  0  0  0  0
   49.5914    2.8215   18.1561 O   0  0  0  0  0  0  0  0  0  0  0  0
   47.9578    8.1488   18.5854 C   0  0  0  0  0  0  0  0  0  0  0  0
   47.0892    9.1086   19.0527 O   0  0  0  0  0  0  0  0  0  0  0  0
   47.4948    9.8327   20.1525 C   0  0  0  0  0  0  0  0  0  0  0  0
   49.6278    6.1521   17.6111 C   0  0  0  0  0  0  0  0  0  0  0  0
   50.0885    7.4683   17.6892 C   0  0  0  0  0  0  0  0  0  0  0  0
   49.2505    8.4722   18.1693 C   0  0  0  0  0  0  0  0  0  0  0  0
   47.6997    3.9445   16.4476 C   0  0  0  0  0  0  0  0  0  0  0  0
   48.1498    9.2622   21.2475 C   0  0  0  0  0  0  0  0  0  0  0  0
   47.1601   11.1876   20.1667 C   0  0  0  0  0  0  0  0  0  0  0  0
   47.5108   11.9824   21.2588 C   0  0  0  0  0  0  0  0  0  0  0  0
   48.5002   10.0592   22.3387 C   0  0  0  0  0  0  0  0  0  0  0  0
   48.1841   11.4183   22.3428 C   0  0  0  0  0  0  0  0  0  0  0  0
   47.6917   11.5760   19.3449 C   0  0  0  0  0  0  0  0  0  0  0  0
   48.2972    9.2494   20.1348 C   0  0  0  0  0  0  0  0  0  0  0  0
   47.4767   10.4953   20.4283 C   0  0  1  0  0  0  0  0  0  0  0  0
   47.6702    7.9977   20.0581 C   0  0  0  0  0  0  0  0  0  0  0  0
   46.9777   11.4423   18.3068 O   0  0  0  0  0  0  0  0  0  0  0  0
   48.5322   12.4833   19.6146 O   0  0  0  0  0  0  0  0  0  0  0  0
   48.4183    6.8535   19.7776 C   0  0  0  0  0  0  0  0  0  0  0  0
   47.7617    5.6464   19.7184 O   0  0  0  0  0  0  0  0  0  0  0  0
   47.7690    4.9932   18.5046 C   0  0  0  0  0  0  0  0  0  0  0  0
   49.6882    9.3175   19.9535 C   0  0  0  0  0  0  0  0  0  0  0  0
   50.4363    8.1654   19.6994 C   0  0  0  0  0  0  0  0  0  0  0  0
   49.8025    6.9275   19.6173 C   0  0  0  0  0  0  0  0  0  0  0  0
   47.7584   11.0127   21.8379 C   0  0  0  0  0  0  0  0  0  0  0  0
   47.7795    3.5980   18.5541 C   0  0  0  0  0  0  0  0  0  0  0  0
   47.7043    5.6456   17.2702 C   0  0  0  0  0  0  0  0  0  0  0  0
   47.7570    2.8549   17.3728 C   0  0  0  0  0  0  0  0  0  0  0  0
   47.6825    4.9009   16.0897 C   0  0  0  0  0  0  0  0  0  0  0  0
   47.7120    3.5073   16.1408 C   0  0  0  0  0  0  0  0  0  0  0  0
   48.1870    7.5064   19.1335 Ca  0  0  0  0  0 15  0  0  0  0  0  0
   48.2888    7.3305   19.4755 O   0  0  0  0  0  0  0  0  0  0  0  0
   48.2152    6.9751   18.5510 H   0  0  0  0  0  0  0  0  0  0  0  0
   48.0532    8.2402   19.3904 H   0  0  0  0  0  0  0  0  0  0  0  0
   46.7882    4.3544   18.3219 H   0  0  0  0  0  0  0  0  0  0  0  0
   46.4727    6.6074   18.8028 H   0  0  0  0  0  0  0  0  0  0  0  0
   50.2968    5.3689   17.2547 H   0  0  0  0  0  0  0  0  0  0  0  0
   51.1038    7.7001   17.3829 H   0  0  0  0  0  0  0  0  0  0  0  0
   49.6085    9.4945   18.2277 H   0  0  0  0  0  0  0  0  0  0  0  0
   47.0236    4.5979   15.8850 H   0  0  0  0  0  0  0  0  0  0  0  0
   47.3083    2.9228   16.3867 H   0  0  0  0  0  0  0  0  0  0  0  0
   48.6683    3.9558   15.9365 H   0  0  0  0  0  0  0  0  0  0  0  0
   48.3856    8.1999   21.2624 H   0  0  0  0  0  0  0  0  0  0  0  0
   46.6311   11.6212   19.3232 H   0  0  0  0  0  0  0  0  0  0  0  0
   47.2560   13.0381   21.2652 H   0  0  0  0  0  0  0  0  0  0  0  0
   49.0149    9.6128   23.1857 H   0  0  0  0  0  0  0  0  0  0  0  0
   48.4569   12.0349   23.1946 H   0  0  0  0  0  0  0  0  0  0  0  0
   46.4097   10.2350   20.3905 H   0  0  0  0  0  0  0  0  0  0  0  0
   46.5952    7.9174   20.1908 H   0  0  0  0  0  0  0  0  0  0  0  0
   50.1898   10.2843   19.9988 H   0  0  0  0  0  0  0  0  0  0  0  0
   51.5098    8.2432   19.5583 H   0  0  0  0  0  0  0  0  0  0  0  0
   50.3816    6.0312   19.4208 H   0  0  0  0  0  0  0  0  0  0  0  0
   47.5008   10.2584   22.5891 H   0  0  0  0  0  0  0  0  0  0  0  0
   47.1658   11.9094   22.0457 H   0  0  0  0  0  0  0  0  0  0  0  0
   48.8122   11.2733   21.9823 H   0  0  0  0  0  0  0  0  0  0  0  0
   47.8075    3.0935   19.5155 H   0  0  0  0  0  0  0  0  0  0  0  0
   47.6615    6.7312   17.2142 H   0  0  0  0  0  0  0  0  0  0  0  0
   47.7705    1.7699   17.4141 H   0  0  0  0  0  0  0  0  0  0  0  0
   47.6363    5.4142   15.1327 H   0  0  0  0  0  0  0  0  0  0  0  0
   47.6913    2.9314   15.2195 H   0  0  0  0  0  0  0  0  0  0  0  0
   48.0393    8.2556   19.3316 H   0  0  0  0  0  0  0  0  0  0  0  0
   48.2328    6.9330   18.5936 H   0  0  0  0  0  0  0  0  0  0  0  0
  3  4  1  0
  4  2  1  0
  5  3  2  0
  6  2  1  0
  7  2  2  0
  8  5  1  0
  9  8  1  0
 10  9  1  0
 11  3  1  0
 12 11  2  0
 13  8  2  0
 14  4  1  0
 15 10  2  0
 16 10  1  0
 17 16  2  0
 18 15  1  0
 19 17  1  0
 12 13  1  0
 18 19  2  0
 21 22  1  0
 22 20  1  0
 23 21  2  0
 24 20  1  0
 25 20  2  0
 26 23  1  0
 27 26  1  0
 28 27  1  0
 29 21  1  0
 30 29  2  0
 31 26  2  0
 32 22  1  0
 33 28  2  0
 34 28  1  0
 35 33  1  0
 36 34  2  0
 37 36  1  0
 30 31  1  0
 35 37  2  0
  1 40  1  0
  1 41  1  0
  4 42  1  1
  5 43  1  0
 11 44  1  0
 12 45  1  0
 13 46  1  0
 14 47  1  0
 14 48  1  0
 14 49  1  0
 15 50  1  0
 16 51  1  0
 17 52  1  0
 18 53  1  0
 19 54  1  0
 22 55  1  1
 23 56  1  0
 29 57  1  0
 30 58  1  0
 31 59  1  0
 32 60  1  0
 32 61  1  0
 32 62  1  0
 33 63  1  0
 34 64  1  0
 35 65  1  0
 36 66  1  0
 37 67  1  0
 39 68  1  0
 39 69  1  0
M  CHG  3   6  -1  24  -1  38   2
M  END
> <Uni-Dock RESULT> 
ENERGY=   -5.770  LOWER_BOUND=    1.577  UPPER_BOUND=    2.385
INTER + INTRA:          -5.770
INTER:                  -5.770
INTRA:                   0.000
UNBOUND:                 0.000

$$$$

     RDKit          3D

 69 68  0  0  0  0  0  0  0  0999 V2000
   48.6020    8.7247   16.7482 O   0  0  0  0  0  0  0  0  0  0  0  0
   49.4473    7.4088   13.1229 C   0  0  0  0  0  0  0  0  0  0  0  0
   48.9731    9.2598   14.7741 C   0  0  0  0  0  0  0  0  0  0  0  0
   48.6194    8.6807   13.4133 C   0  0  1  0  0  0  0  0  0  0  0  0
   47.9832    9.3995   15.7577 C   0  0  0  0  0  0  0  0  0  0  0  0
   48.9552    6.3358   13.5819 O   0  0  0  0  0  0  0  0  0  0  0  0
   50.5045    7.5674   12.4451 O   0  0  0  0  0  0  0  0  0  0  0  0
   48.3050    9.9213   17.0117 C   0  0  0  0  0  0  0  0  0  0  0  0
   47.2903   10.0462   17.9329 O   0  0  0  0  0  0  0  0  0  0  0  0
   47.4703    9.4185   19.1461 C   0  0  0  0  0  0  0  0  0  0  0  0
   50.2815    9.6729   15.0733 C   0  0  0  0  0  0  0  0  0  0  0  0
   50.5940   10.2196   16.3201 C   0  0  0  0  0  0  0  0  0  0  0  0
   49.6032   10.3528   17.2903 C   0  0  0  0  0  0  0  0  0  0  0  0
   48.7569    9.7324   12.3134 C   0  0  0  0  0  0  0  0  0  0  0  0
   48.0259    8.1425   19.2747 C   0  0  0  0  0  0  0  0  0  0  0  0
   47.0033   10.0942   20.2746 C   0  0  0  0  0  0  0  0  0  0  0  0
   47.1231    9.5117   21.5370 C   0  0  0  0  0  0  0  0  0  0  0  0
   48.1454    7.5618   20.5384 C   0  0  0  0  0  0  0  0  0  0  0  0
   47.6977    8.2471   21.6685 C   0  0  0  0  0  0  0  0  0  0  0  0
   47.5990   10.9621   20.2997 C   0  0  0  0  0  0  0  0  0  0  0  0
   48.3219    9.0926   18.7551 C   0  0  0  0  0  0  0  0  0  0  0  0
   47.3493    9.5054   19.8484 C   0  0  1  0  0  0  0  0  0  0  0  0
   47.8389    8.5879   17.5396 C   0  0  0  0  0  0  0  0  0  0  0  0
   47.0478   11.8471   19.5799 O   0  0  0  0  0  0  0  0  0  0  0  0
   48.3009   11.1155   21.3419 O   0  0  0  0  0  0  0  0  0  0  0  0
   48.7282    8.2185   16.5295 C   0  0  0  0  0  0  0  0  0  0  0  0
   48.2092    7.7225   15.3563 O   0  0  0  0  0  0  0  0  0  0  0  0
   48.4445    8.4557   14.2130 C   0  0  0  0  0  0  0  0  0  0  0  0
   49.7109    9.1880   18.9398 C   0  0  0  0  0  0  0  0  0  0  0  0
   50.5975    8.7919   17.9355 C   0  0  0  0  0  0  0  0  0  0  0  0
   50.1071    8.2991   16.7283 C   0  0  0  0  0  0  0  0  0  0  0  0
   47.3862    8.5157   21.0117 C   0  0  0  0  0  0  0  0  0  0  0  0
   48.5873    7.7271   13.0306 C   0  0  0  0  0  0  0  0  0  0  0  0
   48.4814    9.8525   14.1790 C   0  0  0  0  0  0  0  0  0  0  0  0
   48.7979    8.3900   11.8204 C   0  0  0  0  0  0  0  0  0  0  0  0
   48.6926   10.5138   12.9679 C   0  0  0  0  0  0  0  0  0  0  0  0
   48.8538    9.7834   11.7906 C   0  0  0  0  0  0  0  0  0  0  0  0
   48.5215    9.1142   16.7521 Ca  0  0  0  0  0 15  0  0  0  0  0  0
   48.5935    8.7240   16.7785 O   0  0  0  0  0  0  0  0  0  0  0  0
   48.6806    9.3575   16.0187 H   0  0  0  0  0  0  0  0  0  0  0  0
   48.2819    9.2605   17.4893 H   0  0  0  0  0  0  0  0  0  0  0  0
   47.5658    8.3682   13.4234 H   0  0  0  0  0  0  0  0  0  0  0  0
   46.9655    9.0779   15.5547 H   0  0  0  0  0  0  0  0  0  0  0  0
   51.0670    9.5522   14.3275 H   0  0  0  0  0  0  0  0  0  0  0  0
   51.6130   10.5297   16.5294 H   0  0  0  0  0  0  0  0  0  0  0  0
   49.8463   10.7792   18.2575 H   0  0  0  0  0  0  0  0  0  0  0  0
   48.1007   10.5881   12.5075 H   0  0  0  0  0  0  0  0  0  0  0  0
   48.4811    9.3106   11.3404 H   0  0  0  0  0  0  0  0  0  0  0  0
   49.7794   10.1153   12.2272 H   0  0  0  0  0  0  0  0  0  0  0  0
   48.3623    7.5920   18.3982 H   0  0  0  0  0  0  0  0  0  0  0  0
   46.5517   11.0760   20.1667 H   0  0  0  0  0  0  0  0  0  0  0  0
   46.7658   10.0418   22.4149 H   0  0  0  0  0  0  0  0  0  0  0  0
   48.5837    6.5718   20.6347 H   0  0  0  0  0  0  0  0  0  0  0  0
   47.7907    7.7911   22.6502 H   0  0  0  0  0  0  0  0  0  0  0  0
   46.3283    9.4837   19.4423 H   0  0  0  0  0  0  0  0  0  0  0  0
   46.7692    8.5070   17.3694 H   0  0  0  0  0  0  0  0  0  0  0  0
   50.1028    9.5887   19.8747 H   0  0  0  0  0  0  0  0  0  0  0  0
   51.6670    8.8789   18.0992 H   0  0  0  0  0  0  0  0  0  0  0  0
   50.7938    7.9901   15.9470 H   0  0  0  0  0  0  0  0  0  0  0  0
   47.1066    7.5107   20.6779 H   0  0  0  0  0  0  0  0  0  0  0  0
   46.6846    8.8161   21.7966 H   0  0  0  0  0  0  0  0  0  0  0  0
   48.3798    8.4459   21.4669 H   0  0  0  0  0  0  0  0  0  0  0  0
   48.5362    6.6426   13.0569 H   0  0  0  0  0  0  0  0  0  0  0  0
   48.3384   10.4369   15.0853 H   0  0  0  0  0  0  0  0  0  0  0  0
   48.9139    7.8207   10.9031 H   0  0  0  0  0  0  0  0  0  0  0  0
   48.7243   11.6001   12.9486 H   0  0  0  0  0  0  0  0  0  0  0  0
   49.0146   10.3023   10.8494 H   0  0  0  0  0  0  0  0  0  0  0  0
   48.2746    9.3201   17.4725 H   0  0  0  0  0  0  0  0  0  0  0  0
   48.6964    9.2987   16.0052 H   0  0  0  0  0  0  0  0  0  0  0  0
  3  4  1  0
  4  2  1  0
  5  3  2  0
  6  2  1  0
  7  2  2  0
  8  5  1  0
  9  8  1  0
 10  9  1  0
 11  3  1  0
 12 11  2  0
 13  8  2  0
 14  4  1  0
 15 10  2  0
 16 10  1  0
 17 16  2  0
 18 15  1  0
 19 17  1  0
 12 13  1  0
 18 19  2  0
 21 22  1  0
 22 20  1  0
 23 21  2  0
 24 20  1  0
 25 20  2  0
 26 23  1  0
 27 26  1  0
 28 27  1  0
 29 21  1  0
 30 29  2  0
 31 26  2  0
 32 22  1  0
 33 28  2  0
 34 28  1  0
 35 33  1  0
 36 34  2  0
 37 36  1  0
 30 31  1  0
 35 37  2  0
  1 40  1  0
  1 41  1  0
  4 42  1  1
  5 43  1  0
 11 44  1  0
 12 45  1  0
 13 46  1  0
 14 47  1  0
 14 48  1  0
 14 49  1  0
 15 50  1  0
 16 51  1  0
 17 52  1  0
 18 53  1  0
 19 54  1  0
 22 55  1  1
 23 56  1  0
 29 57  1  0
 30 58  1  0
 31 59  1  0
 32 60  1  0
 32 61  1  0
 32 62  1  0
 33 63  1  0
 34 64  1  0
 35 65  1  0
 36 66  1  0
 37 67  1  0
 39 68  1  0
 39 69  1  0
M  CHG  3   6  -1  24  -1  38   2
M  END
> <Uni-Dock RESULT> 
ENERGY=   -5.145  LOWER_BOUND=    3.813  UPPER_BOUND=    4.966
INTER + INTRA:          -5.145
INTER:                  -5.145
INTRA:                   0.000
UNBOUND:                 0.000

$$$$

     RDKit          3D

 69 68  0  0  0  0  0  0  0  0999 V2000
   49.0015    8.3038   12.2262 O   0  0  0  0  0  0  0  0  0  0  0  0
   45.4376    6.6053   12.1809 C   0  0  0  0  0  0  0  0  0  0  0  0
   47.7344    6.9537   13.1710 C   0  0  0  0  0  0  0  0  0  0  0  0
   46.7183    5.9211   12.7092 C   0  0  1  0  0  0  0  0  0  0  0  0
   49.0056    7.0024   12.5806 C   0  0  0  0  0  0  0  0  0  0  0  0
   45.4786    6.9449   10.9615 O   0  0  0  0  0  0  0  0  0  0  0  0
   44.4853    6.7314   13.0053 O   0  0  0  0  0  0  0  0  0  0  0  0
   49.9384    7.9549   12.9944 C   0  0  0  0  0  0  0  0  0  0  0  0
   51.1735    7.9474   12.3875 O   0  0  0  0  0  0  0  0  0  0  0  0
   51.5814    9.1208   11.7918 C   0  0  0  0  0  0  0  0  0  0  0  0
   47.4328    7.8671   14.1942 C   0  0  0  0  0  0  0  0  0  0  0  0
   48.3781    8.8012   14.6240 C   0  0  0  0  0  0  0  0  0  0  0  0
   49.6375    8.8416   14.0299 C   0  0  0  0  0  0  0  0  0  0  0  0
   46.4264    4.9032   13.8106 C   0  0  0  0  0  0  0  0  0  0  0  0
   50.7293    9.9381   11.0438 C   0  0  0  0  0  0  0  0  0  0  0  0
   52.9344    9.4434   11.9085 C   0  0  0  0  0  0  0  0  0  0  0  0
   53.4308   10.6013   11.3083 C   0  0  0  0  0  0  0  0  0  0  0  0
   51.2277   11.0963   10.4448 C   0  0  0  0  0  0  0  0  0  0  0  0
   52.5761   11.4292   10.5798 C   0  0  0  0  0  0  0  0  0  0  0  0
   53.0616    9.5785   12.9450 C   0  0  0  0  0  0  0  0  0  0  0  0
   50.6925    9.4682   12.0626 C   0  0  0  0  0  0  0  0  0  0  0  0
   52.1647    9.5263   11.6876 C   0  0  1  0  0  0  0  0  0  0  0  0
   49.8817    8.4375   11.5668 C   0  0  0  0  0  0  0  0  0  0  0  0
   53.3168    8.4527   13.4671 O   0  0  0  0  0  0  0  0  0  0  0  0
   53.4609   10.7249   13.3037 O   0  0  0  0  0  0  0  0  0  0  0  0
   48.5325    8.3745   11.9179 C   0  0  0  0  0  0  0  0  0  0  0  0
   47.7743    7.3491   11.4025 O   0  0  0  0  0  0  0  0  0  0  0  0
   47.2408    6.4551   12.3059 C   0  0  0  0  0  0  0  0  0  0  0  0
   50.1110   10.4431   12.8896 C   0  0  0  0  0  0  0  0  0  0  0  0
   48.7538   10.3905   13.2165 C   0  0  0  0  0  0  0  0  0  0  0  0
   47.9586    9.3576   12.7250 C   0  0  0  0  0  0  0  0  0  0  0  0
   52.4358   10.6809   10.7245 C   0  0  0  0  0  0  0  0  0  0  0  0
   46.0010    5.9063   11.9729 C   0  0  0  0  0  0  0  0  0  0  0  0
   47.8956    6.0415   13.4694 C   0  0  0  0  0  0  0  0  0  0  0  0
   45.4008    4.9692   12.8154 C   0  0  0  0  0  0  0  0  0  0  0  0
   47.2935    5.1046   14.3112 C   0  0  0  0  0  0  0  0  0  0  0  0
   46.0462    4.5715   13.9862 C   0  0  0  0  0  0  0  0  0  0  0  0
   49.2425    8.1413   12.4978 Ca  0  0  0  0  0 15  0  0  0  0  0  0
   49.0262    8.3207   12.2162 O   0  0  0  0  0  0  0  0  0  0  0  0
   48.7824    7.6398   12.8969 H   0  0  0  0  0  0  0  0  0  0  0  0
   49.9433    8.4802   12.3703 H   0  0  0  0  0  0  0  0  0  0  0  0
   47.1409    5.3608   11.8633 H   0  0  0  0  0  0  0  0  0  0  0  0
   49.2603    6.3135   11.7800 H   0  0  0  0  0  0  0  0  0  0  0  0
   46.4425    7.8564   14.6494 H   0  0  0  0  0  0  0  0  0  0  0  0
   48.1213    9.4989   15.4150 H   0  0  0  0  0  0  0  0  0  0  0  0
   50.3716    9.5660   14.3657 H   0  0  0  0  0  0  0  0  0  0  0  0
   47.3411    4.3798   14.1107 H   0  0  0  0  0  0  0  0  0  0  0  0
   45.7084    4.1527   13.4612 H   0  0  0  0  0  0  0  0  0  0  0  0
   46.0045    5.3683   14.7080 H   0  0  0  0  0  0  0  0  0  0  0  0
   49.6800    9.6788   10.9175 H   0  0  0  0  0  0  0  0  0  0  0  0
   53.5971    8.7931   12.4718 H   0  0  0  0  0  0  0  0  0  0  0  0
   54.4823   10.8547   11.4061 H   0  0  0  0  0  0  0  0  0  0  0  0
   50.5603   11.7323    9.8691 H   0  0  0  0  0  0  0  0  0  0  0  0
   52.9607   12.3305   10.1107 H   0  0  0  0  0  0  0  0  0  0  0  0
   52.4338    8.6003   11.1605 H   0  0  0  0  0  0  0  0  0  0  0  0
   50.3070    7.6687   10.9281 H   0  0  0  0  0  0  0  0  0  0  0  0
   50.7297   11.2450   13.2927 H   0  0  0  0  0  0  0  0  0  0  0  0
   48.3273   11.1527   13.8611 H   0  0  0  0  0  0  0  0  0  0  0  0
   46.9041    9.3150   12.9769 H   0  0  0  0  0  0  0  0  0  0  0  0
   51.8601   10.5615    9.8004 H   0  0  0  0  0  0  0  0  0  0  0  0
   53.4966   10.7194   10.4567 H   0  0  0  0  0  0  0  0  0  0  0  0
   52.1690   11.6522   11.1543 H   0  0  0  0  0  0  0  0  0  0  0  0
   45.5048    6.2132   11.0569 H   0  0  0  0  0  0  0  0  0  0  0  0
   48.8771    6.4335   13.7270 H   0  0  0  0  0  0  0  0  0  0  0  0
   44.4340    4.5478   12.5567 H   0  0  0  0  0  0  0  0  0  0  0  0
   47.8059    4.7900   15.2167 H   0  0  0  0  0  0  0  0  0  0  0  0
   45.5827    3.8398   14.6425 H   0  0  0  0  0  0  0  0  0  0  0  0
   49.9657    8.4458   12.4173 H   0  0  0  0  0  0  0  0  0  0  0  0
   48.7354    7.6574   12.8599 H   0  0  0  0  0  0  0  0  0  0  0  0
  3  4  1  0
  4  2  1  0
  5  3  2  0
  6  2  1  0
  7  2  2  0
  8  5  1  0
  9  8  1  0
 10  9  1  0
 11  3  1  0
 12 11  2  0
 13  8  2  0
 14  4  1  0
 15 10  2  0
 16 10  1  0
 17 16  2  0
 18 15  1  0
 19 17  1  0
 12 13  1  0
 18 19  2  0
 21 22  1  0
 22 20  1  0
 23 21  2  0
 24 20  1  0
 25 20  2  0
 26 23  1  0
 27 26  1  0
 28 27  1  0
 29 21  1  0
 30 29  2  0
 31 26  2  0
 32 22  1  0
 33 28  2  0
 34 28  1  0
 35 33  1  0
 36 34  2  0
 37 36  1  0
 30 31  1  0
 35 37  2  0
  1 40  1  0
  1 41  1  0
  4 42  1  1
  5 43  1  0
 11 44  1  0
 12 45  1  0
 13 46  1  0
 14 47  1  0
 14 48  1  0
 14 49  1  0
 15 50  1  0
 16 51  1  0
 17 52  1  0
 18 53  1  0
 19 54  1  0
 22 55  1  1
 23 56  1  0
 29 57  1  0
 30 58  1  0
 31 59  1  0
 32 60  1  0
 32 61  1  0
 32 62  1  0
 33 63  1  0
 34 64  1  0
 35 65  1  0
 36 66  1  0
 37 67  1  0
 39 68  1  0
 39 69  1  0
M  CHG  3   6  -1  24  -1  38   2
M  END
> <Uni-Dock RESULT> 
ENERGY=   -5.125  LOWER_BOUND=    6.610  UPPER_BOUND=    7.743
INTER + INTRA:          -5.125
INTER:                  -5.125
INTRA:                   0.000
UNBOUND:                 0.000

$$$$

     RDKit          3D

 69 68  0  0  0  0  0  0  0  0999 V2000
   48.4839    9.5081   16.7726 O   0  0  0  0  0  0  0  0  0  0  0  0
   47.7737   10.7762   20.4436 C   0  0  0  0  0  0  0  0  0  0  0  0
   48.3733    8.9746   18.7787 C   0  0  0  0  0  0  0  0  0  0  0  0
   47.4726    9.3445   19.9466 C   0  0  1  0  0  0  0  0  0  0  0  0
   47.8128    8.6260   17.5413 C   0  0  0  0  0  0  0  0  0  0  0  0
   47.1599   11.6955   19.8254 O   0  0  0  0  0  0  0  0  0  0  0  0
   48.5737   10.8772   21.4195 O   0  0  0  0  0  0  0  0  0  0  0  0
   48.6357    8.2953   16.4634 C   0  0  0  0  0  0  0  0  0  0  0  0
   48.0293    7.9500   15.2772 O   0  0  0  0  0  0  0  0  0  0  0  0
   48.3828    8.6783   14.1624 C   0  0  0  0  0  0  0  0  0  0  0  0
   49.7714    8.9637   18.9105 C   0  0  0  0  0  0  0  0  0  0  0  0
   50.5907    8.6061   17.8374 C   0  0  0  0  0  0  0  0  0  0  0  0
   50.0234    8.2626   16.6122 C   0  0  0  0  0  0  0  0  0  0  0  0
   47.5632    8.3060   21.0637 C   0  0  0  0  0  0  0  0  0  0  0  0
   48.5628   10.0643   14.1768 C   0  0  0  0  0  0  0  0  0  0  0  0
   48.4945    7.9717   12.9639 C   0  0  0  0  0  0  0  0  0  0  0  0
   48.8212    8.6430   11.7849 C   0  0  0  0  0  0  0  0  0  0  0  0
   48.8901   10.7338   12.9964 C   0  0  0  0  0  0  0  0  0  0  0  0
   49.0225   10.0235   11.8027 C   0  0  0  0  0  0  0  0  0  0  0  0
   49.2913    7.3084   13.1484 C   0  0  0  0  0  0  0  0  0  0  0  0
   48.9448    9.2041   14.7884 C   0  0  0  0  0  0  0  0  0  0  0  0
   48.5114    8.6056   13.4597 C   0  0  1  0  0  0  0  0  0  0  0  0
   47.9920    9.4758   15.7804 C   0  0  0  0  0  0  0  0  0  0  0  0
   48.8239    6.2609   13.6865 O   0  0  0  0  0  0  0  0  0  0  0  0
   50.2901    7.4236   12.3793 O   0  0  0  0  0  0  0  0  0  0  0  0
   48.3876   10.0146   17.0055 C   0  0  0  0  0  0  0  0  0  0  0  0
   47.4174   10.2704   17.9463 O   0  0  0  0  0  0  0  0  0  0  0  0
   47.4928    9.5617   19.1261 C   0  0  0  0  0  0  0  0  0  0  0  0
   50.2907    9.5128   15.0454 C   0  0  0  0  0  0  0  0  0  0  0  0
   50.6779   10.0768   16.2634 C   0  0  0  0  0  0  0  0  0  0  0  0
   49.7242   10.3355   17.2455 C   0  0  0  0  0  0  0  0  0  0  0  0
   48.6163    9.6375   12.3380 C   0  0  0  0  0  0  0  0  0  0  0  0
   47.0549   10.2249   20.2740 C   0  0  0  0  0  0  0  0  0  0  0  0
   47.9145    8.2317   19.2085 C   0  0  0  0  0  0  0  0  0  0  0  0
   47.0673    9.5723   21.5078 C   0  0  0  0  0  0  0  0  0  0  0  0
   47.9268    7.5807   20.4434 C   0  0  0  0  0  0  0  0  0  0  0  0
   47.5068    8.2512   21.5921 C   0  0  0  0  0  0  0  0  0  0  0  0
   48.5231    9.1126   16.7548 Ca  0  0  0  0  0 15  0  0  0  0  0  0
   48.4852    9.5084   16.7411 O   0  0  0  0  0  0  0  0  0  0  0  0
   48.5140    8.8777   17.5078 H   0  0  0  0  0  0  0  0  0  0  0  0
   48.5714    8.9521   15.9839 H   0  0  0  0  0  0  0  0  0  0  0  0
   46.4289    9.3499   19.6023 H   0  0  0  0  0  0  0  0  0  0  0  0
   46.7343    8.6366   17.4103 H   0  0  0  0  0  0  0  0  0  0  0  0
   50.2240    9.2520   19.8593 H   0  0  0  0  0  0  0  0  0  0  0  0
   51.6690    8.6073   17.9623 H   0  0  0  0  0  0  0  0  0  0  0  0
   50.6603    7.9832   15.7799 H   0  0  0  0  0  0  0  0  0  0  0  0
   47.2700    7.3149   20.6998 H   0  0  0  0  0  0  0  0  0  0  0  0
   46.8961    8.5714   21.8916 H   0  0  0  0  0  0  0  0  0  0  0  0
   48.5755    8.2197   21.4727 H   0  0  0  0  0  0  0  0  0  0  0  0
   48.4448   10.6304   15.0987 H   0  0  0  0  0  0  0  0  0  0  0  0
   48.3315    6.8980   12.9538 H   0  0  0  0  0  0  0  0  0  0  0  0
   48.9148    8.0907   10.8545 H   0  0  0  0  0  0  0  0  0  0  0  0
   49.0351   11.8109   13.0132 H   0  0  0  0  0  0  0  0  0  0  0  0
   49.2756   10.5483   10.8857 H   0  0  0  0  0  0  0  0  0  0  0  0
   47.4537    8.3152   13.5292 H   0  0  0  0  0  0  0  0  0  0  0  0
   46.9450    9.2433   15.6089 H   0  0  0  0  0  0  0  0  0  0  0  0
   51.0457    9.2976   14.2892 H   0  0  0  0  0  0  0  0  0  0  0  0
   51.7245   10.3030   16.4412 H   0  0  0  0  0  0  0  0  0  0  0  0
   50.0225   10.7743   18.1920 H   0  0  0  0  0  0  0  0  0  0  0  0
   47.9738   10.5011   12.5410 H   0  0  0  0  0  0  0  0  0  0  0  0
   48.3032    9.2031   11.3832 H   0  0  0  0  0  0  0  0  0  0  0  0
   49.6378   10.0111   12.2110 H   0  0  0  0  0  0  0  0  0  0  0  0
   46.7069   11.2513   20.2032 H   0  0  0  0  0  0  0  0  0  0  0  0
   48.2271    7.6891   18.3190 H   0  0  0  0  0  0  0  0  0  0  0  0
   46.7312   10.0922   22.3999 H   0  0  0  0  0  0  0  0  0  0  0  0
   48.2598    6.5476   20.5016 H   0  0  0  0  0  0  0  0  0  0  0  0
   47.5146    7.7396   22.5508 H   0  0  0  0  0  0  0  0  0  0  0  0
   48.5766    8.8919   15.9993 H   0  0  0  0  0  0  0  0  0  0  0  0
   48.5075    8.9377   17.5239 H   0  0  0  0  0  0  0  0  0  0  0  0
  3  4  1  0
  4  2  1  0
  5  3  2  0
  6  2  1  0
  7  2  2  0
  8  5  1  0
  9  8  1  0
 10  9  1  0
 11  3  1  0
 12 11  2  0
 13  8  2  0
 14  4  1  0
 15 10  2  0
 16 10  1  0
 17 16  2  0
 18 15  1  0
 19 17  1  0
 12 13  1  0
 18 19  2  0
 21 22  1  0
 22 20  1  0
 23 21  2  0
 24 20  1  0
 25 20  2  0
 26 23  1  0
 27 26  1  0
 28 27  1  0
 29 21  1  0
 30 29  2  0
 31 26  2  0
 32 22  1  0
 33 28  2  0
 34 28  1  0
 35 33  1  0
 36 34  2  0
 37 36  1  0
 30 31  1  0
 35 37  2  0
  1 40  1  0
  1 41  1  0
  4 42  1  1
  5 43  1  0
 11 44  1  0
 12 45  1  0
 13 46  1  0
 14 47  1  0
 14 48  1  0
 14 49  1  0
 15 50  1  0
 16 51  1  0
 17 52  1  0
 18 53  1  0
 19 54  1  0
 22 55  1  1
 23 56  1  0
 29 57  1  0
 30 58  1  0
 31 59  1  0
 32 60  1  0
 32 61  1  0
 32 62  1  0
 33 63  1  0
 34 64  1  0
 35 65  1  0
 36 66  1  0
 37 67  1  0
 39 68  1  0
 39 69  1  0
M  CHG  3   6  -1  24  -1  38   2
M  END
> <Uni-Dock RESULT> 
ENERGY=   -5.101  LOWER_BOUND=    3.831  UPPER_BOUND=    6.497
INTER + INTRA:          -5.101
INTER:                  -5.101
INTRA:                   0.000
UNBOUND:                 0.000

$$$$

     RDKit          3D

 69 68  0  0  0  0  0  0  0  0999 V2000
   48.5315   13.0818   16.8776 O   0  0  0  0  0  0  0  0  0  0  0  0
   49.7429   14.4799   13.3896 C   0  0  0  0  0  0  0  0  0  0  0  0
   49.0459   14.7820   15.7979 C   0  0  0  0  0  0  0  0  0  0  0  0
   48.8366   15.2587   14.3693 C   0  0  1  0  0  0  0  0  0  0  0  0
   47.9701   14.2576   16.5290 C   0  0  0  0  0  0  0  0  0  0  0  0
   49.2622   13.3841   12.9748 O   0  0  0  0  0  0  0  0  0  0  0  0
   50.8462   15.0234   13.0897 O   0  0  0  0  0  0  0  0  0  0  0  0
   48.1593   13.8096   17.8374 C   0  0  0  0  0  0  0  0  0  0  0  0
   47.0647   13.3160   18.5099 O   0  0  0  0  0  0  0  0  0  0  0  0
   47.1682   12.0380   19.0140 C   0  0  0  0  0  0  0  0  0  0  0  0
   50.3039   14.8626   16.4170 C   0  0  0  0  0  0  0  0  0  0  0  0
   50.4833   14.4382   17.7355 C   0  0  0  0  0  0  0  0  0  0  0  0
   49.4080   13.9179   18.4522 C   0  0  0  0  0  0  0  0  0  0  0  0
   49.0203   16.7716   14.2598 C   0  0  0  0  0  0  0  0  0  0  0  0
   47.7678   10.9849   18.3177 C   0  0  0  0  0  0  0  0  0  0  0  0
   46.5762   11.8066   20.2566 C   0  0  0  0  0  0  0  0  0  0  0  0
   46.6135   10.5312   20.8216 C   0  0  0  0  0  0  0  0  0  0  0  0
   47.8046    9.7099   18.8848 C   0  0  0  0  0  0  0  0  0  0  0  0
   47.2311    9.4842   20.1368 C   0  0  0  0  0  0  0  0  0  0  0  0
   47.1278   12.4258   20.9056 C   0  0  0  0  0  0  0  0  0  0  0  0
   48.0640   12.0334   18.5876 C   0  0  0  0  0  0  0  0  0  0  0  0
   46.9837   11.6404   19.5826 C   0  0  1  0  0  0  0  0  0  0  0  0
   47.7103   12.4725   17.3040 C   0  0  0  0  0  0  0  0  0  0  0  0
   46.6009   13.5780   20.9038 O   0  0  0  0  0  0  0  0  0  0  0  0
   47.7301   11.8336   21.8484 O   0  0  0  0  0  0  0  0  0  0  0  0
   48.6987   12.8448   16.3918 C   0  0  0  0  0  0  0  0  0  0  0  0
   48.3050   13.2632   15.1421 O   0  0  0  0  0  0  0  0  0  0  0  0
   48.6042   14.5642   14.7989 C   0  0  0  0  0  0  0  0  0  0  0  0
   49.4264   11.9503   18.9188 C   0  0  0  0  0  0  0  0  0  0  0  0
   50.4127   12.2989   17.9930 C   0  0  0  0  0  0  0  0  0  0  0  0
   50.0503   12.7416   16.7227 C   0  0  0  0  0  0  0  0  0  0  0  0
   46.9653   10.1278   19.7966 C   0  0  0  0  0  0  0  0  0  0  0  0
   48.8806   14.7993   13.4507 C   0  0  0  0  0  0  0  0  0  0  0  0
   48.5807   15.6314   15.7012 C   0  0  0  0  0  0  0  0  0  0  0  0
   49.1639   16.0926   13.0088 C   0  0  0  0  0  0  0  0  0  0  0  0
   48.8650   16.9242   15.2576 C   0  0  0  0  0  0  0  0  0  0  0  0
   49.1593   17.1540   13.9137 C   0  0  0  0  0  0  0  0  0  0  0  0
   48.4334   13.3726   17.1307 Ca  0  0  0  0  0 15  0  0  0  0  0  0
   48.5205   13.0613   16.8989 O   0  0  0  0  0  0  0  0  0  0  0  0
   48.6436   14.0371   16.7610 H   0  0  0  0  0  0  0  0  0  0  0  0
   48.1252   12.9990   17.7533 H   0  0  0  0  0  0  0  0  0  0  0  0
   47.8012   15.0425   14.0709 H   0  0  0  0  0  0  0  0  0  0  0  0
   46.9890   14.1750   16.0695 H   0  0  0  0  0  0  0  0  0  0  0  0
   51.1551   15.2484   15.8562 H   0  0  0  0  0  0  0  0  0  0  0  0
   51.4656   14.5080   18.1923 H   0  0  0  0  0  0  0  0  0  0  0  0
   49.5479   13.5904   19.4768 H   0  0  0  0  0  0  0  0  0  0  0  0
   48.3120   17.2986   14.9087 H   0  0  0  0  0  0  0  0  0  0  0  0
   48.8483   17.1072   13.2310 H   0  0  0  0  0  0  0  0  0  0  0  0
   50.0281   17.0916   14.5452 H   0  0  0  0  0  0  0  0  0  0  0  0
   48.2026   11.1459   17.3331 H   0  0  0  0  0  0  0  0  0  0  0  0
   46.0917   12.6234   20.7835 H   0  0  0  0  0  0  0  0  0  0  0  0
   46.1587   10.3544   21.7918 H   0  0  0  0  0  0  0  0  0  0  0  0
   48.2772    8.8950   18.3426 H   0  0  0  0  0  0  0  0  0  0  0  0
   47.2601    8.4901   20.5742 H   0  0  0  0  0  0  0  0  0  0  0  0
   46.0033   11.9169   19.1701 H   0  0  0  0  0  0  0  0  0  0  0  0
   46.6638   12.5495   17.0233 H   0  0  0  0  0  0  0  0  0  0  0  0
   49.7182   11.6215   19.9163 H   0  0  0  0  0  0  0  0  0  0  0  0
   51.4593   12.2308   18.2730 H   0  0  0  0  0  0  0  0  0  0  0  0
   50.8147   13.0121   16.0017 H   0  0  0  0  0  0  0  0  0  0  0  0
   46.7610    9.6032   18.8570 H   0  0  0  0  0  0  0  0  0  0  0  0
   46.1862    9.8486   20.5132 H   0  0  0  0  0  0  0  0  0  0  0  0
   47.9183    9.7508   20.1824 H   0  0  0  0  0  0  0  0  0  0  0  0
   48.8763   13.9713   12.7478 H   0  0  0  0  0  0  0  0  0  0  0  0
   48.3344   15.4715   16.7486 H   0  0  0  0  0  0  0  0  0  0  0  0
   49.3837   16.2718   11.9607 H   0  0  0  0  0  0  0  0  0  0  0  0
   48.8492   17.7494   15.9650 H   0  0  0  0  0  0  0  0  0  0  0  0
   49.3766   18.1625   13.5721 H   0  0  0  0  0  0  0  0  0  0  0  0
   48.1166   13.0549   17.7796 H   0  0  0  0  0  0  0  0  0  0  0  0
   48.6632   14.0016   16.7135 H   0  0  0  0  0  0  0  0  0  0  0  0
  3  4  1  0
  4  2  1  0
  5  3  2  0
  6  2  1  0
  7  2  2  0
  8  5  1  0
  9  8  1  0
 10  9  1  0
 11  3  1  0
 12 11  2  0
 13  8  2  0
 14  4  1  0
 15 10  2  0
 16 10  1  0
 17 16  2  0
 18 15  1  0
 19 17  1  0
 12 13  1  0
 18 19  2  0
 21 22  1  0
 22 20  1  0
 23 21  2  0
 24 20  1  0
 25 20  2  0
 26 23  1  0
 27 26  1  0
 28 27  1  0
 29 21  1  0
 30 29  2  0
 31 26  2  0
 32 22  1  0
 33 28  2  0
 34 28  1  0
 35 33  1  0
 36 34  2  0
 37 36  1  0
 30 31  1  0
 35 37  2  0
  1 40  1  0
  1 41  1  0
  4 42  1  1
  5 43  1  0
 11 44  1  0
 12 45  1  0
 13 46  1  0
 14 47  1  0
 14 48  1  0
 14 49  1  0
 15 50  1  0
 16 51  1  0
 17 52  1  0
 18 53  1  0
 19 54  1  0
 22 55  1  1
 23 56  1  0
 29 57  1  0
 30 58  1  0
 31 59  1  0
 32 60  1  0
 32 61  1  0
 32 62  1  0
 33 63  1  0
 34 64  1  0
 35 65  1  0
 36 66  1  0
 37 67  1  0
 39 68  1  0
 39 69  1  0
M  CHG  3   6  -1  24  -1  38   2
M  END
> <Uni-Dock RESULT> 
ENERGY=   -5.061  LOWER_BOUND=    5.302  UPPER_BOUND=    8.517
INTER + INTRA:          -5.061
INTER:                  -5.061
INTRA:                   0.000
UNBOUND:                 0.000

$$$$

     RDKit          3D

 69 68  0  0  0  0  0  0  0  0999 V2000
   48.5771    7.7040   14.1075 O   0  0  0  0  0  0  0  0  0  0  0  0
   45.8970    6.1323   11.6712 C   0  0  0  0  0  0  0  0  0  0  0  0
   47.0083    8.0980   12.8018 C   0  0  0  0  0  0  0  0  0  0  0  0
   45.6801    7.4326   12.4772 C   0  0  1  0  0  0  0  0  0  0  0  0
   47.3767    8.3184   14.1369 C   0  0  0  0  0  0  0  0  0  0  0  0
   46.1141    5.1002   12.3724 O   0  0  0  0  0  0  0  0  0  0  0  0
   45.8123    6.2294   10.4119 O   0  0  0  0  0  0  0  0  0  0  0  0
   48.5992    8.9199   14.4402 C   0  0  0  0  0  0  0  0  0  0  0  0
   48.9018    9.1216   15.7675 O   0  0  0  0  0  0  0  0  0  0  0  0
   50.0803    8.5755   16.2271 C   0  0  0  0  0  0  0  0  0  0  0  0
   47.8845    8.5121   11.7854 C   0  0  0  0  0  0  0  0  0  0  0  0
   49.0948    9.1379   12.0922 C   0  0  0  0  0  0  0  0  0  0  0  0
   49.4514    9.3510   13.4219 C   0  0  0  0  0  0  0  0  0  0  0  0
   44.7327    8.4048   11.7760 C   0  0  0  0  0  0  0  0  0  0  0  0
   50.5302    7.3035   15.8622 C   0  0  0  0  0  0  0  0  0  0  0  0
   50.8014    9.3331   17.1515 C   0  0  0  0  0  0  0  0  0  0  0  0
   51.9911    8.8363   17.6855 C   0  0  0  0  0  0  0  0  0  0  0  0
   51.7208    6.8087   16.3971 C   0  0  0  0  0  0  0  0  0  0  0  0
   52.4521    7.5756   17.3049 C   0  0  0  0  0  0  0  0  0  0  0  0
   51.0676   10.1922   16.6039 C   0  0  0  0  0  0  0  0  0  0  0  0
   50.1712    8.2117   15.3086 C   0  0  0  0  0  0  0  0  0  0  0  0
   50.6293    8.7118   16.6694 C   0  0  1  0  0  0  0  0  0  0  0  0
   48.9028    7.6322   15.1640 C   0  0  0  0  0  0  0  0  0  0  0  0
   50.1250   11.0338   16.6960 O   0  0  0  0  0  0  0  0  0  0  0  0
   52.3099   10.4063   16.4892 O   0  0  0  0  0  0  0  0  0  0  0  0
   48.4745    7.1823   13.9143 C   0  0  0  0  0  0  0  0  0  0  0  0
   47.2250    6.6149   13.8213 O   0  0  0  0  0  0  0  0  0  0  0  0
   46.3042    7.2651   13.0280 C   0  0  0  0  0  0  0  0  0  0  0  0
   51.0034    8.2999   14.1807 C   0  0  0  0  0  0  0  0  0  0  0  0
   50.5802    7.8238   12.9374 C   0  0  0  0  0  0  0  0  0  0  0  0
   49.3148    7.2568   12.8027 C   0  0  0  0  0  0  0  0  0  0  0  0
   51.7136    7.8032   17.2463 C   0  0  0  0  0  0  0  0  0  0  0  0
   45.3811    6.4557   12.3631 C   0  0  0  0  0  0  0  0  0  0  0  0
   46.2188    8.6557   12.9158 C   0  0  0  0  0  0  0  0  0  0  0  0
   44.3935    7.0316   11.5622 C   0  0  0  0  0  0  0  0  0  0  0  0
   45.2309    9.2299   12.1139 C   0  0  0  0  0  0  0  0  0  0  0  0
   44.3213    8.4187   11.4355 C   0  0  0  0  0  0  0  0  0  0  0  0
   48.5208    8.0940   14.1620 Ca  0  0  0  0  0 15  0  0  0  0  0  0
   48.5994    7.7055   14.1296 O   0  0  0  0  0  0  0  0  0  0  0  0
   47.9459    8.2845   13.6564 H   0  0  0  0  0  0  0  0  0  0  0  0
   49.0393    8.2935   14.7221 H   0  0  0  0  0  0  0  0  0  0  0  0
   45.1925    7.1364   13.4166 H   0  0  0  0  0  0  0  0  0  0  0  0
   46.7212    7.9982   14.9421 H   0  0  0  0  0  0  0  0  0  0  0  0
   47.6229    8.3297   10.7431 H   0  0  0  0  0  0  0  0  0  0  0  0
   49.7571    9.4472   11.2896 H   0  0  0  0  0  0  0  0  0  0  0  0
   50.3906    9.8388   13.6591 H   0  0  0  0  0  0  0  0  0  0  0  0
   44.5374    9.2810   12.4043 H   0  0  0  0  0  0  0  0  0  0  0  0
   43.7722    7.9217   11.5642 H   0  0  0  0  0  0  0  0  0  0  0  0
   45.1351    8.7665   10.8237 H   0  0  0  0  0  0  0  0  0  0  0  0
   49.9588    6.6899   15.1685 H   0  0  0  0  0  0  0  0  0  0  0  0
   50.4358   10.3115   17.4489 H   0  0  0  0  0  0  0  0  0  0  0  0
   52.5547    9.4300   18.3991 H   0  0  0  0  0  0  0  0  0  0  0  0
   52.0702    5.8214   16.1060 H   0  0  0  0  0  0  0  0  0  0  0  0
   53.3774    7.1863   17.7205 H   0  0  0  0  0  0  0  0  0  0  0  0
   49.7793    8.6769   17.3652 H   0  0  0  0  0  0  0  0  0  0  0  0
   48.2380    7.5550   16.0194 H   0  0  0  0  0  0  0  0  0  0  0  0
   51.9883    8.7578   14.2735 H   0  0  0  0  0  0  0  0  0  0  0  0
   51.2391    7.9066   12.0787 H   0  0  0  0  0  0  0  0  0  0  0  0
   48.9842    6.8856   11.8382 H   0  0  0  0  0  0  0  0  0  0  0  0
   51.3394    6.7818   17.3743 H   0  0  0  0  0  0  0  0  0  0  0  0
   52.0406    8.1662   18.2259 H   0  0  0  0  0  0  0  0  0  0  0  0
   52.5978    7.7505   16.6024 H   0  0  0  0  0  0  0  0  0  0  0  0
   45.4362    5.3763   12.4698 H   0  0  0  0  0  0  0  0  0  0  0  0
   46.9087    9.3025   13.4535 H   0  0  0  0  0  0  0  0  0  0  0  0
   43.6802    6.3995   11.0420 H   0  0  0  0  0  0  0  0  0  0  0  0
   45.1723   10.3118   12.0274 H   0  0  0  0  0  0  0  0  0  0  0  0
   43.5516    8.8700   10.8151 H   0  0  0  0  0  0  0  0  0  0  0  0
   49.0179    8.3520   14.7176 H   0  0  0  0  0  0  0  0  0  0  0  0
   47.9450    8.2246   13.6387 H   0  0  0  0  0  0  0  0  0  0  0  0
  3  4  1  0
  4  2  1  0
  5  3  2  0
  6  2  1  0
  7  2  2  0
  8  5  1  0
  9  8  1  0
 10  9  1  0
 11  3  1  0
 12 11  2  0
 13  8  2  0
 14  4  1  0
 15 10  2  0
 16 10  1  0
 17 16  2  0
 18 15  1  0
 19 17  1  0
 12 13  1  0
 18 19  2  0
 21 22  1  0
 22 20  1  0
 23 21  2  0
 24 20  1  0
 25 20  2  0
 26 23  1  0
 27 26  1  0
 28 27  1  0
 29 21  1  0
 30 29  2  0
 31 26  2  0
 32 22  1  0
 33 28  2  0
 34 28  1  0
 35 33  1  0
 36 34  2  0
 37 36  1  0
 30 31  1  0
 35 37  2  0
  1 40  1  0
  1 41  1  0
  4 42  1  1
  5 43  1  0
 11 44  1  0
 12 45  1  0
 13 46  1  0
 14 47  1  0
 14 48  1  0
 14 49  1  0
 15 50  1  0
 16 51  1  0
 17 52  1  0
 18 53  1  0
 19 54  1  0
 22 55  1  1
 23 56  1  0
 29 57  1  0
 30 58  1  0
 31 59  1  0
 32 60  1  0
 32 61  1  0
 32 62  1  0
 33 63  1  0
 34 64  1  0
 35 65  1  0
 36 66  1  0
 37 67  1  0
 39 68  1  0
 39 69  1  0
M  CHG  3   6  -1  24  -1  38   2
M  END
> <Uni-Dock RESULT> 
ENERGY=   -5.025  LOWER_BOUND=    5.224  UPPER_BOUND=    6.629
INTER + INTRA:          -5.025
INTER:                  -5.025
INTRA:                   0.000
UNBOUND:                 0.000

$$$$
