
     RDKit          3D

 69 68  0  0  0  0  0  0  0  0999 V2000
   48.1379    8.5782   18.8465 O   0  0  0  0  0  0  0  0  0  0  0  0
   47.6256    5.3599   20.8642 C   0  0  0  0  0  0  0  0  0  0  0  0
   48.8280    6.6260   19.0450 C   0  0  0  0  0  0  0  0  0  0  0  0
   47.7175    5.6296   19.3438 C   0  0  1  0  0  0  0  0  0  0  0  0
   48.5288    7.8517   18.4327 C   0  0  0  0  0  0  0  0  0  0  0  0
   46.9936    6.2361   21.5255 O   0  0  0  0  0  0  0  0  0  0  0  0
   48.1710    4.2952   21.2802 O   0  0  0  0  0  0  0  0  0  0  0  0
   49.5442    8.7811   18.1889 C   0  0  0  0  0  0  0  0  0  0  0  0
   49.2818    9.9888   17.5887 O   0  0  0  0  0  0  0  0  0  0  0  0
   48.4951   10.8963   18.2687 C   0  0  0  0  0  0  0  0  0  0  0  0
   50.1650    6.3473   19.3763 C   0  0  0  0  0  0  0  0  0  0  0  0
   51.1799    7.2656   19.0982 C   0  0  0  0  0  0  0  0  0  0  0  0
   50.8709    8.4838   18.4962 C   0  0  0  0  0  0  0  0  0  0  0  0
   47.8823    4.3524   18.5215 C   0  0  0  0  0  0  0  0  0  0  0  0
   48.2337   10.8673   19.6418 C   0  0  0  0  0  0  0  0  0  0  0  0
   47.9709   11.9334   17.4902 C   0  0  0  0  0  0  0  0  0  0  0  0
   47.1749   12.9213   18.0724 C   0  0  0  0  0  0  0  0  0  0  0  0
   47.4341   11.8553   20.2230 C   0  0  0  0  0  0  0  0  0  0  0  0
   46.9053   12.8807   19.4396 C   0  0  0  0  0  0  0  0  0  0  0  0
   49.8248    4.5880   18.2460 C   0  0  0  0  0  0  0  0  0  0  0  0
   48.3017    6.6109   18.1560 C   0  0  0  0  0  0  0  0  0  0  0  0
   48.3834    5.1150   18.4131 C   0  0  1  0  0  0  0  0  0  0  0  0
   47.7844    7.4649   19.1409 C   0  0  0  0  0  0  0  0  0  0  0  0
   50.1498    4.1916   17.0873 O   0  0  0  0  0  0  0  0  0  0  0  0
   50.5183    4.5862   19.3076 O   0  0  0  0  0  0  0  0  0  0  0  0
   47.7020    8.8389   18.9096 C   0  0  0  0  0  0  0  0  0  0  0  0
   47.1728    9.6271   19.9038 O   0  0  0  0  0  0  0  0  0  0  0  0
   47.9580   10.6496   20.3850 C   0  0  0  0  0  0  0  0  0  0  0  0
   48.7124    7.1667   16.9330 C   0  0  0  0  0  0  0  0  0  0  0  0
   48.6036    8.5387   16.6956 C   0  0  0  0  0  0  0  0  0  0  0  0
   48.0882    9.3775   17.6814 C   0  0  0  0  0  0  0  0  0  0  0  0
   47.3949    4.3488   17.5358 C   0  0  0  0  0  0  0  0  0  0  0  0
   47.2794   11.7914   20.8177 C   0  0  0  0  0  0  0  0  0  0  0  0
   49.3474   10.5729   20.5083 C   0  0  0  0  0  0  0  0  0  0  0  0
   47.9881   12.8713   21.3471 C   0  0  0  0  0  0  0  0  0  0  0  0
   50.0561   11.6557   21.0378 C   0  0  0  0  0  0  0  0  0  0  0  0
   49.3776   12.8045   21.4544 C   0  0  0  0  0  0  0  0  0  0  0  0
   48.4635    8.4403   19.0290 Ca  0  0  0  0  0 15  0  0  0  0  0  0
   48.1204    8.4753   18.8309 O   0  0  0  0  0  0  0  0  0  0  0  0
   48.8387    9.0865   19.2816 H   0  0  0  0  0  0  0  0  0  0  0  0
   48.4140    7.6563   18.9589 H   0  0  0  0  0  0  0  0  0  0  0  0
   46.7553    6.0717   19.0515 H   0  0  0  0  0  0  0  0  0  0  0  0
   47.5019    8.0895   18.1714 H   0  0  0  0  0  0  0  0  0  0  0  0
   50.4110    5.4073   19.8718 H   0  0  0  0  0  0  0  0  0  0  0  0
   52.2068    7.0278   19.3623 H   0  0  0  0  0  0  0  0  0  0  0  0
   51.6558    9.2025   18.2851 H   0  0  0  0  0  0  0  0  0  0  0  0
   47.8492    4.5732   17.4489 H   0  0  0  0  0  0  0  0  0  0  0  0
   47.0791    3.6408   18.7437 H   0  0  0  0  0  0  0  0  0  0  0  0
   48.8330    3.8471   18.7224 H   0  0  0  0  0  0  0  0  0  0  0  0
   48.6312   10.0789   20.2772 H   0  0  0  0  0  0  0  0  0  0  0  0
   48.1795   11.9646   16.4242 H   0  0  0  0  0  0  0  0  0  0  0  0
   46.7637   13.7184   17.4597 H   0  0  0  0  0  0  0  0  0  0  0  0
   47.2212   11.8138   21.2883 H   0  0  0  0  0  0  0  0  0  0  0  0
   46.2797   13.6428   19.8952 H   0  0  0  0  0  0  0  0  0  0  0  0
   48.0998    4.9189   19.4565 H   0  0  0  0  0  0  0  0  0  0  0  0
   47.4622    7.0606   20.0969 H   0  0  0  0  0  0  0  0  0  0  0  0
   49.1294    6.5199   16.1600 H   0  0  0  0  0  0  0  0  0  0  0  0
   48.9254    8.9449   15.7410 H   0  0  0  0  0  0  0  0  0  0  0  0
   47.9973   10.4423   17.4933 H   0  0  0  0  0  0  0  0  0  0  0  0
   47.5843    4.4974   16.4667 H   0  0  0  0  0  0  0  0  0  0  0  0
   47.4558    3.2729   17.7349 H   0  0  0  0  0  0  0  0  0  0  0  0
   46.3668    4.6702   17.7362 H   0  0  0  0  0  0  0  0  0  0  0  0
   46.1965   11.8381   20.7393 H   0  0  0  0  0  0  0  0  0  0  0  0
   49.8883    9.6778   20.2026 H   0  0  0  0  0  0  0  0  0  0  0  0
   47.4559   13.7586   21.6795 H   0  0  0  0  0  0  0  0  0  0  0  0
   51.1386   11.5956   21.1248 H   0  0  0  0  0  0  0  0  0  0  0  0
   49.9315   13.6442   21.8691 H   0  0  0  0  0  0  0  0  0  0  0  0
   48.6758    9.1822   19.1917 H   0  0  0  0  0  0  0  0  0  0  0  0
   48.5944    7.6633   19.0644 H   0  0  0  0  0  0  0  0  0  0  0  0
  3  4  1  0
  4  2  1  0
  5  3  2  0
  6  2  1  0
  7  2  2  0
  8  5  1  0
  9  8  1  0
 10  9  1  0
 11  3  1  0
 12 11  2  0
 13  8  2  0
 14  4  1  0
 15 10  2  0
 16 10  1  0
 17 16  2  0
 18 15  1  0
 19 17  1  0
 12 13  1  0
 18 19  2  0
 21 22  1  0
 22 20  1  0
 23 21  2  0
 24 20  1  0
 25 20  2  0
 26 23  1  0
 27 26  1  0
 28 27  1  0
 29 21  1  0
 30 29  2  0
 31 26  2  0
 32 22  1  0
 33 28  2  0
 34 28  1  0
 35 33  1  0
 36 34  2  0
 37 36  1  0
 30 31  1  0
 35 37  2  0
  1 40  1  0
  1 41  1  0
  4 42  1  1
  5 43  1  0
 11 44  1  0
 12 45  1  0
 13 46  1  0
 14 47  1  0
 14 48  1  0
 14 49  1  0
 15 50  1  0
 16 51  1  0
 17 52  1  0
 18 53  1  0
 19 54  1  0
 22 55  1  1
 23 56  1  0
 29 57  1  0
 30 58  1  0
 31 59  1  0
 32 60  1  0
 32 61  1  0
 32 62  1  0
 33 63  1  0
 34 64  1  0
 35 65  1  0
 36 66  1  0
 37 67  1  0
 39 68  1  0
 39 69  1  0
M  CHG  3   6  -1  24  -1  38   2
M  END
> <Uni-Dock RESULT> 
ENERGY=   -5.213  LOWER_BOUND=    0.000  UPPER_BOUND=    0.000
INTER + INTRA:          -5.213
INTER:                  -5.213
INTRA:                   0.000
UNBOUND:                 0.000

$$$$

     RDKit          3D

 69 68  0  0  0  0  0  0  0  0999 V2000
   48.2981   13.9056   17.2401 O   0  0  0  0  0  0  0  0  0  0  0  0
   46.0282   14.9345   14.3281 C   0  0  0  0  0  0  0  0  0  0  0  0
   48.3141   14.3294   15.2037 C   0  0  0  0  0  0  0  0  0  0  0  0
   47.3881   15.4767   14.8273 C   0  0  1  0  0  0  0  0  0  0  0  0
   48.7873   14.2083   16.5184 C   0  0  0  0  0  0  0  0  0  0  0  0
   45.2167   14.6027   15.2424 O   0  0  0  0  0  0  0  0  0  0  0  0
   45.8649   14.8960   13.0728 O   0  0  0  0  0  0  0  0  0  0  0  0
   49.6106   13.1354   16.8722 C   0  0  0  0  0  0  0  0  0  0  0  0
   50.0912   12.9918   18.1513 O   0  0  0  0  0  0  0  0  0  0  0  0
   49.1856   12.7434   19.1627 C   0  0  0  0  0  0  0  0  0  0  0  0
   48.7091   13.3711   14.2548 C   0  0  0  0  0  0  0  0  0  0  0  0
   49.5602   12.3210   14.6065 C   0  0  0  0  0  0  0  0  0  0  0  0
   50.0189   12.2056   15.9173 C   0  0  0  0  0  0  0  0  0  0  0  0
   48.0545   16.4225   13.8292 C   0  0  0  0  0  0  0  0  0  0  0  0
   47.8833   12.2685   18.9806 C   0  0  0  0  0  0  0  0  0  0  0  0
   49.6644   12.9591   20.4591 C   0  0  0  0  0  0  0  0  0  0  0  0
   48.8441   12.7237   21.5637 C   0  0  0  0  0  0  0  0  0  0  0  0
   47.0620   12.0360   20.0872 C   0  0  0  0  0  0  0  0  0  0  0  0
   47.5415   12.2634   21.3769 C   0  0  0  0  0  0  0  0  0  0  0  0
   49.3275   15.0712   13.1524 C   0  0  0  0  0  0  0  0  0  0  0  0
   48.7894   15.1431   15.6273 C   0  0  0  0  0  0  0  0  0  0  0  0
   48.4784   15.7305   14.2603 C   0  0  1  0  0  0  0  0  0  0  0  0
   47.7621   14.5834   16.4008 C   0  0  0  0  0  0  0  0  0  0  0  0
   50.4429   15.6155   12.8972 O   0  0  0  0  0  0  0  0  0  0  0  0
   48.7922   14.0641   12.5984 O   0  0  0  0  0  0  0  0  0  0  0  0
   48.0399   14.0467   17.6589 C   0  0  0  0  0  0  0  0  0  0  0  0
   46.9924   13.5246   18.3801 O   0  0  0  0  0  0  0  0  0  0  0  0
   47.0897   12.2098   18.7744 C   0  0  0  0  0  0  0  0  0  0  0  0
   50.0909   15.1679   16.1556 C   0  0  0  0  0  0  0  0  0  0  0  0
   50.3598   14.6538   17.4260 C   0  0  0  0  0  0  0  0  0  0  0  0
   49.3313   14.1001   18.1854 C   0  0  0  0  0  0  0  0  0  0  0  0
   48.6333   17.2504   14.2639 C   0  0  0  0  0  0  0  0  0  0  0  0
   46.4716   11.8860   19.9847 C   0  0  0  0  0  0  0  0  0  0  0  0
   47.7067   11.2125   18.0154 C   0  0  0  0  0  0  0  0  0  0  0  0
   46.4932   10.5717   20.4547 C   0  0  0  0  0  0  0  0  0  0  0  0
   47.7286    9.8968   18.4880 C   0  0  0  0  0  0  0  0  0  0  0  0
   47.1247    9.5771   19.7074 C   0  0  0  0  0  0  0  0  0  0  0  0
   48.3018   13.6583   16.9284 Ca  0  0  0  0  0 15  0  0  0  0  0  0
   48.2928   13.9786   17.1641 O   0  0  0  0  0  0  0  0  0  0  0  0
   48.3434   12.9378   17.2465 H   0  0  0  0  0  0  0  0  0  0  0  0
   48.2638   14.1316   16.2985 H   0  0  0  0  0  0  0  0  0  0  0  0
   47.1715   16.0684   15.7271 H   0  0  0  0  0  0  0  0  0  0  0  0
   48.4918   14.9355   17.2688 H   0  0  0  0  0  0  0  0  0  0  0  0
   48.3329   13.4396   13.2333 H   0  0  0  0  0  0  0  0  0  0  0  0
   49.8533   11.5924   13.8554 H   0  0  0  0  0  0  0  0  0  0  0  0
   50.6745   11.3872   16.1957 H   0  0  0  0  0  0  0  0  0  0  0  0
   48.9654   16.8581   14.2545 H   0  0  0  0  0  0  0  0  0  0  0  0
   47.3806   17.2446   13.5634 H   0  0  0  0  0  0  0  0  0  0  0  0
   48.3368   15.9164   12.8999 H   0  0  0  0  0  0  0  0  0  0  0  0
   47.4820   12.0838   17.9866 H   0  0  0  0  0  0  0  0  0  0  0  0
   50.6792   13.3193   20.6052 H   0  0  0  0  0  0  0  0  0  0  0  0
   49.2199   12.9024   22.5671 H   0  0  0  0  0  0  0  0  0  0  0  0
   46.0447   11.6845   19.9347 H   0  0  0  0  0  0  0  0  0  0  0  0
   46.8972   12.0868   22.2333 H   0  0  0  0  0  0  0  0  0  0  0  0
   47.4285   15.5191   14.0145 H   0  0  0  0  0  0  0  0  0  0  0  0
   46.7470   14.5492   16.0141 H   0  0  0  0  0  0  0  0  0  0  0  0
   50.9051   15.5874   15.5632 H   0  0  0  0  0  0  0  0  0  0  0  0
   51.3737   14.6865   17.8141 H   0  0  0  0  0  0  0  0  0  0  0  0
   49.5399   13.7074   19.1752 H   0  0  0  0  0  0  0  0  0  0  0  0
   49.6513   17.5651   14.5198 H   0  0  0  0  0  0  0  0  0  0  0  0
   48.3986   17.6644   13.2766 H   0  0  0  0  0  0  0  0  0  0  0  0
   47.9538   17.7089   14.9909 H   0  0  0  0  0  0  0  0  0  0  0  0
   45.9746   12.6613   20.5615 H   0  0  0  0  0  0  0  0  0  0  0  0
   48.1677   11.4437   17.0555 H   0  0  0  0  0  0  0  0  0  0  0  0
   46.0136   10.3254   21.3983 H   0  0  0  0  0  0  0  0  0  0  0  0
   48.2169    9.1244   17.8981 H   0  0  0  0  0  0  0  0  0  0  0  0
   47.1405    8.5517   20.0710 H   0  0  0  0  0  0  0  0  0  0  0  0
   48.3428   13.0470   17.4249 H   0  0  0  0  0  0  0  0  0  0  0  0
   48.2697   13.9495   16.1960 H   0  0  0  0  0  0  0  0  0  0  0  0
  3  4  1  0
  4  2  1  0
  5  3  2  0
  6  2  1  0
  7  2  2  0
  8  5  1  0
  9  8  1  0
 10  9  1  0
 11  3  1  0
 12 11  2  0
 13  8  2  0
 14  4  1  0
 15 10  2  0
 16 10  1  0
 17 16  2  0
 18 15  1  0
 19 17  1  0
 12 13  1  0
 18 19  2  0
 21 22  1  0
 22 20  1  0
 23 21  2  0
 24 20  1  0
 25 20  2  0
 26 23  1  0
 27 26  1  0
 28 27  1  0
 29 21  1  0
 30 29  2  0
 31 26  2  0
 32 22  1  0
 33 28  2  0
 34 28  1  0
 35 33  1  0
 36 34  2  0
 37 36  1  0
 30 31  1  0
 35 37  2  0
  1 40  1  0
  1 41  1  0
  4 42  1  1
  5 43  1  0
 11 44  1  0
 12 45  1  0
 13 46  1  0
 14 47  1  0
 14 48  1  0
 14 49  1  0
 15 50  1  0
 16 51  1  0
 17 52  1  0
 18 53  1  0
 19 54  1  0
 22 55  1  1
 23 56  1  0
 29 57  1  0
 30 58  1  0
 31 59  1  0
 32 60  1  0
 32 61  1  0
 32 62  1  0
 33 63  1  0
 34 64  1  0
 35 65  1  0
 36 66  1  0
 37 67  1  0
 39 68  1  0
 39 69  1  0
M  CHG  3   6  -1  24  -1  38   2
M  END
> <Uni-Dock RESULT> 
ENERGY=   -4.904  LOWER_BOUND=    4.201  UPPER_BOUND=    7.606
INTER + INTRA:          -4.904
INTER:                  -4.904
INTRA:                   0.000
UNBOUND:                 0.000

$$$$

     RDKit          3D

 69 68  0  0  0  0  0  0  0  0999 V2000
   49.0108    8.6458   12.2359 O   0  0  0  0  0  0  0  0  0  0  0  0
   52.4779    7.6724   10.9233 C   0  0  0  0  0  0  0  0  0  0  0  0
   51.0429    8.8481   12.6312 C   0  0  0  0  0  0  0  0  0  0  0  0
   51.8792    9.0261   11.3726 C   0  0  1  0  0  0  0  0  0  0  0  0
   49.6754    9.1593   12.6182 C   0  0  0  0  0  0  0  0  0  0  0  0
   51.6870    6.9280   10.2715 O   0  0  0  0  0  0  0  0  0  0  0  0
   53.6867    7.4608   11.2363 O   0  0  0  0  0  0  0  0  0  0  0  0
   48.9000    8.9638   13.7649 C   0  0  0  0  0  0  0  0  0  0  0  0
   47.5589    9.2617   13.7828 O   0  0  0  0  0  0  0  0  0  0  0  0
   46.7164    8.5190   12.9807 C   0  0  0  0  0  0  0  0  0  0  0  0
   51.6131    8.3680   13.8225 C   0  0  0  0  0  0  0  0  0  0  0  0
   50.8401    8.2080   14.9748 C   0  0  0  0  0  0  0  0  0  0  0  0
   49.4807    8.5132   14.9492 C   0  0  0  0  0  0  0  0  0  0  0  0
   52.9375   10.1124   11.5590 C   0  0  0  0  0  0  0  0  0  0  0  0
   47.0214    7.2718   12.4274 C   0  0  0  0  0  0  0  0  0  0  0  0
   45.4527    9.0778   12.7633 C   0  0  0  0  0  0  0  0  0  0  0  0
   44.5087    8.4083   11.9829 C   0  0  0  0  0  0  0  0  0  0  0  0
   46.0765    6.6039   11.6437 C   0  0  0  0  0  0  0  0  0  0  0  0
   44.8221    7.1712   11.4215 C   0  0  0  0  0  0  0  0  0  0  0  0
   52.9754    9.9636   13.5290 C   0  0  0  0  0  0  0  0  0  0  0  0
   50.7604    9.7890   12.3112 C   0  0  0  0  0  0  0  0  0  0  0  0
   52.2666    9.9246   12.1582 C   0  0  1  0  0  0  0  0  0  0  0  0
   50.0859    8.7231   11.6981 C   0  0  0  0  0  0  0  0  0  0  0  0
   53.1386   11.1082   14.0474 O   0  0  0  0  0  0  0  0  0  0  0  0
   53.3428    8.8337   13.9718 O   0  0  0  0  0  0  0  0  0  0  0  0
   48.7023    8.5953   11.8305 C   0  0  0  0  0  0  0  0  0  0  0  0
   48.0910    7.5401   11.1961 O   0  0  0  0  0  0  0  0  0  0  0  0
   47.3573    6.6740   11.9740 C   0  0  0  0  0  0  0  0  0  0  0  0
   50.0113   10.7284   13.0391 C   0  0  0  0  0  0  0  0  0  0  0  0
   48.6237   10.6116   13.1470 C   0  0  0  0  0  0  0  0  0  0  0  0
   47.9643    9.5486   12.5337 C   0  0  0  0  0  0  0  0  0  0  0  0
   52.6278   11.1351   11.2990 C   0  0  0  0  0  0  0  0  0  0  0  0
   46.2507    6.0847   11.3578 C   0  0  0  0  0  0  0  0  0  0  0  0
   47.6942    6.3285   13.2850 C   0  0  0  0  0  0  0  0  0  0  0  0
   45.4605    5.1715   12.0580 C   0  0  0  0  0  0  0  0  0  0  0  0
   46.9011    5.4146   13.9855 C   0  0  0  0  0  0  0  0  0  0  0  0
   45.7841    4.8386   13.3737 C   0  0  0  0  0  0  0  0  0  0  0  0
   49.2405    8.4507   12.4958 Ca  0  0  0  0  0 15  0  0  0  0  0  0
   49.1027    8.6908   12.2101 O   0  0  0  0  0  0  0  0  0  0  0  0
   48.7443    7.9739   12.8812 H   0  0  0  0  0  0  0  0  0  0  0  0
   49.9664    8.7326   12.3702 H   0  0  0  0  0  0  0  0  0  0  0  0
   51.2250    9.3591   10.5553 H   0  0  0  0  0  0  0  0  0  0  0  0
   49.2132    9.5282   11.7075 H   0  0  0  0  0  0  0  0  0  0  0  0
   52.6706    8.1018   13.8429 H   0  0  0  0  0  0  0  0  0  0  0  0
   51.3031    7.8364   15.8849 H   0  0  0  0  0  0  0  0  0  0  0  0
   48.8757    8.3835   15.8405 H   0  0  0  0  0  0  0  0  0  0  0  0
   52.4694   11.0769   11.7845 H   0  0  0  0  0  0  0  0  0  0  0  0
   53.5351   10.2331   10.6485 H   0  0  0  0  0  0  0  0  0  0  0  0
   53.6288    9.8848   12.3773 H   0  0  0  0  0  0  0  0  0  0  0  0
   47.9921    6.8060   12.5824 H   0  0  0  0  0  0  0  0  0  0  0  0
   45.2085   10.0427   13.1993 H   0  0  0  0  0  0  0  0  0  0  0  0
   43.5327    8.8527   11.8108 H   0  0  0  0  0  0  0  0  0  0  0  0
   46.3297    5.6432   11.2024 H   0  0  0  0  0  0  0  0  0  0  0  0
   44.0934    6.6507   10.8068 H   0  0  0  0  0  0  0  0  0  0  0  0
   52.6507    9.0380   11.6348 H   0  0  0  0  0  0  0  0  0  0  0  0
   50.6423    7.9811   11.1316 H   0  0  0  0  0  0  0  0  0  0  0  0
   50.5200   11.5568   13.5338 H   0  0  0  0  0  0  0  0  0  0  0  0
   48.0657   11.3519   13.7130 H   0  0  0  0  0  0  0  0  0  0  0  0
   46.8855    9.4627   12.6121 H   0  0  0  0  0  0  0  0  0  0  0  0
   52.2673   12.0755   11.7310 H   0  0  0  0  0  0  0  0  0  0  0  0
   53.7149   11.2187   11.1879 H   0  0  0  0  0  0  0  0  0  0  0  0
   52.1934   11.0446   10.2972 H   0  0  0  0  0  0  0  0  0  0  0  0
   46.0048    6.3407   10.3307 H   0  0  0  0  0  0  0  0  0  0  0  0
   48.5710    6.7572   13.7695 H   0  0  0  0  0  0  0  0  0  0  0  0
   44.5988    4.7182   11.5753 H   0  0  0  0  0  0  0  0  0  0  0  0
   47.1618    5.1540   15.0088 H   0  0  0  0  0  0  0  0  0  0  0  0
   45.1708    4.1252   13.9202 H   0  0  0  0  0  0  0  0  0  0  0  0
   48.6041    8.0631   12.7540 H   0  0  0  0  0  0  0  0  0  0  0  0
   50.0148    8.5984   12.5231 H   0  0  0  0  0  0  0  0  0  0  0  0
  3  4  1  0
  4  2  1  0
  5  3  2  0
  6  2  1  0
  7  2  2  0
  8  5  1  0
  9  8  1  0
 10  9  1  0
 11  3  1  0
 12 11  2  0
 13  8  2  0
 14  4  1  0
 15 10  2  0
 16 10  1  0
 17 16  2  0
 18 15  1  0
 19 17  1  0
 12 13  1  0
 18 19  2  0
 21 22  1  0
 22 20  1  0
 23 21  2  0
 24 20  1  0
 25 20  2  0
 26 23  1  0
 27 26  1  0
 28 27  1  0
 29 21  1  0
 30 29  2  0
 31 26  2  0
 32 22  1  0
 33 28  2  0
 34 28  1  0
 35 33  1  0
 36 34  2  0
 37 36  1  0
 30 31  1  0
 35 37  2  0
  1 40  1  0
  1 41  1  0
  4 42  1  1
  5 43  1  0
 11 44  1  0
 12 45  1  0
 13 46  1  0
 14 47  1  0
 14 48  1  0
 14 49  1  0
 15 50  1  0
 16 51  1  0
 17 52  1  0
 18 53  1  0
 19 54  1  0
 22 55  1  1
 23 56  1  0
 29 57  1  0
 30 58  1  0
 31 59  1  0
 32 60  1  0
 32 61  1  0
 32 62  1  0
 33 63  1  0
 34 64  1  0
 35 65  1  0
 36 66  1  0
 37 67  1  0
 39 68  1  0
 39 69  1  0
M  CHG  3   6  -1  24  -1  38   2
M  END
> <Uni-Dock RESULT> 
ENERGY=   -4.873  LOWER_BOUND=    5.578  UPPER_BOUND=    8.350
INTER + INTRA:          -4.873
INTER:                  -4.873
INTRA:                   0.000
UNBOUND:                 0.000

$$$$

     RDKit          3D

 69 68  0  0  0  0  0  0  0  0999 V2000
   48.7825    9.5924   19.9706 O   0  0  0  0  0  0  0  0  0  0  0  0
   50.6790   12.8943   20.4083 C   0  0  0  0  0  0  0  0  0  0  0  0
   48.6937   11.6204   19.5170 C   0  0  0  0  0  0  0  0  0  0  0  0
   50.0517   12.2126   19.1696 C   0  0  1  0  0  0  0  0  0  0  0  0
   48.4737   10.2410   19.3913 C   0  0  0  0  0  0  0  0  0  0  0  0
   51.2495   12.1071   21.2203 O   0  0  0  0  0  0  0  0  0  0  0  0
   50.5720   14.1547   20.4707 O   0  0  0  0  0  0  0  0  0  0  0  0
   47.2367    9.6925   19.7427 C   0  0  0  0  0  0  0  0  0  0  0  0
   46.9912    8.3456   19.6281 O   0  0  0  0  0  0  0  0  0  0  0  0
   47.7017    7.4833   20.4382 C   0  0  0  0  0  0  0  0  0  0  0  0
   47.6404   12.4318   19.9721 C   0  0  0  0  0  0  0  0  0  0  0  0
   46.3959   11.8822   20.2882 C   0  0  0  0  0  0  0  0  0  0  0  0
   46.1899   10.5093   20.1668 C   0  0  0  0  0  0  0  0  0  0  0  0
   49.9581   13.1433   17.9613 C   0  0  0  0  0  0  0  0  0  0  0  0
   48.3789    7.8474   21.6059 C   0  0  0  0  0  0  0  0  0  0  0  0
   47.6824    6.1414   20.0441 C   0  0  0  0  0  0  0  0  0  0  0  0
   48.3510    5.1741   20.7964 C   0  0  0  0  0  0  0  0  0  0  0  0
   49.0504    6.8785   22.3566 C   0  0  0  0  0  0  0  0  0  0  0  0
   49.0366    5.5438   21.9525 C   0  0  0  0  0  0  0  0  0  0  0  0
   48.0324   13.5188   18.1964 C   0  0  0  0  0  0  0  0  0  0  0  0
   48.9015   11.1747   18.6083 C   0  0  0  0  0  0  0  0  0  0  0  0
   49.2763   12.6073   18.2653 C   0  0  1  0  0  0  0  0  0  0  0  0
   49.4738   10.5478   19.7248 C   0  0  0  0  0  0  0  0  0  0  0  0
   47.4690   13.6200   17.0660 O   0  0  0  0  0  0  0  0  0  0  0  0
   47.7295   14.0910   19.2866 O   0  0  0  0  0  0  0  0  0  0  0  0
   49.1377    9.2309   20.0427 C   0  0  0  0  0  0  0  0  0  0  0  0
   49.7399    8.6610   21.1392 O   0  0  0  0  0  0  0  0  0  0  0  0
   48.9184    8.1771   22.1314 C   0  0  0  0  0  0  0  0  0  0  0  0
   48.0044   10.4425   17.8130 C   0  0  0  0  0  0  0  0  0  0  0  0
   47.6911    9.1164   18.1194 C   0  0  0  0  0  0  0  0  0  0  0  0
   48.2657    8.5039   19.2310 C   0  0  0  0  0  0  0  0  0  0  0  0
   50.0970   12.6705   16.9782 C   0  0  0  0  0  0  0  0  0  0  0  0
   49.3944    7.0673   22.8337 C   0  0  0  0  0  0  0  0  0  0  0  0
   47.7019    8.7627   22.4901 C   0  0  0  0  0  0  0  0  0  0  0  0
   48.6439    6.5213   23.8765 C   0  0  0  0  0  0  0  0  0  0  0  0
   46.9507    8.2140   23.5339 C   0  0  0  0  0  0  0  0  0  0  0  0
   47.4198    7.0931   24.2247 C   0  0  0  0  0  0  0  0  0  0  0  0
   48.5751    9.8837   20.1452 Ca  0  0  0  0  0 15  0  0  0  0  0  0
   48.8190    9.6725   19.9126 O   0  0  0  0  0  0  0  0  0  0  0  0
   48.1508    9.5200   20.7017 H   0  0  0  0  0  0  0  0  0  0  0  0
   48.7921   10.5387   19.7631 H   0  0  0  0  0  0  0  0  0  0  0  0
   50.7333   11.3980   18.8889 H   0  0  0  0  0  0  0  0  0  0  0  0
   49.2748    9.5948   19.0451 H   0  0  0  0  0  0  0  0  0  0  0  0
   47.8021   13.5034   20.0950 H   0  0  0  0  0  0  0  0  0  0  0  0
   45.5957   12.5294   20.6369 H   0  0  0  0  0  0  0  0  0  0  0  0
   45.2266   10.0780   20.4182 H   0  0  0  0  0  0  0  0  0  0  0  0
   49.5978   12.6015   17.0799 H   0  0  0  0  0  0  0  0  0  0  0  0
   50.9398   13.5654   17.7190 H   0  0  0  0  0  0  0  0  0  0  0  0
   49.2740   13.9812   18.1327 H   0  0  0  0  0  0  0  0  0  0  0  0
   48.4081    8.8808   21.9444 H   0  0  0  0  0  0  0  0  0  0  0  0
   47.1494    5.8529   19.1421 H   0  0  0  0  0  0  0  0  0  0  0  0
   48.3393    4.1354   20.4789 H   0  0  0  0  0  0  0  0  0  0  0  0
   49.5897    7.1744   23.2529 H   0  0  0  0  0  0  0  0  0  0  0  0
   49.5650    4.7957   22.5363 H   0  0  0  0  0  0  0  0  0  0  0  0
   49.9118   13.0088   19.0669 H   0  0  0  0  0  0  0  0  0  0  0  0
   50.1685   11.0929   20.3582 H   0  0  0  0  0  0  0  0  0  0  0  0
   47.5394   10.9176   16.9482 H   0  0  0  0  0  0  0  0  0  0  0  0
   46.9967    8.5699   17.4879 H   0  0  0  0  0  0  0  0  0  0  0  0
   48.0272    7.4713   19.4641 H   0  0  0  0  0  0  0  0  0  0  0  0
   49.5516   12.2706   16.1160 H   0  0  0  0  0  0  0  0  0  0  0  0
   50.3691   13.7061   16.7447 H   0  0  0  0  0  0  0  0  0  0  0  0
   51.0232   12.0940   17.0788 H   0  0  0  0  0  0  0  0  0  0  0  0
   50.3513    6.6280   22.5649 H   0  0  0  0  0  0  0  0  0  0  0  0
   47.3310    9.6462   21.9712 H   0  0  0  0  0  0  0  0  0  0  0  0
   49.0170    5.6560   24.4179 H   0  0  0  0  0  0  0  0  0  0  0  0
   46.0001    8.6678   23.8052 H   0  0  0  0  0  0  0  0  0  0  0  0
   46.8346    6.6704   25.0388 H   0  0  0  0  0  0  0  0  0  0  0  0
   48.2483    9.3510   20.6262 H   0  0  0  0  0  0  0  0  0  0  0  0
   48.6580   10.6276   19.8967 H   0  0  0  0  0  0  0  0  0  0  0  0
  3  4  1  0
  4  2  1  0
  5  3  2  0
  6  2  1  0
  7  2  2  0
  8  5  1  0
  9  8  1  0
 10  9  1  0
 11  3  1  0
 12 11  2  0
 13  8  2  0
 14  4  1  0
 15 10  2  0
 16 10  1  0
 17 16  2  0
 18 15  1  0
 19 17  1  0
 12 13  1  0
 18 19  2  0
 21 22  1  0
 22 20  1  0
 23 21  2  0
 24 20  1  0
 25 20  2  0
 26 23  1  0
 27 26  1  0
 28 27  1  0
 29 21  1  0
 30 29  2  0
 31 26  2  0
 32 22  1  0
 33 28  2  0
 34 28  1  0
 35 33  1  0
 36 34  2  0
 37 36  1  0
 30 31  1  0
 35 37  2  0
  1 40  1  0
  1 41  1  0
  4 42  1  1
  5 43  1  0
 11 44  1  0
 12 45  1  0
 13 46  1  0
 14 47  1  0
 14 48  1  0
 14 49  1  0
 15 50  1  0
 16 51  1  0
 17 52  1  0
 18 53  1  0
 19 54  1  0
 22 55  1  1
 23 56  1  0
 29 57  1  0
 30 58  1  0
 31 59  1  0
 32 60  1  0
 32 61  1  0
 32 62  1  0
 33 63  1  0
 34 64  1  0
 35 65  1  0
 36 66  1  0
 37 67  1  0
 39 68  1  0
 39 69  1  0
M  CHG  3   6  -1  24  -1  38   2
M  END
> <Uni-Dock RESULT> 
ENERGY=   -4.816  LOWER_BOUND=    2.403  UPPER_BOUND=    6.023
INTER + INTRA:          -4.816
INTER:                  -4.816
INTRA:                   0.000
UNBOUND:                 0.000

$$$$

     RDKit          3D

 69 68  0  0  0  0  0  0  0  0999 V2000
   48.3118    9.4123   18.0707 O   0  0  0  0  0  0  0  0  0  0  0  0
   49.5948   12.2820   15.8776 C   0  0  0  0  0  0  0  0  0  0  0  0
   48.9241   11.3989   18.1422 C   0  0  0  0  0  0  0  0  0  0  0  0
   48.4687   12.2059   16.9353 C   0  0  1  0  0  0  0  0  0  0  0  0
   48.2454   10.2255   18.5020 C   0  0  0  0  0  0  0  0  0  0  0  0
   49.6997   11.2619   15.1340 O   0  0  0  0  0  0  0  0  0  0  0  0
   50.2742   13.3506   15.8557 O   0  0  0  0  0  0  0  0  0  0  0  0
   48.6844    9.4661   19.5904 C   0  0  0  0  0  0  0  0  0  0  0  0
   48.0385    8.3137   19.9678 O   0  0  0  0  0  0  0  0  0  0  0  0
   48.0602    7.2412   19.0994 C   0  0  0  0  0  0  0  0  0  0  0  0
   50.0269   11.8026   18.9142 C   0  0  0  0  0  0  0  0  0  0  0  0
   50.4391   11.0580   20.0216 C   0  0  0  0  0  0  0  0  0  0  0  0
   49.7623    9.8897   20.3661 C   0  0  0  0  0  0  0  0  0  0  0  0
   47.9493   13.5812   17.3518 C   0  0  0  0  0  0  0  0  0  0  0  0
   48.9623    7.0760   18.0440 C   0  0  0  0  0  0  0  0  0  0  0  0
   47.1129    6.2449   19.3572 C   0  0  0  0  0  0  0  0  0  0  0  0
   47.0519    5.1035   18.5560 C   0  0  0  0  0  0  0  0  0  0  0  0
   48.8982    5.9342   17.2408 C   0  0  0  0  0  0  0  0  0  0  0  0
   47.9443    4.9494   17.4961 C   0  0  0  0  0  0  0  0  0  0  0  0
   48.9559   13.6254   19.0516 C   0  0  0  0  0  0  0  0  0  0  0  0
   47.9024   11.4518   18.2865 C   0  0  0  0  0  0  0  0  0  0  0  0
   48.1715   12.9056   17.9337 C   0  0  1  0  0  0  0  0  0  0  0  0
   48.3312   10.4301   17.4267 C   0  0  0  0  0  0  0  0  0  0  0  0
   48.2655   14.1925   19.9500 O   0  0  0  0  0  0  0  0  0  0  0  0
   50.2172   13.5900   18.9258 O   0  0  0  0  0  0  0  0  0  0  0  0
   48.0831    9.0933   17.7422 C   0  0  0  0  0  0  0  0  0  0  0  0
   48.5125    8.1338   16.8562 O   0  0  0  0  0  0  0  0  0  0  0  0
   49.3685    7.1689   17.3354 C   0  0  0  0  0  0  0  0  0  0  0  0
   47.2046   11.0991   19.4535 C   0  0  0  0  0  0  0  0  0  0  0  0
   46.9352    9.7616   19.7522 C   0  0  0  0  0  0  0  0  0  0  0  0
   47.3660    8.7550   18.8907 C   0  0  0  0  0  0  0  0  0  0  0  0
   46.8767   13.6390   17.5877 C   0  0  0  0  0  0  0  0  0  0  0  0
   49.2633    5.9080   16.7431 C   0  0  0  0  0  0  0  0  0  0  0  0
   50.3402    7.4045   18.3109 C   0  0  0  0  0  0  0  0  0  0  0  0
   50.1079    4.8712   17.1437 C   0  0  0  0  0  0  0  0  0  0  0  0
   51.1847    6.3648   18.7120 C   0  0  0  0  0  0  0  0  0  0  0  0
   51.0672    5.0990   18.1309 C   0  0  0  0  0  0  0  0  0  0  0  0
   48.6603    9.5676   18.1837 Ca  0  0  0  0  0 15  0  0  0  0  0  0
   48.2899    9.5133   18.0493 O   0  0  0  0  0  0  0  0  0  0  0  0
   49.0850    8.9486   18.4256 H   0  0  0  0  0  0  0  0  0  0  0  0
   48.5841   10.3420   18.0548 H   0  0  0  0  0  0  0  0  0  0  0  0
   47.6302   11.6838   16.4545 H   0  0  0  0  0  0  0  0  0  0  0  0
   47.3928    9.8929   17.9173 H   0  0  0  0  0  0  0  0  0  0  0  0
   50.5779   12.7015   18.6350 H   0  0  0  0  0  0  0  0  0  0  0  0
   51.2938   11.3905   20.6045 H   0  0  0  0  0  0  0  0  0  0  0  0
   50.0841    9.3050   21.2216 H   0  0  0  0  0  0  0  0  0  0  0  0
   47.0927   13.4852   18.0281 H   0  0  0  0  0  0  0  0  0  0  0  0
   47.6244   14.1553   16.4767 H   0  0  0  0  0  0  0  0  0  0  0  0
   48.7101   14.1749   17.8695 H   0  0  0  0  0  0  0  0  0  0  0  0
   49.7156    7.8282   17.8204 H   0  0  0  0  0  0  0  0  0  0  0  0
   46.4160    6.3652   20.1822 H   0  0  0  0  0  0  0  0  0  0  0  0
   46.3075    4.3383   18.7566 H   0  0  0  0  0  0  0  0  0  0  0  0
   49.5918    5.8236   16.4111 H   0  0  0  0  0  0  0  0  0  0  0  0
   47.8950    4.0666   16.8652 H   0  0  0  0  0  0  0  0  0  0  0  0
   48.8056   12.9410   17.0369 H   0  0  0  0  0  0  0  0  0  0  0  0
   48.8755   10.6759   16.5187 H   0  0  0  0  0  0  0  0  0  0  0  0
   46.8747   11.8793   20.1408 H   0  0  0  0  0  0  0  0  0  0  0  0
   46.3916    9.5138   20.6593 H   0  0  0  0  0  0  0  0  0  0  0  0
   47.1500    7.7168   19.1200 H   0  0  0  0  0  0  0  0  0  0  0  0
   46.1640   13.6416   18.4202 H   0  0  0  0  0  0  0  0  0  0  0  0
   47.0827   14.6833   17.3268 H   0  0  0  0  0  0  0  0  0  0  0  0
   46.3810   13.1698   16.7307 H   0  0  0  0  0  0  0  0  0  0  0  0
   48.5198    5.7352   15.9697 H   0  0  0  0  0  0  0  0  0  0  0  0
   50.4542    8.3900   18.7614 H   0  0  0  0  0  0  0  0  0  0  0  0
   50.0201    3.8913   16.6822 H   0  0  0  0  0  0  0  0  0  0  0  0
   51.9349    6.5498   19.4775 H   0  0  0  0  0  0  0  0  0  0  0  0
   51.7280    4.2928   18.4427 H   0  0  0  0  0  0  0  0  0  0  0  0
   48.9114    8.8443   18.3728 H   0  0  0  0  0  0  0  0  0  0  0  0
   48.7795   10.3454   18.1290 H   0  0  0  0  0  0  0  0  0  0  0  0
  3  4  1  0
  4  2  1  0
  5  3  2  0
  6  2  1  0
  7  2  2  0
  8  5  1  0
  9  8  1  0
 10  9  1  0
 11  3  1  0
 12 11  2  0
 13  8  2  0
 14  4  1  0
 15 10  2  0
 16 10  1  0
 17 16  2  0
 18 15  1  0
 19 17  1  0
 12 13  1  0
 18 19  2  0
 21 22  1  0
 22 20  1  0
 23 21  2  0
 24 20  1  0
 25 20  2  0
 26 23  1  0
 27 26  1  0
 28 27  1  0
 29 21  1  0
 30 29  2  0
 31 26  2  0
 32 22  1  0
 33 28  2  0
 34 28  1  0
 35 33  1  0
 36 34  2  0
 37 36  1  0
 30 31  1  0
 35 37  2  0
  1 40  1  0
  1 41  1  0
  4 42  1  1
  5 43  1  0
 11 44  1  0
 12 45  1  0
 13 46  1  0
 14 47  1  0
 14 48  1  0
 14 49  1  0
 15 50  1  0
 16 51  1  0
 17 52  1  0
 18 53  1  0
 19 54  1  0
 22 55  1  1
 23 56  1  0
 29 57  1  0
 30 58  1  0
 31 59  1  0
 32 60  1  0
 32 61  1  0
 32 62  1  0
 33 63  1  0
 34 64  1  0
 35 65  1  0
 36 66  1  0
 37 67  1  0
 39 68  1  0
 39 69  1  0
M  CHG  3   6  -1  24  -1  38   2
M  END
> <Uni-Dock RESULT> 
ENERGY=   -4.792  LOWER_BOUND=    1.752  UPPER_BOUND=    6.301
INTER + INTRA:          -4.792
INTER:                  -4.792
INTRA:                   0.000
UNBOUND:                 0.000

$$$$

     RDKit          3D

 69 68  0  0  0  0  0  0  0  0999 V2000
   48.3914    9.6390   16.8450 O   0  0  0  0  0  0  0  0  0  0  0  0
   47.9367   13.3418   17.7243 C   0  0  0  0  0  0  0  0  0  0  0  0
   48.5749   10.9999   18.4073 C   0  0  0  0  0  0  0  0  0  0  0  0
   47.4672   12.0431   18.4211 C   0  0  1  0  0  0  0  0  0  0  0  0
   48.3785    9.7724   17.7581 C   0  0  0  0  0  0  0  0  0  0  0  0
   47.8776   13.3213   16.4591 O   0  0  0  0  0  0  0  0  0  0  0  0
   48.3102   14.2839   18.4839 O   0  0  0  0  0  0  0  0  0  0  0  0
   49.4081    8.8276   17.7165 C   0  0  0  0  0  0  0  0  0  0  0  0
   49.2442    7.6158   17.0900 O   0  0  0  0  0  0  0  0  0  0  0  0
   49.0653    7.6095   15.7216 C   0  0  0  0  0  0  0  0  0  0  0  0
   49.8097   11.2407   19.0335 C   0  0  0  0  0  0  0  0  0  0  0  0
   50.8220   10.2785   19.0183 C   0  0  0  0  0  0  0  0  0  0  0  0
   50.6193    9.0649   18.3641 C   0  0  0  0  0  0  0  0  0  0  0  0
   46.9481   12.2821   19.8382 C   0  0  0  0  0  0  0  0  0  0  0  0
   49.3882    8.6631   14.8611 C   0  0  0  0  0  0  0  0  0  0  0  0
   48.5556    6.4197   15.1915 C   0  0  0  0  0  0  0  0  0  0  0  0
   48.3494    6.2895   13.8171 C   0  0  0  0  0  0  0  0  0  0  0  0
   49.1785    8.5326   13.4855 C   0  0  0  0  0  0  0  0  0  0  0  0
   48.6597    7.3477   12.9642 C   0  0  0  0  0  0  0  0  0  0  0  0
   48.5986   11.6511   20.7226 C   0  0  0  0  0  0  0  0  0  0  0  0
   47.7476   10.4382   18.6672 C   0  0  0  0  0  0  0  0  0  0  0  0
   47.5392   11.6200   19.6002 C   0  0  1  0  0  0  0  0  0  0  0  0
   47.9152   10.6515   17.2913 C   0  0  0  0  0  0  0  0  0  0  0  0
   48.3094   11.0305   21.7888 O   0  0  0  0  0  0  0  0  0  0  0  0
   49.6383   12.3261   20.4560 O   0  0  0  0  0  0  0  0  0  0  0  0
   48.1022    9.5706   16.4283 C   0  0  0  0  0  0  0  0  0  0  0  0
   48.2463    9.8366   15.0872 O   0  0  0  0  0  0  0  0  0  0  0  0
   49.3934    9.3881   14.4736 C   0  0  0  0  0  0  0  0  0  0  0  0
   47.7523    9.1182   19.1480 C   0  0  0  0  0  0  0  0  0  0  0  0
   47.9131    8.0379   18.2776 C   0  0  0  0  0  0  0  0  0  0  0  0
   48.0788    8.2618   16.9125 C   0  0  0  0  0  0  0  0  0  0  0  0
   46.1185   11.6368   20.1616 C   0  0  0  0  0  0  0  0  0  0  0  0
   49.2687    9.0292   13.1293 C   0  0  0  0  0  0  0  0  0  0  0  0
   50.6414    9.3344   15.0990 C   0  0  0  0  0  0  0  0  0  0  0  0
   50.3833    8.5879   12.4139 C   0  0  0  0  0  0  0  0  0  0  0  0
   51.7566    8.8911   14.3815 C   0  0  0  0  0  0  0  0  0  0  0  0
   51.6273    8.5159   13.0413 C   0  0  0  0  0  0  0  0  0  0  0  0
   48.7157    9.8187   16.9897 Ca  0  0  0  0  0 15  0  0  0  0  0  0
   48.3433    9.6993   16.9169 O   0  0  0  0  0  0  0  0  0  0  0  0
   49.3136    9.5147   16.5746 H   0  0  0  0  0  0  0  0  0  0  0  0
   48.4420   10.3022   17.5495 H   0  0  0  0  0  0  0  0  0  0  0  0
   46.6186   11.6682   17.8327 H   0  0  0  0  0  0  0  0  0  0  0  0
   47.4334    9.5666   17.2645 H   0  0  0  0  0  0  0  0  0  0  0  0
   49.9854   12.1986   19.5246 H   0  0  0  0  0  0  0  0  0  0  0  0
   51.7682   10.4864   19.5105 H   0  0  0  0  0  0  0  0  0  0  0  0
   51.4060    8.3179   18.3443 H   0  0  0  0  0  0  0  0  0  0  0  0
   46.5389   11.3590   20.2634 H   0  0  0  0  0  0  0  0  0  0  0  0
   46.1518   13.0348   19.8385 H   0  0  0  0  0  0  0  0  0  0  0  0
   47.7330   12.6347   20.5157 H   0  0  0  0  0  0  0  0  0  0  0  0
   49.7926    9.5993   15.2395 H   0  0  0  0  0  0  0  0  0  0  0  0
   48.3121    5.5952   15.8561 H   0  0  0  0  0  0  0  0  0  0  0  0
   47.9445    5.3658   13.4138 H   0  0  0  0  0  0  0  0  0  0  0  0
   49.4152    9.3641   12.8265 H   0  0  0  0  0  0  0  0  0  0  0  0
   48.4932    7.2536   11.8950 H   0  0  0  0  0  0  0  0  0  0  0  0
   47.6653   12.5496   19.0280 H   0  0  0  0  0  0  0  0  0  0  0  0
   47.9184   11.6631   16.8940 H   0  0  0  0  0  0  0  0  0  0  0  0
   47.6364    8.9335   20.2168 H   0  0  0  0  0  0  0  0  0  0  0  0
   47.9106    7.0261   18.6726 H   0  0  0  0  0  0  0  0  0  0  0  0
   48.1965    7.4215   16.2362 H   0  0  0  0  0  0  0  0  0  0  0  0
   45.8871   10.7337   20.7376 H   0  0  0  0  0  0  0  0  0  0  0  0
   45.9762   12.4968   20.8258 H   0  0  0  0  0  0  0  0  0  0  0  0
   45.3819   11.7103   19.3538 H   0  0  0  0  0  0  0  0  0  0  0  0
   48.2999    9.0927   12.6412 H   0  0  0  0  0  0  0  0  0  0  0  0
   50.7606    9.6387   16.1385 H   0  0  0  0  0  0  0  0  0  0  0  0
   50.2805    8.3068   11.3692 H   0  0  0  0  0  0  0  0  0  0  0  0
   52.7253    8.8430   14.8741 H   0  0  0  0  0  0  0  0  0  0  0  0
   52.4977    8.1744   12.4847 H   0  0  0  0  0  0  0  0  0  0  0  0
   49.1588    9.4079   16.4828 H   0  0  0  0  0  0  0  0  0  0  0  0
   48.6449   10.3488   17.5694 H   0  0  0  0  0  0  0  0  0  0  0  0
  3  4  1  0
  4  2  1  0
  5  3  2  0
  6  2  1  0
  7  2  2  0
  8  5  1  0
  9  8  1  0
 10  9  1  0
 11  3  1  0
 12 11  2  0
 13  8  2  0
 14  4  1  0
 15 10  2  0
 16 10  1  0
 17 16  2  0
 18 15  1  0
 19 17  1  0
 12 13  1  0
 18 19  2  0
 21 22  1  0
 22 20  1  0
 23 21  2  0
 24 20  1  0
 25 20  2  0
 26 23  1  0
 27 26  1  0
 28 27  1  0
 29 21  1  0
 30 29  2  0
 31 26  2  0
 32 22  1  0
 33 28  2  0
 34 28  1  0
 35 33  1  0
 36 34  2  0
 37 36  1  0
 30 31  1  0
 35 37  2  0
  1 40  1  0
  1 41  1  0
  4 42  1  1
  5 43  1  0
 11 44  1  0
 12 45  1  0
 13 46  1  0
 14 47  1  0
 14 48  1  0
 14 49  1  0
 15 50  1  0
 16 51  1  0
 17 52  1  0
 18 53  1  0
 19 54  1  0
 22 55  1  1
 23 56  1  0
 29 57  1  0
 30 58  1  0
 31 59  1  0
 32 60  1  0
 32 61  1  0
 32 62  1  0
 33 63  1  0
 34 64  1  0
 35 65  1  0
 36 66  1  0
 37 67  1  0
 39 68  1  0
 39 69  1  0
M  CHG  3   6  -1  24  -1  38   2
M  END
> <Uni-Dock RESULT> 
ENERGY=   -4.739  LOWER_BOUND=    2.410  UPPER_BOUND=    6.190
INTER + INTRA:          -4.739
INTER:                  -4.739
INTRA:                   0.000
UNBOUND:                 0.000

$$$$

     RDKit          3D

 69 68  0  0  0  0  0  0  0  0999 V2000
   52.0861    4.2355   18.2729 O   0  0  0  0  0  0  0  0  0  0  0  0
   52.9463    0.5044   18.0986 C   0  0  0  0  0  0  0  0  0  0  0  0
   53.5920    2.8661   18.7017 C   0  0  0  0  0  0  0  0  0  0  0  0
   53.7160    1.7701   17.6535 C   0  0  1  0  0  0  0  0  0  0  0  0
   52.9920    4.0905   18.3733 C   0  0  0  0  0  0  0  0  0  0  0  0
   51.6972    0.5375   17.8909 O   0  0  0  0  0  0  0  0  0  0  0  0
   53.6404   -0.4275   18.6023 O   0  0  0  0  0  0  0  0  0  0  0  0
   52.8477    5.0847   19.3454 C   0  0  0  0  0  0  0  0  0  0  0  0
   52.2663    6.2946   19.0526 O   0  0  0  0  0  0  0  0  0  0  0  0
   50.9282    6.3089   18.7146 C   0  0  0  0  0  0  0  0  0  0  0  0
   54.0659    2.6782   20.0113 C   0  0  0  0  0  0  0  0  0  0  0  0
   53.9501    3.6886   20.9686 C   0  0  0  0  0  0  0  0  0  0  0  0
   53.3457    4.8988   20.6339 C   0  0  0  0  0  0  0  0  0  0  0  0
   55.1794    1.4889   17.3157 C   0  0  0  0  0  0  0  0  0  0  0  0
   50.0174    5.2829   18.9835 C   0  0  0  0  0  0  0  0  0  0  0  0
   50.4824    7.4789   18.0910 C   0  0  0  0  0  0  0  0  0  0  0  0
   49.1439    7.6156   17.7194 C   0  0  0  0  0  0  0  0  0  0  0  0
   48.6782    5.4198   18.6083 C   0  0  0  0  0  0  0  0  0  0  0  0
   48.2419    6.5843   17.9770 C   0  0  0  0  0  0  0  0  0  0  0  0
   55.8768    2.1887   19.0269 C   0  0  0  0  0  0  0  0  0  0  0  0
   53.9564    3.3837   17.8851 C   0  0  0  0  0  0  0  0  0  0  0  0
   54.8861    2.1818   17.8431 C   0  0  1  0  0  0  0  0  0  0  0  0
   52.5667    3.1956   17.9003 C   0  0  0  0  0  0  0  0  0  0  0  0
   56.9803    2.7813   18.8357 O   0  0  0  0  0  0  0  0  0  0  0  0
   55.4790    1.5684   20.0588 O   0  0  0  0  0  0  0  0  0  0  0  0
   51.7072    4.2948   17.9339 C   0  0  0  0  0  0  0  0  0  0  0  0
   50.3540    4.0525   17.9324 O   0  0  0  0  0  0  0  0  0  0  0  0
   49.6192    4.5638   18.9774 C   0  0  0  0  0  0  0  0  0  0  0  0
   54.4568    4.6963   17.8840 C   0  0  0  0  0  0  0  0  0  0  0  0
   53.5930    5.7938   17.8910 C   0  0  0  0  0  0  0  0  0  0  0  0
   52.2141    5.5949   17.9060 C   0  0  0  0  0  0  0  0  0  0  0  0
   55.6086    2.0890   16.5002 C   0  0  0  0  0  0  0  0  0  0  0  0
   48.3051    4.9326   18.6794 C   0  0  0  0  0  0  0  0  0  0  0  0
   50.0959    4.6706   20.2861 C   0  0  0  0  0  0  0  0  0  0  0  0
   47.4728    5.4364   19.6806 C   0  0  0  0  0  0  0  0  0  0  0  0
   49.2615    5.1764   21.2876 C   0  0  0  0  0  0  0  0  0  0  0  0
   47.9524    5.5612   20.9848 C   0  0  0  0  0  0  0  0  0  0  0  0
   52.1889    4.0701   18.6199 Ca  0  0  0  0  0 15  0  0  0  0  0  0
   52.1621    4.1720   18.2364 O   0  0  0  0  0  0  0  0  0  0  0  0
   51.7125    4.4078   19.1501 H   0  0  0  0  0  0  0  0  0  0  0  0
   52.7681    3.5669   18.4367 H   0  0  0  0  0  0  0  0  0  0  0  0
   53.2372    2.1105   16.7252 H   0  0  0  0  0  0  0  0  0  0  0  0
   52.6155    4.2560   17.3682 H   0  0  0  0  0  0  0  0  0  0  0  0
   54.5161    1.7241   20.2880 H   0  0  0  0  0  0  0  0  0  0  0  0
   54.3250    3.5211   21.9746 H   0  0  0  0  0  0  0  0  0  0  0  0
   53.2477    5.6834   21.3769 H   0  0  0  0  0  0  0  0  0  0  0  0
   55.6658    2.3856   16.9162 H   0  0  0  0  0  0  0  0  0  0  0  0
   55.2590    0.6983   16.5611 H   0  0  0  0  0  0  0  0  0  0  0  0
   55.7546    1.1667   18.1902 H   0  0  0  0  0  0  0  0  0  0  0  0
   50.3294    4.3630   19.4730 H   0  0  0  0  0  0  0  0  0  0  0  0
   51.1854    8.2824   17.8885 H   0  0  0  0  0  0  0  0  0  0  0  0
   48.8069    8.5234   17.2271 H   0  0  0  0  0  0  0  0  0  0  0  0
   47.9814    4.6089   18.8050 H   0  0  0  0  0  0  0  0  0  0  0  0
   47.2012    6.6832   17.6822 H   0  0  0  0  0  0  0  0  0  0  0  0
   54.2866    1.2666   17.9448 H   0  0  0  0  0  0  0  0  0  0  0  0
   52.1538    2.1903   17.9044 H   0  0  0  0  0  0  0  0  0  0  0  0
   55.5349    4.8622   17.8856 H   0  0  0  0  0  0  0  0  0  0  0  0
   54.0035    6.7993   17.8873 H   0  0  0  0  0  0  0  0  0  0  0  0
   51.5438    6.4481   17.9041 H   0  0  0  0  0  0  0  0  0  0  0  0
   56.2237    2.9727   16.2958 H   0  0  0  0  0  0  0  0  0  0  0  0
   56.2694    1.2150   16.4773 H   0  0  0  0  0  0  0  0  0  0  0  0
   54.8909    1.9896   15.6784 H   0  0  0  0  0  0  0  0  0  0  0  0
   47.9320    4.8280   17.6642 H   0  0  0  0  0  0  0  0  0  0  0  0
   51.1088    4.3597   20.5404 H   0  0  0  0  0  0  0  0  0  0  0  0
   46.4523    5.7248   19.4431 H   0  0  0  0  0  0  0  0  0  0  0  0
   49.6387    5.2656   22.3039 H   0  0  0  0  0  0  0  0  0  0  0  0
   47.3044    5.9514   21.7669 H   0  0  0  0  0  0  0  0  0  0  0  0
   51.6413    4.5081   18.9809 H   0  0  0  0  0  0  0  0  0  0  0  0
   52.7633    3.5301   18.6424 H   0  0  0  0  0  0  0  0  0  0  0  0
  3  4  1  0
  4  2  1  0
  5  3  2  0
  6  2  1  0
  7  2  2  0
  8  5  1  0
  9  8  1  0
 10  9  1  0
 11  3  1  0
 12 11  2  0
 13  8  2  0
 14  4  1  0
 15 10  2  0
 16 10  1  0
 17 16  2  0
 18 15  1  0
 19 17  1  0
 12 13  1  0
 18 19  2  0
 21 22  1  0
 22 20  1  0
 23 21  2  0
 24 20  1  0
 25 20  2  0
 26 23  1  0
 27 26  1  0
 28 27  1  0
 29 21  1  0
 30 29  2  0
 31 26  2  0
 32 22  1  0
 33 28  2  0
 34 28  1  0
 35 33  1  0
 36 34  2  0
 37 36  1  0
 30 31  1  0
 35 37  2  0
  1 40  1  0
  1 41  1  0
  4 42  1  1
  5 43  1  0
 11 44  1  0
 12 45  1  0
 13 46  1  0
 14 47  1  0
 14 48  1  0
 14 49  1  0
 15 50  1  0
 16 51  1  0
 17 52  1  0
 18 53  1  0
 19 54  1  0
 22 55  1  1
 23 56  1  0
 29 57  1  0
 30 58  1  0
 31 59  1  0
 32 60  1  0
 32 61  1  0
 32 62  1  0
 33 63  1  0
 34 64  1  0
 35 65  1  0
 36 66  1  0
 37 67  1  0
 39 68  1  0
 39 69  1  0
M  CHG  3   6  -1  24  -1  38   2
M  END
> <Uni-Dock RESULT> 
ENERGY=   -4.563  LOWER_BOUND=    3.788  UPPER_BOUND=    6.459
INTER + INTRA:          -4.563
INTER:                  -4.563
INTRA:                   0.000
UNBOUND:                 0.000

$$$$

     RDKit          3D

 69 68  0  0  0  0  0  0  0  0999 V2000
   51.8600    5.7321   18.4621 O   0  0  0  0  0  0  0  0  0  0  0  0
   54.0895    6.8287   15.5436 C   0  0  0  0  0  0  0  0  0  0  0  0
   53.7970    5.5865   17.7183 C   0  0  0  0  0  0  0  0  0  0  0  0
   54.2869    6.8765   17.0770 C   0  0  1  0  0  0  0  0  0  0  0  0
   52.7549    5.6176   18.6564 C   0  0  0  0  0  0  0  0  0  0  0  0
   52.9169    7.0972   15.1468 O   0  0  0  0  0  0  0  0  0  0  0  0
   55.1132    6.5461   14.8535 O   0  0  0  0  0  0  0  0  0  0  0  0
   52.2822    4.4290   19.2203 C   0  0  0  0  0  0  0  0  0  0  0  0
   51.2644    4.4284   20.1432 O   0  0  0  0  0  0  0  0  0  0  0  0
   50.0111    4.8328   19.7302 C   0  0  0  0  0  0  0  0  0  0  0  0
   54.3674    4.3459   17.3862 C   0  0  0  0  0  0  0  0  0  0  0  0
   53.9140    3.1655   17.9795 C   0  0  0  0  0  0  0  0  0  0  0  0
   52.8730    3.2066   18.9049 C   0  0  0  0  0  0  0  0  0  0  0  0
   55.7274    7.1852   17.4824 C   0  0  0  0  0  0  0  0  0  0  0  0
   49.5826    4.9002   18.4011 C   0  0  0  0  0  0  0  0  0  0  0  0
   49.1181    5.1528   20.7581 C   0  0  0  0  0  0  0  0  0  0  0  0
   47.8154    5.5574   20.4620 C   0  0  0  0  0  0  0  0  0  0  0  0
   48.2790    5.3083   18.1058 C   0  0  0  0  0  0  0  0  0  0  0  0
   47.3966    5.6366   19.1346 C   0  0  0  0  0  0  0  0  0  0  0  0
   56.1784    5.3104   17.9138 C   0  0  0  0  0  0  0  0  0  0  0  0
   53.8938    6.2140   18.5335 C   0  0  0  0  0  0  0  0  0  0  0  0
   55.2135    6.5132   17.8412 C   0  0  1  0  0  0  0  0  0  0  0  0
   52.6879    6.3348   17.8277 C   0  0  0  0  0  0  0  0  0  0  0  0
   56.9557    5.2702   18.9135 O   0  0  0  0  0  0  0  0  0  0  0  0
   56.1007    4.5048   16.9376 O   0  0  0  0  0  0  0  0  0  0  0  0
   51.4722    6.0663   18.4587 C   0  0  0  0  0  0  0  0  0  0  0  0
   50.3201    6.2152   17.7236 O   0  0  0  0  0  0  0  0  0  0  0  0
   49.4944    5.1200   17.6139 C   0  0  0  0  0  0  0  0  0  0  0  0
   53.8458    5.8386   19.8864 C   0  0  0  0  0  0  0  0  0  0  0  0
   52.6256    5.5965   20.5212 C   0  0  0  0  0  0  0  0  0  0  0  0
   51.4338    5.7196   19.8101 C   0  0  0  0  0  0  0  0  0  0  0  0
   55.8518    7.7858   18.3952 C   0  0  0  0  0  0  0  0  0  0  0  0
   48.1276    5.3911   17.5126 C   0  0  0  0  0  0  0  0  0  0  0  0
   49.9532    3.8024   17.5434 C   0  0  0  0  0  0  0  0  0  0  0  0
   47.2130    4.3461   17.3704 C   0  0  0  0  0  0  0  0  0  0  0  0
   49.0358    2.7567   17.4021 C   0  0  0  0  0  0  0  0  0  0  0  0
   47.6672    3.0280   17.3182 C   0  0  0  0  0  0  0  0  0  0  0  0
   52.0349    5.4352   18.2631 Ca  0  0  0  0  0 15  0  0  0  0  0  0
   51.9528    5.7793   18.4450 O   0  0  0  0  0  0  0  0  0  0  0  0
   51.4902    4.8653   18.2367 H   0  0  0  0  0  0  0  0  0  0  0  0
   52.7545    5.7082   18.0906 H   0  0  0  0  0  0  0  0  0  0  0  0
   53.6707    7.7103   17.4403 H   0  0  0  0  0  0  0  0  0  0  0  0
   52.2970    6.5649   18.9251 H   0  0  0  0  0  0  0  0  0  0  0  0
   55.1646    4.3027   16.6431 H   0  0  0  0  0  0  0  0  0  0  0  0
   54.3712    2.2178   17.7080 H   0  0  0  0  0  0  0  0  0  0  0  0
   52.5135    2.2908   19.3624 H   0  0  0  0  0  0  0  0  0  0  0  0
   55.8090    7.3038   18.5685 H   0  0  0  0  0  0  0  0  0  0  0  0
   56.0717    8.1149   17.0156 H   0  0  0  0  0  0  0  0  0  0  0  0
   56.4227    6.3925   17.1866 H   0  0  0  0  0  0  0  0  0  0  0  0
   50.2493    4.6518   17.5782 H   0  0  0  0  0  0  0  0  0  0  0  0
   49.4445    5.0928   21.7928 H   0  0  0  0  0  0  0  0  0  0  0  0
   47.1304    5.8132   21.2652 H   0  0  0  0  0  0  0  0  0  0  0  0
   47.9609    5.3754   17.0685 H   0  0  0  0  0  0  0  0  0  0  0  0
   46.3863    5.9588   18.8995 H   0  0  0  0  0  0  0  0  0  0  0  0
   55.0210    6.6932   16.7744 H   0  0  0  0  0  0  0  0  0  0  0  0
   52.6975    6.6210   16.7794 H   0  0  0  0  0  0  0  0  0  0  0  0
   54.7742    5.7268   20.4480 H   0  0  0  0  0  0  0  0  0  0  0  0
   52.6137    5.3100   21.5688 H   0  0  0  0  0  0  0  0  0  0  0  0
   50.4860    5.5384   20.3061 H   0  0  0  0  0  0  0  0  0  0  0  0
   56.0661    7.7120   19.4674 H   0  0  0  0  0  0  0  0  0  0  0  0
   56.7978    7.9971   17.8837 H   0  0  0  0  0  0  0  0  0  0  0  0
   55.1911    8.6476   18.2496 H   0  0  0  0  0  0  0  0  0  0  0  0
   47.7772    6.4192   17.5468 H   0  0  0  0  0  0  0  0  0  0  0  0
   51.0180    3.5768   17.5915 H   0  0  0  0  0  0  0  0  0  0  0  0
   46.1506    4.5619   17.2952 H   0  0  0  0  0  0  0  0  0  0  0  0
   49.3960    1.7315   17.3557 H   0  0  0  0  0  0  0  0  0  0  0  0
   46.9560    2.2123   17.2050 H   0  0  0  0  0  0  0  0  0  0  0  0
   51.3779    5.0063   18.3430 H   0  0  0  0  0  0  0  0  0  0  0  0
   52.7741    5.5201   18.0014 H   0  0  0  0  0  0  0  0  0  0  0  0
  3  4  1  0
  4  2  1  0
  5  3  2  0
  6  2  1  0
  7  2  2  0
  8  5  1  0
  9  8  1  0
 10  9  1  0
 11  3  1  0
 12 11  2  0
 13  8  2  0
 14  4  1  0
 15 10  2  0
 16 10  1  0
 17 16  2  0
 18 15  1  0
 19 17  1  0
 12 13  1  0
 18 19  2  0
 21 22  1  0
 22 20  1  0
 23 21  2  0
 24 20  1  0
 25 20  2  0
 26 23  1  0
 27 26  1  0
 28 27  1  0
 29 21  1  0
 30 29  2  0
 31 26  2  0
 32 22  1  0
 33 28  2  0
 34 28  1  0
 35 33  1  0
 36 34  2  0
 37 36  1  0
 30 31  1  0
 35 37  2  0
  1 40  1  0
  1 41  1  0
  4 42  1  1
  5 43  1  0
 11 44  1  0
 12 45  1  0
 13 46  1  0
 14 47  1  0
 14 48  1  0
 14 49  1  0
 15 50  1  0
 16 51  1  0
 17 52  1  0
 18 53  1  0
 19 54  1  0
 22 55  1  1
 23 56  1  0
 29 57  1  0
 30 58  1  0
 31 59  1  0
 32 60  1  0
 32 61  1  0
 32 62  1  0
 33 63  1  0
 34 64  1  0
 35 65  1  0
 36 66  1  0
 37 67  1  0
 39 68  1  0
 39 69  1  0
M  CHG  3   6  -1  24  -1  38   2
M  END
> <Uni-Dock RESULT> 
ENERGY=   -4.544  LOWER_BOUND=    4.222  UPPER_BOUND=    6.892
INTER + INTRA:          -4.544
INTER:                  -4.544
INTRA:                   0.000
UNBOUND:                 0.000

$$$$

     RDKit          3D

 69 68  0  0  0  0  0  0  0  0999 V2000
   51.4333    4.6634   19.3080 O   0  0  0  0  0  0  0  0  0  0  0  0
   53.9173    5.3780   22.1382 C   0  0  0  0  0  0  0  0  0  0  0  0
   53.4663    4.7372   19.7415 C   0  0  0  0  0  0  0  0  0  0  0  0
   53.7984    4.2109   21.1301 C   0  0  1  0  0  0  0  0  0  0  0  0
   52.2774    4.3493   19.1067 C   0  0  0  0  0  0  0  0  0  0  0  0
   52.8148    5.8126   22.5856 O   0  0  0  0  0  0  0  0  0  0  0  0
   55.0915    5.7602   22.4196 O   0  0  0  0  0  0  0  0  0  0  0  0
   51.9563    4.8593   17.8454 C   0  0  0  0  0  0  0  0  0  0  0  0
   50.8001    4.4958   17.1982 O   0  0  0  0  0  0  0  0  0  0  0  0
   49.5957    4.8760   17.7546 C   0  0  0  0  0  0  0  0  0  0  0  0
   54.3311    5.6190   19.0710 C   0  0  0  0  0  0  0  0  0  0  0  0
   54.0211    6.0975   17.7959 C   0  0  0  0  0  0  0  0  0  0  0  0
   52.8337    5.7116   17.1771 C   0  0  0  0  0  0  0  0  0  0  0  0
   55.0386    3.3188   21.1031 C   0  0  0  0  0  0  0  0  0  0  0  0
   49.4297    5.8891   18.7037 C   0  0  0  0  0  0  0  0  0  0  0  0
   48.4735    4.1945   17.2722 C   0  0  0  0  0  0  0  0  0  0  0  0
   47.1988    4.5061   17.7481 C   0  0  0  0  0  0  0  0  0  0  0  0
   48.1533    6.1981   19.1816 C   0  0  0  0  0  0  0  0  0  0  0  0
   47.0394    5.5076   18.7048 C   0  0  0  0  0  0  0  0  0  0  0  0
   55.7693    4.1093   19.4461 C   0  0  0  0  0  0  0  0  0  0  0  0
   53.2726    3.7268   19.6454 C   0  0  0  0  0  0  0  0  0  0  0  0
   54.6126    3.6484   20.3586 C   0  0  1  0  0  0  0  0  0  0  0  0
   52.2284    4.4847   20.1952 C   0  0  0  0  0  0  0  0  0  0  0  0
   56.3286    3.2124   18.7475 O   0  0  0  0  0  0  0  0  0  0  0  0
   56.0491    5.3438   19.5222 O   0  0  0  0  0  0  0  0  0  0  0  0
   50.9938    4.5571   19.5480 C   0  0  0  0  0  0  0  0  0  0  0  0
   50.0013    5.3022   20.1393 O   0  0  0  0  0  0  0  0  0  0  0  0
   49.4535    6.3254   19.4000 C   0  0  0  0  0  0  0  0  0  0  0  0
   53.0396    3.0317   18.4471 C   0  0  0  0  0  0  0  0  0  0  0  0
   51.7945    3.0855   17.8166 C   0  0  0  0  0  0  0  0  0  0  0  0
   50.7645    3.8416   18.3719 C   0  0  0  0  0  0  0  0  0  0  0  0
   54.8579    2.2494   20.9212 C   0  0  0  0  0  0  0  0  0  0  0  0
   48.1067    6.6046   19.6444 C   0  0  0  0  0  0  0  0  0  0  0  0
   50.1759    7.1043   18.4928 C   0  0  0  0  0  0  0  0  0  0  0  0
   47.4698    7.6429   18.9625 C   0  0  0  0  0  0  0  0  0  0  0  0
   49.5363    8.1432   17.8097 C   0  0  0  0  0  0  0  0  0  0  0  0
   48.1843    8.4107   18.0424 C   0  0  0  0  0  0  0  0  0  0  0  0
   51.7004    4.9477   19.2297 Ca  0  0  0  0  0 15  0  0  0  0  0  0
   51.5161    4.6186   19.3557 O   0  0  0  0  0  0  0  0  0  0  0  0
   51.2991    5.4909   18.8222 H   0  0  0  0  0  0  0  0  0  0  0  0
   52.3688    4.6890   19.5590 H   0  0  0  0  0  0  0  0  0  0  0  0
   52.9665    3.5851   21.4812 H   0  0  0  0  0  0  0  0  0  0  0  0
   51.5928    3.6716   19.6080 H   0  0  0  0  0  0  0  0  0  0  0  0
   55.2494    5.9464   19.5599 H   0  0  0  0  0  0  0  0  0  0  0  0
   54.7057    6.7775   17.2963 H   0  0  0  0  0  0  0  0  0  0  0  0
   52.5863    6.0870   16.1896 H   0  0  0  0  0  0  0  0  0  0  0  0
   54.8812    2.4534   20.4499 H   0  0  0  0  0  0  0  0  0  0  0  0
   55.2705    2.9452   22.1068 H   0  0  0  0  0  0  0  0  0  0  0  0
   55.9249    3.8480   20.7373 H   0  0  0  0  0  0  0  0  0  0  0  0
   50.2802    6.4431   19.0948 H   0  0  0  0  0  0  0  0  0  0  0  0
   48.5974    3.4127   16.5277 H   0  0  0  0  0  0  0  0  0  0  0  0
   46.3331    3.9662   17.3755 H   0  0  0  0  0  0  0  0  0  0  0  0
   48.0365    6.9747   19.9332 H   0  0  0  0  0  0  0  0  0  0  0  0
   46.0503    5.7476   19.0838 H   0  0  0  0  0  0  0  0  0  0  0  0
   54.5990    4.3369   21.2149 H   0  0  0  0  0  0  0  0  0  0  0  0
   52.3835    5.0342   21.1199 H   0  0  0  0  0  0  0  0  0  0  0  0
   53.8437    2.4476   17.9977 H   0  0  0  0  0  0  0  0  0  0  0  0
   51.6375    2.5373   16.8921 H   0  0  0  0  0  0  0  0  0  0  0  0
   49.7954    3.8769   17.8852 H   0  0  0  0  0  0  0  0  0  0  0  0
   54.8697    1.4817   20.1392 H   0  0  0  0  0  0  0  0  0  0  0  0
   55.8221    2.2059   21.4404 H   0  0  0  0  0  0  0  0  0  0  0  0
   54.0767    1.9765   21.6393 H   0  0  0  0  0  0  0  0  0  0  0  0
   47.5543    6.0094   20.3666 H   0  0  0  0  0  0  0  0  0  0  0  0
   51.2343    6.9177   18.3130 H   0  0  0  0  0  0  0  0  0  0  0  0
   46.4211    7.8543   19.1538 H   0  0  0  0  0  0  0  0  0  0  0  0
   50.0999    8.7424   17.0982 H   0  0  0  0  0  0  0  0  0  0  0  0
   47.6902    9.2219   17.5117 H   0  0  0  0  0  0  0  0  0  0  0  0
   51.1419    5.3558   18.8508 H   0  0  0  0  0  0  0  0  0  0  0  0
   52.4433    4.8688   19.4827 H   0  0  0  0  0  0  0  0  0  0  0  0
  3  4  1  0
  4  2  1  0
  5  3  2  0
  6  2  1  0
  7  2  2  0
  8  5  1  0
  9  8  1  0
 10  9  1  0
 11  3  1  0
 12 11  2  0
 13  8  2  0
 14  4  1  0
 15 10  2  0
 16 10  1  0
 17 16  2  0
 18 15  1  0
 19 17  1  0
 12 13  1  0
 18 19  2  0
 21 22  1  0
 22 20  1  0
 23 21  2  0
 24 20  1  0
 25 20  2  0
 26 23  1  0
 27 26  1  0
 28 27  1  0
 29 21  1  0
 30 29  2  0
 31 26  2  0
 32 22  1  0
 33 28  2  0
 34 28  1  0
 35 33  1  0
 36 34  2  0
 37 36  1  0
 30 31  1  0
 35 37  2  0
  1 40  1  0
  1 41  1  0
  4 42  1  1
  5 43  1  0
 11 44  1  0
 12 45  1  0
 13 46  1  0
 14 47  1  0
 14 48  1  0
 14 49  1  0
 15 50  1  0
 16 51  1  0
 17 52  1  0
 18 53  1  0
 19 54  1  0
 22 55  1  1
 23 56  1  0
 29 57  1  0
 30 58  1  0
 31 59  1  0
 32 60  1  0
 32 61  1  0
 32 62  1  0
 33 63  1  0
 34 64  1  0
 35 65  1  0
 36 66  1  0
 37 67  1  0
 39 68  1  0
 39 69  1  0
M  CHG  3   6  -1  24  -1  38   2
M  END
> <Uni-Dock RESULT> 
ENERGY=   -4.502  LOWER_BOUND=    3.301  UPPER_BOUND=    5.904
INTER + INTRA:          -4.502
INTER:                  -4.502
INTRA:                   0.000
UNBOUND:                 0.000

$$$$
