
     RDKit          3D

 69 69  0  0  0  0  0  0  0  0999 V2000
   -0.8518   -0.7584    0.6791 C   0  0  0  0  0  0  0  0  0  0  0  0
   -3.2118   -0.5823   -0.0503 N   0  0  0  0  0  0  0  0  0  0  0  0
    0.5948   -0.4355    0.3872 C   0  0  0  0  0  0  0  0  0  0  0  0
   -1.8499   -0.0798   -0.2837 C   0  0  1  0  0  0  0  0  0  0  0  0
    1.3193    0.4166    1.2317 C   0  0  0  0  0  0  0  0  0  0  0  0
    1.2324   -0.9811   -0.7357 C   0  0  0  0  0  0  0  0  0  0  0  0
   -1.8685    1.4409   -0.1240 C   0  0  0  0  0  0  0  0  0  0  0  0
    2.6541    0.7184    0.9564 C   0  0  0  0  0  0  0  0  0  0  0  0
    2.5671   -0.6781   -1.0091 C   0  0  0  0  0  0  0  0  0  0  0  0
    3.2774    0.1716   -0.1635 C   0  0  0  0  0  0  0  0  0  0  0  0
   -0.7081   -0.6374    0.7351 C   0  0  0  0  0  0  0  0  0  0  0  0
   -1.7585   -0.2370   -1.4903 N   0  0  0  0  0  0  0  0  0  0  0  0
    0.7075   -0.2361    0.3844 C   0  0  0  0  0  0  0  0  0  0  0  0
   -1.7802    0.1291   -0.0683 C   0  0  1  0  0  0  0  0  0  0  0  0
    1.2586    0.9479    0.8933 C   0  0  0  0  0  0  0  0  0  0  0  0
    1.4816   -1.0347   -0.4682 C   0  0  0  0  0  0  0  0  0  0  0  0
   -3.1729   -0.1650    0.4866 C   0  0  0  0  0  0  0  0  0  0  0  0
    2.7826   -0.6574   -0.8035 C   0  0  0  0  0  0  0  0  0  0  0  0
    2.5603    1.3232    0.5572 C   0  0  0  0  0  0  0  0  0  0  0  0
    3.3217    0.5210   -0.2908 C   0  0  0  0  0  0  0  0  0  0  0  0
    0.6762   -0.3740   -1.1513 C   0  0  0  0  0  0  0  0  0  0  0  0
    1.9039   -0.6046    1.0091 N   0  0  0  0  0  0  0  0  0  0  0  0
   -0.7604   -0.1696   -0.7262 C   0  0  0  0  0  0  0  0  0  0  0  0
    1.7047    0.2408   -0.1765 C   0  0  1  0  0  0  0  0  0  0  0  0
   -1.5271    0.8625   -1.2855 C   0  0  0  0  0  0  0  0  0  0  0  0
   -1.3445   -0.9991    0.2399 C   0  0  0  0  0  0  0  0  0  0  0  0
    3.0525    0.4316   -0.8752 C   0  0  0  0  0  0  0  0  0  0  0  0
   -2.8530    1.0536   -0.8920 C   0  0  0  0  0  0  0  0  0  0  0  0
   -2.6698   -0.8064    0.6332 C   0  0  0  0  0  0  0  0  0  0  0  0
   -3.4243    0.2186    0.0662 C   0  0  0  0  0  0  0  0  0  0  0  0
   -0.9649   -1.8500    0.6234 H   0  0  0  0  0  0  0  0  0  0  0  0
   -1.0906   -0.4910    1.7172 H   0  0  0  0  0  0  0  0  0  0  0  0
   -3.2224   -1.5978   -0.1384 H   0  0  0  0  0  0  0  0  0  0  0  0
   -3.4968   -0.3764    0.9067 H   0  0  0  0  0  0  0  0  0  0  0  0
   -1.5848   -0.3150   -1.3211 H   0  0  0  0  0  0  0  0  0  0  0  0
    0.8483    0.8547    2.1087 H   0  0  0  0  0  0  0  0  0  0  0  0
    0.6926   -1.6472   -1.4052 H   0  0  0  0  0  0  0  0  0  0  0  0
   -2.1029    1.7348    0.9053 H   0  0  0  0  0  0  0  0  0  0  0  0
   -2.6179    1.8943   -0.7830 H   0  0  0  0  0  0  0  0  0  0  0  0
   -0.9005    1.8781   -0.3891 H   0  0  0  0  0  0  0  0  0  0  0  0
    3.2076    1.3815    1.6161 H   0  0  0  0  0  0  0  0  0  0  0  0
    3.0527   -1.1054   -1.8824 H   0  0  0  0  0  0  0  0  0  0  0  0
    4.3165    0.4074   -0.3771 H   0  0  0  0  0  0  0  0  0  0  0  0
   -0.8536   -0.4606    1.8093 H   0  0  0  0  0  0  0  0  0  0  0  0
   -0.8320   -1.7202    0.5982 H   0  0  0  0  0  0  0  0  0  0  0  0
   -2.4171    0.3487   -2.0020 H   0  0  0  0  0  0  0  0  0  0  0  0
   -0.8356   -0.0198   -1.8706 H   0  0  0  0  0  0  0  0  0  0  0  0
   -1.5974    1.2078    0.0113 H   0  0  0  0  0  0  0  0  0  0  0  0
    0.6773    1.5838    1.5569 H   0  0  0  0  0  0  0  0  0  0  0  0
    1.0706   -1.9548   -0.8789 H   0  0  0  0  0  0  0  0  0  0  0  0
   -3.4149   -1.2318    0.4214 H   0  0  0  0  0  0  0  0  0  0  0  0
   -3.2399    0.1317    1.5389 H   0  0  0  0  0  0  0  0  0  0  0  0
   -3.9416    0.3909   -0.0619 H   0  0  0  0  0  0  0  0  0  0  0  0
    3.3752   -1.2840   -1.4649 H   0  0  0  0  0  0  0  0  0  0  0  0
    2.9810    2.2416    0.9581 H   0  0  0  0  0  0  0  0  0  0  0  0
    4.3354    0.8133   -0.5513 H   0  0  0  0  0  0  0  0  0  0  0  0
    0.8048    0.0699   -2.1478 H   0  0  0  0  0  0  0  0  0  0  0  0
    0.8644   -1.4472   -1.2906 H   0  0  0  0  0  0  0  0  0  0  0  0
    2.3131   -1.4963    0.7341 H   0  0  0  0  0  0  0  0  0  0  0  0
    2.5773   -0.1620    1.6332 H   0  0  0  0  0  0  0  0  0  0  0  0
    1.3501    1.2227    0.1596 H   0  0  0  0  0  0  0  0  0  0  0  0
   -1.0966    1.5252   -2.0323 H   0  0  0  0  0  0  0  0  0  0  0  0
   -0.7623   -1.7948    0.6994 H   0  0  0  0  0  0  0  0  0  0  0  0
    2.9505    1.1041   -1.7338 H   0  0  0  0  0  0  0  0  0  0  0  0
    3.7894    0.8752   -0.1964 H   0  0  0  0  0  0  0  0  0  0  0  0
    3.4553   -0.5205   -1.2388 H   0  0  0  0  0  0  0  0  0  0  0  0
   -3.4394    1.8555   -1.3321 H   0  0  0  0  0  0  0  0  0  0  0  0
   -3.1098   -1.4541    1.3864 H   0  0  0  0  0  0  0  0  0  0  0  0
   -4.4553    0.3689    0.3743 H   0  0  0  0  0  0  0  0  0  0  0  0
  4  2  1  0
  3  1  1  0
  4  1  1  0
  5  3  2  0
  6  3  1  0
  4  7  1  0
  8  5  1  0
  9  6  2  0
 10  8  2  0
  9 10  1  0
 12 14  1  0
 13 11  1  0
 14 11  1  0
 15 13  2  0
 16 13  1  0
 17 14  1  0
 18 16  2  0
 19 15  1  0
 20 18  1  0
 19 20  2  0
 24 22  1  0
 23 21  1  0
 24 21  1  0
 25 23  2  0
 26 23  1  0
 24 27  1  0
 28 25  1  0
 29 26  2  0
 30 28  2  0
 29 30  1  0
  1 31  1  0
  1 32  1  0
  2 33  1  0
  2 34  1  0
  4 35  1  6
  5 36  1  0
  6 37  1  0
  7 38  1  0
  7 39  1  0
  7 40  1  0
  8 41  1  0
  9 42  1  0
 10 43  1  0
 11 44  1  0
 11 45  1  0
 12 46  1  0
 12 47  1  0
 14 48  1  6
 15 49  1  0
 16 50  1  0
 17 51  1  0
 17 52  1  0
 17 53  1  0
 18 54  1  0
 19 55  1  0
 20 56  1  0
 21 57  1  0
 21 58  1  0
 22 59  1  0
 22 60  1  0
 24 61  1  1
 25 62  1  0
 26 63  1  0
 27 64  1  0
 27 65  1  0
 27 66  1  0
 28 67  1  0
 29 68  1  0
 30 69  1  0
M  END
$$$$
