
     RDKit          3D

 69 69  0  0  0  0  0  0  0  0999 V2000
   -0.7361    0.8625   -0.4758 C   0  0  0  0  0  0  0  0  0  0  0  0
   -1.8535   -0.1320    1.5217 N   0  0  0  0  0  0  0  0  0  0  0  0
    0.7298    0.5696   -0.2485 C   0  0  0  0  0  0  0  0  0  0  0  0
   -1.6788   -0.2346    0.0661 C   0  0  1  0  0  0  0  0  0  0  0  0
    1.3252    0.8254    0.9934 C   0  0  0  0  0  0  0  0  0  0  0  0
    1.5135    0.0258   -1.2760 C   0  0  0  0  0  0  0  0  0  0  0  0
   -3.0519   -0.1340   -0.6013 C   0  0  0  0  0  0  0  0  0  0  0  0
    2.6779    0.5510    1.2020 C   0  0  0  0  0  0  0  0  0  0  0  0
    2.8666   -0.2473   -1.0665 C   0  0  0  0  0  0  0  0  0  0  0  0
    3.4487    0.0164    0.1718 C   0  0  0  0  0  0  0  0  0  0  0  0
   -0.6836    0.0348   -0.8742 C   0  0  0  0  0  0  0  0  0  0  0  0
   -1.5833    1.6369    0.8143 N   0  0  0  0  0  0  0  0  0  0  0  0
    0.7294   -0.2256   -0.4032 C   0  0  0  0  0  0  0  0  0  0  0  0
   -1.6866    0.2733    0.2761 C   0  0  1  0  0  0  0  0  0  0  0  0
    1.5680    0.8357   -0.0388 C   0  0  0  0  0  0  0  0  0  0  0  0
    1.2183   -1.5365   -0.3131 C   0  0  0  0  0  0  0  0  0  0  0  0
   -3.1190    0.0450   -0.2106 C   0  0  0  0  0  0  0  0  0  0  0  0
    2.5221   -1.7783    0.1240 C   0  0  0  0  0  0  0  0  0  0  0  0
    2.8709    0.5927    0.3991 C   0  0  0  0  0  0  0  0  0  0  0  0
    3.3484   -0.7138    0.4788 C   0  0  0  0  0  0  0  0  0  0  0  0
   -0.7829    0.7421   -0.2327 C   0  0  0  0  0  0  0  0  0  0  0  0
   -1.8679   -0.9742    1.2180 N   0  0  0  0  0  0  0  0  0  0  0  0
    0.6955    0.5093   -0.0178 C   0  0  0  0  0  0  0  0  0  0  0  0
   -1.6296   -0.5483   -0.1682 C   0  0  1  0  0  0  0  0  0  0  0  0
    1.2154    0.3636    1.2748 C   0  0  0  0  0  0  0  0  0  0  0  0
    1.5680    0.4241   -1.1120 C   0  0  0  0  0  0  0  0  0  0  0  0
   -2.9799   -0.3339   -0.8549 C   0  0  0  0  0  0  0  0  0  0  0  0
    2.5801    0.1453    1.4706 C   0  0  0  0  0  0  0  0  0  0  0  0
    2.9330    0.2068   -0.9149 C   0  0  0  0  0  0  0  0  0  0  0  0
    3.4389    0.0686    0.3761 C   0  0  0  0  0  0  0  0  0  0  0  0
   -0.9831    1.8395   -0.0386 H   0  0  0  0  0  0  0  0  0  0  0  0
   -0.8976    0.9841   -1.5555 H   0  0  0  0  0  0  0  0  0  0  0  0
   -2.4693   -0.8775    1.8438 H   0  0  0  0  0  0  0  0  0  0  0  0
   -2.3199    0.7437    1.7539 H   0  0  0  0  0  0  0  0  0  0  0  0
   -1.2592   -1.2227   -0.1589 H   0  0  0  0  0  0  0  0  0  0  0  0
    0.7314    1.2308    1.8098 H   0  0  0  0  0  0  0  0  0  0  0  0
    1.0752   -0.1890   -2.2476 H   0  0  0  0  0  0  0  0  0  0  0  0
   -2.9647   -0.2629   -1.6856 H   0  0  0  0  0  0  0  0  0  0  0  0
   -3.5197    0.8392   -0.4141 H   0  0  0  0  0  0  0  0  0  0  0  0
   -3.7283   -0.9127   -0.2314 H   0  0  0  0  0  0  0  0  0  0  0  0
    3.1268    0.7504    2.1712 H   0  0  0  0  0  0  0  0  0  0  0  0
    3.4660   -0.6677   -1.8695 H   0  0  0  0  0  0  0  0  0  0  0  0
    4.5010   -0.1985    0.3357 H   0  0  0  0  0  0  0  0  0  0  0  0
   -0.6830    0.8825   -1.5728 H   0  0  0  0  0  0  0  0  0  0  0  0
   -1.0096   -0.8272   -1.4719 H   0  0  0  0  0  0  0  0  0  0  0  0
   -2.2489    1.7527    1.5775 H   0  0  0  0  0  0  0  0  0  0  0  0
   -1.8486    2.3127    0.0994 H   0  0  0  0  0  0  0  0  0  0  0  0
   -1.4843   -0.4320    1.0912 H   0  0  0  0  0  0  0  0  0  0  0  0
    1.2031    1.8595   -0.0843 H   0  0  0  0  0  0  0  0  0  0  0  0
    0.5866   -2.3793   -0.5831 H   0  0  0  0  0  0  0  0  0  0  0  0
   -3.2464   -0.9827   -0.5678 H   0  0  0  0  0  0  0  0  0  0  0  0
   -3.8405    0.2030    0.5989 H   0  0  0  0  0  0  0  0  0  0  0  0
   -3.3772    0.7220   -1.0327 H   0  0  0  0  0  0  0  0  0  0  0  0
    2.8922   -2.7978    0.1893 H   0  0  0  0  0  0  0  0  0  0  0  0
    3.5099    1.4245    0.6826 H   0  0  0  0  0  0  0  0  0  0  0  0
    4.3621   -0.9020    0.8213 H   0  0  0  0  0  0  0  0  0  0  0  0
   -0.9155    1.2189   -1.2133 H   0  0  0  0  0  0  0  0  0  0  0  0
   -1.1435    1.4816    0.4952 H   0  0  0  0  0  0  0  0  0  0  0  0
   -2.4287   -0.2756    1.7036 H   0  0  0  0  0  0  0  0  0  0  0  0
   -2.4170   -1.8329    1.2204 H   0  0  0  0  0  0  0  0  0  0  0  0
   -1.1042   -1.3581   -0.6890 H   0  0  0  0  0  0  0  0  0  0  0  0
    0.5536    0.4087    2.1370 H   0  0  0  0  0  0  0  0  0  0  0  0
    1.1902    0.5267   -2.1264 H   0  0  0  0  0  0  0  0  0  0  0  0
   -3.5503    0.4712   -0.3781 H   0  0  0  0  0  0  0  0  0  0  0  0
   -3.5875   -1.2453   -0.8234 H   0  0  0  0  0  0  0  0  0  0  0  0
   -2.8397   -0.0692   -1.9086 H   0  0  0  0  0  0  0  0  0  0  0  0
    2.9701    0.0301    2.4782 H   0  0  0  0  0  0  0  0  0  0  0  0
    3.6013    0.1434   -1.7694 H   0  0  0  0  0  0  0  0  0  0  0  0
    4.5007   -0.1030    0.5294 H   0  0  0  0  0  0  0  0  0  0  0  0
  4  2  1  0
  3  1  1  0
  4  1  1  0
  5  3  2  0
  6  3  1  0
  4  7  1  0
  8  5  1  0
  9  6  2  0
 10  8  2  0
  9 10  1  0
 12 14  1  0
 13 11  1  0
 14 11  1  0
 15 13  2  0
 16 13  1  0
 17 14  1  0
 18 16  2  0
 19 15  1  0
 20 18  1  0
 19 20  2  0
 24 22  1  0
 23 21  1  0
 24 21  1  0
 25 23  2  0
 26 23  1  0
 24 27  1  0
 28 25  1  0
 29 26  2  0
 30 28  2  0
 29 30  1  0
  1 31  1  0
  1 32  1  0
  2 33  1  0
  2 34  1  0
  4 35  1  1
  5 36  1  0
  6 37  1  0
  7 38  1  0
  7 39  1  0
  7 40  1  0
  8 41  1  0
  9 42  1  0
 10 43  1  0
 11 44  1  0
 11 45  1  0
 12 46  1  0
 12 47  1  0
 14 48  1  1
 15 49  1  0
 16 50  1  0
 17 51  1  0
 17 52  1  0
 17 53  1  0
 18 54  1  0
 19 55  1  0
 20 56  1  0
 21 57  1  0
 21 58  1  0
 22 59  1  0
 22 60  1  0
 24 61  1  6
 25 62  1  0
 26 63  1  0
 27 64  1  0
 27 65  1  0
 27 66  1  0
 28 67  1  0
 29 68  1  0
 30 69  1  0
M  END
$$$$
