
     RDKit          3D

 69 69  0  0  0  0  0  0  0  0999 V2000
   -0.5978   -0.3161   -0.8807 C   0  0  0  0  0  0  0  0  0  0  0  0
   -2.0347    1.2240    0.4575 N   0  0  0  0  0  0  0  0  0  0  0  0
    0.7917   -0.0713   -0.3370 C   0  0  0  0  0  0  0  0  0  0  0  0
   -1.7115   -0.1828    0.1814 C   0  0  1  0  0  0  0  0  0  0  0  0
    1.2699    1.2334   -0.1596 C   0  0  0  0  0  0  0  0  0  0  0  0
    1.6194   -1.1487    0.0092 C   0  0  0  0  0  0  0  0  0  0  0  0
   -2.9819   -0.8954   -0.2870 C   0  0  0  0  0  0  0  0  0  0  0  0
    2.5517    1.4570    0.3456 C   0  0  0  0  0  0  0  0  0  0  0  0
    2.9018   -0.9238    0.5135 C   0  0  0  0  0  0  0  0  0  0  0  0
    3.3680    0.3786    0.6805 C   0  0  0  0  0  0  0  0  0  0  0  0
   -0.7276    0.9995   -0.3620 C   0  0  0  0  0  0  0  0  0  0  0  0
   -3.1029    0.9510    0.3369 N   0  0  0  0  0  0  0  0  0  0  0  0
    0.6546    0.4106   -0.2042 C   0  0  0  0  0  0  0  0  0  0  0  0
   -1.8283    0.2200    0.3895 C   0  0  1  0  0  0  0  0  0  0  0  0
    1.2701   -0.2588   -1.2706 C   0  0  0  0  0  0  0  0  0  0  0  0
    1.3400    0.5221    1.0135 C   0  0  0  0  0  0  0  0  0  0  0  0
   -2.0537   -1.1751   -0.1944 C   0  0  0  0  0  0  0  0  0  0  0  0
    2.6145   -0.0271    1.1615 C   0  0  0  0  0  0  0  0  0  0  0  0
    2.5448   -0.8075   -1.1204 C   0  0  0  0  0  0  0  0  0  0  0  0
    3.2164   -0.6918    0.0951 C   0  0  0  0  0  0  0  0  0  0  0  0
    0.6614    0.4966   -0.6562 C   0  0  0  0  0  0  0  0  0  0  0  0
    1.8369   -1.5739    0.0912 N   0  0  0  0  0  0  0  0  0  0  0  0
   -0.7643    0.2838   -0.1997 C   0  0  0  0  0  0  0  0  0  0  0  0
    1.7142   -0.1228    0.2893 C   0  0  1  0  0  0  0  0  0  0  0  0
   -1.4187   -0.9307   -0.4431 C   0  0  0  0  0  0  0  0  0  0  0  0
   -1.4499    1.2969    0.4855 C   0  0  0  0  0  0  0  0  0  0  0  0
    3.0824    0.5215    0.0576 C   0  0  0  0  0  0  0  0  0  0  0  0
   -2.7337   -1.1261   -0.0177 C   0  0  0  0  0  0  0  0  0  0  0  0
   -2.7655    1.1006    0.9095 C   0  0  0  0  0  0  0  0  0  0  0  0
   -3.4075   -0.1101    0.6569 C   0  0  0  0  0  0  0  0  0  0  0  0
   -0.7817    0.3616   -1.7254 H   0  0  0  0  0  0  0  0  0  0  0  0
   -0.6232   -1.3252   -1.3138 H   0  0  0  0  0  0  0  0  0  0  0  0
   -2.7620    1.2724    1.1699 H   0  0  0  0  0  0  0  0  0  0  0  0
   -2.4234    1.6606   -0.3771 H   0  0  0  0  0  0  0  0  0  0  0  0
   -1.3823   -0.6481    1.1184 H   0  0  0  0  0  0  0  0  0  0  0  0
    0.6378    2.0840   -0.4052 H   0  0  0  0  0  0  0  0  0  0  0  0
    1.2709   -2.1715   -0.1118 H   0  0  0  0  0  0  0  0  0  0  0  0
   -3.7778   -0.8153    0.4618 H   0  0  0  0  0  0  0  0  0  0  0  0
   -2.7893   -1.9615   -0.4487 H   0  0  0  0  0  0  0  0  0  0  0  0
   -3.3561   -0.4741   -1.2269 H   0  0  0  0  0  0  0  0  0  0  0  0
    2.9093    2.4739    0.4821 H   0  0  0  0  0  0  0  0  0  0  0  0
    3.5362   -1.7655    0.7779 H   0  0  0  0  0  0  0  0  0  0  0  0
    4.3650    0.5537    1.0753 H   0  0  0  0  0  0  0  0  0  0  0  0
   -0.6898    2.0351    0.0034 H   0  0  0  0  0  0  0  0  0  0  0  0
   -0.9812    1.0733   -1.4281 H   0  0  0  0  0  0  0  0  0  0  0  0
   -3.3952    1.0664   -0.6330 H   0  0  0  0  0  0  0  0  0  0  0  0
   -2.9747    1.8911    0.7094 H   0  0  0  0  0  0  0  0  0  0  0  0
   -1.5532    0.1124    1.4453 H   0  0  0  0  0  0  0  0  0  0  0  0
    0.7598   -0.3610   -2.2256 H   0  0  0  0  0  0  0  0  0  0  0  0
    0.8849    1.0391    1.8555 H   0  0  0  0  0  0  0  0  0  0  0  0
   -1.1608   -1.7988   -0.0845 H   0  0  0  0  0  0  0  0  0  0  0  0
   -2.8712   -1.6889    0.3245 H   0  0  0  0  0  0  0  0  0  0  0  0
   -2.3066   -1.1297   -1.2597 H   0  0  0  0  0  0  0  0  0  0  0  0
    3.1380    0.0640    2.1097 H   0  0  0  0  0  0  0  0  0  0  0  0
    3.0137   -1.3262   -1.9524 H   0  0  0  0  0  0  0  0  0  0  0  0
    4.2086   -1.1196    0.2111 H   0  0  0  0  0  0  0  0  0  0  0  0
    0.7775    0.1078   -1.6770 H   0  0  0  0  0  0  0  0  0  0  0  0
    0.8360    1.5777   -0.7412 H   0  0  0  0  0  0  0  0  0  0  0  0
    2.1887   -1.7674   -0.8453 H   0  0  0  0  0  0  0  0  0  0  0  0
    2.5290   -1.9483    0.7390 H   0  0  0  0  0  0  0  0  0  0  0  0
    1.4221    0.0564    1.3311 H   0  0  0  0  0  0  0  0  0  0  0  0
   -0.8994   -1.7364   -0.9575 H   0  0  0  0  0  0  0  0  0  0  0  0
   -0.9636    2.2468    0.6936 H   0  0  0  0  0  0  0  0  0  0  0  0
    3.8373    0.0963    0.7286 H   0  0  0  0  0  0  0  0  0  0  0  0
    3.4251    0.3783   -0.9734 H   0  0  0  0  0  0  0  0  0  0  0  0
    3.0399    1.5987    0.2521 H   0  0  0  0  0  0  0  0  0  0  0  0
   -3.2286   -2.0742   -0.2092 H   0  0  0  0  0  0  0  0  0  0  0  0
   -3.2888    1.8923    1.4389 H   0  0  0  0  0  0  0  0  0  0  0  0
   -4.4304   -0.2638    0.9892 H   0  0  0  0  0  0  0  0  0  0  0  0
  4  2  1  0
  3  1  1  0
  4  1  1  0
  5  3  2  0
  6  3  1  0
  4  7  1  0
  8  5  1  0
  9  6  2  0
 10  8  2  0
  9 10  1  0
 12 14  1  0
 13 11  1  0
 14 11  1  0
 15 13  2  0
 16 13  1  0
 17 14  1  0
 18 16  2  0
 19 15  1  0
 20 18  1  0
 19 20  2  0
 24 22  1  0
 23 21  1  0
 24 21  1  0
 25 23  2  0
 26 23  1  0
 24 27  1  0
 28 25  1  0
 29 26  2  0
 30 28  2  0
 29 30  1  0
  1 31  1  0
  1 32  1  0
  2 33  1  0
  2 34  1  0
  4 35  1  1
  5 36  1  0
  6 37  1  0
  7 38  1  0
  7 39  1  0
  7 40  1  0
  8 41  1  0
  9 42  1  0
 10 43  1  0
 11 44  1  0
 11 45  1  0
 12 46  1  0
 12 47  1  0
 14 48  1  1
 15 49  1  0
 16 50  1  0
 17 51  1  0
 17 52  1  0
 17 53  1  0
 18 54  1  0
 19 55  1  0
 20 56  1  0
 21 57  1  0
 21 58  1  0
 22 59  1  0
 22 60  1  0
 24 61  1  1
 25 62  1  0
 26 63  1  0
 27 64  1  0
 27 65  1  0
 27 66  1  0
 28 67  1  0
 29 68  1  0
 30 69  1  0
M  END
$$$$
