
     RDKit          3D

 69 69  0  0  0  0  0  0  0  0999 V2000
    0.7663   -0.9253   -0.2282 C   0  0  0  0  0  0  0  0  0  0  0  0
    1.8769    1.2655    0.1998 N   0  0  0  0  0  0  0  0  0  0  0  0
   -0.6710   -0.4688   -0.1122 C   0  0  0  0  0  0  0  0  0  0  0  0
    1.7160    0.1679   -0.7625 C   0  0  1  0  0  0  0  0  0  0  0  0
   -1.1983   -0.0917    1.1303 C   0  0  0  0  0  0  0  0  0  0  0  0
   -1.4902   -0.4004   -1.2474 C   0  0  0  0  0  0  0  0  0  0  0  0
    3.0937   -0.4221   -1.0593 C   0  0  0  0  0  0  0  0  0  0  0  0
   -2.5201    0.3433    1.2354 C   0  0  0  0  0  0  0  0  0  0  0  0
   -2.8121    0.0345   -1.1401 C   0  0  0  0  0  0  0  0  0  0  0  0
   -3.3266    0.4061    0.1007 C   0  0  0  0  0  0  0  0  0  0  0  0
   -0.6852   -0.1043   -0.8085 C   0  0  0  0  0  0  0  0  0  0  0  0
   -2.0486    0.7598    1.0947 N   0  0  0  0  0  0  0  0  0  0  0  0
    0.7403    0.1349   -0.3644 C   0  0  0  0  0  0  0  0  0  0  0  0
   -1.6475   -0.4429    0.3513 C   0  0  1  0  0  0  0  0  0  0  0  0
    1.6982   -0.8833   -0.4711 C   0  0  0  0  0  0  0  0  0  0  0  0
    1.1240    1.3715    0.1703 C   0  0  0  0  0  0  0  0  0  0  0  0
   -2.9049   -1.1310   -0.1839 C   0  0  0  0  0  0  0  0  0  0  0  0
    2.4397    1.5890    0.5826 C   0  0  0  0  0  0  0  0  0  0  0  0
    3.0142   -0.6642   -0.0594 C   0  0  0  0  0  0  0  0  0  0  0  0
    3.3849    0.5720    0.4661 C   0  0  0  0  0  0  0  0  0  0  0  0
   -0.7684   -0.3562   -0.9939 C   0  0  0  0  0  0  0  0  0  0  0  0
   -3.1007    0.4235   -0.8480 N   0  0  0  0  0  0  0  0  0  0  0  0
    0.6448   -0.2436   -0.4695 C   0  0  0  0  0  0  0  0  0  0  0  0
   -1.8023    0.4277   -0.1591 C   0  0  1  0  0  0  0  0  0  0  0  0
    1.3752    0.9406   -0.6408 C   0  0  0  0  0  0  0  0  0  0  0  0
    1.2430   -1.3192    0.2008 C   0  0  0  0  0  0  0  0  0  0  0  0
   -1.9940   -0.1686    1.2359 C   0  0  0  0  0  0  0  0  0  0  0  0
    2.6771    1.0466   -0.1490 C   0  0  0  0  0  0  0  0  0  0  0  0
    2.5449   -1.2110    0.6922 C   0  0  0  0  0  0  0  0  0  0  0  0
    3.2613   -0.0286    0.5177 C   0  0  0  0  0  0  0  0  0  0  0  0
    0.7917   -1.7967   -0.8964 H   0  0  0  0  0  0  0  0  0  0  0  0
    1.1190   -1.2934    0.7447 H   0  0  0  0  0  0  0  0  0  0  0  0
    0.9604    1.6784    0.3821 H   0  0  0  0  0  0  0  0  0  0  0  0
    2.4386    2.0053   -0.2195 H   0  0  0  0  0  0  0  0  0  0  0  0
    1.3108    0.5838   -1.6931 H   0  0  0  0  0  0  0  0  0  0  0  0
   -0.5775   -0.1318    2.0231 H   0  0  0  0  0  0  0  0  0  0  0  0
   -1.1034   -0.6879   -2.2223 H   0  0  0  0  0  0  0  0  0  0  0  0
    3.5531   -0.8441   -0.1582 H   0  0  0  0  0  0  0  0  0  0  0  0
    3.0192   -1.2211   -1.8049 H   0  0  0  0  0  0  0  0  0  0  0  0
    3.7714    0.3401   -1.4599 H   0  0  0  0  0  0  0  0  0  0  0  0
   -2.9200    0.6328    2.2036 H   0  0  0  0  0  0  0  0  0  0  0  0
   -3.4414    0.0822   -2.0250 H   0  0  0  0  0  0  0  0  0  0  0  0
   -4.3563    0.7436    0.1836 H   0  0  0  0  0  0  0  0  0  0  0  0
   -1.0425    0.7706   -1.3686 H   0  0  0  0  0  0  0  0  0  0  0  0
   -0.6837   -0.9275   -1.5358 H   0  0  0  0  0  0  0  0  0  0  0  0
   -2.5858    1.3785    0.4891 H   0  0  0  0  0  0  0  0  0  0  0  0
   -2.6709    0.4963    1.8577 H   0  0  0  0  0  0  0  0  0  0  0  0
   -1.1526   -1.1277    1.0506 H   0  0  0  0  0  0  0  0  0  0  0  0
    1.4259   -1.8549   -0.8762 H   0  0  0  0  0  0  0  0  0  0  0  0
    0.3927    2.1696    0.2783 H   0  0  0  0  0  0  0  0  0  0  0  0
   -3.4407   -0.4927   -0.8956 H   0  0  0  0  0  0  0  0  0  0  0  0
   -3.5932   -1.3838    0.6304 H   0  0  0  0  0  0  0  0  0  0  0  0
   -2.6461   -2.0639   -0.6965 H   0  0  0  0  0  0  0  0  0  0  0  0
    2.7236    2.5515    0.9993 H   0  0  0  0  0  0  0  0  0  0  0  0
    3.7497   -1.4592   -0.1472 H   0  0  0  0  0  0  0  0  0  0  0  0
    4.4084    0.7417    0.7888 H   0  0  0  0  0  0  0  0  0  0  0  0
   -0.7673    0.0126   -2.0291 H   0  0  0  0  0  0  0  0  0  0  0  0
   -1.0587   -1.4135   -1.0591 H   0  0  0  0  0  0  0  0  0  0  0  0
   -3.0111    0.8944   -1.7477 H   0  0  0  0  0  0  0  0  0  0  0  0
   -3.7737    0.9668   -0.3081 H   0  0  0  0  0  0  0  0  0  0  0  0
   -1.4810    1.4706   -0.0516 H   0  0  0  0  0  0  0  0  0  0  0  0
    0.9346    1.7874   -1.1619 H   0  0  0  0  0  0  0  0  0  0  0  0
    0.6965   -2.2484    0.3467 H   0  0  0  0  0  0  0  0  0  0  0  0
   -2.7633    0.3774    1.7941 H   0  0  0  0  0  0  0  0  0  0  0  0
   -2.2975   -1.2203    1.1851 H   0  0  0  0  0  0  0  0  0  0  0  0
   -1.0709   -0.1101    1.8213 H   0  0  0  0  0  0  0  0  0  0  0  0
    3.2364    1.9681   -0.2875 H   0  0  0  0  0  0  0  0  0  0  0  0
    2.9999   -2.0504    1.2114 H   0  0  0  0  0  0  0  0  0  0  0  0
    4.2751    0.0542    0.9000 H   0  0  0  0  0  0  0  0  0  0  0  0
  4  2  1  0
  3  1  1  0
  4  1  1  0
  5  3  2  0
  6  3  1  0
  4  7  1  0
  8  5  1  0
  9  6  2  0
 10  8  2  0
  9 10  1  0
 12 14  1  0
 13 11  1  0
 14 11  1  0
 15 13  2  0
 16 13  1  0
 17 14  1  0
 18 16  2  0
 19 15  1  0
 20 18  1  0
 19 20  2  0
 24 22  1  0
 23 21  1  0
 24 21  1  0
 25 23  2  0
 26 23  1  0
 24 27  1  0
 28 25  1  0
 29 26  2  0
 30 28  2  0
 29 30  1  0
  1 31  1  0
  1 32  1  0
  2 33  1  0
  2 34  1  0
  4 35  1  6
  5 36  1  0
  6 37  1  0
  7 38  1  0
  7 39  1  0
  7 40  1  0
  8 41  1  0
  9 42  1  0
 10 43  1  0
 11 44  1  0
 11 45  1  0
 12 46  1  0
 12 47  1  0
 14 48  1  1
 15 49  1  0
 16 50  1  0
 17 51  1  0
 17 52  1  0
 17 53  1  0
 18 54  1  0
 19 55  1  0
 20 56  1  0
 21 57  1  0
 21 58  1  0
 22 59  1  0
 22 60  1  0
 24 61  1  1
 25 62  1  0
 26 63  1  0
 27 64  1  0
 27 65  1  0
 27 66  1  0
 28 67  1  0
 29 68  1  0
 30 69  1  0
M  END
$$$$
