
     RDKit          3D

 69 69  0  0  0  0  0  0  0  0999 V2000
   -0.6568    1.3773   -0.0713 C   0  0  0  0  0  0  0  0  0  0  0  0
   -1.9309   -0.1600   -1.5861 N   0  0  0  0  0  0  0  0  0  0  0  0
    0.6181    0.5727    0.0540 C   0  0  0  0  0  0  0  0  0  0  0  0
   -1.9525    0.5673   -0.3106 C   0  0  1  0  0  0  0  0  0  0  0  0
    1.0824    0.1579    1.3098 C   0  0  0  0  0  0  0  0  0  0  0  0
    1.3563    0.2302   -1.0875 C   0  0  0  0  0  0  0  0  0  0  0  0
   -2.2740   -0.3941    0.8340 C   0  0  0  0  0  0  0  0  0  0  0  0
    2.2561   -0.5899    1.4196 C   0  0  0  0  0  0  0  0  0  0  0  0
    2.5294   -0.5174   -0.9764 C   0  0  0  0  0  0  0  0  0  0  0  0
    2.9785   -0.9281    0.2770 C   0  0  0  0  0  0  0  0  0  0  0  0
   -0.7595    1.0183    0.7317 C   0  0  0  0  0  0  0  0  0  0  0  0
   -2.1036    0.6910   -1.3637 N   0  0  0  0  0  0  0  0  0  0  0  0
    0.5937    0.4377    0.3876 C   0  0  0  0  0  0  0  0  0  0  0  0
   -1.9897    0.3612    0.0620 C   0  0  1  0  0  0  0  0  0  0  0  0
    1.1627    0.6391   -0.8765 C   0  0  0  0  0  0  0  0  0  0  0  0
    1.3075   -0.3080    1.3372 C   0  0  0  0  0  0  0  0  0  0  0  0
   -2.0308   -1.1549    0.2474 C   0  0  0  0  0  0  0  0  0  0  0  0
    2.5601   -0.8413    1.0269 C   0  0  0  0  0  0  0  0  0  0  0  0
    2.4148    0.1048   -1.1863 C   0  0  0  0  0  0  0  0  0  0  0  0
    3.1135   -0.6348   -0.2348 C   0  0  0  0  0  0  0  0  0  0  0  0
   -0.7054   -1.1665   -0.5102 C   0  0  0  0  0  0  0  0  0  0  0  0
   -2.2275   -0.3561    1.3149 N   0  0  0  0  0  0  0  0  0  0  0  0
    0.6186   -0.5075   -0.1950 C   0  0  0  0  0  0  0  0  0  0  0  0
   -1.9823   -0.3790   -0.1321 C   0  0  1  0  0  0  0  0  0  0  0  0
    1.4233   -0.0033   -1.2273 C   0  0  0  0  0  0  0  0  0  0  0  0
    1.0700   -0.3956    1.1264 C   0  0  0  0  0  0  0  0  0  0  0  0
   -1.9878    1.0472   -0.6805 C   0  0  0  0  0  0  0  0  0  0  0  0
    2.6495    0.6007   -0.9423 C   0  0  0  0  0  0  0  0  0  0  0  0
    2.2958    0.2092    1.4106 C   0  0  0  0  0  0  0  0  0  0  0  0
    3.0855    0.7068    0.3765 C   0  0  0  0  0  0  0  0  0  0  0  0
   -0.5310    2.1051   -0.8849 H   0  0  0  0  0  0  0  0  0  0  0  0
   -0.7796    1.9855    0.8351 H   0  0  0  0  0  0  0  0  0  0  0  0
   -2.7911   -0.6978   -1.6856 H   0  0  0  0  0  0  0  0  0  0  0  0
   -1.1782   -0.8502   -1.5580 H   0  0  0  0  0  0  0  0  0  0  0  0
   -2.7735    1.2924   -0.3719 H   0  0  0  0  0  0  0  0  0  0  0  0
    0.5322    0.4150    2.2119 H   0  0  0  0  0  0  0  0  0  0  0  0
    1.0167    0.5469   -2.0721 H   0  0  0  0  0  0  0  0  0  0  0  0
   -3.2636   -0.8442    0.6954 H   0  0  0  0  0  0  0  0  0  0  0  0
   -1.5479   -1.2111    0.9018 H   0  0  0  0  0  0  0  0  0  0  0  0
   -2.2844    0.1347    1.7931 H   0  0  0  0  0  0  0  0  0  0  0  0
    2.6078   -0.9070    2.3978 H   0  0  0  0  0  0  0  0  0  0  0  0
    3.0933   -0.7767   -1.8685 H   0  0  0  0  0  0  0  0  0  0  0  0
    3.8930   -1.5087    0.3634 H   0  0  0  0  0  0  0  0  0  0  0  0
   -0.7427    2.0928    0.5030 H   0  0  0  0  0  0  0  0  0  0  0  0
   -0.8992    0.9649    1.8202 H   0  0  0  0  0  0  0  0  0  0  0  0
   -2.2009    1.6988   -1.4754 H   0  0  0  0  0  0  0  0  0  0  0  0
   -2.9497    0.2718   -1.7467 H   0  0  0  0  0  0  0  0  0  0  0  0
   -2.8789    0.7783    0.5520 H   0  0  0  0  0  0  0  0  0  0  0  0
    0.6272    1.2082   -1.6329 H   0  0  0  0  0  0  0  0  0  0  0  0
    0.8917   -0.4814    2.3269 H   0  0  0  0  0  0  0  0  0  0  0  0
   -2.9776   -1.5658   -0.1211 H   0  0  0  0  0  0  0  0  0  0  0  0
   -1.2210   -1.6574   -0.2925 H   0  0  0  0  0  0  0  0  0  0  0  0
   -1.9486   -1.4175    1.3075 H   0  0  0  0  0  0  0  0  0  0  0  0
    3.1031   -1.4190    1.7699 H   0  0  0  0  0  0  0  0  0  0  0  0
    2.8412    0.2643   -2.1729 H   0  0  0  0  0  0  0  0  0  0  0  0
    4.0871   -1.0513   -0.4775 H   0  0  0  0  0  0  0  0  0  0  0  0
   -0.7459   -1.3780   -1.5876 H   0  0  0  0  0  0  0  0  0  0  0  0
   -0.7230   -2.1541   -0.0292 H   0  0  0  0  0  0  0  0  0  0  0  0
   -2.3471   -1.3081    1.6571 H   0  0  0  0  0  0  0  0  0  0  0  0
   -3.0992    0.1351    1.5079 H   0  0  0  0  0  0  0  0  0  0  0  0
   -2.8292   -0.9104   -0.5849 H   0  0  0  0  0  0  0  0  0  0  0  0
    1.0995   -0.0753   -2.2629 H   0  0  0  0  0  0  0  0  0  0  0  0
    0.4622   -0.7726    1.9458 H   0  0  0  0  0  0  0  0  0  0  0  0
   -1.8076    1.0470   -1.7609 H   0  0  0  0  0  0  0  0  0  0  0  0
   -2.9586    1.5258   -0.5087 H   0  0  0  0  0  0  0  0  0  0  0  0
   -1.2233    1.6727   -0.2071 H   0  0  0  0  0  0  0  0  0  0  0  0
    3.2636    0.9894   -1.7501 H   0  0  0  0  0  0  0  0  0  0  0  0
    2.6304    0.2941    2.4409 H   0  0  0  0  0  0  0  0  0  0  0  0
    4.0385    1.1786    0.5989 H   0  0  0  0  0  0  0  0  0  0  0  0
  4  2  1  0
  3  1  1  0
  4  1  1  0
  5  3  2  0
  6  3  1  0
  4  7  1  0
  8  5  1  0
  9  6  2  0
 10  8  2  0
  9 10  1  0
 12 14  1  0
 13 11  1  0
 14 11  1  0
 15 13  2  0
 16 13  1  0
 17 14  1  0
 18 16  2  0
 19 15  1  0
 20 18  1  0
 19 20  2  0
 24 22  1  0
 23 21  1  0
 24 21  1  0
 25 23  2  0
 26 23  1  0
 24 27  1  0
 28 25  1  0
 29 26  2  0
 30 28  2  0
 29 30  1  0
  1 31  1  0
  1 32  1  0
  2 33  1  0
  2 34  1  0
  4 35  1  6
  5 36  1  0
  6 37  1  0
  7 38  1  0
  7 39  1  0
  7 40  1  0
  8 41  1  0
  9 42  1  0
 10 43  1  0
 11 44  1  0
 11 45  1  0
 12 46  1  0
 12 47  1  0
 14 48  1  1
 15 49  1  0
 16 50  1  0
 17 51  1  0
 17 52  1  0
 17 53  1  0
 18 54  1  0
 19 55  1  0
 20 56  1  0
 21 57  1  0
 21 58  1  0
 22 59  1  0
 22 60  1  0
 24 61  1  6
 25 62  1  0
 26 63  1  0
 27 64  1  0
 27 65  1  0
 27 66  1  0
 28 67  1  0
 29 68  1  0
 30 69  1  0
M  END
$$$$
