
     RDKit          3D

 69 69  0  0  0  0  0  0  0  0999 V2000
   -0.7187   -0.8441   -0.0612 C   0  0  0  0  0  0  0  0  0  0  0  0
   -1.9732    1.2229   -0.6784 N   0  0  0  0  0  0  0  0  0  0  0  0
    0.7311   -0.4278   -0.1672 C   0  0  0  0  0  0  0  0  0  0  0  0
   -1.6561    0.2890    0.4112 C   0  0  1  0  0  0  0  0  0  0  0  0
    1.6337   -0.7280    0.8628 C   0  0  0  0  0  0  0  0  0  0  0  0
    1.1930    0.2733   -1.2885 C   0  0  0  0  0  0  0  0  0  0  0  0
   -2.9627   -0.2928    0.9548 C   0  0  0  0  0  0  0  0  0  0  0  0
    2.9721   -0.3420    0.7672 C   0  0  0  0  0  0  0  0  0  0  0  0
    2.5310    0.6595   -1.3826 C   0  0  0  0  0  0  0  0  0  0  0  0
    3.4207    0.3504   -0.3557 C   0  0  0  0  0  0  0  0  0  0  0  0
    0.7427   -1.0979   -0.7622 C   0  0  0  0  0  0  0  0  0  0  0  0
    1.9021    1.0663   -1.2652 N   0  0  0  0  0  0  0  0  0  0  0  0
   -0.5799   -0.5441   -0.2801 C   0  0  0  0  0  0  0  0  0  0  0  0
    1.9817   -0.2019   -0.5293 C   0  0  1  0  0  0  0  0  0  0  0  0
   -1.3488    0.2820   -1.1118 C   0  0  0  0  0  0  0  0  0  0  0  0
   -1.0584   -0.8471    1.0020 C   0  0  0  0  0  0  0  0  0  0  0  0
    2.2514    0.0688    0.9513 C   0  0  0  0  0  0  0  0  0  0  0  0
   -2.2765   -0.3283    1.4445 C   0  0  0  0  0  0  0  0  0  0  0  0
   -2.5663    0.8000   -0.6683 C   0  0  0  0  0  0  0  0  0  0  0  0
   -3.0294    0.4956    0.6101 C   0  0  0  0  0  0  0  0  0  0  0  0
   -0.8560    0.4148    1.2442 C   0  0  0  0  0  0  0  0  0  0  0  0
   -2.0959    1.2647   -0.7670 N   0  0  0  0  0  0  0  0  0  0  0  0
    0.5470    0.1804    0.7312 C   0  0  0  0  0  0  0  0  0  0  0  0
   -2.0106    0.1979    0.2375 C   0  0  1  0  0  0  0  0  0  0  0  0
    1.1459    1.0782   -0.1620 C   0  0  0  0  0  0  0  0  0  0  0  0
    1.2774   -0.9411    1.1510 C   0  0  0  0  0  0  0  0  0  0  0  0
   -1.9497   -1.1623   -0.4560 C   0  0  0  0  0  0  0  0  0  0  0  0
    2.4435    0.8589   -0.6280 C   0  0  0  0  0  0  0  0  0  0  0  0
    2.5754   -1.1592    0.6851 C   0  0  0  0  0  0  0  0  0  0  0  0
    3.1583   -0.2592   -0.2043 C   0  0  0  0  0  0  0  0  0  0  0  0
   -0.7823   -1.6883    0.6387 H   0  0  0  0  0  0  0  0  0  0  0  0
   -1.0517   -1.2484   -1.0268 H   0  0  0  0  0  0  0  0  0  0  0  0
   -2.5813    1.9616   -0.3270 H   0  0  0  0  0  0  0  0  0  0  0  0
   -2.5002    0.7412   -1.4053 H   0  0  0  0  0  0  0  0  0  0  0  0
   -1.1711    0.8548    1.2159 H   0  0  0  0  0  0  0  0  0  0  0  0
    1.3004   -1.2651    1.7475 H   0  0  0  0  0  0  0  0  0  0  0  0
    0.5058    0.5319   -2.0912 H   0  0  0  0  0  0  0  0  0  0  0  0
   -3.4913   -0.8757    0.1921 H   0  0  0  0  0  0  0  0  0  0  0  0
   -3.6338    0.5010    1.3013 H   0  0  0  0  0  0  0  0  0  0  0  0
   -2.7666   -0.9523    1.8071 H   0  0  0  0  0  0  0  0  0  0  0  0
    3.6642   -0.5803    1.5703 H   0  0  0  0  0  0  0  0  0  0  0  0
    2.8758    1.2064   -2.2559 H   0  0  0  0  0  0  0  0  0  0  0  0
    4.4616    0.6530   -0.4291 H   0  0  0  0  0  0  0  0  0  0  0  0
    0.9123   -2.0715   -0.2825 H   0  0  0  0  0  0  0  0  0  0  0  0
    0.6565   -1.3226   -1.8343 H   0  0  0  0  0  0  0  0  0  0  0  0
    2.7251    1.6314   -1.0592 H   0  0  0  0  0  0  0  0  0  0  0  0
    1.1069    1.6017   -0.9119 H   0  0  0  0  0  0  0  0  0  0  0  0
    2.8469   -0.7466   -0.9272 H   0  0  0  0  0  0  0  0  0  0  0  0
   -0.9986    0.5255   -2.1133 H   0  0  0  0  0  0  0  0  0  0  0  0
   -0.4848   -1.4903    1.6652 H   0  0  0  0  0  0  0  0  0  0  0  0
    1.4750    0.6951    1.4034 H   0  0  0  0  0  0  0  0  0  0  0  0
    3.2088    0.5857    1.0824 H   0  0  0  0  0  0  0  0  0  0  0  0
    2.3043   -0.8696    1.5135 H   0  0  0  0  0  0  0  0  0  0  0  0
   -2.6390   -0.5689    2.4404 H   0  0  0  0  0  0  0  0  0  0  0  0
   -3.1537    1.4392   -1.3221 H   0  0  0  0  0  0  0  0  0  0  0  0
   -3.9783    0.8977    0.9546 H   0  0  0  0  0  0  0  0  0  0  0  0
   -0.9083    1.4326    1.6545 H   0  0  0  0  0  0  0  0  0  0  0  0
   -1.0308   -0.2446    2.1054 H   0  0  0  0  0  0  0  0  0  0  0  0
   -2.8953    1.0993   -1.3769 H   0  0  0  0  0  0  0  0  0  0  0  0
   -2.2610    2.1576   -0.3053 H   0  0  0  0  0  0  0  0  0  0  0  0
   -2.9447    0.2340    0.8127 H   0  0  0  0  0  0  0  0  0  0  0  0
    0.5989    1.9522   -0.5080 H   0  0  0  0  0  0  0  0  0  0  0  0
    0.8392   -1.6558    1.8435 H   0  0  0  0  0  0  0  0  0  0  0  0
   -1.8875   -1.9700    0.2811 H   0  0  0  0  0  0  0  0  0  0  0  0
   -2.8505   -1.3330   -1.0563 H   0  0  0  0  0  0  0  0  0  0  0  0
   -1.0867   -1.2441   -1.1256 H   0  0  0  0  0  0  0  0  0  0  0  0
    2.8931    1.5608   -1.3251 H   0  0  0  0  0  0  0  0  0  0  0  0
    3.1310   -2.0325    1.0158 H   0  0  0  0  0  0  0  0  0  0  0  0
    4.1675   -0.4296   -0.5687 H   0  0  0  0  0  0  0  0  0  0  0  0
  4  2  1  0
  3  1  1  0
  4  1  1  0
  5  3  2  0
  6  3  1  0
  4  7  1  0
  8  5  1  0
  9  6  2  0
 10  8  2  0
  9 10  1  0
 12 14  1  0
 13 11  1  0
 14 11  1  0
 15 13  2  0
 16 13  1  0
 17 14  1  0
 18 16  2  0
 19 15  1  0
 20 18  1  0
 19 20  2  0
 24 22  1  0
 23 21  1  0
 24 21  1  0
 25 23  2  0
 26 23  1  0
 24 27  1  0
 28 25  1  0
 29 26  2  0
 30 28  2  0
 29 30  1  0
  1 31  1  0
  1 32  1  0
  2 33  1  0
  2 34  1  0
  4 35  1  1
  5 36  1  0
  6 37  1  0
  7 38  1  0
  7 39  1  0
  7 40  1  0
  8 41  1  0
  9 42  1  0
 10 43  1  0
 11 44  1  0
 11 45  1  0
 12 46  1  0
 12 47  1  0
 14 48  1  6
 15 49  1  0
 16 50  1  0
 17 51  1  0
 17 52  1  0
 17 53  1  0
 18 54  1  0
 19 55  1  0
 20 56  1  0
 21 57  1  0
 21 58  1  0
 22 59  1  0
 22 60  1  0
 24 61  1  1
 25 62  1  0
 26 63  1  0
 27 64  1  0
 27 65  1  0
 27 66  1  0
 28 67  1  0
 29 68  1  0
 30 69  1  0
M  END
$$$$
