
     RDKit          2D

 30 30  0  0  0  0  0  0  0  0999 V2000
   -3.5651    5.6395    0.0000 C   0  0  0  0  0  0  0  0  0  0  0  0
   -2.8469    4.3827    0.0000 N   0  0  0  0  0  0  0  0  0  0  0  0
   -4.2930    5.2221    0.0000 C   0  0  0  0  0  0  0  0  0  0  0  0
   -2.8372    5.2076    0.0000 C   0  0  0  0  0  0  0  0  0  0  0  0
   -5.0113    5.6395    0.0000 C   0  0  0  0  0  0  0  0  0  0  0  0
   -4.2930    4.3874    0.0000 C   0  0  0  0  0  0  0  0  0  0  0  0
   -2.1190    5.6202    0.0000 C   0  0  0  0  0  0  0  0  0  0  0  0
   -5.7198    5.2076    0.0000 C   0  0  0  0  0  0  0  0  0  0  0  0
   -5.0113    3.9798    0.0000 C   0  0  0  0  0  0  0  0  0  0  0  0
   -5.7198    4.3729    0.0000 C   0  0  0  0  0  0  0  0  0  0  0  0
    3.7542    5.4753    0.0000 C   0  0  0  0  0  0  0  0  0  0  0  0
    5.1784    5.4753    0.0000 N   0  0  0  0  0  0  0  0  0  0  0  0
    3.0421    5.0538    0.0000 C   0  0  0  0  0  0  0  0  0  0  0  0
    4.4663    5.0587    0.0000 C   0  0  0  0  0  0  0  0  0  0  0  0
    3.0421    4.2255    0.0000 C   0  0  0  0  0  0  0  0  0  0  0  0
    2.3300    5.4656    0.0000 C   0  0  0  0  0  0  0  0  0  0  0  0
    4.4712    4.2400    0.0000 C   0  0  0  0  0  0  0  0  0  0  0  0
    1.6179    5.0538    0.0000 C   0  0  0  0  0  0  0  0  0  0  0  0
    2.3300    3.8186    0.0000 C   0  0  0  0  0  0  0  0  0  0  0  0
    1.6179    4.2255    0.0000 C   0  0  0  0  0  0  0  0  0  0  0  0
   -3.6603    2.7165    0.0000 C   0  0  0  0  0  0  0  0  0  0  0  0
   -2.9422    1.4597    0.0000 N   0  0  0  0  0  0  0  0  0  0  0  0
   -4.3882    2.2992    0.0000 C   0  0  0  0  0  0  0  0  0  0  0  0
   -2.9323    2.2846    0.0000 C   0  0  0  0  0  0  0  0  0  0  0  0
   -5.1065    2.7165    0.0000 C   0  0  0  0  0  0  0  0  0  0  0  0
   -4.3882    1.4645    0.0000 C   0  0  0  0  0  0  0  0  0  0  0  0
   -2.2142    2.6972    0.0000 C   0  0  0  0  0  0  0  0  0  0  0  0
   -5.8149    2.2846    0.0000 C   0  0  0  0  0  0  0  0  0  0  0  0
   -5.1065    1.0568    0.0000 C   0  0  0  0  0  0  0  0  0  0  0  0
   -5.8149    1.4499    0.0000 C   0  0  0  0  0  0  0  0  0  0  0  0
  4  2  1  6
  3  1  1  0
  4  1  1  0
  5  3  1  0
  6  3  2  0
  7  4  1  0
  8  5  2  0
  9  6  1  0
 10  8  1  0
  9 10  2  0
 12 14  1  0
 13 11  1  0
 14 11  1  0
 15 13  1  0
 16 13  2  0
 17 14  1  0
 18 16  1  0
 19 15  2  0
 20 18  2  0
 19 20  1  0
 24 22  1  6
 23 21  1  0
 24 21  1  0
 25 23  1  0
 26 23  2  0
 27 24  1  0
 28 25  2  0
 29 26  1  0
 30 28  1  0
 29 30  2  0
M  END
> <chembl_id>
CHEMBL5095505

> <chembl_pref_name>
AMPHETAMINE/DEXTROAMPHETAMINE
