
     RDKit          3D

 69 69  0  0  0  0  0  0  0  0999 V2000
    0.7785   -1.3044    0.1739 C   0  0  0  0  0  0  0  0  0  0  0  0
    1.8072   -0.0804   -1.7560 N   0  0  0  0  0  0  0  0  0  0  0  0
   -0.5577   -0.5963    0.2100 C   0  0  0  0  0  0  0  0  0  0  0  0
    1.9742   -0.4761   -0.3518 C   0  0  1  0  0  0  0  0  0  0  0  0
   -1.3920   -0.5972   -0.9166 C   0  0  0  0  0  0  0  0  0  0  0  0
   -0.9839    0.0700    1.3671 C   0  0  0  0  0  0  0  0  0  0  0  0
    2.2699    0.7543    0.5065 C   0  0  0  0  0  0  0  0  0  0  0  0
   -2.6226    0.0603   -0.8892 C   0  0  0  0  0  0  0  0  0  0  0  0
   -2.2151    0.7274    1.3933 C   0  0  0  0  0  0  0  0  0  0  0  0
   -3.0334    0.7233    0.2653 C   0  0  0  0  0  0  0  0  0  0  0  0
   -0.7160    0.2910   -1.3450 C   0  0  0  0  0  0  0  0  0  0  0  0
   -1.6967   -1.8222   -0.4211 N   0  0  0  0  0  0  0  0  0  0  0  0
    0.5760    0.3085   -0.5585 C   0  0  0  0  0  0  0  0  0  0  0  0
   -1.9224   -0.3907   -0.6579 C   0  0  1  0  0  0  0  0  0  0  0  0
    1.4724   -0.7662   -0.6422 C   0  0  0  0  0  0  0  0  0  0  0  0
    0.8987    1.3964    0.2643 C   0  0  0  0  0  0  0  0  0  0  0  0
   -2.3324    0.2964    0.6450 C   0  0  0  0  0  0  0  0  0  0  0  0
    2.0893    1.4048    0.9931 C   0  0  0  0  0  0  0  0  0  0  0  0
    2.6622   -0.7566    0.0869 C   0  0  0  0  0  0  0  0  0  0  0  0
    2.9700    0.3284    0.9051 C   0  0  0  0  0  0  0  0  0  0  0  0
   -0.7830   -0.7033    0.3499 C   0  0  0  0  0  0  0  0  0  0  0  0
   -1.8257    0.7122   -1.4211 N   0  0  0  0  0  0  0  0  0  0  0  0
    0.7002   -0.4775    0.1615 C   0  0  0  0  0  0  0  0  0  0  0  0
   -1.6450    0.5370    0.0269 C   0  0  1  0  0  0  0  0  0  0  0  0
    1.2767   -0.5443   -1.1135 C   0  0  0  0  0  0  0  0  0  0  0  0
    1.5199   -0.1858    1.2608 C   0  0  0  0  0  0  0  0  0  0  0  0
   -3.0222    0.4135    0.6819 C   0  0  0  0  0  0  0  0  0  0  0  0
    2.6455   -0.3320   -1.2855 C   0  0  0  0  0  0  0  0  0  0  0  0
    2.8892    0.0254    1.0877 C   0  0  0  0  0  0  0  0  0  0  0  0
    3.4518   -0.0489   -0.1850 C   0  0  0  0  0  0  0  0  0  0  0  0
    1.0128   -1.6657    1.1845 H   0  0  0  0  0  0  0  0  0  0  0  0
    0.6748   -2.2139   -0.4340 H   0  0  0  0  0  0  0  0  0  0  0  0
    2.6045    0.4840   -2.0475 H   0  0  0  0  0  0  0  0  0  0  0  0
    0.9949    0.5349   -1.8295 H   0  0  0  0  0  0  0  0  0  0  0  0
    2.8558   -1.1277   -0.3078 H   0  0  0  0  0  0  0  0  0  0  0  0
   -1.0830   -1.1133   -1.8239 H   0  0  0  0  0  0  0  0  0  0  0  0
   -0.3589    0.0811    2.2570 H   0  0  0  0  0  0  0  0  0  0  0  0
    2.3878    0.4738    1.5585 H   0  0  0  0  0  0  0  0  0  0  0  0
    1.4743    1.5039    0.4395 H   0  0  0  0  0  0  0  0  0  0  0  0
    3.2019    1.2344    0.1872 H   0  0  0  0  0  0  0  0  0  0  0  0
   -3.2608    0.0526   -1.7688 H   0  0  0  0  0  0  0  0  0  0  0  0
   -2.5367    1.2413    2.2953 H   0  0  0  0  0  0  0  0  0  0  0  0
   -3.9925    1.2337    0.2870 H   0  0  0  0  0  0  0  0  0  0  0  0
   -0.5290   -0.1964   -2.3120 H   0  0  0  0  0  0  0  0  0  0  0  0
   -0.9880    1.3248   -1.5980 H   0  0  0  0  0  0  0  0  0  0  0  0
   -0.9156   -1.9285    0.2288 H   0  0  0  0  0  0  0  0  0  0  0  0
   -2.5051   -2.2197    0.0560 H   0  0  0  0  0  0  0  0  0  0  0  0
   -2.7687   -0.3128   -1.3517 H   0  0  0  0  0  0  0  0  0  0  0  0
    1.2440   -1.6187   -1.2794 H   0  0  0  0  0  0  0  0  0  0  0  0
    0.2240    2.2457    0.3427 H   0  0  0  0  0  0  0  0  0  0  0  0
   -2.4953    1.3674    0.4838 H   0  0  0  0  0  0  0  0  0  0  0  0
   -3.2690   -0.1253    1.0272 H   0  0  0  0  0  0  0  0  0  0  0  0
   -1.5757    0.1796    1.4279 H   0  0  0  0  0  0  0  0  0  0  0  0
    2.3306    2.2529    1.6284 H   0  0  0  0  0  0  0  0  0  0  0  0
    3.3493   -1.5954    0.0138 H   0  0  0  0  0  0  0  0  0  0  0  0
    3.8974    0.3364    1.4714 H   0  0  0  0  0  0  0  0  0  0  0  0
   -1.0985   -1.5652   -0.2537 H   0  0  0  0  0  0  0  0  0  0  0  0
   -0.9535   -1.0070    1.3917 H   0  0  0  0  0  0  0  0  0  0  0  0
   -2.3530   -0.0721   -1.8019 H   0  0  0  0  0  0  0  0  0  0  0  0
   -2.3868    1.5450   -1.5956 H   0  0  0  0  0  0  0  0  0  0  0  0
   -1.1564    1.4362    0.4215 H   0  0  0  0  0  0  0  0  0  0  0  0
    0.6561   -0.7519   -1.9824 H   0  0  0  0  0  0  0  0  0  0  0  0
    1.0975   -0.1211    2.2606 H   0  0  0  0  0  0  0  0  0  0  0  0
   -3.6414    1.2917    0.4670 H   0  0  0  0  0  0  0  0  0  0  0  0
   -2.9267    0.3377    1.7705 H   0  0  0  0  0  0  0  0  0  0  0  0
   -3.5578   -0.4746    0.3278 H   0  0  0  0  0  0  0  0  0  0  0  0
    3.0797   -0.3827   -2.2802 H   0  0  0  0  0  0  0  0  0  0  0  0
    3.5164    0.2498    1.9461 H   0  0  0  0  0  0  0  0  0  0  0  0
    4.5168    0.1179   -0.3201 H   0  0  0  0  0  0  0  0  0  0  0  0
  4  2  1  0
  3  1  1  0
  4  1  1  0
  5  3  2  0
  6  3  1  0
  4  7  1  0
  8  5  1  0
  9  6  2  0
 10  8  2  0
  9 10  1  0
 12 14  1  0
 13 11  1  0
 14 11  1  0
 15 13  2  0
 16 13  1  0
 17 14  1  0
 18 16  2  0
 19 15  1  0
 20 18  1  0
 19 20  2  0
 24 22  1  0
 23 21  1  0
 24 21  1  0
 25 23  2  0
 26 23  1  0
 24 27  1  0
 28 25  1  0
 29 26  2  0
 30 28  2  0
 29 30  1  0
  1 31  1  0
  1 32  1  0
  2 33  1  0
  2 34  1  0
  4 35  1  6
  5 36  1  0
  6 37  1  0
  7 38  1  0
  7 39  1  0
  7 40  1  0
  8 41  1  0
  9 42  1  0
 10 43  1  0
 11 44  1  0
 11 45  1  0
 12 46  1  0
 12 47  1  0
 14 48  1  6
 15 49  1  0
 16 50  1  0
 17 51  1  0
 17 52  1  0
 17 53  1  0
 18 54  1  0
 19 55  1  0
 20 56  1  0
 21 57  1  0
 21 58  1  0
 22 59  1  0
 22 60  1  0
 24 61  1  1
 25 62  1  0
 26 63  1  0
 27 64  1  0
 27 65  1  0
 27 66  1  0
 28 67  1  0
 29 68  1  0
 30 69  1  0
M  END
$$$$
