
     RDKit          3D

 69 69  0  0  0  0  0  0  0  0999 V2000
    0.7110   -0.3280   -0.7689 C   0  0  0  0  0  0  0  0  0  0  0  0
    1.8759   -0.6026    1.4209 N   0  0  0  0  0  0  0  0  0  0  0  0
   -0.7433   -0.1762   -0.3839 C   0  0  0  0  0  0  0  0  0  0  0  0
    1.6911    0.2787    0.2594 C   0  0  1  0  0  0  0  0  0  0  0  0
   -1.5198    0.8543   -0.9324 C   0  0  0  0  0  0  0  0  0  0  0  0
   -1.3348   -1.0538    0.5339 C   0  0  0  0  0  0  0  0  0  0  0  0
    3.0544    0.5294   -0.3883 C   0  0  0  0  0  0  0  0  0  0  0  0
   -2.8622    0.9968   -0.5760 C   0  0  0  0  0  0  0  0  0  0  0  0
   -2.6767   -0.9097    0.8903 C   0  0  0  0  0  0  0  0  0  0  0  0
   -3.4406    0.1143    0.3342 C   0  0  0  0  0  0  0  0  0  0  0  0
    0.7769    0.1925   -0.7053 C   0  0  0  0  0  0  0  0  0  0  0  0
    1.8235   -0.6860    1.3962 N   0  0  0  0  0  0  0  0  0  0  0  0
   -0.6601   -0.0061   -0.2788 C   0  0  0  0  0  0  0  0  0  0  0  0
    1.7469    0.4507    0.4691 C   0  0  1  0  0  0  0  0  0  0  0  0
   -1.4155    1.0726    0.2012 C   0  0  0  0  0  0  0  0  0  0  0  0
   -1.2555   -1.2730   -0.3508 C   0  0  0  0  0  0  0  0  0  0  0  0
    3.1517    0.7400   -0.0578 C   0  0  0  0  0  0  0  0  0  0  0  0
   -2.5790   -1.4568    0.0528 C   0  0  0  0  0  0  0  0  0  0  0  0
   -2.7386    0.8865    0.6044 C   0  0  0  0  0  0  0  0  0  0  0  0
   -3.3198   -0.3777    0.5306 C   0  0  0  0  0  0  0  0  0  0  0  0
    0.7588   -0.4150   -0.6964 C   0  0  0  0  0  0  0  0  0  0  0  0
    1.7217   -0.5659    1.6008 N   0  0  0  0  0  0  0  0  0  0  0  0
   -0.7142   -0.1772   -0.4516 C   0  0  0  0  0  0  0  0  0  0  0  0
    1.6759    0.2299    0.3661 C   0  0  1  0  0  0  0  0  0  0  0  0
   -1.4203   -0.9592    0.4716 C   0  0  0  0  0  0  0  0  0  0  0  0
   -1.3938    0.8392   -1.1379 C   0  0  0  0  0  0  0  0  0  0  0  0
    3.0989    0.3759   -0.1768 C   0  0  0  0  0  0  0  0  0  0  0  0
   -2.7793   -0.7356    0.6986 C   0  0  0  0  0  0  0  0  0  0  0  0
   -2.7534    1.0612   -0.9108 C   0  0  0  0  0  0  0  0  0  0  0  0
   -3.4460    0.2732    0.0063 C   0  0  0  0  0  0  0  0  0  0  0  0
    0.9325   -1.3905   -0.9387 H   0  0  0  0  0  0  0  0  0  0  0  0
    0.8589    0.1537   -1.7449 H   0  0  0  0  0  0  0  0  0  0  0  0
    2.3178   -1.4729    1.1287 H   0  0  0  0  0  0  0  0  0  0  0  0
    2.5168   -0.1648    2.0815 H   0  0  0  0  0  0  0  0  0  0  0  0
    1.2993    1.2384    0.6175 H   0  0  0  0  0  0  0  0  0  0  0  0
   -1.0842    1.5536   -1.6419 H   0  0  0  0  0  0  0  0  0  0  0  0
   -0.7459   -1.8496    0.9848 H   0  0  0  0  0  0  0  0  0  0  0  0
    3.7572    0.9679    0.3291 H   0  0  0  0  0  0  0  0  0  0  0  0
    2.9612    1.2290   -1.2260 H   0  0  0  0  0  0  0  0  0  0  0  0
    3.4945   -0.3983   -0.7712 H   0  0  0  0  0  0  0  0  0  0  0  0
   -3.4560    1.7980   -1.0074 H   0  0  0  0  0  0  0  0  0  0  0  0
   -3.1225   -1.5946    1.6064 H   0  0  0  0  0  0  0  0  0  0  0  0
   -4.4845    0.2268    0.6135 H   0  0  0  0  0  0  0  0  0  0  0  0
    0.8083    1.0401   -1.4030 H   0  0  0  0  0  0  0  0  0  0  0  0
    1.1146   -0.6779   -1.2839 H   0  0  0  0  0  0  0  0  0  0  0  0
    0.8892   -0.8640    1.7706 H   0  0  0  0  0  0  0  0  0  0  0  0
    2.0763   -1.5300    0.8842 H   0  0  0  0  0  0  0  0  0  0  0  0
    1.4105    1.3248    1.0391 H   0  0  0  0  0  0  0  0  0  0  0  0
   -0.9772    2.0662    0.2647 H   0  0  0  0  0  0  0  0  0  0  0  0
   -0.6925   -2.1266   -0.7213 H   0  0  0  0  0  0  0  0  0  0  0  0
    3.5503   -0.1058   -0.6294 H   0  0  0  0  0  0  0  0  0  0  0  0
    3.1447    1.6166   -0.7146 H   0  0  0  0  0  0  0  0  0  0  0  0
    3.8447    0.9493    0.7648 H   0  0  0  0  0  0  0  0  0  0  0  0
   -3.0327   -2.4427   -0.0065 H   0  0  0  0  0  0  0  0  0  0  0  0
   -3.3162    1.7289    0.9761 H   0  0  0  0  0  0  0  0  0  0  0  0
   -4.3503   -0.5216    0.8444 H   0  0  0  0  0  0  0  0  0  0  0  0
    1.0098   -0.0156   -1.6884 H   0  0  0  0  0  0  0  0  0  0  0  0
    0.9451   -1.4952   -0.7683 H   0  0  0  0  0  0  0  0  0  0  0  0
    2.3242   -0.1042    2.2809 H   0  0  0  0  0  0  0  0  0  0  0  0
    2.1461   -1.4730    1.4129 H   0  0  0  0  0  0  0  0  0  0  0  0
    1.2999    1.2291    0.6174 H   0  0  0  0  0  0  0  0  0  0  0  0
   -0.9086   -1.7415    1.0280 H   0  0  0  0  0  0  0  0  0  0  0  0
   -0.8685    1.4654   -1.8549 H   0  0  0  0  0  0  0  0  0  0  0  0
    3.5264   -0.5953   -0.4507 H   0  0  0  0  0  0  0  0  0  0  0  0
    3.7583    0.8403    0.5650 H   0  0  0  0  0  0  0  0  0  0  0  0
    3.1086    1.0119   -1.0686 H   0  0  0  0  0  0  0  0  0  0  0  0
   -3.3146   -1.3466    1.4203 H   0  0  0  0  0  0  0  0  0  0  0  0
   -3.2715    1.8506   -1.4484 H   0  0  0  0  0  0  0  0  0  0  0  0
   -4.5034    0.4476    0.1849 H   0  0  0  0  0  0  0  0  0  0  0  0
  4  2  1  0
  3  1  1  0
  4  1  1  0
  5  3  2  0
  6  3  1  0
  4  7  1  0
  8  5  1  0
  9  6  2  0
 10  8  2  0
  9 10  1  0
 12 14  1  0
 13 11  1  0
 14 11  1  0
 15 13  2  0
 16 13  1  0
 17 14  1  0
 18 16  2  0
 19 15  1  0
 20 18  1  0
 19 20  2  0
 24 22  1  0
 23 21  1  0
 24 21  1  0
 25 23  2  0
 26 23  1  0
 24 27  1  0
 28 25  1  0
 29 26  2  0
 30 28  2  0
 29 30  1  0
  1 31  1  0
  1 32  1  0
  2 33  1  0
  2 34  1  0
  4 35  1  1
  5 36  1  0
  6 37  1  0
  7 38  1  0
  7 39  1  0
  7 40  1  0
  8 41  1  0
  9 42  1  0
 10 43  1  0
 11 44  1  0
 11 45  1  0
 12 46  1  0
 12 47  1  0
 14 48  1  1
 15 49  1  0
 16 50  1  0
 17 51  1  0
 17 52  1  0
 17 53  1  0
 18 54  1  0
 19 55  1  0
 20 56  1  0
 21 57  1  0
 21 58  1  0
 22 59  1  0
 22 60  1  0
 24 61  1  1
 25 62  1  0
 26 63  1  0
 27 64  1  0
 27 65  1  0
 27 66  1  0
 28 67  1  0
 29 68  1  0
 30 69  1  0
M  END
$$$$
