
     RDKit          3D

113118  0  0  0  0  0  0  0  0999 V2000
   47.6653   12.0811   18.9389 C   0  0  2  0  0  0  0  0  0  0  0  0
   47.7283    9.7113   19.7145 C   0  0  0  0  0  0  0  0  0  0  0  0
   48.7103   12.3723   20.0144 C   0  0  2  0  0  0  0  0  0  0  0  0
   49.3398   13.3481   17.4039 C   0  0  0  0  0  0  0  0  0  0  0  0
   47.6238   10.5843   18.6806 C   0  0  0  0  0  0  0  0  0  0  0  0
   47.7348   10.1899   21.1433 C   0  0  1  0  0  0  0  0  0  0  0  0
   47.9237   13.0017   17.7426 C   0  0  0  0  0  0  0  0  0  0  0  0
   50.3849   12.8101   18.0912 C   0  0  0  0  0  0  0  0  0  0  0  0
   47.7195    8.2488   19.4605 C   0  0  0  0  0  0  0  0  0  0  0  0
   48.2791    9.2124   22.2351 C   0  0  1  0  0  0  0  0  0  0  0  0
   50.1226   12.0032   19.4272 C   0  0  1  0  0  0  0  0  0  0  0  0
   48.2783   11.6573   21.3178 C   0  0  2  0  0  0  0  0  0  0  0  0
   47.8612    7.2969   20.5913 C   0  0  0  0  0  0  0  0  0  0  0  0
   48.1092    7.7456   21.8992 C   0  0  0  0  0  0  0  0  0  0  0  0
   49.5057   14.1904   16.1894 C   0  0  0  0  0  0  0  0  0  0  0  0
   51.6061   12.8844   17.7642 O   0  0  0  0  0  0  0  0  0  0  0  0
   51.1098   12.0090   20.5469 N   0  0  0  0  0  0  0  0  0  0  0  0
   46.9625   13.4313   17.0944 O   0  0  0  0  0  0  0  0  0  0  0  0
   47.6240    7.8018   18.3109 O   0  0  0  0  0  0  0  0  0  0  0  0
   47.7846    5.9100   20.3312 C   0  0  0  0  0  0  0  0  0  0  0  0
   46.3399   12.4374   19.4117 O   0  0  0  0  0  0  0  0  0  0  0  0
   49.4176   15.4183   16.1892 O   0  0  0  0  0  0  0  0  0  0  0  0
   47.5176   10.1997   17.3559 O   0  0  0  0  0  0  0  0  0  0  0  0
   49.6749    9.4082   22.4780 O   0  0  0  0  0  0  0  0  0  0  0  0
   47.1810   12.4212   21.8956 O   0  0  0  0  0  0  0  0  0  0  0  0
   49.6035   13.5056   15.0123 N   0  0  0  0  0  0  0  0  0  0  0  0
   47.5650    9.5745   23.5668 C   0  0  0  0  0  0  0  0  0  0  0  0
   48.2902    6.7619   22.9030 C   0  0  0  0  0  0  0  0  0  0  0  0
   47.5834    5.3833   19.0778 O   0  0  0  0  0  0  0  0  0  0  0  0
   48.1807    5.3933   22.6374 C   0  0  0  0  0  0  0  0  0  0  0  0
   47.9309    4.9655   21.3443 C   0  0  0  0  0  0  0  0  0  0  0  0
   52.3062   11.2088   20.2768 C   0  0  0  0  0  0  0  0  0  0  0  0
   51.4892   13.3378   21.0123 C   0  0  0  0  0  0  0  0  0  0  0  0
   47.7805   12.0789   19.2242 C   0  0  2  0  0  0  0  0  0  0  0  0
   47.7853    9.6360   19.6927 C   0  0  0  0  0  0  0  0  0  0  0  0
   48.9519   12.2599   20.1884 C   0  0  2  0  0  0  0  0  0  0  0  0
   49.1065   13.6628   17.5849 C   0  0  0  0  0  0  0  0  0  0  0  0
   47.6905   10.6267   18.7708 C   0  0  0  0  0  0  0  0  0  0  0  0
   47.8818   10.0199   21.1468 C   0  0  1  0  0  0  0  0  0  0  0  0
   47.8019   13.1169   18.0932 C   0  0  0  0  0  0  0  0  0  0  0  0
   50.2767   13.2430   18.1548 C   0  0  0  0  0  0  0  0  0  0  0  0
   47.7433    8.2153   19.2860 C   0  0  0  0  0  0  0  0  0  0  0  0
   48.0039    8.8698   22.2040 C   0  0  1  0  0  0  0  0  0  0  0  0
   50.2793   12.2184   19.3537 C   0  0  1  0  0  0  0  0  0  0  0  0
   48.9302   11.1643   21.3129 C   0  0  2  0  0  0  0  0  0  0  0  0
   47.9415    7.1548   20.2985 C   0  0  0  0  0  0  0  0  0  0  0  0
   48.0611    7.4556   21.6577 C   0  0  0  0  0  0  0  0  0  0  0  0
   49.0668   14.6267   16.3941 C   0  0  0  0  0  0  0  0  0  0  0  0
   51.4466   13.5670   17.7995 O   0  0  0  0  0  0  0  0  0  0  0  0
   51.4227   12.1680   20.3150 N   0  0  0  0  0  0  0  0  0  0  0  0
   46.7083   13.4743   17.6139 O   0  0  0  0  0  0  0  0  0  0  0  0
   47.5764    7.8954   18.1006 O   0  0  0  0  0  0  0  0  0  0  0  0
   48.0341    5.8095   19.8798 C   0  0  0  0  0  0  0  0  0  0  0  0
   46.5333   12.3438   19.9165 O   0  0  0  0  0  0  0  0  0  0  0  0
   49.9812   14.9412   15.6377 O   0  0  0  0  0  0  0  0  0  0  0  0
   47.5102   10.4107   17.4247 O   0  0  0  0  0  0  0  0  0  0  0  0
   49.1889    9.0360   23.0009 O   0  0  0  0  0  0  0  0  0  0  0  0
   48.7068   11.8024   22.5786 O   0  0  0  0  0  0  0  0  0  0  0  0
   47.8350   15.1650   16.0933 N   0  0  0  0  0  0  0  0  0  0  0  0
   46.8269    9.0069   23.2064 C   0  0  0  0  0  0  0  0  0  0  0  0
   48.2750    6.3790   22.5589 C   0  0  0  0  0  0  0  0  0  0  0  0
   47.9454    5.4214   18.5614 O   0  0  0  0  0  0  0  0  0  0  0  0
   48.3455    5.0512   22.1323 C   0  0  0  0  0  0  0  0  0  0  0  0
   48.2190    4.7645   20.7832 C   0  0  0  0  0  0  0  0  0  0  0  0
   51.7481   13.4419   20.9401 C   0  0  0  0  0  0  0  0  0  0  0  0
   52.6232   11.5313   19.7785 C   0  0  0  0  0  0  0  0  0  0  0  0
   48.8644   10.4986   20.0631 Ca  0  0  0  0  0 15  0  0  0  0  0  0
   48.6840   13.4547   20.2276 H   0  0  0  0  0  0  0  0  0  0  0  0
   46.6452   10.2368   21.3500 H   0  0  0  0  0  0  0  0  0  0  0  0
   50.0881   10.9514   19.1083 H   0  0  0  0  0  0  0  0  0  0  0  0
   49.0654   11.7139   22.0714 H   0  0  0  0  0  0  0  0  0  0  0  0
   45.8587   12.6912   18.5922 H   0  0  0  0  0  0  0  0  0  0  0  0
   47.6065    9.2216   17.3092 H   0  0  0  0  0  0  0  0  0  0  0  0
   50.1909    9.1917   21.6766 H   0  0  0  0  0  0  0  0  0  0  0  0
   46.5744   12.6173   21.1488 H   0  0  0  0  0  0  0  0  0  0  0  0
   49.5638   14.0122   14.1504 H   0  0  0  0  0  0  0  0  0  0  0  0
   49.8737   12.5275   14.9633 H   0  0  0  0  0  0  0  0  0  0  0  0
   46.4896    9.3549   23.5144 H   0  0  0  0  0  0  0  0  0  0  0  0
   47.6790   10.6412   23.8029 H   0  0  0  0  0  0  0  0  0  0  0  0
   47.9740    9.0501   24.4382 H   0  0  0  0  0  0  0  0  0  0  0  0
   48.5374    7.0517   23.9246 H   0  0  0  0  0  0  0  0  0  0  0  0
   47.5160    6.1330   18.4413 H   0  0  0  0  0  0  0  0  0  0  0  0
   48.3159    4.6635   23.4347 H   0  0  0  0  0  0  0  0  0  0  0  0
   47.8714    3.9031   21.1125 H   0  0  0  0  0  0  0  0  0  0  0  0
   53.0045   11.6587   19.5674 H   0  0  0  0  0  0  0  0  0  0  0  0
   52.0420   10.2081   19.9121 H   0  0  0  0  0  0  0  0  0  0  0  0
   52.8750   11.0343   21.2078 H   0  0  0  0  0  0  0  0  0  0  0  0
   52.0703   13.2457   21.9451 H   0  0  0  0  0  0  0  0  0  0  0  0
   52.1071   13.9089   20.3052 H   0  0  0  0  0  0  0  0  0  0  0  0
   50.6183   13.9452   21.2728 H   0  0  0  0  0  0  0  0  0  0  0  0
   48.8576   13.2496   20.6633 H   0  0  0  0  0  0  0  0  0  0  0  0
   46.9034   10.4774   21.3640 H   0  0  0  0  0  0  0  0  0  0  0  0
   50.2897   11.2366   18.8566 H   0  0  0  0  0  0  0  0  0  0  0  0
   49.9160   10.6994   21.3872 H   0  0  0  0  0  0  0  0  0  0  0  0
   45.9187   12.6441   19.2153 H   0  0  0  0  0  0  0  0  0  0  0  0
   47.5058    9.4419   17.2580 H   0  0  0  0  0  0  0  0  0  0  0  0
   49.9513    8.7186   22.4805 H   0  0  0  0  0  0  0  0  0  0  0  0
   49.0445   11.1872   23.2588 H   0  0  0  0  0  0  0  0  0  0  0  0
   47.7877   15.6770   15.2169 H   0  0  0  0  0  0  0  0  0  0  0  0
   46.9960   14.7141   16.4598 H   0  0  0  0  0  0  0  0  0  0  0  0
   46.8395    8.2427   23.9926 H   0  0  0  0  0  0  0  0  0  0  0  0
   46.8667    9.9721   23.7291 H   0  0  0  0  0  0  0  0  0  0  0  0
   45.8517    8.9402   22.6975 H   0  0  0  0  0  0  0  0  0  0  0  0
   48.4001    6.5730   23.6259 H   0  0  0  0  0  0  0  0  0  0  0  0
   47.8387    6.2316   18.0164 H   0  0  0  0  0  0  0  0  0  0  0  0
   48.4989    4.2450   22.8432 H   0  0  0  0  0  0  0  0  0  0  0  0
   48.2792    3.7430   20.4253 H   0  0  0  0  0  0  0  0  0  0  0  0
   52.3799   14.0987   20.3257 H   0  0  0  0  0  0  0  0  0  0  0  0
   52.2935   13.2516   21.8781 H   0  0  0  0  0  0  0  0  0  0  0  0
   50.8534   14.0054   21.2261 H   0  0  0  0  0  0  0  0  0  0  0  0
   53.1960   11.0456   20.5857 H   0  0  0  0  0  0  0  0  0  0  0  0
   53.3116   12.2379   19.2889 H   0  0  0  0  0  0  0  0  0  0  0  0
   52.3964   10.7304   19.0563 H   0  0  0  0  0  0  0  0  0  0  0  0
  2  5  2  0
  3  1  1  0
  4  7  1  0
  5  1  1  0
  6  2  1  0
  7  1  1  0
  8  4  2  0
  9  2  1  0
 10  6  1  0
  3 11  1  0
 12  3  1  0
 13  9  1  0
 14 13  2  0
 15  4  1  0
 16  8  1  0
 11 17  1  0
 18  7  2  0
 19  9  2  0
 20 13  1  0
  1 21  1  6
 22 15  2  0
 23  5  1  0
 10 24  1  1
 12 25  1  0
 26 15  1  0
 10 27  1  0
 28 14  1  0
 29 20  1  0
 30 31  1  0
 31 20  2  0
 32 17  1  0
 33 17  1  0
 12  6  1  0
 11  8  1  0
 10 14  1  0
 30 28  2  0
 35 38  2  0
 36 34  1  0
 37 40  1  0
 38 34  1  0
 39 35  1  0
 40 34  1  0
 41 37  2  0
 42 35  1  0
 43 39  1  0
 36 44  1  0
 45 36  1  0
 46 42  1  0
 47 46  2  0
 48 37  1  0
 49 41  1  0
 44 50  1  0
 51 40  2  0
 52 42  2  0
 53 46  1  0
 34 54  1  6
 55 48  2  0
 56 38  1  0
 43 57  1  1
 45 58  1  0
 59 48  1  0
 43 60  1  0
 61 47  1  0
 62 53  1  0
 63 64  1  0
 64 53  2  0
 65 50  1  0
 66 50  1  0
 45 39  1  0
 44 41  1  0
 43 47  1  0
 63 61  2  0
  3 68  1  6
  6 69  1  6
 11 70  1  1
 12 71  1  6
 21 72  1  0
 23 73  1  0
 24 74  1  0
 25 75  1  0
 26 76  1  0
 26 77  1  0
 27 78  1  0
 27 79  1  0
 27 80  1  0
 28 81  1  0
 29 82  1  0
 30 83  1  0
 31 84  1  0
 32 85  1  0
 32 86  1  0
 32 87  1  0
 33 88  1  0
 33 89  1  0
 33 90  1  0
 36 91  1  6
 39 92  1  6
 44 93  1  1
 45 94  1  1
 54 95  1  0
 56 96  1  0
 57 97  1  0
 58 98  1  0
 59 99  1  0
 59100  1  0
 60101  1  0
 60102  1  0
 60103  1  0
 61104  1  0
 62105  1  0
 63106  1  0
 64107  1  0
 65108  1  0
 65109  1  0
 65110  1  0
 66111  1  0
 66112  1  0
 66113  1  0
M  CHG  3  16  -1  49  -1  67   2
M  END
> <Uni-Dock RESULT> 
ENERGY=   -7.626  LOWER_BOUND=    0.000  UPPER_BOUND=    0.000
INTER + INTRA:          -7.626
INTER:                  -7.626
INTRA:                   0.000
UNBOUND:                 0.000

$$$$

     RDKit          3D

113118  0  0  0  0  0  0  0  0999 V2000
   43.7382   12.9812   11.2574 C   0  0  2  0  0  0  0  0  0  0  0  0
   45.4002   11.1826   11.7309 C   0  0  0  0  0  0  0  0  0  0  0  0
   44.6621   13.4195   10.1225 C   0  0  2  0  0  0  0  0  0  0  0  0
   41.9178   13.0832    9.4024 C   0  0  0  0  0  0  0  0  0  0  0  0
   44.0993   11.5644   11.6712 C   0  0  0  0  0  0  0  0  0  0  0  0
   46.5158   12.1775   11.5405 C   0  0  1  0  0  0  0  0  0  0  0  0
   42.2893   13.2528   10.8423 C   0  0  0  0  0  0  0  0  0  0  0  0
   42.8187   12.6328    8.4863 C   0  0  0  0  0  0  0  0  0  0  0  0
   45.7533    9.7900   12.1046 C   0  0  0  0  0  0  0  0  0  0  0  0
   47.9356   11.6212   11.1963 C   0  0  1  0  0  0  0  0  0  0  0  0
   44.3497   12.5186    8.8710 C   0  0  1  0  0  0  0  0  0  0  0  0
   46.1171   13.4142   10.6512 C   0  0  2  0  0  0  0  0  0  0  0  0
   47.1766    9.3684   12.1426 C   0  0  0  0  0  0  0  0  0  0  0  0
   48.2066   10.2305   11.7311 C   0  0  0  0  0  0  0  0  0  0  0  0
   40.4785   13.3005    9.0967 C   0  0  0  0  0  0  0  0  0  0  0  0
   42.5563   12.2741    7.3004 O   0  0  0  0  0  0  0  0  0  0  0  0
   45.4252   12.7363    7.8589 N   0  0  0  0  0  0  0  0  0  0  0  0
   41.4720   13.6030   11.7014 O   0  0  0  0  0  0  0  0  0  0  0  0
   44.8756    8.9564   12.3602 O   0  0  0  0  0  0  0  0  0  0  0  0
   47.4900    8.0566   12.5640 C   0  0  0  0  0  0  0  0  0  0  0  0
   43.9559   13.8040   12.4334 O   0  0  0  0  0  0  0  0  0  0  0  0
   39.9817   14.4069    8.8859 O   0  0  0  0  0  0  0  0  0  0  0  0
   43.0358   10.7182   11.9307 O   0  0  0  0  0  0  0  0  0  0  0  0
   48.1552   11.5568    9.7845 O   0  0  0  0  0  0  0  0  0  0  0  0
   46.2800   14.5847   11.5027 O   0  0  0  0  0  0  0  0  0  0  0  0
   39.6816   12.1993    9.2237 N   0  0  0  0  0  0  0  0  0  0  0  0
   48.9697   12.6471   11.7371 C   0  0  0  0  0  0  0  0  0  0  0  0
   49.5286    9.7205   11.7448 C   0  0  0  0  0  0  0  0  0  0  0  0
   46.5436    7.1362   12.9464 O   0  0  0  0  0  0  0  0  0  0  0  0
   49.8279    8.4304   12.1940 C   0  0  0  0  0  0  0  0  0  0  0  0
   48.8029    7.5932   12.6015 C   0  0  0  0  0  0  0  0  0  0  0  0
   45.5636   11.6335    6.9054 C   0  0  0  0  0  0  0  0  0  0  0  0
   45.3392   14.0067    7.1482 C   0  0  0  0  0  0  0  0  0  0  0  0
   44.0063   13.0662   11.1326 C   0  0  2  0  0  0  0  0  0  0  0  0
   45.4136   11.0936   11.6949 C   0  0  0  0  0  0  0  0  0  0  0  0
   44.8794   13.3320    9.9072 C   0  0  2  0  0  0  0  0  0  0  0  0
   41.9445   13.4900    9.5439 C   0  0  0  0  0  0  0  0  0  0  0  0
   44.1683   11.6221   11.5920 C   0  0  0  0  0  0  0  0  0  0  0  0
   46.5950   11.9934   11.4389 C   0  0  1  0  0  0  0  0  0  0  0  0
   42.5572   13.5246   10.9157 C   0  0  0  0  0  0  0  0  0  0  0  0
   42.6976   13.0669    8.4836 C   0  0  0  0  0  0  0  0  0  0  0  0
   45.6084    9.6847   12.0980 C   0  0  0  0  0  0  0  0  0  0  0  0
   48.0294   11.3719   11.5472 C   0  0  1  0  0  0  0  0  0  0  0  0
   44.2047   12.6418    8.6707 C   0  0  1  0  0  0  0  0  0  0  0  0
   46.3456   12.8201   10.1385 C   0  0  2  0  0  0  0  0  0  0  0  0
   46.9700    9.1061   12.1131 C   0  0  0  0  0  0  0  0  0  0  0  0
   48.0993    9.8888   11.8592 C   0  0  0  0  0  0  0  0  0  0  0  0
   40.4671   13.8736    9.4070 C   0  0  0  0  0  0  0  0  0  0  0  0
   42.3065   12.9299    7.2886 O   0  0  0  0  0  0  0  0  0  0  0  0
   45.1664   12.7087    7.5285 N   0  0  0  0  0  0  0  0  0  0  0  0
   41.9162   13.9106   11.9124 O   0  0  0  0  0  0  0  0  0  0  0  0
   44.6432    8.9662   12.3939 O   0  0  0  0  0  0  0  0  0  0  0  0
   47.1310    7.7267   12.3681 C   0  0  0  0  0  0  0  0  0  0  0  0
   44.4656   13.8774   12.2442 O   0  0  0  0  0  0  0  0  0  0  0  0
   39.6991   13.6287    8.4811 O   0  0  0  0  0  0  0  0  0  0  0  0
   43.0139   10.9342   11.8835 O   0  0  0  0  0  0  0  0  0  0  0  0
   48.7562   11.5542   10.3202 O   0  0  0  0  0  0  0  0  0  0  0  0
   47.2355   13.9457   10.1403 O   0  0  0  0  0  0  0  0  0  0  0  0
   39.9095   14.5243   10.4855 N   0  0  0  0  0  0  0  0  0  0  0  0
   48.8273   12.1778   12.6068 C   0  0  0  0  0  0  0  0  0  0  0  0
   49.3664    9.2475   11.8684 C   0  0  0  0  0  0  0  0  0  0  0  0
   46.0757    6.8758   12.6110 O   0  0  0  0  0  0  0  0  0  0  0  0
   49.5119    7.8857   12.1410 C   0  0  0  0  0  0  0  0  0  0  0  0
   48.3858    7.1212   12.3976 C   0  0  0  0  0  0  0  0  0  0  0  0
   45.2456   14.0076    6.8756 C   0  0  0  0  0  0  0  0  0  0  0  0
   44.9960   11.6425    6.5442 C   0  0  0  0  0  0  0  0  0  0  0  0
   45.4656   11.7459   10.4230 Ca  0  0  0  0  0 15  0  0  0  0  0  0
   44.4221   14.4681    9.8766 H   0  0  0  0  0  0  0  0  0  0  0  0
   46.6268   12.5635   12.5754 H   0  0  0  0  0  0  0  0  0  0  0  0
   44.4774   11.4692    9.1736 H   0  0  0  0  0  0  0  0  0  0  0  0
   46.8265   13.5779    9.8385 H   0  0  0  0  0  0  0  0  0  0  0  0
   43.0784   13.8148   12.8779 H   0  0  0  0  0  0  0  0  0  0  0  0
   43.3897    9.8136   12.0827 H   0  0  0  0  0  0  0  0  0  0  0  0
   47.5370   10.9199    9.3751 H   0  0  0  0  0  0  0  0  0  0  0  0
   45.4855   14.6039   12.0792 H   0  0  0  0  0  0  0  0  0  0  0  0
   38.6881   12.3107    9.1813 H   0  0  0  0  0  0  0  0  0  0  0  0
   40.0431   11.2503    9.2002 H   0  0  0  0  0  0  0  0  0  0  0  0
   48.9513   12.6900   12.8350 H   0  0  0  0  0  0  0  0  0  0  0  0
   48.7646   13.6574   11.3579 H   0  0  0  0  0  0  0  0  0  0  0  0
   49.9990   12.4351   11.4253 H   0  0  0  0  0  0  0  0  0  0  0  0
   50.3604   10.3274   11.3862 H   0  0  0  0  0  0  0  0  0  0  0  0
   45.6574    7.5596   12.8613 H   0  0  0  0  0  0  0  0  0  0  0  0
   50.8568    8.0728   12.2007 H   0  0  0  0  0  0  0  0  0  0  0  0
   49.0132    6.5753   12.9266 H   0  0  0  0  0  0  0  0  0  0  0  0
   44.7726   11.5788    6.1540 H   0  0  0  0  0  0  0  0  0  0  0  0
   45.6166   10.6660    7.4205 H   0  0  0  0  0  0  0  0  0  0  0  0
   46.5160   11.7164    6.3514 H   0  0  0  0  0  0  0  0  0  0  0  0
   46.2610   14.1602    6.5624 H   0  0  0  0  0  0  0  0  0  0  0  0
   44.4973   14.0794    6.4454 H   0  0  0  0  0  0  0  0  0  0  0  0
   45.2868   14.8571    7.8332 H   0  0  0  0  0  0  0  0  0  0  0  0
   44.9123   14.4201    9.7369 H   0  0  0  0  0  0  0  0  0  0  0  0
   46.5572   12.7198   12.2663 H   0  0  0  0  0  0  0  0  0  0  0  0
   44.1439   11.5719    8.9214 H   0  0  0  0  0  0  0  0  0  0  0  0
   46.6534   12.2024    9.2917 H   0  0  0  0  0  0  0  0  0  0  0  0
   43.6705   14.0089   12.8012 H   0  0  0  0  0  0  0  0  0  0  0  0
   43.2492   10.0119   12.1296 H   0  0  0  0  0  0  0  0  0  0  0  0
   48.4487   10.8819    9.6829 H   0  0  0  0  0  0  0  0  0  0  0  0
   48.1225   13.5939    9.9287 H   0  0  0  0  0  0  0  0  0  0  0  0
   38.9002   14.6365   10.4499 H   0  0  0  0  0  0  0  0  0  0  0  0
   40.3796   14.4742   11.3899 H   0  0  0  0  0  0  0  0  0  0  0  0
   49.8532   11.8149   12.7412 H   0  0  0  0  0  0  0  0  0  0  0  0
   48.9210   13.2312   12.3102 H   0  0  0  0  0  0  0  0  0  0  0  0
   48.3355   12.1485   13.5925 H   0  0  0  0  0  0  0  0  0  0  0  0
   50.2714    9.8172   11.6492 H   0  0  0  0  0  0  0  0  0  0  0  0
   45.2469    7.3988   12.5451 H   0  0  0  0  0  0  0  0  0  0  0  0
   50.4934    7.4216   12.1527 H   0  0  0  0  0  0  0  0  0  0  0  0
   48.4710    6.0602   12.6030 H   0  0  0  0  0  0  0  0  0  0  0  0
   44.4549   14.1899    6.1342 H   0  0  0  0  0  0  0  0  0  0  0  0
   46.2094   14.0850    6.3478 H   0  0  0  0  0  0  0  0  0  0  0  0
   45.2328   14.8351    7.5930 H   0  0  0  0  0  0  0  0  0  0  0  0
   45.9600   11.3997    6.0675 H   0  0  0  0  0  0  0  0  0  0  0  0
   44.3026   11.9054    5.7300 H   0  0  0  0  0  0  0  0  0  0  0  0
   44.6439   10.6991    6.9920 H   0  0  0  0  0  0  0  0  0  0  0  0
  2  5  2  0
  3  1  1  0
  4  7  1  0
  5  1  1  0
  6  2  1  0
  7  1  1  0
  8  4  2  0
  9  2  1  0
 10  6  1  0
  3 11  1  0
 12  3  1  0
 13  9  1  0
 14 13  2  0
 15  4  1  0
 16  8  1  0
 11 17  1  0
 18  7  2  0
 19  9  2  0
 20 13  1  0
  1 21  1  6
 22 15  2  0
 23  5  1  0
 10 24  1  1
 12 25  1  0
 26 15  1  0
 10 27  1  0
 28 14  1  0
 29 20  1  0
 30 31  1  0
 31 20  2  0
 32 17  1  0
 33 17  1  0
 12  6  1  0
 11  8  1  0
 10 14  1  0
 30 28  2  0
 35 38  2  0
 36 34  1  0
 37 40  1  0
 38 34  1  0
 39 35  1  0
 40 34  1  0
 41 37  2  0
 42 35  1  0
 43 39  1  0
 36 44  1  0
 45 36  1  0
 46 42  1  0
 47 46  2  0
 48 37  1  0
 49 41  1  0
 44 50  1  0
 51 40  2  0
 52 42  2  0
 53 46  1  0
 34 54  1  6
 55 48  2  0
 56 38  1  0
 43 57  1  1
 45 58  1  0
 59 48  1  0
 43 60  1  0
 61 47  1  0
 62 53  1  0
 63 64  1  0
 64 53  2  0
 65 50  1  0
 66 50  1  0
 45 39  1  0
 44 41  1  0
 43 47  1  0
 63 61  2  0
  3 68  1  6
  6 69  1  6
 11 70  1  1
 12 71  1  6
 21 72  1  0
 23 73  1  0
 24 74  1  0
 25 75  1  0
 26 76  1  0
 26 77  1  0
 27 78  1  0
 27 79  1  0
 27 80  1  0
 28 81  1  0
 29 82  1  0
 30 83  1  0
 31 84  1  0
 32 85  1  0
 32 86  1  0
 32 87  1  0
 33 88  1  0
 33 89  1  0
 33 90  1  0
 36 91  1  6
 39 92  1  6
 44 93  1  1
 45 94  1  1
 54 95  1  0
 56 96  1  0
 57 97  1  0
 58 98  1  0
 59 99  1  0
 59100  1  0
 60101  1  0
 60102  1  0
 60103  1  0
 61104  1  0
 62105  1  0
 63106  1  0
 64107  1  0
 65108  1  0
 65109  1  0
 65110  1  0
 66111  1  0
 66112  1  0
 66113  1  0
M  CHG  3  16  -1  49  -1  67   2
M  END
> <Uni-Dock RESULT> 
ENERGY=   -7.077  LOWER_BOUND=    8.168  UPPER_BOUND=   10.656
INTER + INTRA:          -7.077
INTER:                  -7.077
INTRA:                   0.000
UNBOUND:                 0.000

$$$$

     RDKit          3D

113118  0  0  0  0  0  0  0  0999 V2000
   49.5641    7.1460   16.5964 C   0  0  2  0  0  0  0  0  0  0  0  0
   49.0054    7.4285   19.0108 C   0  0  0  0  0  0  0  0  0  0  0  0
   49.7454    5.6597   16.8992 C   0  0  2  0  0  0  0  0  0  0  0  0
   48.0707    6.2550   14.6622 C   0  0  0  0  0  0  0  0  0  0  0  0
   48.7724    7.7883   17.7232 C   0  0  0  0  0  0  0  0  0  0  0  0
   50.1430    6.5085   19.3711 C   0  0  1  0  0  0  0  0  0  0  0  0
   49.0204    7.2932   15.1723 C   0  0  0  0  0  0  0  0  0  0  0  0
   47.6388    5.2376   15.4574 C   0  0  0  0  0  0  0  0  0  0  0  0
   48.2111    8.0321   20.1101 C   0  0  0  0  0  0  0  0  0  0  0  0
   50.0959    5.8058   20.7668 C   0  0  1  0  0  0  0  0  0  0  0  0
   48.3255    4.9829   16.8604 C   0  0  1  0  0  0  0  0  0  0  0  0
   50.5558    5.5267   18.2115 C   0  0  2  0  0  0  0  0  0  0  0  0
   48.4503    7.6162   21.5154 C   0  0  0  0  0  0  0  0  0  0  0  0
   49.3461    6.5809   21.8299 C   0  0  0  0  0  0  0  0  0  0  0  0
   47.5385    6.5091   13.2968 C   0  0  0  0  0  0  0  0  0  0  0  0
   46.6998    4.4316   15.1884 O   0  0  0  0  0  0  0  0  0  0  0  0
   48.4479    3.6082   17.4293 N   0  0  0  0  0  0  0  0  0  0  0  0
   49.3788    8.2581   14.4873 O   0  0  0  0  0  0  0  0  0  0  0  0
   47.3250    8.8627   19.8748 O   0  0  0  0  0  0  0  0  0  0  0  0
   47.7269    8.2524   22.5492 C   0  0  0  0  0  0  0  0  0  0  0  0
   50.8497    7.8200   16.5826 O   0  0  0  0  0  0  0  0  0  0  0  0
   48.1250    6.1914   12.2621 O   0  0  0  0  0  0  0  0  0  0  0  0
   47.8054    8.7014   17.3418 O   0  0  0  0  0  0  0  0  0  0  0  0
   49.4739    4.5199   20.6956 O   0  0  0  0  0  0  0  0  0  0  0  0
   51.9453    5.8372   17.9038 O   0  0  0  0  0  0  0  0  0  0  0  0
   46.4115    7.2777   13.2427 N   0  0  0  0  0  0  0  0  0  0  0  0
   51.5665    5.5392   21.1920 C   0  0  0  0  0  0  0  0  0  0  0  0
   49.4641    6.2121   23.1930 C   0  0  0  0  0  0  0  0  0  0  0  0
   46.8039    9.2465   22.3284 O   0  0  0  0  0  0  0  0  0  0  0  0
   48.7654    6.8713   24.2094 C   0  0  0  0  0  0  0  0  0  0  0  0
   47.8894    7.8935   23.8851 C   0  0  0  0  0  0  0  0  0  0  0  0
   47.1826    3.0669   17.9297 C   0  0  0  0  0  0  0  0  0  0  0  0
   49.0927    2.6432   16.5466 C   0  0  0  0  0  0  0  0  0  0  0  0
   49.6783    6.9038   16.7479 C   0  0  2  0  0  0  0  0  0  0  0  0
   48.9232    7.4192   19.0614 C   0  0  0  0  0  0  0  0  0  0  0  0
   49.6606    5.4128   17.0810 C   0  0  2  0  0  0  0  0  0  0  0  0
   48.4700    6.2419   14.4993 C   0  0  0  0  0  0  0  0  0  0  0  0
   48.8084    7.6744   17.7338 C   0  0  0  0  0  0  0  0  0  0  0  0
   49.9805    6.4449   19.5128 C   0  0  1  0  0  0  0  0  0  0  0  0
   49.3751    7.1649   15.2657 C   0  0  0  0  0  0  0  0  0  0  0  0
   47.9351    5.1520   15.1287 C   0  0  0  0  0  0  0  0  0  0  0  0
   48.0678    8.1174   20.0444 C   0  0  0  0  0  0  0  0  0  0  0  0
   50.0978    6.1461   21.0465 C   0  0  1  0  0  0  0  0  0  0  0  0
   48.2735    4.8315   16.6353 C   0  0  1  0  0  0  0  0  0  0  0  0
   49.9347    5.1735   18.6084 C   0  0  2  0  0  0  0  0  0  0  0  0
   48.1474    7.7546   21.4765 C   0  0  0  0  0  0  0  0  0  0  0  0
   49.0924    6.8390   21.9468 C   0  0  0  0  0  0  0  0  0  0  0  0
   48.1336    6.6062   13.0492 C   0  0  0  0  0  0  0  0  0  0  0  0
   47.1175    4.3227   14.6349 O   0  0  0  0  0  0  0  0  0  0  0  0
   48.1711    3.4369   17.1629 N   0  0  0  0  0  0  0  0  0  0  0  0
   49.8949    8.1659   14.7355 O   0  0  0  0  0  0  0  0  0  0  0  0
   47.2575    8.9830   19.6845 O   0  0  0  0  0  0  0  0  0  0  0  0
   47.2334    8.3299   22.3862 C   0  0  0  0  0  0  0  0  0  0  0  0
   51.0192    7.4279   16.9268 O   0  0  0  0  0  0  0  0  0  0  0  0
   47.2082    6.1947   12.3554 O   0  0  0  0  0  0  0  0  0  0  0  0
   47.9464    8.6038   17.2006 O   0  0  0  0  0  0  0  0  0  0  0  0
   49.9559    4.7385   21.3022 O   0  0  0  0  0  0  0  0  0  0  0  0
   51.1774    4.4707   18.7526 O   0  0  0  0  0  0  0  0  0  0  0  0
   48.9342    7.5631   12.4654 N   0  0  0  0  0  0  0  0  0  0  0  0
   51.5427    6.4896   21.4973 C   0  0  0  0  0  0  0  0  0  0  0  0
   49.0826    6.5286   23.3327 C   0  0  0  0  0  0  0  0  0  0  0  0
   46.2581    9.2268   22.0106 O   0  0  0  0  0  0  0  0  0  0  0  0
   48.1846    7.1199   24.2237 C   0  0  0  0  0  0  0  0  0  0  0  0
   47.2567    8.0310   23.7471 C   0  0  0  0  0  0  0  0  0  0  0  0
   48.9300    2.4460   16.4134 C   0  0  0  0  0  0  0  0  0  0  0  0
   46.7998    2.9832   17.3826 C   0  0  0  0  0  0  0  0  0  0  0  0
   48.8699    6.1033   18.5034 Ca  0  0  0  0  0 15  0  0  0  0  0  0
   50.3700    5.2253   16.1000 H   0  0  0  0  0  0  0  0  0  0  0  0
   50.9744    7.2374   19.4701 H   0  0  0  0  0  0  0  0  0  0  0  0
   47.6827    5.5120   17.5788 H   0  0  0  0  0  0  0  0  0  0  0  0
   50.5850    4.4887   18.5467 H   0  0  0  0  0  0  0  0  0  0  0  0
   50.7222    8.5556   15.9421 H   0  0  0  0  0  0  0  0  0  0  0  0
   47.2960    8.9648   18.1404 H   0  0  0  0  0  0  0  0  0  0  0  0
   48.5360    4.6122   20.4364 H   0  0  0  0  0  0  0  0  0  0  0  0
   51.9181    6.6504   17.3542 H   0  0  0  0  0  0  0  0  0  0  0  0
   46.0919    7.6102   12.3547 H   0  0  0  0  0  0  0  0  0  0  0  0
   45.7881    7.4003   14.0353 H   0  0  0  0  0  0  0  0  0  0  0  0
   52.1041    6.4797   21.3770 H   0  0  0  0  0  0  0  0  0  0  0  0
   52.1124    4.9875   20.4146 H   0  0  0  0  0  0  0  0  0  0  0  0
   51.6554    4.9178   22.0906 H   0  0  0  0  0  0  0  0  0  0  0  0
   50.1044    5.3806   23.4887 H   0  0  0  0  0  0  0  0  0  0  0  0
   46.7543    9.4035   21.3565 H   0  0  0  0  0  0  0  0  0  0  0  0
   48.8867    6.5687   25.2488 H   0  0  0  0  0  0  0  0  0  0  0  0
   47.3144    8.3988   24.6597 H   0  0  0  0  0  0  0  0  0  0  0  0
   46.4804    2.7571   17.1523 H   0  0  0  0  0  0  0  0  0  0  0  0
   46.6744    3.7844   18.5864 H   0  0  0  0  0  0  0  0  0  0  0  0
   47.3629    2.1780   18.5607 H   0  0  0  0  0  0  0  0  0  0  0  0
   49.3023    1.7177   17.1086 H   0  0  0  0  0  0  0  0  0  0  0  0
   48.4944    2.3569   15.6701 H   0  0  0  0  0  0  0  0  0  0  0  0
   50.0663    2.9952   16.1955 H   0  0  0  0  0  0  0  0  0  0  0  0
   50.4584    4.9207   16.5019 H   0  0  0  0  0  0  0  0  0  0  0  0
   50.9276    6.9516   19.2677 H   0  0  0  0  0  0  0  0  0  0  0  0
   47.5166    5.3987   17.1980 H   0  0  0  0  0  0  0  0  0  0  0  0
   49.1704    4.5074   19.0154 H   0  0  0  0  0  0  0  0  0  0  0  0
   51.0720    8.1902   16.3138 H   0  0  0  0  0  0  0  0  0  0  0  0
   47.4204    9.0017   17.9295 H   0  0  0  0  0  0  0  0  0  0  0  0
   49.0053    4.5192   21.2721 H   0  0  0  0  0  0  0  0  0  0  0  0
   51.1461    4.0359   19.6274 H   0  0  0  0  0  0  0  0  0  0  0  0
   48.6122    7.9077   11.5653 H   0  0  0  0  0  0  0  0  0  0  0  0
   49.4989    8.1670   13.0637 H   0  0  0  0  0  0  0  0  0  0  0  0
   51.7179    6.3000   22.5630 H   0  0  0  0  0  0  0  0  0  0  0  0
   52.2781    5.8747   20.9610 H   0  0  0  0  0  0  0  0  0  0  0  0
   51.7859    7.5473   21.3064 H   0  0  0  0  0  0  0  0  0  0  0  0
   49.7868    5.7988   23.7366 H   0  0  0  0  0  0  0  0  0  0  0  0
   46.3189    9.3467   21.0376 H   0  0  0  0  0  0  0  0  0  0  0  0
   48.2051    6.8735   25.2810 H   0  0  0  0  0  0  0  0  0  0  0  0
   46.5428    8.4971   24.4167 H   0  0  0  0  0  0  0  0  0  0  0  0
   48.4209    2.0723   15.5138 H   0  0  0  0  0  0  0  0  0  0  0  0
   49.1226    1.5767   17.0620 H   0  0  0  0  0  0  0  0  0  0  0  0
   49.9160    2.8169   16.1136 H   0  0  0  0  0  0  0  0  0  0  0  0
   46.7620    2.2555   18.2100 H   0  0  0  0  0  0  0  0  0  0  0  0
   46.3589    2.4827   16.5063 H   0  0  0  0  0  0  0  0  0  0  0  0
   46.1212    3.7997   17.6783 H   0  0  0  0  0  0  0  0  0  0  0  0
  2  5  2  0
  3  1  1  0
  4  7  1  0
  5  1  1  0
  6  2  1  0
  7  1  1  0
  8  4  2  0
  9  2  1  0
 10  6  1  0
  3 11  1  0
 12  3  1  0
 13  9  1  0
 14 13  2  0
 15  4  1  0
 16  8  1  0
 11 17  1  0
 18  7  2  0
 19  9  2  0
 20 13  1  0
  1 21  1  6
 22 15  2  0
 23  5  1  0
 10 24  1  1
 12 25  1  0
 26 15  1  0
 10 27  1  0
 28 14  1  0
 29 20  1  0
 30 31  1  0
 31 20  2  0
 32 17  1  0
 33 17  1  0
 12  6  1  0
 11  8  1  0
 10 14  1  0
 30 28  2  0
 35 38  2  0
 36 34  1  0
 37 40  1  0
 38 34  1  0
 39 35  1  0
 40 34  1  0
 41 37  2  0
 42 35  1  0
 43 39  1  0
 36 44  1  0
 45 36  1  0
 46 42  1  0
 47 46  2  0
 48 37  1  0
 49 41  1  0
 44 50  1  0
 51 40  2  0
 52 42  2  0
 53 46  1  0
 34 54  1  6
 55 48  2  0
 56 38  1  0
 43 57  1  1
 45 58  1  0
 59 48  1  0
 43 60  1  0
 61 47  1  0
 62 53  1  0
 63 64  1  0
 64 53  2  0
 65 50  1  0
 66 50  1  0
 45 39  1  0
 44 41  1  0
 43 47  1  0
 63 61  2  0
  3 68  1  6
  6 69  1  6
 11 70  1  1
 12 71  1  6
 21 72  1  0
 23 73  1  0
 24 74  1  0
 25 75  1  0
 26 76  1  0
 26 77  1  0
 27 78  1  0
 27 79  1  0
 27 80  1  0
 28 81  1  0
 29 82  1  0
 30 83  1  0
 31 84  1  0
 32 85  1  0
 32 86  1  0
 32 87  1  0
 33 88  1  0
 33 89  1  0
 33 90  1  0
 36 91  1  6
 39 92  1  6
 44 93  1  1
 45 94  1  1
 54 95  1  0
 56 96  1  0
 57 97  1  0
 58 98  1  0
 59 99  1  0
 59100  1  0
 60101  1  0
 60102  1  0
 60103  1  0
 61104  1  0
 62105  1  0
 63106  1  0
 64107  1  0
 65108  1  0
 65109  1  0
 65110  1  0
 66111  1  0
 66112  1  0
 66113  1  0
M  CHG  3  16  -1  49  -1  67   2
M  END
> <Uni-Dock RESULT> 
ENERGY=   -7.046  LOWER_BOUND=    4.259  UPPER_BOUND=    6.560
INTER + INTRA:          -7.046
INTER:                  -7.046
INTRA:                   0.000
UNBOUND:                 0.000

$$$$

     RDKit          3D

113118  0  0  0  0  0  0  0  0999 V2000
   43.2259   10.9505   10.4586 C   0  0  2  0  0  0  0  0  0  0  0  0
   44.9614   11.6690    8.8175 C   0  0  0  0  0  0  0  0  0  0  0  0
   43.6045   12.1866   11.2724 C   0  0  2  0  0  0  0  0  0  0  0  0
   40.8087   11.8527   10.7880 C   0  0  0  0  0  0  0  0  0  0  0  0
   43.7428   11.1142    9.0391 C   0  0  0  0  0  0  0  0  0  0  0  0
   45.8904   11.9948    9.9582 C   0  0  1  0  0  0  0  0  0  0  0  0
   41.7295   10.6817   10.6433 C   0  0  0  0  0  0  0  0  0  0  0  0
   41.2670   13.1311   10.6907 C   0  0  0  0  0  0  0  0  0  0  0  0
   45.4544   11.8584    7.4302 C   0  0  0  0  0  0  0  0  0  0  0  0
   47.0563   12.9990    9.6825 C   0  0  1  0  0  0  0  0  0  0  0  0
   42.8239   13.4151   10.6749 C   0  0  1  0  0  0  0  0  0  0  0  0
   45.1489   12.2846   11.3166 C   0  0  2  0  0  0  0  0  0  0  0  0
   46.7765   12.4905    7.1907 C   0  0  0  0  0  0  0  0  0  0  0  0
   47.5396   13.0142    8.2474 C   0  0  0  0  0  0  0  0  0  0  0  0
   39.3662   11.5062   10.8948 C   0  0  0  0  0  0  0  0  0  0  0  0
   40.5514   14.1723   10.6047 O   0  0  0  0  0  0  0  0  0  0  0  0
   43.3939   14.6622   11.2651 N   0  0  0  0  0  0  0  0  0  0  0  0
   41.3259    9.5134   10.6685 O   0  0  0  0  0  0  0  0  0  0  0  0
   44.7670   11.5228    6.4578 O   0  0  0  0  0  0  0  0  0  0  0  0
   47.2516   12.6003    5.8643 C   0  0  0  0  0  0  0  0  0  0  0  0
   43.8903    9.7733   10.9878 O   0  0  0  0  0  0  0  0  0  0  0  0
   38.8117   11.1964   11.9493 O   0  0  0  0  0  0  0  0  0  0  0  0
   42.8874   10.7070    8.0309 O   0  0  0  0  0  0  0  0  0  0  0  0
   46.6858   14.3448    9.9943 O   0  0  0  0  0  0  0  0  0  0  0  0
   45.6271   11.2766   12.2531 O   0  0  0  0  0  0  0  0  0  0  0  0
   38.7041   11.3885    9.7066 N   0  0  0  0  0  0  0  0  0  0  0  0
   48.2069   12.6410   10.6635 C   0  0  0  0  0  0  0  0  0  0  0  0
   48.7605   13.6529    7.9164 C   0  0  0  0  0  0  0  0  0  0  0  0
   46.5540   12.1504    4.7690 O   0  0  0  0  0  0  0  0  0  0  0  0
   49.2336   13.7269    6.6024 C   0  0  0  0  0  0  0  0  0  0  0  0
   48.4732   13.2017    5.5712 C   0  0  0  0  0  0  0  0  0  0  0  0
   43.1490   15.8578   10.4559 C   0  0  0  0  0  0  0  0  0  0  0  0
   43.0101   14.9063   12.6505 C   0  0  0  0  0  0  0  0  0  0  0  0
   43.4192   11.1406   10.6039 C   0  0  2  0  0  0  0  0  0  0  0  0
   44.9602   11.7303    8.7424 C   0  0  0  0  0  0  0  0  0  0  0  0
   43.7171   12.4841   11.2678 C   0  0  2  0  0  0  0  0  0  0  0  0
   40.8850   11.6268   11.1477 C   0  0  0  0  0  0  0  0  0  0  0  0
   43.7731   11.1948    9.1226 C   0  0  0  0  0  0  0  0  0  0  0  0
   45.9242   12.1654    9.8159 C   0  0  1  0  0  0  0  0  0  0  0  0
   42.0005   10.6460   10.9195 C   0  0  0  0  0  0  0  0  0  0  0  0
   41.1493   12.9675   11.0939 C   0  0  0  0  0  0  0  0  0  0  0  0
   45.3207   11.8370    7.3127 C   0  0  0  0  0  0  0  0  0  0  0  0
   47.2877   12.7947    9.3682 C   0  0  1  0  0  0  0  0  0  0  0  0
   42.6086   13.5017   10.8247 C   0  0  1  0  0  0  0  0  0  0  0  0
   45.1580   12.9874   10.8994 C   0  0  2  0  0  0  0  0  0  0  0  0
   46.5793   12.5086    6.9202 C   0  0  0  0  0  0  0  0  0  0  0  0
   47.4981   12.9537    7.8742 C   0  0  0  0  0  0  0  0  0  0  0  0
   39.4738   11.0714   11.3683 C   0  0  0  0  0  0  0  0  0  0  0  0
   40.3094   13.9063   11.2074 O   0  0  0  0  0  0  0  0  0  0  0  0
   43.0238   14.8607   11.2879 N   0  0  0  0  0  0  0  0  0  0  0  0
   41.8133    9.4147   10.9671 O   0  0  0  0  0  0  0  0  0  0  0  0
   44.5681   11.4007    6.4303 O   0  0  0  0  0  0  0  0  0  0  0  0
   46.8485   12.7246    5.5510 C   0  0  0  0  0  0  0  0  0  0  0  0
   44.2786   10.1167   11.1675 O   0  0  0  0  0  0  0  0  0  0  0  0
   38.3998   11.6571   11.2655 O   0  0  0  0  0  0  0  0  0  0  0  0
   42.8452   10.6808    8.2474 O   0  0  0  0  0  0  0  0  0  0  0  0
   47.4523   14.1059    9.9343 O   0  0  0  0  0  0  0  0  0  0  0  0
   45.9570   13.0208   12.0908 O   0  0  0  0  0  0  0  0  0  0  0  0
   39.3923    9.7277   11.6605 N   0  0  0  0  0  0  0  0  0  0  0  0
   48.4355   11.9488    9.9812 C   0  0  0  0  0  0  0  0  0  0  0  0
   48.6688   13.6111    7.4113 C   0  0  0  0  0  0  0  0  0  0  0  0
   45.9939   12.3364    4.5433 O   0  0  0  0  0  0  0  0  0  0  0  0
   48.9307   13.8008    6.0529 C   0  0  0  0  0  0  0  0  0  0  0  0
   48.0157   13.3495    5.1161 C   0  0  0  0  0  0  0  0  0  0  0  0
   42.8140   15.1099   12.7068 C   0  0  0  0  0  0  0  0  0  0  0  0
   42.4836   15.9541   10.4833 C   0  0  0  0  0  0  0  0  0  0  0  0
   44.4834   12.6915    9.6882 Ca  0  0  0  0  0 15  0  0  0  0  0  0
   43.2713   12.0227   12.3115 H   0  0  0  0  0  0  0  0  0  0  0  0
   46.4061   11.0205   10.0890 H   0  0  0  0  0  0  0  0  0  0  0  0
   43.0775   13.4858    9.6073 H   0  0  0  0  0  0  0  0  0  0  0  0
   45.4658   13.2295   11.7609 H   0  0  0  0  0  0  0  0  0  0  0  0
   43.2682    9.0399   10.7810 H   0  0  0  0  0  0  0  0  0  0  0  0
   43.2847   10.9580    7.1672 H   0  0  0  0  0  0  0  0  0  0  0  0
   45.9634   14.6411    9.4063 H   0  0  0  0  0  0  0  0  0  0  0  0
   45.1341   10.4567   12.0322 H   0  0  0  0  0  0  0  0  0  0  0  0
   37.7773   11.0114    9.7019 H   0  0  0  0  0  0  0  0  0  0  0  0
   39.0379   11.8092    8.8444 H   0  0  0  0  0  0  0  0  0  0  0  0
   48.6345   11.6552   10.4329 H   0  0  0  0  0  0  0  0  0  0  0  0
   47.8520   12.6185   11.7028 H   0  0  0  0  0  0  0  0  0  0  0  0
   49.0243   13.3713   10.6630 H   0  0  0  0  0  0  0  0  0  0  0  0
   49.3673   14.1236    8.6904 H   0  0  0  0  0  0  0  0  0  0  0  0
   45.7037   11.7667    5.0880 H   0  0  0  0  0  0  0  0  0  0  0  0
   50.1817   14.2166    6.3837 H   0  0  0  0  0  0  0  0  0  0  0  0
   48.8110   13.2758    4.5386 H   0  0  0  0  0  0  0  0  0  0  0  0
   42.1221   16.2289   10.4904 H   0  0  0  0  0  0  0  0  0  0  0  0
   43.4193   15.6901    9.4056 H   0  0  0  0  0  0  0  0  0  0  0  0
   43.7940   16.6909   10.7888 H   0  0  0  0  0  0  0  0  0  0  0  0
   43.6132   15.7362   13.0554 H   0  0  0  0  0  0  0  0  0  0  0  0
   41.9547   15.1800   12.7894 H   0  0  0  0  0  0  0  0  0  0  0  0
   43.2283   14.0496   13.2936 H   0  0  0  0  0  0  0  0  0  0  0  0
   43.6634   12.3483   12.3599 H   0  0  0  0  0  0  0  0  0  0  0  0
   46.2151   11.2229   10.3066 H   0  0  0  0  0  0  0  0  0  0  0  0
   42.6691   13.5509    9.7269 H   0  0  0  0  0  0  0  0  0  0  0  0
   45.1045   14.0214   10.5512 H   0  0  0  0  0  0  0  0  0  0  0  0
   43.7757    9.2829   11.0593 H   0  0  0  0  0  0  0  0  0  0  0  0
   43.1725   10.8080    7.3292 H   0  0  0  0  0  0  0  0  0  0  0  0
   46.9221   14.7328    9.4065 H   0  0  0  0  0  0  0  0  0  0  0  0
   46.6868   13.6464   11.9136 H   0  0  0  0  0  0  0  0  0  0  0  0
   38.4538    9.3382   11.6529 H   0  0  0  0  0  0  0  0  0  0  0  0
   40.1893    9.1266   11.4482 H   0  0  0  0  0  0  0  0  0  0  0  0
   49.4327   12.3264    9.7256 H   0  0  0  0  0  0  0  0  0  0  0  0
   48.3867   11.9572   11.0785 H   0  0  0  0  0  0  0  0  0  0  0  0
   48.3859   10.8987    9.6506 H   0  0  0  0  0  0  0  0  0  0  0  0
   49.3995   13.9976    8.1243 H   0  0  0  0  0  0  0  0  0  0  0  0
   45.2025   11.9307    4.9604 H   0  0  0  0  0  0  0  0  0  0  0  0
   49.8389   14.2971    5.7245 H   0  0  0  0  0  0  0  0  0  0  0  0
   48.1912   13.4926    4.0559 H   0  0  0  0  0  0  0  0  0  0  0  0
   41.7883   15.4073   12.9668 H   0  0  0  0  0  0  0  0  0  0  0  0
   43.4801   15.9259   13.0295 H   0  0  0  0  0  0  0  0  0  0  0  0
   43.0818   14.2462   13.3248 H   0  0  0  0  0  0  0  0  0  0  0  0
   43.1749   16.8130   10.4856 H   0  0  0  0  0  0  0  0  0  0  0  0
   41.5162   16.3311   10.8507 H   0  0  0  0  0  0  0  0  0  0  0  0
   42.3560   15.6825    9.4229 H   0  0  0  0  0  0  0  0  0  0  0  0
  2  5  2  0
  3  1  1  0
  4  7  1  0
  5  1  1  0
  6  2  1  0
  7  1  1  0
  8  4  2  0
  9  2  1  0
 10  6  1  0
  3 11  1  0
 12  3  1  0
 13  9  1  0
 14 13  2  0
 15  4  1  0
 16  8  1  0
 11 17  1  0
 18  7  2  0
 19  9  2  0
 20 13  1  0
  1 21  1  6
 22 15  2  0
 23  5  1  0
 10 24  1  1
 12 25  1  0
 26 15  1  0
 10 27  1  0
 28 14  1  0
 29 20  1  0
 30 31  1  0
 31 20  2  0
 32 17  1  0
 33 17  1  0
 12  6  1  0
 11  8  1  0
 10 14  1  0
 30 28  2  0
 35 38  2  0
 36 34  1  0
 37 40  1  0
 38 34  1  0
 39 35  1  0
 40 34  1  0
 41 37  2  0
 42 35  1  0
 43 39  1  0
 36 44  1  0
 45 36  1  0
 46 42  1  0
 47 46  2  0
 48 37  1  0
 49 41  1  0
 44 50  1  0
 51 40  2  0
 52 42  2  0
 53 46  1  0
 34 54  1  6
 55 48  2  0
 56 38  1  0
 43 57  1  1
 45 58  1  0
 59 48  1  0
 43 60  1  0
 61 47  1  0
 62 53  1  0
 63 64  1  0
 64 53  2  0
 65 50  1  0
 66 50  1  0
 45 39  1  0
 44 41  1  0
 43 47  1  0
 63 61  2  0
  3 68  1  6
  6 69  1  6
 11 70  1  1
 12 71  1  6
 21 72  1  0
 23 73  1  0
 24 74  1  0
 25 75  1  0
 26 76  1  0
 26 77  1  0
 27 78  1  0
 27 79  1  0
 27 80  1  0
 28 81  1  0
 29 82  1  0
 30 83  1  0
 31 84  1  0
 32 85  1  0
 32 86  1  0
 32 87  1  0
 33 88  1  0
 33 89  1  0
 33 90  1  0
 36 91  1  6
 39 92  1  6
 44 93  1  1
 45 94  1  1
 54 95  1  0
 56 96  1  0
 57 97  1  0
 58 98  1  0
 59 99  1  0
 59100  1  0
 60101  1  0
 60102  1  0
 60103  1  0
 61104  1  0
 62105  1  0
 63106  1  0
 64107  1  0
 65108  1  0
 65109  1  0
 65110  1  0
 66111  1  0
 66112  1  0
 66113  1  0
M  CHG  3  16  -1  49  -1  67   2
M  END
> <Uni-Dock RESULT> 
ENERGY=   -7.044  LOWER_BOUND=    9.713  UPPER_BOUND=   12.765
INTER + INTRA:          -7.044
INTER:                  -7.044
INTRA:                   0.000
UNBOUND:                 0.000

$$$$

     RDKit          3D

113118  0  0  0  0  0  0  0  0999 V2000
   48.9361    9.1251   20.1819 C   0  0  2  0  0  0  0  0  0  0  0  0
   48.9744    6.8378   19.1877 C   0  0  0  0  0  0  0  0  0  0  0  0
   50.2882    9.3492   19.5072 C   0  0  2  0  0  0  0  0  0  0  0  0
   48.3434   11.3925   19.0537 C   0  0  0  0  0  0  0  0  0  0  0  0
   48.2514    7.9324   19.5356 C   0  0  0  0  0  0  0  0  0  0  0  0
   50.4279    6.7098   19.5639 C   0  0  1  0  0  0  0  0  0  0  0  0
   48.1748   10.4537   20.2071 C   0  0  0  0  0  0  0  0  0  0  0  0
   49.0972   11.0567   17.9707 C   0  0  0  0  0  0  0  0  0  0  0  0
   48.3124    5.6846   18.5278 C   0  0  0  0  0  0  0  0  0  0  0  0
   51.2913    5.6648   18.7853 C   0  0  1  0  0  0  0  0  0  0  0  0
   50.0189    9.7708   18.0154 C   0  0  1  0  0  0  0  0  0  0  0  0
   51.1612    8.0920   19.7394 C   0  0  2  0  0  0  0  0  0  0  0  0
   49.1113    4.4999   18.1241 C   0  0  0  0  0  0  0  0  0  0  0  0
   50.5096    4.4800   18.2572 C   0  0  0  0  0  0  0  0  0  0  0  0
   47.5178   12.6276   19.1251 C   0  0  0  0  0  0  0  0  0  0  0  0
   49.1451   11.6882   16.8741 O   0  0  0  0  0  0  0  0  0  0  0  0
   51.3129    9.7142   17.2734 N   0  0  0  0  0  0  0  0  0  0  0  0
   47.4477   10.7132   21.1727 O   0  0  0  0  0  0  0  0  0  0  0  0
   47.1007    5.7019   18.2787 O   0  0  0  0  0  0  0  0  0  0  0  0
   48.4476    3.3887   17.5569 C   0  0  0  0  0  0  0  0  0  0  0  0
   49.1198    8.7673   21.5767 O   0  0  0  0  0  0  0  0  0  0  0  0
   47.8520   13.6413   19.7384 O   0  0  0  0  0  0  0  0  0  0  0  0
   46.8942    8.0649   19.3020 O   0  0  0  0  0  0  0  0  0  0  0  0
   51.9446    6.2490   17.6551 O   0  0  0  0  0  0  0  0  0  0  0  0
   51.6212    8.1250   21.1211 O   0  0  0  0  0  0  0  0  0  0  0  0
   46.2633   12.5232   18.5967 N   0  0  0  0  0  0  0  0  0  0  0  0
   52.4289    5.2114   19.7416 C   0  0  0  0  0  0  0  0  0  0  0  0
   51.1932    3.3304   17.7893 C   0  0  0  0  0  0  0  0  0  0  0  0
   47.0891    3.3386   17.3547 O   0  0  0  0  0  0  0  0  0  0  0  0
   50.5210    2.2248   17.2586 C   0  0  0  0  0  0  0  0  0  0  0  0
   49.1418    2.2562   17.1380 C   0  0  0  0  0  0  0  0  0  0  0  0
   51.1514    9.5706   15.8250 C   0  0  0  0  0  0  0  0  0  0  0  0
   52.2292   10.8089   17.5703 C   0  0  0  0  0  0  0  0  0  0  0  0
   49.2283    9.0578   20.1129 C   0  0  2  0  0  0  0  0  0  0  0  0
   48.9477    6.8026   19.1015 C   0  0  0  0  0  0  0  0  0  0  0  0
   50.4797    9.2760   19.2639 C   0  0  2  0  0  0  0  0  0  0  0  0
   48.5389   11.5074   19.4208 C   0  0  0  0  0  0  0  0  0  0  0  0
   48.3644    7.9590   19.5055 C   0  0  0  0  0  0  0  0  0  0  0  0
   50.4208    6.6173   19.3592 C   0  0  1  0  0  0  0  0  0  0  0  0
   48.4978   10.3754   20.4085 C   0  0  0  0  0  0  0  0  0  0  0  0
   49.2528   11.3619   18.2635 C   0  0  0  0  0  0  0  0  0  0  0  0
   48.1487    5.7305   18.4708 C   0  0  0  0  0  0  0  0  0  0  0  0
   51.0892    5.2844   18.8778 C   0  0  1  0  0  0  0  0  0  0  0  0
   50.0560   10.0389   17.9605 C   0  0  1  0  0  0  0  0  0  0  0  0
   51.1874    7.9117   18.9426 C   0  0  2  0  0  0  0  0  0  0  0  0
   48.8224    4.5184   17.9551 C   0  0  0  0  0  0  0  0  0  0  0  0
   50.1905    4.3065   18.1445 C   0  0  0  0  0  0  0  0  0  0  0  0
   47.7157   12.7621   19.7314 C   0  0  0  0  0  0  0  0  0  0  0  0
   49.3338   12.1982   17.3180 O   0  0  0  0  0  0  0  0  0  0  0  0
   51.2299   10.0510   17.0355 N   0  0  0  0  0  0  0  0  0  0  0  0
   47.8694   10.4616   21.4813 O   0  0  0  0  0  0  0  0  0  0  0  0
   46.9221    5.8434   18.3363 O   0  0  0  0  0  0  0  0  0  0  0  0
   48.0705    3.5640   17.2357 C   0  0  0  0  0  0  0  0  0  0  0  0
   49.6078    8.5680   21.4247 O   0  0  0  0  0  0  0  0  0  0  0  0
   47.3572   13.6481   18.9610 O   0  0  0  0  0  0  0  0  0  0  0  0
   47.0170    8.2160   19.4088 O   0  0  0  0  0  0  0  0  0  0  0  0
   52.1864    5.5579   17.9899 O   0  0  0  0  0  0  0  0  0  0  0  0
   52.4761    7.8972   19.5736 O   0  0  0  0  0  0  0  0  0  0  0  0
   47.2670   12.8847   21.0280 N   0  0  0  0  0  0  0  0  0  0  0  0
   51.7351    4.5946   20.1090 C   0  0  0  0  0  0  0  0  0  0  0  0
   50.7616    3.1282   17.5942 C   0  0  0  0  0  0  0  0  0  0  0  0
   46.7228    3.6975   16.9857 O   0  0  0  0  0  0  0  0  0  0  0  0
   50.0015    2.1837   16.9012 C   0  0  0  0  0  0  0  0  0  0  0  0
   48.6450    2.4014   16.7254 C   0  0  0  0  0  0  0  0  0  0  0  0
   52.2625   11.0192   17.3760 C   0  0  0  0  0  0  0  0  0  0  0  0
   50.8726   10.1484   15.6222 C   0  0  0  0  0  0  0  0  0  0  0  0
   49.8279    7.7913   18.5597 Ca  0  0  0  0  0 15  0  0  0  0  0  0
   50.7924   10.1812   20.0280 H   0  0  0  0  0  0  0  0  0  0  0  0
   50.3401    6.2747   20.5814 H   0  0  0  0  0  0  0  0  0  0  0  0
   49.4101    8.9825   17.5495 H   0  0  0  0  0  0  0  0  0  0  0  0
   52.0803    8.1435   19.1536 H   0  0  0  0  0  0  0  0  0  0  0  0
   48.3124    9.1165   22.0168 H   0  0  0  0  0  0  0  0  0  0  0  0
   46.5899    7.2819   18.7910 H   0  0  0  0  0  0  0  0  0  0  0  0
   51.2835    6.5544   17.0032 H   0  0  0  0  0  0  0  0  0  0  0  0
   50.8303    8.3520   21.6568 H   0  0  0  0  0  0  0  0  0  0  0  0
   45.6088   13.2647   18.7480 H   0  0  0  0  0  0  0  0  0  0  0  0
   46.0054   11.8072   17.9237 H   0  0  0  0  0  0  0  0  0  0  0  0
   52.0292    4.6520   20.5989 H   0  0  0  0  0  0  0  0  0  0  0  0
   52.9872    6.0726   20.1332 H   0  0  0  0  0  0  0  0  0  0  0  0
   53.1857    4.5859   19.2543 H   0  0  0  0  0  0  0  0  0  0  0  0
   52.2821    3.2827   17.8191 H   0  0  0  0  0  0  0  0  0  0  0  0
   46.7051    4.1922   17.6641 H   0  0  0  0  0  0  0  0  0  0  0  0
   51.0767    1.3524   16.9169 H   0  0  0  0  0  0  0  0  0  0  0  0
   48.6034    1.4170   16.7002 H   0  0  0  0  0  0  0  0  0  0  0  0
   50.8178   10.4754   15.3119 H   0  0  0  0  0  0  0  0  0  0  0  0
   50.4542    8.7592   15.5806 H   0  0  0  0  0  0  0  0  0  0  0  0
   52.1077    9.2788   15.3547 H   0  0  0  0  0  0  0  0  0  0  0  0
   53.2144   10.5912   17.1252 H   0  0  0  0  0  0  0  0  0  0  0  0
   51.9115   11.7869   17.1820 H   0  0  0  0  0  0  0  0  0  0  0  0
   52.4126   10.9107   18.6432 H   0  0  0  0  0  0  0  0  0  0  0  0
   51.1793    9.9058   19.8367 H   0  0  0  0  0  0  0  0  0  0  0  0
   50.4921    6.5686   20.4575 H   0  0  0  0  0  0  0  0  0  0  0  0
   49.3160    9.3937   17.4632 H   0  0  0  0  0  0  0  0  0  0  0  0
   51.3837    7.8472   17.8699 H   0  0  0  0  0  0  0  0  0  0  0  0
   48.8870    8.8637   22.0185 H   0  0  0  0  0  0  0  0  0  0  0  0
   46.5802    7.4521   18.9705 H   0  0  0  0  0  0  0  0  0  0  0  0
   51.8198    5.7615   17.1086 H   0  0  0  0  0  0  0  0  0  0  0  0
   53.0118    7.2403   19.0870 H   0  0  0  0  0  0  0  0  0  0  0  0
   46.5986   13.6334   21.1868 H   0  0  0  0  0  0  0  0  0  0  0  0
   47.2478   12.0568   21.6245 H   0  0  0  0  0  0  0  0  0  0  0  0
   52.2378    3.6524   19.8604 H   0  0  0  0  0  0  0  0  0  0  0  0
   52.5072    5.2343   20.5574 H   0  0  0  0  0  0  0  0  0  0  0  0
   50.9875    4.3738   20.8879 H   0  0  0  0  0  0  0  0  0  0  0  0
   51.8314    2.9374   17.6968 H   0  0  0  0  0  0  0  0  0  0  0  0
   46.4299    4.5538   17.3675 H   0  0  0  0  0  0  0  0  0  0  0  0
   50.4604    1.2854   16.4996 H   0  0  0  0  0  0  0  0  0  0  0  0
   48.0346    1.6880   16.1833 H   0  0  0  0  0  0  0  0  0  0  0  0
   52.0586   12.0402   17.0238 H   0  0  0  0  0  0  0  0  0  0  0  0
   53.2143   10.7029   16.9205 H   0  0  0  0  0  0  0  0  0  0  0  0
   52.4501   11.0653   18.4541 H   0  0  0  0  0  0  0  0  0  0  0  0
   51.6255    9.6397   14.9978 H   0  0  0  0  0  0  0  0  0  0  0  0
   50.8130   11.1855   15.2565 H   0  0  0  0  0  0  0  0  0  0  0  0
   49.9152    9.6555   15.3879 H   0  0  0  0  0  0  0  0  0  0  0  0
  2  5  2  0
  3  1  1  0
  4  7  1  0
  5  1  1  0
  6  2  1  0
  7  1  1  0
  8  4  2  0
  9  2  1  0
 10  6  1  0
  3 11  1  0
 12  3  1  0
 13  9  1  0
 14 13  2  0
 15  4  1  0
 16  8  1  0
 11 17  1  0
 18  7  2  0
 19  9  2  0
 20 13  1  0
  1 21  1  6
 22 15  2  0
 23  5  1  0
 10 24  1  1
 12 25  1  0
 26 15  1  0
 10 27  1  0
 28 14  1  0
 29 20  1  0
 30 31  1  0
 31 20  2  0
 32 17  1  0
 33 17  1  0
 12  6  1  0
 11  8  1  0
 10 14  1  0
 30 28  2  0
 35 38  2  0
 36 34  1  0
 37 40  1  0
 38 34  1  0
 39 35  1  0
 40 34  1  0
 41 37  2  0
 42 35  1  0
 43 39  1  0
 36 44  1  0
 45 36  1  0
 46 42  1  0
 47 46  2  0
 48 37  1  0
 49 41  1  0
 44 50  1  0
 51 40  2  0
 52 42  2  0
 53 46  1  0
 34 54  1  6
 55 48  2  0
 56 38  1  0
 43 57  1  1
 45 58  1  0
 59 48  1  0
 43 60  1  0
 61 47  1  0
 62 53  1  0
 63 64  1  0
 64 53  2  0
 65 50  1  0
 66 50  1  0
 45 39  1  0
 44 41  1  0
 43 47  1  0
 63 61  2  0
  3 68  1  6
  6 69  1  6
 11 70  1  1
 12 71  1  6
 21 72  1  0
 23 73  1  0
 24 74  1  0
 25 75  1  0
 26 76  1  0
 26 77  1  0
 27 78  1  0
 27 79  1  0
 27 80  1  0
 28 81  1  0
 29 82  1  0
 30 83  1  0
 31 84  1  0
 32 85  1  0
 32 86  1  0
 32 87  1  0
 33 88  1  0
 33 89  1  0
 33 90  1  0
 36 91  1  6
 39 92  1  6
 44 93  1  1
 45 94  1  1
 54 95  1  0
 56 96  1  0
 57 97  1  0
 58 98  1  0
 59 99  1  0
 59100  1  0
 60101  1  0
 60102  1  0
 60103  1  0
 61104  1  0
 62105  1  0
 63106  1  0
 64107  1  0
 65108  1  0
 65109  1  0
 65110  1  0
 66111  1  0
 66112  1  0
 66113  1  0
M  CHG  3  16  -1  49  -1  67   2
M  END
> <Uni-Dock RESULT> 
ENERGY=   -6.936  LOWER_BOUND=    2.864  UPPER_BOUND=    4.454
INTER + INTRA:          -6.936
INTER:                  -6.936
INTRA:                   0.000
UNBOUND:                 0.000

$$$$

     RDKit          3D

113118  0  0  0  0  0  0  0  0999 V2000
   50.6113   10.9643   13.9636 C   0  0  2  0  0  0  0  0  0  0  0  0
   49.3423   11.1367   16.1041 C   0  0  0  0  0  0  0  0  0  0  0  0
   49.9045    9.6269   13.7504 C   0  0  2  0  0  0  0  0  0  0  0  0
   49.8011   11.4297   11.5362 C   0  0  0  0  0  0  0  0  0  0  0  0
   49.8570   11.7613   15.0147 C   0  0  0  0  0  0  0  0  0  0  0  0
   49.6288    9.6831   16.3790 C   0  0  1  0  0  0  0  0  0  0  0  0
   50.8369   11.6224   12.5993 C   0  0  0  0  0  0  0  0  0  0  0  0
   48.6497   10.7465   11.7840 C   0  0  0  0  0  0  0  0  0  0  0  0
   48.5782   11.9087   17.1159 C   0  0  0  0  0  0  0  0  0  0  0  0
   48.6864    8.9318   17.3747 C   0  0  1  0  0  0  0  0  0  0  0  0
   48.4909    9.9226   13.1260 C   0  0  1  0  0  0  0  0  0  0  0  0
   49.9374    8.8420   15.0843 C   0  0  2  0  0  0  0  0  0  0  0  0
   47.9934   11.2172   18.2927 C   0  0  0  0  0  0  0  0  0  0  0  0
   48.0550    9.8202   18.4261 C   0  0  0  0  0  0  0  0  0  0  0  0
   50.0641   12.1570   10.2658 C   0  0  0  0  0  0  0  0  0  0  0  0
   47.6382   10.6948   11.0238 O   0  0  0  0  0  0  0  0  0  0  0  0
   47.6856    8.6668   13.1780 N   0  0  0  0  0  0  0  0  0  0  0  0
   51.8613   12.2893   12.4141 O   0  0  0  0  0  0  0  0  0  0  0  0
   48.3923   13.1246   16.9833 O   0  0  0  0  0  0  0  0  0  0  0  0
   47.3265   11.9842   19.2745 C   0  0  0  0  0  0  0  0  0  0  0  0
   51.9408   10.7529   14.5067 O   0  0  0  0  0  0  0  0  0  0  0  0
   50.7807   11.7238    9.3634 O   0  0  0  0  0  0  0  0  0  0  0  0
   49.7077   13.1130   14.7600 O   0  0  0  0  0  0  0  0  0  0  0  0
   47.6064    8.2817   16.6990 O   0  0  0  0  0  0  0  0  0  0  0  0
   51.2886    8.3265   15.2582 O   0  0  0  0  0  0  0  0  0  0  0  0
   49.5884   13.4357   10.2154 N   0  0  0  0  0  0  0  0  0  0  0  0
   49.5232    7.7944   18.0230 C   0  0  0  0  0  0  0  0  0  0  0  0
   47.4164    9.2436   19.5520 C   0  0  0  0  0  0  0  0  0  0  0  0
   47.1859   13.3495   19.2044 O   0  0  0  0  0  0  0  0  0  0  0  0
   46.7868   10.0172   20.5324 C   0  0  0  0  0  0  0  0  0  0  0  0
   46.7382   11.3938   20.3904 C   0  0  0  0  0  0  0  0  0  0  0  0
   46.2401    8.8957   13.1259 C   0  0  0  0  0  0  0  0  0  0  0  0
   48.0702    7.6601   12.1957 C   0  0  0  0  0  0  0  0  0  0  0  0
   50.5204   10.6809   14.0418 C   0  0  2  0  0  0  0  0  0  0  0  0
   49.2537   11.1693   16.1262 C   0  0  0  0  0  0  0  0  0  0  0  0
   49.6450    9.4511   13.8054 C   0  0  2  0  0  0  0  0  0  0  0  0
   50.1697   11.2117   11.4825 C   0  0  0  0  0  0  0  0  0  0  0  0
   49.8250   11.6479   14.9925 C   0  0  0  0  0  0  0  0  0  0  0  0
   49.4148    9.7051   16.4442 C   0  0  1  0  0  0  0  0  0  0  0  0
   51.0112   11.2984   12.7246 C   0  0  0  0  0  0  0  0  0  0  0  0
   48.9699   10.5570   11.5297 C   0  0  0  0  0  0  0  0  0  0  0  0
   48.5354   12.0706   17.0520 C   0  0  0  0  0  0  0  0  0  0  0  0
   48.7410    9.1579   17.7488 C   0  0  1  0  0  0  0  0  0  0  0  0
   48.4676    9.8677   12.8563 C   0  0  1  0  0  0  0  0  0  0  0  0
   49.1242    8.8608   15.1639 C   0  0  2  0  0  0  0  0  0  0  0  0
   47.8422   11.5104   18.2329 C   0  0  0  0  0  0  0  0  0  0  0  0
   47.9373   10.1556   18.5615 C   0  0  0  0  0  0  0  0  0  0  0  0
   50.6720   11.9258   10.2230 C   0  0  0  0  0  0  0  0  0  0  0  0
   48.1318   10.4510   10.5883 O   0  0  0  0  0  0  0  0  0  0  0  0
   47.4953    8.7336   12.8089 N   0  0  0  0  0  0  0  0  0  0  0  0
   52.1157   11.8757   12.7314 O   0  0  0  0  0  0  0  0  0  0  0  0
   48.4756   13.2896   16.8382 O   0  0  0  0  0  0  0  0  0  0  0  0
   47.0481   12.3595   19.0344 C   0  0  0  0  0  0  0  0  0  0  0  0
   51.7419   10.2876   14.7185 O   0  0  0  0  0  0  0  0  0  0  0  0
   50.0349   12.2471    9.2241 O   0  0  0  0  0  0  0  0  0  0  0  0
   49.8262   12.9751   14.6325 O   0  0  0  0  0  0  0  0  0  0  0  0
   47.8414    8.0793   17.4420 O   0  0  0  0  0  0  0  0  0  0  0  0
   49.6852    7.5530   15.3473 O   0  0  0  0  0  0  0  0  0  0  0  0
   51.9941   12.3124   10.2345 N   0  0  0  0  0  0  0  0  0  0  0  0
   49.8451    8.5174   18.6317 C   0  0  0  0  0  0  0  0  0  0  0  0
   47.2191    9.6966   19.6975 C   0  0  0  0  0  0  0  0  0  0  0  0
   46.8821   13.7022   18.7771 O   0  0  0  0  0  0  0  0  0  0  0  0
   46.4528   10.5520   20.4918 C   0  0  0  0  0  0  0  0  0  0  0  0
   46.3711   11.8943   20.1602 C   0  0  0  0  0  0  0  0  0  0  0  0
   47.9019    7.6189   11.9654 C   0  0  0  0  0  0  0  0  0  0  0  0
   46.1238    9.1382   12.5091 C   0  0  0  0  0  0  0  0  0  0  0  0
   48.7958   10.2396   15.1404 Ca  0  0  0  0  0 15  0  0  0  0  0  0
   50.4987    9.0416   13.0279 H   0  0  0  0  0  0  0  0  0  0  0  0
   50.5880    9.7629   16.9321 H   0  0  0  0  0  0  0  0  0  0  0  0
   47.9615   10.6066   13.8050 H   0  0  0  0  0  0  0  0  0  0  0  0
   49.3185    7.9454   15.0230 H   0  0  0  0  0  0  0  0  0  0  0  0
   52.4593   11.5139   14.1607 H   0  0  0  0  0  0  0  0  0  0  0  0
   49.1195   13.4950   15.4492 H   0  0  0  0  0  0  0  0  0  0  0  0
   47.0300    8.9434   16.2686 H   0  0  0  0  0  0  0  0  0  0  0  0
   51.8860    9.0764   15.0464 H   0  0  0  0  0  0  0  0  0  0  0  0
   49.8615   14.0263    9.4553 H   0  0  0  0  0  0  0  0  0  0  0  0
   48.8457   13.7729   10.8209 H   0  0  0  0  0  0  0  0  0  0  0  0
   50.3234    8.2007   18.6572 H   0  0  0  0  0  0  0  0  0  0  0  0
   49.9904    7.1582   17.2590 H   0  0  0  0  0  0  0  0  0  0  0  0
   48.9264    7.1064   18.6329 H   0  0  0  0  0  0  0  0  0  0  0  0
   47.3872    8.1611   19.6785 H   0  0  0  0  0  0  0  0  0  0  0  0
   47.6164   13.6560   18.3721 H   0  0  0  0  0  0  0  0  0  0  0  0
   46.3137    9.5423   21.3910 H   0  0  0  0  0  0  0  0  0  0  0  0
   46.2270   12.0104   21.1282 H   0  0  0  0  0  0  0  0  0  0  0  0
   45.8591    9.1806   12.1425 H   0  0  0  0  0  0  0  0  0  0  0  0
   45.9317    9.6608   13.8495 H   0  0  0  0  0  0  0  0  0  0  0  0
   45.6915    7.9832   13.4215 H   0  0  0  0  0  0  0  0  0  0  0  0
   47.5543    6.7123   12.4233 H   0  0  0  0  0  0  0  0  0  0  0  0
   47.8212    7.9188   11.1569 H   0  0  0  0  0  0  0  0  0  0  0  0
   49.1373    7.4273   12.2434 H   0  0  0  0  0  0  0  0  0  0  0  0
   50.2564    8.6843   13.3031 H   0  0  0  0  0  0  0  0  0  0  0  0
   50.4940    9.5944   16.6362 H   0  0  0  0  0  0  0  0  0  0  0  0
   47.9312   10.6730   13.3806 H   0  0  0  0  0  0  0  0  0  0  0  0
   48.0434    8.7125   15.1058 H   0  0  0  0  0  0  0  0  0  0  0  0
   52.4019   10.9602   14.4510 H   0  0  0  0  0  0  0  0  0  0  0  0
   49.3189   13.4848   15.3027 H   0  0  0  0  0  0  0  0  0  0  0  0
   47.0107    8.4642   17.1037 H   0  0  0  0  0  0  0  0  0  0  0  0
   49.0959    7.0876   15.9731 H   0  0  0  0  0  0  0  0  0  0  0  0
   52.2762   12.9161    9.4673 H   0  0  0  0  0  0  0  0  0  0  0  0
   52.4844   12.3700   11.1278 H   0  0  0  0  0  0  0  0  0  0  0  0
   49.4582    8.0969   19.5675 H   0  0  0  0  0  0  0  0  0  0  0  0
   50.3309    7.6825   18.1089 H   0  0  0  0  0  0  0  0  0  0  0  0
   50.6263    9.2481   18.8968 H   0  0  0  0  0  0  0  0  0  0  0  0
   47.2453    8.6408   19.9735 H   0  0  0  0  0  0  0  0  0  0  0  0
   47.3803   13.9149   17.9578 H   0  0  0  0  0  0  0  0  0  0  0  0
   45.9218   10.1779   21.3619 H   0  0  0  0  0  0  0  0  0  0  0  0
   45.7756   12.5773   20.7553 H   0  0  0  0  0  0  0  0  0  0  0  0
   47.6885    7.7595   10.8964 H   0  0  0  0  0  0  0  0  0  0  0  0
   47.3653    6.7122   12.2869 H   0  0  0  0  0  0  0  0  0  0  0  0
   48.9670    7.3858   12.0691 H   0  0  0  0  0  0  0  0  0  0  0  0
   45.4056    8.4508   12.9859 H   0  0  0  0  0  0  0  0  0  0  0  0
   45.8919    9.1344   11.4325 H   0  0  0  0  0  0  0  0  0  0  0  0
   45.8773   10.1384   12.9009 H   0  0  0  0  0  0  0  0  0  0  0  0
  2  5  2  0
  3  1  1  0
  4  7  1  0
  5  1  1  0
  6  2  1  0
  7  1  1  0
  8  4  2  0
  9  2  1  0
 10  6  1  0
  3 11  1  0
 12  3  1  0
 13  9  1  0
 14 13  2  0
 15  4  1  0
 16  8  1  0
 11 17  1  0
 18  7  2  0
 19  9  2  0
 20 13  1  0
  1 21  1  6
 22 15  2  0
 23  5  1  0
 10 24  1  1
 12 25  1  0
 26 15  1  0
 10 27  1  0
 28 14  1  0
 29 20  1  0
 30 31  1  0
 31 20  2  0
 32 17  1  0
 33 17  1  0
 12  6  1  0
 11  8  1  0
 10 14  1  0
 30 28  2  0
 35 38  2  0
 36 34  1  0
 37 40  1  0
 38 34  1  0
 39 35  1  0
 40 34  1  0
 41 37  2  0
 42 35  1  0
 43 39  1  0
 36 44  1  0
 45 36  1  0
 46 42  1  0
 47 46  2  0
 48 37  1  0
 49 41  1  0
 44 50  1  0
 51 40  2  0
 52 42  2  0
 53 46  1  0
 34 54  1  6
 55 48  2  0
 56 38  1  0
 43 57  1  1
 45 58  1  0
 59 48  1  0
 43 60  1  0
 61 47  1  0
 62 53  1  0
 63 64  1  0
 64 53  2  0
 65 50  1  0
 66 50  1  0
 45 39  1  0
 44 41  1  0
 43 47  1  0
 63 61  2  0
  3 68  1  6
  6 69  1  6
 11 70  1  1
 12 71  1  6
 21 72  1  0
 23 73  1  0
 24 74  1  0
 25 75  1  0
 26 76  1  0
 26 77  1  0
 27 78  1  0
 27 79  1  0
 27 80  1  0
 28 81  1  0
 29 82  1  0
 30 83  1  0
 31 84  1  0
 32 85  1  0
 32 86  1  0
 32 87  1  0
 33 88  1  0
 33 89  1  0
 33 90  1  0
 36 91  1  6
 39 92  1  6
 44 93  1  1
 45 94  1  1
 54 95  1  0
 56 96  1  0
 57 97  1  0
 58 98  1  0
 59 99  1  0
 59100  1  0
 60101  1  0
 60102  1  0
 60103  1  0
 61104  1  0
 62105  1  0
 63106  1  0
 64107  1  0
 65108  1  0
 65109  1  0
 65110  1  0
 66111  1  0
 66112  1  0
 66113  1  0
M  CHG  3  16  -1  49  -1  67   2
M  END
> <Uni-Dock RESULT> 
ENERGY=   -6.910  LOWER_BOUND=    4.163  UPPER_BOUND=    6.675
INTER + INTRA:          -6.910
INTER:                  -6.910
INTRA:                   0.000
UNBOUND:                 0.000

$$$$

     RDKit          3D

113118  0  0  0  0  0  0  0  0999 V2000
   51.3274    8.6241   14.8046 C   0  0  2  0  0  0  0  0  0  0  0  0
   50.0080   10.0124   16.4024 C   0  0  0  0  0  0  0  0  0  0  0  0
   50.1579    7.6415   14.8239 C   0  0  2  0  0  0  0  0  0  0  0  0
   51.0700    8.4034   12.2258 C   0  0  0  0  0  0  0  0  0  0  0  0
   50.8577    9.9642   15.3453 C   0  0  0  0  0  0  0  0  0  0  0  0
   49.6298    8.7648   17.1581 C   0  0  1  0  0  0  0  0  0  0  0  0
   51.9620    8.6032   13.4109 C   0  0  0  0  0  0  0  0  0  0  0  0
   49.7187    8.3102   12.3634 C   0  0  0  0  0  0  0  0  0  0  0  0
   49.5236   11.3198   16.9120 C   0  0  0  0  0  0  0  0  0  0  0  0
   48.3524    8.8185   18.0577 C   0  0  1  0  0  0  0  0  0  0  0  0
   49.0779    8.1569   13.8024 C   0  0  1  0  0  0  0  0  0  0  0  0
   49.7073    7.4516   16.2928 C   0  0  2  0  0  0  0  0  0  0  0  0
   48.5727   11.3676   18.0515 C   0  0  0  0  0  0  0  0  0  0  0  0
   48.0315   10.1944   18.6030 C   0  0  0  0  0  0  0  0  0  0  0  0
   51.7563    8.4640   10.9076 C   0  0  0  0  0  0  0  0  0  0  0  0
   48.8724    8.3360   11.4216 O   0  0  0  0  0  0  0  0  0  0  0  0
   47.8229    7.3776   14.0170 N   0  0  0  0  0  0  0  0  0  0  0  0
   53.1849    8.7500   13.3035 O   0  0  0  0  0  0  0  0  0  0  0  0
   49.8772   12.3809   16.3832 O   0  0  0  0  0  0  0  0  0  0  0  0
   48.1773   12.6255   18.5597 C   0  0  0  0  0  0  0  0  0  0  0  0
   52.3761    8.1802   15.7049 O   0  0  0  0  0  0  0  0  0  0  0  0
   52.3263    7.5053   10.3866 O   0  0  0  0  0  0  0  0  0  0  0  0
   51.3149   11.0838   14.6733 O   0  0  0  0  0  0  0  0  0  0  0  0
   47.1856    8.3851   17.3533 O   0  0  0  0  0  0  0  0  0  0  0  0
   50.6914    6.6013   16.9485 O   0  0  0  0  0  0  0  0  0  0  0  0
   51.8652    9.7109   10.3624 N   0  0  0  0  0  0  0  0  0  0  0  0
   48.5591    7.7896   19.2035 C   0  0  0  0  0  0  0  0  0  0  0  0
   47.0858   10.3408   19.6481 C   0  0  0  0  0  0  0  0  0  0  0  0
   48.6268   13.8225   18.0557 O   0  0  0  0  0  0  0  0  0  0  0  0
   46.7270   11.5909   20.1623 C   0  0  0  0  0  0  0  0  0  0  0  0
   47.2724   12.7388   19.6123 C   0  0  0  0  0  0  0  0  0  0  0  0
   46.6204    8.0598   13.5341 C   0  0  0  0  0  0  0  0  0  0  0  0
   47.8641    6.0119   13.5076 C   0  0  0  0  0  0  0  0  0  0  0  0
   51.1185    8.4412   14.9372 C   0  0  2  0  0  0  0  0  0  0  0  0
   49.9392   10.0796   16.3906 C   0  0  0  0  0  0  0  0  0  0  0  0
   49.8444    7.6014   14.8606 C   0  0  2  0  0  0  0  0  0  0  0  0
   51.3179    8.0673   12.3343 C   0  0  0  0  0  0  0  0  0  0  0  0
   50.7842    9.8696   15.3503 C   0  0  0  0  0  0  0  0  0  0  0  0
   49.4385    8.8827   17.1573 C   0  0  1  0  0  0  0  0  0  0  0  0
   51.9700    8.3104   13.6663 C   0  0  0  0  0  0  0  0  0  0  0  0
   49.9579    7.9408   12.2666 C   0  0  0  0  0  0  0  0  0  0  0  0
   49.5597   11.4501   16.7944 C   0  0  0  0  0  0  0  0  0  0  0  0
   48.4527    9.1332   18.3492 C   0  0  1  0  0  0  0  0  0  0  0  0
   49.0651    8.0174   13.5644 C   0  0  1  0  0  0  0  0  0  0  0  0
   48.9724    7.7815   16.1539 C   0  0  2  0  0  0  0  0  0  0  0  0
   48.5652   11.6502   17.8714 C   0  0  0  0  0  0  0  0  0  0  0  0
   48.0494   10.5743   18.5986 C   0  0  0  0  0  0  0  0  0  0  0  0
   52.2133    8.0370   11.0910 C   0  0  0  0  0  0  0  0  0  0  0  0
   49.2663    7.7919   11.2180 O   0  0  0  0  0  0  0  0  0  0  0  0
   47.7216    7.3642   13.6089 N   0  0  0  0  0  0  0  0  0  0  0  0
   53.2057    8.4236   13.7825 O   0  0  0  0  0  0  0  0  0  0  0  0
   50.0377   12.4397   16.2219 O   0  0  0  0  0  0  0  0  0  0  0  0
   48.1100   12.9560   18.1568 C   0  0  0  0  0  0  0  0  0  0  0  0
   51.9786    7.9284   15.9870 O   0  0  0  0  0  0  0  0  0  0  0  0
   51.8875    8.1637    9.9142 O   0  0  0  0  0  0  0  0  0  0  0  0
   51.3791   10.8763   14.6267 O   0  0  0  0  0  0  0  0  0  0  0  0
   47.2277    8.4056   18.1570 O   0  0  0  0  0  0  0  0  0  0  0  0
   48.9130    6.5293   16.8519 O   0  0  0  0  0  0  0  0  0  0  0  0
   53.5654    7.9120   11.3231 N   0  0  0  0  0  0  0  0  0  0  0  0
   49.0802    8.5256   19.6322 C   0  0  0  0  0  0  0  0  0  0  0  0
   47.0796   10.8534   19.5980 C   0  0  0  0  0  0  0  0  0  0  0  0
   48.5488   14.0729   17.4809 O   0  0  0  0  0  0  0  0  0  0  0  0
   46.6529   12.1523   19.8820 C   0  0  0  0  0  0  0  0  0  0  0  0
   47.1761   13.2116   19.1591 C   0  0  0  0  0  0  0  0  0  0  0  0
   47.7216    5.9495   13.2650 C   0  0  0  0  0  0  0  0  0  0  0  0
   46.6875    8.0794   12.8649 C   0  0  0  0  0  0  0  0  0  0  0  0
   49.2528    9.0731   15.6413 Ca  0  0  0  0  0 15  0  0  0  0  0  0
   50.5335    6.6617   14.4825 H   0  0  0  0  0  0  0  0  0  0  0  0
   50.4644    8.7044   17.8875 H   0  0  0  0  0  0  0  0  0  0  0  0
   48.8068    9.1828   14.0910 H   0  0  0  0  0  0  0  0  0  0  0  0
   48.7829    6.8741   16.3441 H   0  0  0  0  0  0  0  0  0  0  0  0
   53.2003    8.5247   15.2931 H   0  0  0  0  0  0  0  0  0  0  0  0
   50.8640   11.8742   15.0457 H   0  0  0  0  0  0  0  0  0  0  0  0
   46.9906    8.9951   16.6149 H   0  0  0  0  0  0  0  0  0  0  0  0
   51.5667    6.9587   16.6836 H   0  0  0  0  0  0  0  0  0  0  0  0
   52.4449    9.8404    9.5572 H   0  0  0  0  0  0  0  0  0  0  0  0
   51.2659   10.4856   10.6317 H   0  0  0  0  0  0  0  0  0  0  0  0
   49.3769    8.0957   19.8708 H   0  0  0  0  0  0  0  0  0  0  0  0
   48.8037    6.7950   18.8067 H   0  0  0  0  0  0  0  0  0  0  0  0
   47.6642    7.6335   19.8170 H   0  0  0  0  0  0  0  0  0  0  0  0
   46.5944    9.4672   20.0771 H   0  0  0  0  0  0  0  0  0  0  0  0
   49.2385   13.6259   17.3080 H   0  0  0  0  0  0  0  0  0  0  0  0
   46.0037   11.6674   20.9733 H   0  0  0  0  0  0  0  0  0  0  0  0
   46.9829   13.7222   19.9797 H   0  0  0  0  0  0  0  0  0  0  0  0
   46.5087    8.0718   12.4475 H   0  0  0  0  0  0  0  0  0  0  0  0
   46.5773    9.0949   13.8960 H   0  0  0  0  0  0  0  0  0  0  0  0
   45.7118    7.5769   13.9367 H   0  0  0  0  0  0  0  0  0  0  0  0
   46.9781    5.4618   13.8663 H   0  0  0  0  0  0  0  0  0  0  0  0
   47.8668    5.9346   12.4112 H   0  0  0  0  0  0  0  0  0  0  0  0
   48.7242    5.4569   13.8914 H   0  0  0  0  0  0  0  0  0  0  0  0
   50.1346    6.5415   14.7800 H   0  0  0  0  0  0  0  0  0  0  0  0
   50.3436    8.4821   17.6410 H   0  0  0  0  0  0  0  0  0  0  0  0
   48.8561    9.0925   13.6730 H   0  0  0  0  0  0  0  0  0  0  0  0
   47.9426    8.0097   15.8697 H   0  0  0  0  0  0  0  0  0  0  0  0
   52.8847    8.1767   15.7095 H   0  0  0  0  0  0  0  0  0  0  0  0
   51.0565   11.7413   14.9645 H   0  0  0  0  0  0  0  0  0  0  0  0
   46.6776    8.9007   17.5207 H   0  0  0  0  0  0  0  0  0  0  0  0
   48.1157    6.5678   17.4161 H   0  0  0  0  0  0  0  0  0  0  0  0
   54.1594    8.0469   10.5098 H   0  0  0  0  0  0  0  0  0  0  0  0
   53.9286    8.1229   12.2532 H   0  0  0  0  0  0  0  0  0  0  0  0
   48.4485    8.6475   20.5200 H   0  0  0  0  0  0  0  0  0  0  0  0
   49.2311    7.4433   19.5208 H   0  0  0  0  0  0  0  0  0  0  0  0
   50.0584    8.9798   19.8587 H   0  0  0  0  0  0  0  0  0  0  0  0
   46.6320   10.0391   20.1710 H   0  0  0  0  0  0  0  0  0  0  0  0
   49.1811   13.7767   16.7900 H   0  0  0  0  0  0  0  0  0  0  0  0
   45.9180   12.3400   20.6590 H   0  0  0  0  0  0  0  0  0  0  0  0
   46.8547   14.2284   19.3540 H   0  0  0  0  0  0  0  0  0  0  0  0
   47.7108    5.7470   12.1847 H   0  0  0  0  0  0  0  0  0  0  0  0
   46.8232    5.4769   13.6927 H   0  0  0  0  0  0  0  0  0  0  0  0
   48.5734    5.4158   13.6999 H   0  0  0  0  0  0  0  0  0  0  0  0
   45.6987    7.9165   13.3247 H   0  0  0  0  0  0  0  0  0  0  0  0
   46.6008    7.7562   11.8157 H   0  0  0  0  0  0  0  0  0  0  0  0
   46.8364    9.1714   12.8675 H   0  0  0  0  0  0  0  0  0  0  0  0
  2  5  2  0
  3  1  1  0
  4  7  1  0
  5  1  1  0
  6  2  1  0
  7  1  1  0
  8  4  2  0
  9  2  1  0
 10  6  1  0
  3 11  1  0
 12  3  1  0
 13  9  1  0
 14 13  2  0
 15  4  1  0
 16  8  1  0
 11 17  1  0
 18  7  2  0
 19  9  2  0
 20 13  1  0
  1 21  1  6
 22 15  2  0
 23  5  1  0
 10 24  1  1
 12 25  1  0
 26 15  1  0
 10 27  1  0
 28 14  1  0
 29 20  1  0
 30 31  1  0
 31 20  2  0
 32 17  1  0
 33 17  1  0
 12  6  1  0
 11  8  1  0
 10 14  1  0
 30 28  2  0
 35 38  2  0
 36 34  1  0
 37 40  1  0
 38 34  1  0
 39 35  1  0
 40 34  1  0
 41 37  2  0
 42 35  1  0
 43 39  1  0
 36 44  1  0
 45 36  1  0
 46 42  1  0
 47 46  2  0
 48 37  1  0
 49 41  1  0
 44 50  1  0
 51 40  2  0
 52 42  2  0
 53 46  1  0
 34 54  1  6
 55 48  2  0
 56 38  1  0
 43 57  1  1
 45 58  1  0
 59 48  1  0
 43 60  1  0
 61 47  1  0
 62 53  1  0
 63 64  1  0
 64 53  2  0
 65 50  1  0
 66 50  1  0
 45 39  1  0
 44 41  1  0
 43 47  1  0
 63 61  2  0
  3 68  1  6
  6 69  1  6
 11 70  1  1
 12 71  1  6
 21 72  1  0
 23 73  1  0
 24 74  1  0
 25 75  1  0
 26 76  1  0
 26 77  1  0
 27 78  1  0
 27 79  1  0
 27 80  1  0
 28 81  1  0
 29 82  1  0
 30 83  1  0
 31 84  1  0
 32 85  1  0
 32 86  1  0
 32 87  1  0
 33 88  1  0
 33 89  1  0
 33 90  1  0
 36 91  1  6
 39 92  1  6
 44 93  1  1
 45 94  1  1
 54 95  1  0
 56 96  1  0
 57 97  1  0
 58 98  1  0
 59 99  1  0
 59100  1  0
 60101  1  0
 60102  1  0
 60103  1  0
 61104  1  0
 62105  1  0
 63106  1  0
 64107  1  0
 65108  1  0
 65109  1  0
 65110  1  0
 66111  1  0
 66112  1  0
 66113  1  0
M  CHG  3  16  -1  49  -1  67   2
M  END
> <Uni-Dock RESULT> 
ENERGY=   -6.830  LOWER_BOUND=    4.777  UPPER_BOUND=    7.149
INTER + INTRA:          -6.830
INTER:                  -6.830
INTRA:                   0.000
UNBOUND:                 0.000

$$$$

     RDKit          3D

113118  0  0  0  0  0  0  0  0999 V2000
   50.6151    5.2990   17.6147 C   0  0  2  0  0  0  0  0  0  0  0  0
   49.2638    7.2157   18.4640 C   0  0  0  0  0  0  0  0  0  0  0  0
   51.5164    6.3382   16.9505 C   0  0  2  0  0  0  0  0  0  0  0  0
   52.8717    4.3622   18.5067 C   0  0  0  0  0  0  0  0  0  0  0  0
   49.7791    5.9799   18.6854 C   0  0  0  0  0  0  0  0  0  0  0  0
   49.3734    7.8776   17.1148 C   0  0  1  0  0  0  0  0  0  0  0  0
   51.4742    4.1037   18.0373 C   0  0  0  0  0  0  0  0  0  0  0  0
   53.3566    5.6290   18.6254 C   0  0  0  0  0  0  0  0  0  0  0  0
   48.4732    7.8953   19.5208 C   0  0  0  0  0  0  0  0  0  0  0  0
   49.1559    9.4240   17.0435 C   0  0  1  0  0  0  0  0  0  0  0  0
   52.5415    6.8480   18.0298 C   0  0  1  0  0  0  0  0  0  0  0  0
   50.6162    7.4006   16.2739 C   0  0  2  0  0  0  0  0  0  0  0  0
   47.9338    9.2585   19.2852 C   0  0  0  0  0  0  0  0  0  0  0  0
   48.2395    9.9747   18.1160 C   0  0  0  0  0  0  0  0  0  0  0  0
   53.6132    3.1560   18.9618 C   0  0  0  0  0  0  0  0  0  0  0  0
   54.4410    5.9596   19.1897 O   0  0  0  0  0  0  0  0  0  0  0  0
   53.2318    8.0543   17.4851 N   0  0  0  0  0  0  0  0  0  0  0  0
   50.9939    2.9659   17.9789 O   0  0  0  0  0  0  0  0  0  0  0  0
   48.2762    7.3553   20.6164 O   0  0  0  0  0  0  0  0  0  0  0  0
   47.1300    9.8574   20.2813 C   0  0  0  0  0  0  0  0  0  0  0  0
   49.6673    4.7635   16.6543 O   0  0  0  0  0  0  0  0  0  0  0  0
   54.2223    2.3995   18.2054 O   0  0  0  0  0  0  0  0  0  0  0  0
   49.6276    5.2836   19.8713 O   0  0  0  0  0  0  0  0  0  0  0  0
   50.3874   10.1416   17.1622 O   0  0  0  0  0  0  0  0  0  0  0  0
   50.0708    6.8069   15.0608 O   0  0  0  0  0  0  0  0  0  0  0  0
   53.4466    2.8294   20.2769 N   0  0  0  0  0  0  0  0  0  0  0  0
   48.6181    9.7429   15.6210 C   0  0  0  0  0  0  0  0  0  0  0  0
   47.7292   11.2920   18.0057 C   0  0  0  0  0  0  0  0  0  0  0  0
   46.8134    9.2448   21.4702 O   0  0  0  0  0  0  0  0  0  0  0  0
   46.9091   11.8608   18.9853 C   0  0  0  0  0  0  0  0  0  0  0  0
   46.6118   11.1413   20.1305 C   0  0  0  0  0  0  0  0  0  0  0  0
   53.8039    8.9185   18.5196 C   0  0  0  0  0  0  0  0  0  0  0  0
   54.2295    7.7696   16.4605 C   0  0  0  0  0  0  0  0  0  0  0  0
   50.6766    5.5428   17.4374 C   0  0  2  0  0  0  0  0  0  0  0  0
   49.2713    7.2727   18.5421 C   0  0  0  0  0  0  0  0  0  0  0  0
   51.6334    6.6340   16.9596 C   0  0  2  0  0  0  0  0  0  0  0  0
   52.8337    4.1855   18.1148 C   0  0  0  0  0  0  0  0  0  0  0  0
   49.8474    6.0465   18.6127 C   0  0  0  0  0  0  0  0  0  0  0  0
   49.3998    8.0495   17.2571 C   0  0  1  0  0  0  0  0  0  0  0  0
   51.3982    4.2079   17.6707 C   0  0  0  0  0  0  0  0  0  0  0  0
   53.5006    5.3669   18.2882 C   0  0  0  0  0  0  0  0  0  0  0  0
   48.4939    7.8118   19.6781 C   0  0  0  0  0  0  0  0  0  0  0  0
   48.7425    9.4703   17.1883 C   0  0  1  0  0  0  0  0  0  0  0  0
   52.7985    6.7501   18.0034 C   0  0  1  0  0  0  0  0  0  0  0  0
   50.8803    7.9980   16.7653 C   0  0  2  0  0  0  0  0  0  0  0  0
   47.9542    9.1878   19.6122 C   0  0  0  0  0  0  0  0  0  0  0  0
   48.0662    9.9618   18.4543 C   0  0  0  0  0  0  0  0  0  0  0  0
   53.4707    2.8252   18.4186 C   0  0  0  0  0  0  0  0  0  0  0  0
   54.6846    5.5090   18.7098 O   0  0  0  0  0  0  0  0  0  0  0  0
   53.6041    7.9604   17.6569 N   0  0  0  0  0  0  0  0  0  0  0  0
   50.7497    3.1592   17.4896 O   0  0  0  0  0  0  0  0  0  0  0  0
   48.3127    7.1401   20.7034 O   0  0  0  0  0  0  0  0  0  0  0  0
   47.3308    9.7400   20.7525 C   0  0  0  0  0  0  0  0  0  0  0  0
   49.7177    5.2422   16.3910 O   0  0  0  0  0  0  0  0  0  0  0  0
   54.4842    2.5867   19.0689 O   0  0  0  0  0  0  0  0  0  0  0  0
   49.7310    5.2025   19.6922 O   0  0  0  0  0  0  0  0  0  0  0  0
   49.7212   10.4670   16.8482 O   0  0  0  0  0  0  0  0  0  0  0  0
   50.9075    8.3493   15.3743 O   0  0  0  0  0  0  0  0  0  0  0  0
   52.7885    1.7218   17.9553 N   0  0  0  0  0  0  0  0  0  0  0  0
   47.7355    9.4810   16.0074 C   0  0  0  0  0  0  0  0  0  0  0  0
   47.5429   11.2818   18.4857 C   0  0  0  0  0  0  0  0  0  0  0  0
   47.1913    9.0584   21.9410 O   0  0  0  0  0  0  0  0  0  0  0  0
   46.9121   11.8079   19.6150 C   0  0  0  0  0  0  0  0  0  0  0  0
   46.8010   11.0290   20.7548 C   0  0  0  0  0  0  0  0  0  0  0  0
   54.5088    7.7864   16.5297 C   0  0  0  0  0  0  0  0  0  0  0  0
   54.3005    8.5570   18.7944 C   0  0  0  0  0  0  0  0  0  0  0  0
   50.5976    7.5338   18.0745 Ca  0  0  0  0  0 15  0  0  0  0  0  0
   52.0716    5.8360   16.1398 H   0  0  0  0  0  0  0  0  0  0  0  0
   48.4782    7.4611   16.6073 H   0  0  0  0  0  0  0  0  0  0  0  0
   51.9652    7.2337   18.8831 H   0  0  0  0  0  0  0  0  0  0  0  0
   51.2111    8.2409   15.9126 H   0  0  0  0  0  0  0  0  0  0  0  0
   49.5043    3.8468   16.9716 H   0  0  0  0  0  0  0  0  0  0  0  0
   49.1632    5.8645   20.5144 H   0  0  0  0  0  0  0  0  0  0  0  0
   50.7829    9.9906   18.0432 H   0  0  0  0  0  0  0  0  0  0  0  0
   49.7642    5.9110   15.3206 H   0  0  0  0  0  0  0  0  0  0  0  0
   53.7925    1.9505   20.6072 H   0  0  0  0  0  0  0  0  0  0  0  0
   53.1318    3.4960   20.9759 H   0  0  0  0  0  0  0  0  0  0  0  0
   47.6159    9.3182   15.4698 H   0  0  0  0  0  0  0  0  0  0  0  0
   49.2776    9.3323   14.8443 H   0  0  0  0  0  0  0  0  0  0  0  0
   48.5656   10.8161   15.4044 H   0  0  0  0  0  0  0  0  0  0  0  0
   47.9783   11.9125   17.1445 H   0  0  0  0  0  0  0  0  0  0  0  0
   47.2460    8.3590   21.4793 H   0  0  0  0  0  0  0  0  0  0  0  0
   46.5253   12.8732   18.8645 H   0  0  0  0  0  0  0  0  0  0  0  0
   45.9992   11.5784   20.9176 H   0  0  0  0  0  0  0  0  0  0  0  0
   54.7092    8.5282   18.9900 H   0  0  0  0  0  0  0  0  0  0  0  0
   53.0718    9.1340   19.3081 H   0  0  0  0  0  0  0  0  0  0  0  0
   54.0706    9.9045   18.0982 H   0  0  0  0  0  0  0  0  0  0  0  0
   54.5519    8.7147   15.9924 H   0  0  0  0  0  0  0  0  0  0  0  0
   55.1357    7.2714   16.8331 H   0  0  0  0  0  0  0  0  0  0  0  0
   53.8197    7.1678   15.6450 H   0  0  0  0  0  0  0  0  0  0  0  0
   52.0515    6.3246   15.9883 H   0  0  0  0  0  0  0  0  0  0  0  0
   48.8231    7.4547   16.5309 H   0  0  0  0  0  0  0  0  0  0  0  0
   52.3181    6.9999   18.9615 H   0  0  0  0  0  0  0  0  0  0  0  0
   51.4261    8.7918   17.2805 H   0  0  0  0  0  0  0  0  0  0  0  0
   49.4572    4.3117   16.5524 H   0  0  0  0  0  0  0  0  0  0  0  0
   49.2083    5.6544   20.3916 H   0  0  0  0  0  0  0  0  0  0  0  0
   50.2320   10.6773   17.6529 H   0  0  0  0  0  0  0  0  0  0  0  0
   50.7674    9.3158   15.3332 H   0  0  0  0  0  0  0  0  0  0  0  0
   53.1327    0.8265   18.2909 H   0  0  0  0  0  0  0  0  0  0  0  0
   51.8054    1.8201   17.6996 H   0  0  0  0  0  0  0  0  0  0  0  0
   47.2328   10.4470   15.8787 H   0  0  0  0  0  0  0  0  0  0  0  0
   48.2451    9.2818   15.0549 H   0  0  0  0  0  0  0  0  0  0  0  0
   46.9524    8.7164   16.1360 H   0  0  0  0  0  0  0  0  0  0  0  0
   47.6331   11.9288   17.6112 H   0  0  0  0  0  0  0  0  0  0  0  0
   47.6147    8.1786   21.8341 H   0  0  0  0  0  0  0  0  0  0  0  0
   46.5106   12.8168   19.6096 H   0  0  0  0  0  0  0  0  0  0  0  0
   46.3239   11.4173   21.6475 H   0  0  0  0  0  0  0  0  0  0  0  0
   55.4635    7.3060   16.7863 H   0  0  0  0  0  0  0  0  0  0  0  0
   54.7467    8.7748   16.1055 H   0  0  0  0  0  0  0  0  0  0  0  0
   54.0522    7.2154   15.7142 H   0  0  0  0  0  0  0  0  0  0  0  0
   54.4116    9.6446   18.6516 H   0  0  0  0  0  0  0  0  0  0  0  0
   55.3153    8.1566   18.9449 H   0  0  0  0  0  0  0  0  0  0  0  0
   53.7505    8.4398   19.7422 H   0  0  0  0  0  0  0  0  0  0  0  0
  2  5  2  0
  3  1  1  0
  4  7  1  0
  5  1  1  0
  6  2  1  0
  7  1  1  0
  8  4  2  0
  9  2  1  0
 10  6  1  0
  3 11  1  0
 12  3  1  0
 13  9  1  0
 14 13  2  0
 15  4  1  0
 16  8  1  0
 11 17  1  0
 18  7  2  0
 19  9  2  0
 20 13  1  0
  1 21  1  6
 22 15  2  0
 23  5  1  0
 10 24  1  1
 12 25  1  0
 26 15  1  0
 10 27  1  0
 28 14  1  0
 29 20  1  0
 30 31  1  0
 31 20  2  0
 32 17  1  0
 33 17  1  0
 12  6  1  0
 11  8  1  0
 10 14  1  0
 30 28  2  0
 35 38  2  0
 36 34  1  0
 37 40  1  0
 38 34  1  0
 39 35  1  0
 40 34  1  0
 41 37  2  0
 42 35  1  0
 43 39  1  0
 36 44  1  0
 45 36  1  0
 46 42  1  0
 47 46  2  0
 48 37  1  0
 49 41  1  0
 44 50  1  0
 51 40  2  0
 52 42  2  0
 53 46  1  0
 34 54  1  6
 55 48  2  0
 56 38  1  0
 43 57  1  1
 45 58  1  0
 59 48  1  0
 43 60  1  0
 61 47  1  0
 62 53  1  0
 63 64  1  0
 64 53  2  0
 65 50  1  0
 66 50  1  0
 45 39  1  0
 44 41  1  0
 43 47  1  0
 63 61  2  0
  3 68  1  6
  6 69  1  6
 11 70  1  1
 12 71  1  6
 21 72  1  0
 23 73  1  0
 24 74  1  0
 25 75  1  0
 26 76  1  0
 26 77  1  0
 27 78  1  0
 27 79  1  0
 27 80  1  0
 28 81  1  0
 29 82  1  0
 30 83  1  0
 31 84  1  0
 32 85  1  0
 32 86  1  0
 32 87  1  0
 33 88  1  0
 33 89  1  0
 33 90  1  0
 36 91  1  6
 39 92  1  6
 44 93  1  1
 45 94  1  1
 54 95  1  0
 56 96  1  0
 57 97  1  0
 58 98  1  0
 59 99  1  0
 59100  1  0
 60101  1  0
 60102  1  0
 60103  1  0
 61104  1  0
 62105  1  0
 63106  1  0
 64107  1  0
 65108  1  0
 65109  1  0
 65110  1  0
 66111  1  0
 66112  1  0
 66113  1  0
M  CHG  3  16  -1  49  -1  67   2
M  END
> <Uni-Dock RESULT> 
ENERGY=   -6.722  LOWER_BOUND=    4.101  UPPER_BOUND=    7.427
INTER + INTRA:          -6.722
INTER:                  -6.722
INTRA:                   0.000
UNBOUND:                 0.000

$$$$

     RDKit          3D

113118  0  0  0  0  0  0  0  0999 V2000
   49.9873   11.6473   14.1633 C   0  0  2  0  0  0  0  0  0  0  0  0
   48.9778   11.1523   16.3898 C   0  0  0  0  0  0  0  0  0  0  0  0
   49.6930   10.1928   13.8008 C   0  0  2  0  0  0  0  0  0  0  0  0
   48.8035   12.1296   11.8980 C   0  0  0  0  0  0  0  0  0  0  0  0
   49.1545   12.0346   15.3738 C   0  0  0  0  0  0  0  0  0  0  0  0
   49.7151    9.8386   16.4206 C   0  0  1  0  0  0  0  0  0  0  0  0
   49.8486   12.5044   12.9017 C   0  0  0  0  0  0  0  0  0  0  0  0
   47.9451   11.0964   12.1207 C   0  0  0  0  0  0  0  0  0  0  0  0
   48.1387   11.5178   17.5586 C   0  0  0  0  0  0  0  0  0  0  0  0
   49.1604    8.7151   17.3554 C   0  0  1  0  0  0  0  0  0  0  0  0
   48.1940   10.1067   13.3304 C   0  0  1  0  0  0  0  0  0  0  0  0
   50.1111    9.3005   14.9949 C   0  0  2  0  0  0  0  0  0  0  0  0
   47.9256   10.5401   18.6557 C   0  0  0  0  0  0  0  0  0  0  0  0
   48.4167    9.2267   18.5714 C   0  0  0  0  0  0  0  0  0  0  0  0
   48.6903   13.0521   10.7369 C   0  0  0  0  0  0  0  0  0  0  0  0
   46.9154   10.8251   11.4352 O   0  0  0  0  0  0  0  0  0  0  0  0
   47.8123    8.6659   13.2488 N   0  0  0  0  0  0  0  0  0  0  0  0
   50.5988   13.4749   12.7473 O   0  0  0  0  0  0  0  0  0  0  0  0
   47.5840   12.6216   17.6250 O   0  0  0  0  0  0  0  0  0  0  0  0
   47.1766   10.9348   19.7872 C   0  0  0  0  0  0  0  0  0  0  0  0
   51.3721   11.7965   14.5723 O   0  0  0  0  0  0  0  0  0  0  0  0
   49.3957   12.9777    9.7307 O   0  0  0  0  0  0  0  0  0  0  0  0
   48.5799   13.2927   15.3379 O   0  0  0  0  0  0  0  0  0  0  0  0
   48.2544    7.8482   16.6677 O   0  0  0  0  0  0  0  0  0  0  0  0
   51.5652    9.2151   14.9923 O   0  0  0  0  0  0  0  0  0  0  0  0
   47.8517   14.1147   10.9145 N   0  0  0  0  0  0  0  0  0  0  0  0
   50.3672    7.8252   17.7631 C   0  0  0  0  0  0  0  0  0  0  0  0
   48.1125    8.3467   19.6396 C   0  0  0  0  0  0  0  0  0  0  0  0
   46.6274   12.1860   19.9346 O   0  0  0  0  0  0  0  0  0  0  0  0
   47.3968    8.7595   20.7679 C   0  0  0  0  0  0  0  0  0  0  0  0
   46.9230   10.0587   20.8398 C   0  0  0  0  0  0  0  0  0  0  0  0
   46.3685    8.4370   13.3348 C   0  0  0  0  0  0  0  0  0  0  0  0
   48.3655    7.9573   12.1007 C   0  0  0  0  0  0  0  0  0  0  0  0
   49.9948   11.3424   14.2039 C   0  0  2  0  0  0  0  0  0  0  0  0
   48.8867   11.1528   16.4228 C   0  0  0  0  0  0  0  0  0  0  0  0
   49.5060    9.9395   13.8469 C   0  0  2  0  0  0  0  0  0  0  0  0
   49.2117   12.0457   11.7859 C   0  0  0  0  0  0  0  0  0  0  0  0
   49.1555   11.9204   15.3370 C   0  0  0  0  0  0  0  0  0  0  0  0
   49.5132    9.7846   16.5034 C   0  0  1  0  0  0  0  0  0  0  0  0
   50.1249   12.2382   12.9639 C   0  0  0  0  0  0  0  0  0  0  0  0
   48.2761   11.0488   11.8186 C   0  0  0  0  0  0  0  0  0  0  0  0
   48.0424   11.6648   17.5231 C   0  0  0  0  0  0  0  0  0  0  0  0
   49.1873    8.8995   17.7546 C   0  0  1  0  0  0  0  0  0  0  0  0
   48.1576   10.0806   13.0579 C   0  0  1  0  0  0  0  0  0  0  0  0
   49.3440    9.0548   15.1339 C   0  0  2  0  0  0  0  0  0  0  0  0
   47.6879   10.7765   18.6519 C   0  0  0  0  0  0  0  0  0  0  0  0
   48.2205    9.4895   18.7640 C   0  0  0  0  0  0  0  0  0  0  0  0
   49.3305   13.0291   10.6166 C   0  0  0  0  0  0  0  0  0  0  0  0
   47.4062   10.8026   10.9340 O   0  0  0  0  0  0  0  0  0  0  0  0
   47.5699    8.7146   12.9086 N   0  0  0  0  0  0  0  0  0  0  0  0
   50.9996   13.1259   12.9794 O   0  0  0  0  0  0  0  0  0  0  0  0
   47.5970   12.8208   17.5010 O   0  0  0  0  0  0  0  0  0  0  0  0
   46.7732   11.2309   19.6269 C   0  0  0  0  0  0  0  0  0  0  0  0
   51.3469   11.2701   14.7248 O   0  0  0  0  0  0  0  0  0  0  0  0
   48.5168   13.2551    9.7255 O   0  0  0  0  0  0  0  0  0  0  0  0
   48.7189   13.2153   15.1828 O   0  0  0  0  0  0  0  0  0  0  0  0
   48.6223    7.6400   17.3528 O   0  0  0  0  0  0  0  0  0  0  0  0
   50.2874    7.9751   15.0770 O   0  0  0  0  0  0  0  0  0  0  0  0
   50.4688   13.8044   10.5924 N   0  0  0  0  0  0  0  0  0  0  0  0
   50.5256    8.5325   18.4498 C   0  0  0  0  0  0  0  0  0  0  0  0
   47.8068    8.6942   19.8655 C   0  0  0  0  0  0  0  0  0  0  0  0
   46.1854   12.4757   19.5884 O   0  0  0  0  0  0  0  0  0  0  0  0
   46.9158    9.1641   20.8326 C   0  0  0  0  0  0  0  0  0  0  0  0
   46.3994   10.4439   20.7146 C   0  0  0  0  0  0  0  0  0  0  0  0
   48.1920    7.8941   11.8794 C   0  0  0  0  0  0  0  0  0  0  0  0
   46.1153    8.7046   12.7717 C   0  0  0  0  0  0  0  0  0  0  0  0
   48.6181   10.2544   15.3428 Ca  0  0  0  0  0 15  0  0  0  0  0  0
   50.3484    9.9149   12.9577 H   0  0  0  0  0  0  0  0  0  0  0  0
   50.6631   10.1454   16.9098 H   0  0  0  0  0  0  0  0  0  0  0  0
   47.5655   10.5031   14.1410 H   0  0  0  0  0  0  0  0  0  0  0  0
   49.7856    8.2701   14.8427 H   0  0  0  0  0  0  0  0  0  0  0  0
   51.5965   12.7175   14.3095 H   0  0  0  0  0  0  0  0  0  0  0  0
   47.9872   13.3849   16.1169 H   0  0  0  0  0  0  0  0  0  0  0  0
   47.4613    8.3444   16.3844 H   0  0  0  0  0  0  0  0  0  0  0  0
   51.8829   10.1339   14.8545 H   0  0  0  0  0  0  0  0  0  0  0  0
   47.8471   14.8492   10.2352 H   0  0  0  0  0  0  0  0  0  0  0  0
   47.1164   14.1267   11.6153 H   0  0  0  0  0  0  0  0  0  0  0  0
   51.0763    8.3802   18.3930 H   0  0  0  0  0  0  0  0  0  0  0  0
   50.9127    7.4648   16.8804 H   0  0  0  0  0  0  0  0  0  0  0  0
   50.0770    6.9163   18.3027 H   0  0  0  0  0  0  0  0  0  0  0  0
   48.4228    7.3022   19.6025 H   0  0  0  0  0  0  0  0  0  0  0  0
   46.8486   12.7107   19.1299 H   0  0  0  0  0  0  0  0  0  0  0  0
   47.1885    8.0595   21.5762 H   0  0  0  0  0  0  0  0  0  0  0  0
   46.3386   10.3901   21.6968 H   0  0  0  0  0  0  0  0  0  0  0  0
   45.8101    8.7068   12.4355 H   0  0  0  0  0  0  0  0  0  0  0  0
   45.9302    8.9733   14.1859 H   0  0  0  0  0  0  0  0  0  0  0  0
   46.1552    7.3700   13.5271 H   0  0  0  0  0  0  0  0  0  0  0  0
   48.1860    6.8755   12.2183 H   0  0  0  0  0  0  0  0  0  0  0  0
   47.9336    8.2503   11.1333 H   0  0  0  0  0  0  0  0  0  0  0  0
   49.4515    8.0650   12.0366 H   0  0  0  0  0  0  0  0  0  0  0  0
   50.2571    9.4690   13.1922 H   0  0  0  0  0  0  0  0  0  0  0  0
   50.5907    9.9934   16.5993 H   0  0  0  0  0  0  0  0  0  0  0  0
   47.4686   10.6081   13.7348 H   0  0  0  0  0  0  0  0  0  0  0  0
   48.3578    8.5851   15.1310 H   0  0  0  0  0  0  0  0  0  0  0  0
   51.7407   12.1425   14.5160 H   0  0  0  0  0  0  0  0  0  0  0  0
   48.1624   13.4554   15.9568 H   0  0  0  0  0  0  0  0  0  0  0  0
   47.6816    7.7849   17.1366 H   0  0  0  0  0  0  0  0  0  0  0  0
   49.9396    7.2764   15.6654 H   0  0  0  0  0  0  0  0  0  0  0  0
   50.4681   14.5549    9.9074 H   0  0  0  0  0  0  0  0  0  0  0  0
   51.0181   13.9025   11.4470 H   0  0  0  0  0  0  0  0  0  0  0  0
   50.3915    7.9013   19.3362 H   0  0  0  0  0  0  0  0  0  0  0  0
   51.1756    7.9612   17.7734 H   0  0  0  0  0  0  0  0  0  0  0  0
   51.0776    9.4323   18.7662 H   0  0  0  0  0  0  0  0  0  0  0  0
   48.1787    7.6739   19.9760 H   0  0  0  0  0  0  0  0  0  0  0  0
   46.5003   12.9316   18.7773 H   0  0  0  0  0  0  0  0  0  0  0  0
   46.6238    8.5397   21.6715 H   0  0  0  0  0  0  0  0  0  0  0  0
   45.6990   10.8290   21.4470 H   0  0  0  0  0  0  0  0  0  0  0  0
   47.8258    8.0906   10.8619 H   0  0  0  0  0  0  0  0  0  0  0  0
   47.9913    6.8331   12.0972 H   0  0  0  0  0  0  0  0  0  0  0  0
   49.2827    7.9941   11.8706 H   0  0  0  0  0  0  0  0  0  0  0  0
   45.6948    7.7746   13.1887 H   0  0  0  0  0  0  0  0  0  0  0  0
   45.7739    8.7602   11.7261 H   0  0  0  0  0  0  0  0  0  0  0  0
   45.6277    9.5222   13.3268 H   0  0  0  0  0  0  0  0  0  0  0  0
  2  5  2  0
  3  1  1  0
  4  7  1  0
  5  1  1  0
  6  2  1  0
  7  1  1  0
  8  4  2  0
  9  2  1  0
 10  6  1  0
  3 11  1  0
 12  3  1  0
 13  9  1  0
 14 13  2  0
 15  4  1  0
 16  8  1  0
 11 17  1  0
 18  7  2  0
 19  9  2  0
 20 13  1  0
  1 21  1  6
 22 15  2  0
 23  5  1  0
 10 24  1  1
 12 25  1  0
 26 15  1  0
 10 27  1  0
 28 14  1  0
 29 20  1  0
 30 31  1  0
 31 20  2  0
 32 17  1  0
 33 17  1  0
 12  6  1  0
 11  8  1  0
 10 14  1  0
 30 28  2  0
 35 38  2  0
 36 34  1  0
 37 40  1  0
 38 34  1  0
 39 35  1  0
 40 34  1  0
 41 37  2  0
 42 35  1  0
 43 39  1  0
 36 44  1  0
 45 36  1  0
 46 42  1  0
 47 46  2  0
 48 37  1  0
 49 41  1  0
 44 50  1  0
 51 40  2  0
 52 42  2  0
 53 46  1  0
 34 54  1  6
 55 48  2  0
 56 38  1  0
 43 57  1  1
 45 58  1  0
 59 48  1  0
 43 60  1  0
 61 47  1  0
 62 53  1  0
 63 64  1  0
 64 53  2  0
 65 50  1  0
 66 50  1  0
 45 39  1  0
 44 41  1  0
 43 47  1  0
 63 61  2  0
  3 68  1  6
  6 69  1  6
 11 70  1  1
 12 71  1  6
 21 72  1  0
 23 73  1  0
 24 74  1  0
 25 75  1  0
 26 76  1  0
 26 77  1  0
 27 78  1  0
 27 79  1  0
 27 80  1  0
 28 81  1  0
 29 82  1  0
 30 83  1  0
 31 84  1  0
 32 85  1  0
 32 86  1  0
 32 87  1  0
 33 88  1  0
 33 89  1  0
 33 90  1  0
 36 91  1  6
 39 92  1  6
 44 93  1  1
 45 94  1  1
 54 95  1  0
 56 96  1  0
 57 97  1  0
 58 98  1  0
 59 99  1  0
 59100  1  0
 60101  1  0
 60102  1  0
 60103  1  0
 61104  1  0
 62105  1  0
 63106  1  0
 64107  1  0
 65108  1  0
 65109  1  0
 65110  1  0
 66111  1  0
 66112  1  0
 66113  1  0
M  CHG  3  16  -1  49  -1  67   2
M  END
> <Uni-Dock RESULT> 
ENERGY=   -6.614  LOWER_BOUND=    3.883  UPPER_BOUND=    6.231
INTER + INTRA:          -6.614
INTER:                  -6.614
INTRA:                   0.000
UNBOUND:                 0.000

$$$$
