
     RDKit          3D

113118  0  0  0  0  0  0  0  0999 V2000
   52.3638    5.3300   19.5603 C   0  0  2  0  0  0  0  0  0  0  0  0
   53.4770    7.5799   19.3979 C   0  0  0  0  0  0  0  0  0  0  0  0
   51.0973    5.9732   19.0011 C   0  0  2  0  0  0  0  0  0  0  0  0
   52.0367    3.2538   18.1417 C   0  0  0  0  0  0  0  0  0  0  0  0
   53.4249    6.3491   19.9374 C   0  0  0  0  0  0  0  0  0  0  0  0
   52.4872    8.1157   18.3974 C   0  0  1  0  0  0  0  0  0  0  0  0
   52.9087    4.4110   18.4698 C   0  0  0  0  0  0  0  0  0  0  0  0
   50.6904    3.4702   18.0666 C   0  0  0  0  0  0  0  0  0  0  0  0
   54.5554    8.5096   19.8106 C   0  0  0  0  0  0  0  0  0  0  0  0
   53.2252    8.7650   17.1734 C   0  0  1  0  0  0  0  0  0  0  0  0
   50.1125    4.9116   18.3540 C   0  0  1  0  0  0  0  0  0  0  0  0
   51.3954    7.0920   17.9752 C   0  0  2  0  0  0  0  0  0  0  0  0
   54.9036    9.6302   18.9084 C   0  0  0  0  0  0  0  0  0  0  0  0
   54.3101    9.7435   17.6364 C   0  0  0  0  0  0  0  0  0  0  0  0
   52.6971    1.9264   17.8865 C   0  0  0  0  0  0  0  0  0  0  0  0
   49.7966    2.6481   17.6926 O   0  0  0  0  0  0  0  0  0  0  0  0
   48.8119    5.1101   19.0684 N   0  0  0  0  0  0  0  0  0  0  0  0
   53.9351    4.6592   17.8314 O   0  0  0  0  0  0  0  0  0  0  0  0
   55.1715    8.3494   20.8668 O   0  0  0  0  0  0  0  0  0  0  0  0
   55.8907   10.5504   19.3175 C   0  0  0  0  0  0  0  0  0  0  0  0
   52.0605    4.6204   20.7649 O   0  0  0  0  0  0  0  0  0  0  0  0
   53.8771    1.7108   18.1434 O   0  0  0  0  0  0  0  0  0  0  0  0
   54.3067    5.9022   20.9200 O   0  0  0  0  0  0  0  0  0  0  0  0
   53.8687    7.7597   16.3840 O   0  0  0  0  0  0  0  0  0  0  0  0
   50.1867    7.8529   17.7612 O   0  0  0  0  0  0  0  0  0  0  0  0
   51.8892    0.9509   17.3516 N   0  0  0  0  0  0  0  0  0  0  0  0
   52.2002    9.4408   16.2359 C   0  0  0  0  0  0  0  0  0  0  0  0
   54.7897   10.7635   16.7842 C   0  0  0  0  0  0  0  0  0  0  0  0
   56.5108   10.5076   20.5387 O   0  0  0  0  0  0  0  0  0  0  0  0
   55.7633   11.6750   17.2023 C   0  0  0  0  0  0  0  0  0  0  0  0
   56.3040   11.5771   18.4761 C   0  0  0  0  0  0  0  0  0  0  0  0
   48.7332    4.3400   20.3117 C   0  0  0  0  0  0  0  0  0  0  0  0
   47.6451    4.8235   18.2320 C   0  0  0  0  0  0  0  0  0  0  0  0
   52.1246    8.2281   20.1253 C   0  0  2  0  0  0  0  0  0  0  0  0
   50.8038    6.4875   18.9376 C   0  0  0  0  0  0  0  0  0  0  0  0
   53.3833    7.4682   19.7521 C   0  0  2  0  0  0  0  0  0  0  0  0
   52.9954   10.2299   18.7440 C   0  0  0  0  0  0  0  0  0  0  0  0
   50.9270    7.7768   19.3306 C   0  0  0  0  0  0  0  0  0  0  0  0
   51.7843    5.3981   19.3369 C   0  0  1  0  0  0  0  0  0  0  0  0
   52.4706    9.7192   20.0451 C   0  0  0  0  0  0  0  0  0  0  0  0
   53.6061    9.3523   17.8906 C   0  0  0  0  0  0  0  0  0  0  0  0
   49.6011    6.0755   18.1651 C   0  0  0  0  0  0  0  0  0  0  0  0
   51.9616    4.2942   18.2453 C   0  0  1  0  0  0  0  0  0  0  0  0
   53.8831    7.8644   18.3256 C   0  0  1  0  0  0  0  0  0  0  0  0
   53.1392    5.9469   19.9036 C   0  0  2  0  0  0  0  0  0  0  0  0
   49.4967    4.6786   17.6894 C   0  0  0  0  0  0  0  0  0  0  0  0
   50.6085    3.8176   17.7143 C   0  0  0  0  0  0  0  0  0  0  0  0
   52.7602   11.6878   18.4174 C   0  0  0  0  0  0  0  0  0  0  0  0
   53.9682    9.5469   16.6885 O   0  0  0  0  0  0  0  0  0  0  0  0
   55.2949    7.3592   18.2629 N   0  0  0  0  0  0  0  0  0  0  0  0
   52.3074   10.4246   21.0482 O   0  0  0  0  0  0  0  0  0  0  0  0
   48.6805    6.8649   17.9323 O   0  0  0  0  0  0  0  0  0  0  0  0
   48.2625    4.2224   17.1848 C   0  0  0  0  0  0  0  0  0  0  0  0
   51.8064    7.9284   21.5125 O   0  0  0  0  0  0  0  0  0  0  0  0
   52.4127   12.5333   19.2363 O   0  0  0  0  0  0  0  0  0  0  0  0
   49.9836    8.7562   19.0765 O   0  0  0  0  0  0  0  0  0  0  0  0
   52.6312    4.8213   17.1050 O   0  0  0  0  0  0  0  0  0  0  0  0
   53.1563    5.6234   21.3149 O   0  0  0  0  0  0  0  0  0  0  0  0
   52.9498   12.0486   17.1176 N   0  0  0  0  0  0  0  0  0  0  0  0
   52.7984    3.1135   18.7971 C   0  0  0  0  0  0  0  0  0  0  0  0
   50.4394    2.5147   17.1847 C   0  0  0  0  0  0  0  0  0  0  0  0
   47.1305    4.9944   17.1420 O   0  0  0  0  0  0  0  0  0  0  0  0
   49.2072    2.0714   16.6955 C   0  0  0  0  0  0  0  0  0  0  0  0
   48.1150    2.9260   16.7004 C   0  0  0  0  0  0  0  0  0  0  0  0
   55.7259    7.0089   16.9067 C   0  0  0  0  0  0  0  0  0  0  0  0
   56.2543    8.3158   18.8349 C   0  0  0  0  0  0  0  0  0  0  0  0
   52.2833    6.6851   18.4370 Ca  0  0  0  0  0 15  0  0  0  0  0  0
   50.5852    6.4612   19.8446 H   0  0  0  0  0  0  0  0  0  0  0  0
   51.9659    8.9368   18.9175 H   0  0  0  0  0  0  0  0  0  0  0  0
   49.9229    5.2865   17.3341 H   0  0  0  0  0  0  0  0  0  0  0  0
   51.6608    6.6359   17.0135 H   0  0  0  0  0  0  0  0  0  0  0  0
   52.9281    4.4417   21.1806 H   0  0  0  0  0  0  0  0  0  0  0  0
   54.9096    6.6434   21.1519 H   0  0  0  0  0  0  0  0  0  0  0  0
   54.5886    7.3451   16.8974 H   0  0  0  0  0  0  0  0  0  0  0  0
   49.4242    7.2957   18.0277 H   0  0  0  0  0  0  0  0  0  0  0  0
   51.6522    1.2211   16.4002 H   0  0  0  0  0  0  0  0  0  0  0  0
   50.9361    1.1245   17.7198 H   0  0  0  0  0  0  0  0  0  0  0  0
   52.6631    9.8491   15.3328 H   0  0  0  0  0  0  0  0  0  0  0  0
   51.4728    8.7205   15.8434 H   0  0  0  0  0  0  0  0  0  0  0  0
   51.6643   10.2485   16.7437 H   0  0  0  0  0  0  0  0  0  0  0  0
   54.4171   10.8640   15.7672 H   0  0  0  0  0  0  0  0  0  0  0  0
   56.2291    9.6803   20.9917 H   0  0  0  0  0  0  0  0  0  0  0  0
   56.1019   12.4554   16.5254 H   0  0  0  0  0  0  0  0  0  0  0  0
   57.0650   12.2780   18.8079 H   0  0  0  0  0  0  0  0  0  0  0  0
   48.7114    3.2593   20.1557 H   0  0  0  0  0  0  0  0  0  0  0  0
   49.5597    4.5793   20.9857 H   0  0  0  0  0  0  0  0  0  0  0  0
   47.8207    4.6071   20.8581 H   0  0  0  0  0  0  0  0  0  0  0  0
   47.6908    5.3786   17.2880 H   0  0  0  0  0  0  0  0  0  0  0  0
   46.7369    5.1758   18.7416 H   0  0  0  0  0  0  0  0  0  0  0  0
   47.4956    3.7610   18.0144 H   0  0  0  0  0  0  0  0  0  0  0  0
   54.1433    7.7443   20.5004 H   0  0  0  0  0  0  0  0  0  0  0  0
   51.2789    4.8882   20.1751 H   0  0  0  0  0  0  0  0  0  0  0  0
   53.2921    7.2510   17.6323 H   0  0  0  0  0  0  0  0  0  0  0  0
   53.9968    5.4164   19.4886 H   0  0  0  0  0  0  0  0  0  0  0  0
   51.5443    8.8028   21.8780 H   0  0  0  0  0  0  0  0  0  0  0  0
   49.2827    8.3678   18.5070 H   0  0  0  0  0  0  0  0  0  0  0  0
   53.5695    4.9638   17.3313 H   0  0  0  0  0  0  0  0  0  0  0  0
   52.6359    6.3310   21.7558 H   0  0  0  0  0  0  0  0  0  0  0  0
   53.3460   11.3197   16.5097 H   0  0  0  0  0  0  0  0  0  0  0  0
   52.9022   13.0091   16.8321 H   0  0  0  0  0  0  0  0  0  0  0  0
   53.1373    2.4593   17.9855 H   0  0  0  0  0  0  0  0  0  0  0  0
   53.7260    3.4316   19.2774 H   0  0  0  0  0  0  0  0  0  0  0  0
   52.2361    2.5182   19.5231 H   0  0  0  0  0  0  0  0  0  0  0  0
   51.2749    1.8215   17.1275 H   0  0  0  0  0  0  0  0  0  0  0  0
   47.3991    5.9209   17.3473 H   0  0  0  0  0  0  0  0  0  0  0  0
   49.1120    1.0645   16.2971 H   0  0  0  0  0  0  0  0  0  0  0  0
   47.1512    2.5938   16.3204 H   0  0  0  0  0  0  0  0  0  0  0  0
   56.6602    6.4415   16.9603 H   0  0  0  0  0  0  0  0  0  0  0  0
   55.9118    7.8711   16.2593 H   0  0  0  0  0  0  0  0  0  0  0  0
   55.0017    6.3585   16.4093 H   0  0  0  0  0  0  0  0  0  0  0  0
   55.9269    8.7243   19.7952 H   0  0  0  0  0  0  0  0  0  0  0  0
   57.2063    7.8068   19.0272 H   0  0  0  0  0  0  0  0  0  0  0  0
   56.4616    9.1607   18.1673 H   0  0  0  0  0  0  0  0  0  0  0  0
  2  5  2  0
  3  1  1  0
  4  7  1  0
  5  1  1  0
  6  2  1  0
  7  1  1  0
  8  4  2  0
  9  2  1  0
 10  6  1  0
  3 11  1  0
 12  3  1  0
 13  9  1  0
 14 13  2  0
 15  4  1  0
 16  8  1  0
 11 17  1  0
 18  7  2  0
 19  9  2  0
 20 13  1  0
  1 21  1  6
 22 15  2  0
 23  5  1  0
 10 24  1  1
 12 25  1  0
 26 15  1  0
 10 27  1  0
 28 14  1  0
 29 20  1  0
 30 31  1  0
 31 20  2  0
 32 17  1  0
 33 17  1  0
 12  6  1  0
 11  8  1  0
 10 14  1  0
 30 28  2  0
 35 38  2  0
 36 34  1  0
 37 40  1  0
 38 34  1  0
 39 35  1  0
 40 34  1  0
 41 37  2  0
 42 35  1  0
 43 39  1  0
 36 44  1  0
 45 36  1  0
 46 42  1  0
 47 46  2  0
 48 37  1  0
 49 41  1  0
 44 50  1  0
 51 40  2  0
 52 42  2  0
 53 46  1  0
 34 54  1  6
 55 48  2  0
 56 38  1  0
 43 57  1  1
 45 58  1  0
 59 48  1  0
 43 60  1  0
 61 47  1  0
 62 53  1  0
 63 64  1  0
 64 53  2  0
 65 50  1  0
 66 50  1  0
 45 39  1  0
 44 41  1  0
 43 47  1  0
 63 61  2  0
  3 68  1  6
  6 69  1  6
 11 70  1  1
 12 71  1  1
 21 72  1  0
 23 73  1  0
 24 74  1  0
 25 75  1  0
 26 76  1  0
 26 77  1  0
 27 78  1  0
 27 79  1  0
 27 80  1  0
 28 81  1  0
 29 82  1  0
 30 83  1  0
 31 84  1  0
 32 85  1  0
 32 86  1  0
 32 87  1  0
 33 88  1  0
 33 89  1  0
 33 90  1  0
 36 91  1  6
 39 92  1  6
 44 93  1  1
 45 94  1  1
 54 95  1  0
 56 96  1  0
 57 97  1  0
 58 98  1  0
 59 99  1  0
 59100  1  0
 60101  1  0
 60102  1  0
 60103  1  0
 61104  1  0
 62105  1  0
 63106  1  0
 64107  1  0
 65108  1  0
 65109  1  0
 65110  1  0
 66111  1  0
 66112  1  0
 66113  1  0
M  CHG  3  16  -1  49  -1  67   2
M  END
> <Uni-Dock RESULT> 
ENERGY=   -4.458  LOWER_BOUND=    0.000  UPPER_BOUND=    0.000
INTER + INTRA:          -4.458
INTER:                  -4.458
INTRA:                   0.000
UNBOUND:                 0.000

$$$$

     RDKit          3D

113118  0  0  0  0  0  0  0  0999 V2000
   50.1766   10.3783   16.2386 C   0  0  2  0  0  0  0  0  0  0  0  0
   50.4128   11.1970   13.8719 C   0  0  0  0  0  0  0  0  0  0  0  0
   49.5377   11.7207   16.5852 C   0  0  2  0  0  0  0  0  0  0  0  0
   48.5019    9.1176   17.6656 C   0  0  0  0  0  0  0  0  0  0  0  0
   50.7984   10.3620   14.8531 C   0  0  0  0  0  0  0  0  0  0  0  0
   49.3620   12.2650   14.0240 C   0  0  1  0  0  0  0  0  0  0  0  0
   49.0669    9.3321   16.3084 C   0  0  0  0  0  0  0  0  0  0  0  0
   48.2815   10.2164   18.4461 C   0  0  0  0  0  0  0  0  0  0  0  0
   51.0617   11.1052   12.5422 C   0  0  0  0  0  0  0  0  0  0  0  0
   48.3232   12.1986   12.8490 C   0  0  1  0  0  0  0  0  0  0  0  0
   48.6548   11.6509   17.9008 C   0  0  1  0  0  0  0  0  0  0  0  0
   48.6914   12.2992   15.4266 C   0  0  2  0  0  0  0  0  0  0  0  0
   50.3439   11.6509   11.3683 C   0  0  0  0  0  0  0  0  0  0  0  0
   49.0280   12.1375   11.4895 C   0  0  0  0  0  0  0  0  0  0  0  0
   48.1838    7.7067   18.0794 C   0  0  0  0  0  0  0  0  0  0  0  0
   47.7064   10.2555   19.5784 O   0  0  0  0  0  0  0  0  0  0  0  0
   49.2162   12.7116   18.7959 N   0  0  0  0  0  0  0  0  0  0  0  0
   48.5963    8.7826   15.3088 O   0  0  0  0  0  0  0  0  0  0  0  0
   52.1625   10.5676   12.4011 O   0  0  0  0  0  0  0  0  0  0  0  0
   50.9765   11.6164   10.1085 C   0  0  0  0  0  0  0  0  0  0  0  0
   51.2447   10.0963   17.1476 O   0  0  0  0  0  0  0  0  0  0  0  0
   48.5622    6.7269   17.4458 O   0  0  0  0  0  0  0  0  0  0  0  0
   51.8278    9.4330   14.7119 O   0  0  0  0  0  0  0  0  0  0  0  0
   47.5129   11.0242   12.9607 O   0  0  0  0  0  0  0  0  0  0  0  0
   48.4134   13.6877   15.7098 O   0  0  0  0  0  0  0  0  0  0  0  0
   47.4436    7.5750   19.2306 N   0  0  0  0  0  0  0  0  0  0  0  0
   47.3458   13.3915   12.9394 C   0  0  0  0  0  0  0  0  0  0  0  0
   48.3646   12.5196   10.3018 C   0  0  0  0  0  0  0  0  0  0  0  0
   52.2538   11.1609    9.9113 O   0  0  0  0  0  0  0  0  0  0  0  0
   49.0035   12.4884    9.0590 C   0  0  0  0  0  0  0  0  0  0  0  0
   50.3162   12.0500    8.9644 C   0  0  0  0  0  0  0  0  0  0  0  0
   50.3441   12.2291   19.5960 C   0  0  0  0  0  0  0  0  0  0  0  0
   48.2114   13.3196   19.6699 C   0  0  0  0  0  0  0  0  0  0  0  0
   51.0315   12.6143   14.4937 C   0  0  2  0  0  0  0  0  0  0  0  0
   49.4962   12.2924   16.4236 C   0  0  0  0  0  0  0  0  0  0  0  0
   50.7373   11.1863   14.0751 C   0  0  2  0  0  0  0  0  0  0  0  0
   50.0077   13.4164   12.2617 C   0  0  0  0  0  0  0  0  0  0  0  0
   50.0453   13.1271   15.5106 C   0  0  0  0  0  0  0  0  0  0  0  0
   49.8906   10.8318   16.5595 C   0  0  1  0  0  0  0  0  0  0  0  0
   51.1653   13.4323   13.2044 C   0  0  0  0  0  0  0  0  0  0  0  0
   49.1448   12.3554   12.2970 C   0  0  0  0  0  0  0  0  0  0  0  0
   48.5357   12.8370   17.4204 C   0  0  0  0  0  0  0  0  0  0  0  0
   48.7123    9.9120   17.0148 C   0  0  1  0  0  0  0  0  0  0  0  0
   49.4400   11.1053   13.2080 C   0  0  1  0  0  0  0  0  0  0  0  0
   50.6832   10.2759   15.3262 C   0  0  2  0  0  0  0  0  0  0  0  0
   47.8953   11.9117   18.3808 C   0  0  0  0  0  0  0  0  0  0  0  0
   47.9633   10.5183   18.2028 C   0  0  0  0  0  0  0  0  0  0  0  0
   49.8212   14.6167   11.3606 C   0  0  0  0  0  0  0  0  0  0  0  0
   48.0282   12.2294   11.7042 O   0  0  0  0  0  0  0  0  0  0  0  0
   49.5000    9.7538   12.5583 N   0  0  0  0  0  0  0  0  0  0  0  0
   52.2130   14.0577   13.0003 O   0  0  0  0  0  0  0  0  0  0  0  0
   48.2789   14.0434   17.4788 O   0  0  0  0  0  0  0  0  0  0  0  0
   47.1898   12.4492   19.4760 C   0  0  0  0  0  0  0  0  0  0  0  0
   52.3241   12.6363   15.1601 O   0  0  0  0  0  0  0  0  0  0  0  0
   50.6799   15.4696   11.1573 O   0  0  0  0  0  0  0  0  0  0  0  0
   49.7862   14.4847   15.4496 O   0  0  0  0  0  0  0  0  0  0  0  0
   47.7334    9.8074   15.9865 O   0  0  0  0  0  0  0  0  0  0  0  0
   52.0394   10.0457   15.7782 O   0  0  0  0  0  0  0  0  0  0  0  0
   48.6053   14.7293   10.7569 N   0  0  0  0  0  0  0  0  0  0  0  0
   49.2285    8.4885   17.3405 C   0  0  0  0  0  0  0  0  0  0  0  0
   47.2724    9.7049   19.1343 C   0  0  0  0  0  0  0  0  0  0  0  0
   47.0914   13.7934   19.7267 O   0  0  0  0  0  0  0  0  0  0  0  0
   46.5836   10.2503   20.2216 C   0  0  0  0  0  0  0  0  0  0  0  0
   46.5467   11.6257   20.3954 C   0  0  0  0  0  0  0  0  0  0  0  0
   48.1786    9.1901   12.2686 C   0  0  0  0  0  0  0  0  0  0  0  0
   50.2939    9.7660   11.3204 C   0  0  0  0  0  0  0  0  0  0  0  0
   49.2130   11.3900   15.1650 Ca  0  0  0  0  0 15  0  0  0  0  0  0
   50.3593   12.4349   16.7491 H   0  0  0  0  0  0  0  0  0  0  0  0
   49.9014   13.2201   13.9086 H   0  0  0  0  0  0  0  0  0  0  0  0
   47.6682   12.0422   17.6005 H   0  0  0  0  0  0  0  0  0  0  0  0
   47.7257   11.7799   15.3934 H   0  0  0  0  0  0  0  0  0  0  0  0
   51.7442    9.3634   16.7342 H   0  0  0  0  0  0  0  0  0  0  0  0
   52.2169    9.5393   13.8153 H   0  0  0  0  0  0  0  0  0  0  0  0
   48.0633   10.2280   12.8309 H   0  0  0  0  0  0  0  0  0  0  0  0
   48.5161   13.8288   16.6754 H   0  0  0  0  0  0  0  0  0  0  0  0
   46.5066    7.9256   19.0477 H   0  0  0  0  0  0  0  0  0  0  0  0
   47.7051    8.3709   19.8407 H   0  0  0  0  0  0  0  0  0  0  0  0
   46.5609   13.3494   12.1787 H   0  0  0  0  0  0  0  0  0  0  0  0
   46.7850   13.3861   13.8815 H   0  0  0  0  0  0  0  0  0  0  0  0
   47.8698   14.3471   12.8415 H   0  0  0  0  0  0  0  0  0  0  0  0
   47.3265   12.8441   10.3203 H   0  0  0  0  0  0  0  0  0  0  0  0
   52.5707   10.7736   10.7590 H   0  0  0  0  0  0  0  0  0  0  0  0
   48.4679   12.8005    8.1659 H   0  0  0  0  0  0  0  0  0  0  0  0
   50.8192   12.0175    8.0020 H   0  0  0  0  0  0  0  0  0  0  0  0
   50.0651   11.4737   20.3337 H   0  0  0  0  0  0  0  0  0  0  0  0
   51.1403   11.8249   18.9657 H   0  0  0  0  0  0  0  0  0  0  0  0
   50.7970   13.0647   20.1431 H   0  0  0  0  0  0  0  0  0  0  0  0
   47.3500   13.6747   19.0928 H   0  0  0  0  0  0  0  0  0  0  0  0
   48.6383   14.2125   20.1486 H   0  0  0  0  0  0  0  0  0  0  0  0
   47.8576   12.6664   20.4740 H   0  0  0  0  0  0  0  0  0  0  0  0
   51.6025   10.8557   13.4785 H   0  0  0  0  0  0  0  0  0  0  0  0
   50.5947   10.8308   17.4094 H   0  0  0  0  0  0  0  0  0  0  0  0
   48.6122   11.0776   13.9293 H   0  0  0  0  0  0  0  0  0  0  0  0
   50.3230    9.2926   15.0225 H   0  0  0  0  0  0  0  0  0  0  0  0
   52.7501   13.4459   14.7999 H   0  0  0  0  0  0  0  0  0  0  0  0
   49.0919   14.6956   16.1130 H   0  0  0  0  0  0  0  0  0  0  0  0
   48.0915    9.2519   15.2690 H   0  0  0  0  0  0  0  0  0  0  0  0
   52.4881   10.9187   15.7274 H   0  0  0  0  0  0  0  0  0  0  0  0
   47.9740   13.9269   10.8812 H   0  0  0  0  0  0  0  0  0  0  0  0
   48.4268   15.4441   10.0760 H   0  0  0  0  0  0  0  0  0  0  0  0
   48.3975    7.7779   17.4185 H   0  0  0  0  0  0  0  0  0  0  0  0
   49.8555    8.0678   16.5518 H   0  0  0  0  0  0  0  0  0  0  0  0
   49.8050    8.4657   18.2704 H   0  0  0  0  0  0  0  0  0  0  0  0
   47.2435    8.6242   19.0196 H   0  0  0  0  0  0  0  0  0  0  0  0
   47.4328   14.2661   18.9313 H   0  0  0  0  0  0  0  0  0  0  0  0
   46.0648    9.5968   20.9184 H   0  0  0  0  0  0  0  0  0  0  0  0
   46.0124   12.0626   21.2363 H   0  0  0  0  0  0  0  0  0  0  0  0
   48.2857    8.1306   12.0164 H   0  0  0  0  0  0  0  0  0  0  0  0
   47.6619    9.6680   11.4309 H   0  0  0  0  0  0  0  0  0  0  0  0
   47.5228    9.2314   13.1422 H   0  0  0  0  0  0  0  0  0  0  0  0
   51.2449   10.2949   11.4299 H   0  0  0  0  0  0  0  0  0  0  0  0
   50.5465    8.7368   11.0389 H   0  0  0  0  0  0  0  0  0  0  0  0
   49.7581   10.2163   10.4762 H   0  0  0  0  0  0  0  0  0  0  0  0
  2  5  2  0
  3  1  1  0
  4  7  1  0
  5  1  1  0
  6  2  1  0
  7  1  1  0
  8  4  2  0
  9  2  1  0
 10  6  1  0
  3 11  1  0
 12  3  1  0
 13  9  1  0
 14 13  2  0
 15  4  1  0
 16  8  1  0
 11 17  1  0
 18  7  2  0
 19  9  2  0
 20 13  1  0
  1 21  1  6
 22 15  2  0
 23  5  1  0
 10 24  1  1
 12 25  1  0
 26 15  1  0
 10 27  1  0
 28 14  1  0
 29 20  1  0
 30 31  1  0
 31 20  2  0
 32 17  1  0
 33 17  1  0
 12  6  1  0
 11  8  1  0
 10 14  1  0
 30 28  2  0
 35 38  2  0
 36 34  1  0
 37 40  1  0
 38 34  1  0
 39 35  1  0
 40 34  1  0
 41 37  2  0
 42 35  1  0
 43 39  1  0
 36 44  1  0
 45 36  1  0
 46 42  1  0
 47 46  2  0
 48 37  1  0
 49 41  1  0
 44 50  1  0
 51 40  2  0
 52 42  2  0
 53 46  1  0
 34 54  1  6
 55 48  2  0
 56 38  1  0
 43 57  1  1
 45 58  1  0
 59 48  1  0
 43 60  1  0
 61 47  1  0
 62 53  1  0
 63 64  1  0
 64 53  2  0
 65 50  1  0
 66 50  1  0
 45 39  1  0
 44 41  1  0
 43 47  1  0
 63 61  2  0
  3 68  1  6
  6 69  1  6
 11 70  1  1
 12 71  1  1
 21 72  1  0
 23 73  1  0
 24 74  1  0
 25 75  1  0
 26 76  1  0
 26 77  1  0
 27 78  1  0
 27 79  1  0
 27 80  1  0
 28 81  1  0
 29 82  1  0
 30 83  1  0
 31 84  1  0
 32 85  1  0
 32 86  1  0
 32 87  1  0
 33 88  1  0
 33 89  1  0
 33 90  1  0
 36 91  1  6
 39 92  1  6
 44 93  1  1
 45 94  1  1
 54 95  1  0
 56 96  1  0
 57 97  1  0
 58 98  1  0
 59 99  1  0
 59100  1  0
 60101  1  0
 60102  1  0
 60103  1  0
 61104  1  0
 62105  1  0
 63106  1  0
 64107  1  0
 65108  1  0
 65109  1  0
 65110  1  0
 66111  1  0
 66112  1  0
 66113  1  0
M  CHG  3  16  -1  49  -1  67   2
M  END
> <Uni-Dock RESULT> 
ENERGY=   -4.329  LOWER_BOUND=    5.037  UPPER_BOUND=    7.927
INTER + INTRA:          -4.329
INTER:                  -4.329
INTRA:                   0.000
UNBOUND:                 0.000

$$$$

     RDKit          3D

113118  0  0  0  0  0  0  0  0999 V2000
   50.7969    7.8679   17.4015 C   0  0  2  0  0  0  0  0  0  0  0  0
   51.0199    9.6699   15.6607 C   0  0  0  0  0  0  0  0  0  0  0  0
   49.6636    7.2744   16.5685 C   0  0  2  0  0  0  0  0  0  0  0  0
   51.7437    5.5699   17.9043 C   0  0  0  0  0  0  0  0  0  0  0  0
   51.2245    9.2432   16.9196 C   0  0  0  0  0  0  0  0  0  0  0  0
   50.3183    8.8728   14.5928 C   0  0  1  0  0  0  0  0  0  0  0  0
   51.9752    6.9034   17.2917 C   0  0  0  0  0  0  0  0  0  0  0  0
   50.5246    4.9839   17.7157 C   0  0  0  0  0  0  0  0  0  0  0  0
   51.4820   11.0225   15.2674 C   0  0  0  0  0  0  0  0  0  0  0  0
   51.1534    8.8622   13.2636 C   0  0  1  0  0  0  0  0  0  0  0  0
   49.4112    5.7423   16.8915 C   0  0  1  0  0  0  0  0  0  0  0  0
   49.8814    7.4513   15.0472 C   0  0  2  0  0  0  0  0  0  0  0  0
   51.6995   11.3028   13.8303 C   0  0  0  0  0  0  0  0  0  0  0  0
   51.5863   10.2788   12.8702 C   0  0  0  0  0  0  0  0  0  0  0  0
   52.8770    4.9411   18.6680 C   0  0  0  0  0  0  0  0  0  0  0  0
   50.1711    3.8119   18.0563 O   0  0  0  0  0  0  0  0  0  0  0  0
   47.9637    5.6630   17.2658 N   0  0  0  0  0  0  0  0  0  0  0  0
   52.9996    7.1623   16.6543 O   0  0  0  0  0  0  0  0  0  0  0  0
   51.7065   11.8942   16.1102 O   0  0  0  0  0  0  0  0  0  0  0  0
   52.0870   12.6020   13.4425 C   0  0  0  0  0  0  0  0  0  0  0  0
   50.3672    8.0461   18.7544 O   0  0  0  0  0  0  0  0  0  0  0  0
   53.8883    5.5588   18.9851 O   0  0  0  0  0  0  0  0  0  0  0  0
   51.8070   10.0288   17.9127 O   0  0  0  0  0  0  0  0  0  0  0  0
   52.3434    8.0836   13.4243 O   0  0  0  0  0  0  0  0  0  0  0  0
   48.6366    7.1735   14.3697 O   0  0  0  0  0  0  0  0  0  0  0  0
   52.7084    3.6189   19.0051 N   0  0  0  0  0  0  0  0  0  0  0  0
   50.3497    8.1712   12.1398 C   0  0  0  0  0  0  0  0  0  0  0  0
   51.9362   10.5954   11.5383 C   0  0  0  0  0  0  0  0  0  0  0  0
   52.2159   13.6498   14.3163 O   0  0  0  0  0  0  0  0  0  0  0  0
   52.3120   11.8883   11.1633 C   0  0  0  0  0  0  0  0  0  0  0  0
   52.3733   12.8965   12.1142 C   0  0  0  0  0  0  0  0  0  0  0  0
   47.7370    5.9407   18.6858 C   0  0  0  0  0  0  0  0  0  0  0  0
   47.3438    4.3871   16.9041 C   0  0  0  0  0  0  0  0  0  0  0  0
   49.3633    9.8431   15.7226 C   0  0  2  0  0  0  0  0  0  0  0  0
   49.2483    7.3976   16.1598 C   0  0  0  0  0  0  0  0  0  0  0  0
   50.8552    9.7783   15.9891 C   0  0  2  0  0  0  0  0  0  0  0  0
   49.8877   10.6118   13.3127 C   0  0  0  0  0  0  0  0  0  0  0  0
   48.7606    8.4791   15.5085 C   0  0  0  0  0  0  0  0  0  0  0  0
   50.3474    7.4808   17.2050 C   0  0  1  0  0  0  0  0  0  0  0  0
   49.1616   10.8599   14.5935 C   0  0  0  0  0  0  0  0  0  0  0  0
   51.0261    9.8536   13.3377 C   0  0  0  0  0  0  0  0  0  0  0  0
   48.6195    6.0686   15.9330 C   0  0  0  0  0  0  0  0  0  0  0  0
   51.2729    6.2220   17.2321 C   0  0  1  0  0  0  0  0  0  0  0  0
   51.6439    9.3705   14.7033 C   0  0  1  0  0  0  0  0  0  0  0  0
   51.1313    8.8386   17.1881 C   0  0  2  0  0  0  0  0  0  0  0  0
   49.1905    4.8800   16.6035 C   0  0  0  0  0  0  0  0  0  0  0  0
   50.4525    4.9310   17.2222 C   0  0  0  0  0  0  0  0  0  0  0  0
   49.2792   11.1656   12.0436 C   0  0  0  0  0  0  0  0  0  0  0  0
   51.6889    9.3969   12.3548 O   0  0  0  0  0  0  0  0  0  0  0  0
   53.0703    9.7292   15.0017 N   0  0  0  0  0  0  0  0  0  0  0  0
   48.4208   11.8310   14.7900 O   0  0  0  0  0  0  0  0  0  0  0  0
   47.6211    5.9393   15.2180 O   0  0  0  0  0  0  0  0  0  0  0  0
   48.4570    3.6767   16.5958 C   0  0  0  0  0  0  0  0  0  0  0  0
   48.7115   10.3744   16.9093 O   0  0  0  0  0  0  0  0  0  0  0  0
   48.3927   12.0137   12.0140 O   0  0  0  0  0  0  0  0  0  0  0  0
   47.6823    8.4392   14.6428 O   0  0  0  0  0  0  0  0  0  0  0  0
   52.0629    6.1566   16.0497 O   0  0  0  0  0  0  0  0  0  0  0  0
   50.7706    9.5373   18.4040 O   0  0  0  0  0  0  0  0  0  0  0  0
   49.7672   10.6618   10.8759 N   0  0  0  0  0  0  0  0  0  0  0  0
   52.2267    6.2748   18.4512 C   0  0  0  0  0  0  0  0  0  0  0  0
   50.9528    3.7328   17.7887 C   0  0  0  0  0  0  0  0  0  0  0  0
   47.2153    3.5510   16.0286 O   0  0  0  0  0  0  0  0  0  0  0  0
   50.2110    2.5479   17.7823 C   0  0  0  0  0  0  0  0  0  0  0  0
   48.9580    2.5215   17.1888 C   0  0  0  0  0  0  0  0  0  0  0  0
   54.0401    8.8831   14.3007 C   0  0  0  0  0  0  0  0  0  0  0  0
   53.3642   11.1386   14.7019 C   0  0  0  0  0  0  0  0  0  0  0  0
   50.6360    7.9375   15.6483 Ca  0  0  0  0  0 15  0  0  0  0  0  0
   48.7528    7.8416   16.8143 H   0  0  0  0  0  0  0  0  0  0  0  0
   49.3935    9.4328   14.3746 H   0  0  0  0  0  0  0  0  0  0  0  0
   49.4679    5.2340   15.9142 H   0  0  0  0  0  0  0  0  0  0  0  0
   50.6079    6.7066   14.6994 H   0  0  0  0  0  0  0  0  0  0  0  0
   51.0391    8.6303   19.1602 H   0  0  0  0  0  0  0  0  0  0  0  0
   51.9863   10.9186   17.5350 H   0  0  0  0  0  0  0  0  0  0  0  0
   52.9369    8.5141   14.0693 H   0  0  0  0  0  0  0  0  0  0  0  0
   48.0802    6.6272   14.9655 H   0  0  0  0  0  0  0  0  0  0  0  0
   52.7374    3.0671   18.1513 H   0  0  0  0  0  0  0  0  0  0  0  0
   51.6917    3.4803   19.1510 H   0  0  0  0  0  0  0  0  0  0  0  0
   50.9201    8.0803   11.2109 H   0  0  0  0  0  0  0  0  0  0  0  0
   50.1108    7.1314   12.3924 H   0  0  0  0  0  0  0  0  0  0  0  0
   49.4212    8.7081   11.9229 H   0  0  0  0  0  0  0  0  0  0  0  0
   51.9307    9.8333   10.7622 H   0  0  0  0  0  0  0  0  0  0  0  0
   52.1080   13.2970   15.2289 H   0  0  0  0  0  0  0  0  0  0  0  0
   52.5637   12.1009   10.1273 H   0  0  0  0  0  0  0  0  0  0  0  0
   52.6693   13.9032   11.8328 H   0  0  0  0  0  0  0  0  0  0  0  0
   48.1563    5.1834   19.3516 H   0  0  0  0  0  0  0  0  0  0  0  0
   48.1350    6.9174   18.9729 H   0  0  0  0  0  0  0  0  0  0  0  0
   46.6604    5.9902   18.8884 H   0  0  0  0  0  0  0  0  0  0  0  0
   47.5143    4.1515   15.8474 H   0  0  0  0  0  0  0  0  0  0  0  0
   46.2534    4.4668   17.0199 H   0  0  0  0  0  0  0  0  0  0  0  0
   47.6671    3.5386   17.5157 H   0  0  0  0  0  0  0  0  0  0  0  0
   51.1565   10.7905   16.3026 H   0  0  0  0  0  0  0  0  0  0  0  0
   49.7987    7.4489   18.1622 H   0  0  0  0  0  0  0  0  0  0  0  0
   51.5900    8.2741   14.6675 H   0  0  0  0  0  0  0  0  0  0  0  0
   52.2081    8.6861   17.2668 H   0  0  0  0  0  0  0  0  0  0  0  0
   48.0465   10.9982   16.5415 H   0  0  0  0  0  0  0  0  0  0  0  0
   47.4099    7.5009   14.5336 H   0  0  0  0  0  0  0  0  0  0  0  0
   52.7478    6.8500   16.0923 H   0  0  0  0  0  0  0  0  0  0  0  0
   49.9143    9.9799   18.2119 H   0  0  0  0  0  0  0  0  0  0  0  0
   50.5813   10.0400   10.9687 H   0  0  0  0  0  0  0  0  0  0  0  0
   49.4839   11.0359    9.9893 H   0  0  0  0  0  0  0  0  0  0  0  0
   53.0353    5.5417   18.3490 H   0  0  0  0  0  0  0  0  0  0  0  0
   52.7517    7.2276   18.5453 H   0  0  0  0  0  0  0  0  0  0  0  0
   51.6980    6.0929   19.3920 H   0  0  0  0  0  0  0  0  0  0  0  0
   51.9440    3.6959   18.2338 H   0  0  0  0  0  0  0  0  0  0  0  0
   47.0479    4.3693   15.5042 H   0  0  0  0  0  0  0  0  0  0  0  0
   50.6247    1.6465   18.2272 H   0  0  0  0  0  0  0  0  0  0  0  0
   48.3717    1.6051   17.1753 H   0  0  0  0  0  0  0  0  0  0  0  0
   55.0338    9.0402   14.7315 H   0  0  0  0  0  0  0  0  0  0  0  0
   54.1200    9.0873   13.2288 H   0  0  0  0  0  0  0  0  0  0  0  0
   53.8156    7.8211   14.4299 H   0  0  0  0  0  0  0  0  0  0  0  0
   52.6012   11.8231   15.0835 H   0  0  0  0  0  0  0  0  0  0  0  0
   54.3042   11.4265   15.1874 H   0  0  0  0  0  0  0  0  0  0  0  0
   53.4758   11.3305   13.6280 H   0  0  0  0  0  0  0  0  0  0  0  0
  2  5  2  0
  3  1  1  0
  4  7  1  0
  5  1  1  0
  6  2  1  0
  7  1  1  0
  8  4  2  0
  9  2  1  0
 10  6  1  0
  3 11  1  0
 12  3  1  0
 13  9  1  0
 14 13  2  0
 15  4  1  0
 16  8  1  0
 11 17  1  0
 18  7  2  0
 19  9  2  0
 20 13  1  0
  1 21  1  6
 22 15  2  0
 23  5  1  0
 10 24  1  1
 12 25  1  0
 26 15  1  0
 10 27  1  0
 28 14  1  0
 29 20  1  0
 30 31  1  0
 31 20  2  0
 32 17  1  0
 33 17  1  0
 12  6  1  0
 11  8  1  0
 10 14  1  0
 30 28  2  0
 35 38  2  0
 36 34  1  0
 37 40  1  0
 38 34  1  0
 39 35  1  0
 40 34  1  0
 41 37  2  0
 42 35  1  0
 43 39  1  0
 36 44  1  0
 45 36  1  0
 46 42  1  0
 47 46  2  0
 48 37  1  0
 49 41  1  0
 44 50  1  0
 51 40  2  0
 52 42  2  0
 53 46  1  0
 34 54  1  6
 55 48  2  0
 56 38  1  0
 43 57  1  1
 45 58  1  0
 59 48  1  0
 43 60  1  0
 61 47  1  0
 62 53  1  0
 63 64  1  0
 64 53  2  0
 65 50  1  0
 66 50  1  0
 45 39  1  0
 44 41  1  0
 43 47  1  0
 63 61  2  0
  3 68  1  6
  6 69  1  6
 11 70  1  1
 12 71  1  1
 21 72  1  0
 23 73  1  0
 24 74  1  0
 25 75  1  0
 26 76  1  0
 26 77  1  0
 27 78  1  0
 27 79  1  0
 27 80  1  0
 28 81  1  0
 29 82  1  0
 30 83  1  0
 31 84  1  0
 32 85  1  0
 32 86  1  0
 32 87  1  0
 33 88  1  0
 33 89  1  0
 33 90  1  0
 36 91  1  6
 39 92  1  6
 44 93  1  1
 45 94  1  1
 54 95  1  0
 56 96  1  0
 57 97  1  0
 58 98  1  0
 59 99  1  0
 59100  1  0
 60101  1  0
 60102  1  0
 60103  1  0
 61104  1  0
 62105  1  0
 63106  1  0
 64107  1  0
 65108  1  0
 65109  1  0
 65110  1  0
 66111  1  0
 66112  1  0
 66113  1  0
M  CHG  3  16  -1  49  -1  67   2
M  END
> <Uni-Dock RESULT> 
ENERGY=   -4.208  LOWER_BOUND=    3.056  UPPER_BOUND=    4.618
INTER + INTRA:          -4.208
INTER:                  -4.208
INTRA:                   0.000
UNBOUND:                 0.000

$$$$

     RDKit          3D

113118  0  0  0  0  0  0  0  0999 V2000
   50.3905   10.4062   17.2089 C   0  0  2  0  0  0  0  0  0  0  0  0
   50.0510    9.0490   19.2994 C   0  0  0  0  0  0  0  0  0  0  0  0
   50.3455    9.1022   16.4162 C   0  0  2  0  0  0  0  0  0  0  0  0
   48.9970   11.6115   15.4666 C   0  0  0  0  0  0  0  0  0  0  0  0
   50.4722   10.1814   18.7086 C   0  0  0  0  0  0  0  0  0  0  0  0
   49.4900    7.8605   18.5640 C   0  0  1  0  0  0  0  0  0  0  0  0
   49.1078   11.1656   16.8794 C   0  0  0  0  0  0  0  0  0  0  0  0
   49.3974   10.7443   14.4904 C   0  0  0  0  0  0  0  0  0  0  0  0
   50.1528    8.9160   20.7724 C   0  0  0  0  0  0  0  0  0  0  0  0
   48.1476    7.3795   19.2206 C   0  0  1  0  0  0  0  0  0  0  0  0
   49.9813    9.3323   14.8899 C   0  0  1  0  0  0  0  0  0  0  0  0
   49.3760    8.0626   17.0264 C   0  0  2  0  0  0  0  0  0  0  0  0
   49.2826    7.9309   21.4530 C   0  0  0  0  0  0  0  0  0  0  0  0
   48.2985    7.2218   20.7376 C   0  0  0  0  0  0  0  0  0  0  0  0
   48.4251   12.9778   15.2036 C   0  0  0  0  0  0  0  0  0  0  0  0
   49.2788   10.8893   13.2337 O   0  0  0  0  0  0  0  0  0  0  0  0
   51.1055    8.7014   14.1284 N   0  0  0  0  0  0  0  0  0  0  0  0
   48.1844   11.3084   17.6854 O   0  0  0  0  0  0  0  0  0  0  0  0
   50.9230    9.6209   21.4286 O   0  0  0  0  0  0  0  0  0  0  0  0
   49.4109    7.7596   22.8468 C   0  0  0  0  0  0  0  0  0  0  0  0
   51.5635   11.1483   16.8624 O   0  0  0  0  0  0  0  0  0  0  0  0
   48.2512   13.8074   16.0903 O   0  0  0  0  0  0  0  0  0  0  0  0
   51.0601   11.2378   19.4023 O   0  0  0  0  0  0  0  0  0  0  0  0
   47.1070    8.3355   18.9942 O   0  0  0  0  0  0  0  0  0  0  0  0
   49.6451    6.7766   16.4271 O   0  0  0  0  0  0  0  0  0  0  0  0
   48.1139   13.2523   13.8928 N   0  0  0  0  0  0  0  0  0  0  0  0
   47.6691    6.0731   18.5492 C   0  0  0  0  0  0  0  0  0  0  0  0
   47.4226    6.3981   21.4799 C   0  0  0  0  0  0  0  0  0  0  0  0
   50.3444    8.4105   23.6102 O   0  0  0  0  0  0  0  0  0  0  0  0
   47.5631    6.2296   22.8602 C   0  0  0  0  0  0  0  0  0  0  0  0
   48.5680    6.9000   23.5423 C   0  0  0  0  0  0  0  0  0  0  0  0
   52.2341    9.6151   13.9375 C   0  0  0  0  0  0  0  0  0  0  0  0
   50.6894    8.1497   12.8378 C   0  0  0  0  0  0  0  0  0  0  0  0
   51.2421    8.0221   18.7472 C   0  0  2  0  0  0  0  0  0  0  0  0
   50.4275    8.5133   16.4494 C   0  0  0  0  0  0  0  0  0  0  0  0
   50.4055    9.1844   19.2473 C   0  0  2  0  0  0  0  0  0  0  0  0
   49.8201    6.4438   20.2169 C   0  0  0  0  0  0  0  0  0  0  0  0
   50.8620    7.6024   17.3512 C   0  0  0  0  0  0  0  0  0  0  0  0
   50.3815   10.0056   16.7294 C   0  0  1  0  0  0  0  0  0  0  0  0
   51.1746    6.9350   19.8257 C   0  0  0  0  0  0  0  0  0  0  0  0
   48.7412    7.2613   20.0194 C   0  0  0  0  0  0  0  0  0  0  0  0
   50.0731    8.0639   15.0763 C   0  0  0  0  0  0  0  0  0  0  0  0
   49.2060   10.7360   16.0037 C   0  0  1  0  0  0  0  0  0  0  0  0
   48.9322    8.7444   19.5257 C   0  0  1  0  0  0  0  0  0  0  0  0
   50.5030   10.3652   18.2507 C   0  0  2  0  0  0  0  0  0  0  0  0
   49.5457    9.0528   14.1106 C   0  0  0  0  0  0  0  0  0  0  0  0
   49.1234   10.3263   14.5323 C   0  0  0  0  0  0  0  0  0  0  0  0
   49.7141    5.0337   20.7535 C   0  0  0  0  0  0  0  0  0  0  0  0
   47.5079    6.9768   20.1301 O   0  0  0  0  0  0  0  0  0  0  0  0
   48.3564    9.8492   20.3624 N   0  0  0  0  0  0  0  0  0  0  0  0
   52.2292    6.5205   20.3222 O   0  0  0  0  0  0  0  0  0  0  0  0
   50.2300    6.8925   14.7187 O   0  0  0  0  0  0  0  0  0  0  0  0
   49.4495    8.6920   12.7517 C   0  0  0  0  0  0  0  0  0  0  0  0
   52.6255    8.4623   18.6579 O   0  0  0  0  0  0  0  0  0  0  0  0
   50.6695    4.3650   21.1357 O   0  0  0  0  0  0  0  0  0  0  0  0
   51.0224    6.2564   17.0749 O   0  0  0  0  0  0  0  0  0  0  0  0
   47.9551   10.3434   16.5583 O   0  0  0  0  0  0  0  0  0  0  0  0
   51.7943   10.9976   18.4222 O   0  0  0  0  0  0  0  0  0  0  0  0
   48.4611    4.5009   20.7943 N   0  0  0  0  0  0  0  0  0  0  0  0
   49.3440   12.2712   16.1549 C   0  0  0  0  0  0  0  0  0  0  0  0
   48.5751   11.1914   13.5536 C   0  0  0  0  0  0  0  0  0  0  0  0
   49.8543    7.4777   12.2606 O   0  0  0  0  0  0  0  0  0  0  0  0
   48.4937   10.8247   12.2072 C   0  0  0  0  0  0  0  0  0  0  0  0
   48.9368    9.5737   11.8047 C   0  0  0  0  0  0  0  0  0  0  0  0
   46.9101   10.0128   20.1916 C   0  0  0  0  0  0  0  0  0  0  0  0
   48.6499    9.6750   21.7928 C   0  0  0  0  0  0  0  0  0  0  0  0
   49.4766    8.9577   17.6229 Ca  0  0  0  0  0 15  0  0  0  0  0  0
   51.3496    8.6549   16.4760 H   0  0  0  0  0  0  0  0  0  0  0  0
   50.2215    7.0505   18.7227 H   0  0  0  0  0  0  0  0  0  0  0  0
   49.1196    8.6700   14.7017 H   0  0  0  0  0  0  0  0  0  0  0  0
   48.3466    8.3311   16.7587 H   0  0  0  0  0  0  0  0  0  0  0  0
   51.6467   11.8322   17.5573 H   0  0  0  0  0  0  0  0  0  0  0  0
   51.1366   10.9798   20.3479 H   0  0  0  0  0  0  0  0  0  0  0  0
   47.3120    9.1665   19.4643 H   0  0  0  0  0  0  0  0  0  0  0  0
   50.1052    6.9279   15.5737 H   0  0  0  0  0  0  0  0  0  0  0  0
   47.3236   12.6707   13.6254 H   0  0  0  0  0  0  0  0  0  0  0  0
   48.7943   12.7276   13.3133 H   0  0  0  0  0  0  0  0  0  0  0  0
   46.7003    5.7365   18.9293 H   0  0  0  0  0  0  0  0  0  0  0  0
   47.4857    6.2115   17.4771 H   0  0  0  0  0  0  0  0  0  0  0  0
   48.3930    5.2640   18.6857 H   0  0  0  0  0  0  0  0  0  0  0  0
   46.6022    5.8736   20.9949 H   0  0  0  0  0  0  0  0  0  0  0  0
   50.7952    9.0718   23.0373 H   0  0  0  0  0  0  0  0  0  0  0  0
   46.8793    5.5790   23.3996 H   0  0  0  0  0  0  0  0  0  0  0  0
   48.6816    6.7791   24.6161 H   0  0  0  0  0  0  0  0  0  0  0  0
   52.0052   10.4628   13.2882 H   0  0  0  0  0  0  0  0  0  0  0  0
   52.6083    9.9964   14.8911 H   0  0  0  0  0  0  0  0  0  0  0  0
   53.0758    9.0776   13.4845 H   0  0  0  0  0  0  0  0  0  0  0  0
   49.8348    7.4736   12.9552 H   0  0  0  0  0  0  0  0  0  0  0  0
   51.5023    7.5343   12.4264 H   0  0  0  0  0  0  0  0  0  0  0  0
   50.4472    8.9032   12.0816 H   0  0  0  0  0  0  0  0  0  0  0  0
   50.8748    9.5208   20.1855 H   0  0  0  0  0  0  0  0  0  0  0  0
   51.2954   10.3893   16.2439 H   0  0  0  0  0  0  0  0  0  0  0  0
   48.4296    8.7860   18.5500 H   0  0  0  0  0  0  0  0  0  0  0  0
   49.7812   11.1271   18.5461 H   0  0  0  0  0  0  0  0  0  0  0  0
   53.1293    7.6978   19.0165 H   0  0  0  0  0  0  0  0  0  0  0  0
   50.6916    6.0876   16.1646 H   0  0  0  0  0  0  0  0  0  0  0  0
   47.8636   10.7480   17.4413 H   0  0  0  0  0  0  0  0  0  0  0  0
   52.4418   10.2624   18.5003 H   0  0  0  0  0  0  0  0  0  0  0  0
   47.6970    5.1502   20.5654 H   0  0  0  0  0  0  0  0  0  0  0  0
   48.2892    3.6075   21.2170 H   0  0  0  0  0  0  0  0  0  0  0  0
   48.4142   12.7786   15.8728 H   0  0  0  0  0  0  0  0  0  0  0  0
   49.5090   12.5884   17.1866 H   0  0  0  0  0  0  0  0  0  0  0  0
   50.1646   12.6693   15.5501 H   0  0  0  0  0  0  0  0  0  0  0  0
   48.1827   12.1678   13.8271 H   0  0  0  0  0  0  0  0  0  0  0  0
   50.0336    6.8932   13.0344 H   0  0  0  0  0  0  0  0  0  0  0  0
   48.0682   11.5136   11.4819 H   0  0  0  0  0  0  0  0  0  0  0  0
   48.8769    9.2755   10.7602 H   0  0  0  0  0  0  0  0  0  0  0  0
   46.5990   10.9616   20.6397 H   0  0  0  0  0  0  0  0  0  0  0  0
   46.3121    9.2259   20.6607 H   0  0  0  0  0  0  0  0  0  0  0  0
   46.6330   10.0683   19.1356 H   0  0  0  0  0  0  0  0  0  0  0  0
   49.6949    9.4148   21.9844 H   0  0  0  0  0  0  0  0  0  0  0  0
   48.4678   10.6189   22.3202 H   0  0  0  0  0  0  0  0  0  0  0  0
   48.0243    8.9079   22.2648 H   0  0  0  0  0  0  0  0  0  0  0  0
  2  5  2  0
  3  1  1  0
  4  7  1  0
  5  1  1  0
  6  2  1  0
  7  1  1  0
  8  4  2  0
  9  2  1  0
 10  6  1  0
  3 11  1  0
 12  3  1  0
 13  9  1  0
 14 13  2  0
 15  4  1  0
 16  8  1  0
 11 17  1  0
 18  7  2  0
 19  9  2  0
 20 13  1  0
  1 21  1  6
 22 15  2  0
 23  5  1  0
 10 24  1  1
 12 25  1  0
 26 15  1  0
 10 27  1  0
 28 14  1  0
 29 20  1  0
 30 31  1  0
 31 20  2  0
 32 17  1  0
 33 17  1  0
 12  6  1  0
 11  8  1  0
 10 14  1  0
 30 28  2  0
 35 38  2  0
 36 34  1  0
 37 40  1  0
 38 34  1  0
 39 35  1  0
 40 34  1  0
 41 37  2  0
 42 35  1  0
 43 39  1  0
 36 44  1  0
 45 36  1  0
 46 42  1  0
 47 46  2  0
 48 37  1  0
 49 41  1  0
 44 50  1  0
 51 40  2  0
 52 42  2  0
 53 46  1  0
 34 54  1  6
 55 48  2  0
 56 38  1  0
 43 57  1  1
 45 58  1  0
 59 48  1  0
 43 60  1  0
 61 47  1  0
 62 53  1  0
 63 64  1  0
 64 53  2  0
 65 50  1  0
 66 50  1  0
 45 39  1  0
 44 41  1  0
 43 47  1  0
 63 61  2  0
  3 68  1  6
  6 69  1  6
 11 70  1  1
 12 71  1  1
 21 72  1  0
 23 73  1  0
 24 74  1  0
 25 75  1  0
 26 76  1  0
 26 77  1  0
 27 78  1  0
 27 79  1  0
 27 80  1  0
 28 81  1  0
 29 82  1  0
 30 83  1  0
 31 84  1  0
 32 85  1  0
 32 86  1  0
 32 87  1  0
 33 88  1  0
 33 89  1  0
 33 90  1  0
 36 91  1  6
 39 92  1  6
 44 93  1  1
 45 94  1  1
 54 95  1  0
 56 96  1  0
 57 97  1  0
 58 98  1  0
 59 99  1  0
 59100  1  0
 60101  1  0
 60102  1  0
 60103  1  0
 61104  1  0
 62105  1  0
 63106  1  0
 64107  1  0
 65108  1  0
 65109  1  0
 65110  1  0
 66111  1  0
 66112  1  0
 66113  1  0
M  CHG  3  16  -1  49  -1  67   2
M  END
> <Uni-Dock RESULT> 
ENERGY=   -4.077  LOWER_BOUND=    3.285  UPPER_BOUND=    7.168
INTER + INTRA:          -4.077
INTER:                  -4.077
INTRA:                   0.000
UNBOUND:                 0.000

$$$$

     RDKit          3D

113118  0  0  0  0  0  0  0  0999 V2000
   49.0535    8.9450   15.7360 C   0  0  2  0  0  0  0  0  0  0  0  0
   49.1092    8.1819   18.1322 C   0  0  0  0  0  0  0  0  0  0  0  0
   50.5782    8.8697   15.7299 C   0  0  2  0  0  0  0  0  0  0  0  0
   48.9106    7.9377   13.4132 C   0  0  0  0  0  0  0  0  0  0  0  0
   48.4619    8.7977   17.1269 C   0  0  0  0  0  0  0  0  0  0  0  0
   50.4954    7.6028   18.0266 C   0  0  1  0  0  0  0  0  0  0  0  0
   48.5534    7.8072   14.8494 C   0  0  0  0  0  0  0  0  0  0  0  0
   50.1681    8.3725   13.1053 C   0  0  0  0  0  0  0  0  0  0  0  0
   48.4538    8.0677   19.4570 C   0  0  0  0  0  0  0  0  0  0  0  0
   50.5351    6.1401   18.5953 C   0  0  1  0  0  0  0  0  0  0  0  0
   51.1737    8.7430   14.2654 C   0  0  1  0  0  0  0  0  0  0  0  0
   51.1255    7.7211   16.6099 C   0  0  2  0  0  0  0  0  0  0  0  0
   48.9198    7.0132   20.3854 C   0  0  0  0  0  0  0  0  0  0  0  0
   49.8787    6.0656   19.9782 C   0  0  0  0  0  0  0  0  0  0  0  0
   47.8727    7.5556   12.3935 C   0  0  0  0  0  0  0  0  0  0  0  0
   50.6997    8.4420   11.9534 O   0  0  0  0  0  0  0  0  0  0  0  0
   52.1318    9.8867   14.1410 N   0  0  0  0  0  0  0  0  0  0  0  0
   47.9917    6.8033   15.2958 O   0  0  0  0  0  0  0  0  0  0  0  0
   47.5253    8.8121   19.7799 O   0  0  0  0  0  0  0  0  0  0  0  0
   48.3390    6.9318   21.6678 C   0  0  0  0  0  0  0  0  0  0  0  0
   48.6258   10.2265   15.2652 O   0  0  0  0  0  0  0  0  0  0  0  0
   46.6985    7.3521   12.6843 O   0  0  0  0  0  0  0  0  0  0  0  0
   47.2106    9.3948   17.2698 O   0  0  0  0  0  0  0  0  0  0  0  0
   49.8184    5.2476   17.7362 O   0  0  0  0  0  0  0  0  0  0  0  0
   52.5401    7.9307   16.8111 O   0  0  0  0  0  0  0  0  0  0  0  0
   48.3185    7.4565   11.0966 N   0  0  0  0  0  0  0  0  0  0  0  0
   51.9898    5.6210   18.6181 C   0  0  0  0  0  0  0  0  0  0  0  0
   50.1747    5.0143   20.8747 C   0  0  0  0  0  0  0  0  0  0  0  0
   47.4035    7.8167   22.1365 O   0  0  0  0  0  0  0  0  0  0  0  0
   49.5987    4.9471   22.1465 C   0  0  0  0  0  0  0  0  0  0  0  0
   48.6906    5.9155   22.5490 C   0  0  0  0  0  0  0  0  0  0  0  0
   51.4757   11.1215   13.7057 C   0  0  0  0  0  0  0  0  0  0  0  0
   53.2689    9.5936   13.2668 C   0  0  0  0  0  0  0  0  0  0  0  0
   50.2966    9.3209   18.3984 C   0  0  2  0  0  0  0  0  0  0  0  0
   51.0643    8.8832   16.0737 C   0  0  0  0  0  0  0  0  0  0  0  0
   49.0282    8.5526   18.0797 C   0  0  2  0  0  0  0  0  0  0  0  0
   50.8441    7.5524   20.2001 C   0  0  0  0  0  0  0  0  0  0  0  0
   51.3771    9.0916   17.3740 C   0  0  0  0  0  0  0  0  0  0  0  0
   49.6455    8.9587   15.5364 C   0  0  1  0  0  0  0  0  0  0  0  0
   50.6572    8.9920   19.8515 C   0  0  0  0  0  0  0  0  0  0  0  0
   50.2296    6.6035   19.4298 C   0  0  0  0  0  0  0  0  0  0  0  0
   52.1585    8.6730   15.0882 C   0  0  0  0  0  0  0  0  0  0  0  0
   49.3796    7.9773   14.3499 C   0  0  1  0  0  0  0  0  0  0  0  0
   49.2281    7.0167   18.2868 C   0  0  1  0  0  0  0  0  0  0  0  0
   48.5456    8.9099   16.6527 C   0  0  2  0  0  0  0  0  0  0  0  0
   51.8109    8.3901   13.6783 C   0  0  0  0  0  0  0  0  0  0  0  0
   50.4969    8.0524   13.3078 C   0  0  0  0  0  0  0  0  0  0  0  0
   51.7626    7.2249   21.3562 C   0  0  0  0  0  0  0  0  0  0  0  0
   50.3895    5.3434   19.4571 O   0  0  0  0  0  0  0  0  0  0  0  0
   47.8376    6.4534   18.3255 N   0  0  0  0  0  0  0  0  0  0  0  0
   50.7715    9.9191   20.6626 O   0  0  0  0  0  0  0  0  0  0  0  0
   53.3468    8.7515   15.4148 O   0  0  0  0  0  0  0  0  0  0  0  0
   52.8274    8.4418   12.7036 C   0  0  0  0  0  0  0  0  0  0  0  0
   49.9958   10.7425   18.3349 O   0  0  0  0  0  0  0  0  0  0  0  0
   52.1513    8.0428   22.1845 O   0  0  0  0  0  0  0  0  0  0  0  0
   52.6716    9.1439   17.8591 O   0  0  0  0  0  0  0  0  0  0  0  0
   49.3990    6.6280   14.8030 O   0  0  0  0  0  0  0  0  0  0  0  0
   47.9426   10.2257   16.6943 O   0  0  0  0  0  0  0  0  0  0  0  0
   52.1703    5.9285   21.4487 N   0  0  0  0  0  0  0  0  0  0  0  0
   47.9953    8.2561   13.7136 C   0  0  0  0  0  0  0  0  0  0  0  0
   50.2609    7.7375   11.9469 C   0  0  0  0  0  0  0  0  0  0  0  0
   54.1268    8.7780   12.9824 O   0  0  0  0  0  0  0  0  0  0  0  0
   51.2763    7.8014   10.9882 C   0  0  0  0  0  0  0  0  0  0  0  0
   52.5614    8.1594   11.3669 C   0  0  0  0  0  0  0  0  0  0  0  0
   47.7589    5.0695   17.8499 C   0  0  0  0  0  0  0  0  0  0  0  0
   47.2435    6.5295   19.6686 C   0  0  0  0  0  0  0  0  0  0  0  0
   50.0527    7.8344   16.6700 Ca  0  0  0  0  0 15  0  0  0  0  0  0
   50.9480    9.8030   16.1817 H   0  0  0  0  0  0  0  0  0  0  0  0
   51.1170    8.2155   18.7008 H   0  0  0  0  0  0  0  0  0  0  0  0
   51.8193    7.8493   14.2988 H   0  0  0  0  0  0  0  0  0  0  0  0
   51.0163    6.7722   16.0704 H   0  0  0  0  0  0  0  0  0  0  0  0
   47.6813   10.2868   15.5135 H   0  0  0  0  0  0  0  0  0  0  0  0
   46.9372    9.3141   18.2107 H   0  0  0  0  0  0  0  0  0  0  0  0
   48.8685    5.4741   17.7408 H   0  0  0  0  0  0  0  0  0  0  0  0
   52.8668    8.5161   16.0946 H   0  0  0  0  0  0  0  0  0  0  0  0
   48.9383    6.6525   11.0342 H   0  0  0  0  0  0  0  0  0  0  0  0
   49.0823    8.1497   10.9948 H   0  0  0  0  0  0  0  0  0  0  0  0
   52.0585    4.5792   18.9442 H   0  0  0  0  0  0  0  0  0  0  0  0
   52.4292    5.6008   17.6138 H   0  0  0  0  0  0  0  0  0  0  0  0
   52.6221    6.2293   19.2720 H   0  0  0  0  0  0  0  0  0  0  0  0
   50.8589    4.2164   20.5949 H   0  0  0  0  0  0  0  0  0  0  0  0
   47.1488    8.4091   21.3927 H   0  0  0  0  0  0  0  0  0  0  0  0
   49.8573    4.1309   22.8164 H   0  0  0  0  0  0  0  0  0  0  0  0
   48.2341    5.8685   23.5338 H   0  0  0  0  0  0  0  0  0  0  0  0
   51.0887   11.0746   12.6855 H   0  0  0  0  0  0  0  0  0  0  0  0
   50.6594   11.4011   14.3767 H   0  0  0  0  0  0  0  0  0  0  0  0
   52.1874   11.9550   13.7444 H   0  0  0  0  0  0  0  0  0  0  0  0
   53.7665    8.6639   13.5655 H   0  0  0  0  0  0  0  0  0  0  0  0
   54.0246   10.3847   13.3755 H   0  0  0  0  0  0  0  0  0  0  0  0
   53.0178    9.5381   12.2027 H   0  0  0  0  0  0  0  0  0  0  0  0
   48.2600    8.9230   18.7771 H   0  0  0  0  0  0  0  0  0  0  0  0
   49.5907    9.9658   15.0880 H   0  0  0  0  0  0  0  0  0  0  0  0
   49.6932    6.6587   17.3585 H   0  0  0  0  0  0  0  0  0  0  0  0
   47.7275    8.2399   16.3868 H   0  0  0  0  0  0  0  0  0  0  0  0
   50.4695   11.1086   19.1149 H   0  0  0  0  0  0  0  0  0  0  0  0
   53.2851    8.9239   17.1231 H   0  0  0  0  0  0  0  0  0  0  0  0
   48.5905    6.4608   15.3228 H   0  0  0  0  0  0  0  0  0  0  0  0
   48.5410   10.7746   17.2480 H   0  0  0  0  0  0  0  0  0  0  0  0
   51.7218    5.2761   20.7922 H   0  0  0  0  0  0  0  0  0  0  0  0
   52.7069    5.6066   22.2328 H   0  0  0  0  0  0  0  0  0  0  0  0
   47.6922    7.4326   13.0567 H   0  0  0  0  0  0  0  0  0  0  0  0
   47.1885    8.3121   14.4473 H   0  0  0  0  0  0  0  0  0  0  0  0
   47.9889    9.1890   13.1415 H   0  0  0  0  0  0  0  0  0  0  0  0
   49.2783    7.4178   11.6091 H   0  0  0  0  0  0  0  0  0  0  0  0
   54.2236    8.7872   13.9638 H   0  0  0  0  0  0  0  0  0  0  0  0
   51.0603    7.5542    9.9519 H   0  0  0  0  0  0  0  0  0  0  0  0
   53.3608    8.2107   10.6308 H   0  0  0  0  0  0  0  0  0  0  0  0
   46.7100    4.8031   17.6870 H   0  0  0  0  0  0  0  0  0  0  0  0
   48.1720    4.3329   18.5454 H   0  0  0  0  0  0  0  0  0  0  0  0
   48.2586    4.9460   16.8855 H   0  0  0  0  0  0  0  0  0  0  0  0
   47.3857    7.5050   20.1424 H   0  0  0  0  0  0  0  0  0  0  0  0
   46.1597    6.3789   19.5972 H   0  0  0  0  0  0  0  0  0  0  0  0
   47.6376    5.7674   20.3516 H   0  0  0  0  0  0  0  0  0  0  0  0
  2  5  2  0
  3  1  1  0
  4  7  1  0
  5  1  1  0
  6  2  1  0
  7  1  1  0
  8  4  2  0
  9  2  1  0
 10  6  1  0
  3 11  1  0
 12  3  1  0
 13  9  1  0
 14 13  2  0
 15  4  1  0
 16  8  1  0
 11 17  1  0
 18  7  2  0
 19  9  2  0
 20 13  1  0
  1 21  1  6
 22 15  2  0
 23  5  1  0
 10 24  1  1
 12 25  1  0
 26 15  1  0
 10 27  1  0
 28 14  1  0
 29 20  1  0
 30 31  1  0
 31 20  2  0
 32 17  1  0
 33 17  1  0
 12  6  1  0
 11  8  1  0
 10 14  1  0
 30 28  2  0
 35 38  2  0
 36 34  1  0
 37 40  1  0
 38 34  1  0
 39 35  1  0
 40 34  1  0
 41 37  2  0
 42 35  1  0
 43 39  1  0
 36 44  1  0
 45 36  1  0
 46 42  1  0
 47 46  2  0
 48 37  1  0
 49 41  1  0
 44 50  1  0
 51 40  2  0
 52 42  2  0
 53 46  1  0
 34 54  1  6
 55 48  2  0
 56 38  1  0
 43 57  1  1
 45 58  1  0
 59 48  1  0
 43 60  1  0
 61 47  1  0
 62 53  1  0
 63 64  1  0
 64 53  2  0
 65 50  1  0
 66 50  1  0
 45 39  1  0
 44 41  1  0
 43 47  1  0
 63 61  2  0
  3 68  1  6
  6 69  1  6
 11 70  1  1
 12 71  1  1
 21 72  1  0
 23 73  1  0
 24 74  1  0
 25 75  1  0
 26 76  1  0
 26 77  1  0
 27 78  1  0
 27 79  1  0
 27 80  1  0
 28 81  1  0
 29 82  1  0
 30 83  1  0
 31 84  1  0
 32 85  1  0
 32 86  1  0
 32 87  1  0
 33 88  1  0
 33 89  1  0
 33 90  1  0
 36 91  1  6
 39 92  1  6
 44 93  1  1
 45 94  1  1
 54 95  1  0
 56 96  1  0
 57 97  1  0
 58 98  1  0
 59 99  1  0
 59100  1  0
 60101  1  0
 60102  1  0
 60103  1  0
 61104  1  0
 62105  1  0
 63106  1  0
 64107  1  0
 65108  1  0
 65109  1  0
 65110  1  0
 66111  1  0
 66112  1  0
 66113  1  0
M  CHG  3  16  -1  49  -1  67   2
M  END
> <Uni-Dock RESULT> 
ENERGY=   -4.043  LOWER_BOUND=    3.151  UPPER_BOUND=    6.748
INTER + INTRA:          -4.043
INTER:                  -4.043
INTRA:                   0.000
UNBOUND:                 0.000

$$$$

     RDKit          3D

113118  0  0  0  0  0  0  0  0999 V2000
   52.3291    5.4778   17.9233 C   0  0  2  0  0  0  0  0  0  0  0  0
   50.7147    7.2808   18.6092 C   0  0  0  0  0  0  0  0  0  0  0  0
   53.2301    5.9176   19.0745 C   0  0  2  0  0  0  0  0  0  0  0  0
   52.7719    3.0273   18.4017 C   0  0  0  0  0  0  0  0  0  0  0  0
   51.1862    6.4446   17.6673 C   0  0  0  0  0  0  0  0  0  0  0  0
   51.2714    7.3963   20.0038 C   0  0  1  0  0  0  0  0  0  0  0  0
   51.7622    4.1127   18.3053 C   0  0  0  0  0  0  0  0  0  0  0  0
   53.9680    3.3190   18.9927 C   0  0  0  0  0  0  0  0  0  0  0  0
   49.5852    8.1831   18.2810 C   0  0  0  0  0  0  0  0  0  0  0  0
   50.1220    7.3371   21.0713 C   0  0  1  0  0  0  0  0  0  0  0  0
   54.2443    4.7822   19.5191 C   0  0  1  0  0  0  0  0  0  0  0  0
   52.4331    6.4079   20.3064 C   0  0  2  0  0  0  0  0  0  0  0  0
   48.7714    8.7265   19.3916 C   0  0  0  0  0  0  0  0  0  0  0  0
   48.9874    8.3049   20.7178 C   0  0  0  0  0  0  0  0  0  0  0  0
   52.3993    1.6714   17.8671 C   0  0  0  0  0  0  0  0  0  0  0  0
   54.9083    2.5110   19.2712 O   0  0  0  0  0  0  0  0  0  0  0  0
   55.5974    5.4142   19.4134 N   0  0  0  0  0  0  0  0  0  0  0  0
   50.5809    3.9377   18.6161 O   0  0  0  0  0  0  0  0  0  0  0  0
   49.3055    8.4624   17.1129 O   0  0  0  0  0  0  0  0  0  0  0  0
   47.7291    9.6279   19.0924 C   0  0  0  0  0  0  0  0  0  0  0  0
   53.0793    5.4314   16.7060 O   0  0  0  0  0  0  0  0  0  0  0  0
   51.4045    1.4801   17.1754 O   0  0  0  0  0  0  0  0  0  0  0  0
   50.7056    6.4103   16.3594 O   0  0  0  0  0  0  0  0  0  0  0  0
   49.5572    6.0234   21.1289 O   0  0  0  0  0  0  0  0  0  0  0  0
   53.3377    7.1036   21.1914 O   0  0  0  0  0  0  0  0  0  0  0  0
   53.2550    0.6457   18.1929 N   0  0  0  0  0  0  0  0  0  0  0  0
   50.6944    7.6087   22.4801 C   0  0  0  0  0  0  0  0  0  0  0  0
   48.0861    8.7691   21.7021 C   0  0  0  0  0  0  0  0  0  0  0  0
   47.4590   10.0860   17.8295 O   0  0  0  0  0  0  0  0  0  0  0  0
   47.0607    9.6682   21.3961 C   0  0  0  0  0  0  0  0  0  0  0  0
   46.8912   10.1096   20.0919 C   0  0  0  0  0  0  0  0  0  0  0  0
   56.1602    5.3095   18.0654 C   0  0  0  0  0  0  0  0  0  0  0  0
   56.5540    4.8955   20.3927 C   0  0  0  0  0  0  0  0  0  0  0  0
   52.0141    8.3214   18.6914 C   0  0  2  0  0  0  0  0  0  0  0  0
   53.3696    6.3725   19.4326 C   0  0  0  0  0  0  0  0  0  0  0  0
   50.9168    7.3533   18.2920 C   0  0  2  0  0  0  0  0  0  0  0  0
   50.3836    9.3725   20.3974 C   0  0  0  0  0  0  0  0  0  0  0  0
   53.0487    7.6793   19.5784 C   0  0  0  0  0  0  0  0  0  0  0  0
   52.8025    5.4939   18.3308 C   0  0  1  0  0  0  0  0  0  0  0  0
   51.3192    9.5681   19.2504 C   0  0  0  0  0  0  0  0  0  0  0  0
   49.8039    8.1458   20.5720 C   0  0  0  0  0  0  0  0  0  0  0  0
   54.4052    5.7758   20.3183 C   0  0  0  0  0  0  0  0  0  0  0  0
   52.6242    4.0017   18.7588 C   0  0  1  0  0  0  0  0  0  0  0  0
   50.0004    7.0016   19.5079 C   0  0  1  0  0  0  0  0  0  0  0  0
   51.5406    6.1023   17.6266 C   0  0  2  0  0  0  0  0  0  0  0  0
   54.7131    4.3342   20.1935 C   0  0  0  0  0  0  0  0  0  0  0  0
   53.8762    3.4733   19.4610 C   0  0  0  0  0  0  0  0  0  0  0  0
   50.1817   10.5354   21.3431 C   0  0  0  0  0  0  0  0  0  0  0  0
   49.1199    7.7322   21.5595 O   0  0  0  0  0  0  0  0  0  0  0  0
   48.7763    6.3852   18.8964 N   0  0  0  0  0  0  0  0  0  0  0  0
   51.5558   10.6663   18.7322 O   0  0  0  0  0  0  0  0  0  0  0  0
   55.0276    6.4593   21.1369 O   0  0  0  0  0  0  0  0  0  0  0  0
   55.8552    3.8240   20.8426 C   0  0  0  0  0  0  0  0  0  0  0  0
   52.7274    8.7222   17.4889 O   0  0  0  0  0  0  0  0  0  0  0  0
   50.5130   11.6916   21.0990 O   0  0  0  0  0  0  0  0  0  0  0  0
   53.6427    8.5233   20.4996 O   0  0  0  0  0  0  0  0  0  0  0  0
   51.5885    3.8796   19.7277 O   0  0  0  0  0  0  0  0  0  0  0  0
   51.9503    6.4595   16.2845 O   0  0  0  0  0  0  0  0  0  0  0  0
   49.5967   10.2414   22.5376 N   0  0  0  0  0  0  0  0  0  0  0  0
   52.2514    3.1265   17.5365 C   0  0  0  0  0  0  0  0  0  0  0  0
   54.2096    2.0966   19.4413 C   0  0  0  0  0  0  0  0  0  0  0  0
   56.7275    4.6001   21.5609 O   0  0  0  0  0  0  0  0  0  0  0  0
   55.3505    1.6047   20.0820 C   0  0  0  0  0  0  0  0  0  0  0  0
   56.1778    2.4715   20.7799 C   0  0  0  0  0  0  0  0  0  0  0  0
   48.1172    5.4128   19.7726 C   0  0  0  0  0  0  0  0  0  0  0  0
   47.7919    7.3960   18.4818 C   0  0  0  0  0  0  0  0  0  0  0  0
   51.8084    6.1703   19.4575 Ca  0  0  0  0  0 15  0  0  0  0  0  0
   53.8060    6.7856   18.7185 H   0  0  0  0  0  0  0  0  0  0  0  0
   51.6977    8.4119   20.0618 H   0  0  0  0  0  0  0  0  0  0  0  0
   54.0818    4.6665   20.6039 H   0  0  0  0  0  0  0  0  0  0  0  0
   52.0523    5.5388   20.8568 H   0  0  0  0  0  0  0  0  0  0  0  0
   52.4087    5.3765   15.9956 H   0  0  0  0  0  0  0  0  0  0  0  0
   50.0226    7.1110   16.2644 H   0  0  0  0  0  0  0  0  0  0  0  0
   49.1051    5.8195   20.2876 H   0  0  0  0  0  0  0  0  0  0  0  0
   54.2511    6.8092   20.9871 H   0  0  0  0  0  0  0  0  0  0  0  0
   53.1785    0.4734   19.1924 H   0  0  0  0  0  0  0  0  0  0  0  0
   54.2015    1.0627   18.2596 H   0  0  0  0  0  0  0  0  0  0  0  0
   49.9397    7.5106   23.2658 H   0  0  0  0  0  0  0  0  0  0  0  0
   51.4499    6.8655   22.7613 H   0  0  0  0  0  0  0  0  0  0  0  0
   51.1347    8.6082   22.5480 H   0  0  0  0  0  0  0  0  0  0  0  0
   48.1606    8.4305   22.7331 H   0  0  0  0  0  0  0  0  0  0  0  0
   48.0302    9.5900   17.1997 H   0  0  0  0  0  0  0  0  0  0  0  0
   46.3916   10.0149   22.1796 H   0  0  0  0  0  0  0  0  0  0  0  0
   46.0937   10.8046   19.8438 H   0  0  0  0  0  0  0  0  0  0  0  0
   56.3955    4.2852   17.7684 H   0  0  0  0  0  0  0  0  0  0  0  0
   55.4943    5.7462   17.3167 H   0  0  0  0  0  0  0  0  0  0  0  0
   57.0908    5.8866   18.0044 H   0  0  0  0  0  0  0  0  0  0  0  0
   56.1469    4.9503   21.4088 H   0  0  0  0  0  0  0  0  0  0  0  0
   57.4513    5.5307   20.3962 H   0  0  0  0  0  0  0  0  0  0  0  0
   56.8899    3.8720   20.1974 H   0  0  0  0  0  0  0  0  0  0  0  0
   50.3232    7.8631   17.5165 H   0  0  0  0  0  0  0  0  0  0  0  0
   53.6050    5.4768   17.5732 H   0  0  0  0  0  0  0  0  0  0  0  0
   50.5279    6.2018   20.0448 H   0  0  0  0  0  0  0  0  0  0  0  0
   50.7561    5.3580   17.4867 H   0  0  0  0  0  0  0  0  0  0  0  0
   52.8592    9.6883   17.6160 H   0  0  0  0  0  0  0  0  0  0  0  0
   54.2515    7.9900   21.0577 H   0  0  0  0  0  0  0  0  0  0  0  0
   50.7292    4.0150   19.2859 H   0  0  0  0  0  0  0  0  0  0  0  0
   52.3828    7.3385   16.3640 H   0  0  0  0  0  0  0  0  0  0  0  0
   49.2446    9.2797   22.6327 H   0  0  0  0  0  0  0  0  0  0  0  0
   49.3453   10.9647   23.1857 H   0  0  0  0  0  0  0  0  0  0  0  0
   51.8851    2.1435   17.8546 H   0  0  0  0  0  0  0  0  0  0  0  0
   51.4239    3.5343   16.9523 H   0  0  0  0  0  0  0  0  0  0  0  0
   53.0995    2.9883   16.8589 H   0  0  0  0  0  0  0  0  0  0  0  0
   53.5726    1.3742   18.9370 H   0  0  0  0  0  0  0  0  0  0  0  0
   56.3085    5.4859   21.6728 H   0  0  0  0  0  0  0  0  0  0  0  0
   55.5774    0.5422   20.0459 H   0  0  0  0  0  0  0  0  0  0  0  0
   57.0675    2.1008   21.2845 H   0  0  0  0  0  0  0  0  0  0  0  0
   47.3854    4.8422   19.1923 H   0  0  0  0  0  0  0  0  0  0  0  0
   47.5798    5.8604   20.6139 H   0  0  0  0  0  0  0  0  0  0  0  0
   48.8272    4.6831   20.1707 H   0  0  0  0  0  0  0  0  0  0  0  0
   48.2419    8.2286   17.9336 H   0  0  0  0  0  0  0  0  0  0  0  0
   47.0642    6.9387   17.8009 H   0  0  0  0  0  0  0  0  0  0  0  0
   47.2334    7.8170   19.3264 H   0  0  0  0  0  0  0  0  0  0  0  0
  2  5  2  0
  3  1  1  0
  4  7  1  0
  5  1  1  0
  6  2  1  0
  7  1  1  0
  8  4  2  0
  9  2  1  0
 10  6  1  0
  3 11  1  0
 12  3  1  0
 13  9  1  0
 14 13  2  0
 15  4  1  0
 16  8  1  0
 11 17  1  0
 18  7  2  0
 19  9  2  0
 20 13  1  0
  1 21  1  6
 22 15  2  0
 23  5  1  0
 10 24  1  1
 12 25  1  0
 26 15  1  0
 10 27  1  0
 28 14  1  0
 29 20  1  0
 30 31  1  0
 31 20  2  0
 32 17  1  0
 33 17  1  0
 12  6  1  0
 11  8  1  0
 10 14  1  0
 30 28  2  0
 35 38  2  0
 36 34  1  0
 37 40  1  0
 38 34  1  0
 39 35  1  0
 40 34  1  0
 41 37  2  0
 42 35  1  0
 43 39  1  0
 36 44  1  0
 45 36  1  0
 46 42  1  0
 47 46  2  0
 48 37  1  0
 49 41  1  0
 44 50  1  0
 51 40  2  0
 52 42  2  0
 53 46  1  0
 34 54  1  6
 55 48  2  0
 56 38  1  0
 43 57  1  1
 45 58  1  0
 59 48  1  0
 43 60  1  0
 61 47  1  0
 62 53  1  0
 63 64  1  0
 64 53  2  0
 65 50  1  0
 66 50  1  0
 45 39  1  0
 44 41  1  0
 43 47  1  0
 63 61  2  0
  3 68  1  6
  6 69  1  6
 11 70  1  1
 12 71  1  1
 21 72  1  0
 23 73  1  0
 24 74  1  0
 25 75  1  0
 26 76  1  0
 26 77  1  0
 27 78  1  0
 27 79  1  0
 27 80  1  0
 28 81  1  0
 29 82  1  0
 30 83  1  0
 31 84  1  0
 32 85  1  0
 32 86  1  0
 32 87  1  0
 33 88  1  0
 33 89  1  0
 33 90  1  0
 36 91  1  6
 39 92  1  6
 44 93  1  1
 45 94  1  1
 54 95  1  0
 56 96  1  0
 57 97  1  0
 58 98  1  0
 59 99  1  0
 59100  1  0
 60101  1  0
 60102  1  0
 60103  1  0
 61104  1  0
 62105  1  0
 63106  1  0
 64107  1  0
 65108  1  0
 65109  1  0
 65110  1  0
 66111  1  0
 66112  1  0
 66113  1  0
M  CHG  3  16  -1  49  -1  67   2
M  END
> <Uni-Dock RESULT> 
ENERGY=   -4.030  LOWER_BOUND=    2.284  UPPER_BOUND=    5.469
INTER + INTRA:          -4.030
INTER:                  -4.030
INTRA:                   0.000
UNBOUND:                 0.000

$$$$

     RDKit          3D

113118  0  0  0  0  0  0  0  0999 V2000
   46.2687   13.1429   11.3747 C   0  0  2  0  0  0  0  0  0  0  0  0
   48.4787   12.9372   12.5582 C   0  0  0  0  0  0  0  0  0  0  0  0
   47.0337   13.1391   10.0537 C   0  0  2  0  0  0  0  0  0  0  0  0
   44.4609   11.6370   10.4290 C   0  0  0  0  0  0  0  0  0  0  0  0
   47.1791   13.2823   12.5823 C   0  0  0  0  0  0  0  0  0  0  0  0
   49.2006   12.4143   11.3444 C   0  0  1  0  0  0  0  0  0  0  0  0
   45.5215   11.8139   11.4541 C   0  0  0  0  0  0  0  0  0  0  0  0
   44.7291   12.0501    9.1552 C   0  0  0  0  0  0  0  0  0  0  0  0
   49.2947   13.0913   13.7863 C   0  0  0  0  0  0  0  0  0  0  0  0
   50.0157   11.1190   11.6935 C   0  0  1  0  0  0  0  0  0  0  0  0
   46.1226   12.7166    8.8261 C   0  0  1  0  0  0  0  0  0  0  0  0
   48.2938   12.2426   10.0928 C   0  0  2  0  0  0  0  0  0  0  0  0
   50.5350   12.2934   13.9132 C   0  0  0  0  0  0  0  0  0  0  0  0
   50.8715   11.3246   12.9482 C   0  0  0  0  0  0  0  0  0  0  0  0
   43.1721   10.9890   10.8559 C   0  0  0  0  0  0  0  0  0  0  0  0
   44.0072   11.8854    8.1227 O   0  0  0  0  0  0  0  0  0  0  0  0
   46.2439   13.8470    7.8519 N   0  0  0  0  0  0  0  0  0  0  0  0
   45.8371   10.9099   12.2325 O   0  0  0  0  0  0  0  0  0  0  0  0
   48.9462   13.8449   14.6980 O   0  0  0  0  0  0  0  0  0  0  0  0
   51.3451   12.4734   15.0533 C   0  0  0  0  0  0  0  0  0  0  0  0
   45.3833   14.2656   11.4234 O   0  0  0  0  0  0  0  0  0  0  0  0
   42.8805   10.8011   12.0325 O   0  0  0  0  0  0  0  0  0  0  0  0
   46.5514   13.8373   13.6961 O   0  0  0  0  0  0  0  0  0  0  0  0
   49.1316   10.0249   11.9569 O   0  0  0  0  0  0  0  0  0  0  0  0
   49.1171   12.5576    8.9489 O   0  0  0  0  0  0  0  0  0  0  0  0
   42.3222   10.6238    9.8387 N   0  0  0  0  0  0  0  0  0  0  0  0
   50.8666   10.6864   10.4789 C   0  0  0  0  0  0  0  0  0  0  0  0
   52.0003   10.5148   13.2066 C   0  0  0  0  0  0  0  0  0  0  0  0
   51.0855   13.3960   16.0326 O   0  0  0  0  0  0  0  0  0  0  0  0
   52.8008   10.7064   14.3363 C   0  0  0  0  0  0  0  0  0  0  0  0
   52.4809   11.6969   15.2534 C   0  0  0  0  0  0  0  0  0  0  0  0
   45.2855   14.9216    8.1196 C   0  0  0  0  0  0  0  0  0  0  0  0
   46.1335   13.4195    6.4562 C   0  0  0  0  0  0  0  0  0  0  0  0
   49.0431   14.1609   11.5774 C   0  0  2  0  0  0  0  0  0  0  0  0
   47.5605   13.2517    9.7998 C   0  0  0  0  0  0  0  0  0  0  0  0
   48.3142   13.2827   12.5765 C   0  0  2  0  0  0  0  0  0  0  0  0
   51.2136   12.8666   12.1134 C   0  0  0  0  0  0  0  0  0  0  0  0
   48.7645   13.7593   10.1524 C   0  0  0  0  0  0  0  0  0  0  0  0
   46.3903   13.1392   10.7619 C   0  0  1  0  0  0  0  0  0  0  0  0
   50.5158   14.1818   12.0019 C   0  0  0  0  0  0  0  0  0  0  0  0
   50.4668   11.7422   12.3358 C   0  0  0  0  0  0  0  0  0  0  0  0
   47.3173   12.8779    8.3806 C   0  0  0  0  0  0  0  0  0  0  0  0
   45.4726   11.9064   10.4794 C   0  0  1  0  0  0  0  0  0  0  0  0
   48.9201   11.8428   12.6139 C   0  0  1  0  0  0  0  0  0  0  0  0
   46.7969   13.2896   12.2686 C   0  0  2  0  0  0  0  0  0  0  0  0
   46.0199   12.2716    8.0096 C   0  0  0  0  0  0  0  0  0  0  0  0
   45.1315   11.7990    8.9921 C   0  0  0  0  0  0  0  0  0  0  0  0
   52.7118   12.8486   11.9076 C   0  0  0  0  0  0  0  0  0  0  0  0
   50.8419   10.5289   12.3000 O   0  0  0  0  0  0  0  0  0  0  0  0
   48.3873   11.2383   13.8800 N   0  0  0  0  0  0  0  0  0  0  0  0
   51.0544   15.2709   12.2353 O   0  0  0  0  0  0  0  0  0  0  0  0
   48.1627   13.0826    7.5041 O   0  0  0  0  0  0  0  0  0  0  0  0
   45.6906   12.1517    6.6446 C   0  0  0  0  0  0  0  0  0  0  0  0
   48.5330   15.5170   11.7061 O   0  0  0  0  0  0  0  0  0  0  0  0
   53.4241   13.8479   11.9191 O   0  0  0  0  0  0  0  0  0  0  0  0
   49.8016   13.9788    9.2634 O   0  0  0  0  0  0  0  0  0  0  0  0
   46.1560   10.6947   10.7812 O   0  0  0  0  0  0  0  0  0  0  0  0
   46.2488   14.5520   12.7188 O   0  0  0  0  0  0  0  0  0  0  0  0
   53.2721   11.6259   11.6914 N   0  0  0  0  0  0  0  0  0  0  0  0
   44.1923   11.9714   11.3485 C   0  0  0  0  0  0  0  0  0  0  0  0
   43.9374   11.1776    8.5505 C   0  0  0  0  0  0  0  0  0  0  0  0
   46.4949   12.6018    5.6298 O   0  0  0  0  0  0  0  0  0  0  0  0
   43.6185   11.0731    7.1935 C   0  0  0  0  0  0  0  0  0  0  0  0
   44.4951   11.5660    6.2387 C   0  0  0  0  0  0  0  0  0  0  0  0
   48.2477    9.7810   13.8131 C   0  0  0  0  0  0  0  0  0  0  0  0
   49.2077   11.5844   15.0504 C   0  0  0  0  0  0  0  0  0  0  0  0
   47.7896   12.3165   11.0455 Ca  0  0  0  0  0 15  0  0  0  0  0  0
   47.3946   14.1659    9.8883 H   0  0  0  0  0  0  0  0  0  0  0  0
   49.9427   13.1903   11.0926 H   0  0  0  0  0  0  0  0  0  0  0  0
   46.6635   11.8839    8.3457 H   0  0  0  0  0  0  0  0  0  0  0  0
   47.9913   11.1932    9.9900 H   0  0  0  0  0  0  0  0  0  0  0  0
   45.1123   14.3357   12.3610 H   0  0  0  0  0  0  0  0  0  0  0  0
   47.2257   13.9560   14.4016 H   0  0  0  0  0  0  0  0  0  0  0  0
   48.6168   10.2023   12.7676 H   0  0  0  0  0  0  0  0  0  0  0  0
   48.5486   12.9828    8.2715 H   0  0  0  0  0  0  0  0  0  0  0  0
   42.7502    9.8559    9.3273 H   0  0  0  0  0  0  0  0  0  0  0  0
   42.4639   11.3115    9.0764 H   0  0  0  0  0  0  0  0  0  0  0  0
   51.4008    9.7480   10.6537 H   0  0  0  0  0  0  0  0  0  0  0  0
   50.2427   10.4630    9.6054 H   0  0  0  0  0  0  0  0  0  0  0  0
   51.5979   11.4541   10.2081 H   0  0  0  0  0  0  0  0  0  0  0  0
   52.2759    9.7073   12.5319 H   0  0  0  0  0  0  0  0  0  0  0  0
   50.2052   13.7949   15.8461 H   0  0  0  0  0  0  0  0  0  0  0  0
   53.6694   10.0733   14.4992 H   0  0  0  0  0  0  0  0  0  0  0  0
   53.0944   11.8497   16.1370 H   0  0  0  0  0  0  0  0  0  0  0  0
   44.2456   14.6302    7.9576 H   0  0  0  0  0  0  0  0  0  0  0  0
   45.3862   15.3055    9.1381 H   0  0  0  0  0  0  0  0  0  0  0  0
   45.4894   15.7749    7.4617 H   0  0  0  0  0  0  0  0  0  0  0  0
   46.8324   12.6041    6.2372 H   0  0  0  0  0  0  0  0  0  0  0  0
   46.4273   14.2491    5.7974 H   0  0  0  0  0  0  0  0  0  0  0  0
   45.1256   13.1162    6.1551 H   0  0  0  0  0  0  0  0  0  0  0  0
   48.4413   13.7633   13.5596 H   0  0  0  0  0  0  0  0  0  0  0  0
   45.7677   14.0171   10.5173 H   0  0  0  0  0  0  0  0  0  0  0  0
   48.4460   11.3087   11.7795 H   0  0  0  0  0  0  0  0  0  0  0  0
   46.3138   12.5398   12.8957 H   0  0  0  0  0  0  0  0  0  0  0  0
   49.3445   16.0695   11.6522 H   0  0  0  0  0  0  0  0  0  0  0  0
   49.5330   13.6288    8.3848 H   0  0  0  0  0  0  0  0  0  0  0  0
   46.2301   10.6103   11.7503 H   0  0  0  0  0  0  0  0  0  0  0  0
   46.8919   15.2379   12.4325 H   0  0  0  0  0  0  0  0  0  0  0  0
   52.6390   10.8233   11.8046 H   0  0  0  0  0  0  0  0  0  0  0  0
   54.2672   11.5125   11.6339 H   0  0  0  0  0  0  0  0  0  0  0  0
   43.6678   11.0089   11.3473 H   0  0  0  0  0  0  0  0  0  0  0  0
   44.3989   12.1521   12.4053 H   0  0  0  0  0  0  0  0  0  0  0  0
   43.5054   12.7517   11.0065 H   0  0  0  0  0  0  0  0  0  0  0  0
   43.2365   10.7452    9.2602 H   0  0  0  0  0  0  0  0  0  0  0  0
   47.3670   12.8343    6.0275 H   0  0  0  0  0  0  0  0  0  0  0  0
   42.6928   10.5911    6.8893 H   0  0  0  0  0  0  0  0  0  0  0  0
   44.2595   11.4888    5.1794 H   0  0  0  0  0  0  0  0  0  0  0  0
   47.6498    9.4364   14.6625 H   0  0  0  0  0  0  0  0  0  0  0  0
   49.1970    9.2382   13.8487 H   0  0  0  0  0  0  0  0  0  0  0  0
   47.7097    9.4688   12.9142 H   0  0  0  0  0  0  0  0  0  0  0  0
   49.4656   12.6466   15.0903 H   0  0  0  0  0  0  0  0  0  0  0  0
   48.6444   11.3714   15.9667 H   0  0  0  0  0  0  0  0  0  0  0  0
   50.1426   11.0132   15.0981 H   0  0  0  0  0  0  0  0  0  0  0  0
  2  5  2  0
  3  1  1  0
  4  7  1  0
  5  1  1  0
  6  2  1  0
  7  1  1  0
  8  4  2  0
  9  2  1  0
 10  6  1  0
  3 11  1  0
 12  3  1  0
 13  9  1  0
 14 13  2  0
 15  4  1  0
 16  8  1  0
 11 17  1  0
 18  7  2  0
 19  9  2  0
 20 13  1  0
  1 21  1  6
 22 15  2  0
 23  5  1  0
 10 24  1  1
 12 25  1  0
 26 15  1  0
 10 27  1  0
 28 14  1  0
 29 20  1  0
 30 31  1  0
 31 20  2  0
 32 17  1  0
 33 17  1  0
 12  6  1  0
 11  8  1  0
 10 14  1  0
 30 28  2  0
 35 38  2  0
 36 34  1  0
 37 40  1  0
 38 34  1  0
 39 35  1  0
 40 34  1  0
 41 37  2  0
 42 35  1  0
 43 39  1  0
 36 44  1  0
 45 36  1  0
 46 42  1  0
 47 46  2  0
 48 37  1  0
 49 41  1  0
 44 50  1  0
 51 40  2  0
 52 42  2  0
 53 46  1  0
 34 54  1  6
 55 48  2  0
 56 38  1  0
 43 57  1  1
 45 58  1  0
 59 48  1  0
 43 60  1  0
 61 47  1  0
 62 53  1  0
 63 64  1  0
 64 53  2  0
 65 50  1  0
 66 50  1  0
 45 39  1  0
 44 41  1  0
 43 47  1  0
 63 61  2  0
  3 68  1  6
  6 69  1  6
 11 70  1  1
 12 71  1  1
 21 72  1  0
 23 73  1  0
 24 74  1  0
 25 75  1  0
 26 76  1  0
 26 77  1  0
 27 78  1  0
 27 79  1  0
 27 80  1  0
 28 81  1  0
 29 82  1  0
 30 83  1  0
 31 84  1  0
 32 85  1  0
 32 86  1  0
 32 87  1  0
 33 88  1  0
 33 89  1  0
 33 90  1  0
 36 91  1  6
 39 92  1  6
 44 93  1  1
 45 94  1  1
 54 95  1  0
 56 96  1  0
 57 97  1  0
 58 98  1  0
 59 99  1  0
 59100  1  0
 60101  1  0
 60102  1  0
 60103  1  0
 61104  1  0
 62105  1  0
 63106  1  0
 64107  1  0
 65108  1  0
 65109  1  0
 65110  1  0
 66111  1  0
 66112  1  0
 66113  1  0
M  CHG  3  16  -1  49  -1  67   2
M  END
> <Uni-Dock RESULT> 
ENERGY=   -4.003  LOWER_BOUND=    8.478  UPPER_BOUND=   11.257
INTER + INTRA:          -4.003
INTER:                  -4.003
INTRA:                   0.000
UNBOUND:                 0.000

$$$$

     RDKit          3D

113118  0  0  0  0  0  0  0  0999 V2000
   49.6721    6.4485   20.3685 C   0  0  2  0  0  0  0  0  0  0  0  0
   48.8971    8.7289   19.6426 C   0  0  0  0  0  0  0  0  0  0  0  0
   50.6439    6.4602   19.1912 C   0  0  2  0  0  0  0  0  0  0  0  0
   51.4104    5.4202   21.9018 C   0  0  0  0  0  0  0  0  0  0  0  0
   48.6681    7.5868   20.3149 C   0  0  0  0  0  0  0  0  0  0  0  0
   50.1376    9.0106   18.8365 C   0  0  1  0  0  0  0  0  0  0  0  0
   50.5146    6.5750   21.6354 C   0  0  0  0  0  0  0  0  0  0  0  0
   52.0755    4.8709   20.8430 C   0  0  0  0  0  0  0  0  0  0  0  0
   47.8696    9.7974   19.6534 C   0  0  0  0  0  0  0  0  0  0  0  0
   50.7332   10.4168   19.2000 C   0  0  1  0  0  0  0  0  0  0  0  0
   51.8522    5.4527   19.3918 C   0  0  1  0  0  0  0  0  0  0  0  0
   51.1958    7.8721   18.8829 C   0  0  2  0  0  0  0  0  0  0  0  0
   48.2906   11.1833   19.3485 C   0  0  0  0  0  0  0  0  0  0  0  0
   49.6508   11.5014   19.1697 C   0  0  0  0  0  0  0  0  0  0  0  0
   51.5471    4.9504   23.3243 C   0  0  0  0  0  0  0  0  0  0  0  0
   52.9636    3.9628   20.8770 O   0  0  0  0  0  0  0  0  0  0  0  0
   51.8168    4.5667   18.1855 N   0  0  0  0  0  0  0  0  0  0  0  0
   50.5371    7.5950   22.3295 O   0  0  0  0  0  0  0  0  0  0  0  0
   46.6933    9.5538   19.9319 O   0  0  0  0  0  0  0  0  0  0  0  0
   47.3112   12.1968   19.3036 C   0  0  0  0  0  0  0  0  0  0  0  0
   48.8977    5.2458   20.3509 O   0  0  0  0  0  0  0  0  0  0  0  0
   50.8037    5.3290   24.2236 O   0  0  0  0  0  0  0  0  0  0  0  0
   47.4790    7.3173   20.9902 O   0  0  0  0  0  0  0  0  0  0  0  0
   51.2838   10.4028   20.5209 O   0  0  0  0  0  0  0  0  0  0  0  0
   51.8217    7.8465   17.5817 O   0  0  0  0  0  0  0  0  0  0  0  0
   52.5600    4.0513   23.5612 N   0  0  0  0  0  0  0  0  0  0  0  0
   51.9118   10.7510   18.2589 C   0  0  0  0  0  0  0  0  0  0  0  0
   49.9838   12.8655   19.0120 C   0  0  0  0  0  0  0  0  0  0  0  0
   45.9701   11.9659   19.4649 O   0  0  0  0  0  0  0  0  0  0  0  0
   49.0044   13.8614   18.9616 C   0  0  0  0  0  0  0  0  0  0  0  0
   47.6651   13.5247   19.0929 C   0  0  0  0  0  0  0  0  0  0  0  0
   50.9132    3.4267   18.3549 C   0  0  0  0  0  0  0  0  0  0  0  0
   53.1413    4.0943   17.7781 C   0  0  0  0  0  0  0  0  0  0  0  0
   48.7974    8.1287   18.0909 C   0  0  2  0  0  0  0  0  0  0  0  0
   50.7490    6.6934   18.6534 C   0  0  0  0  0  0  0  0  0  0  0  0
   48.6548    8.4417   19.5682 C   0  0  2  0  0  0  0  0  0  0  0  0
   49.2328   10.6386   17.6621 C   0  0  0  0  0  0  0  0  0  0  0  0
   50.1287    7.5038   17.7643 C   0  0  0  0  0  0  0  0  0  0  0  0
   50.1278    6.2787   19.9761 C   0  0  1  0  0  0  0  0  0  0  0  0
   48.4456    9.4136   17.3327 C   0  0  0  0  0  0  0  0  0  0  0  0
   49.8321   10.7258   18.8888 C   0  0  0  0  0  0  0  0  0  0  0  0
   52.0568    6.0840   18.2911 C   0  0  0  0  0  0  0  0  0  0  0  0
   51.1771    6.0731   21.1156 C   0  0  1  0  0  0  0  0  0  0  0  0
   49.5819    9.6271   19.9889 C   0  0  1  0  0  0  0  0  0  0  0  0
   48.9020    7.1596   20.4001 C   0  0  2  0  0  0  0  0  0  0  0  0
   52.7581    5.2439   19.2865 C   0  0  0  0  0  0  0  0  0  0  0  0
   52.3586    5.2288   20.6350 C   0  0  0  0  0  0  0  0  0  0  0  0
   49.3748   11.6910   16.5851 C   0  0  0  0  0  0  0  0  0  0  0  0
   50.6654   11.5934   19.2975 O   0  0  0  0  0  0  0  0  0  0  0  0
   49.0547   10.0679   21.3231 N   0  0  0  0  0  0  0  0  0  0  0  0
   47.5348    9.3826   16.4961 O   0  0  0  0  0  0  0  0  0  0  0  0
   52.5576    6.2446   17.1739 O   0  0  0  0  0  0  0  0  0  0  0  0
   53.8570    4.4673   18.8678 C   0  0  0  0  0  0  0  0  0  0  0  0
   47.8016    7.1285   17.7393 O   0  0  0  0  0  0  0  0  0  0  0  0
   48.6862   11.7402   15.5705 O   0  0  0  0  0  0  0  0  0  0  0  0
   50.6260    7.7965   16.5070 O   0  0  0  0  0  0  0  0  0  0  0  0
   51.7539    7.3181   21.4948 O   0  0  0  0  0  0  0  0  0  0  0  0
   47.7308    6.3152   20.2904 O   0  0  0  0  0  0  0  0  0  0  0  0
   50.3455   12.6256   16.7850 N   0  0  0  0  0  0  0  0  0  0  0  0
   50.5078    5.4475   22.3644 C   0  0  0  0  0  0  0  0  0  0  0  0
   53.1209    4.4439   21.5348 C   0  0  0  0  0  0  0  0  0  0  0  0
   54.2969    4.4161   17.5704 O   0  0  0  0  0  0  0  0  0  0  0  0
   54.2034    3.6709   21.1048 C   0  0  0  0  0  0  0  0  0  0  0  0
   54.5689    3.6790   19.7671 C   0  0  0  0  0  0  0  0  0  0  0  0
   50.0824   10.6539   22.1881 C   0  0  0  0  0  0  0  0  0  0  0  0
   47.9413   11.0200   21.1948 C   0  0  0  0  0  0  0  0  0  0  0  0
   50.4467    7.8644   19.6614 Ca  0  0  0  0  0 15  0  0  0  0  0  0
   50.0736    6.1544   18.3006 H   0  0  0  0  0  0  0  0  0  0  0  0
   49.7936    9.0795   17.7909 H   0  0  0  0  0  0  0  0  0  0  0  0
   52.7582    6.0663   19.2525 H   0  0  0  0  0  0  0  0  0  0  0  0
   51.9795    8.1179   19.6101 H   0  0  0  0  0  0  0  0  0  0  0  0
   48.1587    5.4096   20.9709 H   0  0  0  0  0  0  0  0  0  0  0  0
   46.8653    8.0715   20.8450 H   0  0  0  0  0  0  0  0  0  0  0  0
   50.5710   10.2749   21.1760 H   0  0  0  0  0  0  0  0  0  0  0  0
   52.0487    6.9156   17.3705 H   0  0  0  0  0  0  0  0  0  0  0  0
   53.4473    4.5342   23.4440 H   0  0  0  0  0  0  0  0  0  0  0  0
   52.6633    3.4906   22.6956 H   0  0  0  0  0  0  0  0  0  0  0  0
   52.4022   11.6935   18.5190 H   0  0  0  0  0  0  0  0  0  0  0  0
   52.7195   10.0144   18.3429 H   0  0  0  0  0  0  0  0  0  0  0  0
   51.5876   10.8076   17.2153 H   0  0  0  0  0  0  0  0  0  0  0  0
   51.0213   13.1826   18.9328 H   0  0  0  0  0  0  0  0  0  0  0  0
   45.8550   11.0234   19.7245 H   0  0  0  0  0  0  0  0  0  0  0  0
   49.2941   14.9006   18.8273 H   0  0  0  0  0  0  0  0  0  0  0  0
   46.8972   14.2927   19.0600 H   0  0  0  0  0  0  0  0  0  0  0  0
   51.2446    2.7153   19.1143 H   0  0  0  0  0  0  0  0  0  0  0  0
   49.8983    3.7511   18.5990 H   0  0  0  0  0  0  0  0  0  0  0  0
   50.8272    2.8761   17.4104 H   0  0  0  0  0  0  0  0  0  0  0  0
   53.8391    4.9311   17.6600 H   0  0  0  0  0  0  0  0  0  0  0  0
   53.0703    3.6229   16.7875 H   0  0  0  0  0  0  0  0  0  0  0  0
   53.5833    3.3533   18.4518 H   0  0  0  0  0  0  0  0  0  0  0  0
   47.6010    8.7230   19.7234 H   0  0  0  0  0  0  0  0  0  0  0  0
   49.7310    5.2692   19.7717 H   0  0  0  0  0  0  0  0  0  0  0  0
   50.5664    9.1741   20.1671 H   0  0  0  0  0  0  0  0  0  0  0  0
   48.9458    7.4348   21.4542 H   0  0  0  0  0  0  0  0  0  0  0  0
   47.4592    7.4453   16.8738 H   0  0  0  0  0  0  0  0  0  0  0  0
   51.5168    7.3887   16.4258 H   0  0  0  0  0  0  0  0  0  0  0  0
   51.0896    7.8326   21.9906 H   0  0  0  0  0  0  0  0  0  0  0  0
   47.4743    6.3389   19.3419 H   0  0  0  0  0  0  0  0  0  0  0  0
   50.8086   12.5926   17.7028 H   0  0  0  0  0  0  0  0  0  0  0  0
   50.4488   13.4087   16.1666 H   0  0  0  0  0  0  0  0  0  0  0  0
   51.1613    5.5264   23.2410 H   0  0  0  0  0  0  0  0  0  0  0  0
   49.5989    5.9688   22.6715 H   0  0  0  0  0  0  0  0  0  0  0  0
   50.2498    4.3958   22.2061 H   0  0  0  0  0  0  0  0  0  0  0  0
   52.8942    4.4333   22.5980 H   0  0  0  0  0  0  0  0  0  0  0  0
   53.8325    5.1310   17.0746 H   0  0  0  0  0  0  0  0  0  0  0  0
   54.7663    3.0790   21.8221 H   0  0  0  0  0  0  0  0  0  0  0  0
   55.4108    3.0835   19.4203 H   0  0  0  0  0  0  0  0  0  0  0  0
   49.6915   10.7377   23.2069 H   0  0  0  0  0  0  0  0  0  0  0  0
   50.4048   11.6546   21.8856 H   0  0  0  0  0  0  0  0  0  0  0  0
   50.9672   10.0151   22.2520 H   0  0  0  0  0  0  0  0  0  0  0  0
   47.1964   10.7071   20.4576 H   0  0  0  0  0  0  0  0  0  0  0  0
   47.4122   11.0938   22.1523 H   0  0  0  0  0  0  0  0  0  0  0  0
   48.2740   12.0292   20.9237 H   0  0  0  0  0  0  0  0  0  0  0  0
  2  5  2  0
  3  1  1  0
  4  7  1  0
  5  1  1  0
  6  2  1  0
  7  1  1  0
  8  4  2  0
  9  2  1  0
 10  6  1  0
  3 11  1  0
 12  3  1  0
 13  9  1  0
 14 13  2  0
 15  4  1  0
 16  8  1  0
 11 17  1  0
 18  7  2  0
 19  9  2  0
 20 13  1  0
  1 21  1  6
 22 15  2  0
 23  5  1  0
 10 24  1  1
 12 25  1  0
 26 15  1  0
 10 27  1  0
 28 14  1  0
 29 20  1  0
 30 31  1  0
 31 20  2  0
 32 17  1  0
 33 17  1  0
 12  6  1  0
 11  8  1  0
 10 14  1  0
 30 28  2  0
 35 38  2  0
 36 34  1  0
 37 40  1  0
 38 34  1  0
 39 35  1  0
 40 34  1  0
 41 37  2  0
 42 35  1  0
 43 39  1  0
 36 44  1  0
 45 36  1  0
 46 42  1  0
 47 46  2  0
 48 37  1  0
 49 41  1  0
 44 50  1  0
 51 40  2  0
 52 42  2  0
 53 46  1  0
 34 54  1  6
 55 48  2  0
 56 38  1  0
 43 57  1  1
 45 58  1  0
 59 48  1  0
 43 60  1  0
 61 47  1  0
 62 53  1  0
 63 64  1  0
 64 53  2  0
 65 50  1  0
 66 50  1  0
 45 39  1  0
 44 41  1  0
 43 47  1  0
 63 61  2  0
  3 68  1  6
  6 69  1  6
 11 70  1  1
 12 71  1  1
 21 72  1  0
 23 73  1  0
 24 74  1  0
 25 75  1  0
 26 76  1  0
 26 77  1  0
 27 78  1  0
 27 79  1  0
 27 80  1  0
 28 81  1  0
 29 82  1  0
 30 83  1  0
 31 84  1  0
 32 85  1  0
 32 86  1  0
 32 87  1  0
 33 88  1  0
 33 89  1  0
 33 90  1  0
 36 91  1  6
 39 92  1  6
 44 93  1  1
 45 94  1  1
 54 95  1  0
 56 96  1  0
 57 97  1  0
 58 98  1  0
 59 99  1  0
 59100  1  0
 60101  1  0
 60102  1  0
 60103  1  0
 61104  1  0
 62105  1  0
 63106  1  0
 64107  1  0
 65108  1  0
 65109  1  0
 65110  1  0
 66111  1  0
 66112  1  0
 66113  1  0
M  CHG  3  16  -1  49  -1  67   2
M  END
> <Uni-Dock RESULT> 
ENERGY=   -3.977  LOWER_BOUND=    2.846  UPPER_BOUND=    5.349
INTER + INTRA:          -3.977
INTER:                  -3.977
INTRA:                   0.000
UNBOUND:                 0.000

$$$$

     RDKit          3D

113118  0  0  0  0  0  0  0  0999 V2000
   51.2902    6.0046   17.5166 C   0  0  2  0  0  0  0  0  0  0  0  0
   50.1622    8.0007   18.5513 C   0  0  0  0  0  0  0  0  0  0  0  0
   52.5162    6.3191   18.3701 C   0  0  2  0  0  0  0  0  0  0  0  0
   51.5314    3.5156   17.9375 C   0  0  0  0  0  0  0  0  0  0  0  0
   50.2526    7.1133   17.5448 C   0  0  0  0  0  0  0  0  0  0  0  0
   51.0840    8.0380   19.7416 C   0  0  1  0  0  0  0  0  0  0  0  0
   50.6790    4.7240   18.0799 C   0  0  0  0  0  0  0  0  0  0  0  0
   52.8695    3.6467   18.1773 C   0  0  0  0  0  0  0  0  0  0  0  0
   49.1099    9.0440   18.5084 C   0  0  0  0  0  0  0  0  0  0  0  0
   50.2668    8.1260   21.0790 C   0  0  1  0  0  0  0  0  0  0  0  0
   53.4604    5.0595   18.5633 C   0  0  1  0  0  0  0  0  0  0  0  0
   52.1493    6.9053   19.7539 C   0  0  2  0  0  0  0  0  0  0  0  0
   48.7010    9.6855   19.7782 C   0  0  0  0  0  0  0  0  0  0  0  0
   49.2111    9.2349   21.0110 C   0  0  0  0  0  0  0  0  0  0  0  0
   50.8599    2.2218   17.5659 C   0  0  0  0  0  0  0  0  0  0  0  0
   53.7398    2.7218   18.2199 O   0  0  0  0  0  0  0  0  0  0  0  0
   54.8038    5.5097   18.0793 N   0  0  0  0  0  0  0  0  0  0  0  0
   49.6129    4.7038   18.7009 O   0  0  0  0  0  0  0  0  0  0  0  0
   48.5635    9.3612   17.4493 O   0  0  0  0  0  0  0  0  0  0  0  0
   47.7395   10.7163   19.7400 C   0  0  0  0  0  0  0  0  0  0  0  0
   51.6725    5.8645   16.1452 O   0  0  0  0  0  0  0  0  0  0  0  0
   49.6996    2.1644   17.1720 O   0  0  0  0  0  0  0  0  0  0  0  0
   49.4372    7.1463   16.4149 O   0  0  0  0  0  0  0  0  0  0  0  0
   49.5768    6.8971   21.3277 O   0  0  0  0  0  0  0  0  0  0  0  0
   53.3395    7.4740   20.3419 O   0  0  0  0  0  0  0  0  0  0  0  0
   51.6346    1.0920   17.6836 N   0  0  0  0  0  0  0  0  0  0  0  0
   51.2273    8.3158   22.2739 C   0  0  0  0  0  0  0  0  0  0  0  0
   48.6746    9.8096   22.1852 C   0  0  0  0  0  0  0  0  0  0  0  0
   47.1995   11.2098   18.5813 O   0  0  0  0  0  0  0  0  0  0  0  0
   47.7272   10.8360   22.1359 C   0  0  0  0  0  0  0  0  0  0  0  0
   47.2699   11.3000   20.9112 C   0  0  0  0  0  0  0  0  0  0  0  0
   54.9646    5.3367   16.6340 C   0  0  0  0  0  0  0  0  0  0  0  0
   55.9151    4.8672   18.7831 C   0  0  0  0  0  0  0  0  0  0  0  0
   51.5567    8.8625   18.2494 C   0  0  2  0  0  0  0  0  0  0  0  0
   52.8035    6.7508   18.6631 C   0  0  0  0  0  0  0  0  0  0  0  0
   50.2789    8.0473   18.1894 C   0  0  2  0  0  0  0  0  0  0  0  0
   50.5929   10.1119   20.2947 C   0  0  0  0  0  0  0  0  0  0  0  0
   52.7020    8.0878   18.8474 C   0  0  0  0  0  0  0  0  0  0  0  0
   51.8540    5.9574   17.7819 C   0  0  1  0  0  0  0  0  0  0  0  0
   51.2019   10.1874   18.9336 C   0  0  0  0  0  0  0  0  0  0  0  0
   49.9311    8.9709   20.6573 C   0  0  0  0  0  0  0  0  0  0  0  0
   53.9552    6.0210   19.2581 C   0  0  0  0  0  0  0  0  0  0  0  0
   51.6100    4.4998   18.2896 C   0  0  1  0  0  0  0  0  0  0  0  0
   49.6871    7.8144   19.6167 C   0  0  1  0  0  0  0  0  0  0  0  0
   50.5367    6.7277   17.4219 C   0  0  2  0  0  0  0  0  0  0  0  0
   54.0329    4.5520   19.1017 C   0  0  0  0  0  0  0  0  0  0  0  0
   52.9275    3.8102   18.6479 C   0  0  0  0  0  0  0  0  0  0  0  0
   50.8023   11.2882   21.2222 C   0  0  0  0  0  0  0  0  0  0  0  0
   49.4918    8.6470   21.8046 O   0  0  0  0  0  0  0  0  0  0  0  0
   48.2757    7.3651   19.3751 N   0  0  0  0  0  0  0  0  0  0  0  0
   51.4272   11.2469   18.3360 O   0  0  0  0  0  0  0  0  0  0  0  0
   54.8565    6.6146   19.8580 O   0  0  0  0  0  0  0  0  0  0  0  0
   55.2334    3.8948   19.4377 C   0  0  0  0  0  0  0  0  0  0  0  0
   51.9645    9.1706   16.8876 O   0  0  0  0  0  0  0  0  0  0  0  0
   51.1992   12.3920   20.8614 O   0  0  0  0  0  0  0  0  0  0  0  0
   53.6242    8.8439   19.5485 O   0  0  0  0  0  0  0  0  0  0  0  0
   50.8668    4.5110   19.5037 O   0  0  0  0  0  0  0  0  0  0  0  0
   50.6115    7.0327   16.0083 O   0  0  0  0  0  0  0  0  0  0  0  0
   50.5284   11.0692   22.5385 N   0  0  0  0  0  0  0  0  0  0  0  0
   50.8139    3.6849   17.2404 C   0  0  0  0  0  0  0  0  0  0  0  0
   53.0661    2.4018   18.5839 C   0  0  0  0  0  0  0  0  0  0  0  0
   56.3580    4.5479   19.8713 O   0  0  0  0  0  0  0  0  0  0  0  0
   54.2655    1.7629   18.9114 C   0  0  0  0  0  0  0  0  0  0  0  0
   55.3532    2.5120   19.3345 C   0  0  0  0  0  0  0  0  0  0  0  0
   47.7593    6.4843   20.4264 C   0  0  0  0  0  0  0  0  0  0  0  0
   47.3522    8.4972   19.2068 C   0  0  0  0  0  0  0  0  0  0  0  0
   51.2942    6.7542   19.1112 Ca  0  0  0  0  0 15  0  0  0  0  0  0
   53.0801    7.1056   17.8453 H   0  0  0  0  0  0  0  0  0  0  0  0
   51.6353    8.9890   19.6509 H   0  0  0  0  0  0  0  0  0  0  0  0
   53.5828    4.9625   19.6552 H   0  0  0  0  0  0  0  0  0  0  0  0
   51.8240    6.0916   20.4138 H   0  0  0  0  0  0  0  0  0  0  0  0
   50.8340    5.9000   15.6421 H   0  0  0  0  0  0  0  0  0  0  0  0
   48.8483    7.9306   16.4838 H   0  0  0  0  0  0  0  0  0  0  0  0
   48.8927    6.7568   20.6451 H   0  0  0  0  0  0  0  0  0  0  0  0
   54.1192    7.0635   19.9102 H   0  0  0  0  0  0  0  0  0  0  0  0
   51.8091    0.9280   18.6721 H   0  0  0  0  0  0  0  0  0  0  0  0
   52.6090    1.3816   17.4812 H   0  0  0  0  0  0  0  0  0  0  0  0
   50.7061    8.3146   23.2356 H   0  0  0  0  0  0  0  0  0  0  0  0
   51.9301    7.4794   22.3664 H   0  0  0  0  0  0  0  0  0  0  0  0
   51.7925    9.2491   22.1894 H   0  0  0  0  0  0  0  0  0  0  0  0
   48.9806    9.4608   23.1690 H   0  0  0  0  0  0  0  0  0  0  0  0
   47.5122   10.6455   17.8379 H   0  0  0  0  0  0  0  0  0  0  0  0
   47.3435   11.2645   23.0584 H   0  0  0  0  0  0  0  0  0  0  0  0
   46.5298   12.0940   20.8633 H   0  0  0  0  0  0  0  0  0  0  0  0
   54.9794    4.2915   16.3179 H   0  0  0  0  0  0  0  0  0  0  0  0
   54.1825    5.8592   16.0771 H   0  0  0  0  0  0  0  0  0  0  0  0
   55.9096    5.7875   16.3078 H   0  0  0  0  0  0  0  0  0  0  0  0
   55.8071    4.9714   19.8688 H   0  0  0  0  0  0  0  0  0  0  0  0
   56.8531    5.3797   18.5261 H   0  0  0  0  0  0  0  0  0  0  0  0
   56.0535    3.8093   18.5381 H   0  0  0  0  0  0  0  0  0  0  0  0
   49.5678    8.6328   17.5850 H   0  0  0  0  0  0  0  0  0  0  0  0
   52.4138    5.8380   16.8382 H   0  0  0  0  0  0  0  0  0  0  0  0
   50.2340    6.9508   20.0183 H   0  0  0  0  0  0  0  0  0  0  0  0
   49.6558    6.0927   17.5208 H   0  0  0  0  0  0  0  0  0  0  0  0
   52.2469   10.1107   16.9438 H   0  0  0  0  0  0  0  0  0  0  0  0
   54.2882    8.2339   19.9403 H   0  0  0  0  0  0  0  0  0  0  0  0
   49.9447    4.7588   19.3038 H   0  0  0  0  0  0  0  0  0  0  0  0
   51.1571    7.8474   15.9410 H   0  0  0  0  0  0  0  0  0  0  0  0
   50.0960   10.1615   22.7550 H   0  0  0  0  0  0  0  0  0  0  0  0
   50.5546   11.8171   23.2067 H   0  0  0  0  0  0  0  0  0  0  0  0
   50.4254    2.7571   17.6762 H   0  0  0  0  0  0  0  0  0  0  0  0
   49.9182    4.1992   16.8861 H   0  0  0  0  0  0  0  0  0  0  0  0
   51.4236    3.4392   16.3654 H   0  0  0  0  0  0  0  0  0  0  0  0
   52.2306    1.7704   18.2919 H   0  0  0  0  0  0  0  0  0  0  0  0
   56.1004    5.4805   20.0627 H   0  0  0  0  0  0  0  0  0  0  0  0
   54.3378    0.6800   18.8501 H   0  0  0  0  0  0  0  0  0  0  0  0
   56.2915    2.0265   19.5943 H   0  0  0  0  0  0  0  0  0  0  0  0
   46.8321    6.0162   20.0817 H   0  0  0  0  0  0  0  0  0  0  0  0
   47.5296    6.9956   21.3660 H   0  0  0  0  0  0  0  0  0  0  0  0
   48.4519    5.6669   20.6432 H   0  0  0  0  0  0  0  0  0  0  0  0
   47.7396    9.2657   18.5317 H   0  0  0  0  0  0  0  0  0  0  0  0
   46.4162    8.1411   18.7604 H   0  0  0  0  0  0  0  0  0  0  0  0
   47.1000    8.9848   20.1560 H   0  0  0  0  0  0  0  0  0  0  0  0
  2  5  2  0
  3  1  1  0
  4  7  1  0
  5  1  1  0
  6  2  1  0
  7  1  1  0
  8  4  2  0
  9  2  1  0
 10  6  1  0
  3 11  1  0
 12  3  1  0
 13  9  1  0
 14 13  2  0
 15  4  1  0
 16  8  1  0
 11 17  1  0
 18  7  2  0
 19  9  2  0
 20 13  1  0
  1 21  1  6
 22 15  2  0
 23  5  1  0
 10 24  1  1
 12 25  1  0
 26 15  1  0
 10 27  1  0
 28 14  1  0
 29 20  1  0
 30 31  1  0
 31 20  2  0
 32 17  1  0
 33 17  1  0
 12  6  1  0
 11  8  1  0
 10 14  1  0
 30 28  2  0
 35 38  2  0
 36 34  1  0
 37 40  1  0
 38 34  1  0
 39 35  1  0
 40 34  1  0
 41 37  2  0
 42 35  1  0
 43 39  1  0
 36 44  1  0
 45 36  1  0
 46 42  1  0
 47 46  2  0
 48 37  1  0
 49 41  1  0
 44 50  1  0
 51 40  2  0
 52 42  2  0
 53 46  1  0
 34 54  1  6
 55 48  2  0
 56 38  1  0
 43 57  1  1
 45 58  1  0
 59 48  1  0
 43 60  1  0
 61 47  1  0
 62 53  1  0
 63 64  1  0
 64 53  2  0
 65 50  1  0
 66 50  1  0
 45 39  1  0
 44 41  1  0
 43 47  1  0
 63 61  2  0
  3 68  1  6
  6 69  1  6
 11 70  1  1
 12 71  1  1
 21 72  1  0
 23 73  1  0
 24 74  1  0
 25 75  1  0
 26 76  1  0
 26 77  1  0
 27 78  1  0
 27 79  1  0
 27 80  1  0
 28 81  1  0
 29 82  1  0
 30 83  1  0
 31 84  1  0
 32 85  1  0
 32 86  1  0
 32 87  1  0
 33 88  1  0
 33 89  1  0
 33 90  1  0
 36 91  1  6
 39 92  1  6
 44 93  1  1
 45 94  1  1
 54 95  1  0
 56 96  1  0
 57 97  1  0
 58 98  1  0
 59 99  1  0
 59100  1  0
 60101  1  0
 60102  1  0
 60103  1  0
 61104  1  0
 62105  1  0
 63106  1  0
 64107  1  0
 65108  1  0
 65109  1  0
 65110  1  0
 66111  1  0
 66112  1  0
 66113  1  0
M  CHG  3  16  -1  49  -1  67   2
M  END
> <Uni-Dock RESULT> 
ENERGY=   -3.883  LOWER_BOUND=    2.248  UPPER_BOUND=    5.290
INTER + INTRA:          -3.883
INTER:                  -3.883
INTRA:                   0.000
UNBOUND:                 0.000

$$$$
