
     RDKit          3D

113118  0  0  0  0  0  0  0  0999 V2000
   48.4211    9.4224   13.6563 C   0  0  2  0  0  0  0  0  0  0  0  0
   46.6412   10.1200   12.0127 C   0  0  0  0  0  0  0  0  0  0  0  0
   49.2337   10.6650   13.3104 C   0  0  2  0  0  0  0  0  0  0  0  0
   48.9087   10.0568   16.1614 C   0  0  0  0  0  0  0  0  0  0  0  0
   47.0166    9.3649   13.0633 C   0  0  0  0  0  0  0  0  0  0  0  0
   47.5436   11.1138   11.3165 C   0  0  1  0  0  0  0  0  0  0  0  0
   48.3776    9.1021   15.1542 C   0  0  0  0  0  0  0  0  0  0  0  0
   49.2302   11.3290   15.7964 C   0  0  0  0  0  0  0  0  0  0  0  0
   45.2811    9.9995   11.3976 C   0  0  0  0  0  0  0  0  0  0  0  0
   46.8319   12.5061   11.2922 C   0  0  1  0  0  0  0  0  0  0  0  0
   48.9780   11.8170   14.3169 C   0  0  1  0  0  0  0  0  0  0  0  0
   49.0118   11.0272   11.8188 C   0  0  2  0  0  0  0  0  0  0  0  0
   44.7749   11.1613   10.6090 C   0  0  0  0  0  0  0  0  0  0  0  0
   45.5111   12.3641   10.5252 C   0  0  0  0  0  0  0  0  0  0  0  0
   49.0786    9.5752   17.5929 C   0  0  0  0  0  0  0  0  0  0  0  0
   49.7012   12.2429   16.5306 O   0  0  0  0  0  0  0  0  0  0  0  0
   49.6734   13.0269   13.7692 N   0  0  0  0  0  0  0  0  0  0  0  0
   47.9637    7.9821   15.5075 O   0  0  0  0  0  0  0  0  0  0  0  0
   44.5890    8.9826   11.4479 O   0  0  0  0  0  0  0  0  0  0  0  0
   43.5443   11.0433    9.9291 C   0  0  0  0  0  0  0  0  0  0  0  0
   49.0945    8.2825   13.0297 O   0  0  0  0  0  0  0  0  0  0  0  0
   48.9993   10.2401   18.6239 O   0  0  0  0  0  0  0  0  0  0  0  0
   46.1419    8.4235   13.5974 O   0  0  0  0  0  0  0  0  0  0  0  0
   46.4563   12.8923   12.6116 O   0  0  0  0  0  0  0  0  0  0  0  0
   49.6673    9.9962   11.0174 O   0  0  0  0  0  0  0  0  0  0  0  0
   49.2846    8.2212   17.7327 N   0  0  0  0  0  0  0  0  0  0  0  0
   47.7441   13.6038   10.7219 C   0  0  0  0  0  0  0  0  0  0  0  0
   44.9594   13.4245    9.7793 C   0  0  0  0  0  0  0  0  0  0  0  0
   42.7735    9.9053    9.9637 O   0  0  0  0  0  0  0  0  0  0  0  0
   43.7411   13.2886    9.1090 C   0  0  0  0  0  0  0  0  0  0  0  0
   43.0352   12.0970    9.1807 C   0  0  0  0  0  0  0  0  0  0  0  0
   49.1098   14.2769   14.2894 C   0  0  0  0  0  0  0  0  0  0  0  0
   51.1270   13.0287   13.9376 C   0  0  0  0  0  0  0  0  0  0  0  0
   48.4561    9.8992   13.5266 C   0  0  2  0  0  0  0  0  0  0  0  0
   46.4130   10.5324   12.2014 C   0  0  0  0  0  0  0  0  0  0  0  0
   48.9086   11.4056   13.5119 C   0  0  2  0  0  0  0  0  0  0  0  0
   50.1556    9.4818   15.4256 C   0  0  0  0  0  0  0  0  0  0  0  0
   46.9919    9.6976   13.0944 C   0  0  0  0  0  0  0  0  0  0  0  0
   47.2400   11.6445   11.6119 C   0  0  1  0  0  0  0  0  0  0  0  0
   48.7934    9.1992   14.8847 C   0  0  0  0  0  0  0  0  0  0  0  0
   50.5322   10.7750   15.2188 C   0  0  0  0  0  0  0  0  0  0  0  0
   44.9929   10.3926   11.7952 C   0  0  0  0  0  0  0  0  0  0  0  0
   46.5377   12.6114   10.6076 C   0  0  1  0  0  0  0  0  0  0  0  0
   49.3489   11.8038   14.9583 C   0  0  1  0  0  0  0  0  0  0  0  0
   47.8591   12.3257   12.8622 C   0  0  2  0  0  0  0  0  0  0  0  0
   44.5899   10.9649   10.4993 C   0  0  0  0  0  0  0  0  0  0  0  0
   45.3299   11.9995    9.9071 C   0  0  0  0  0  0  0  0  0  0  0  0
   51.0494    8.3531   15.8631 C   0  0  0  0  0  0  0  0  0  0  0  0
   51.6894   11.2539   15.0939 O   0  0  0  0  0  0  0  0  0  0  0  0
   49.5009   13.2853   15.2123 N   0  0  0  0  0  0  0  0  0  0  0  0
   48.0563    8.3623   15.4200 O   0  0  0  0  0  0  0  0  0  0  0  0
   44.1263    9.8572   12.4854 O   0  0  0  0  0  0  0  0  0  0  0  0
   43.4366   10.4560    9.8709 C   0  0  0  0  0  0  0  0  0  0  0  0
   49.2175    9.1967   12.5218 O   0  0  0  0  0  0  0  0  0  0  0  0
   52.1221    8.4542   16.4501 O   0  0  0  0  0  0  0  0  0  0  0  0
   46.2893    8.6060   13.5892 O   0  0  0  0  0  0  0  0  0  0  0  0
   46.0344   13.7771   11.2774 O   0  0  0  0  0  0  0  0  0  0  0  0
   48.4278   13.5969   12.5266 O   0  0  0  0  0  0  0  0  0  0  0  0
   50.5566    7.0891   15.6460 N   0  0  0  0  0  0  0  0  0  0  0  0
   47.5967   13.1028    9.5826 C   0  0  0  0  0  0  0  0  0  0  0  0
   44.8539   12.5061    8.6728 C   0  0  0  0  0  0  0  0  0  0  0  0
   42.6555    9.4661   10.4180 O   0  0  0  0  0  0  0  0  0  0  0  0
   43.7144   11.9873    8.0496 C   0  0  0  0  0  0  0  0  0  0  0  0
   43.0053   10.9527    8.6489 C   0  0  0  0  0  0  0  0  0  0  0  0
   50.4755   13.5638   16.2987 C   0  0  0  0  0  0  0  0  0  0  0  0
   48.2326   13.8852   15.6868 C   0  0  0  0  0  0  0  0  0  0  0  0
   47.6333   11.3315   12.8583 Ca  0  0  0  0  0 15  0  0  0  0  0  0
   50.2926   10.3732   13.4030 H   0  0  0  0  0  0  0  0  0  0  0  0
   47.5957   10.7864   10.2658 H   0  0  0  0  0  0  0  0  0  0  0  0
   47.9049   12.0326   14.2836 H   0  0  0  0  0  0  0  0  0  0  0  0
   49.5806   11.9169   11.5524 H   0  0  0  0  0  0  0  0  0  0  0  0
   49.8928    8.1046   13.5672 H   0  0  0  0  0  0  0  0  0  0  0  0
   46.6267    7.8612   14.2394 H   0  0  0  0  0  0  0  0  0  0  0  0
   46.0304   13.7637   12.5747 H   0  0  0  0  0  0  0  0  0  0  0  0
   49.3902    9.1294   11.3831 H   0  0  0  0  0  0  0  0  0  0  0  0
   49.2180    7.8945   18.6819 H   0  0  0  0  0  0  0  0  0  0  0  0
   48.9521    7.6040   16.9983 H   0  0  0  0  0  0  0  0  0  0  0  0
   48.6541   13.7289   11.3120 H   0  0  0  0  0  0  0  0  0  0  0  0
   48.0248   13.3951    9.6840 H   0  0  0  0  0  0  0  0  0  0  0  0
   47.2731   14.5947   10.7653 H   0  0  0  0  0  0  0  0  0  0  0  0
   45.4670   14.3801    9.6976 H   0  0  0  0  0  0  0  0  0  0  0  0
   43.2162    9.2720   10.5729 H   0  0  0  0  0  0  0  0  0  0  0  0
   43.3432   14.1145    8.5283 H   0  0  0  0  0  0  0  0  0  0  0  0
   42.0827   11.9834    8.6683 H   0  0  0  0  0  0  0  0  0  0  0  0
   49.2880   14.4457   15.3533 H   0  0  0  0  0  0  0  0  0  0  0  0
   49.5505   15.1251   13.7527 H   0  0  0  0  0  0  0  0  0  0  0  0
   48.0334   14.3332   14.1089 H   0  0  0  0  0  0  0  0  0  0  0  0
   51.5575   13.7820   13.2663 H   0  0  0  0  0  0  0  0  0  0  0  0
   51.4616   13.2839   14.9498 H   0  0  0  0  0  0  0  0  0  0  0  0
   51.5814   12.0770   13.6566 H   0  0  0  0  0  0  0  0  0  0  0  0
   49.7970   11.5100   12.8650 H   0  0  0  0  0  0  0  0  0  0  0  0
   48.0451   11.1568   11.0381 H   0  0  0  0  0  0  0  0  0  0  0  0
   48.5514   11.4974   15.6534 H   0  0  0  0  0  0  0  0  0  0  0  0
   47.0475   12.5210   13.5715 H   0  0  0  0  0  0  0  0  0  0  0  0
   50.1621    9.3920   12.6939 H   0  0  0  0  0  0  0  0  0  0  0  0
   46.8054    8.1866   14.3113 H   0  0  0  0  0  0  0  0  0  0  0  0
   46.7982   14.1513   11.7653 H   0  0  0  0  0  0  0  0  0  0  0  0
   49.1156   13.7686   13.2172 H   0  0  0  0  0  0  0  0  0  0  0  0
   49.5685    6.9454   15.4681 H   0  0  0  0  0  0  0  0  0  0  0  0
   51.0735    6.3508   16.0973 H   0  0  0  0  0  0  0  0  0  0  0  0
   48.5147   13.4403   10.0718 H   0  0  0  0  0  0  0  0  0  0  0  0
   47.2456   13.9692    9.0072 H   0  0  0  0  0  0  0  0  0  0  0  0
   47.8680   12.3058    8.8786 H   0  0  0  0  0  0  0  0  0  0  0  0
   45.3530   13.3449    8.1883 H   0  0  0  0  0  0  0  0  0  0  0  0
   42.9662    9.3334   11.3422 H   0  0  0  0  0  0  0  0  0  0  0  0
   43.3700   12.4064    7.1046 H   0  0  0  0  0  0  0  0  0  0  0  0
   42.1116   10.5491    8.1844 H   0  0  0  0  0  0  0  0  0  0  0  0
   50.4168   14.6138   16.6230 H   0  0  0  0  0  0  0  0  0  0  0  0
   50.3014   12.9278   17.1773 H   0  0  0  0  0  0  0  0  0  0  0  0
   51.5112   13.4719   15.9594 H   0  0  0  0  0  0  0  0  0  0  0  0
   48.3740   14.9392   15.9746 H   0  0  0  0  0  0  0  0  0  0  0  0
   47.8016   13.3645   16.5543 H   0  0  0  0  0  0  0  0  0  0  0  0
   47.4747   13.9334   14.9019 H   0  0  0  0  0  0  0  0  0  0  0  0
  2  5  2  0
  3  1  1  0
  4  7  1  0
  5  1  1  0
  6  2  1  0
  7  1  1  0
  8  4  2  0
  9  2  1  0
 10  6  1  0
  3 11  1  0
 12  3  1  0
 13  9  1  0
 14 13  2  0
 15  4  1  0
 16  8  1  0
 11 17  1  0
 18  7  2  0
 19  9  2  0
 20 13  1  0
  1 21  1  6
 22 15  2  0
 23  5  1  0
 10 24  1  1
 12 25  1  0
 26 15  1  0
 10 27  1  0
 28 14  1  0
 29 20  1  0
 30 31  1  0
 31 20  2  0
 32 17  1  0
 33 17  1  0
 12  6  1  0
 11  8  1  0
 10 14  1  0
 30 28  2  0
 35 38  2  0
 36 34  1  0
 37 40  1  0
 38 34  1  0
 39 35  1  0
 40 34  1  0
 41 37  2  0
 42 35  1  0
 43 39  1  0
 36 44  1  0
 45 36  1  0
 46 42  1  0
 47 46  2  0
 48 37  1  0
 49 41  1  0
 44 50  1  0
 51 40  2  0
 52 42  2  0
 53 46  1  0
 34 54  1  6
 55 48  2  0
 56 38  1  0
 43 57  1  1
 45 58  1  0
 59 48  1  0
 43 60  1  0
 61 47  1  0
 62 53  1  0
 63 64  1  0
 64 53  2  0
 65 50  1  0
 66 50  1  0
 45 39  1  0
 44 41  1  0
 43 47  1  0
 63 61  2  0
  3 68  1  6
  6 69  1  6
 11 70  1  1
 12 71  1  6
 21 72  1  0
 23 73  1  0
 24 74  1  0
 25 75  1  0
 26 76  1  0
 26 77  1  0
 27 78  1  0
 27 79  1  0
 27 80  1  0
 28 81  1  0
 29 82  1  0
 30 83  1  0
 31 84  1  0
 32 85  1  0
 32 86  1  0
 32 87  1  0
 33 88  1  0
 33 89  1  0
 33 90  1  0
 36 91  1  6
 39 92  1  6
 44 93  1  1
 45 94  1  1
 54 95  1  0
 56 96  1  0
 57 97  1  0
 58 98  1  0
 59 99  1  0
 59100  1  0
 60101  1  0
 60102  1  0
 60103  1  0
 61104  1  0
 62105  1  0
 63106  1  0
 64107  1  0
 65108  1  0
 65109  1  0
 65110  1  0
 66111  1  0
 66112  1  0
 66113  1  0
M  CHG  3  16  -1  49  -1  67   2
M  END
> <Uni-Dock RESULT> 
ENERGY=   -6.234  LOWER_BOUND=    0.000  UPPER_BOUND=    0.000
INTER + INTRA:          -6.234
INTER:                  -6.234
INTRA:                   0.000
UNBOUND:                 0.000

$$$$

     RDKit          3D

113118  0  0  0  0  0  0  0  0999 V2000
   49.6228   12.1041   14.4421 C   0  0  2  0  0  0  0  0  0  0  0  0
   48.9064   11.9320   16.8533 C   0  0  0  0  0  0  0  0  0  0  0  0
   49.9425   10.6137   14.4262 C   0  0  2  0  0  0  0  0  0  0  0  0
   48.3950   11.6519   12.1610 C   0  0  0  0  0  0  0  0  0  0  0  0
   48.9110   12.6141   15.6915 C   0  0  0  0  0  0  0  0  0  0  0  0
   49.5776   10.5917   17.0530 C   0  0  1  0  0  0  0  0  0  0  0  0
   48.9055   12.6021   13.1830 C   0  0  0  0  0  0  0  0  0  0  0  0
   48.3453   10.3178   12.4305 C   0  0  0  0  0  0  0  0  0  0  0  0
   48.2640   12.4801   18.0900 C   0  0  0  0  0  0  0  0  0  0  0  0
   48.5233    9.5813   17.6124 C   0  0  1  0  0  0  0  0  0  0  0  0
   48.7666    9.7801   13.8533 C   0  0  1  0  0  0  0  0  0  0  0  0
   50.4413   10.1785   15.8287 C   0  0  2  0  0  0  0  0  0  0  0  0
   47.8642   11.5074   19.1492 C   0  0  0  0  0  0  0  0  0  0  0  0
   48.0006   10.1153   18.9519 C   0  0  0  0  0  0  0  0  0  0  0  0
   47.9353   12.2087   10.8236 C   0  0  0  0  0  0  0  0  0  0  0  0
   47.9526    9.3934   11.6640 O   0  0  0  0  0  0  0  0  0  0  0  0
   49.1198    8.3387   14.0654 N   0  0  0  0  0  0  0  0  0  0  0  0
   48.8338   13.8302   12.9900 O   0  0  0  0  0  0  0  0  0  0  0  0
   48.1075   13.6810   18.3117 O   0  0  0  0  0  0  0  0  0  0  0  0
   47.3529   11.9962   20.3699 C   0  0  0  0  0  0  0  0  0  0  0  0
   50.9024   12.8161   14.4735 O   0  0  0  0  0  0  0  0  0  0  0  0
   47.0653   11.7582   10.0810 O   0  0  0  0  0  0  0  0  0  0  0  0
   48.3279   13.8755   15.6176 O   0  0  0  0  0  0  0  0  0  0  0  0
   47.3824    9.5346   16.7596 O   0  0  0  0  0  0  0  0  0  0  0  0
   51.7601   10.7754   16.0272 O   0  0  0  0  0  0  0  0  0  0  0  0
   48.5335   13.3899   10.4465 N   0  0  0  0  0  0  0  0  0  0  0  0
   49.0943    8.1579   17.7133 C   0  0  0  0  0  0  0  0  0  0  0  0
   47.5824    9.2581   19.9890 C   0  0  0  0  0  0  0  0  0  0  0  0
   47.1922   13.3359   20.6341 O   0  0  0  0  0  0  0  0  0  0  0  0
   47.0820    9.7598   21.1932 C   0  0  0  0  0  0  0  0  0  0  0  0
   46.9706   11.1288   21.3853 C   0  0  0  0  0  0  0  0  0  0  0  0
   47.9377    7.4709   14.0753 C   0  0  0  0  0  0  0  0  0  0  0  0
   50.1186    7.8080   13.1369 C   0  0  0  0  0  0  0  0  0  0  0  0
   49.5362   11.6374   14.5837 C   0  0  2  0  0  0  0  0  0  0  0  0
   48.4755   11.6638   16.8652 C   0  0  0  0  0  0  0  0  0  0  0  0
   49.3063   10.0828   14.5161 C   0  0  2  0  0  0  0  0  0  0  0  0
   49.9472   11.6150   12.0343 C   0  0  0  0  0  0  0  0  0  0  0  0
   48.7483   12.3223   15.7156 C   0  0  0  0  0  0  0  0  0  0  0  0
   48.9873   10.2570   17.0300 C   0  0  1  0  0  0  0  0  0  0  0  0
   49.3254   12.3219   13.1925 C   0  0  0  0  0  0  0  0  0  0  0  0
   49.8456   10.2605   12.1445 C   0  0  0  0  0  0  0  0  0  0  0  0
   47.6829   12.2786   17.9584 C   0  0  0  0  0  0  0  0  0  0  0  0
   48.6313    9.5102   18.3537 C   0  0  1  0  0  0  0  0  0  0  0  0
   48.7042    9.7323   13.1165 C   0  0  1  0  0  0  0  0  0  0  0  0
   48.5166    9.5548   15.7277 C   0  0  2  0  0  0  0  0  0  0  0  0
   47.8599   11.7438   19.3193 C   0  0  0  0  0  0  0  0  0  0  0  0
   48.3376   10.4407   19.5249 C   0  0  0  0  0  0  0  0  0  0  0  0
   50.8144   12.3667   11.0610 C   0  0  0  0  0  0  0  0  0  0  0  0
   50.5973    9.3677   11.6736 O   0  0  0  0  0  0  0  0  0  0  0  0
   48.1136    8.3480   12.9854 N   0  0  0  0  0  0  0  0  0  0  0  0
   48.8047   13.4355   13.0545 O   0  0  0  0  0  0  0  0  0  0  0  0
   46.8660   13.1841   17.7947 O   0  0  0  0  0  0  0  0  0  0  0  0
   47.5286   12.5683   20.4122 C   0  0  0  0  0  0  0  0  0  0  0  0
   50.9181   11.8675   14.9303 O   0  0  0  0  0  0  0  0  0  0  0  0
   51.2637   11.9416   10.0014 O   0  0  0  0  0  0  0  0  0  0  0  0
   48.3729   13.6513   15.5645 O   0  0  0  0  0  0  0  0  0  0  0  0
   47.4461    8.7156   18.1970 O   0  0  0  0  0  0  0  0  0  0  0  0
   48.6370    8.1317   15.8386 O   0  0  0  0  0  0  0  0  0  0  0  0
   51.0461   13.6851   11.3701 N   0  0  0  0  0  0  0  0  0  0  0  0
   49.7898    8.5302   18.6871 C   0  0  0  0  0  0  0  0  0  0  0  0
   48.4517   10.0015   20.8668 C   0  0  0  0  0  0  0  0  0  0  0  0
   47.0272   13.8403   20.2713 O   0  0  0  0  0  0  0  0  0  0  0  0
   48.1318   10.8305   21.9469 C   0  0  0  0  0  0  0  0  0  0  0  0
   47.6734   12.1227   21.7186 C   0  0  0  0  0  0  0  0  0  0  0  0
   48.1521    7.8598   11.5826 C   0  0  0  0  0  0  0  0  0  0  0  0
   46.6765    8.3373   13.3441 C   0  0  0  0  0  0  0  0  0  0  0  0
   48.7303   10.5515   15.7441 Ca  0  0  0  0  0 15  0  0  0  0  0  0
   50.7986   10.4921   13.7427 H   0  0  0  0  0  0  0  0  0  0  0  0
   50.3086   10.7406   17.8638 H   0  0  0  0  0  0  0  0  0  0  0  0
   47.8972    9.9844   14.4867 H   0  0  0  0  0  0  0  0  0  0  0  0
   50.6706    9.1139   15.8400 H   0  0  0  0  0  0  0  0  0  0  0  0
   51.2796   12.7445   13.5732 H   0  0  0  0  0  0  0  0  0  0  0  0
   48.5609   14.2882   14.7581 H   0  0  0  0  0  0  0  0  0  0  0  0
   46.7489    8.8921   17.1172 H   0  0  0  0  0  0  0  0  0  0  0  0
   51.6872   11.7211   15.7777 H   0  0  0  0  0  0  0  0  0  0  0  0
   48.0970   13.8338    9.6561 H   0  0  0  0  0  0  0  0  0  0  0  0
   48.9165   13.9897   11.1706 H   0  0  0  0  0  0  0  0  0  0  0  0
   49.4108    7.7727   16.7420 H   0  0  0  0  0  0  0  0  0  0  0  0
   49.9443    8.1129   18.4026 H   0  0  0  0  0  0  0  0  0  0  0  0
   48.3379    7.4328   18.0417 H   0  0  0  0  0  0  0  0  0  0  0  0
   47.6410    8.1793   19.8869 H   0  0  0  0  0  0  0  0  0  0  0  0
   47.4386   13.8255   19.8168 H   0  0  0  0  0  0  0  0  0  0  0  0
   46.7801    9.0802   21.9836 H   0  0  0  0  0  0  0  0  0  0  0  0
   46.5760   11.5292   22.3162 H   0  0  0  0  0  0  0  0  0  0  0  0
   47.4331    7.3820   13.1110 H   0  0  0  0  0  0  0  0  0  0  0  0
   48.2324    6.4590   14.3766 H   0  0  0  0  0  0  0  0  0  0  0  0
   47.2059    7.8040   14.8156 H   0  0  0  0  0  0  0  0  0  0  0  0
   50.5147    6.8701   13.5454 H   0  0  0  0  0  0  0  0  0  0  0  0
   49.7261    7.5742   12.1404 H   0  0  0  0  0  0  0  0  0  0  0  0
   50.9756    8.4736   13.0198 H   0  0  0  0  0  0  0  0  0  0  0  0
   50.2813    9.5697   14.5846 H   0  0  0  0  0  0  0  0  0  0  0  0
   50.0873   10.3277   17.0176 H   0  0  0  0  0  0  0  0  0  0  0  0
   47.8487   10.4023   12.9363 H   0  0  0  0  0  0  0  0  0  0  0  0
   47.4507    9.7718   15.5986 H   0  0  0  0  0  0  0  0  0  0  0  0
   51.4590   11.3525   14.2961 H   0  0  0  0  0  0  0  0  0  0  0  0
   48.5315   13.9311   14.6371 H   0  0  0  0  0  0  0  0  0  0  0  0
   47.6125    8.1445   17.4175 H   0  0  0  0  0  0  0  0  0  0  0  0
   48.7147    7.8004   14.9092 H   0  0  0  0  0  0  0  0  0  0  0  0
   50.4560   14.1686   12.0384 H   0  0  0  0  0  0  0  0  0  0  0  0
   51.4735   14.2232   10.6327 H   0  0  0  0  0  0  0  0  0  0  0  0
   50.0853    7.9346   17.8189 H   0  0  0  0  0  0  0  0  0  0  0  0
   49.5047    7.7965   19.4521 H   0  0  0  0  0  0  0  0  0  0  0  0
   50.6783    9.0702   19.0386 H   0  0  0  0  0  0  0  0  0  0  0  0
   48.7658    8.9827   21.0920 H   0  0  0  0  0  0  0  0  0  0  0  0
   46.8129   13.9603   19.3185 H   0  0  0  0  0  0  0  0  0  0  0  0
   48.2223   10.4580   22.9669 H   0  0  0  0  0  0  0  0  0  0  0  0
   47.4081   12.7729   22.5458 H   0  0  0  0  0  0  0  0  0  0  0  0
   47.5309    6.9599   11.4597 H   0  0  0  0  0  0  0  0  0  0  0  0
   47.7917    8.6192   10.8753 H   0  0  0  0  0  0  0  0  0  0  0  0
   49.1471    7.5096   11.2933 H   0  0  0  0  0  0  0  0  0  0  0  0
   46.2235    7.3533   13.1436 H   0  0  0  0  0  0  0  0  0  0  0  0
   46.0852    9.0868   12.7981 H   0  0  0  0  0  0  0  0  0  0  0  0
   46.5127    8.4816   14.4142 H   0  0  0  0  0  0  0  0  0  0  0  0
  2  5  2  0
  3  1  1  0
  4  7  1  0
  5  1  1  0
  6  2  1  0
  7  1  1  0
  8  4  2  0
  9  2  1  0
 10  6  1  0
  3 11  1  0
 12  3  1  0
 13  9  1  0
 14 13  2  0
 15  4  1  0
 16  8  1  0
 11 17  1  0
 18  7  2  0
 19  9  2  0
 20 13  1  0
  1 21  1  6
 22 15  2  0
 23  5  1  0
 10 24  1  1
 12 25  1  0
 26 15  1  0
 10 27  1  0
 28 14  1  0
 29 20  1  0
 30 31  1  0
 31 20  2  0
 32 17  1  0
 33 17  1  0
 12  6  1  0
 11  8  1  0
 10 14  1  0
 30 28  2  0
 35 38  2  0
 36 34  1  0
 37 40  1  0
 38 34  1  0
 39 35  1  0
 40 34  1  0
 41 37  2  0
 42 35  1  0
 43 39  1  0
 36 44  1  0
 45 36  1  0
 46 42  1  0
 47 46  2  0
 48 37  1  0
 49 41  1  0
 44 50  1  0
 51 40  2  0
 52 42  2  0
 53 46  1  0
 34 54  1  6
 55 48  2  0
 56 38  1  0
 43 57  1  1
 45 58  1  0
 59 48  1  0
 43 60  1  0
 61 47  1  0
 62 53  1  0
 63 64  1  0
 64 53  2  0
 65 50  1  0
 66 50  1  0
 45 39  1  0
 44 41  1  0
 43 47  1  0
 63 61  2  0
  3 68  1  6
  6 69  1  6
 11 70  1  1
 12 71  1  6
 21 72  1  0
 23 73  1  0
 24 74  1  0
 25 75  1  0
 26 76  1  0
 26 77  1  0
 27 78  1  0
 27 79  1  0
 27 80  1  0
 28 81  1  0
 29 82  1  0
 30 83  1  0
 31 84  1  0
 32 85  1  0
 32 86  1  0
 32 87  1  0
 33 88  1  0
 33 89  1  0
 33 90  1  0
 36 91  1  6
 39 92  1  6
 44 93  1  1
 45 94  1  1
 54 95  1  0
 56 96  1  0
 57 97  1  0
 58 98  1  0
 59 99  1  0
 59100  1  0
 60101  1  0
 60102  1  0
 60103  1  0
 61104  1  0
 62105  1  0
 63106  1  0
 64107  1  0
 65108  1  0
 65109  1  0
 65110  1  0
 66111  1  0
 66112  1  0
 66113  1  0
M  CHG  3  16  -1  49  -1  67   2
M  END
> <Uni-Dock RESULT> 
ENERGY=   -6.212  LOWER_BOUND=    2.628  UPPER_BOUND=    7.562
INTER + INTRA:          -6.212
INTER:                  -6.212
INTRA:                   0.000
UNBOUND:                 0.000

$$$$

     RDKit          3D

113118  0  0  0  0  0  0  0  0999 V2000
   48.1220   11.8426   18.1819 C   0  0  2  0  0  0  0  0  0  0  0  0
   47.9133    9.7393   19.5562 C   0  0  0  0  0  0  0  0  0  0  0  0
   48.5973   12.6052   19.4133 C   0  0  2  0  0  0  0  0  0  0  0  0
   50.1375   12.9960   16.9478 C   0  0  0  0  0  0  0  0  0  0  0  0
   47.9941   10.3315   18.3489 C   0  0  0  0  0  0  0  0  0  0  0  0
   47.9581   10.4842   20.8714 C   0  0  1  0  0  0  0  0  0  0  0  0
   48.9027   12.1705   16.9048 C   0  0  0  0  0  0  0  0  0  0  0  0
   50.7291   13.2818   18.1408 C   0  0  0  0  0  0  0  0  0  0  0  0
   47.7160    8.2619   19.7011 C   0  0  0  0  0  0  0  0  0  0  0  0
   49.0894    9.8684   21.7583 C   0  0  1  0  0  0  0  0  0  0  0  0
   50.1450   12.6826   19.4790 C   0  0  1  0  0  0  0  0  0  0  0  0
   47.9089   12.0253   20.6763 C   0  0  2  0  0  0  0  0  0  0  0  0
   48.1282    7.6337   20.9909 C   0  0  0  0  0  0  0  0  0  0  0  0
   48.7668    8.3884   22.0000 C   0  0  0  0  0  0  0  0  0  0  0  0
   50.7122   13.5036   15.6355 C   0  0  0  0  0  0  0  0  0  0  0  0
   51.7659   13.9764   18.3372 O   0  0  0  0  0  0  0  0  0  0  0  0
   50.4882   13.2783   20.8113 N   0  0  0  0  0  0  0  0  0  0  0  0
   48.4320   11.8010   15.8128 O   0  0  0  0  0  0  0  0  0  0  0  0
   47.1776    7.5514   18.8520 O   0  0  0  0  0  0  0  0  0  0  0  0
   47.8611    6.2645   21.2018 C   0  0  0  0  0  0  0  0  0  0  0  0
   46.7446   12.2669   17.9208 O   0  0  0  0  0  0  0  0  0  0  0  0
   51.8907   13.7306   15.3690 O   0  0  0  0  0  0  0  0  0  0  0  0
   47.8723    9.5742   17.1877 O   0  0  0  0  0  0  0  0  0  0  0  0
   50.3270    9.8690   21.0515 O   0  0  0  0  0  0  0  0  0  0  0  0
   46.4964   12.3933   20.6109 O   0  0  0  0  0  0  0  0  0  0  0  0
   49.7963   13.6638   14.6203 N   0  0  0  0  0  0  0  0  0  0  0  0
   49.2900   10.6611   23.0597 C   0  0  0  0  0  0  0  0  0  0  0  0
   49.1454    7.7219   23.1822 C   0  0  0  0  0  0  0  0  0  0  0  0
   47.2434    5.4674   20.2673 O   0  0  0  0  0  0  0  0  0  0  0  0
   48.8692    6.3660   23.3758 C   0  0  0  0  0  0  0  0  0  0  0  0
   48.2238    5.6380   22.3873 C   0  0  0  0  0  0  0  0  0  0  0  0
   51.8488   12.9384   21.2399 C   0  0  0  0  0  0  0  0  0  0  0  0
   50.2824   14.7238   20.9091 C   0  0  0  0  0  0  0  0  0  0  0  0
   48.3672   11.8691   18.6115 C   0  0  2  0  0  0  0  0  0  0  0  0
   48.3829    9.5908   19.6795 C   0  0  0  0  0  0  0  0  0  0  0  0
   49.3303   12.3848   19.7431 C   0  0  2  0  0  0  0  0  0  0  0  0
   48.9634   13.9764   17.2431 C   0  0  0  0  0  0  0  0  0  0  0  0
   48.2570   10.3341   18.5564 C   0  0  0  0  0  0  0  0  0  0  0  0
   48.5996   10.2972   20.9919 C   0  0  1  0  0  0  0  0  0  0  0  0
   48.7007   12.5072   17.2223 C   0  0  0  0  0  0  0  0  0  0  0  0
   49.6634   14.3574   18.3485 C   0  0  0  0  0  0  0  0  0  0  0  0
   48.3243    8.1085   19.6560 C   0  0  0  0  0  0  0  0  0  0  0  0
   48.7723    9.4134   22.2669 C   0  0  1  0  0  0  0  0  0  0  0  0
   50.4819   13.2056   19.0763 C   0  0  1  0  0  0  0  0  0  0  0  0
   49.7826   11.2553   20.6865 C   0  0  2  0  0  0  0  0  0  0  0  0
   47.9559    7.4161   20.9027 C   0  0  0  0  0  0  0  0  0  0  0  0
   48.1348    8.0336   22.1499 C   0  0  0  0  0  0  0  0  0  0  0  0
   48.2554   14.8892   16.2789 C   0  0  0  0  0  0  0  0  0  0  0  0
   49.6667   15.4674   18.9416 O   0  0  0  0  0  0  0  0  0  0  0  0
   51.6725   13.4996   19.9585 N   0  0  0  0  0  0  0  0  0  0  0  0
   48.6240   11.8886   16.1538 O   0  0  0  0  0  0  0  0  0  0  0  0
   48.5941    7.4219   18.6713 O   0  0  0  0  0  0  0  0  0  0  0  0
   47.4278    6.1133   20.8154 C   0  0  0  0  0  0  0  0  0  0  0  0
   47.0296   12.3046   18.9338 O   0  0  0  0  0  0  0  0  0  0  0  0
   48.4832   16.0811   16.0977 O   0  0  0  0  0  0  0  0  0  0  0  0
   47.9644    9.7243   17.3430 O   0  0  0  0  0  0  0  0  0  0  0  0
   50.1595    9.1657   22.5410 O   0  0  0  0  0  0  0  0  0  0  0  0
   50.3386   11.7871   21.8948 O   0  0  0  0  0  0  0  0  0  0  0  0
   47.3191   14.2881   15.4730 N   0  0  0  0  0  0  0  0  0  0  0  0
   48.2058   10.1965   23.4832 C   0  0  0  0  0  0  0  0  0  0  0  0
   47.7767    7.2832   23.2967 C   0  0  0  0  0  0  0  0  0  0  0  0
   47.2597    5.4469   19.6250 O   0  0  0  0  0  0  0  0  0  0  0  0
   47.2420    5.9943   23.2009 C   0  0  0  0  0  0  0  0  0  0  0  0
   47.0611    5.4086   21.9534 C   0  0  0  0  0  0  0  0  0  0  0  0
   52.3815   14.7360   19.5382 C   0  0  0  0  0  0  0  0  0  0  0  0
   52.6949   12.4324   19.8601 C   0  0  0  0  0  0  0  0  0  0  0  0
   49.1219   10.9817   19.9599 Ca  0  0  0  0  0 15  0  0  0  0  0  0
   48.2187   13.6343   19.3004 H   0  0  0  0  0  0  0  0  0  0  0  0
   47.0127   10.2446   21.3839 H   0  0  0  0  0  0  0  0  0  0  0  0
   50.5120   11.6511   19.4950 H   0  0  0  0  0  0  0  0  0  0  0  0
   48.2396   12.5540   21.5691 H   0  0  0  0  0  0  0  0  0  0  0  0
   46.8011   13.1661   17.5384 H   0  0  0  0  0  0  0  0  0  0  0  0
   47.7937   10.1769   16.4170 H   0  0  0  0  0  0  0  0  0  0  0  0
   51.0162    9.4967   21.6246 H   0  0  0  0  0  0  0  0  0  0  0  0
   46.1841   12.1728   19.7077 H   0  0  0  0  0  0  0  0  0  0  0  0
   50.2116   13.8271   13.7186 H   0  0  0  0  0  0  0  0  0  0  0  0
   48.9401   13.1191   14.6522 H   0  0  0  0  0  0  0  0  0  0  0  0
   49.5728   11.6983   22.8691 H   0  0  0  0  0  0  0  0  0  0  0  0
   48.3874   10.6517   23.6801 H   0  0  0  0  0  0  0  0  0  0  0  0
   50.1278   10.2728   23.6537 H   0  0  0  0  0  0  0  0  0  0  0  0
   49.6596    8.2429   23.9832 H   0  0  0  0  0  0  0  0  0  0  0  0
   47.1016    6.0170   19.4635 H   0  0  0  0  0  0  0  0  0  0  0  0
   49.1572    5.8776   24.3011 H   0  0  0  0  0  0  0  0  0  0  0  0
   48.0104    4.5807   22.5254 H   0  0  0  0  0  0  0  0  0  0  0  0
   52.6395   13.3949   20.6410 H   0  0  0  0  0  0  0  0  0  0  0  0
   51.9977   13.2712   22.2736 H   0  0  0  0  0  0  0  0  0  0  0  0
   52.0050   11.8567   21.2468 H   0  0  0  0  0  0  0  0  0  0  0  0
   50.2763   15.0068   21.9690 H   0  0  0  0  0  0  0  0  0  0  0  0
   51.0657   15.3224   20.4299 H   0  0  0  0  0  0  0  0  0  0  0  0
   49.3176   15.0368   20.5061 H   0  0  0  0  0  0  0  0  0  0  0  0
   48.7780   13.0799   20.3991 H   0  0  0  0  0  0  0  0  0  0  0  0
   47.6928   10.8982   21.1699 H   0  0  0  0  0  0  0  0  0  0  0  0
   50.9027   12.5995   18.2586 H   0  0  0  0  0  0  0  0  0  0  0  0
   50.5730   10.6669   20.2081 H   0  0  0  0  0  0  0  0  0  0  0  0
   47.0759   13.2708   19.0896 H   0  0  0  0  0  0  0  0  0  0  0  0
   48.0341   10.3858   16.6210 H   0  0  0  0  0  0  0  0  0  0  0  0
   50.5836   10.0491   22.5747 H   0  0  0  0  0  0  0  0  0  0  0  0
   50.7705   12.6385   21.6339 H   0  0  0  0  0  0  0  0  0  0  0  0
   47.3152   13.2812   15.3510 H   0  0  0  0  0  0  0  0  0  0  0  0
   46.9809   14.8626   14.7170 H   0  0  0  0  0  0  0  0  0  0  0  0
   48.5707   11.2270   23.5130 H   0  0  0  0  0  0  0  0  0  0  0  0
   48.5158    9.7568   24.4400 H   0  0  0  0  0  0  0  0  0  0  0  0
   47.1092   10.2320   23.4570 H   0  0  0  0  0  0  0  0  0  0  0  0
   47.9409    7.6853   24.2960 H   0  0  0  0  0  0  0  0  0  0  0  0
   47.7134    5.9784   18.9322 H   0  0  0  0  0  0  0  0  0  0  0  0
   46.9856    5.4408   24.1038 H   0  0  0  0  0  0  0  0  0  0  0  0
   46.6603    4.4042   21.8636 H   0  0  0  0  0  0  0  0  0  0  0  0
   53.3581   14.8212   20.0380 H   0  0  0  0  0  0  0  0  0  0  0  0
   52.5530   14.7603   18.4534 H   0  0  0  0  0  0  0  0  0  0  0  0
   51.8621   15.6419   19.8635 H   0  0  0  0  0  0  0  0  0  0  0  0
   53.6061   12.7013   20.4177 H   0  0  0  0  0  0  0  0  0  0  0  0
   52.9975   12.2125   18.8259 H   0  0  0  0  0  0  0  0  0  0  0  0
   52.3721   11.5010   20.3304 H   0  0  0  0  0  0  0  0  0  0  0  0
  2  5  2  0
  3  1  1  0
  4  7  1  0
  5  1  1  0
  6  2  1  0
  7  1  1  0
  8  4  2  0
  9  2  1  0
 10  6  1  0
  3 11  1  0
 12  3  1  0
 13  9  1  0
 14 13  2  0
 15  4  1  0
 16  8  1  0
 11 17  1  0
 18  7  2  0
 19  9  2  0
 20 13  1  0
  1 21  1  6
 22 15  2  0
 23  5  1  0
 10 24  1  1
 12 25  1  0
 26 15  1  0
 10 27  1  0
 28 14  1  0
 29 20  1  0
 30 31  1  0
 31 20  2  0
 32 17  1  0
 33 17  1  0
 12  6  1  0
 11  8  1  0
 10 14  1  0
 30 28  2  0
 35 38  2  0
 36 34  1  0
 37 40  1  0
 38 34  1  0
 39 35  1  0
 40 34  1  0
 41 37  2  0
 42 35  1  0
 43 39  1  0
 36 44  1  0
 45 36  1  0
 46 42  1  0
 47 46  2  0
 48 37  1  0
 49 41  1  0
 44 50  1  0
 51 40  2  0
 52 42  2  0
 53 46  1  0
 34 54  1  6
 55 48  2  0
 56 38  1  0
 43 57  1  1
 45 58  1  0
 59 48  1  0
 43 60  1  0
 61 47  1  0
 62 53  1  0
 63 64  1  0
 64 53  2  0
 65 50  1  0
 66 50  1  0
 45 39  1  0
 44 41  1  0
 43 47  1  0
 63 61  2  0
  3 68  1  6
  6 69  1  6
 11 70  1  1
 12 71  1  6
 21 72  1  0
 23 73  1  0
 24 74  1  0
 25 75  1  0
 26 76  1  0
 26 77  1  0
 27 78  1  0
 27 79  1  0
 27 80  1  0
 28 81  1  0
 29 82  1  0
 30 83  1  0
 31 84  1  0
 32 85  1  0
 32 86  1  0
 32 87  1  0
 33 88  1  0
 33 89  1  0
 33 90  1  0
 36 91  1  6
 39 92  1  6
 44 93  1  1
 45 94  1  1
 54 95  1  0
 56 96  1  0
 57 97  1  0
 58 98  1  0
 59 99  1  0
 59100  1  0
 60101  1  0
 60102  1  0
 60103  1  0
 61104  1  0
 62105  1  0
 63106  1  0
 64107  1  0
 65108  1  0
 65109  1  0
 65110  1  0
 66111  1  0
 66112  1  0
 66113  1  0
M  CHG  3  16  -1  49  -1  67   2
M  END
> <Uni-Dock RESULT> 
ENERGY=   -5.984  LOWER_BOUND=    5.517  UPPER_BOUND=    9.187
INTER + INTRA:          -5.984
INTER:                  -5.984
INTRA:                   0.000
UNBOUND:                 0.000

$$$$

     RDKit          3D

113118  0  0  0  0  0  0  0  0999 V2000
   50.8475    7.2455   16.4617 C   0  0  2  0  0  0  0  0  0  0  0  0
   48.9726    6.5780   14.9140 C   0  0  0  0  0  0  0  0  0  0  0  0
   50.8340    8.6536   15.8779 C   0  0  2  0  0  0  0  0  0  0  0  0
   50.9122    8.4421   18.8024 C   0  0  0  0  0  0  0  0  0  0  0  0
   49.7078    6.3343   16.0162 C   0  0  0  0  0  0  0  0  0  0  0  0
   49.1702    7.7738   14.0095 C   0  0  1  0  0  0  0  0  0  0  0  0
   50.9949    7.2032   17.9863 C   0  0  0  0  0  0  0  0  0  0  0  0
   50.4733    9.6034   18.2421 C   0  0  0  0  0  0  0  0  0  0  0  0
   47.9047    5.6359   14.4509 C   0  0  0  0  0  0  0  0  0  0  0  0
   47.8062    8.5250   13.8661 C   0  0  1  0  0  0  0  0  0  0  0  0
   49.9869    9.6250   16.7408 C   0  0  1  0  0  0  0  0  0  0  0  0
   50.4425    8.5864   14.3787 C   0  0  2  0  0  0  0  0  0  0  0  0
   46.8363    6.1851   13.5650 C   0  0  0  0  0  0  0  0  0  0  0  0
   46.7823    7.5617   13.2525 C   0  0  0  0  0  0  0  0  0  0  0  0
   51.3263    8.3731   20.2632 C   0  0  0  0  0  0  0  0  0  0  0  0
   50.3620   10.7314   18.8000 O   0  0  0  0  0  0  0  0  0  0  0  0
   49.8931   10.9093   15.9734 N   0  0  0  0  0  0  0  0  0  0  0  0
   51.2724    6.1146   18.5235 O   0  0  0  0  0  0  0  0  0  0  0  0
   47.8922    4.4305   14.7015 O   0  0  0  0  0  0  0  0  0  0  0  0
   45.8744    5.3051   13.0256 C   0  0  0  0  0  0  0  0  0  0  0  0
   52.0371    6.5743   15.9327 O   0  0  0  0  0  0  0  0  0  0  0  0
   50.8961    9.0445   21.1989 O   0  0  0  0  0  0  0  0  0  0  0  0
   49.5035    5.1703   16.7511 O   0  0  0  0  0  0  0  0  0  0  0  0
   47.2850    8.8528   15.1514 O   0  0  0  0  0  0  0  0  0  0  0  0
   51.5562    7.9664   13.6645 O   0  0  0  0  0  0  0  0  0  0  0  0
   52.2487    7.3959   20.5628 N   0  0  0  0  0  0  0  0  0  0  0  0
   47.9550    9.8319   13.0711 C   0  0  0  0  0  0  0  0  0  0  0  0
   45.7324    8.0099   12.4266 C   0  0  0  0  0  0  0  0  0  0  0  0
   45.8635    3.9548   13.2843 O   0  0  0  0  0  0  0  0  0  0  0  0
   44.7907    7.1234   11.8978 C   0  0  0  0  0  0  0  0  0  0  0  0
   44.8637    5.7705   12.1942 C   0  0  0  0  0  0  0  0  0  0  0  0
   48.7335   11.7135   16.3723 C   0  0  0  0  0  0  0  0  0  0  0  0
   51.1028   11.7322   16.0028 C   0  0  0  0  0  0  0  0  0  0  0  0
   50.6119    7.6351   16.2666 C   0  0  2  0  0  0  0  0  0  0  0  0
   48.5549    6.8232   15.0664 C   0  0  0  0  0  0  0  0  0  0  0  0
   50.1539    9.1175   16.0082 C   0  0  2  0  0  0  0  0  0  0  0  0
   52.2657    8.5305   18.0364 C   0  0  0  0  0  0  0  0  0  0  0  0
   49.5031    6.5992   16.0047 C   0  0  0  0  0  0  0  0  0  0  0  0
   48.6247    8.0922   14.2584 C   0  0  1  0  0  0  0  0  0  0  0  0
   51.2862    7.4661   17.6684 C   0  0  0  0  0  0  0  0  0  0  0  0
   51.8618    9.7650   17.6241 C   0  0  0  0  0  0  0  0  0  0  0  0
   47.4486    5.8663   14.8177 C   0  0  0  0  0  0  0  0  0  0  0  0
   47.5001    8.3391   13.2042 C   0  0  1  0  0  0  0  0  0  0  0  0
   50.3057    9.9214   17.3405 C   0  0  1  0  0  0  0  0  0  0  0  0
   48.7676    9.1942   15.3427 C   0  0  2  0  0  0  0  0  0  0  0  0
   46.7907    5.9048   13.5004 C   0  0  0  0  0  0  0  0  0  0  0  0
   46.8309    7.0623   12.7084 C   0  0  0  0  0  0  0  0  0  0  0  0
   53.6370    8.1627   18.5350 C   0  0  0  0  0  0  0  0  0  0  0  0
   52.5592   10.7700   17.3281 O   0  0  0  0  0  0  0  0  0  0  0  0
   49.6123   11.2631   17.3787 N   0  0  0  0  0  0  0  0  0  0  0  0
   51.1385    6.4633   18.3776 O   0  0  0  0  0  0  0  0  0  0  0  0
   47.0267    5.0660   15.6515 O   0  0  0  0  0  0  0  0  0  0  0  0
   46.1101    4.7542   13.0568 C   0  0  0  0  0  0  0  0  0  0  0  0
   51.6309    7.3096   15.2978 O   0  0  0  0  0  0  0  0  0  0  0  0
   54.4763    8.9274   18.9999 O   0  0  0  0  0  0  0  0  0  0  0  0
   49.5250    5.3995   16.7048 O   0  0  0  0  0  0  0  0  0  0  0  0
   46.4380    9.1314   13.7564 O   0  0  0  0  0  0  0  0  0  0  0  0
   48.5354   10.4944   14.7882 O   0  0  0  0  0  0  0  0  0  0  0  0
   53.9262    6.8196   18.5362 N   0  0  0  0  0  0  0  0  0  0  0  0
   48.1052    9.1537   12.0279 C   0  0  0  0  0  0  0  0  0  0  0  0
   46.1489    7.0170   11.4677 C   0  0  0  0  0  0  0  0  0  0  0  0
   46.0106    3.6036   13.8023 O   0  0  0  0  0  0  0  0  0  0  0  0
   45.4853    5.8665   11.0292 C   0  0  0  0  0  0  0  0  0  0  0  0
   45.4708    4.7272   11.8253 C   0  0  0  0  0  0  0  0  0  0  0  0
   50.2737   12.2017   18.3218 C   0  0  0  0  0  0  0  0  0  0  0  0
   48.2260   11.1409   17.8857 C   0  0  0  0  0  0  0  0  0  0  0  0
   49.1306    8.2534   15.4931 Ca  0  0  0  0  0 15  0  0  0  0  0  0
   51.8775    9.0073   15.9089 H   0  0  0  0  0  0  0  0  0  0  0  0
   49.3907    7.3616   13.0118 H   0  0  0  0  0  0  0  0  0  0  0  0
   48.9741    9.2106   16.7799 H   0  0  0  0  0  0  0  0  0  0  0  0
   50.4219    9.5845   13.9435 H   0  0  0  0  0  0  0  0  0  0  0  0
   52.8025    6.9518   16.4118 H   0  0  0  0  0  0  0  0  0  0  0  0
   50.2213    5.0780   17.4141 H   0  0  0  0  0  0  0  0  0  0  0  0
   46.4474    9.3301   15.0384 H   0  0  0  0  0  0  0  0  0  0  0  0
   51.8073    7.1626   14.1672 H   0  0  0  0  0  0  0  0  0  0  0  0
   52.3781    7.2462   21.5492 H   0  0  0  0  0  0  0  0  0  0  0  0
   52.3109    6.5873   19.9520 H   0  0  0  0  0  0  0  0  0  0  0  0
   48.6456   10.5281   13.5511 H   0  0  0  0  0  0  0  0  0  0  0  0
   48.3000    9.6442   12.0486 H   0  0  0  0  0  0  0  0  0  0  0  0
   47.0140   10.3960   13.0255 H   0  0  0  0  0  0  0  0  0  0  0  0
   45.6250    9.0589   12.1704 H   0  0  0  0  0  0  0  0  0  0  0  0
   46.5855    3.7757   13.9285 H   0  0  0  0  0  0  0  0  0  0  0  0
   43.9995    7.4898   11.2518 H   0  0  0  0  0  0  0  0  0  0  0  0
   44.1317    5.0733   11.7932 H   0  0  0  0  0  0  0  0  0  0  0  0
   48.7927   12.1234   17.3827 H   0  0  0  0  0  0  0  0  0  0  0  0
   48.6281   12.5634   15.6880 H   0  0  0  0  0  0  0  0  0  0  0  0
   47.8055   11.1425   16.2878 H   0  0  0  0  0  0  0  0  0  0  0  0
   51.0411   12.4766   15.1993 H   0  0  0  0  0  0  0  0  0  0  0  0
   51.2441   12.2899   16.9359 H   0  0  0  0  0  0  0  0  0  0  0  0
   52.0073   11.1525   15.8102 H   0  0  0  0  0  0  0  0  0  0  0  0
   50.8329    9.5828   15.2726 H   0  0  0  0  0  0  0  0  0  0  0  0
   49.5627    8.0374   13.6820 H   0  0  0  0  0  0  0  0  0  0  0  0
   49.8144    9.3477   18.1422 H   0  0  0  0  0  0  0  0  0  0  0  0
   47.9868    9.0273   16.0925 H   0  0  0  0  0  0  0  0  0  0  0  0
   52.3097    8.0140   15.3528 H   0  0  0  0  0  0  0  0  0  0  0  0
   50.1901    5.4547   17.4247 H   0  0  0  0  0  0  0  0  0  0  0  0
   46.8685    9.9357   14.1160 H   0  0  0  0  0  0  0  0  0  0  0  0
   49.0156   11.1239   15.3820 H   0  0  0  0  0  0  0  0  0  0  0  0
   53.1826    6.1328   18.4726 H   0  0  0  0  0  0  0  0  0  0  0  0
   54.7675    6.5689   19.0316 H   0  0  0  0  0  0  0  0  0  0  0  0
   48.6843   10.0123   12.3792 H   0  0  0  0  0  0  0  0  0  0  0  0
   47.3305    9.5798   11.3773 H   0  0  0  0  0  0  0  0  0  0  0  0
   48.7698    8.5320   11.4145 H   0  0  0  0  0  0  0  0  0  0  0  0
   46.0976    7.8995   10.8306 H   0  0  0  0  0  0  0  0  0  0  0  0
   46.3466    3.8153   14.7026 H   0  0  0  0  0  0  0  0  0  0  0  0
   44.9625    5.8685   10.0731 H   0  0  0  0  0  0  0  0  0  0  0  0
   44.9485    3.8316   11.5050 H   0  0  0  0  0  0  0  0  0  0  0  0
   49.6444   13.0853   18.5069 H   0  0  0  0  0  0  0  0  0  0  0  0
   50.4848   11.7276   19.2900 H   0  0  0  0  0  0  0  0  0  0  0  0
   51.1854   12.6364   17.9021 H   0  0  0  0  0  0  0  0  0  0  0  0
   47.7609   12.1311   18.0155 H   0  0  0  0  0  0  0  0  0  0  0  0
   48.1593   10.6194   18.8516 H   0  0  0  0  0  0  0  0  0  0  0  0
   47.5652   10.6384   17.1761 H   0  0  0  0  0  0  0  0  0  0  0  0
  2  5  2  0
  3  1  1  0
  4  7  1  0
  5  1  1  0
  6  2  1  0
  7  1  1  0
  8  4  2  0
  9  2  1  0
 10  6  1  0
  3 11  1  0
 12  3  1  0
 13  9  1  0
 14 13  2  0
 15  4  1  0
 16  8  1  0
 11 17  1  0
 18  7  2  0
 19  9  2  0
 20 13  1  0
  1 21  1  6
 22 15  2  0
 23  5  1  0
 10 24  1  1
 12 25  1  0
 26 15  1  0
 10 27  1  0
 28 14  1  0
 29 20  1  0
 30 31  1  0
 31 20  2  0
 32 17  1  0
 33 17  1  0
 12  6  1  0
 11  8  1  0
 10 14  1  0
 30 28  2  0
 35 38  2  0
 36 34  1  0
 37 40  1  0
 38 34  1  0
 39 35  1  0
 40 34  1  0
 41 37  2  0
 42 35  1  0
 43 39  1  0
 36 44  1  0
 45 36  1  0
 46 42  1  0
 47 46  2  0
 48 37  1  0
 49 41  1  0
 44 50  1  0
 51 40  2  0
 52 42  2  0
 53 46  1  0
 34 54  1  6
 55 48  2  0
 56 38  1  0
 43 57  1  1
 45 58  1  0
 59 48  1  0
 43 60  1  0
 61 47  1  0
 62 53  1  0
 63 64  1  0
 64 53  2  0
 65 50  1  0
 66 50  1  0
 45 39  1  0
 44 41  1  0
 43 47  1  0
 63 61  2  0
  3 68  1  6
  6 69  1  6
 11 70  1  1
 12 71  1  6
 21 72  1  0
 23 73  1  0
 24 74  1  0
 25 75  1  0
 26 76  1  0
 26 77  1  0
 27 78  1  0
 27 79  1  0
 27 80  1  0
 28 81  1  0
 29 82  1  0
 30 83  1  0
 31 84  1  0
 32 85  1  0
 32 86  1  0
 32 87  1  0
 33 88  1  0
 33 89  1  0
 33 90  1  0
 36 91  1  6
 39 92  1  6
 44 93  1  1
 45 94  1  1
 54 95  1  0
 56 96  1  0
 57 97  1  0
 58 98  1  0
 59 99  1  0
 59100  1  0
 60101  1  0
 60102  1  0
 60103  1  0
 61104  1  0
 62105  1  0
 63106  1  0
 64107  1  0
 65108  1  0
 65109  1  0
 65110  1  0
 66111  1  0
 66112  1  0
 66113  1  0
M  CHG  3  16  -1  49  -1  67   2
M  END
> <Uni-Dock RESULT> 
ENERGY=   -5.785  LOWER_BOUND=    3.253  UPPER_BOUND=    4.919
INTER + INTRA:          -5.785
INTER:                  -5.785
INTRA:                   0.000
UNBOUND:                 0.000

$$$$

     RDKit          3D

113118  0  0  0  0  0  0  0  0999 V2000
   42.7270   12.9476   10.7186 C   0  0  2  0  0  0  0  0  0  0  0  0
   44.4497   11.3497   11.6325 C   0  0  0  0  0  0  0  0  0  0  0  0
   43.8132   13.9910   10.4835 C   0  0  2  0  0  0  0  0  0  0  0  0
   41.9276   13.5357    8.2833 C   0  0  0  0  0  0  0  0  0  0  0  0
   43.2185   11.5628   11.1290 C   0  0  0  0  0  0  0  0  0  0  0  0
   45.4845   12.4343   11.8313 C   0  0  1  0  0  0  0  0  0  0  0  0
   41.7136   12.8329    9.5749 C   0  0  0  0  0  0  0  0  0  0  0  0
   43.1336   14.1036    8.0042 C   0  0  0  0  0  0  0  0  0  0  0  0
   44.8911    9.9962   12.0972 C   0  0  0  0  0  0  0  0  0  0  0  0
   46.8013   12.0109   11.1016 C   0  0  1  0  0  0  0  0  0  0  0  0
   44.3315   13.9613    9.0219 C   0  0  1  0  0  0  0  0  0  0  0  0
   44.9051   13.8537   11.5763 C   0  0  2  0  0  0  0  0  0  0  0  0
   46.3590    9.7334   12.1618 C   0  0  0  0  0  0  0  0  0  0  0  0
   47.2935   10.6927   11.7121 C   0  0  0  0  0  0  0  0  0  0  0  0
   40.7735   13.5989    7.2963 C   0  0  0  0  0  0  0  0  0  0  0  0
   43.4600   14.7411    6.9634 O   0  0  0  0  0  0  0  0  0  0  0  0
   45.5113   14.8846    8.9666 N   0  0  0  0  0  0  0  0  0  0  0  0
   40.6585   12.2044    9.7807 O   0  0  0  0  0  0  0  0  0  0  0  0
   44.1233    9.1171   12.4887 O   0  0  0  0  0  0  0  0  0  0  0  0
   46.8125    8.5078   12.6934 C   0  0  0  0  0  0  0  0  0  0  0  0
   41.9566   13.3869   11.8843 O   0  0  0  0  0  0  0  0  0  0  0  0
   40.8356   13.6461    6.0694 O   0  0  0  0  0  0  0  0  0  0  0  0
   42.3044   10.5166   11.0474 O   0  0  0  0  0  0  0  0  0  0  0  0
   46.5341   11.7110    9.7343 O   0  0  0  0  0  0  0  0  0  0  0  0
   44.3175   14.2980   12.8381 O   0  0  0  0  0  0  0  0  0  0  0  0
   39.5192   13.5334    7.8599 N   0  0  0  0  0  0  0  0  0  0  0  0
   47.8595   13.1249   11.1413 C   0  0  0  0  0  0  0  0  0  0  0  0
   48.6620   10.3650   11.7852 C   0  0  0  0  0  0  0  0  0  0  0  0
   45.9634    7.5277   13.1506 O   0  0  0  0  0  0  0  0  0  0  0  0
   49.0934    9.1478   12.3185 C   0  0  0  0  0  0  0  0  0  0  0  0
   48.1690    8.2206   12.7761 C   0  0  0  0  0  0  0  0  0  0  0  0
   46.4092   14.5752    7.8493 C   0  0  0  0  0  0  0  0  0  0  0  0
   45.1764   16.3091    8.9558 C   0  0  0  0  0  0  0  0  0  0  0  0
   43.1903   13.0766   10.5999 C   0  0  2  0  0  0  0  0  0  0  0  0
   44.7448   11.2061   11.2451 C   0  0  0  0  0  0  0  0  0  0  0  0
   44.3971   13.8171    9.9147 C   0  0  2  0  0  0  0  0  0  0  0  0
   41.5915   14.6493    9.3195 C   0  0  0  0  0  0  0  0  0  0  0  0
   43.4894   11.6040   10.9363 C   0  0  0  0  0  0  0  0  0  0  0  0
   45.8397   12.2395   11.2864 C   0  0  1  0  0  0  0  0  0  0  0  0
   41.8587   13.2614    9.7994 C   0  0  0  0  0  0  0  0  0  0  0  0
   42.7267   15.2745    8.8983 C   0  0  0  0  0  0  0  0  0  0  0  0
   45.0757    9.7888   11.5328 C   0  0  0  0  0  0  0  0  0  0  0  0
   47.2841   11.7473   11.6152 C   0  0  1  0  0  0  0  0  0  0  0  0
   43.9351   14.3186    8.5078 C   0  0  1  0  0  0  0  0  0  0  0  0
   45.6847   12.9731    9.9269 C   0  0  2  0  0  0  0  0  0  0  0  0
   46.2793    9.5141   12.3360 C   0  0  0  0  0  0  0  0  0  0  0  0
   47.3249   10.4469   12.4095 C   0  0  0  0  0  0  0  0  0  0  0  0
   40.2601   15.3006    9.5790 C   0  0  0  0  0  0  0  0  0  0  0  0
   42.9948   16.5040    8.8794 O   0  0  0  0  0  0  0  0  0  0  0  0
   45.0385   14.7579    7.5740 N   0  0  0  0  0  0  0  0  0  0  0  0
   41.0088   12.3707    9.6783 O   0  0  0  0  0  0  0  0  0  0  0  0
   44.4266    8.8296   11.1172 O   0  0  0  0  0  0  0  0  0  0  0  0
   46.3620    8.2869   13.0224 C   0  0  0  0  0  0  0  0  0  0  0  0
   42.9649   13.6906   11.8863 O   0  0  0  0  0  0  0  0  0  0  0  0
   39.8662   16.3687    9.1214 O   0  0  0  0  0  0  0  0  0  0  0  0
   42.4378   10.6972   10.9785 O   0  0  0  0  0  0  0  0  0  0  0  0
   48.0253   11.4796   10.4153 O   0  0  0  0  0  0  0  0  0  0  0  0
   46.8324   13.7831    9.6460 O   0  0  0  0  0  0  0  0  0  0  0  0
   39.3819   14.5698   10.3420 N   0  0  0  0  0  0  0  0  0  0  0  0
   48.0300   12.8884   12.3602 C   0  0  0  0  0  0  0  0  0  0  0  0
   48.4546   10.0873   13.1848 C   0  0  0  0  0  0  0  0  0  0  0  0
   45.3840    7.3228   12.9620 O   0  0  0  0  0  0  0  0  0  0  0  0
   48.5239    8.8716   13.8729 C   0  0  0  0  0  0  0  0  0  0  0  0
   47.4695    7.9691   13.7960 C   0  0  0  0  0  0  0  0  0  0  0  0
   44.5623   15.7618    6.5875 C   0  0  0  0  0  0  0  0  0  0  0  0
   45.5301   13.6298    6.7497 C   0  0  0  0  0  0  0  0  0  0  0  0
   44.8824   12.5560   10.3977 Ca  0  0  0  0  0 15  0  0  0  0  0  0
   43.3357   14.9711   10.6457 H   0  0  0  0  0  0  0  0  0  0  0  0
   45.7233   12.4271   12.9069 H   0  0  0  0  0  0  0  0  0  0  0  0
   44.7171   12.9520    8.8445 H   0  0  0  0  0  0  0  0  0  0  0  0
   45.6945   14.5881   11.4230 H   0  0  0  0  0  0  0  0  0  0  0  0
   41.3983   14.1313   11.5809 H   0  0  0  0  0  0  0  0  0  0  0  0
   41.4221   10.8774   10.8132 H   0  0  0  0  0  0  0  0  0  0  0  0
   47.3657   11.4653    9.2982 H   0  0  0  0  0  0  0  0  0  0  0  0
   43.4474   13.8534   12.9215 H   0  0  0  0  0  0  0  0  0  0  0  0
   38.7788   13.3981    7.1923 H   0  0  0  0  0  0  0  0  0  0  0  0
   39.4206   13.0902    8.7681 H   0  0  0  0  0  0  0  0  0  0  0  0
   47.5126   14.0382   10.6540 H   0  0  0  0  0  0  0  0  0  0  0  0
   48.1530   13.3651   12.1689 H   0  0  0  0  0  0  0  0  0  0  0  0
   48.7602   12.8580   10.5728 H   0  0  0  0  0  0  0  0  0  0  0  0
   49.4255   11.0514   11.4339 H   0  0  0  0  0  0  0  0  0  0  0  0
   45.0446    7.8334   12.9757 H   0  0  0  0  0  0  0  0  0  0  0  0
   50.1535    8.9238   12.3783 H   0  0  0  0  0  0  0  0  0  0  0  0
   48.4941    7.2675   13.1865 H   0  0  0  0  0  0  0  0  0  0  0  0
   45.9893   14.7769    6.8617 H   0  0  0  0  0  0  0  0  0  0  0  0
   47.3208   15.1775    7.9384 H   0  0  0  0  0  0  0  0  0  0  0  0
   46.7340   13.5321    7.8772 H   0  0  0  0  0  0  0  0  0  0  0  0
   46.0765   16.8835    9.2072 H   0  0  0  0  0  0  0  0  0  0  0  0
   44.8285   16.6814    7.9853 H   0  0  0  0  0  0  0  0  0  0  0  0
   44.4307   16.5688    9.7093 H   0  0  0  0  0  0  0  0  0  0  0  0
   44.6552   14.7124   10.5066 H   0  0  0  0  0  0  0  0  0  0  0  0
   45.5732   12.9360   12.0982 H   0  0  0  0  0  0  0  0  0  0  0  0
   43.4658   13.4722    7.9818 H   0  0  0  0  0  0  0  0  0  0  0  0
   45.6364   12.2117    9.1409 H   0  0  0  0  0  0  0  0  0  0  0  0
   42.8806   14.6541   11.7297 H   0  0  0  0  0  0  0  0  0  0  0  0
   41.6313   11.1163   10.6077 H   0  0  0  0  0  0  0  0  0  0  0  0
   47.9662   12.2992    9.8804 H   0  0  0  0  0  0  0  0  0  0  0  0
   46.5133   14.4871    9.0280 H   0  0  0  0  0  0  0  0  0  0  0  0
   39.5204   13.5738   10.4743 H   0  0  0  0  0  0  0  0  0  0  0  0
   38.4401   14.9284   10.3624 H   0  0  0  0  0  0  0  0  0  0  0  0
   47.9124   13.8520   11.8567 H   0  0  0  0  0  0  0  0  0  0  0  0
   49.1137   12.7183   12.3999 H   0  0  0  0  0  0  0  0  0  0  0  0
   47.6589   13.0016   13.3869 H   0  0  0  0  0  0  0  0  0  0  0  0
   49.3220   10.7446   13.2388 H   0  0  0  0  0  0  0  0  0  0  0  0
   44.7553    7.5959   12.2561 H   0  0  0  0  0  0  0  0  0  0  0  0
   49.4119    8.6221   14.4530 H   0  0  0  0  0  0  0  0  0  0  0  0
   47.5144    7.0161   14.3130 H   0  0  0  0  0  0  0  0  0  0  0  0
   45.3010   15.9092    5.7852 H   0  0  0  0  0  0  0  0  0  0  0  0
   43.6135   15.4607    6.1230 H   0  0  0  0  0  0  0  0  0  0  0  0
   44.4744   16.7611    7.0233 H   0  0  0  0  0  0  0  0  0  0  0  0
   46.2557   13.9743    5.9957 H   0  0  0  0  0  0  0  0  0  0  0  0
   44.7292   13.0995    6.2141 H   0  0  0  0  0  0  0  0  0  0  0  0
   46.0950   12.9009    7.3348 H   0  0  0  0  0  0  0  0  0  0  0  0
  2  5  2  0
  3  1  1  0
  4  7  1  0
  5  1  1  0
  6  2  1  0
  7  1  1  0
  8  4  2  0
  9  2  1  0
 10  6  1  0
  3 11  1  0
 12  3  1  0
 13  9  1  0
 14 13  2  0
 15  4  1  0
 16  8  1  0
 11 17  1  0
 18  7  2  0
 19  9  2  0
 20 13  1  0
  1 21  1  6
 22 15  2  0
 23  5  1  0
 10 24  1  1
 12 25  1  0
 26 15  1  0
 10 27  1  0
 28 14  1  0
 29 20  1  0
 30 31  1  0
 31 20  2  0
 32 17  1  0
 33 17  1  0
 12  6  1  0
 11  8  1  0
 10 14  1  0
 30 28  2  0
 35 38  2  0
 36 34  1  0
 37 40  1  0
 38 34  1  0
 39 35  1  0
 40 34  1  0
 41 37  2  0
 42 35  1  0
 43 39  1  0
 36 44  1  0
 45 36  1  0
 46 42  1  0
 47 46  2  0
 48 37  1  0
 49 41  1  0
 44 50  1  0
 51 40  2  0
 52 42  2  0
 53 46  1  0
 34 54  1  6
 55 48  2  0
 56 38  1  0
 43 57  1  1
 45 58  1  0
 59 48  1  0
 43 60  1  0
 61 47  1  0
 62 53  1  0
 63 64  1  0
 64 53  2  0
 65 50  1  0
 66 50  1  0
 45 39  1  0
 44 41  1  0
 43 47  1  0
 63 61  2  0
  3 68  1  6
  6 69  1  6
 11 70  1  1
 12 71  1  6
 21 72  1  0
 23 73  1  0
 24 74  1  0
 25 75  1  0
 26 76  1  0
 26 77  1  0
 27 78  1  0
 27 79  1  0
 27 80  1  0
 28 81  1  0
 29 82  1  0
 30 83  1  0
 31 84  1  0
 32 85  1  0
 32 86  1  0
 32 87  1  0
 33 88  1  0
 33 89  1  0
 33 90  1  0
 36 91  1  6
 39 92  1  6
 44 93  1  1
 45 94  1  1
 54 95  1  0
 56 96  1  0
 57 97  1  0
 58 98  1  0
 59 99  1  0
 59100  1  0
 60101  1  0
 60102  1  0
 60103  1  0
 61104  1  0
 62105  1  0
 63106  1  0
 64107  1  0
 65108  1  0
 65109  1  0
 65110  1  0
 66111  1  0
 66112  1  0
 66113  1  0
M  CHG  3  16  -1  49  -1  67   2
M  END
> <Uni-Dock RESULT> 
ENERGY=   -5.656  LOWER_BOUND=    3.425  UPPER_BOUND=    7.813
INTER + INTRA:          -5.656
INTER:                  -5.656
INTRA:                   0.000
UNBOUND:                 0.000

$$$$

     RDKit          3D

113118  0  0  0  0  0  0  0  0999 V2000
   45.1178   13.4179   11.4277 C   0  0  2  0  0  0  0  0  0  0  0  0
   46.0612   11.1852   12.1214 C   0  0  0  0  0  0  0  0  0  0  0  0
   46.5296   13.9748   11.2841 C   0  0  2  0  0  0  0  0  0  0  0  0
   44.6645   14.5348    9.0905 C   0  0  0  0  0  0  0  0  0  0  0  0
   45.0218   11.9151   11.6724 C   0  0  0  0  0  0  0  0  0  0  0  0
   47.4322   11.7521   12.4147 C   0  0  1  0  0  0  0  0  0  0  0  0
   44.1653   13.8335   10.3017 C   0  0  0  0  0  0  0  0  0  0  0  0
   46.0024   14.6151    8.8482 C   0  0  0  0  0  0  0  0  0  0  0  0
   45.9302    9.7246   12.4245 C   0  0  0  0  0  0  0  0  0  0  0  0
   48.4958   10.9322   11.6132 C   0  0  1  0  0  0  0  0  0  0  0  0
   47.0274   13.9064    9.8167 C   0  0  1  0  0  0  0  0  0  0  0  0
   47.4573   13.3038   12.3302 C   0  0  2  0  0  0  0  0  0  0  0  0
   47.1779    8.9053   12.4266 C   0  0  0  0  0  0  0  0  0  0  0  0
   48.4219    9.4679   12.0639 C   0  0  0  0  0  0  0  0  0  0  0  0
   43.6484   15.1507    8.1428 C   0  0  0  0  0  0  0  0  0  0  0  0
   46.5742   15.1853    7.8766 O   0  0  0  0  0  0  0  0  0  0  0  0
   48.4746   14.2972    9.8365 N   0  0  0  0  0  0  0  0  0  0  0  0
   42.9444   13.6472   10.4610 O   0  0  0  0  0  0  0  0  0  0  0  0
   44.8720    9.1767   12.7344 O   0  0  0  0  0  0  0  0  0  0  0  0
   47.1062    7.5495   12.8100 C   0  0  0  0  0  0  0  0  0  0  0  0
   44.5538   13.9916   12.6518 O   0  0  0  0  0  0  0  0  0  0  0  0
   43.7510   15.3045    6.9274 O   0  0  0  0  0  0  0  0  0  0  0  0
   43.7744   11.3234   11.4971 O   0  0  0  0  0  0  0  0  0  0  0  0
   48.1631   10.9124   10.2276 O   0  0  0  0  0  0  0  0  0  0  0  0
   47.0615   13.8002   13.6462 O   0  0  0  0  0  0  0  0  0  0  0  0
   42.4555   15.5174    8.7241 N   0  0  0  0  0  0  0  0  0  0  0  0
   49.9032   11.5343   11.7510 C   0  0  0  0  0  0  0  0  0  0  0  0
   49.5526    8.6272   12.0696 C   0  0  0  0  0  0  0  0  0  0  0  0
   45.9326    6.9338   13.1759 O   0  0  0  0  0  0  0  0  0  0  0  0
   49.4639    7.2875   12.4561 C   0  0  0  0  0  0  0  0  0  0  0  0
   48.2415    6.7494   12.8299 C   0  0  0  0  0  0  0  0  0  0  0  0
   49.2055   13.7874    8.6719 C   0  0  0  0  0  0  0  0  0  0  0  0
   48.7214   15.7315    9.9898 C   0  0  0  0  0  0  0  0  0  0  0  0
   45.5972   13.3684   11.3135 C   0  0  2  0  0  0  0  0  0  0  0  0
   46.2856   10.9816   11.7140 C   0  0  0  0  0  0  0  0  0  0  0  0
   47.0119   13.6508   10.6865 C   0  0  2  0  0  0  0  0  0  0  0  0
   44.7661   15.5701   10.2501 C   0  0  0  0  0  0  0  0  0  0  0  0
   45.2915   11.8683   11.4792 C   0  0  0  0  0  0  0  0  0  0  0  0
   47.6953   11.4955   11.8437 C   0  0  1  0  0  0  0  0  0  0  0  0
   44.4607   14.1441   10.5685 C   0  0  0  0  0  0  0  0  0  0  0  0
   46.0642   15.7459    9.8745 C   0  0  0  0  0  0  0  0  0  0  0  0
   46.0317    9.5250   11.8367 C   0  0  0  0  0  0  0  0  0  0  0  0
   48.8263   10.4466   12.0837 C   0  0  1  0  0  0  0  0  0  0  0  0
   46.8129   14.4440    9.3540 C   0  0  1  0  0  0  0  0  0  0  0  0
   47.8685   12.3762   10.5768 C   0  0  2  0  0  0  0  0  0  0  0  0
   47.0152    8.7166   12.5774 C   0  0  0  0  0  0  0  0  0  0  0  0
   48.3397    9.1542   12.7292 C   0  0  0  0  0  0  0  0  0  0  0  0
   43.7882   16.6558   10.6096 C   0  0  0  0  0  0  0  0  0  0  0  0
   46.7904   16.7679    9.9846 O   0  0  0  0  0  0  0  0  0  0  0  0
   48.0206   14.5186    8.4494 N   0  0  0  0  0  0  0  0  0  0  0  0
   43.3339   13.6740   10.3695 O   0  0  0  0  0  0  0  0  0  0  0  0
   45.0696    8.9464   11.3331 O   0  0  0  0  0  0  0  0  0  0  0  0
   46.5981    7.4868   13.1228 C   0  0  0  0  0  0  0  0  0  0  0  0
   45.6004   13.8763   12.6643 O   0  0  0  0  0  0  0  0  0  0  0  0
   43.8517   17.8363   10.2811 O   0  0  0  0  0  0  0  0  0  0  0  0
   43.9690   11.4441   11.4455 O   0  0  0  0  0  0  0  0  0  0  0  0
   49.4309   10.0450   10.8452 O   0  0  0  0  0  0  0  0  0  0  0  0
   49.2469   12.7007   10.3607 O   0  0  0  0  0  0  0  0  0  0  0  0
   42.6780   16.2457   11.3074 N   0  0  0  0  0  0  0  0  0  0  0  0
   49.9411   11.1176   12.9325 C   0  0  0  0  0  0  0  0  0  0  0  0
   49.2227    8.3001   13.4345 C   0  0  0  0  0  0  0  0  0  0  0  0
   45.3234    6.9928   12.9792 O   0  0  0  0  0  0  0  0  0  0  0  0
   48.7976    7.0859   13.9832 C   0  0  0  0  0  0  0  0  0  0  0  0
   47.4769    6.6798   13.8316 C   0  0  0  0  0  0  0  0  0  0  0  0
   47.9951   15.7305    7.5902 C   0  0  0  0  0  0  0  0  0  0  0  0
   48.0520   13.3862    7.4953 C   0  0  0  0  0  0  0  0  0  0  0  0
   46.9568   12.2555   11.0171 Ca  0  0  0  0  0 15  0  0  0  0  0  0
   46.4681   15.0392   11.5637 H   0  0  0  0  0  0  0  0  0  0  0  0
   47.6255   11.5343   13.4772 H   0  0  0  0  0  0  0  0  0  0  0  0
   46.9932   12.8527    9.5208 H   0  0  0  0  0  0  0  0  0  0  0  0
   48.4735   13.6847   12.2406 H   0  0  0  0  0  0  0  0  0  0  0  0
   44.3365   14.9231   12.4447 H   0  0  0  0  0  0  0  0  0  0  0  0
   43.1078   12.0228   11.3239 H   0  0  0  0  0  0  0  0  0  0  0  0
   48.8427   10.4117    9.7485 H   0  0  0  0  0  0  0  0  0  0  0  0
   46.0852   13.7234   13.7000 H   0  0  0  0  0  0  0  0  0  0  0  0
   41.7358   15.7555    8.0626 H   0  0  0  0  0  0  0  0  0  0  0  0
   42.1721   15.0507    9.5801 H   0  0  0  0  0  0  0  0  0  0  0  0
   49.9503   12.5581   11.3749 H   0  0  0  0  0  0  0  0  0  0  0  0
   50.2442   11.5266   12.7919 H   0  0  0  0  0  0  0  0  0  0  0  0
   50.6410   11.0019   11.1364 H   0  0  0  0  0  0  0  0  0  0  0  0
   50.5308    8.9960   11.7786 H   0  0  0  0  0  0  0  0  0  0  0  0
   45.2095    7.5904   13.0565 H   0  0  0  0  0  0  0  0  0  0  0  0
   50.3514    6.6631   12.4669 H   0  0  0  0  0  0  0  0  0  0  0  0
   48.1605    5.7061   13.1257 H   0  0  0  0  0  0  0  0  0  0  0  0
   48.9192   14.2439    7.7222 H   0  0  0  0  0  0  0  0  0  0  0  0
   50.2775   13.9732    8.8059 H   0  0  0  0  0  0  0  0  0  0  0  0
   49.0975   12.7039    8.5777 H   0  0  0  0  0  0  0  0  0  0  0  0
   49.7685   15.8785   10.2823 H   0  0  0  0  0  0  0  0  0  0  0  0
   48.5676   16.3141    9.0741 H   0  0  0  0  0  0  0  0  0  0  0  0
   48.1194   16.1766   10.7840 H   0  0  0  0  0  0  0  0  0  0  0  0
   47.5853   14.3039   11.3672 H   0  0  0  0  0  0  0  0  0  0  0  0
   47.7034   12.1470   12.7329 H   0  0  0  0  0  0  0  0  0  0  0  0
   46.0627   13.9107    8.7491 H   0  0  0  0  0  0  0  0  0  0  0  0
   47.5447   11.7852    9.7133 H   0  0  0  0  0  0  0  0  0  0  0  0
   45.9017   14.8074   12.6164 H   0  0  0  0  0  0  0  0  0  0  0  0
   43.3979   12.1823   11.1413 H   0  0  0  0  0  0  0  0  0  0  0  0
   49.7076   10.8763   10.4049 H   0  0  0  0  0  0  0  0  0  0  0  0
   49.2410   13.5367    9.8311 H   0  0  0  0  0  0  0  0  0  0  0  0
   42.4146   15.2665   11.3264 H   0  0  0  0  0  0  0  0  0  0  0  0
   41.9502   16.9383   11.3885 H   0  0  0  0  0  0  0  0  0  0  0  0
   50.2193   12.0999   12.5405 H   0  0  0  0  0  0  0  0  0  0  0  0
   50.8717   10.5355   12.9286 H   0  0  0  0  0  0  0  0  0  0  0  0
   49.6209   11.2528   13.9734 H   0  0  0  0  0  0  0  0  0  0  0  0
   50.2761    8.5574   13.5408 H   0  0  0  0  0  0  0  0  0  0  0  0
   44.8665    7.5650   12.3219 H   0  0  0  0  0  0  0  0  0  0  0  0
   49.5053    6.4480   14.5121 H   0  0  0  0  0  0  0  0  0  0  0  0
   47.1357    5.7340   14.2397 H   0  0  0  0  0  0  0  0  0  0  0  0
   48.7503   15.6658    6.7924 H   0  0  0  0  0  0  0  0  0  0  0  0
   47.0144   15.8758    7.1171 H   0  0  0  0  0  0  0  0  0  0  0  0
   48.2938   16.6307    8.1350 H   0  0  0  0  0  0  0  0  0  0  0  0
   48.8710   13.5014    6.7675 H   0  0  0  0  0  0  0  0  0  0  0  0
   47.1198   13.2721    6.9230 H   0  0  0  0  0  0  0  0  0  0  0  0
   48.2753   12.4352    7.9839 H   0  0  0  0  0  0  0  0  0  0  0  0
  2  5  2  0
  3  1  1  0
  4  7  1  0
  5  1  1  0
  6  2  1  0
  7  1  1  0
  8  4  2  0
  9  2  1  0
 10  6  1  0
  3 11  1  0
 12  3  1  0
 13  9  1  0
 14 13  2  0
 15  4  1  0
 16  8  1  0
 11 17  1  0
 18  7  2  0
 19  9  2  0
 20 13  1  0
  1 21  1  6
 22 15  2  0
 23  5  1  0
 10 24  1  1
 12 25  1  0
 26 15  1  0
 10 27  1  0
 28 14  1  0
 29 20  1  0
 30 31  1  0
 31 20  2  0
 32 17  1  0
 33 17  1  0
 12  6  1  0
 11  8  1  0
 10 14  1  0
 30 28  2  0
 35 38  2  0
 36 34  1  0
 37 40  1  0
 38 34  1  0
 39 35  1  0
 40 34  1  0
 41 37  2  0
 42 35  1  0
 43 39  1  0
 36 44  1  0
 45 36  1  0
 46 42  1  0
 47 46  2  0
 48 37  1  0
 49 41  1  0
 44 50  1  0
 51 40  2  0
 52 42  2  0
 53 46  1  0
 34 54  1  6
 55 48  2  0
 56 38  1  0
 43 57  1  1
 45 58  1  0
 59 48  1  0
 43 60  1  0
 61 47  1  0
 62 53  1  0
 63 64  1  0
 64 53  2  0
 65 50  1  0
 66 50  1  0
 45 39  1  0
 44 41  1  0
 43 47  1  0
 63 61  2  0
  3 68  1  6
  6 69  1  6
 11 70  1  1
 12 71  1  6
 21 72  1  0
 23 73  1  0
 24 74  1  0
 25 75  1  0
 26 76  1  0
 26 77  1  0
 27 78  1  0
 27 79  1  0
 27 80  1  0
 28 81  1  0
 29 82  1  0
 30 83  1  0
 31 84  1  0
 32 85  1  0
 32 86  1  0
 32 87  1  0
 33 88  1  0
 33 89  1  0
 33 90  1  0
 36 91  1  6
 39 92  1  6
 44 93  1  1
 45 94  1  1
 54 95  1  0
 56 96  1  0
 57 97  1  0
 58 98  1  0
 59 99  1  0
 59100  1  0
 60101  1  0
 60102  1  0
 60103  1  0
 61104  1  0
 62105  1  0
 63106  1  0
 64107  1  0
 65108  1  0
 65109  1  0
 65110  1  0
 66111  1  0
 66112  1  0
 66113  1  0
M  CHG  3  16  -1  49  -1  67   2
M  END
> <Uni-Dock RESULT> 
ENERGY=   -5.624  LOWER_BOUND=    3.037  UPPER_BOUND=    6.861
INTER + INTRA:          -5.624
INTER:                  -5.624
INTRA:                   0.000
UNBOUND:                 0.000

$$$$

     RDKit          3D

113118  0  0  0  0  0  0  0  0999 V2000
   48.8244   10.7237   19.6840 C   0  0  2  0  0  0  0  0  0  0  0  0
   48.4615    8.4577   18.6400 C   0  0  0  0  0  0  0  0  0  0  0  0
   48.7226   10.1047   21.0734 C   0  0  2  0  0  0  0  0  0  0  0  0
   50.9505   11.9575   20.6182 C   0  0  0  0  0  0  0  0  0  0  0  0
   48.8701    9.7360   18.5221 C   0  0  0  0  0  0  0  0  0  0  0  0
   47.9347    7.8500   19.9206 C   0  0  1  0  0  0  0  0  0  0  0  0
   49.9441   11.7602   19.5429 C   0  0  0  0  0  0  0  0  0  0  0  0
   51.0400   11.0666   21.6444 C   0  0  0  0  0  0  0  0  0  0  0  0
   48.4458    7.5211   17.4716 C   0  0  0  0  0  0  0  0  0  0  0  0
   48.7632    6.5634   20.2431 C   0  0  1  0  0  0  0  0  0  0  0  0
   50.1208    9.7837   21.6629 C   0  0  1  0  0  0  0  0  0  0  0  0
   47.7304    8.9133   21.0355 C   0  0  2  0  0  0  0  0  0  0  0  0
   48.4701    6.0569   17.7604 C   0  0  0  0  0  0  0  0  0  0  0  0
   48.5982    5.5748   19.0821 C   0  0  0  0  0  0  0  0  0  0  0  0
   51.8653   13.1685   20.5369 C   0  0  0  0  0  0  0  0  0  0  0  0
   51.8289   11.1072   22.6303 O   0  0  0  0  0  0  0  0  0  0  0  0
   49.8862    9.0148   22.9283 N   0  0  0  0  0  0  0  0  0  0  0  0
   49.9436   12.4983   18.5400 O   0  0  0  0  0  0  0  0  0  0  0  0
   48.3483    7.8829   16.2989 O   0  0  0  0  0  0  0  0  0  0  0  0
   48.3508    5.1457   16.6898 C   0  0  0  0  0  0  0  0  0  0  0  0
   47.5781   11.4566   19.4496 O   0  0  0  0  0  0  0  0  0  0  0  0
   53.0157   13.2710   20.9584 O   0  0  0  0  0  0  0  0  0  0  0  0
   49.2738   10.2310   17.2858 O   0  0  0  0  0  0  0  0  0  0  0  0
   50.1551    6.8677   20.2778 O   0  0  0  0  0  0  0  0  0  0  0  0
   46.3916    9.4667   20.8448 O   0  0  0  0  0  0  0  0  0  0  0  0
   51.3481   14.2461   19.8539 N   0  0  0  0  0  0  0  0  0  0  0  0
   48.3784    5.9629   21.6045 C   0  0  0  0  0  0  0  0  0  0  0  0
   48.6344    4.1794   19.2745 C   0  0  0  0  0  0  0  0  0  0  0  0
   48.2223    5.5402   15.3790 O   0  0  0  0  0  0  0  0  0  0  0  0
   48.5109    3.2916   18.2028 C   0  0  0  0  0  0  0  0  0  0  0  0
   48.3653    3.7745   16.9108 C   0  0  0  0  0  0  0  0  0  0  0  0
   51.0461    8.2029   23.3103 C   0  0  0  0  0  0  0  0  0  0  0  0
   49.4489    9.8239   24.0665 C   0  0  0  0  0  0  0  0  0  0  0  0
   48.8976   10.3517   20.0028 C   0  0  2  0  0  0  0  0  0  0  0  0
   48.8750    8.1787   18.7344 C   0  0  0  0  0  0  0  0  0  0  0  0
   49.3185    9.5678   21.2999 C   0  0  2  0  0  0  0  0  0  0  0  0
   49.6165   12.5366   21.1767 C   0  0  0  0  0  0  0  0  0  0  0  0
   49.0408    9.5209   18.7142 C   0  0  0  0  0  0  0  0  0  0  0  0
   48.5140    7.5157   20.0376 C   0  0  1  0  0  0  0  0  0  0  0  0
   49.5968   11.7483   19.9093 C   0  0  0  0  0  0  0  0  0  0  0  0
   49.8228   11.7482   22.2688 C   0  0  0  0  0  0  0  0  0  0  0  0
   49.0472    7.3433   17.5204 C   0  0  0  0  0  0  0  0  0  0  0  0
   48.3593    5.9624   20.0383 C   0  0  1  0  0  0  0  0  0  0  0  0
   50.4961   10.3371   21.9824 C   0  0  1  0  0  0  0  0  0  0  0  0
   49.5744    8.0748   21.0243 C   0  0  2  0  0  0  0  0  0  0  0  0
   48.3733    6.0341   17.4866 C   0  0  0  0  0  0  0  0  0  0  0  0
   48.0131    5.3782   18.6735 C   0  0  0  0  0  0  0  0  0  0  0  0
   49.1630   13.9714   21.1870 C   0  0  0  0  0  0  0  0  0  0  0  0
   49.4556   11.9296   23.4589 O   0  0  0  0  0  0  0  0  0  0  0  0
   51.2473    9.5736   23.0478 N   0  0  0  0  0  0  0  0  0  0  0  0
   49.9895   12.2425   18.8454 O   0  0  0  0  0  0  0  0  0  0  0  0
   49.7413    7.6614   16.5556 O   0  0  0  0  0  0  0  0  0  0  0  0
   48.1068    5.4492   16.2333 C   0  0  0  0  0  0  0  0  0  0  0  0
   47.4830   10.6245   20.0879 O   0  0  0  0  0  0  0  0  0  0  0  0
   49.2616   14.7636   22.1187 O   0  0  0  0  0  0  0  0  0  0  0  0
   49.2829   10.1780   17.5143 O   0  0  0  0  0  0  0  0  0  0  0  0
   49.5842    5.3205   20.4235 O   0  0  0  0  0  0  0  0  0  0  0  0
   49.5895    7.3228   22.2434 O   0  0  0  0  0  0  0  0  0  0  0  0
   48.6659   14.4440   19.9965 N   0  0  0  0  0  0  0  0  0  0  0  0
   47.2955    5.5790   21.1037 C   0  0  0  0  0  0  0  0  0  0  0  0
   47.3922    4.1114   18.5457 C   0  0  0  0  0  0  0  0  0  0  0  0
   48.4644    6.0297   15.0398 O   0  0  0  0  0  0  0  0  0  0  0  0
   47.1204    3.5427   17.2971 C   0  0  0  0  0  0  0  0  0  0  0  0
   47.4742    4.2178   16.1347 C   0  0  0  0  0  0  0  0  0  0  0  0
   51.8680   10.4818   24.0465 C   0  0  0  0  0  0  0  0  0  0  0  0
   52.3849    8.8199   22.4720 C   0  0  0  0  0  0  0  0  0  0  0  0
   49.2565    8.6204   20.2239 Ca  0  0  0  0  0 15  0  0  0  0  0  0
   48.2601   10.8713   21.7163 H   0  0  0  0  0  0  0  0  0  0  0  0
   46.9162    7.4994   19.6891 H   0  0  0  0  0  0  0  0  0  0  0  0
   50.6068    9.0942   20.9648 H   0  0  0  0  0  0  0  0  0  0  0  0
   47.6473    8.4532   22.0190 H   0  0  0  0  0  0  0  0  0  0  0  0
   47.6314   12.2708   19.9901 H   0  0  0  0  0  0  0  0  0  0  0  0
   49.3812   11.2047   17.3482 H   0  0  0  0  0  0  0  0  0  0  0  0
   50.6480    6.0598   20.4934 H   0  0  0  0  0  0  0  0  0  0  0  0
   46.4500   10.1112   20.1078 H   0  0  0  0  0  0  0  0  0  0  0  0
   52.0228   14.9657   19.6564 H   0  0  0  0  0  0  0  0  0  0  0  0
   50.6246   14.0769   19.1619 H   0  0  0  0  0  0  0  0  0  0  0  0
   48.5539    6.6609   22.4255 H   0  0  0  0  0  0  0  0  0  0  0  0
   47.3279    5.6532   21.6256 H   0  0  0  0  0  0  0  0  0  0  0  0
   49.0038    5.0989   21.8654 H   0  0  0  0  0  0  0  0  0  0  0  0
   48.7544    3.7497   20.2637 H   0  0  0  0  0  0  0  0  0  0  0  0
   48.2905    6.5217   15.3620 H   0  0  0  0  0  0  0  0  0  0  0  0
   48.5266    2.2206   18.3773 H   0  0  0  0  0  0  0  0  0  0  0  0
   48.2753    3.0919   16.0691 H   0  0  0  0  0  0  0  0  0  0  0  0
   51.9197    8.7795   23.6214 H   0  0  0  0  0  0  0  0  0  0  0  0
   50.7745    7.5546   24.1515 H   0  0  0  0  0  0  0  0  0  0  0  0
   51.3476    7.5341   22.5002 H   0  0  0  0  0  0  0  0  0  0  0  0
   49.0319    9.1575   24.8317 H   0  0  0  0  0  0  0  0  0  0  0  0
   50.2529   10.3909   24.5499 H   0  0  0  0  0  0  0  0  0  0  0  0
   48.6503   10.5195   23.8025 H   0  0  0  0  0  0  0  0  0  0  0  0
   48.4762    9.5704   22.0134 H   0  0  0  0  0  0  0  0  0  0  0  0
   47.5241    7.9111   20.3187 H   0  0  0  0  0  0  0  0  0  0  0  0
   51.2600   10.5403   21.2153 H   0  0  0  0  0  0  0  0  0  0  0  0
   50.5595    7.9466   20.5628 H   0  0  0  0  0  0  0  0  0  0  0  0
   47.3293   11.0570   20.9536 H   0  0  0  0  0  0  0  0  0  0  0  0
   49.5018   11.1175   17.6959 H   0  0  0  0  0  0  0  0  0  0  0  0
   49.8349    5.7237   21.2814 H   0  0  0  0  0  0  0  0  0  0  0  0
   49.9548    7.9373   22.9278 H   0  0  0  0  0  0  0  0  0  0  0  0
   48.8530   13.9526   19.1293 H   0  0  0  0  0  0  0  0  0  0  0  0
   48.5320   15.4423   19.9612 H   0  0  0  0  0  0  0  0  0  0  0  0
   47.4712    6.0832   22.0580 H   0  0  0  0  0  0  0  0  0  0  0  0
   47.3135    4.5073   21.3402 H   0  0  0  0  0  0  0  0  0  0  0  0
   46.2844    5.8432   20.7684 H   0  0  0  0  0  0  0  0  0  0  0  0
   47.1366    3.5275   19.4294 H   0  0  0  0  0  0  0  0  0  0  0  0
   49.0477    6.7923   15.2553 H   0  0  0  0  0  0  0  0  0  0  0  0
   46.6498    2.5619   17.2345 H   0  0  0  0  0  0  0  0  0  0  0  0
   47.2824    3.7833   15.1591 H   0  0  0  0  0  0  0  0  0  0  0  0
   52.5852    9.9403   24.6817 H   0  0  0  0  0  0  0  0  0  0  0  0
   52.4015   11.3137   23.5668 H   0  0  0  0  0  0  0  0  0  0  0  0
   51.1405   10.8608   24.7700 H   0  0  0  0  0  0  0  0  0  0  0  0
   52.9943    8.3535   23.2625 H   0  0  0  0  0  0  0  0  0  0  0  0
   53.0581    9.4427   21.8650 H   0  0  0  0  0  0  0  0  0  0  0  0
   52.0592    7.9719   21.8656 H   0  0  0  0  0  0  0  0  0  0  0  0
  2  5  2  0
  3  1  1  0
  4  7  1  0
  5  1  1  0
  6  2  1  0
  7  1  1  0
  8  4  2  0
  9  2  1  0
 10  6  1  0
  3 11  1  0
 12  3  1  0
 13  9  1  0
 14 13  2  0
 15  4  1  0
 16  8  1  0
 11 17  1  0
 18  7  2  0
 19  9  2  0
 20 13  1  0
  1 21  1  6
 22 15  2  0
 23  5  1  0
 10 24  1  1
 12 25  1  0
 26 15  1  0
 10 27  1  0
 28 14  1  0
 29 20  1  0
 30 31  1  0
 31 20  2  0
 32 17  1  0
 33 17  1  0
 12  6  1  0
 11  8  1  0
 10 14  1  0
 30 28  2  0
 35 38  2  0
 36 34  1  0
 37 40  1  0
 38 34  1  0
 39 35  1  0
 40 34  1  0
 41 37  2  0
 42 35  1  0
 43 39  1  0
 36 44  1  0
 45 36  1  0
 46 42  1  0
 47 46  2  0
 48 37  1  0
 49 41  1  0
 44 50  1  0
 51 40  2  0
 52 42  2  0
 53 46  1  0
 34 54  1  6
 55 48  2  0
 56 38  1  0
 43 57  1  1
 45 58  1  0
 59 48  1  0
 43 60  1  0
 61 47  1  0
 62 53  1  0
 63 64  1  0
 64 53  2  0
 65 50  1  0
 66 50  1  0
 45 39  1  0
 44 41  1  0
 43 47  1  0
 63 61  2  0
  3 68  1  6
  6 69  1  6
 11 70  1  1
 12 71  1  6
 21 72  1  0
 23 73  1  0
 24 74  1  0
 25 75  1  0
 26 76  1  0
 26 77  1  0
 27 78  1  0
 27 79  1  0
 27 80  1  0
 28 81  1  0
 29 82  1  0
 30 83  1  0
 31 84  1  0
 32 85  1  0
 32 86  1  0
 32 87  1  0
 33 88  1  0
 33 89  1  0
 33 90  1  0
 36 91  1  6
 39 92  1  6
 44 93  1  1
 45 94  1  1
 54 95  1  0
 56 96  1  0
 57 97  1  0
 58 98  1  0
 59 99  1  0
 59100  1  0
 60101  1  0
 60102  1  0
 60103  1  0
 61104  1  0
 62105  1  0
 63106  1  0
 64107  1  0
 65108  1  0
 65109  1  0
 65110  1  0
 66111  1  0
 66112  1  0
 66113  1  0
M  CHG  3  16  -1  49  -1  67   2
M  END
> <Uni-Dock RESULT> 
ENERGY=   -5.476  LOWER_BOUND=    6.595  UPPER_BOUND=    9.072
INTER + INTRA:          -5.476
INTER:                  -5.476
INTRA:                   0.000
UNBOUND:                 0.000

$$$$

     RDKit          3D

113118  0  0  0  0  0  0  0  0999 V2000
   49.2504   12.4776   16.0959 C   0  0  2  0  0  0  0  0  0  0  0  0
   48.8629   10.3304   17.3592 C   0  0  0  0  0  0  0  0  0  0  0  0
   49.8429   11.6911   14.9322 C   0  0  2  0  0  0  0  0  0  0  0  0
   47.8757   13.7593   14.2567 C   0  0  0  0  0  0  0  0  0  0  0  0
   48.6040   11.6425   17.1970 C   0  0  0  0  0  0  0  0  0  0  0  0
   49.7946    9.5337   16.4737 C   0  0  1  0  0  0  0  0  0  0  0  0
   48.3112   13.6108   15.6696 C   0  0  0  0  0  0  0  0  0  0  0  0
   48.1113   12.7625   13.3590 C   0  0  0  0  0  0  0  0  0  0  0  0
   48.2754    9.5417   18.4885 C   0  0  0  0  0  0  0  0  0  0  0  0
   49.0228    8.2892   15.9250 C   0  0  1  0  0  0  0  0  0  0  0  0
   48.7883   11.4164   13.8286 C   0  0  1  0  0  0  0  0  0  0  0  0
   50.5738   10.4364   15.4770 C   0  0  2  0  0  0  0  0  0  0  0  0
   48.1923    8.0603   18.3259 C   0  0  0  0  0  0  0  0  0  0  0  0
   48.5665    7.4360   17.1151 C   0  0  0  0  0  0  0  0  0  0  0  0
   47.1675   15.0414   13.8508 C   0  0  0  0  0  0  0  0  0  0  0  0
   47.8152   12.7490   12.1309 O   0  0  0  0  0  0  0  0  0  0  0  0
   49.4304   10.4856   12.8443 N   0  0  0  0  0  0  0  0  0  0  0  0
   47.9862   14.4608   16.5196 O   0  0  0  0  0  0  0  0  0  0  0  0
   47.9207   10.0317   19.5608 O   0  0  0  0  0  0  0  0  0  0  0  0
   47.7420    7.2767   19.4093 C   0  0  0  0  0  0  0  0  0  0  0  0
   50.3668   13.1299   16.7842 O   0  0  0  0  0  0  0  0  0  0  0  0
   46.3188   15.1857   12.9731 O   0  0  0  0  0  0  0  0  0  0  0  0
   47.7876   12.3125   18.1032 O   0  0  0  0  0  0  0  0  0  0  0  0
   47.8207    8.6989   15.2782 O   0  0  0  0  0  0  0  0  0  0  0  0
   51.7693   10.8983   16.1786 O   0  0  0  0  0  0  0  0  0  0  0  0
   47.4832   16.1473   14.6075 N   0  0  0  0  0  0  0  0  0  0  0  0
   49.8610    7.5014   14.9057 C   0  0  0  0  0  0  0  0  0  0  0  0
   48.4410    6.0352   17.0292 C   0  0  0  0  0  0  0  0  0  0  0  0
   47.3619    7.8130   20.6169 O   0  0  0  0  0  0  0  0  0  0  0  0
   47.9970    5.2744   18.1137 C   0  0  0  0  0  0  0  0  0  0  0  0
   47.6510    5.8946   19.3050 C   0  0  0  0  0  0  0  0  0  0  0  0
   48.4435    9.7306   12.0656 C   0  0  0  0  0  0  0  0  0  0  0  0
   50.3978   11.1151   11.9446 C   0  0  0  0  0  0  0  0  0  0  0  0
   49.2709   12.0774   15.8048 C   0  0  2  0  0  0  0  0  0  0  0  0
   48.4950   10.0765   17.1184 C   0  0  0  0  0  0  0  0  0  0  0  0
   49.3336   11.1811   14.5137 C   0  0  2  0  0  0  0  0  0  0  0  0
   49.3815   14.1577   14.2786 C   0  0  0  0  0  0  0  0  0  0  0  0
   48.5034   11.4206   16.9670 C   0  0  0  0  0  0  0  0  0  0  0  0
   49.2799    9.2358   16.1461 C   0  0  1  0  0  0  0  0  0  0  0  0
   48.7749   13.5272   15.4880 C   0  0  0  0  0  0  0  0  0  0  0  0
   49.5520   13.2640   13.2642 C   0  0  0  0  0  0  0  0  0  0  0  0
   47.7318    9.4087   18.2014 C   0  0  0  0  0  0  0  0  0  0  0  0
   49.2272    7.6861   16.3260 C   0  0  1  0  0  0  0  0  0  0  0  0
   48.6515   11.9563   13.3398 C   0  0  1  0  0  0  0  0  0  0  0  0
   48.8037    9.7573   14.7633 C   0  0  2  0  0  0  0  0  0  0  0  0
   48.1629    8.0626   18.6156 C   0  0  0  0  0  0  0  0  0  0  0  0
   48.8995    7.2428   17.7473 C   0  0  0  0  0  0  0  0  0  0  0  0
   49.9721   15.5396   14.3567 C   0  0  0  0  0  0  0  0  0  0  0  0
   50.3999   13.2718   12.3342 O   0  0  0  0  0  0  0  0  0  0  0  0
   48.3229   11.1345   12.1155 N   0  0  0  0  0  0  0  0  0  0  0  0
   48.0401   14.1749   16.2435 O   0  0  0  0  0  0  0  0  0  0  0  0
   46.7447    9.8947   18.7522 O   0  0  0  0  0  0  0  0  0  0  0  0
   47.8098    7.6116   19.9024 C   0  0  0  0  0  0  0  0  0  0  0  0
   50.6147   12.2227   16.3105 O   0  0  0  0  0  0  0  0  0  0  0  0
   50.3686   16.2203   13.4161 O   0  0  0  0  0  0  0  0  0  0  0  0
   47.8679   12.2335   17.8973 O   0  0  0  0  0  0  0  0  0  0  0  0
   48.2041    7.1042   15.5043 O   0  0  0  0  0  0  0  0  0  0  0  0
   49.2037    8.8689   13.7132 O   0  0  0  0  0  0  0  0  0  0  0  0
   49.9838   16.1089   15.6070 N   0  0  0  0  0  0  0  0  0  0  0  0
   50.5811    7.0936   15.8470 C   0  0  0  0  0  0  0  0  0  0  0  0
   49.2490    5.9542   18.2206 C   0  0  0  0  0  0  0  0  0  0  0  0
   47.0634    8.3575   20.7834 O   0  0  0  0  0  0  0  0  0  0  0  0
   48.9046    5.5184   19.5042 C   0  0  0  0  0  0  0  0  0  0  0  0
   48.1863    6.3537   20.3517 C   0  0  0  0  0  0  0  0  0  0  0  0
   48.2911   11.9644   10.8834 C   0  0  0  0  0  0  0  0  0  0  0  0
   46.9651   10.5495   12.2056 C   0  0  0  0  0  0  0  0  0  0  0  0
   48.8250   10.3669   15.5803 Ca  0  0  0  0  0 15  0  0  0  0  0  0
   50.6218   12.3356   14.4930 H   0  0  0  0  0  0  0  0  0  0  0  0
   50.5727    9.1319   17.1423 H   0  0  0  0  0  0  0  0  0  0  0  0
   47.9749   10.8567   14.3019 H   0  0  0  0  0  0  0  0  0  0  0  0
   51.0004    9.8570   14.6596 H   0  0  0  0  0  0  0  0  0  0  0  0
   50.6442   13.8754   16.2140 H   0  0  0  0  0  0  0  0  0  0  0  0
   47.8374   13.2773   17.9293 H   0  0  0  0  0  0  0  0  0  0  0  0
   47.3662    7.9136   14.9334 H   0  0  0  0  0  0  0  0  0  0  0  0
   51.4902   11.6287   16.7706 H   0  0  0  0  0  0  0  0  0  0  0  0
   46.8822   16.9376   14.4449 H   0  0  0  0  0  0  0  0  0  0  0  0
   47.8265   16.0038   15.5521 H   0  0  0  0  0  0  0  0  0  0  0  0
   50.1305    8.1084   14.0391 H   0  0  0  0  0  0  0  0  0  0  0  0
   50.7779    7.1074   15.3571 H   0  0  0  0  0  0  0  0  0  0  0  0
   49.2989    6.6660   14.4678 H   0  0  0  0  0  0  0  0  0  0  0  0
   48.6909    5.5017   16.1179 H   0  0  0  0  0  0  0  0  0  0  0  0
   47.4149    8.7918   20.5306 H   0  0  0  0  0  0  0  0  0  0  0  0
   47.9227    4.1951   18.0287 H   0  0  0  0  0  0  0  0  0  0  0  0
   47.2978    5.3122   20.1528 H   0  0  0  0  0  0  0  0  0  0  0  0
   47.8571   10.3347   11.3703 H   0  0  0  0  0  0  0  0  0  0  0  0
   48.9576    8.9667   11.4707 H   0  0  0  0  0  0  0  0  0  0  0  0
   47.7524    9.1897   12.7170 H   0  0  0  0  0  0  0  0  0  0  0  0
   51.0090   10.3306   11.4815 H   0  0  0  0  0  0  0  0  0  0  0  0
   49.9444   11.6836   11.1244 H   0  0  0  0  0  0  0  0  0  0  0  0
   51.0937   11.7702   12.4715 H   0  0  0  0  0  0  0  0  0  0  0  0
   50.3895   11.0304   14.2290 H   0  0  0  0  0  0  0  0  0  0  0  0
   50.3376    9.5134   16.2852 H   0  0  0  0  0  0  0  0  0  0  0  0
   47.6695   12.3107   13.6910 H   0  0  0  0  0  0  0  0  0  0  0  0
   47.7083    9.7652   14.7693 H   0  0  0  0  0  0  0  0  0  0  0  0
   51.1665   12.5350   15.5636 H   0  0  0  0  0  0  0  0  0  0  0  0
   47.8625   13.1593   17.5709 H   0  0  0  0  0  0  0  0  0  0  0  0
   48.3847    7.4212   14.5942 H   0  0  0  0  0  0  0  0  0  0  0  0
   49.2350    9.4249   12.8951 H   0  0  0  0  0  0  0  0  0  0  0  0
   49.3939   15.7413   16.3456 H   0  0  0  0  0  0  0  0  0  0  0  0
   50.2134   17.0902   15.6223 H   0  0  0  0  0  0  0  0  0  0  0  0
   50.8819    7.4929   14.8744 H   0  0  0  0  0  0  0  0  0  0  0  0
   50.5304    6.0063   15.7051 H   0  0  0  0  0  0  0  0  0  0  0  0
   51.3855    7.3131   16.5605 H   0  0  0  0  0  0  0  0  0  0  0  0
   49.7744    5.2503   17.5758 H   0  0  0  0  0  0  0  0  0  0  0  0
   46.7217    9.1336   20.2843 H   0  0  0  0  0  0  0  0  0  0  0  0
   49.1812    4.5172   19.8336 H   0  0  0  0  0  0  0  0  0  0  0  0
   47.8998    6.0246   21.3453 H   0  0  0  0  0  0  0  0  0  0  0  0
   47.8419   11.4109   10.0451 H   0  0  0  0  0  0  0  0  0  0  0  0
   47.7141   12.8880   11.0272 H   0  0  0  0  0  0  0  0  0  0  0  0
   49.2943   12.1942   10.5130 H   0  0  0  0  0  0  0  0  0  0  0  0
   46.6868   10.0430   11.2677 H   0  0  0  0  0  0  0  0  0  0  0  0
   46.1834   11.2927   12.4201 H   0  0  0  0  0  0  0  0  0  0  0  0
   46.9016    9.7563   12.9537 H   0  0  0  0  0  0  0  0  0  0  0  0
  2  5  2  0
  3  1  1  0
  4  7  1  0
  5  1  1  0
  6  2  1  0
  7  1  1  0
  8  4  2  0
  9  2  1  0
 10  6  1  0
  3 11  1  0
 12  3  1  0
 13  9  1  0
 14 13  2  0
 15  4  1  0
 16  8  1  0
 11 17  1  0
 18  7  2  0
 19  9  2  0
 20 13  1  0
  1 21  1  6
 22 15  2  0
 23  5  1  0
 10 24  1  1
 12 25  1  0
 26 15  1  0
 10 27  1  0
 28 14  1  0
 29 20  1  0
 30 31  1  0
 31 20  2  0
 32 17  1  0
 33 17  1  0
 12  6  1  0
 11  8  1  0
 10 14  1  0
 30 28  2  0
 35 38  2  0
 36 34  1  0
 37 40  1  0
 38 34  1  0
 39 35  1  0
 40 34  1  0
 41 37  2  0
 42 35  1  0
 43 39  1  0
 36 44  1  0
 45 36  1  0
 46 42  1  0
 47 46  2  0
 48 37  1  0
 49 41  1  0
 44 50  1  0
 51 40  2  0
 52 42  2  0
 53 46  1  0
 34 54  1  6
 55 48  2  0
 56 38  1  0
 43 57  1  1
 45 58  1  0
 59 48  1  0
 43 60  1  0
 61 47  1  0
 62 53  1  0
 63 64  1  0
 64 53  2  0
 65 50  1  0
 66 50  1  0
 45 39  1  0
 44 41  1  0
 43 47  1  0
 63 61  2  0
  3 68  1  6
  6 69  1  6
 11 70  1  1
 12 71  1  6
 21 72  1  0
 23 73  1  0
 24 74  1  0
 25 75  1  0
 26 76  1  0
 26 77  1  0
 27 78  1  0
 27 79  1  0
 27 80  1  0
 28 81  1  0
 29 82  1  0
 30 83  1  0
 31 84  1  0
 32 85  1  0
 32 86  1  0
 32 87  1  0
 33 88  1  0
 33 89  1  0
 33 90  1  0
 36 91  1  6
 39 92  1  6
 44 93  1  1
 45 94  1  1
 54 95  1  0
 56 96  1  0
 57 97  1  0
 58 98  1  0
 59 99  1  0
 59100  1  0
 60101  1  0
 60102  1  0
 60103  1  0
 61104  1  0
 62105  1  0
 63106  1  0
 64107  1  0
 65108  1  0
 65109  1  0
 65110  1  0
 66111  1  0
 66112  1  0
 66113  1  0
M  CHG  3  16  -1  49  -1  67   2
M  END
> <Uni-Dock RESULT> 
ENERGY=   -5.473  LOWER_BOUND=    2.733  UPPER_BOUND=    7.319
INTER + INTRA:          -5.473
INTER:                  -5.473
INTRA:                   0.000
UNBOUND:                 0.000

$$$$
