
     RDKit          3D

113118  0  0  0  0  0  0  0  0999 V2000
   43.7901   11.6900    9.6764 C   0  0  2  0  0  0  0  0  0  0  0  0
   45.3064   12.1989    7.7608 C   0  0  0  0  0  0  0  0  0  0  0  0
   43.9819   13.1186   10.1507 C   0  0  2  0  0  0  0  0  0  0  0  0
   41.2264   12.1966    9.8177 C   0  0  0  0  0  0  0  0  0  0  0  0
   44.2658   11.4892    8.2543 C   0  0  0  0  0  0  0  0  0  0  0  0
   46.1101   13.2010    8.5794 C   0  0  1  0  0  0  0  0  0  0  0  0
   42.3588   11.2223    9.9439 C   0  0  0  0  0  0  0  0  0  0  0  0
   41.4839   13.5113    9.5375 C   0  0  0  0  0  0  0  0  0  0  0  0
   45.7583   11.9551    6.3628 C   0  0  0  0  0  0  0  0  0  0  0  0
   46.5036   14.4563    7.7265 C   0  0  1  0  0  0  0  0  0  0  0  0
   42.9680   14.0509    9.4157 C   0  0  1  0  0  0  0  0  0  0  0  0
   45.4708   13.5170    9.9679 C   0  0  2  0  0  0  0  0  0  0  0  0
   46.8464   12.7943    5.8135 C   0  0  0  0  0  0  0  0  0  0  0  0
   47.2283   13.9905    6.4536 C   0  0  0  0  0  0  0  0  0  0  0  0
   39.8004   11.6729    9.9721 C   0  0  0  0  0  0  0  0  0  0  0  0
   40.6486   14.4296    9.3051 O   0  0  0  0  0  0  0  0  0  0  0  0
   43.3231   15.4643    9.8001 N   0  0  0  0  0  0  0  0  0  0  0  0
   42.1688   10.0353   10.2604 O   0  0  0  0  0  0  0  0  0  0  0  0
   45.2710   11.0558    5.6761 O   0  0  0  0  0  0  0  0  0  0  0  0
   47.5049   12.3650    4.6462 C   0  0  0  0  0  0  0  0  0  0  0  0
   44.6393   10.8129   10.4711 O   0  0  0  0  0  0  0  0  0  0  0  0
   38.7521   12.1988    9.6063 O   0  0  0  0  0  0  0  0  0  0  0  0
   43.5919   10.5169    7.5366 O   0  0  0  0  0  0  0  0  0  0  0  0
   45.3400   15.1425    7.2713 O   0  0  0  0  0  0  0  0  0  0  0  0
   46.2680   12.8245   10.9640 O   0  0  0  0  0  0  0  0  0  0  0  0
   39.6778   10.4487   10.5805 N   0  0  0  0  0  0  0  0  0  0  0  0
   47.3450   15.4664    8.5367 C   0  0  0  0  0  0  0  0  0  0  0  0
   48.2671   14.7347    5.8591 C   0  0  0  0  0  0  0  0  0  0  0  0
   47.1842   11.2092    3.9764 O   0  0  0  0  0  0  0  0  0  0  0  0
   48.9204   14.2958    4.7063 C   0  0  0  0  0  0  0  0  0  0  0  0
   48.5448   13.1058    4.1015 C   0  0  0  0  0  0  0  0  0  0  0  0
   42.7267   16.4644    8.8972 C   0  0  0  0  0  0  0  0  0  0  0  0
   42.9240   15.7937   11.1766 C   0  0  0  0  0  0  0  0  0  0  0  0
   44.2927   14.1198   10.1025 C   0  0  2  0  0  0  0  0  0  0  0  0
   46.1192   13.3771    8.4845 C   0  0  0  0  0  0  0  0  0  0  0  0
   43.4216   14.4246    8.8747 C   0  0  2  0  0  0  0  0  0  0  0  0
   42.4673   12.2863   10.5768 C   0  0  0  0  0  0  0  0  0  0  0  0
   45.6787   13.5582    9.7543 C   0  0  0  0  0  0  0  0  0  0  0  0
   45.2524   13.6828    7.2845 C   0  0  1  0  0  0  0  0  0  0  0  0
   43.5612   13.1717   11.1055 C   0  0  0  0  0  0  0  0  0  0  0  0
   41.6945   12.8274    9.5959 C   0  0  0  0  0  0  0  0  0  0  0  0
   47.5181   12.9316    8.2604 C   0  0  0  0  0  0  0  0  0  0  0  0
   45.6161   12.9473    5.9517 C   0  0  1  0  0  0  0  0  0  0  0  0
   41.9214   14.3270    9.2578 C   0  0  1  0  0  0  0  0  0  0  0  0
   43.7850   13.4462    7.7236 C   0  0  2  0  0  0  0  0  0  0  0  0
   47.9723   12.5838    6.8979 C   0  0  0  0  0  0  0  0  0  0  0  0
   47.0846   12.5579    5.8153 C   0  0  0  0  0  0  0  0  0  0  0  0
   42.3401   10.8753   11.0940 C   0  0  0  0  0  0  0  0  0  0  0  0
   40.8350   12.3291    8.8132 O   0  0  0  0  0  0  0  0  0  0  0  0
   41.4931   15.2400   10.3680 N   0  0  0  0  0  0  0  0  0  0  0  0
   43.9142   13.0971   12.2920 O   0  0  0  0  0  0  0  0  0  0  0  0
   48.3120   12.8482    9.2011 O   0  0  0  0  0  0  0  0  0  0  0  0
   49.3254   12.2272    6.7035 C   0  0  0  0  0  0  0  0  0  0  0  0
   44.5908   15.3578   10.7871 O   0  0  0  0  0  0  0  0  0  0  0  0
   41.4530   10.0646   10.8439 O   0  0  0  0  0  0  0  0  0  0  0  0
   46.4870   13.3514   10.8674 O   0  0  0  0  0  0  0  0  0  0  0  0
   44.9050   11.7137    5.8348 O   0  0  0  0  0  0  0  0  0  0  0  0
   42.8692   13.5531    6.6341 O   0  0  0  0  0  0  0  0  0  0  0  0
   43.3306   10.4860   11.9660 N   0  0  0  0  0  0  0  0  0  0  0  0
   45.2109   13.8497    4.7565 C   0  0  0  0  0  0  0  0  0  0  0  0
   47.5809   12.0989    4.5700 C   0  0  0  0  0  0  0  0  0  0  0  0
   50.2649   12.2411    7.7027 O   0  0  0  0  0  0  0  0  0  0  0  0
   48.9177   11.7487    4.3887 C   0  0  0  0  0  0  0  0  0  0  0  0
   49.7967   11.8218    5.4588 C   0  0  0  0  0  0  0  0  0  0  0  0
   40.0821   14.9954   10.7173 C   0  0  0  0  0  0  0  0  0  0  0  0
   41.6383   16.6461    9.9791 C   0  0  0  0  0  0  0  0  0  0  0  0
   44.5858   13.3732    8.4557 Ca  0  0  0  0  0 15  0  0  0  0  0  0
   43.7736   13.1285   11.2304 H   0  0  0  0  0  0  0  0  0  0  0  0
   47.0627   12.6864    8.7918 H   0  0  0  0  0  0  0  0  0  0  0  0
   43.1890   13.9841    8.3419 H   0  0  0  0  0  0  0  0  0  0  0  0
   45.5895   14.5632   10.2354 H   0  0  0  0  0  0  0  0  0  0  0  0
   44.3439    9.9168   10.2010 H   0  0  0  0  0  0  0  0  0  0  0  0
   43.9556   10.4965    6.6230 H   0  0  0  0  0  0  0  0  0  0  0  0
   44.8619   15.4713    8.0607 H   0  0  0  0  0  0  0  0  0  0  0  0
   45.9093   11.9095   11.0227 H   0  0  0  0  0  0  0  0  0  0  0  0
   38.7610   10.0361   10.5386 H   0  0  0  0  0  0  0  0  0  0  0  0
   40.4928    9.8514   10.6855 H   0  0  0  0  0  0  0  0  0  0  0  0
   47.5477   16.3723    7.9523 H   0  0  0  0  0  0  0  0  0  0  0  0
   48.2956   15.0337    8.8630 H   0  0  0  0  0  0  0  0  0  0  0  0
   46.8172   15.8474    9.4167 H   0  0  0  0  0  0  0  0  0  0  0  0
   48.5933   15.6831    6.2744 H   0  0  0  0  0  0  0  0  0  0  0  0
   46.3514   10.8646    4.3633 H   0  0  0  0  0  0  0  0  0  0  0  0
   49.7286   14.8856    4.2775 H   0  0  0  0  0  0  0  0  0  0  0  0
   49.0538   12.7563    3.2085 H   0  0  0  0  0  0  0  0  0  0  0  0
   42.7836   16.1561    7.8476 H   0  0  0  0  0  0  0  0  0  0  0  0
   41.6904   16.7335    9.1314 H   0  0  0  0  0  0  0  0  0  0  0  0
   43.3081   17.3894    8.9727 H   0  0  0  0  0  0  0  0  0  0  0  0
   43.2258   16.8231   11.4153 H   0  0  0  0  0  0  0  0  0  0  0  0
   43.4311   15.1541   11.9099 H   0  0  0  0  0  0  0  0  0  0  0  0
   41.8419   15.7257   11.3528 H   0  0  0  0  0  0  0  0  0  0  0  0
   43.6085   15.4426    8.5095 H   0  0  0  0  0  0  0  0  0  0  0  0
   45.4026   14.7563    7.0933 H   0  0  0  0  0  0  0  0  0  0  0  0
   41.3354   14.6207    8.3687 H   0  0  0  0  0  0  0  0  0  0  0  0
   43.7220   12.4041    8.0619 H   0  0  0  0  0  0  0  0  0  0  0  0
   44.9625   15.0550   11.6400 H   0  0  0  0  0  0  0  0  0  0  0  0
   47.3803   13.0857   10.5618 H   0  0  0  0  0  0  0  0  0  0  0  0
   43.9514   11.9441    5.8173 H   0  0  0  0  0  0  0  0  0  0  0  0
   42.0293   13.1508    6.9807 H   0  0  0  0  0  0  0  0  0  0  0  0
   43.8669   11.2043   12.4543 H   0  0  0  0  0  0  0  0  0  0  0  0
   43.1434    9.6208   12.4494 H   0  0  0  0  0  0  0  0  0  0  0  0
   45.2057   13.2998    3.8097 H   0  0  0  0  0  0  0  0  0  0  0  0
   45.8860   14.7070    4.6553 H   0  0  0  0  0  0  0  0  0  0  0  0
   44.1983   14.2465    4.8501 H   0  0  0  0  0  0  0  0  0  0  0  0
   46.9084   11.9861    3.7210 H   0  0  0  0  0  0  0  0  0  0  0  0
   49.7965   12.4415    8.5434 H   0  0  0  0  0  0  0  0  0  0  0  0
   49.2631   11.4003    3.4203 H   0  0  0  0  0  0  0  0  0  0  0  0
   50.8378   11.5521    5.3292 H   0  0  0  0  0  0  0  0  0  0  0  0
   39.9435   14.0062   11.1674 H   0  0  0  0  0  0  0  0  0  0  0  0
   39.4139   15.0954    9.8523 H   0  0  0  0  0  0  0  0  0  0  0  0
   39.7541   15.7134   11.4796 H   0  0  0  0  0  0  0  0  0  0  0  0
   41.2838   17.3075   10.7807 H   0  0  0  0  0  0  0  0  0  0  0  0
   41.0740   16.8897    9.0704 H   0  0  0  0  0  0  0  0  0  0  0  0
   42.6837   16.9217    9.8167 H   0  0  0  0  0  0  0  0  0  0  0  0
  2  5  2  0
  3  1  1  0
  4  7  1  0
  5  1  1  0
  6  2  1  0
  7  1  1  0
  8  4  2  0
  9  2  1  0
 10  6  1  0
  3 11  1  0
 12  3  1  0
 13  9  1  0
 14 13  2  0
 15  4  1  0
 16  8  1  0
 11 17  1  0
 18  7  2  0
 19  9  2  0
 20 13  1  0
  1 21  1  6
 22 15  2  0
 23  5  1  0
 10 24  1  1
 12 25  1  0
 26 15  1  0
 10 27  1  0
 28 14  1  0
 29 20  1  0
 30 31  1  0
 31 20  2  0
 32 17  1  0
 33 17  1  0
 12  6  1  0
 11  8  1  0
 10 14  1  0
 30 28  2  0
 35 38  2  0
 36 34  1  0
 37 40  1  0
 38 34  1  0
 39 35  1  0
 40 34  1  0
 41 37  2  0
 42 35  1  0
 43 39  1  0
 36 44  1  0
 45 36  1  0
 46 42  1  0
 47 46  2  0
 48 37  1  0
 49 41  1  0
 44 50  1  0
 51 40  2  0
 52 42  2  0
 53 46  1  0
 34 54  1  6
 55 48  2  0
 56 38  1  0
 43 57  1  1
 45 58  1  0
 59 48  1  0
 43 60  1  0
 61 47  1  0
 62 53  1  0
 63 64  1  0
 64 53  2  0
 65 50  1  0
 66 50  1  0
 45 39  1  0
 44 41  1  0
 43 47  1  0
 63 61  2  0
  3 68  1  6
  6 69  1  6
 11 70  1  1
 12 71  1  6
 21 72  1  0
 23 73  1  0
 24 74  1  0
 25 75  1  0
 26 76  1  0
 26 77  1  0
 27 78  1  0
 27 79  1  0
 27 80  1  0
 28 81  1  0
 29 82  1  0
 30 83  1  0
 31 84  1  0
 32 85  1  0
 32 86  1  0
 32 87  1  0
 33 88  1  0
 33 89  1  0
 33 90  1  0
 36 91  1  6
 39 92  1  6
 44 93  1  1
 45 94  1  1
 54 95  1  0
 56 96  1  0
 57 97  1  0
 58 98  1  0
 59 99  1  0
 59100  1  0
 60101  1  0
 60102  1  0
 60103  1  0
 61104  1  0
 62105  1  0
 63106  1  0
 64107  1  0
 65108  1  0
 65109  1  0
 65110  1  0
 66111  1  0
 66112  1  0
 66113  1  0
M  CHG  3  16  -1  49  -1  67   2
M  END
> <Uni-Dock RESULT> 
ENERGY=   -4.942  LOWER_BOUND=    0.000  UPPER_BOUND=    0.000
INTER + INTRA:          -4.942
INTER:                  -4.942
INTRA:                   0.000
UNBOUND:                 0.000

$$$$

     RDKit          3D

113118  0  0  0  0  0  0  0  0999 V2000
   51.7779    9.2728   16.1796 C   0  0  2  0  0  0  0  0  0  0  0  0
   50.3863   10.8053   17.5733 C   0  0  0  0  0  0  0  0  0  0  0  0
   50.5761    8.3529   16.0697 C   0  0  2  0  0  0  0  0  0  0  0  0
   51.8479    9.1687   13.5655 C   0  0  0  0  0  0  0  0  0  0  0  0
   51.4045   10.6445   16.6973 C   0  0  0  0  0  0  0  0  0  0  0  0
   49.5746    9.6512   18.1473 C   0  0  1  0  0  0  0  0  0  0  0  0
   52.5730    9.2771   14.8732 C   0  0  0  0  0  0  0  0  0  0  0  0
   50.4907    8.9929   13.5491 C   0  0  0  0  0  0  0  0  0  0  0  0
   50.0651   12.1699   18.0764 C   0  0  0  0  0  0  0  0  0  0  0  0
   48.0579   10.0250   18.2804 C   0  0  1  0  0  0  0  0  0  0  0  0
   49.6668    8.8241   14.8913 C   0  0  1  0  0  0  0  0  0  0  0  0
   49.8619    8.2866   17.4460 C   0  0  2  0  0  0  0  0  0  0  0  0
   48.8996   12.3383   18.9726 C   0  0  0  0  0  0  0  0  0  0  0  0
   47.9308   11.3221   19.0953 C   0  0  0  0  0  0  0  0  0  0  0  0
   52.6566    9.2973   12.2767 C   0  0  0  0  0  0  0  0  0  0  0  0
   49.7255    8.9806   12.5445 O   0  0  0  0  0  0  0  0  0  0  0  0
   48.4182    7.9817   14.9449 N   0  0  0  0  0  0  0  0  0  0  0  0
   53.8111    9.3727   14.9292 O   0  0  0  0  0  0  0  0  0  0  0  0
   50.7643   13.1429   17.7899 O   0  0  0  0  0  0  0  0  0  0  0  0
   48.7863   13.5290   19.7143 C   0  0  0  0  0  0  0  0  0  0  0  0
   52.6873    8.7399   17.1851 O   0  0  0  0  0  0  0  0  0  0  0  0
   52.2512    9.5527   11.1455 O   0  0  0  0  0  0  0  0  0  0  0  0
   52.1968   11.6842   16.2434 O   0  0  0  0  0  0  0  0  0  0  0  0
   47.4970   10.3219   17.0041 O   0  0  0  0  0  0  0  0  0  0  0  0
   50.6768    7.5082   18.3611 O   0  0  0  0  0  0  0  0  0  0  0  0
   54.0122    9.1242   12.4041 N   0  0  0  0  0  0  0  0  0  0  0  0
   47.2289    8.8734   18.8897 C   0  0  0  0  0  0  0  0  0  0  0  0
   46.8478   11.5674   19.9631 C   0  0  0  0  0  0  0  0  0  0  0  0
   49.6962   14.5558   19.6435 O   0  0  0  0  0  0  0  0  0  0  0  0
   46.7491   12.7478   20.7015 C   0  0  0  0  0  0  0  0  0  0  0  0
   47.7226   13.7283   20.5836 C   0  0  0  0  0  0  0  0  0  0  0  0
   47.3109    8.5584   14.1623 C   0  0  0  0  0  0  0  0  0  0  0  0
   48.6430    6.6061   14.4761 C   0  0  0  0  0  0  0  0  0  0  0  0
   49.5748    8.0544   16.1681 C   0  0  2  0  0  0  0  0  0  0  0  0
   49.3789    9.6837   18.1207 C   0  0  0  0  0  0  0  0  0  0  0  0
   49.0563    9.1813   15.2623 C   0  0  2  0  0  0  0  0  0  0  0  0
   51.7765    8.3304   14.7556 C   0  0  0  0  0  0  0  0  0  0  0  0
   49.7136    8.4595   17.6426 C   0  0  0  0  0  0  0  0  0  0  0  0
   48.8678   10.7838   17.2187 C   0  0  1  0  0  0  0  0  0  0  0  0
   50.9218    7.4657   15.6398 C   0  0  0  0  0  0  0  0  0  0  0  0
   51.1019    9.1411   13.8955 C   0  0  0  0  0  0  0  0  0  0  0  0
   49.4485    9.9335   19.5830 C   0  0  0  0  0  0  0  0  0  0  0  0
   49.0397   12.2508   17.7361 C   0  0  1  0  0  0  0  0  0  0  0  0
   49.5605    8.9629   13.8114 C   0  0  1  0  0  0  0  0  0  0  0  0
   49.5126   10.5546   15.8281 C   0  0  2  0  0  0  0  0  0  0  0  0
   49.2349   11.2976   20.1094 C   0  0  0  0  0  0  0  0  0  0  0  0
   49.0731   12.3946   19.2544 C   0  0  0  0  0  0  0  0  0  0  0  0
   53.2758    8.3035   14.9176 C   0  0  0  0  0  0  0  0  0  0  0  0
   51.4701   10.1042   13.1629 O   0  0  0  0  0  0  0  0  0  0  0  0
   49.1636    7.6541   13.1959 N   0  0  0  0  0  0  0  0  0  0  0  0
   51.3133    6.3428   15.9914 O   0  0  0  0  0  0  0  0  0  0  0  0
   49.6828    9.0125   20.3699 O   0  0  0  0  0  0  0  0  0  0  0  0
   49.2410   11.4943   21.5084 C   0  0  0  0  0  0  0  0  0  0  0  0
   48.5981    6.9889   16.1998 O   0  0  0  0  0  0  0  0  0  0  0  0
   54.1133    8.8658   14.2183 O   0  0  0  0  0  0  0  0  0  0  0  0
   50.1158    7.4142   18.4676 O   0  0  0  0  0  0  0  0  0  0  0  0
   50.2784   12.8096   17.2951 O   0  0  0  0  0  0  0  0  0  0  0  0
   49.2312   11.6176   14.9183 O   0  0  0  0  0  0  0  0  0  0  0  0
   53.7325    7.5308   15.9603 N   0  0  0  0  0  0  0  0  0  0  0  0
   47.8899   13.1206   17.1631 C   0  0  0  0  0  0  0  0  0  0  0  0
   48.9926   13.6805   19.8440 C   0  0  0  0  0  0  0  0  0  0  0  0
   49.3765   10.4761   22.4173 O   0  0  0  0  0  0  0  0  0  0  0  0
   49.0003   13.8640   21.2256 C   0  0  0  0  0  0  0  0  0  0  0  0
   49.1160   12.7643   22.0625 C   0  0  0  0  0  0  0  0  0  0  0  0
   49.7755    7.5080   11.8629 C   0  0  0  0  0  0  0  0  0  0  0  0
   47.7078    7.5599   13.0516 C   0  0  0  0  0  0  0  0  0  0  0  0
   49.6673    9.8268   16.6212 Ca  0  0  0  0  0 15  0  0  0  0  0  0
   50.9621    7.3457   15.8556 H   0  0  0  0  0  0  0  0  0  0  0  0
   49.9375    9.5443   19.1838 H   0  0  0  0  0  0  0  0  0  0  0  0
   49.3330    9.8430   15.1294 H   0  0  0  0  0  0  0  0  0  0  0  0
   48.9596    7.6898   17.3448 H   0  0  0  0  0  0  0  0  0  0  0  0
   53.4837    9.3041   17.0825 H   0  0  0  0  0  0  0  0  0  0  0  0
   51.8453   12.5263   16.6105 H   0  0  0  0  0  0  0  0  0  0  0  0
   47.5443    9.5069   16.4625 H   0  0  0  0  0  0  0  0  0  0  0  0
   51.6110    7.7727   18.1979 H   0  0  0  0  0  0  0  0  0  0  0  0
   54.5559    9.3645   11.5922 H   0  0  0  0  0  0  0  0  0  0  0  0
   54.4426    9.1555   13.3238 H   0  0  0  0  0  0  0  0  0  0  0  0
   46.1601    9.1198   18.9061 H   0  0  0  0  0  0  0  0  0  0  0  0
   47.5539    8.6328   19.9066 H   0  0  0  0  0  0  0  0  0  0  0  0
   47.2674    7.9597   18.2881 H   0  0  0  0  0  0  0  0  0  0  0  0
   46.0448   10.8470   20.0840 H   0  0  0  0  0  0  0  0  0  0  0  0
   50.3019   14.3631   18.8965 H   0  0  0  0  0  0  0  0  0  0  0  0
   45.9075   12.9033   21.3743 H   0  0  0  0  0  0  0  0  0  0  0  0
   47.6543   14.6454   21.1604 H   0  0  0  0  0  0  0  0  0  0  0  0
   47.2399    9.6442   14.2894 H   0  0  0  0  0  0  0  0  0  0  0  0
   47.3380    8.3286   13.0910 H   0  0  0  0  0  0  0  0  0  0  0  0
   46.3690    8.1473   14.5403 H   0  0  0  0  0  0  0  0  0  0  0  0
   47.7118    6.0283   14.5577 H   0  0  0  0  0  0  0  0  0  0  0  0
   49.3783    6.0806   15.0983 H   0  0  0  0  0  0  0  0  0  0  0  0
   48.9716    6.5424   13.4298 H   0  0  0  0  0  0  0  0  0  0  0  0
   47.9590    9.1860   15.2385 H   0  0  0  0  0  0  0  0  0  0  0  0
   47.7835   10.6091   17.1462 H   0  0  0  0  0  0  0  0  0  0  0  0
   49.1090    9.7523   13.1844 H   0  0  0  0  0  0  0  0  0  0  0  0
   50.5996   10.5737   15.9783 H   0  0  0  0  0  0  0  0  0  0  0  0
   49.0872    6.2528   16.6193 H   0  0  0  0  0  0  0  0  0  0  0  0
   50.0895    7.7211   19.3988 H   0  0  0  0  0  0  0  0  0  0  0  0
   50.2426   12.8236   16.3147 H   0  0  0  0  0  0  0  0  0  0  0  0
   49.8784   11.4821   14.1765 H   0  0  0  0  0  0  0  0  0  0  0  0
   53.1259    6.7995   16.3335 H   0  0  0  0  0  0  0  0  0  0  0  0
   54.7274    7.3655   15.9515 H   0  0  0  0  0  0  0  0  0  0  0  0
   48.0880   14.1913   17.2784 H   0  0  0  0  0  0  0  0  0  0  0  0
   46.9344   12.8911   17.6480 H   0  0  0  0  0  0  0  0  0  0  0  0
   47.7481   12.9808   16.0898 H   0  0  0  0  0  0  0  0  0  0  0  0
   48.9468   14.5687   19.2156 H   0  0  0  0  0  0  0  0  0  0  0  0
   49.5576    9.6529   21.9113 H   0  0  0  0  0  0  0  0  0  0  0  0
   48.9377   14.8643   21.6427 H   0  0  0  0  0  0  0  0  0  0  0  0
   49.1229   12.8953   23.1378 H   0  0  0  0  0  0  0  0  0  0  0  0
   50.8648    7.4103   11.9274 H   0  0  0  0  0  0  0  0  0  0  0  0
   49.5267    8.3428   11.1950 H   0  0  0  0  0  0  0  0  0  0  0  0
   49.4253    6.5827   11.3883 H   0  0  0  0  0  0  0  0  0  0  0  0
   47.4278    6.6176   12.5624 H   0  0  0  0  0  0  0  0  0  0  0  0
   47.2919    8.3822   12.4562 H   0  0  0  0  0  0  0  0  0  0  0  0
   47.1988    7.5468   14.0191 H   0  0  0  0  0  0  0  0  0  0  0  0
  2  5  2  0
  3  1  1  0
  4  7  1  0
  5  1  1  0
  6  2  1  0
  7  1  1  0
  8  4  2  0
  9  2  1  0
 10  6  1  0
  3 11  1  0
 12  3  1  0
 13  9  1  0
 14 13  2  0
 15  4  1  0
 16  8  1  0
 11 17  1  0
 18  7  2  0
 19  9  2  0
 20 13  1  0
  1 21  1  6
 22 15  2  0
 23  5  1  0
 10 24  1  1
 12 25  1  0
 26 15  1  0
 10 27  1  0
 28 14  1  0
 29 20  1  0
 30 31  1  0
 31 20  2  0
 32 17  1  0
 33 17  1  0
 12  6  1  0
 11  8  1  0
 10 14  1  0
 30 28  2  0
 35 38  2  0
 36 34  1  0
 37 40  1  0
 38 34  1  0
 39 35  1  0
 40 34  1  0
 41 37  2  0
 42 35  1  0
 43 39  1  0
 36 44  1  0
 45 36  1  0
 46 42  1  0
 47 46  2  0
 48 37  1  0
 49 41  1  0
 44 50  1  0
 51 40  2  0
 52 42  2  0
 53 46  1  0
 34 54  1  6
 55 48  2  0
 56 38  1  0
 43 57  1  1
 45 58  1  0
 59 48  1  0
 43 60  1  0
 61 47  1  0
 62 53  1  0
 63 64  1  0
 64 53  2  0
 65 50  1  0
 66 50  1  0
 45 39  1  0
 44 41  1  0
 43 47  1  0
 63 61  2  0
  3 68  1  6
  6 69  1  6
 11 70  1  1
 12 71  1  6
 21 72  1  0
 23 73  1  0
 24 74  1  0
 25 75  1  0
 26 76  1  0
 26 77  1  0
 27 78  1  0
 27 79  1  0
 27 80  1  0
 28 81  1  0
 29 82  1  0
 30 83  1  0
 31 84  1  0
 32 85  1  0
 32 86  1  0
 32 87  1  0
 33 88  1  0
 33 89  1  0
 33 90  1  0
 36 91  1  6
 39 92  1  6
 44 93  1  1
 45 94  1  1
 54 95  1  0
 56 96  1  0
 57 97  1  0
 58 98  1  0
 59 99  1  0
 59100  1  0
 60101  1  0
 60102  1  0
 60103  1  0
 61104  1  0
 62105  1  0
 63106  1  0
 64107  1  0
 65108  1  0
 65109  1  0
 65110  1  0
 66111  1  0
 66112  1  0
 66113  1  0
M  CHG  3  16  -1  49  -1  67   2
M  END
> <Uni-Dock RESULT> 
ENERGY=   -4.819  LOWER_BOUND=    9.047  UPPER_BOUND=   12.265
INTER + INTRA:          -4.819
INTER:                  -4.819
INTRA:                   0.000
UNBOUND:                 0.000

$$$$

     RDKit          3D

113118  0  0  0  0  0  0  0  0999 V2000
   48.5068   11.7167   18.7000 C   0  0  2  0  0  0  0  0  0  0  0  0
   49.3400    9.3645   18.6764 C   0  0  0  0  0  0  0  0  0  0  0  0
   48.1823   11.5405   20.1718 C   0  0  2  0  0  0  0  0  0  0  0  0
   49.8403   13.8396   19.4514 C   0  0  0  0  0  0  0  0  0  0  0  0
   49.4072   10.6196   18.1761 C   0  0  0  0  0  0  0  0  0  0  0  0
   48.3456    8.9333   19.7468 C   0  0  1  0  0  0  0  0  0  0  0  0
   49.0032   13.1369   18.4251 C   0  0  0  0  0  0  0  0  0  0  0  0
   50.0937   13.2387   20.6546 C   0  0  0  0  0  0  0  0  0  0  0  0
   50.2280    8.3075   18.1175 C   0  0  0  0  0  0  0  0  0  0  0  0
   48.9944    7.9331   20.7650 C   0  0  1  0  0  0  0  0  0  0  0  0
   49.4564   11.8366   21.0242 C   0  0  1  0  0  0  0  0  0  0  0  0
   47.5759   10.1287   20.3910 C   0  0  2  0  0  0  0  0  0  0  0  0
   50.1972    6.9602   18.7288 C   0  0  0  0  0  0  0  0  0  0  0  0
   49.6035    6.7536   19.9903 C   0  0  0  0  0  0  0  0  0  0  0  0
   50.4209   15.2071   19.0987 C   0  0  0  0  0  0  0  0  0  0  0  0
   50.8514   13.6483   21.5782 O   0  0  0  0  0  0  0  0  0  0  0  0
   49.1163   11.4802   22.4486 N   0  0  0  0  0  0  0  0  0  0  0  0
   48.6984   13.6769   17.3478 O   0  0  0  0  0  0  0  0  0  0  0  0
   50.9537    8.5238   17.1457 O   0  0  0  0  0  0  0  0  0  0  0  0
   50.7589    5.8840   18.0168 C   0  0  0  0  0  0  0  0  0  0  0  0
   47.2791   11.5791   17.9283 O   0  0  0  0  0  0  0  0  0  0  0  0
   51.3572   15.7975   19.6317 O   0  0  0  0  0  0  0  0  0  0  0  0
   50.2509   10.9891   17.1435 O   0  0  0  0  0  0  0  0  0  0  0  0
   50.0870    8.5442   21.4467 O   0  0  0  0  0  0  0  0  0  0  0  0
   46.2313   10.1051   19.8444 O   0  0  0  0  0  0  0  0  0  0  0  0
   49.8324   15.8486   18.0375 N   0  0  0  0  0  0  0  0  0  0  0  0
   47.9876    7.4646   21.8381 C   0  0  0  0  0  0  0  0  0  0  0  0
   49.6256    5.4414   20.5042 C   0  0  0  0  0  0  0  0  0  0  0  0
   51.3490    6.0168   16.7833 O   0  0  0  0  0  0  0  0  0  0  0  0
   50.1767    4.3789   19.7862 C   0  0  0  0  0  0  0  0  0  0  0  0
   50.7384    4.5973   18.5373 C   0  0  0  0  0  0  0  0  0  0  0  0
   50.3120   11.3280   23.2961 C   0  0  0  0  0  0  0  0  0  0  0  0
   48.2279   12.4662   23.0820 C   0  0  0  0  0  0  0  0  0  0  0  0
   48.1758   11.0726   21.1112 C   0  0  2  0  0  0  0  0  0  0  0  0
   48.4411    8.8443   19.8987 C   0  0  0  0  0  0  0  0  0  0  0  0
   49.7060   11.1090   21.2396 C   0  0  2  0  0  0  0  0  0  0  0  0
   48.5475   13.1792   19.5806 C   0  0  0  0  0  0  0  0  0  0  0  0
   47.6459    9.8369   20.3698 C   0  0  0  0  0  0  0  0  0  0  0  0
   49.9459    8.8913   20.0332 C   0  0  1  0  0  0  0  0  0  0  0  0
   47.6227   12.3768   20.4529 C   0  0  0  0  0  0  0  0  0  0  0  0
   49.8478   13.2181   19.9804 C   0  0  0  0  0  0  0  0  0  0  0  0
   47.8152    7.6408   19.2944 C   0  0  0  0  0  0  0  0  0  0  0  0
   50.7677    8.0319   19.0156 C   0  0  1  0  0  0  0  0  0  0  0  0
   50.1885   12.5790   21.3552 C   0  0  1  0  0  0  0  0  0  0  0  0
   50.3472   10.3883   20.0215 C   0  0  2  0  0  0  0  0  0  0  0  0
   48.6597    6.6194   18.6408 C   0  0  0  0  0  0  0  0  0  0  0  0
   50.0379    6.8053   18.4773 C   0  0  0  0  0  0  0  0  0  0  0  0
   48.0146   13.8116   18.3193 C   0  0  0  0  0  0  0  0  0  0  0  0
   50.9039   13.6223   19.4137 O   0  0  0  0  0  0  0  0  0  0  0  0
   49.6085   13.3446   22.5071 N   0  0  0  0  0  0  0  0  0  0  0  0
   46.4358   12.7099   20.5870 O   0  0  0  0  0  0  0  0  0  0  0  0
   46.5925    7.4797   19.3311 O   0  0  0  0  0  0  0  0  0  0  0  0
   48.0447    5.4532   18.1332 C   0  0  0  0  0  0  0  0  0  0  0  0
   47.5955   10.9514   22.4298 O   0  0  0  0  0  0  0  0  0  0  0  0
   48.6047   14.5718   17.5574 O   0  0  0  0  0  0  0  0  0  0  0  0
   46.2571    9.7756   20.3195 O   0  0  0  0  0  0  0  0  0  0  0  0
   51.1001    8.7914   17.8521 O   0  0  0  0  0  0  0  0  0  0  0  0
   51.7624   10.5699   19.9887 O   0  0  0  0  0  0  0  0  0  0  0  0
   46.7054   13.5067   18.0263 N   0  0  0  0  0  0  0  0  0  0  0  0
   52.0909    7.5864   19.6920 C   0  0  0  0  0  0  0  0  0  0  0  0
   50.7486    5.8298   17.7351 C   0  0  0  0  0  0  0  0  0  0  0  0
   46.7064    5.1829   18.2637 O   0  0  0  0  0  0  0  0  0  0  0  0
   50.1323    4.6828   17.2378 C   0  0  0  0  0  0  0  0  0  0  0  0
   48.7751    4.4891   17.4456 C   0  0  0  0  0  0  0  0  0  0  0  0
   50.0528   14.7494   22.4644 C   0  0  0  0  0  0  0  0  0  0  0  0
   50.0242   12.7646   23.7877 C   0  0  0  0  0  0  0  0  0  0  0  0
   49.2955   10.1116   20.0259 Ca  0  0  0  0  0 15  0  0  0  0  0  0
   47.3985   12.2719   20.4170 H   0  0  0  0  0  0  0  0  0  0  0  0
   47.5902    8.3414   19.2025 H   0  0  0  0  0  0  0  0  0  0  0  0
   50.2215   11.1081   20.7236 H   0  0  0  0  0  0  0  0  0  0  0  0
   47.4164    9.9765   21.4548 H   0  0  0  0  0  0  0  0  0  0  0  0
   47.5547   11.8501   17.0262 H   0  0  0  0  0  0  0  0  0  0  0  0
   50.8111   10.2157   16.9077 H   0  0  0  0  0  0  0  0  0  0  0  0
   49.7297    9.2923   21.9688 H   0  0  0  0  0  0  0  0  0  0  0  0
   46.2656   10.6027   18.9956 H   0  0  0  0  0  0  0  0  0  0  0  0
   50.3139   16.6686   17.7083 H   0  0  0  0  0  0  0  0  0  0  0  0
   49.2308   15.3312   17.4032 H   0  0  0  0  0  0  0  0  0  0  0  0
   48.4740    6.8267   22.5864 H   0  0  0  0  0  0  0  0  0  0  0  0
   47.1485    6.9183   21.3967 H   0  0  0  0  0  0  0  0  0  0  0  0
   47.5882    8.2916   22.4336 H   0  0  0  0  0  0  0  0  0  0  0  0
   49.2188    5.2102   21.4837 H   0  0  0  0  0  0  0  0  0  0  0  0
   51.4366    6.9761   16.5991 H   0  0  0  0  0  0  0  0  0  0  0  0
   50.1671    3.3735   20.2034 H   0  0  0  0  0  0  0  0  0  0  0  0
   51.1626    3.7736   17.9716 H   0  0  0  0  0  0  0  0  0  0  0  0
   51.1165   10.7934   22.7793 H   0  0  0  0  0  0  0  0  0  0  0  0
   50.7116   12.2661   23.6981 H   0  0  0  0  0  0  0  0  0  0  0  0
   50.0467   10.7120   24.1617 H   0  0  0  0  0  0  0  0  0  0  0  0
   47.9912   12.1492   24.1073 H   0  0  0  0  0  0  0  0  0  0  0  0
   47.2655   12.5393   22.5601 H   0  0  0  0  0  0  0  0  0  0  0  0
   48.6596   13.4742   23.1475 H   0  0  0  0  0  0  0  0  0  0  0  0
   50.0322   10.5774   22.1427 H   0  0  0  0  0  0  0  0  0  0  0  0
   50.1541    8.4703   21.0287 H   0  0  0  0  0  0  0  0  0  0  0  0
   51.2812   12.5545   21.5153 H   0  0  0  0  0  0  0  0  0  0  0  0
   49.9732   10.8069   19.0785 H   0  0  0  0  0  0  0  0  0  0  0  0
   46.6480   11.1378   22.2726 H   0  0  0  0  0  0  0  0  0  0  0  0
   45.9948    8.9195   19.9192 H   0  0  0  0  0  0  0  0  0  0  0  0
   51.6595    9.5371   18.1583 H   0  0  0  0  0  0  0  0  0  0  0  0
   51.8805   11.5249   19.7407 H   0  0  0  0  0  0  0  0  0  0  0  0
   46.0961   13.1798   18.7774 H   0  0  0  0  0  0  0  0  0  0  0  0
   46.2995   14.0718   17.2961 H   0  0  0  0  0  0  0  0  0  0  0  0
   52.8142    7.2012   18.9658 H   0  0  0  0  0  0  0  0  0  0  0  0
   51.9136    6.8130   20.4477 H   0  0  0  0  0  0  0  0  0  0  0  0
   52.6101    8.4085   20.1882 H   0  0  0  0  0  0  0  0  0  0  0  0
   51.8054    5.9728   17.5144 H   0  0  0  0  0  0  0  0  0  0  0  0
   46.2854    5.9730   18.6698 H   0  0  0  0  0  0  0  0  0  0  0  0
   50.7081    3.9566   16.6726 H   0  0  0  0  0  0  0  0  0  0  0  0
   48.2858    3.6012   17.0637 H   0  0  0  0  0  0  0  0  0  0  0  0
   49.6333   15.2794   21.6023 H   0  0  0  0  0  0  0  0  0  0  0  0
   51.1464   14.8416   22.4479 H   0  0  0  0  0  0  0  0  0  0  0  0
   49.6841   15.2869   23.3473 H   0  0  0  0  0  0  0  0  0  0  0  0
   49.6303   13.3548   24.6255 H   0  0  0  0  0  0  0  0  0  0  0  0
   51.1153   12.7210   23.8931 H   0  0  0  0  0  0  0  0  0  0  0  0
   49.6263   11.7564   23.9307 H   0  0  0  0  0  0  0  0  0  0  0  0
  2  5  2  0
  3  1  1  0
  4  7  1  0
  5  1  1  0
  6  2  1  0
  7  1  1  0
  8  4  2  0
  9  2  1  0
 10  6  1  0
  3 11  1  0
 12  3  1  0
 13  9  1  0
 14 13  2  0
 15  4  1  0
 16  8  1  0
 11 17  1  0
 18  7  2  0
 19  9  2  0
 20 13  1  0
  1 21  1  6
 22 15  2  0
 23  5  1  0
 10 24  1  1
 12 25  1  0
 26 15  1  0
 10 27  1  0
 28 14  1  0
 29 20  1  0
 30 31  1  0
 31 20  2  0
 32 17  1  0
 33 17  1  0
 12  6  1  0
 11  8  1  0
 10 14  1  0
 30 28  2  0
 35 38  2  0
 36 34  1  0
 37 40  1  0
 38 34  1  0
 39 35  1  0
 40 34  1  0
 41 37  2  0
 42 35  1  0
 43 39  1  0
 36 44  1  0
 45 36  1  0
 46 42  1  0
 47 46  2  0
 48 37  1  0
 49 41  1  0
 44 50  1  0
 51 40  2  0
 52 42  2  0
 53 46  1  0
 34 54  1  6
 55 48  2  0
 56 38  1  0
 43 57  1  1
 45 58  1  0
 59 48  1  0
 43 60  1  0
 61 47  1  0
 62 53  1  0
 63 64  1  0
 64 53  2  0
 65 50  1  0
 66 50  1  0
 45 39  1  0
 44 41  1  0
 43 47  1  0
 63 61  2  0
  3 68  1  6
  6 69  1  6
 11 70  1  1
 12 71  1  6
 21 72  1  0
 23 73  1  0
 24 74  1  0
 25 75  1  0
 26 76  1  0
 26 77  1  0
 27 78  1  0
 27 79  1  0
 27 80  1  0
 28 81  1  0
 29 82  1  0
 30 83  1  0
 31 84  1  0
 32 85  1  0
 32 86  1  0
 32 87  1  0
 33 88  1  0
 33 89  1  0
 33 90  1  0
 36 91  1  6
 39 92  1  6
 44 93  1  1
 45 94  1  1
 54 95  1  0
 56 96  1  0
 57 97  1  0
 58 98  1  0
 59 99  1  0
 59100  1  0
 60101  1  0
 60102  1  0
 60103  1  0
 61104  1  0
 62105  1  0
 63106  1  0
 64107  1  0
 65108  1  0
 65109  1  0
 65110  1  0
 66111  1  0
 66112  1  0
 66113  1  0
M  CHG  3  16  -1  49  -1  67   2
M  END
> <Uni-Dock RESULT> 
ENERGY=   -4.752  LOWER_BOUND=   10.938  UPPER_BOUND=   13.567
INTER + INTRA:          -4.752
INTER:                  -4.752
INTRA:                   0.000
UNBOUND:                 0.000

$$$$

     RDKit          3D

113118  0  0  0  0  0  0  0  0999 V2000
   49.8053    8.2381   16.4612 C   0  0  2  0  0  0  0  0  0  0  0  0
   49.1067    9.6858   18.3700 C   0  0  0  0  0  0  0  0  0  0  0  0
   50.3182    7.2288   17.4716 C   0  0  2  0  0  0  0  0  0  0  0  0
   48.4596    6.2380   15.4424 C   0  0  0  0  0  0  0  0  0  0  0  0
   48.9090    9.2792   17.0950 C   0  0  0  0  0  0  0  0  0  0  0  0
   50.2478    9.1892   19.2484 C   0  0  1  0  0  0  0  0  0  0  0  0
   49.2011    7.5266   15.2496 C   0  0  0  0  0  0  0  0  0  0  0  0
   48.3901    5.6686   16.6850 C   0  0  0  0  0  0  0  0  0  0  0  0
   48.2162   10.7295   18.9495 C   0  0  0  0  0  0  0  0  0  0  0  0
   49.7858    8.9902   20.7333 C   0  0  1  0  0  0  0  0  0  0  0  0
   49.1446    6.3040   17.9243 C   0  0  1  0  0  0  0  0  0  0  0  0
   51.0239    7.9850   18.6287 C   0  0  2  0  0  0  0  0  0  0  0  0
   48.3965   11.1060   20.3692 C   0  0  0  0  0  0  0  0  0  0  0  0
   49.1518   10.2954   21.2403 C   0  0  0  0  0  0  0  0  0  0  0  0
   47.7652    5.6147   14.2336 C   0  0  0  0  0  0  0  0  0  0  0  0
   47.7308    4.6488   17.0317 O   0  0  0  0  0  0  0  0  0  0  0  0
   49.6770    5.4459   19.0430 N   0  0  0  0  0  0  0  0  0  0  0  0
   49.3403    8.0400   14.1262 O   0  0  0  0  0  0  0  0  0  0  0  0
   47.3652   11.3016   18.2665 O   0  0  0  0  0  0  0  0  0  0  0  0
   47.8115   12.3005   20.8293 C   0  0  0  0  0  0  0  0  0  0  0  0
   50.9341    8.9979   15.9412 O   0  0  0  0  0  0  0  0  0  0  0  0
   46.8707    4.7727   14.2195 O   0  0  0  0  0  0  0  0  0  0  0  0
   47.9252    9.7947   16.2697 O   0  0  0  0  0  0  0  0  0  0  0  0
   48.7537    8.0104   20.8142 O   0  0  0  0  0  0  0  0  0  0  0  0
   52.2901    8.5059   18.1461 O   0  0  0  0  0  0  0  0  0  0  0  0
   48.1820    6.0690   13.0074 N   0  0  0  0  0  0  0  0  0  0  0  0
   50.9417    8.5158   21.6408 C   0  0  0  0  0  0  0  0  0  0  0  0
   49.2658   10.7219   22.5788 C   0  0  0  0  0  0  0  0  0  0  0  0
   47.0672   13.1361   20.0324 O   0  0  0  0  0  0  0  0  0  0  0  0
   48.6898   11.9130   23.0233 C   0  0  0  0  0  0  0  0  0  0  0  0
   47.9671   12.7085   22.1470 C   0  0  0  0  0  0  0  0  0  0  0  0
   48.6053    4.8118   19.8307 C   0  0  0  0  0  0  0  0  0  0  0  0
   50.5810    4.3892   18.5647 C   0  0  0  0  0  0  0  0  0  0  0  0
   50.4663    6.7961   18.4161 C   0  0  2  0  0  0  0  0  0  0  0  0
   50.1769    9.1217   19.4231 C   0  0  0  0  0  0  0  0  0  0  0  0
   48.9641    6.5798   18.6519 C   0  0  2  0  0  0  0  0  0  0  0  0
   49.7929    6.6329   15.8787 C   0  0  0  0  0  0  0  0  0  0  0  0
   50.9681    8.1809   18.8502 C   0  0  0  0  0  0  0  0  0  0  0  0
   48.6998    8.8955   19.6513 C   0  0  1  0  0  0  0  0  0  0  0  0
   50.8611    6.5191   16.9304 C   0  0  0  0  0  0  0  0  0  0  0  0
   48.5517    6.2189   16.2532 C   0  0  0  0  0  0  0  0  0  0  0  0
   50.7889   10.3858   19.9057 C   0  0  0  0  0  0  0  0  0  0  0  0
   47.8075   10.1742   19.7852 C   0  0  1  0  0  0  0  0  0  0  0  0
   48.4191    5.5354   17.6423 C   0  0  1  0  0  0  0  0  0  0  0  0
   48.2182    7.9376   18.5321 C   0  0  2  0  0  0  0  0  0  0  0  0
   49.9279   11.4831   20.3936 C   0  0  0  0  0  0  0  0  0  0  0  0
   48.5319   11.4081   20.3140 C   0  0  0  0  0  0  0  0  0  0  0  0
   50.1304    7.2446   14.5420 C   0  0  0  0  0  0  0  0  0  0  0  0
   47.4131    6.3386   15.7156 O   0  0  0  0  0  0  0  0  0  0  0  0
   49.0937    4.1968   17.6935 N   0  0  0  0  0  0  0  0  0  0  0  0
   52.0353    6.2785   16.6124 O   0  0  0  0  0  0  0  0  0  0  0  0
   52.0138   10.5339   19.9060 O   0  0  0  0  0  0  0  0  0  0  0  0
   50.5389   12.6481   20.9086 C   0  0  0  0  0  0  0  0  0  0  0  0
   51.2107    5.8867   19.2581 O   0  0  0  0  0  0  0  0  0  0  0  0
   49.4096    7.3200   13.5513 O   0  0  0  0  0  0  0  0  0  0  0  0
   52.3413    8.3437   18.6992 O   0  0  0  0  0  0  0  0  0  0  0  0
   47.2926   10.5770   18.5148 O   0  0  0  0  0  0  0  0  0  0  0  0
   46.8019    7.7618   18.5415 O   0  0  0  0  0  0  0  0  0  0  0  0
   51.4082    7.7439   14.4389 N   0  0  0  0  0  0  0  0  0  0  0  0
   46.6045    9.8494   20.7094 C   0  0  0  0  0  0  0  0  0  0  0  0
   47.7899   12.5534   20.6954 C   0  0  0  0  0  0  0  0  0  0  0  0
   51.8960   12.7994   21.0378 O   0  0  0  0  0  0  0  0  0  0  0  0
   48.4025   13.6985   21.2017 C   0  0  0  0  0  0  0  0  0  0  0  0
   49.7836   13.7428   21.3173 C   0  0  0  0  0  0  0  0  0  0  0  0
   48.5706    3.3183   16.6318 C   0  0  0  0  0  0  0  0  0  0  0  0
   48.8718    3.5444   18.9875 C   0  0  0  0  0  0  0  0  0  0  0  0
   49.2760    8.1730   18.6226 Ca  0  0  0  0  0 15  0  0  0  0  0  0
   51.0846    6.6268   16.9624 H   0  0  0  0  0  0  0  0  0  0  0  0
   50.9618   10.0298   19.2785 H   0  0  0  0  0  0  0  0  0  0  0  0
   48.3897    6.9484   18.3946 H   0  0  0  0  0  0  0  0  0  0  0  0
   51.3216    7.2665   19.3873 H   0  0  0  0  0  0  0  0  0  0  0  0
   50.5347    9.5091   15.2048 H   0  0  0  0  0  0  0  0  0  0  0  0
   47.3838   10.4298   16.7902 H   0  0  0  0  0  0  0  0  0  0  0  0
   49.1309    7.1570   20.5150 H   0  0  0  0  0  0  0  0  0  0  0  0
   52.1239    8.8480   17.2380 H   0  0  0  0  0  0  0  0  0  0  0  0
   47.6190    5.7783   12.2256 H   0  0  0  0  0  0  0  0  0  0  0  0
   48.7283    6.9230   12.9424 H   0  0  0  0  0  0  0  0  0  0  0  0
   50.5873    8.3078   22.6579 H   0  0  0  0  0  0  0  0  0  0  0  0
   51.7488    9.2530   21.6894 H   0  0  0  0  0  0  0  0  0  0  0  0
   51.3653    7.5584   21.3210 H   0  0  0  0  0  0  0  0  0  0  0  0
   49.8025   10.1337   23.3165 H   0  0  0  0  0  0  0  0  0  0  0  0
   46.9047   12.6695   19.1851 H   0  0  0  0  0  0  0  0  0  0  0  0
   48.8063   12.2233   24.0602 H   0  0  0  0  0  0  0  0  0  0  0  0
   47.5224   13.6391   22.4857 H   0  0  0  0  0  0  0  0  0  0  0  0
   47.7739    5.4991   20.0214 H   0  0  0  0  0  0  0  0  0  0  0  0
   48.2072    3.8854   19.4011 H   0  0  0  0  0  0  0  0  0  0  0  0
   49.0090    4.5453   20.8132 H   0  0  0  0  0  0  0  0  0  0  0  0
   50.9596    3.8091   19.4179 H   0  0  0  0  0  0  0  0  0  0  0  0
   51.4661    4.8065   18.0685 H   0  0  0  0  0  0  0  0  0  0  0  0
   50.1058    3.6774   17.8761 H   0  0  0  0  0  0  0  0  0  0  0  0
   48.7816    6.1948   19.6634 H   0  0  0  0  0  0  0  0  0  0  0  0
   48.6397    8.3766   20.6202 H   0  0  0  0  0  0  0  0  0  0  0  0
   47.3576    5.3596   17.8923 H   0  0  0  0  0  0  0  0  0  0  0  0
   48.4493    8.4276   17.5777 H   0  0  0  0  0  0  0  0  0  0  0  0
   52.1198    5.9493   18.9020 H   0  0  0  0  0  0  0  0  0  0  0  0
   52.5991    9.2087   19.0829 H   0  0  0  0  0  0  0  0  0  0  0  0
   46.7350    9.8361   18.1942 H   0  0  0  0  0  0  0  0  0  0  0  0
   46.6016    7.3456   17.6616 H   0  0  0  0  0  0  0  0  0  0  0  0
   52.1226    7.4052   15.0848 H   0  0  0  0  0  0  0  0  0  0  0  0
   51.6890    7.9787   13.4991 H   0  0  0  0  0  0  0  0  0  0  0  0
   45.8195   10.6101   20.6446 H   0  0  0  0  0  0  0  0  0  0  0  0
   46.9161    9.7618   21.7563 H   0  0  0  0  0  0  0  0  0  0  0  0
   46.1059    8.9157   20.4425 H   0  0  0  0  0  0  0  0  0  0  0  0
   46.7077   12.5694   20.5750 H   0  0  0  0  0  0  0  0  0  0  0  0
   52.3196   12.0133   20.6266 H   0  0  0  0  0  0  0  0  0  0  0  0
   47.8023   14.5581   21.4833 H   0  0  0  0  0  0  0  0  0  0  0  0
   50.2703   14.6275   21.7096 H   0  0  0  0  0  0  0  0  0  0  0  0
   48.8506    3.6783   15.6357 H   0  0  0  0  0  0  0  0  0  0  0  0
   47.4799    3.2059   16.6818 H   0  0  0  0  0  0  0  0  0  0  0  0
   49.0152    2.3188   16.7185 H   0  0  0  0  0  0  0  0  0  0  0  0
   49.3330    2.5481   19.0023 H   0  0  0  0  0  0  0  0  0  0  0  0
   47.8061    3.4232   19.2181 H   0  0  0  0  0  0  0  0  0  0  0  0
   49.3394    4.0927   19.8098 H   0  0  0  0  0  0  0  0  0  0  0  0
  2  5  2  0
  3  1  1  0
  4  7  1  0
  5  1  1  0
  6  2  1  0
  7  1  1  0
  8  4  2  0
  9  2  1  0
 10  6  1  0
  3 11  1  0
 12  3  1  0
 13  9  1  0
 14 13  2  0
 15  4  1  0
 16  8  1  0
 11 17  1  0
 18  7  2  0
 19  9  2  0
 20 13  1  0
  1 21  1  6
 22 15  2  0
 23  5  1  0
 10 24  1  1
 12 25  1  0
 26 15  1  0
 10 27  1  0
 28 14  1  0
 29 20  1  0
 30 31  1  0
 31 20  2  0
 32 17  1  0
 33 17  1  0
 12  6  1  0
 11  8  1  0
 10 14  1  0
 30 28  2  0
 35 38  2  0
 36 34  1  0
 37 40  1  0
 38 34  1  0
 39 35  1  0
 40 34  1  0
 41 37  2  0
 42 35  1  0
 43 39  1  0
 36 44  1  0
 45 36  1  0
 46 42  1  0
 47 46  2  0
 48 37  1  0
 49 41  1  0
 44 50  1  0
 51 40  2  0
 52 42  2  0
 53 46  1  0
 34 54  1  6
 55 48  2  0
 56 38  1  0
 43 57  1  1
 45 58  1  0
 59 48  1  0
 43 60  1  0
 61 47  1  0
 62 53  1  0
 63 64  1  0
 64 53  2  0
 65 50  1  0
 66 50  1  0
 45 39  1  0
 44 41  1  0
 43 47  1  0
 63 61  2  0
  3 68  1  6
  6 69  1  6
 11 70  1  1
 12 71  1  6
 21 72  1  0
 23 73  1  0
 24 74  1  0
 25 75  1  0
 26 76  1  0
 26 77  1  0
 27 78  1  0
 27 79  1  0
 27 80  1  0
 28 81  1  0
 29 82  1  0
 30 83  1  0
 31 84  1  0
 32 85  1  0
 32 86  1  0
 32 87  1  0
 33 88  1  0
 33 89  1  0
 33 90  1  0
 36 91  1  6
 39 92  1  6
 44 93  1  1
 45 94  1  1
 54 95  1  0
 56 96  1  0
 57 97  1  0
 58 98  1  0
 59 99  1  0
 59100  1  0
 60101  1  0
 60102  1  0
 60103  1  0
 61104  1  0
 62105  1  0
 63106  1  0
 64107  1  0
 65108  1  0
 65109  1  0
 65110  1  0
 66111  1  0
 66112  1  0
 66113  1  0
M  CHG  3  16  -1  49  -1  67   2
M  END
> <Uni-Dock RESULT> 
ENERGY=   -4.700  LOWER_BOUND=   10.432  UPPER_BOUND=   13.353
INTER + INTRA:          -4.700
INTER:                  -4.700
INTRA:                   0.000
UNBOUND:                 0.000

$$$$

     RDKit          3D

113118  0  0  0  0  0  0  0  0999 V2000
   50.7980    6.5808   20.6873 C   0  0  2  0  0  0  0  0  0  0  0  0
   50.2607    8.8891   19.9059 C   0  0  0  0  0  0  0  0  0  0  0  0
   49.4555    6.1309   20.1415 C   0  0  2  0  0  0  0  0  0  0  0  0
   51.8093    4.6405   19.2514 C   0  0  0  0  0  0  0  0  0  0  0  0
   51.1947    7.9490   20.1778 C   0  0  0  0  0  0  0  0  0  0  0  0
   48.7675    8.6866   20.1288 C   0  0  1  0  0  0  0  0  0  0  0  0
   51.8531    5.4924   20.4843 C   0  0  0  0  0  0  0  0  0  0  0  0
   50.7876    4.7901   18.3531 C   0  0  0  0  0  0  0  0  0  0  0  0
   50.6940   10.2314   19.4276 C   0  0  0  0  0  0  0  0  0  0  0  0
   47.9207    9.3454   18.9856 C   0  0  1  0  0  0  0  0  0  0  0  0
   49.5967    5.7990   18.6225 C   0  0  1  0  0  0  0  0  0  0  0  0
   48.3892    7.2105   20.4673 C   0  0  2  0  0  0  0  0  0  0  0  0
   49.6571   11.2213   19.0604 C   0  0  0  0  0  0  0  0  0  0  0  0
   48.3208   10.8236   18.8536 C   0  0  0  0  0  0  0  0  0  0  0  0
   52.9439    3.6454   19.0186 C   0  0  0  0  0  0  0  0  0  0  0  0
   50.6572    4.2263   17.2306 O   0  0  0  0  0  0  0  0  0  0  0  0
   48.2063    5.5271   18.1082 N   0  0  0  0  0  0  0  0  0  0  0  0
   52.7287    5.3413   21.3535 O   0  0  0  0  0  0  0  0  0  0  0  0
   51.8853   10.5392   19.3655 O   0  0  0  0  0  0  0  0  0  0  0  0
   50.0291   12.5730   18.9378 C   0  0  0  0  0  0  0  0  0  0  0  0
   50.6867    6.7483   22.1300 O   0  0  0  0  0  0  0  0  0  0  0  0
   53.2734    3.0979   17.9694 O   0  0  0  0  0  0  0  0  0  0  0  0
   52.5563    8.1637   20.0571 O   0  0  0  0  0  0  0  0  0  0  0  0
   48.2279    8.7549   17.7252 O   0  0  0  0  0  0  0  0  0  0  0  0
   48.0968    7.1680   21.8886 O   0  0  0  0  0  0  0  0  0  0  0  0
   53.7038    3.3399   20.1199 N   0  0  0  0  0  0  0  0  0  0  0  0
   46.4036    9.1732   19.2159 C   0  0  0  0  0  0  0  0  0  0  0  0
   47.3987   11.8281   18.4972 C   0  0  0  0  0  0  0  0  0  0  0  0
   51.3116   13.0267   19.1291 O   0  0  0  0  0  0  0  0  0  0  0  0
   47.7755   13.1676   18.3873 C   0  0  0  0  0  0  0  0  0  0  0  0
   49.0908   13.5436   18.6144 C   0  0  0  0  0  0  0  0  0  0  0  0
   48.1233    5.5882   16.6383 C   0  0  0  0  0  0  0  0  0  0  0  0
   47.6874    4.2215   18.5428 C   0  0  0  0  0  0  0  0  0  0  0  0
   48.5533    6.2061   19.6108 C   0  0  2  0  0  0  0  0  0  0  0  0
   48.6657    8.7300   19.9620 C   0  0  0  0  0  0  0  0  0  0  0  0
   49.2595    6.4288   18.2652 C   0  0  2  0  0  0  0  0  0  0  0  0
   50.7713    4.9355   20.2310 C   0  0  0  0  0  0  0  0  0  0  0  0
   48.3190    7.4971   20.4083 C   0  0  0  0  0  0  0  0  0  0  0  0
   49.3588    8.9358   18.6345 C   0  0  1  0  0  0  0  0  0  0  0  0
   49.3069    5.1570   20.4891 C   0  0  0  0  0  0  0  0  0  0  0  0
   51.1572    5.0098   18.9281 C   0  0  0  0  0  0  0  0  0  0  0  0
   48.2928    9.9219   20.7655 C   0  0  0  0  0  0  0  0  0  0  0  0
   50.1840   10.2556   18.4721 C   0  0  1  0  0  0  0  0  0  0  0  0
   50.0360    5.1479   17.8612 C   0  0  1  0  0  0  0  0  0  0  0  0
   50.2000    7.6614   18.3694 C   0  0  2  0  0  0  0  0  0  0  0  0
   48.7894   11.2583   20.3771 C   0  0  0  0  0  0  0  0  0  0  0  0
   49.6987   11.4234   19.3250 C   0  0  0  0  0  0  0  0  0  0  0  0
   51.7059    4.7234   21.3957 C   0  0  0  0  0  0  0  0  0  0  0  0
   52.2938    5.0625   18.3756 O   0  0  0  0  0  0  0  0  0  0  0  0
   49.1954    3.9112   17.7442 N   0  0  0  0  0  0  0  0  0  0  0  0
   48.7352    4.5697   21.4198 O   0  0  0  0  0  0  0  0  0  0  0  0
   47.5690    9.8120   21.7586 O   0  0  0  0  0  0  0  0  0  0  0  0
   48.3655   12.3827   21.1200 C   0  0  0  0  0  0  0  0  0  0  0  0
   47.2169    5.7123   19.3650 O   0  0  0  0  0  0  0  0  0  0  0  0
   52.8978    4.4330   21.3543 O   0  0  0  0  0  0  0  0  0  0  0  0
   47.6166    7.2959   21.5921 O   0  0  0  0  0  0  0  0  0  0  0  0
   51.5437   10.0636   18.8664 O   0  0  0  0  0  0  0  0  0  0  0  0
   51.0286    7.7893   17.2144 O   0  0  0  0  0  0  0  0  0  0  0  0
   51.1242    4.8491   22.6361 N   0  0  0  0  0  0  0  0  0  0  0  0
   50.1721   10.6716   16.9775 C   0  0  0  0  0  0  0  0  0  0  0  0
   50.2119   12.7246   19.0989 C   0  0  0  0  0  0  0  0  0  0  0  0
   47.4663   12.3142   22.1534 O   0  0  0  0  0  0  0  0  0  0  0  0
   49.7876   13.8275   19.8380 C   0  0  0  0  0  0  0  0  0  0  0  0
   48.8527   13.6571   20.8479 C   0  0  0  0  0  0  0  0  0  0  0  0
   50.0433    2.7404   17.4562 C   0  0  0  0  0  0  0  0  0  0  0  0
   48.2080    4.0454   16.6689 C   0  0  0  0  0  0  0  0  0  0  0  0
   49.5400    7.7023   19.2327 Ca  0  0  0  0  0 15  0  0  0  0  0  0
   49.1746    5.2210   20.6916 H   0  0  0  0  0  0  0  0  0  0  0  0
   48.5389    9.2756   21.0333 H   0  0  0  0  0  0  0  0  0  0  0  0
   49.9107    6.7231   18.1187 H   0  0  0  0  0  0  0  0  0  0  0  0
   47.4471    6.9227   20.0092 H   0  0  0  0  0  0  0  0  0  0  0  0
   51.6171    6.8913   22.4074 H   0  0  0  0  0  0  0  0  0  0  0  0
   52.6977    9.0639   19.6868 H   0  0  0  0  0  0  0  0  0  0  0  0
   47.9662    7.8117   17.7679 H   0  0  0  0  0  0  0  0  0  0  0  0
   48.9580    7.0378   22.3476 H   0  0  0  0  0  0  0  0  0  0  0  0
   54.5409    2.8134   19.9338 H   0  0  0  0  0  0  0  0  0  0  0  0
   53.6529    3.9252   20.9487 H   0  0  0  0  0  0  0  0  0  0  0  0
   45.8268    9.5711   18.3719 H   0  0  0  0  0  0  0  0  0  0  0  0
   46.0738    9.6661   20.1356 H   0  0  0  0  0  0  0  0  0  0  0  0
   46.0981    8.1229   19.2568 H   0  0  0  0  0  0  0  0  0  0  0  0
   46.3595   11.5942   18.2884 H   0  0  0  0  0  0  0  0  0  0  0  0
   51.8957   12.2418   19.1977 H   0  0  0  0  0  0  0  0  0  0  0  0
   47.0378   13.9234   18.1235 H   0  0  0  0  0  0  0  0  0  0  0  0
   49.3881   14.5848   18.5367 H   0  0  0  0  0  0  0  0  0  0  0  0
   48.7005    6.4242   16.2286 H   0  0  0  0  0  0  0  0  0  0  0  0
   48.4202    4.6672   16.1236 H   0  0  0  0  0  0  0  0  0  0  0  0
   47.0812    5.7737   16.3579 H   0  0  0  0  0  0  0  0  0  0  0  0
   46.6655    4.0823   18.1633 H   0  0  0  0  0  0  0  0  0  0  0  0
   47.6136    4.1578   19.6357 H   0  0  0  0  0  0  0  0  0  0  0  0
   48.2819    3.3681   18.1892 H   0  0  0  0  0  0  0  0  0  0  0  0
   48.5290    6.6412   17.4741 H   0  0  0  0  0  0  0  0  0  0  0  0
   48.5446    8.9901   17.8959 H   0  0  0  0  0  0  0  0  0  0  0  0
   50.4679    5.3274   16.8605 H   0  0  0  0  0  0  0  0  0  0  0  0
   50.8886    7.5568   19.2175 H   0  0  0  0  0  0  0  0  0  0  0  0
   46.9251    5.4136   20.2497 H   0  0  0  0  0  0  0  0  0  0  0  0
   47.4232    8.1691   21.9948 H   0  0  0  0  0  0  0  0  0  0  0  0
   51.9140    9.3844   18.2628 H   0  0  0  0  0  0  0  0  0  0  0  0
   51.6743    7.0381   17.2926 H   0  0  0  0  0  0  0  0  0  0  0  0
   50.1118    4.7466   22.7178 H   0  0  0  0  0  0  0  0  0  0  0  0
   51.6984    4.5265   23.4000 H   0  0  0  0  0  0  0  0  0  0  0  0
   50.9268   11.4337   16.7570 H   0  0  0  0  0  0  0  0  0  0  0  0
   49.1916   11.0581   16.6773 H   0  0  0  0  0  0  0  0  0  0  0  0
   50.4115    9.8447   16.3062 H   0  0  0  0  0  0  0  0  0  0  0  0
   50.9806   12.8861   18.3446 H   0  0  0  0  0  0  0  0  0  0  0  0
   47.2760   11.3633   22.3147 H   0  0  0  0  0  0  0  0  0  0  0  0
   50.2032   14.8101   19.6377 H   0  0  0  0  0  0  0  0  0  0  0  0
   48.5157   14.5073   21.4286 H   0  0  0  0  0  0  0  0  0  0  0  0
   50.6946    2.4959   18.3025 H   0  0  0  0  0  0  0  0  0  0  0  0
   50.6569    2.8798   16.5568 H   0  0  0  0  0  0  0  0  0  0  0  0
   49.4175    1.8525   17.3012 H   0  0  0  0  0  0  0  0  0  0  0  0
   47.6249    3.1212   16.5619 H   0  0  0  0  0  0  0  0  0  0  0  0
   48.6721    4.2622   15.6987 H   0  0  0  0  0  0  0  0  0  0  0  0
   47.4746    4.8283   16.8796 H   0  0  0  0  0  0  0  0  0  0  0  0
  2  5  2  0
  3  1  1  0
  4  7  1  0
  5  1  1  0
  6  2  1  0
  7  1  1  0
  8  4  2  0
  9  2  1  0
 10  6  1  0
  3 11  1  0
 12  3  1  0
 13  9  1  0
 14 13  2  0
 15  4  1  0
 16  8  1  0
 11 17  1  0
 18  7  2  0
 19  9  2  0
 20 13  1  0
  1 21  1  6
 22 15  2  0
 23  5  1  0
 10 24  1  1
 12 25  1  0
 26 15  1  0
 10 27  1  0
 28 14  1  0
 29 20  1  0
 30 31  1  0
 31 20  2  0
 32 17  1  0
 33 17  1  0
 12  6  1  0
 11  8  1  0
 10 14  1  0
 30 28  2  0
 35 38  2  0
 36 34  1  0
 37 40  1  0
 38 34  1  0
 39 35  1  0
 40 34  1  0
 41 37  2  0
 42 35  1  0
 43 39  1  0
 36 44  1  0
 45 36  1  0
 46 42  1  0
 47 46  2  0
 48 37  1  0
 49 41  1  0
 44 50  1  0
 51 40  2  0
 52 42  2  0
 53 46  1  0
 34 54  1  6
 55 48  2  0
 56 38  1  0
 43 57  1  1
 45 58  1  0
 59 48  1  0
 43 60  1  0
 61 47  1  0
 62 53  1  0
 63 64  1  0
 64 53  2  0
 65 50  1  0
 66 50  1  0
 45 39  1  0
 44 41  1  0
 43 47  1  0
 63 61  2  0
  3 68  1  6
  6 69  1  6
 11 70  1  1
 12 71  1  6
 21 72  1  0
 23 73  1  0
 24 74  1  0
 25 75  1  0
 26 76  1  0
 26 77  1  0
 27 78  1  0
 27 79  1  0
 27 80  1  0
 28 81  1  0
 29 82  1  0
 30 83  1  0
 31 84  1  0
 32 85  1  0
 32 86  1  0
 32 87  1  0
 33 88  1  0
 33 89  1  0
 33 90  1  0
 36 91  1  6
 39 92  1  6
 44 93  1  1
 45 94  1  1
 54 95  1  0
 56 96  1  0
 57 97  1  0
 58 98  1  0
 59 99  1  0
 59100  1  0
 60101  1  0
 60102  1  0
 60103  1  0
 61104  1  0
 62105  1  0
 63106  1  0
 64107  1  0
 65108  1  0
 65109  1  0
 65110  1  0
 66111  1  0
 66112  1  0
 66113  1  0
M  CHG  3  16  -1  49  -1  67   2
M  END
> <Uni-Dock RESULT> 
ENERGY=   -4.623  LOWER_BOUND=   11.642  UPPER_BOUND=   14.458
INTER + INTRA:          -4.623
INTER:                  -4.623
INTRA:                   0.000
UNBOUND:                 0.000

$$$$

     RDKit          3D

113118  0  0  0  0  0  0  0  0999 V2000
   53.5923    7.7465   15.8619 C   0  0  2  0  0  0  0  0  0  0  0  0
   51.7064    6.3968   16.7834 C   0  0  0  0  0  0  0  0  0  0  0  0
   52.8848    8.9935   16.3588 C   0  0  2  0  0  0  0  0  0  0  0  0
   55.6682    8.6376   17.1832 C   0  0  0  0  0  0  0  0  0  0  0  0
   53.0181    6.4830   16.4642 C   0  0  0  0  0  0  0  0  0  0  0  0
   50.6991    7.5104   16.5271 C   0  0  1  0  0  0  0  0  0  0  0  0
   55.1075    7.8934   16.0087 C   0  0  0  0  0  0  0  0  0  0  0  0
   54.8246    9.2427   18.0750 C   0  0  0  0  0  0  0  0  0  0  0  0
   51.1758    5.1272   17.3533 C   0  0  0  0  0  0  0  0  0  0  0  0
   49.6642    7.6306   17.6987 C   0  0  1  0  0  0  0  0  0  0  0  0
   53.2560    9.2405   17.8550 C   0  0  1  0  0  0  0  0  0  0  0  0
   51.3628    8.8534   16.0887 C   0  0  2  0  0  0  0  0  0  0  0  0
   49.7566    5.0760   17.7694 C   0  0  0  0  0  0  0  0  0  0  0  0
   49.0091    6.2598   17.9315 C   0  0  0  0  0  0  0  0  0  0  0  0
   57.1839    8.6639   17.3669 C   0  0  0  0  0  0  0  0  0  0  0  0
   55.1284    9.8191   19.1569 O   0  0  0  0  0  0  0  0  0  0  0  0
   52.3953   10.3823   18.3313 N   0  0  0  0  0  0  0  0  0  0  0  0
   55.8423    7.3864   15.1437 O   0  0  0  0  0  0  0  0  0  0  0  0
   51.8806    4.1215   17.4517 O   0  0  0  0  0  0  0  0  0  0  0  0
   49.1622    3.8186   17.9842 C   0  0  0  0  0  0  0  0  0  0  0  0
   53.3531    7.6087   14.4316 O   0  0  0  0  0  0  0  0  0  0  0  0
   57.8235    8.9239   18.3830 O   0  0  0  0  0  0  0  0  0  0  0  0
   53.9145    5.4400   16.6173 O   0  0  0  0  0  0  0  0  0  0  0  0
   50.3216    7.9500   18.9225 O   0  0  0  0  0  0  0  0  0  0  0  0
   51.1238    8.9938   14.6637 O   0  0  0  0  0  0  0  0  0  0  0  0
   57.9241    8.3356   16.2587 N   0  0  0  0  0  0  0  0  0  0  0  0
   48.6187    8.7364   17.4367 C   0  0  0  0  0  0  0  0  0  0  0  0
   47.6670    6.1221   18.3392 C   0  0  0  0  0  0  0  0  0  0  0  0
   49.8331    2.6284   17.8404 O   0  0  0  0  0  0  0  0  0  0  0  0
   47.0838    4.8701   18.5408 C   0  0  0  0  0  0  0  0  0  0  0  0
   47.8290    3.7152   18.3566 C   0  0  0  0  0  0  0  0  0  0  0  0
   52.3391   10.4756   19.8008 C   0  0  0  0  0  0  0  0  0  0  0  0
   52.8383   11.6825   17.8061 C   0  0  0  0  0  0  0  0  0  0  0  0
   52.1685    9.5556   16.8807 C   0  0  2  0  0  0  0  0  0  0  0  0
   50.5989    7.5537   16.6950 C   0  0  0  0  0  0  0  0  0  0  0  0
   52.6016    9.0049   18.2476 C   0  0  2  0  0  0  0  0  0  0  0  0
   54.6581    9.0344   16.2104 C   0  0  0  0  0  0  0  0  0  0  0  0
   51.1249    8.6859   16.1651 C   0  0  0  0  0  0  0  0  0  0  0  0
   51.0324    7.0232   18.0424 C   0  0  1  0  0  0  0  0  0  0  0  0
   53.3954    9.8066   15.9469 C   0  0  0  0  0  0  0  0  0  0  0  0
   54.9435    8.8022   17.5207 C   0  0  0  0  0  0  0  0  0  0  0  0
   49.5145    6.8489   15.9651 C   0  0  0  0  0  0  0  0  0  0  0  0
   50.8036    5.4968   18.3013 C   0  0  1  0  0  0  0  0  0  0  0  0
   54.0373    9.4907   18.5786 C   0  0  1  0  0  0  0  0  0  0  0  0
   52.5086    7.4539   18.2363 C   0  0  2  0  0  0  0  0  0  0  0  0
   49.0330    5.5372   16.4459 C   0  0  0  0  0  0  0  0  0  0  0  0
   49.6481    4.8807   17.5189 C   0  0  0  0  0  0  0  0  0  0  0  0
   55.4679    8.5179   15.0475 C   0  0  0  0  0  0  0  0  0  0  0  0
   55.7884    8.0536   18.0911 O   0  0  0  0  0  0  0  0  0  0  0  0
   54.2090   10.9804   18.6038 N   0  0  0  0  0  0  0  0  0  0  0  0
   53.3149   10.5693   14.9724 O   0  0  0  0  0  0  0  0  0  0  0  0
   49.0058    7.3462   14.9570 O   0  0  0  0  0  0  0  0  0  0  0  0
   47.9557    4.9204   15.7715 C   0  0  0  0  0  0  0  0  0  0  0  0
   51.4846   10.8143   17.0756 O   0  0  0  0  0  0  0  0  0  0  0  0
   56.5620    7.9629   15.0866 O   0  0  0  0  0  0  0  0  0  0  0  0
   50.6858    9.2272   14.9613 O   0  0  0  0  0  0  0  0  0  0  0  0
   51.9472    4.7328   17.9142 O   0  0  0  0  0  0  0  0  0  0  0  0
   53.0900    6.8840   19.4085 O   0  0  0  0  0  0  0  0  0  0  0  0
   54.9057    8.7301   13.8099 N   0  0  0  0  0  0  0  0  0  0  0  0
   50.5711    5.2768   19.8193 C   0  0  0  0  0  0  0  0  0  0  0  0
   49.1970    3.5754   17.8358 C   0  0  0  0  0  0  0  0  0  0  0  0
   47.2858    5.4984   14.7234 O   0  0  0  0  0  0  0  0  0  0  0  0
   48.1337    2.9753   17.1637 C   0  0  0  0  0  0  0  0  0  0  0  0
   47.5038    3.6549   16.1321 C   0  0  0  0  0  0  0  0  0  0  0  0
   55.6236   11.3296   18.8272 C   0  0  0  0  0  0  0  0  0  0  0  0
   53.4071   11.5851   19.6718 C   0  0  0  0  0  0  0  0  0  0  0  0
   51.9542    7.8031   17.3684 Ca  0  0  0  0  0 15  0  0  0  0  0  0
   53.2469    9.8326   15.7472 H   0  0  0  0  0  0  0  0  0  0  0  0
   50.1135    7.1616   15.6595 H   0  0  0  0  0  0  0  0  0  0  0  0
   52.9082    8.3664   18.4218 H   0  0  0  0  0  0  0  0  0  0  0  0
   50.8505    9.7118   16.5142 H   0  0  0  0  0  0  0  0  0  0  0  0
   53.9567    6.8780   14.1770 H   0  0  0  0  0  0  0  0  0  0  0  0
   53.4472    4.6888   17.0470 H   0  0  0  0  0  0  0  0  0  0  0  0
   50.7361    8.8312   18.8153 H   0  0  0  0  0  0  0  0  0  0  0  0
   51.8470    8.5042   14.2092 H   0  0  0  0  0  0  0  0  0  0  0  0
   58.9076    8.1988   16.4220 H   0  0  0  0  0  0  0  0  0  0  0  0
   57.4781    7.8782   15.4689 H   0  0  0  0  0  0  0  0  0  0  0  0
   47.9490    8.8606   18.2967 H   0  0  0  0  0  0  0  0  0  0  0  0
   48.0186    8.5254   16.5464 H   0  0  0  0  0  0  0  0  0  0  0  0
   49.0699    9.7274   17.3239 H   0  0  0  0  0  0  0  0  0  0  0  0
   47.0380    6.9885   18.5181 H   0  0  0  0  0  0  0  0  0  0  0  0
   50.7850    2.8371   17.7293 H   0  0  0  0  0  0  0  0  0  0  0  0
   46.0406    4.7948   18.8426 H   0  0  0  0  0  0  0  0  0  0  0  0
   47.3787    2.7386   18.5056 H   0  0  0  0  0  0  0  0  0  0  0  0
   52.2452    9.4909   20.2716 H   0  0  0  0  0  0  0  0  0  0  0  0
   53.1803   11.0082   20.2590 H   0  0  0  0  0  0  0  0  0  0  0  0
   51.4370   11.0309   20.0782 H   0  0  0  0  0  0  0  0  0  0  0  0
   52.1662   12.4760   18.1616 H   0  0  0  0  0  0  0  0  0  0  0  0
   52.7892   11.7154   16.7105 H   0  0  0  0  0  0  0  0  0  0  0  0
   53.8560   11.9607   18.1120 H   0  0  0  0  0  0  0  0  0  0  0  0
   51.9343    9.3664   19.0405 H   0  0  0  0  0  0  0  0  0  0  0  0
   50.4031    7.5558   18.7717 H   0  0  0  0  0  0  0  0  0  0  0  0
   54.2796    9.1314   19.5947 H   0  0  0  0  0  0  0  0  0  0  0  0
   53.0719    7.0348   17.3928 H   0  0  0  0  0  0  0  0  0  0  0  0
   51.4299   11.1791   16.1694 H   0  0  0  0  0  0  0  0  0  0  0  0
   49.9578    8.6697   14.6132 H   0  0  0  0  0  0  0  0  0  0  0  0
   52.6893    5.0399   18.4777 H   0  0  0  0  0  0  0  0  0  0  0  0
   54.0664    7.0265   19.2909 H   0  0  0  0  0  0  0  0  0  0  0  0
   54.2023    9.4629   13.7078 H   0  0  0  0  0  0  0  0  0  0  0  0
   55.5270    8.5554   13.0348 H   0  0  0  0  0  0  0  0  0  0  0  0
   50.6539    4.2214   20.0990 H   0  0  0  0  0  0  0  0  0  0  0  0
   49.5854    5.6411   20.1302 H   0  0  0  0  0  0  0  0  0  0  0  0
   51.3123    5.7849   20.4390 H   0  0  0  0  0  0  0  0  0  0  0  0
   49.6985    2.9960   18.6096 H   0  0  0  0  0  0  0  0  0  0  0  0
   47.7558    6.3320   14.4984 H   0  0  0  0  0  0  0  0  0  0  0  0
   47.8152    1.9730   17.4329 H   0  0  0  0  0  0  0  0  0  0  0  0
   46.6762    3.1981   15.6030 H   0  0  0  0  0  0  0  0  0  0  0  0
   56.2498   11.0409   17.9760 H   0  0  0  0  0  0  0  0  0  0  0  0
   56.0265   10.8765   19.7422 H   0  0  0  0  0  0  0  0  0  0  0  0
   55.7322   12.4180   18.9158 H   0  0  0  0  0  0  0  0  0  0  0  0
   53.5702   12.6702   19.7107 H   0  0  0  0  0  0  0  0  0  0  0  0
   53.6485   11.1749   20.6602 H   0  0  0  0  0  0  0  0  0  0  0  0
   52.3345   11.4590   19.5019 H   0  0  0  0  0  0  0  0  0  0  0  0
  2  5  2  0
  3  1  1  0
  4  7  1  0
  5  1  1  0
  6  2  1  0
  7  1  1  0
  8  4  2  0
  9  2  1  0
 10  6  1  0
  3 11  1  0
 12  3  1  0
 13  9  1  0
 14 13  2  0
 15  4  1  0
 16  8  1  0
 11 17  1  0
 18  7  2  0
 19  9  2  0
 20 13  1  0
  1 21  1  6
 22 15  2  0
 23  5  1  0
 10 24  1  1
 12 25  1  0
 26 15  1  0
 10 27  1  0
 28 14  1  0
 29 20  1  0
 30 31  1  0
 31 20  2  0
 32 17  1  0
 33 17  1  0
 12  6  1  0
 11  8  1  0
 10 14  1  0
 30 28  2  0
 35 38  2  0
 36 34  1  0
 37 40  1  0
 38 34  1  0
 39 35  1  0
 40 34  1  0
 41 37  2  0
 42 35  1  0
 43 39  1  0
 36 44  1  0
 45 36  1  0
 46 42  1  0
 47 46  2  0
 48 37  1  0
 49 41  1  0
 44 50  1  0
 51 40  2  0
 52 42  2  0
 53 46  1  0
 34 54  1  6
 55 48  2  0
 56 38  1  0
 43 57  1  1
 45 58  1  0
 59 48  1  0
 43 60  1  0
 61 47  1  0
 62 53  1  0
 63 64  1  0
 64 53  2  0
 65 50  1  0
 66 50  1  0
 45 39  1  0
 44 41  1  0
 43 47  1  0
 63 61  2  0
  3 68  1  6
  6 69  1  6
 11 70  1  1
 12 71  1  6
 21 72  1  0
 23 73  1  0
 24 74  1  0
 25 75  1  0
 26 76  1  0
 26 77  1  0
 27 78  1  0
 27 79  1  0
 27 80  1  0
 28 81  1  0
 29 82  1  0
 30 83  1  0
 31 84  1  0
 32 85  1  0
 32 86  1  0
 32 87  1  0
 33 88  1  0
 33 89  1  0
 33 90  1  0
 36 91  1  6
 39 92  1  6
 44 93  1  1
 45 94  1  1
 54 95  1  0
 56 96  1  0
 57 97  1  0
 58 98  1  0
 59 99  1  0
 59100  1  0
 60101  1  0
 60102  1  0
 60103  1  0
 61104  1  0
 62105  1  0
 63106  1  0
 64107  1  0
 65108  1  0
 65109  1  0
 65110  1  0
 66111  1  0
 66112  1  0
 66113  1  0
M  CHG  3  16  -1  49  -1  67   2
M  END
> <Uni-Dock RESULT> 
ENERGY=   -4.578  LOWER_BOUND=   11.275  UPPER_BOUND=   14.265
INTER + INTRA:          -4.578
INTER:                  -4.578
INTRA:                   0.000
UNBOUND:                 0.000

$$$$

     RDKit          3D

113118  0  0  0  0  0  0  0  0999 V2000
   50.7396    9.8766   17.0590 C   0  0  2  0  0  0  0  0  0  0  0  0
   50.0762    8.9658   19.2857 C   0  0  0  0  0  0  0  0  0  0  0  0
   49.6056   10.8776   17.1798 C   0  0  2  0  0  0  0  0  0  0  0  0
   52.2642   11.9563   16.6124 C   0  0  0  0  0  0  0  0  0  0  0  0
   51.0499    9.2001   18.3762 C   0  0  0  0  0  0  0  0  0  0  0  0
   48.6081    9.3021   19.0580 C   0  0  1  0  0  0  0  0  0  0  0  0
   51.9463   10.5120   16.3667 C   0  0  0  0  0  0  0  0  0  0  0  0
   51.4351   12.7156   17.3928 C   0  0  0  0  0  0  0  0  0  0  0  0
   50.4192    8.2768   20.5608 C   0  0  0  0  0  0  0  0  0  0  0  0
   47.9321    9.8414   20.3658 C   0  0  1  0  0  0  0  0  0  0  0  0
   50.0934   12.1207   17.9886 C   0  0  1  0  0  0  0  0  0  0  0  0
   48.3642   10.1661   17.7811 C   0  0  2  0  0  0  0  0  0  0  0  0
   49.3584    8.0985   21.5771 C   0  0  0  0  0  0  0  0  0  0  0  0
   48.1551    8.8281   21.4999 C   0  0  0  0  0  0  0  0  0  0  0  0
   53.5420   12.5297   16.0040 C   0  0  0  0  0  0  0  0  0  0  0  0
   51.6091   13.9072   17.7732 O   0  0  0  0  0  0  0  0  0  0  0  0
   48.8835   12.9897   18.2177 N   0  0  0  0  0  0  0  0  0  0  0  0
   52.6397    9.8082   15.6125 O   0  0  0  0  0  0  0  0  0  0  0  0
   51.5480    7.8285   20.7671 O   0  0  0  0  0  0  0  0  0  0  0  0
   49.5686    7.1717   22.6152 C   0  0  0  0  0  0  0  0  0  0  0  0
   50.3175    8.7915   16.1836 O   0  0  0  0  0  0  0  0  0  0  0  0
   54.1455   13.5512   16.3227 O   0  0  0  0  0  0  0  0  0  0  0  0
   52.3681    8.8158   18.5480 O   0  0  0  0  0  0  0  0  0  0  0  0
   48.5624   11.0434   20.8013 O   0  0  0  0  0  0  0  0  0  0  0  0
   47.7981    9.2821   16.7784 O   0  0  0  0  0  0  0  0  0  0  0  0
   54.0962   11.7984   14.9833 N   0  0  0  0  0  0  0  0  0  0  0  0
   46.4353   10.1575   20.1560 C   0  0  0  0  0  0  0  0  0  0  0  0
   47.2016    8.6052   22.5136 C   0  0  0  0  0  0  0  0  0  0  0  0
   50.7157    6.4272   22.7461 O   0  0  0  0  0  0  0  0  0  0  0  0
   47.4154    7.6770   23.5339 C   0  0  0  0  0  0  0  0  0  0  0  0
   48.5972    6.9531   23.5825 C   0  0  0  0  0  0  0  0  0  0  0  0
   49.0927   13.9831   19.2856 C   0  0  0  0  0  0  0  0  0  0  0  0
   48.4615   13.7039   17.0034 C   0  0  0  0  0  0  0  0  0  0  0  0
   48.8276   11.4057   17.6459 C   0  0  2  0  0  0  0  0  0  0  0  0
   48.5374    9.4117   19.2099 C   0  0  0  0  0  0  0  0  0  0  0  0
   49.7567   12.0167   18.7054 C   0  0  2  0  0  0  0  0  0  0  0  0
   51.0200   11.3225   16.1950 C   0  0  0  0  0  0  0  0  0  0  0  0
   48.2708   10.0276   18.0313 C   0  0  0  0  0  0  0  0  0  0  0  0
   49.4523   10.0249   20.2453 C   0  0  1  0  0  0  0  0  0  0  0  0
   49.5176   11.3380   16.2461 C   0  0  0  0  0  0  0  0  0  0  0  0
   51.6488   12.0810   17.1338 C   0  0  0  0  0  0  0  0  0  0  0  0
   47.8578    8.1298   19.5267 C   0  0  0  0  0  0  0  0  0  0  0  0
   50.1146    9.0406   21.2661 C   0  0  1  0  0  0  0  0  0  0  0  0
   50.7587   12.9882   18.0278 C   0  0  1  0  0  0  0  0  0  0  0  0
   50.4881   10.8807   19.4728 C   0  0  2  0  0  0  0  0  0  0  0  0
   48.2448    7.3679   20.7322 C   0  0  0  0  0  0  0  0  0  0  0  0
   49.3189    7.7676   21.5367 C   0  0  0  0  0  0  0  0  0  0  0  0
   51.7187   10.4424   15.1890 C   0  0  0  0  0  0  0  0  0  0  0  0
   52.8570   12.1589   17.4998 O   0  0  0  0  0  0  0  0  0  0  0  0
   50.1273   14.1123   17.2615 N   0  0  0  0  0  0  0  0  0  0  0  0
   48.8505   11.2311   15.2062 O   0  0  0  0  0  0  0  0  0  0  0  0
   46.9684    7.6894   18.7938 O   0  0  0  0  0  0  0  0  0  0  0  0
   47.5366    6.1862   21.0450 C   0  0  0  0  0  0  0  0  0  0  0  0
   47.6445   12.2279   17.5268 O   0  0  0  0  0  0  0  0  0  0  0  0
   52.9217   10.3885   14.9512 O   0  0  0  0  0  0  0  0  0  0  0  0
   47.3754    9.5127   17.0995 O   0  0  0  0  0  0  0  0  0  0  0  0
   51.3794    8.5789   20.7884 O   0  0  0  0  0  0  0  0  0  0  0  0
   51.5097   11.3960   20.3260 O   0  0  0  0  0  0  0  0  0  0  0  0
   50.8866    9.6366   14.4468 N   0  0  0  0  0  0  0  0  0  0  0  0
   50.3516    9.7919   22.6026 C   0  0  0  0  0  0  0  0  0  0  0  0
   49.6937    6.9137   22.6034 C   0  0  0  0  0  0  0  0  0  0  0  0
   46.4634    5.7309   20.3224 O   0  0  0  0  0  0  0  0  0  0  0  0
   48.9888    5.7494   22.9034 C   0  0  0  0  0  0  0  0  0  0  0  0
   47.8990    5.3883   22.1257 C   0  0  0  0  0  0  0  0  0  0  0  0
   51.1608   14.9115   16.5790 C   0  0  0  0  0  0  0  0  0  0  0  0
   49.3693   14.9964   18.1520 C   0  0  0  0  0  0  0  0  0  0  0  0
   49.6673   10.4118   18.9352 Ca  0  0  0  0  0 15  0  0  0  0  0  0
   49.3398   11.1856   16.1581 H   0  0  0  0  0  0  0  0  0  0  0  0
   48.1264    8.3285   18.8646 H   0  0  0  0  0  0  0  0  0  0  0  0
   50.3801   11.7633   18.9868 H   0  0  0  0  0  0  0  0  0  0  0  0
   47.5800   10.9014   17.9381 H   0  0  0  0  0  0  0  0  0  0  0  0
   51.1458    8.2828   16.0487 H   0  0  0  0  0  0  0  0  0  0  0  0
   52.4632    8.4232   19.4448 H   0  0  0  0  0  0  0  0  0  0  0  0
   48.4223   11.7202   20.1068 H   0  0  0  0  0  0  0  0  0  0  0  0
   48.5579    8.8509   16.3245 H   0  0  0  0  0  0  0  0  0  0  0  0
   55.0148   12.0895   14.6935 H   0  0  0  0  0  0  0  0  0  0  0  0
   53.8028   10.8378   14.8311 H   0  0  0  0  0  0  0  0  0  0  0  0
   45.9947   10.6048   21.0556 H   0  0  0  0  0  0  0  0  0  0  0  0
   45.8649    9.2630   19.8879 H   0  0  0  0  0  0  0  0  0  0  0  0
   46.2671   10.9191   19.3879 H   0  0  0  0  0  0  0  0  0  0  0  0
   46.2656    9.1543   22.5410 H   0  0  0  0  0  0  0  0  0  0  0  0
   51.3708    6.7784   22.1062 H   0  0  0  0  0  0  0  0  0  0  0  0
   46.6546    7.5167   24.2957 H   0  0  0  0  0  0  0  0  0  0  0  0
   48.7661    6.2251   24.3699 H   0  0  0  0  0  0  0  0  0  0  0  0
   49.6272   13.5588   20.1425 H   0  0  0  0  0  0  0  0  0  0  0  0
   49.6049   14.8982   18.9668 H   0  0  0  0  0  0  0  0  0  0  0  0
   48.1139   14.2958   19.6642 H   0  0  0  0  0  0  0  0  0  0  0  0
   47.5646   14.3022   17.2164 H   0  0  0  0  0  0  0  0  0  0  0  0
   48.1768   13.0097   16.2029 H   0  0  0  0  0  0  0  0  0  0  0  0
   49.2211   14.3913   16.6069 H   0  0  0  0  0  0  0  0  0  0  0  0
   49.1802   12.5904   19.4425 H   0  0  0  0  0  0  0  0  0  0  0  0
   48.8046   10.6901   20.8365 H   0  0  0  0  0  0  0  0  0  0  0  0
   51.3573   13.4552   18.8302 H   0  0  0  0  0  0  0  0  0  0  0  0
   50.9983   10.2038   18.7758 H   0  0  0  0  0  0  0  0  0  0  0  0
   47.2209   11.8896   16.7124 H   0  0  0  0  0  0  0  0  0  0  0  0
   46.9927    8.6833   17.4567 H   0  0  0  0  0  0  0  0  0  0  0  0
   51.9493    9.3728   20.7013 H   0  0  0  0  0  0  0  0  0  0  0  0
   52.2183   11.7032   19.7007 H   0  0  0  0  0  0  0  0  0  0  0  0
   49.9007    9.8889   14.3656 H   0  0  0  0  0  0  0  0  0  0  0  0
   51.3311    9.1939   13.6570 H   0  0  0  0  0  0  0  0  0  0  0  0
   51.0297    9.2456   23.2664 H   0  0  0  0  0  0  0  0  0  0  0  0
   49.4106    9.9663   23.1363 H   0  0  0  0  0  0  0  0  0  0  0  0
   50.8275   10.7644   22.4628 H   0  0  0  0  0  0  0  0  0  0  0  0
   50.5716    7.1433   23.2056 H   0  0  0  0  0  0  0  0  0  0  0  0
   46.3697    6.3141   19.5366 H   0  0  0  0  0  0  0  0  0  0  0  0
   49.3050    5.1183   23.7281 H   0  0  0  0  0  0  0  0  0  0  0  0
   47.3437    4.4856   22.3499 H   0  0  0  0  0  0  0  0  0  0  0  0
   51.6533   14.3403   15.7844 H   0  0  0  0  0  0  0  0  0  0  0  0
   51.9204   15.2931   17.2734 H   0  0  0  0  0  0  0  0  0  0  0  0
   50.7002   15.7729   16.0791 H   0  0  0  0  0  0  0  0  0  0  0  0
   48.9451   15.8393   17.5907 H   0  0  0  0  0  0  0  0  0  0  0  0
   49.9881   15.4091   18.9584 H   0  0  0  0  0  0  0  0  0  0  0  0
   48.5130   14.4886   18.6038 H   0  0  0  0  0  0  0  0  0  0  0  0
  2  5  2  0
  3  1  1  0
  4  7  1  0
  5  1  1  0
  6  2  1  0
  7  1  1  0
  8  4  2  0
  9  2  1  0
 10  6  1  0
  3 11  1  0
 12  3  1  0
 13  9  1  0
 14 13  2  0
 15  4  1  0
 16  8  1  0
 11 17  1  0
 18  7  2  0
 19  9  2  0
 20 13  1  0
  1 21  1  6
 22 15  2  0
 23  5  1  0
 10 24  1  1
 12 25  1  0
 26 15  1  0
 10 27  1  0
 28 14  1  0
 29 20  1  0
 30 31  1  0
 31 20  2  0
 32 17  1  0
 33 17  1  0
 12  6  1  0
 11  8  1  0
 10 14  1  0
 30 28  2  0
 35 38  2  0
 36 34  1  0
 37 40  1  0
 38 34  1  0
 39 35  1  0
 40 34  1  0
 41 37  2  0
 42 35  1  0
 43 39  1  0
 36 44  1  0
 45 36  1  0
 46 42  1  0
 47 46  2  0
 48 37  1  0
 49 41  1  0
 44 50  1  0
 51 40  2  0
 52 42  2  0
 53 46  1  0
 34 54  1  6
 55 48  2  0
 56 38  1  0
 43 57  1  1
 45 58  1  0
 59 48  1  0
 43 60  1  0
 61 47  1  0
 62 53  1  0
 63 64  1  0
 64 53  2  0
 65 50  1  0
 66 50  1  0
 45 39  1  0
 44 41  1  0
 43 47  1  0
 63 61  2  0
  3 68  1  6
  6 69  1  6
 11 70  1  1
 12 71  1  6
 21 72  1  0
 23 73  1  0
 24 74  1  0
 25 75  1  0
 26 76  1  0
 26 77  1  0
 27 78  1  0
 27 79  1  0
 27 80  1  0
 28 81  1  0
 29 82  1  0
 30 83  1  0
 31 84  1  0
 32 85  1  0
 32 86  1  0
 32 87  1  0
 33 88  1  0
 33 89  1  0
 33 90  1  0
 36 91  1  6
 39 92  1  6
 44 93  1  1
 45 94  1  1
 54 95  1  0
 56 96  1  0
 57 97  1  0
 58 98  1  0
 59 99  1  0
 59100  1  0
 60101  1  0
 60102  1  0
 60103  1  0
 61104  1  0
 62105  1  0
 63106  1  0
 64107  1  0
 65108  1  0
 65109  1  0
 65110  1  0
 66111  1  0
 66112  1  0
 66113  1  0
M  CHG  3  16  -1  49  -1  67   2
M  END
> <Uni-Dock RESULT> 
ENERGY=   -4.436  LOWER_BOUND=   10.546  UPPER_BOUND=   13.682
INTER + INTRA:          -4.436
INTER:                  -4.436
INTRA:                   0.000
UNBOUND:                 0.000

$$$$

     RDKit          3D

113118  0  0  0  0  0  0  0  0999 V2000
   49.4477    8.3140   16.1920 C   0  0  2  0  0  0  0  0  0  0  0  0
   49.2003    9.9830   18.0307 C   0  0  0  0  0  0  0  0  0  0  0  0
   50.6635    7.7639   16.9143 C   0  0  2  0  0  0  0  0  0  0  0  0
   48.5763    5.8462   16.1935 C   0  0  0  0  0  0  0  0  0  0  0  0
   48.6201    9.2236   17.0732 C   0  0  0  0  0  0  0  0  0  0  0  0
   50.7032   10.0348   18.2733 C   0  0  1  0  0  0  0  0  0  0  0  0
   48.6629    7.1845   15.5232 C   0  0  0  0  0  0  0  0  0  0  0  0
   49.2577    5.6200   17.3587 C   0  0  0  0  0  0  0  0  0  0  0  0
   48.3528   10.8823   18.8620 C   0  0  0  0  0  0  0  0  0  0  0  0
   51.0363   10.1179   19.8030 C   0  0  1  0  0  0  0  0  0  0  0  0
   50.2058    6.7236   17.9847 C   0  0  1  0  0  0  0  0  0  0  0  0
   51.4936    8.9466   17.4810 C   0  0  2  0  0  0  0  0  0  0  0  0
   48.9922   11.6468   19.9560 C   0  0  0  0  0  0  0  0  0  0  0  0
   50.2800   11.3069   20.4170 C   0  0  0  0  0  0  0  0  0  0  0  0
   47.6873    4.7770   15.5626 C   0  0  0  0  0  0  0  0  0  0  0  0
   49.2137    4.5930   18.0924 O   0  0  0  0  0  0  0  0  0  0  0  0
   51.4329    6.3475   18.7747 N   0  0  0  0  0  0  0  0  0  0  0  0
   48.1107    7.4070   14.4320 O   0  0  0  0  0  0  0  0  0  0  0  0
   47.1501   11.0245   18.6358 O   0  0  0  0  0  0  0  0  0  0  0  0
   48.2943   12.7326   20.5168 C   0  0  0  0  0  0  0  0  0  0  0  0
   49.8959    9.1718   15.1033 O   0  0  0  0  0  0  0  0  0  0  0  0
   47.2289    3.7631   16.0835 O   0  0  0  0  0  0  0  0  0  0  0  0
   47.2644    9.2427   16.7963 O   0  0  0  0  0  0  0  0  0  0  0  0
   50.5528    8.9655   20.4885 O   0  0  0  0  0  0  0  0  0  0  0  0
   52.1547    9.6258   16.3815 O   0  0  0  0  0  0  0  0  0  0  0  0
   47.3412    4.9876   14.2513 N   0  0  0  0  0  0  0  0  0  0  0  0
   52.5565   10.2017   20.0609 C   0  0  0  0  0  0  0  0  0  0  0  0
   50.8115   12.0802   21.4685 C   0  0  0  0  0  0  0  0  0  0  0  0
   47.0394   13.1180   20.1117 O   0  0  0  0  0  0  0  0  0  0  0  0
   50.1154   13.1611   22.0119 C   0  0  0  0  0  0  0  0  0  0  0  0
   48.8576   13.4938   21.5318 C   0  0  0  0  0  0  0  0  0  0  0  0
   51.1055    5.6907   20.0524 C   0  0  0  0  0  0  0  0  0  0  0  0
   52.3402    5.4656   18.0252 C   0  0  0  0  0  0  0  0  0  0  0  0
   51.3484    7.6426   17.7002 C   0  0  2  0  0  0  0  0  0  0  0  0
   50.7439    9.9993   18.4661 C   0  0  0  0  0  0  0  0  0  0  0  0
   50.2781    7.1239   18.6721 C   0  0  2  0  0  0  0  0  0  0  0  0
   49.7378    6.6632   15.8657 C   0  0  0  0  0  0  0  0  0  0  0  0
   51.4762    9.1726   17.6789 C   0  0  0  0  0  0  0  0  0  0  0  0
   49.6946    9.4758   19.4200 C   0  0  1  0  0  0  0  0  0  0  0  0
   51.1236    7.0985   16.2533 C   0  0  0  0  0  0  0  0  0  0  0  0
   49.0133    6.0618   16.8483 C   0  0  0  0  0  0  0  0  0  0  0  0
   51.0261   11.4572   18.4446 C   0  0  0  0  0  0  0  0  0  0  0  0
   48.5699   10.4783   19.8435 C   0  0  1  0  0  0  0  0  0  0  0  0
   49.7456    5.7513   18.1831 C   0  0  1  0  0  0  0  0  0  0  0  0
   49.1370    8.1713   18.7960 C   0  0  2  0  0  0  0  0  0  0  0  0
   50.1446   12.3901   19.1768 C   0  0  0  0  0  0  0  0  0  0  0  0
   48.9761   11.9483   19.8094 C   0  0  0  0  0  0  0  0  0  0  0  0
   49.2234    6.9719   14.4819 C   0  0  0  0  0  0  0  0  0  0  0  0
   47.7914    5.7476   16.9379 O   0  0  0  0  0  0  0  0  0  0  0  0
   50.7909    4.6861   18.0335 N   0  0  0  0  0  0  0  0  0  0  0  0
   52.0434    7.0872   15.4217 O   0  0  0  0  0  0  0  0  0  0  0  0
   51.9926   11.9036   17.8210 O   0  0  0  0  0  0  0  0  0  0  0  0
   50.4744   13.7637   19.1941 C   0  0  0  0  0  0  0  0  0  0  0  0
   52.6485    7.2002   18.1519 O   0  0  0  0  0  0  0  0  0  0  0  0
   48.1662    6.6041   13.9782 O   0  0  0  0  0  0  0  0  0  0  0  0
   52.4948    9.6309   16.8497 O   0  0  0  0  0  0  0  0  0  0  0  0
   47.4485   10.3950   18.9623 O   0  0  0  0  0  0  0  0  0  0  0  0
   48.0253    7.6534   19.5259 O   0  0  0  0  0  0  0  0  0  0  0  0
   50.0674    7.7324   13.7059 N   0  0  0  0  0  0  0  0  0  0  0  0
   48.0862   10.1123   21.2715 C   0  0  0  0  0  0  0  0  0  0  0  0
   48.1305   12.9283   20.3855 C   0  0  0  0  0  0  0  0  0  0  0  0
   51.6059   14.2798   18.6156 O   0  0  0  0  0  0  0  0  0  0  0  0
   48.4646   14.2814   20.3967 C   0  0  0  0  0  0  0  0  0  0  0  0
   49.6472   14.7003   19.8058 C   0  0  0  0  0  0  0  0  0  0  0  0
   50.1966    3.4601   17.4711 C   0  0  0  0  0  0  0  0  0  0  0  0
   51.3968    4.3574   19.3273 C   0  0  0  0  0  0  0  0  0  0  0  0
   49.9740    8.6805   18.3239 Ca  0  0  0  0  0 15  0  0  0  0  0  0
   51.2860    7.2634   16.1585 H   0  0  0  0  0  0  0  0  0  0  0  0
   51.0190   11.0061   17.8560 H   0  0  0  0  0  0  0  0  0  0  0  0
   49.5612    7.2564   18.6967 H   0  0  0  0  0  0  0  0  0  0  0  0
   52.3203    8.5483   18.0626 H   0  0  0  0  0  0  0  0  0  0  0  0
   49.0661    9.3571   14.6133 H   0  0  0  0  0  0  0  0  0  0  0  0
   46.8224    9.8336   17.4467 H   0  0  0  0  0  0  0  0  0  0  0  0
   51.0304    8.1872   20.1336 H   0  0  0  0  0  0  0  0  0  0  0  0
   51.5021    9.6676   15.6456 H   0  0  0  0  0  0  0  0  0  0  0  0
   46.6328    4.3722   13.8879 H   0  0  0  0  0  0  0  0  0  0  0  0
   47.4717    5.9046   13.8339 H   0  0  0  0  0  0  0  0  0  0  0  0
   52.7780   10.1822   21.1352 H   0  0  0  0  0  0  0  0  0  0  0  0
   52.9935   11.1048   19.6242 H   0  0  0  0  0  0  0  0  0  0  0  0
   53.0997    9.3327   19.6761 H   0  0  0  0  0  0  0  0  0  0  0  0
   51.7826   11.8580   21.8997 H   0  0  0  0  0  0  0  0  0  0  0  0
   46.6958   12.4223   19.5116 H   0  0  0  0  0  0  0  0  0  0  0  0
   50.5575   13.7486   22.8146 H   0  0  0  0  0  0  0  0  0  0  0  0
   48.3145   14.3375   21.9462 H   0  0  0  0  0  0  0  0  0  0  0  0
   50.2606    6.1718   20.5570 H   0  0  0  0  0  0  0  0  0  0  0  0
   50.9074    4.6153   19.9777 H   0  0  0  0  0  0  0  0  0  0  0  0
   51.9618    5.7985   20.7265 H   0  0  0  0  0  0  0  0  0  0  0  0
   53.2276    5.2412   18.6335 H   0  0  0  0  0  0  0  0  0  0  0  0
   52.7147    5.9489   17.1141 H   0  0  0  0  0  0  0  0  0  0  0  0
   51.8908    4.5038   17.7430 H   0  0  0  0  0  0  0  0  0  0  0  0
   50.7011    6.9813   19.6748 H   0  0  0  0  0  0  0  0  0  0  0  0
   50.2469    9.2280   20.3394 H   0  0  0  0  0  0  0  0  0  0  0  0
   49.0336    5.3850   18.9441 H   0  0  0  0  0  0  0  0  0  0  0  0
   48.7431    8.4389   17.8073 H   0  0  0  0  0  0  0  0  0  0  0  0
   53.2267    7.3951   17.3871 H   0  0  0  0  0  0  0  0  0  0  0  0
   52.5775   10.6018   16.9611 H   0  0  0  0  0  0  0  0  0  0  0  0
   47.1014    9.4807   19.0411 H   0  0  0  0  0  0  0  0  0  0  0  0
   47.6187    6.9868   18.9113 H   0  0  0  0  0  0  0  0  0  0  0  0
   51.0598    7.7638   13.9433 H   0  0  0  0  0  0  0  0  0  0  0  0
   49.8093    7.7784   12.7320 H   0  0  0  0  0  0  0  0  0  0  0  0
   47.1430   10.6072   21.5252 H   0  0  0  0  0  0  0  0  0  0  0  0
   48.8323   10.3804   22.0279 H   0  0  0  0  0  0  0  0  0  0  0  0
   47.8781    9.0470   21.3877 H   0  0  0  0  0  0  0  0  0  0  0  0
   47.1734   12.6397   20.8175 H   0  0  0  0  0  0  0  0  0  0  0  0
   52.0499   13.5468   18.1340 H   0  0  0  0  0  0  0  0  0  0  0  0
   47.7920   15.0049   20.8467 H   0  0  0  0  0  0  0  0  0  0  0  0
   49.9169   15.7495   19.8088 H   0  0  0  0  0  0  0  0  0  0  0  0
   49.8700    3.6080   16.4360 H   0  0  0  0  0  0  0  0  0  0  0  0
   49.3511    3.0938   18.0677 H   0  0  0  0  0  0  0  0  0  0  0  0
   50.9491    2.6624   17.4305 H   0  0  0  0  0  0  0  0  0  0  0  0
   52.1307    3.5483   19.2162 H   0  0  0  0  0  0  0  0  0  0  0  0
   50.6541    4.0359   20.0680 H   0  0  0  0  0  0  0  0  0  0  0  0
   51.9547    5.1994   19.7457 H   0  0  0  0  0  0  0  0  0  0  0  0
  2  5  2  0
  3  1  1  0
  4  7  1  0
  5  1  1  0
  6  2  1  0
  7  1  1  0
  8  4  2  0
  9  2  1  0
 10  6  1  0
  3 11  1  0
 12  3  1  0
 13  9  1  0
 14 13  2  0
 15  4  1  0
 16  8  1  0
 11 17  1  0
 18  7  2  0
 19  9  2  0
 20 13  1  0
  1 21  1  6
 22 15  2  0
 23  5  1  0
 10 24  1  1
 12 25  1  0
 26 15  1  0
 10 27  1  0
 28 14  1  0
 29 20  1  0
 30 31  1  0
 31 20  2  0
 32 17  1  0
 33 17  1  0
 12  6  1  0
 11  8  1  0
 10 14  1  0
 30 28  2  0
 35 38  2  0
 36 34  1  0
 37 40  1  0
 38 34  1  0
 39 35  1  0
 40 34  1  0
 41 37  2  0
 42 35  1  0
 43 39  1  0
 36 44  1  0
 45 36  1  0
 46 42  1  0
 47 46  2  0
 48 37  1  0
 49 41  1  0
 44 50  1  0
 51 40  2  0
 52 42  2  0
 53 46  1  0
 34 54  1  6
 55 48  2  0
 56 38  1  0
 43 57  1  1
 45 58  1  0
 59 48  1  0
 43 60  1  0
 61 47  1  0
 62 53  1  0
 63 64  1  0
 64 53  2  0
 65 50  1  0
 66 50  1  0
 45 39  1  0
 44 41  1  0
 43 47  1  0
 63 61  2  0
  3 68  1  6
  6 69  1  6
 11 70  1  1
 12 71  1  6
 21 72  1  0
 23 73  1  0
 24 74  1  0
 25 75  1  0
 26 76  1  0
 26 77  1  0
 27 78  1  0
 27 79  1  0
 27 80  1  0
 28 81  1  0
 29 82  1  0
 30 83  1  0
 31 84  1  0
 32 85  1  0
 32 86  1  0
 32 87  1  0
 33 88  1  0
 33 89  1  0
 33 90  1  0
 36 91  1  6
 39 92  1  6
 44 93  1  1
 45 94  1  1
 54 95  1  0
 56 96  1  0
 57 97  1  0
 58 98  1  0
 59 99  1  0
 59100  1  0
 60101  1  0
 60102  1  0
 60103  1  0
 61104  1  0
 62105  1  0
 63106  1  0
 64107  1  0
 65108  1  0
 65109  1  0
 65110  1  0
 66111  1  0
 66112  1  0
 66113  1  0
M  CHG  3  16  -1  49  -1  67   2
M  END
> <Uni-Dock RESULT> 
ENERGY=   -4.379  LOWER_BOUND=   10.325  UPPER_BOUND=   13.128
INTER + INTRA:          -4.379
INTER:                  -4.379
INTRA:                   0.000
UNBOUND:                 0.000

$$$$

     RDKit          3D

113118  0  0  0  0  0  0  0  0999 V2000
   48.5167    7.8849   18.9603 C   0  0  2  0  0  0  0  0  0  0  0  0
   48.5284   10.2660   18.2134 C   0  0  0  0  0  0  0  0  0  0  0  0
   50.0288    7.9562   19.0652 C   0  0  2  0  0  0  0  0  0  0  0  0
   48.5838    7.0212   21.4298 C   0  0  0  0  0  0  0  0  0  0  0  0
   47.8850    9.2544   18.8401 C   0  0  0  0  0  0  0  0  0  0  0  0
   49.8876   10.1162   17.5421 C   0  0  1  0  0  0  0  0  0  0  0  0
   47.9409    7.0110   20.0755 C   0  0  0  0  0  0  0  0  0  0  0  0
   49.7215    7.7521   21.6409 C   0  0  0  0  0  0  0  0  0  0  0  0
   47.8625   11.5931   18.0965 C   0  0  0  0  0  0  0  0  0  0  0  0
   50.7808   11.3858   17.7621 C   0  0  1  0  0  0  0  0  0  0  0  0
   50.4264    8.5364   20.4590 C   0  0  1  0  0  0  0  0  0  0  0  0
   50.5830    8.7542   17.8548 C   0  0  2  0  0  0  0  0  0  0  0  0
   48.6114   12.7094   17.4778 C   0  0  0  0  0  0  0  0  0  0  0  0
   50.0070   12.6299   17.2975 C   0  0  0  0  0  0  0  0  0  0  0  0
   47.9158    6.2329   22.5541 C   0  0  0  0  0  0  0  0  0  0  0  0
   50.3254    7.9432   22.7335 O   0  0  0  0  0  0  0  0  0  0  0  0
   51.9195    8.7397   20.4329 N   0  0  0  0  0  0  0  0  0  0  0  0
   46.9449    6.3093   19.8290 O   0  0  0  0  0  0  0  0  0  0  0  0
   46.7016   11.7662   18.4708 O   0  0  0  0  0  0  0  0  0  0  0  0
   47.8987   13.8476   17.0568 C   0  0  0  0  0  0  0  0  0  0  0  0
   48.1629    7.2111   17.7182 O   0  0  0  0  0  0  0  0  0  0  0  0
   48.0752    6.3515   23.7664 O   0  0  0  0  0  0  0  0  0  0  0  0
   46.6134    9.3685   19.3737 O   0  0  0  0  0  0  0  0  0  0  0  0
   51.0327   11.5917   19.1499 O   0  0  0  0  0  0  0  0  0  0  0  0
   50.4637    7.9384   16.6600 O   0  0  0  0  0  0  0  0  0  0  0  0
   47.0067    5.2840   22.1578 N   0  0  0  0  0  0  0  0  0  0  0  0
   52.1505   11.2588   17.0606 C   0  0  0  0  0  0  0  0  0  0  0  0
   50.6437   13.7410   16.7091 C   0  0  0  0  0  0  0  0  0  0  0  0
   46.5395   13.9869   17.1999 O   0  0  0  0  0  0  0  0  0  0  0  0
   49.9269   14.8616   16.2864 C   0  0  0  0  0  0  0  0  0  0  0  0
   48.5512   14.9138   16.4532 C   0  0  0  0  0  0  0  0  0  0  0  0
   52.3890    9.6342   21.5056 C   0  0  0  0  0  0  0  0  0  0  0  0
   52.6646    7.4757   20.5311 C   0  0  0  0  0  0  0  0  0  0  0  0
   50.9770    8.4058   19.0767 C   0  0  2  0  0  0  0  0  0  0  0  0
   50.0140   10.2563   17.6089 C   0  0  0  0  0  0  0  0  0  0  0  0
   50.6437    9.2863   20.2903 C   0  0  2  0  0  0  0  0  0  0  0  0
   49.1657    6.8036   20.1115 C   0  0  0  0  0  0  0  0  0  0  0  0
   50.5770    9.0285   17.7314 C   0  0  0  0  0  0  0  0  0  0  0  0
   49.6927   11.1139   18.8115 C   0  0  1  0  0  0  0  0  0  0  0  0
   50.3607    6.9772   19.2160 C   0  0  0  0  0  0  0  0  0  0  0  0
   49.1571    7.5691   21.2367 C   0  0  0  0  0  0  0  0  0  0  0  0
   49.7685   10.8079   16.2521 C   0  0  0  0  0  0  0  0  0  0  0  0
   48.5878   12.2054   18.6187 C   0  0  1  0  0  0  0  0  0  0  0  0
   50.4363    8.3961   21.5438 C   0  0  1  0  0  0  0  0  0  0  0  0
   49.3854   10.1438   19.9805 C   0  0  2  0  0  0  0  0  0  0  0  0
   49.0214   12.0730   16.0941 C   0  0  0  0  0  0  0  0  0  0  0  0
   48.4382   12.7199   17.1905 C   0  0  0  0  0  0  0  0  0  0  0  0
   48.0516    5.8783   19.6903 C   0  0  0  0  0  0  0  0  0  0  0  0
   48.2606    7.8181   22.0934 O   0  0  0  0  0  0  0  0  0  0  0  0
   51.6084    7.5330   21.9055 N   0  0  0  0  0  0  0  0  0  0  0  0
   50.7980    6.0225   18.5564 O   0  0  0  0  0  0  0  0  0  0  0  0
   50.1827   10.2219   15.2484 O   0  0  0  0  0  0  0  0  0  0  0  0
   48.8599   12.6088   14.7969 C   0  0  0  0  0  0  0  0  0  0  0  0
   52.4127    8.2701   18.9737 O   0  0  0  0  0  0  0  0  0  0  0  0
   47.0649    5.5509   20.3430 O   0  0  0  0  0  0  0  0  0  0  0  0
   50.9457    8.2575   16.6338 O   0  0  0  0  0  0  0  0  0  0  0  0
   47.2964   11.6944   18.9535 O   0  0  0  0  0  0  0  0  0  0  0  0
   48.9157   10.8267   21.1424 O   0  0  0  0  0  0  0  0  0  0  0  0
   48.1958    5.3304   18.4366 N   0  0  0  0  0  0  0  0  0  0  0  0
   48.8923   13.3970   19.5645 C   0  0  0  0  0  0  0  0  0  0  0  0
   47.6411   13.8623   16.9310 C   0  0  0  0  0  0  0  0  0  0  0  0
   49.4100   12.0504   13.6714 O   0  0  0  0  0  0  0  0  0  0  0  0
   47.4874   14.3826   15.6472 C   0  0  0  0  0  0  0  0  0  0  0  0
   48.1074   13.7579   14.5756 C   0  0  0  0  0  0  0  0  0  0  0  0
   51.2701    6.6599   23.0439 C   0  0  0  0  0  0  0  0  0  0  0  0
   52.7691    8.3488   22.2748 C   0  0  0  0  0  0  0  0  0  0  0  0
   49.7323    9.7488   19.0285 Ca  0  0  0  0  0 15  0  0  0  0  0  0
   50.4052    6.9269   18.9750 H   0  0  0  0  0  0  0  0  0  0  0  0
   49.6644   10.1042   16.4617 H   0  0  0  0  0  0  0  0  0  0  0  0
   50.0026    9.5479   20.5198 H   0  0  0  0  0  0  0  0  0  0  0  0
   51.6568    8.8699   17.9728 H   0  0  0  0  0  0  0  0  0  0  0  0
   47.1942    7.0813   17.8065 H   0  0  0  0  0  0  0  0  0  0  0  0
   46.3167   10.3010   19.2738 H   0  0  0  0  0  0  0  0  0  0  0  0
   51.5440   10.8221   19.4759 H   0  0  0  0  0  0  0  0  0  0  0  0
   49.5896    7.4886   16.7146 H   0  0  0  0  0  0  0  0  0  0  0  0
   46.4552    4.8800   22.8962 H   0  0  0  0  0  0  0  0  0  0  0  0
   46.6440    5.2951   21.2089 H   0  0  0  0  0  0  0  0  0  0  0  0
   52.7926   12.1192   17.2860 H   0  0  0  0  0  0  0  0  0  0  0  0
   52.0442   11.1693   15.9752 H   0  0  0  0  0  0  0  0  0  0  0  0
   52.7346   10.4070   17.4232 H   0  0  0  0  0  0  0  0  0  0  0  0
   51.7198   13.7680   16.5690 H   0  0  0  0  0  0  0  0  0  0  0  0
   46.2250   13.2511   17.7671 H   0  0  0  0  0  0  0  0  0  0  0  0
   50.4448   15.6992   15.8227 H   0  0  0  0  0  0  0  0  0  0  0  0
   47.9878   15.7800   16.1202 H   0  0  0  0  0  0  0  0  0  0  0  0
   51.7256   10.4951   21.6424 H   0  0  0  0  0  0  0  0  0  0  0  0
   52.5409    9.1468   22.4754 H   0  0  0  0  0  0  0  0  0  0  0  0
   53.3611   10.0448   21.2133 H   0  0  0  0  0  0  0  0  0  0  0  0
   53.7442    7.6755   20.4832 H   0  0  0  0  0  0  0  0  0  0  0  0
   52.4447    6.8086   19.6882 H   0  0  0  0  0  0  0  0  0  0  0  0
   52.4798    6.9233   21.4625 H   0  0  0  0  0  0  0  0  0  0  0  0
   51.4670    9.9798   20.5043 H   0  0  0  0  0  0  0  0  0  0  0  0
   50.6253   11.6564   19.0292 H   0  0  0  0  0  0  0  0  0  0  0  0
   50.2692    9.0711   22.4022 H   0  0  0  0  0  0  0  0  0  0  0  0
   48.5517    9.5100   19.6525 H   0  0  0  0  0  0  0  0  0  0  0  0
   52.5206    7.5503   18.3199 H   0  0  0  0  0  0  0  0  0  0  0  0
   50.7453    8.7598   15.8156 H   0  0  0  0  0  0  0  0  0  0  0  0
   47.3333   11.4480   19.9025 H   0  0  0  0  0  0  0  0  0  0  0  0
   48.5323   10.1071   21.7104 H   0  0  0  0  0  0  0  0  0  0  0  0
   49.1263    5.2967   18.0181 H   0  0  0  0  0  0  0  0  0  0  0  0
   47.5558    4.5773   18.2351 H   0  0  0  0  0  0  0  0  0  0  0  0
   48.0364   14.0728   19.6626 H   0  0  0  0  0  0  0  0  0  0  0  0
   49.7531   13.9771   19.2132 H   0  0  0  0  0  0  0  0  0  0  0  0
   49.1121   13.0810   20.5859 H   0  0  0  0  0  0  0  0  0  0  0  0
   47.1035   14.3502   17.7427 H   0  0  0  0  0  0  0  0  0  0  0  0
   49.8252   11.2002   13.9381 H   0  0  0  0  0  0  0  0  0  0  0  0
   46.8682   15.2595   15.4854 H   0  0  0  0  0  0  0  0  0  0  0  0
   47.9949   14.1538   13.5736 H   0  0  0  0  0  0  0  0  0  0  0  0
   50.5131    5.9163   22.7712 H   0  0  0  0  0  0  0  0  0  0  0  0
   50.9212    7.2271   23.9165 H   0  0  0  0  0  0  0  0  0  0  0  0
   52.1519    6.0827   23.3496 H   0  0  0  0  0  0  0  0  0  0  0  0
   53.6095    7.7107   22.5783 H   0  0  0  0  0  0  0  0  0  0  0  0
   52.5528    9.0338   23.1040 H   0  0  0  0  0  0  0  0  0  0  0  0
   53.1418    8.9382   21.4328 H   0  0  0  0  0  0  0  0  0  0  0  0
  2  5  2  0
  3  1  1  0
  4  7  1  0
  5  1  1  0
  6  2  1  0
  7  1  1  0
  8  4  2  0
  9  2  1  0
 10  6  1  0
  3 11  1  0
 12  3  1  0
 13  9  1  0
 14 13  2  0
 15  4  1  0
 16  8  1  0
 11 17  1  0
 18  7  2  0
 19  9  2  0
 20 13  1  0
  1 21  1  6
 22 15  2  0
 23  5  1  0
 10 24  1  1
 12 25  1  0
 26 15  1  0
 10 27  1  0
 28 14  1  0
 29 20  1  0
 30 31  1  0
 31 20  2  0
 32 17  1  0
 33 17  1  0
 12  6  1  0
 11  8  1  0
 10 14  1  0
 30 28  2  0
 35 38  2  0
 36 34  1  0
 37 40  1  0
 38 34  1  0
 39 35  1  0
 40 34  1  0
 41 37  2  0
 42 35  1  0
 43 39  1  0
 36 44  1  0
 45 36  1  0
 46 42  1  0
 47 46  2  0
 48 37  1  0
 49 41  1  0
 44 50  1  0
 51 40  2  0
 52 42  2  0
 53 46  1  0
 34 54  1  6
 55 48  2  0
 56 38  1  0
 43 57  1  1
 45 58  1  0
 59 48  1  0
 43 60  1  0
 61 47  1  0
 62 53  1  0
 63 64  1  0
 64 53  2  0
 65 50  1  0
 66 50  1  0
 45 39  1  0
 44 41  1  0
 43 47  1  0
 63 61  2  0
  3 68  1  6
  6 69  1  6
 11 70  1  1
 12 71  1  6
 21 72  1  0
 23 73  1  0
 24 74  1  0
 25 75  1  0
 26 76  1  0
 26 77  1  0
 27 78  1  0
 27 79  1  0
 27 80  1  0
 28 81  1  0
 29 82  1  0
 30 83  1  0
 31 84  1  0
 32 85  1  0
 32 86  1  0
 32 87  1  0
 33 88  1  0
 33 89  1  0
 33 90  1  0
 36 91  1  6
 39 92  1  6
 44 93  1  1
 45 94  1  1
 54 95  1  0
 56 96  1  0
 57 97  1  0
 58 98  1  0
 59 99  1  0
 59100  1  0
 60101  1  0
 60102  1  0
 60103  1  0
 61104  1  0
 62105  1  0
 63106  1  0
 64107  1  0
 65108  1  0
 65109  1  0
 65110  1  0
 66111  1  0
 66112  1  0
 66113  1  0
M  CHG  3  16  -1  49  -1  67   2
M  END
> <Uni-Dock RESULT> 
ENERGY=   -4.362  LOWER_BOUND=   10.457  UPPER_BOUND=   12.910
INTER + INTRA:          -4.362
INTER:                  -4.362
INTRA:                   0.000
UNBOUND:                 0.000

$$$$
