
     RDKit          3D

113118  0  0  0  0  0  0  0  0999 V2000
   48.5370    7.2458   19.1268 C   0  0  2  0  0  0  0  0  0  0  0  0
   48.2506    9.5706   18.1873 C   0  0  0  0  0  0  0  0  0  0  0  0
   48.6362    6.7264   17.6965 C   0  0  2  0  0  0  0  0  0  0  0  0
   50.9813    6.3789   19.3535 C   0  0  0  0  0  0  0  0  0  0  0  0
   48.2819    8.7429   19.2444 C   0  0  0  0  0  0  0  0  0  0  0  0
   48.6692    9.1877   16.7943 C   0  0  1  0  0  0  0  0  0  0  0  0
   49.7523    6.9080   20.0020 C   0  0  0  0  0  0  0  0  0  0  0  0
   50.8542    5.6234   18.2253 C   0  0  0  0  0  0  0  0  0  0  0  0
   47.6943   10.9398   18.3456 C   0  0  0  0  0  0  0  0  0  0  0  0
   49.6253   10.2883   16.1781 C   0  0  1  0  0  0  0  0  0  0  0  0
   49.4197    5.3692   17.6698 C   0  0  1  0  0  0  0  0  0  0  0  0
   49.3090    7.7679   16.7531 C   0  0  2  0  0  0  0  0  0  0  0  0
   48.2769   12.0149   17.5177 C   0  0  0  0  0  0  0  0  0  0  0  0
   49.2146   11.7239   16.5157 C   0  0  0  0  0  0  0  0  0  0  0  0
   52.3070    6.7526   19.9433 C   0  0  0  0  0  0  0  0  0  0  0  0
   51.7442    5.1386   17.4637 O   0  0  0  0  0  0  0  0  0  0  0  0
   48.7722    4.1313   18.1724 N   0  0  0  0  0  0  0  0  0  0  0  0
   49.6676    7.0926   21.2256 O   0  0  0  0  0  0  0  0  0  0  0  0
   46.7640   11.2130   19.1027 O   0  0  0  0  0  0  0  0  0  0  0  0
   47.9243   13.3529   17.7927 C   0  0  0  0  0  0  0  0  0  0  0  0
   47.3696    6.6474   19.7328 O   0  0  0  0  0  0  0  0  0  0  0  0
   52.4692    7.7489   20.6442 O   0  0  0  0  0  0  0  0  0  0  0  0
   48.0345    9.2211   20.5300 O   0  0  0  0  0  0  0  0  0  0  0  0
   50.9566   10.1482   16.6927 O   0  0  0  0  0  0  0  0  0  0  0  0
   49.2061    7.2707   15.4089 O   0  0  0  0  0  0  0  0  0  0  0  0
   53.3485    5.9345   19.6253 N   0  0  0  0  0  0  0  0  0  0  0  0
   49.7237   10.0973   14.6493 C   0  0  0  0  0  0  0  0  0  0  0  0
   49.8356   12.8162   15.8680 C   0  0  0  0  0  0  0  0  0  0  0  0
   47.0084   13.7103   18.7496 O   0  0  0  0  0  0  0  0  0  0  0  0
   49.4851   14.1388   16.1501 C   0  0  0  0  0  0  0  0  0  0  0  0
   48.5170   14.4064   17.1078 C   0  0  0  0  0  0  0  0  0  0  0  0
   48.8970    3.7963   19.5780 C   0  0  0  0  0  0  0  0  0  0  0  0
   47.4177    3.9368   17.6792 C   0  0  0  0  0  0  0  0  0  0  0  0
   47.8878    7.2696   18.8840 C   0  0  2  0  0  0  0  0  0  0  0  0
   48.5630    9.5484   18.2219 C   0  0  0  0  0  0  0  0  0  0  0  0
   48.7889    6.6871   17.8076 C   0  0  2  0  0  0  0  0  0  0  0  0
   49.1475    5.8323   20.6190 C   0  0  0  0  0  0  0  0  0  0  0  0
   48.2628    8.6971   19.2242 C   0  0  0  0  0  0  0  0  0  0  0  0
   48.4870    9.1051   16.7687 C   0  0  1  0  0  0  0  0  0  0  0  0
   47.8447    6.2907   20.0613 C   0  0  0  0  0  0  0  0  0  0  0  0
   50.2846    5.9591   19.8743 C   0  0  0  0  0  0  0  0  0  0  0  0
   48.8785   10.9744   18.5108 C   0  0  0  0  0  0  0  0  0  0  0  0
   49.2616   10.0696   15.8000 C   0  0  1  0  0  0  0  0  0  0  0  0
   50.2166    6.3991   18.3693 C   0  0  1  0  0  0  0  0  0  0  0  0
   48.8866    7.6118   16.5586 C   0  0  2  0  0  0  0  0  0  0  0  0
   48.6917   11.9368   17.4098 C   0  0  0  0  0  0  0  0  0  0  0  0
   48.8493   11.5155   16.0766 C   0  0  0  0  0  0  0  0  0  0  0  0
   49.1764    5.3389   22.0457 C   0  0  0  0  0  0  0  0  0  0  0  0
   51.4861    5.8120   20.2549 O   0  0  0  0  0  0  0  0  0  0  0  0
   50.8366    5.4905   17.3481 N   0  0  0  0  0  0  0  0  0  0  0  0
   46.7555    6.0050   20.5695 O   0  0  0  0  0  0  0  0  0  0  0  0
   49.3170   11.4013   19.5721 O   0  0  0  0  0  0  0  0  0  0  0  0
   48.3910   13.2750   17.7131 C   0  0  0  0  0  0  0  0  0  0  0  0
   46.5352    7.3357   18.3706 O   0  0  0  0  0  0  0  0  0  0  0  0
   48.2362    4.7838   22.6045 O   0  0  0  0  0  0  0  0  0  0  0  0
   48.1785    9.1273   20.5372 O   0  0  0  0  0  0  0  0  0  0  0  0
   50.6765    9.9727   16.0263 O   0  0  0  0  0  0  0  0  0  0  0  0
   48.0429    7.0664   15.5213 O   0  0  0  0  0  0  0  0  0  0  0  0
   50.3339    5.5753   22.7283 N   0  0  0  0  0  0  0  0  0  0  0  0
   49.0600    9.6612   14.3290 C   0  0  0  0  0  0  0  0  0  0  0  0
   48.6729   12.4793   15.0651 C   0  0  0  0  0  0  0  0  0  0  0  0
   48.2741   13.7397   18.9969 O   0  0  0  0  0  0  0  0  0  0  0  0
   48.3413   13.8028   15.3727 C   0  0  0  0  0  0  0  0  0  0  0  0
   48.2010   14.2037   16.6973 C   0  0  0  0  0  0  0  0  0  0  0  0
   50.5946    4.0707   17.6066 C   0  0  0  0  0  0  0  0  0  0  0  0
   52.2723    5.7342   17.1952 C   0  0  0  0  0  0  0  0  0  0  0  0
   49.2731    8.3491   17.8689 Ca  0  0  0  0  0 15  0  0  0  0  0  0
   47.6300    6.5465   17.2927 H   0  0  0  0  0  0  0  0  0  0  0  0
   47.7516    9.1700   16.1884 H   0  0  0  0  0  0  0  0  0  0  0  0
   49.5221    5.1376   16.5987 H   0  0  0  0  0  0  0  0  0  0  0  0
   50.3753    7.8568   16.9845 H   0  0  0  0  0  0  0  0  0  0  0  0
   47.4553    6.7975   20.6915 H   0  0  0  0  0  0  0  0  0  0  0  0
   48.4885    8.6396   21.1772 H   0  0  0  0  0  0  0  0  0  0  0  0
   50.9571   10.3972   17.6346 H   0  0  0  0  0  0  0  0  0  0  0  0
   49.9598    6.6498   15.3053 H   0  0  0  0  0  0  0  0  0  0  0  0
   54.2792    6.2908   19.7600 H   0  0  0  0  0  0  0  0  0  0  0  0
   53.1664    5.3505   18.7955 H   0  0  0  0  0  0  0  0  0  0  0  0
   48.7456   10.2038   14.1674 H   0  0  0  0  0  0  0  0  0  0  0  0
   50.4113   10.8055   14.1782 H   0  0  0  0  0  0  0  0  0  0  0  0
   50.1439    9.1243   14.3849 H   0  0  0  0  0  0  0  0  0  0  0  0
   50.6315   12.6496   15.1445 H   0  0  0  0  0  0  0  0  0  0  0  0
   46.6595   12.8795   19.1477 H   0  0  0  0  0  0  0  0  0  0  0  0
   49.9812   14.9555   15.6347 H   0  0  0  0  0  0  0  0  0  0  0  0
   48.2392   15.4298   17.3407 H   0  0  0  0  0  0  0  0  0  0  0  0
   48.5306    2.7778   19.7541 H   0  0  0  0  0  0  0  0  0  0  0  0
   48.3214    4.4571   20.2301 H   0  0  0  0  0  0  0  0  0  0  0  0
   49.9389    3.7850   19.9141 H   0  0  0  0  0  0  0  0  0  0  0  0
   47.3689    4.0932   16.5963 H   0  0  0  0  0  0  0  0  0  0  0  0
   46.6936    4.6028   18.1591 H   0  0  0  0  0  0  0  0  0  0  0  0
   47.0888    2.9074   17.8544 H   0  0  0  0  0  0  0  0  0  0  0  0
   48.3268    5.7372   17.4955 H   0  0  0  0  0  0  0  0  0  0  0  0
   47.4241    9.2027   16.4930 H   0  0  0  0  0  0  0  0  0  0  0  0
   50.7435    7.3659   18.3240 H   0  0  0  0  0  0  0  0  0  0  0  0
   49.9000    7.5694   16.1472 H   0  0  0  0  0  0  0  0  0  0  0  0
   45.9621    7.1516   19.1466 H   0  0  0  0  0  0  0  0  0  0  0  0
   48.3952    8.4087   21.1571 H   0  0  0  0  0  0  0  0  0  0  0  0
   50.8980   10.3653   16.8885 H   0  0  0  0  0  0  0  0  0  0  0  0
   48.3625    6.1567   15.3704 H   0  0  0  0  0  0  0  0  0  0  0  0
   51.1371    5.7254   22.0965 H   0  0  0  0  0  0  0  0  0  0  0  0
   50.4895    4.9981   23.5385 H   0  0  0  0  0  0  0  0  0  0  0  0
   48.0097    9.7288   14.0262 H   0  0  0  0  0  0  0  0  0  0  0  0
   49.6619   10.2817   13.6548 H   0  0  0  0  0  0  0  0  0  0  0  0
   49.4140    8.6429   14.1316 H   0  0  0  0  0  0  0  0  0  0  0  0
   48.7949   12.2257   14.0147 H   0  0  0  0  0  0  0  0  0  0  0  0
   48.6150   13.0351   19.5969 H   0  0  0  0  0  0  0  0  0  0  0  0
   48.2052   14.5267   14.5736 H   0  0  0  0  0  0  0  0  0  0  0  0
   47.9586   15.2334   16.9405 H   0  0  0  0  0  0  0  0  0  0  0  0
   50.9145    3.4796   16.7404 H   0  0  0  0  0  0  0  0  0  0  0  0
   51.1309    3.6834   18.4785 H   0  0  0  0  0  0  0  0  0  0  0  0
   49.5264    3.8596   17.7351 H   0  0  0  0  0  0  0  0  0  0  0  0
   52.4677    6.7885   16.9775 H   0  0  0  0  0  0  0  0  0  0  0  0
   52.8706    5.4385   18.0608 H   0  0  0  0  0  0  0  0  0  0  0  0
   52.6500    5.1718   16.3332 H   0  0  0  0  0  0  0  0  0  0  0  0
  2  5  2  0
  3  1  1  0
  4  7  1  0
  5  1  1  0
  6  2  1  0
  7  1  1  0
  8  4  2  0
  9  2  1  0
 10  6  1  0
  3 11  1  0
 12  3  1  0
 13  9  1  0
 14 13  2  0
 15  4  1  0
 16  8  1  0
 11 17  1  0
 18  7  2  0
 19  9  2  0
 20 13  1  0
  1 21  1  6
 22 15  2  0
 23  5  1  0
 10 24  1  1
 12 25  1  0
 26 15  1  0
 10 27  1  0
 28 14  1  0
 29 20  1  0
 30 31  1  0
 31 20  2  0
 32 17  1  0
 33 17  1  0
 12  6  1  0
 11  8  1  0
 10 14  1  0
 30 28  2  0
 35 38  2  0
 36 34  1  0
 37 40  1  0
 38 34  1  0
 39 35  1  0
 40 34  1  0
 41 37  2  0
 42 35  1  0
 43 39  1  0
 36 44  1  0
 45 36  1  0
 46 42  1  0
 47 46  2  0
 48 37  1  0
 49 41  1  0
 44 50  1  0
 51 40  2  0
 52 42  2  0
 53 46  1  0
 34 54  1  6
 55 48  2  0
 56 38  1  0
 43 57  1  1
 45 58  1  0
 59 48  1  0
 43 60  1  0
 61 47  1  0
 62 53  1  0
 63 64  1  0
 64 53  2  0
 65 50  1  0
 66 50  1  0
 45 39  1  0
 44 41  1  0
 43 47  1  0
 63 61  2  0
  3 68  1  6
  6 69  1  6
 11 70  1  1
 12 71  1  1
 21 72  1  0
 23 73  1  0
 24 74  1  0
 25 75  1  0
 26 76  1  0
 26 77  1  0
 27 78  1  0
 27 79  1  0
 27 80  1  0
 28 81  1  0
 29 82  1  0
 30 83  1  0
 31 84  1  0
 32 85  1  0
 32 86  1  0
 32 87  1  0
 33 88  1  0
 33 89  1  0
 33 90  1  0
 36 91  1  6
 39 92  1  6
 44 93  1  1
 45 94  1  1
 54 95  1  0
 56 96  1  0
 57 97  1  0
 58 98  1  0
 59 99  1  0
 59100  1  0
 60101  1  0
 60102  1  0
 60103  1  0
 61104  1  0
 62105  1  0
 63106  1  0
 64107  1  0
 65108  1  0
 65109  1  0
 65110  1  0
 66111  1  0
 66112  1  0
 66113  1  0
M  CHG  3  16  -1  49  -1  67   2
M  END
> <Uni-Dock RESULT> 
ENERGY=   -5.305  LOWER_BOUND=    0.000  UPPER_BOUND=    0.000
INTER + INTRA:          -5.305
INTER:                  -5.305
INTRA:                   0.000
UNBOUND:                 0.000

$$$$

     RDKit          3D

113118  0  0  0  0  0  0  0  0999 V2000
   50.6686   10.1950   14.2200 C   0  0  2  0  0  0  0  0  0  0  0  0
   49.1113   10.2556   16.2050 C   0  0  0  0  0  0  0  0  0  0  0  0
   50.1613   11.5803   13.8341 C   0  0  2  0  0  0  0  0  0  0  0  0
   52.9664   11.3836   14.5111 C   0  0  0  0  0  0  0  0  0  0  0  0
   50.0004    9.5917   15.4487 C   0  0  0  0  0  0  0  0  0  0  0  0
   48.8188   11.7257   16.0812 C   0  0  1  0  0  0  0  0  0  0  0  0
   52.1877   10.1196   14.4289 C   0  0  0  0  0  0  0  0  0  0  0  0
   52.5336   12.4676   13.8061 C   0  0  0  0  0  0  0  0  0  0  0  0
   48.2810    9.5080   17.1854 C   0  0  0  0  0  0  0  0  0  0  0  0
   48.8223   12.4159   17.5057 C   0  0  1  0  0  0  0  0  0  0  0  0
   51.2314   12.3216   12.9611 C   0  0  1  0  0  0  0  0  0  0  0  0
   49.7939   12.4271   15.0892 C   0  0  2  0  0  0  0  0  0  0  0  0
   47.8948   10.2061   18.4280 C   0  0  0  0  0  0  0  0  0  0  0  0
   48.1759   11.5691   18.6050 C   0  0  0  0  0  0  0  0  0  0  0  0
   54.1613   11.4186   15.4147 C   0  0  0  0  0  0  0  0  0  0  0  0
   52.9769   13.6551   13.7819 O   0  0  0  0  0  0  0  0  0  0  0  0
   51.4515   11.9085   11.5521 N   0  0  0  0  0  0  0  0  0  0  0  0
   52.7149    9.0010   14.5259 O   0  0  0  0  0  0  0  0  0  0  0  0
   47.8803    8.3594   17.0019 O   0  0  0  0  0  0  0  0  0  0  0  0
   47.2940    9.4647   19.4669 C   0  0  0  0  0  0  0  0  0  0  0  0
   50.3182    9.2848   13.1537 O   0  0  0  0  0  0  0  0  0  0  0  0
   54.3047   10.6496   16.3624 O   0  0  0  0  0  0  0  0  0  0  0  0
   50.3316    8.2686   15.7361 O   0  0  0  0  0  0  0  0  0  0  0  0
   50.1652   12.6485   17.9522 O   0  0  0  0  0  0  0  0  0  0  0  0
   49.1708   13.6385   14.6321 O   0  0  0  0  0  0  0  0  0  0  0  0
   55.0782   12.3894   15.1467 N   0  0  0  0  0  0  0  0  0  0  0  0
   48.1438   13.7997   17.4168 C   0  0  0  0  0  0  0  0  0  0  0  0
   47.9097   12.1292   19.8753 C   0  0  0  0  0  0  0  0  0  0  0  0
   46.9816    8.1330   19.3603 O   0  0  0  0  0  0  0  0  0  0  0  0
   47.3199   11.3867   20.9012 C   0  0  0  0  0  0  0  0  0  0  0  0
   47.0002   10.0526   20.6909 C   0  0  0  0  0  0  0  0  0  0  0  0
   52.4227   10.8690   11.2702 C   0  0  0  0  0  0  0  0  0  0  0  0
   50.2224   11.7326   10.7944 C   0  0  0  0  0  0  0  0  0  0  0  0
   50.0341   10.0861   13.9619 C   0  0  2  0  0  0  0  0  0  0  0  0
   49.3762   10.3800   16.3217 C   0  0  0  0  0  0  0  0  0  0  0  0
   50.3516   11.5691   13.8631 C   0  0  2  0  0  0  0  0  0  0  0  0
   52.4437    9.5888   13.1813 C   0  0  0  0  0  0  0  0  0  0  0  0
   49.9914    9.6113   15.3996 C   0  0  0  0  0  0  0  0  0  0  0  0
   48.6957   11.6822   15.9276 C   0  0  1  0  0  0  0  0  0  0  0  0
   50.9854    9.3243   13.0341 C   0  0  0  0  0  0  0  0  0  0  0  0
   52.8654   10.7224   13.8145 C   0  0  0  0  0  0  0  0  0  0  0  0
   49.2611    9.9207   17.7331 C   0  0  0  0  0  0  0  0  0  0  0  0
   48.4199   12.6182   17.1590 C   0  0  1  0  0  0  0  0  0  0  0  0
   51.8464   11.8456   14.2182 C   0  0  1  0  0  0  0  0  0  0  0  0
   49.4230   12.4310   14.7682 C   0  0  2  0  0  0  0  0  0  0  0  0
   48.1813   10.5135   18.5431 C   0  0  0  0  0  0  0  0  0  0  0  0
   47.7357   11.8196   18.2686 C   0  0  0  0  0  0  0  0  0  0  0  0
   53.4099    8.5266   12.7145 C   0  0  0  0  0  0  0  0  0  0  0  0
   54.0396   11.0083   14.2012 O   0  0  0  0  0  0  0  0  0  0  0  0
   52.0961   13.2326   13.7015 N   0  0  0  0  0  0  0  0  0  0  0  0
   50.5299    8.4535   12.2854 O   0  0  0  0  0  0  0  0  0  0  0  0
   50.0133    9.1246   18.2820 O   0  0  0  0  0  0  0  0  0  0  0  0
   47.6352    9.7727   19.6043 C   0  0  0  0  0  0  0  0  0  0  0  0
   48.7023    9.8613   13.4395 O   0  0  0  0  0  0  0  0  0  0  0  0
   53.1920    7.7527   11.7883 O   0  0  0  0  0  0  0  0  0  0  0  0
   50.4790    8.3547   15.7150 O   0  0  0  0  0  0  0  0  0  0  0  0
   49.6560   13.1225   17.6887 O   0  0  0  0  0  0  0  0  0  0  0  0
   48.4169   13.0453   13.9341 O   0  0  0  0  0  0  0  0  0  0  0  0
   54.5754    8.4390   13.4183 N   0  0  0  0  0  0  0  0  0  0  0  0
   47.6214   13.8670   16.7415 C   0  0  0  0  0  0  0  0  0  0  0  0
   46.7115   12.3415   19.0821 C   0  0  0  0  0  0  0  0  0  0  0  0
   48.0698    8.5164   19.9371 O   0  0  0  0  0  0  0  0  0  0  0  0
   46.1494   11.5862   20.1164 C   0  0  0  0  0  0  0  0  0  0  0  0
   46.6110   10.3009   20.3805 C   0  0  0  0  0  0  0  0  0  0  0  0
   52.5595   13.2638   12.3139 C   0  0  0  0  0  0  0  0  0  0  0  0
   53.0219   13.9788   14.5558 C   0  0  0  0  0  0  0  0  0  0  0  0
   50.1582   11.3209   15.5665 Ca  0  0  0  0  0 15  0  0  0  0  0  0
   49.2409   11.4903   13.2403 H   0  0  0  0  0  0  0  0  0  0  0  0
   47.7991   11.8064   15.6772 H   0  0  0  0  0  0  0  0  0  0  0  0
   50.8166   13.3320   12.8258 H   0  0  0  0  0  0  0  0  0  0  0  0
   50.7001   12.7143   15.6321 H   0  0  0  0  0  0  0  0  0  0  0  0
   50.8454    8.4791   13.3015 H   0  0  0  0  0  0  0  0  0  0  0  0
   51.2345    8.0871   15.3972 H   0  0  0  0  0  0  0  0  0  0  0  0
   50.5829   11.7912   18.1518 H   0  0  0  0  0  0  0  0  0  0  0  0
   49.9127   14.2418   14.4090 H   0  0  0  0  0  0  0  0  0  0  0  0
   55.7331   12.6253   15.8724 H   0  0  0  0  0  0  0  0  0  0  0  0
   54.7024   13.1520   14.5636 H   0  0  0  0  0  0  0  0  0  0  0  0
   47.1001   13.7153   17.0944 H   0  0  0  0  0  0  0  0  0  0  0  0
   48.1612   14.3408   18.3671 H   0  0  0  0  0  0  0  0  0  0  0  0
   48.6710   14.4707   16.7349 H   0  0  0  0  0  0  0  0  0  0  0  0
   48.1877   13.1585   20.0945 H   0  0  0  0  0  0  0  0  0  0  0  0
   47.2273    7.8451   18.4508 H   0  0  0  0  0  0  0  0  0  0  0  0
   47.1283   11.8467   21.8658 H   0  0  0  0  0  0  0  0  0  0  0  0
   46.5465    9.4627   21.4814 H   0  0  0  0  0  0  0  0  0  0  0  0
   52.6030   10.8080   10.1902 H   0  0  0  0  0  0  0  0  0  0  0  0
   52.0973    9.8776   11.5935 H   0  0  0  0  0  0  0  0  0  0  0  0
   53.4026   11.0820   11.7098 H   0  0  0  0  0  0  0  0  0  0  0  0
   49.5467   12.5820   10.9411 H   0  0  0  0  0  0  0  0  0  0  0  0
   49.6891   10.8146   11.0614 H   0  0  0  0  0  0  0  0  0  0  0  0
   50.4347   11.6929    9.7211 H   0  0  0  0  0  0  0  0  0  0  0  0
   50.1717   11.8566   12.8152 H   0  0  0  0  0  0  0  0  0  0  0  0
   47.7013   11.3862   15.5547 H   0  0  0  0  0  0  0  0  0  0  0  0
   51.8774   11.8857   15.3190 H   0  0  0  0  0  0  0  0  0  0  0  0
   49.9902   13.2685   15.1866 H   0  0  0  0  0  0  0  0  0  0  0  0
   48.7482    8.9832   13.0022 H   0  0  0  0  0  0  0  0  0  0  0  0
   51.2353    8.1191   15.1494 H   0  0  0  0  0  0  0  0  0  0  0  0
   50.1479   12.4001   18.1164 H   0  0  0  0  0  0  0  0  0  0  0  0
   48.9058   13.5569   13.2620 H   0  0  0  0  0  0  0  0  0  0  0  0
   54.7947    9.3132   13.9226 H   0  0  0  0  0  0  0  0  0  0  0  0
   55.3369    7.9778   12.9478 H   0  0  0  0  0  0  0  0  0  0  0  0
   46.6330   13.6075   16.3479 H   0  0  0  0  0  0  0  0  0  0  0  0
   47.4957   14.5612   17.5806 H   0  0  0  0  0  0  0  0  0  0  0  0
   48.1505   14.4618   15.9882 H   0  0  0  0  0  0  0  0  0  0  0  0
   46.3307   13.3494   18.9350 H   0  0  0  0  0  0  0  0  0  0  0  0
   48.9053    8.3528   19.4392 H   0  0  0  0  0  0  0  0  0  0  0  0
   45.3563   12.0097   20.7269 H   0  0  0  0  0  0  0  0  0  0  0  0
   46.1876    9.7173   21.1920 H   0  0  0  0  0  0  0  0  0  0  0  0
   52.5497   14.2967   11.9463 H   0  0  0  0  0  0  0  0  0  0  0  0
   53.5765   12.8823   12.1798 H   0  0  0  0  0  0  0  0  0  0  0  0
   51.8892   12.7038   11.6513 H   0  0  0  0  0  0  0  0  0  0  0  0
   52.6760   13.9848   15.5938 H   0  0  0  0  0  0  0  0  0  0  0  0
   54.0499   13.6085   14.5313 H   0  0  0  0  0  0  0  0  0  0  0  0
   53.0483   15.0282   14.2392 H   0  0  0  0  0  0  0  0  0  0  0  0
  2  5  2  0
  3  1  1  0
  4  7  1  0
  5  1  1  0
  6  2  1  0
  7  1  1  0
  8  4  2  0
  9  2  1  0
 10  6  1  0
  3 11  1  0
 12  3  1  0
 13  9  1  0
 14 13  2  0
 15  4  1  0
 16  8  1  0
 11 17  1  0
 18  7  2  0
 19  9  2  0
 20 13  1  0
  1 21  1  6
 22 15  2  0
 23  5  1  0
 10 24  1  1
 12 25  1  0
 26 15  1  0
 10 27  1  0
 28 14  1  0
 29 20  1  0
 30 31  1  0
 31 20  2  0
 32 17  1  0
 33 17  1  0
 12  6  1  0
 11  8  1  0
 10 14  1  0
 30 28  2  0
 35 38  2  0
 36 34  1  0
 37 40  1  0
 38 34  1  0
 39 35  1  0
 40 34  1  0
 41 37  2  0
 42 35  1  0
 43 39  1  0
 36 44  1  0
 45 36  1  0
 46 42  1  0
 47 46  2  0
 48 37  1  0
 49 41  1  0
 44 50  1  0
 51 40  2  0
 52 42  2  0
 53 46  1  0
 34 54  1  6
 55 48  2  0
 56 38  1  0
 43 57  1  1
 45 58  1  0
 59 48  1  0
 43 60  1  0
 61 47  1  0
 62 53  1  0
 63 64  1  0
 64 53  2  0
 65 50  1  0
 66 50  1  0
 45 39  1  0
 44 41  1  0
 43 47  1  0
 63 61  2  0
  3 68  1  6
  6 69  1  6
 11 70  1  1
 12 71  1  1
 21 72  1  0
 23 73  1  0
 24 74  1  0
 25 75  1  0
 26 76  1  0
 26 77  1  0
 27 78  1  0
 27 79  1  0
 27 80  1  0
 28 81  1  0
 29 82  1  0
 30 83  1  0
 31 84  1  0
 32 85  1  0
 32 86  1  0
 32 87  1  0
 33 88  1  0
 33 89  1  0
 33 90  1  0
 36 91  1  6
 39 92  1  6
 44 93  1  1
 45 94  1  1
 54 95  1  0
 56 96  1  0
 57 97  1  0
 58 98  1  0
 59 99  1  0
 59100  1  0
 60101  1  0
 60102  1  0
 60103  1  0
 61104  1  0
 62105  1  0
 63106  1  0
 64107  1  0
 65108  1  0
 65109  1  0
 65110  1  0
 66111  1  0
 66112  1  0
 66113  1  0
M  CHG  3  16  -1  49  -1  67   2
M  END
> <Uni-Dock RESULT> 
ENERGY=   -5.251  LOWER_BOUND=    3.411  UPPER_BOUND=    6.549
INTER + INTRA:          -5.251
INTER:                  -5.251
INTRA:                   0.000
UNBOUND:                 0.000

$$$$

     RDKit          3D

113118  0  0  0  0  0  0  0  0999 V2000
   49.8762    6.1968   18.8674 C   0  0  2  0  0  0  0  0  0  0  0  0
   49.6999    6.6286   16.3872 C   0  0  0  0  0  0  0  0  0  0  0  0
   51.3929    6.2743   18.7296 C   0  0  2  0  0  0  0  0  0  0  0  0
   50.1511    8.2886   20.3927 C   0  0  0  0  0  0  0  0  0  0  0  0
   49.1095    6.3454   17.5597 C   0  0  0  0  0  0  0  0  0  0  0  0
   51.1371    7.0460   16.2372 C   0  0  1  0  0  0  0  0  0  0  0  0
   49.2863    7.1969   19.8719 C   0  0  0  0  0  0  0  0  0  0  0  0
   51.4890    8.0596   20.5239 C   0  0  0  0  0  0  0  0  0  0  0  0
   48.9394    6.4504   15.1225 C   0  0  0  0  0  0  0  0  0  0  0  0
   51.2535    8.3123   15.2947 C   0  0  1  0  0  0  0  0  0  0  0  0
   52.0392    6.6625   20.1037 C   0  0  1  0  0  0  0  0  0  0  0  0
   51.8176    7.2808   17.6187 C   0  0  2  0  0  0  0  0  0  0  0  0
   49.2418    7.3695   14.0070 C   0  0  0  0  0  0  0  0  0  0  0  0
   50.3090    8.2762   14.0905 C   0  0  0  0  0  0  0  0  0  0  0  0
   49.5135    9.6106   20.6944 C   0  0  0  0  0  0  0  0  0  0  0  0
   52.4221    8.8477   20.8634 O   0  0  0  0  0  0  0  0  0  0  0  0
   52.0976    5.6650   21.2018 N   0  0  0  0  0  0  0  0  0  0  0  0
   48.1016    7.0608   20.2131 O   0  0  0  0  0  0  0  0  0  0  0  0
   48.1006    5.5668   14.9517 O   0  0  0  0  0  0  0  0  0  0  0  0
   48.3985    7.3682   12.8761 C   0  0  0  0  0  0  0  0  0  0  0  0
   49.5420    4.8640   19.3148 O   0  0  0  0  0  0  0  0  0  0  0  0
   48.4569    9.9747   20.1833 O   0  0  0  0  0  0  0  0  0  0  0  0
   47.7347    6.1271   17.6296 O   0  0  0  0  0  0  0  0  0  0  0  0
   50.9070    9.5075   16.0075 O   0  0  0  0  0  0  0  0  0  0  0  0
   53.2387    7.1629   17.4422 O   0  0  0  0  0  0  0  0  0  0  0  0
   50.1986   10.4164   21.5525 N   0  0  0  0  0  0  0  0  0  0  0  0
   52.7162    8.4858   14.8322 C   0  0  0  0  0  0  0  0  0  0  0  0
   50.4434    9.2215   13.0480 C   0  0  0  0  0  0  0  0  0  0  0  0
   47.3439    6.5042   12.7224 O   0  0  0  0  0  0  0  0  0  0  0  0
   49.6004    9.2174   11.9340 C   0  0  0  0  0  0  0  0  0  0  0  0
   48.5820    8.2791   11.8432 C   0  0  0  0  0  0  0  0  0  0  0  0
   50.9836    5.5744   22.1261 C   0  0  0  0  0  0  0  0  0  0  0  0
   52.5691    4.3555   20.7793 C   0  0  0  0  0  0  0  0  0  0  0  0
   50.0572    5.6012   18.5617 C   0  0  2  0  0  0  0  0  0  0  0  0
   49.6914    6.9194   16.5083 C   0  0  0  0  0  0  0  0  0  0  0  0
   51.3164    6.4006   18.8536 C   0  0  2  0  0  0  0  0  0  0  0  0
   49.1731    6.2742   20.8915 C   0  0  0  0  0  0  0  0  0  0  0  0
   49.1468    6.3164   17.5850 C   0  0  0  0  0  0  0  0  0  0  0  0
   51.1884    6.8512   16.2463 C   0  0  1  0  0  0  0  0  0  0  0  0
   49.4212    5.1957   19.8947 C   0  0  0  0  0  0  0  0  0  0  0  0
   49.8357    7.4628   20.7817 C   0  0  0  0  0  0  0  0  0  0  0  0
   48.8253    7.5815   15.4945 C   0  0  0  0  0  0  0  0  0  0  0  0
   51.6735    7.9367   15.2193 C   0  0  1  0  0  0  0  0  0  0  0  0
   50.9959    7.6446   19.7405 C   0  0  1  0  0  0  0  0  0  0  0  0
   52.0427    6.8501   17.5516 C   0  0  2  0  0  0  0  0  0  0  0  0
   49.3902    7.7556   14.1439 C   0  0  0  0  0  0  0  0  0  0  0  0
   50.7794    7.9072   13.9796 C   0  0  0  0  0  0  0  0  0  0  0  0
   48.1049    6.0472   21.9341 C   0  0  0  0  0  0  0  0  0  0  0  0
   49.6074    8.5431   21.4068 O   0  0  0  0  0  0  0  0  0  0  0  0
   52.3353    8.0818   20.2578 N   0  0  0  0  0  0  0  0  0  0  0  0
   49.0425    4.0304   20.0533 O   0  0  0  0  0  0  0  0  0  0  0  0
   47.7033    8.0264   15.7042 O   0  0  0  0  0  0  0  0  0  0  0  0
   48.5235    7.8017   13.0395 C   0  0  0  0  0  0  0  0  0  0  0  0
   50.4338    4.3655   17.9071 O   0  0  0  0  0  0  0  0  0  0  0  0
   47.8038    4.9480   22.3876 O   0  0  0  0  0  0  0  0  0  0  0  0
   47.7750    6.2393   17.7536 O   0  0  0  0  0  0  0  0  0  0  0  0
   51.5712    9.2486   15.7948 O   0  0  0  0  0  0  0  0  0  0  0  0
   53.1777    5.9825   17.3408 O   0  0  0  0  0  0  0  0  0  0  0  0
   47.4365    7.1628   22.3465 N   0  0  0  0  0  0  0  0  0  0  0  0
   53.1660    7.7590   14.8845 C   0  0  0  0  0  0  0  0  0  0  0  0
   51.2635    8.0840   12.6691 C   0  0  0  0  0  0  0  0  0  0  0  0
   47.1616    7.7051   13.1566 O   0  0  0  0  0  0  0  0  0  0  0  0
   50.3980    8.0961   11.5704 C   0  0  0  0  0  0  0  0  0  0  0  0
   49.0262    7.9564   11.7534 C   0  0  0  0  0  0  0  0  0  0  0  0
   52.7092    7.4451   21.5211 C   0  0  0  0  0  0  0  0  0  0  0  0
   52.4271    9.5377   20.3841 C   0  0  0  0  0  0  0  0  0  0  0  0
   50.5596    7.3075   17.5866 Ca  0  0  0  0  0 15  0  0  0  0  0  0
   51.7923    5.2951   18.4302 H   0  0  0  0  0  0  0  0  0  0  0  0
   51.6516    6.2128   15.7367 H   0  0  0  0  0  0  0  0  0  0  0  0
   53.1079    6.7899   19.8730 H   0  0  0  0  0  0  0  0  0  0  0  0
   51.6154    8.3078   17.9394 H   0  0  0  0  0  0  0  0  0  0  0  0
   48.6178    4.9048   19.6200 H   0  0  0  0  0  0  0  0  0  0  0  0
   47.4239    6.3506   18.5332 H   0  0  0  0  0  0  0  0  0  0  0  0
   49.9514    9.4947   16.1966 H   0  0  0  0  0  0  0  0  0  0  0  0
   53.6332    7.7275   18.1421 H   0  0  0  0  0  0  0  0  0  0  0  0
   49.9615   11.3936   21.5641 H   0  0  0  0  0  0  0  0  0  0  0  0
   51.1912   10.1553   21.6486 H   0  0  0  0  0  0  0  0  0  0  0  0
   53.0626    7.6174   14.2611 H   0  0  0  0  0  0  0  0  0  0  0  0
   52.8612    9.3764   14.2141 H   0  0  0  0  0  0  0  0  0  0  0  0
   53.3943    8.6493   15.6728 H   0  0  0  0  0  0  0  0  0  0  0  0
   51.2001   10.0019   13.1041 H   0  0  0  0  0  0  0  0  0  0  0  0
   47.3320    5.9117   13.5093 H   0  0  0  0  0  0  0  0  0  0  0  0
   49.7302    9.9573   11.1500 H   0  0  0  0  0  0  0  0  0  0  0  0
   47.9163    8.2684   10.9856 H   0  0  0  0  0  0  0  0  0  0  0  0
   51.2521    4.9336   22.9745 H   0  0  0  0  0  0  0  0  0  0  0  0
   50.0857    5.1446   21.6763 H   0  0  0  0  0  0  0  0  0  0  0  0
   50.7296    6.5421   22.5708 H   0  0  0  0  0  0  0  0  0  0  0  0
   53.4736    4.4433   20.1680 H   0  0  0  0  0  0  0  0  0  0  0  0
   51.8177    3.7992   20.2098 H   0  0  0  0  0  0  0  0  0  0  0  0
   52.8449    3.7477   21.6472 H   0  0  0  0  0  0  0  0  0  0  0  0
   51.9905    5.7281   19.4073 H   0  0  0  0  0  0  0  0  0  0  0  0
   51.3496    5.8814   15.7474 H   0  0  0  0  0  0  0  0  0  0  0  0
   50.6388    8.4143   19.0374 H   0  0  0  0  0  0  0  0  0  0  0  0
   52.4737    7.8460   17.6953 H   0  0  0  0  0  0  0  0  0  0  0  0
   49.7917    3.6998   18.2372 H   0  0  0  0  0  0  0  0  0  0  0  0
   47.5384    6.2007   18.6970 H   0  0  0  0  0  0  0  0  0  0  0  0
   50.6341    9.4931   15.8882 H   0  0  0  0  0  0  0  0  0  0  0  0
   53.7220    6.0570   18.1474 H   0  0  0  0  0  0  0  0  0  0  0  0
   47.9733    8.0277   22.1717 H   0  0  0  0  0  0  0  0  0  0  0  0
   46.9647    7.0874   23.2329 H   0  0  0  0  0  0  0  0  0  0  0  0
   53.3652    6.7956   14.4034 H   0  0  0  0  0  0  0  0  0  0  0  0
   53.5283    8.5612   14.2310 H   0  0  0  0  0  0  0  0  0  0  0  0
   53.8007    7.8412   15.7743 H   0  0  0  0  0  0  0  0  0  0  0  0
   52.3239    8.2224   12.4717 H   0  0  0  0  0  0  0  0  0  0  0  0
   46.9420    7.7911   14.1143 H   0  0  0  0  0  0  0  0  0  0  0  0
   50.7969    8.2289   10.5682 H   0  0  0  0  0  0  0  0  0  0  0  0
   48.3500    7.9805   10.9046 H   0  0  0  0  0  0  0  0  0  0  0  0
   53.7587    7.6668   21.7479 H   0  0  0  0  0  0  0  0  0  0  0  0
   52.1154    7.7808   22.3770 H   0  0  0  0  0  0  0  0  0  0  0  0
   52.6406    6.3527   21.4590 H   0  0  0  0  0  0  0  0  0  0  0  0
   52.1733   10.0278   19.4394 H   0  0  0  0  0  0  0  0  0  0  0  0
   51.8017    9.9580   21.1758 H   0  0  0  0  0  0  0  0  0  0  0  0
   53.4628    9.8221   20.6043 H   0  0  0  0  0  0  0  0  0  0  0  0
  2  5  2  0
  3  1  1  0
  4  7  1  0
  5  1  1  0
  6  2  1  0
  7  1  1  0
  8  4  2  0
  9  2  1  0
 10  6  1  0
  3 11  1  0
 12  3  1  0
 13  9  1  0
 14 13  2  0
 15  4  1  0
 16  8  1  0
 11 17  1  0
 18  7  2  0
 19  9  2  0
 20 13  1  0
  1 21  1  6
 22 15  2  0
 23  5  1  0
 10 24  1  1
 12 25  1  0
 26 15  1  0
 10 27  1  0
 28 14  1  0
 29 20  1  0
 30 31  1  0
 31 20  2  0
 32 17  1  0
 33 17  1  0
 12  6  1  0
 11  8  1  0
 10 14  1  0
 30 28  2  0
 35 38  2  0
 36 34  1  0
 37 40  1  0
 38 34  1  0
 39 35  1  0
 40 34  1  0
 41 37  2  0
 42 35  1  0
 43 39  1  0
 36 44  1  0
 45 36  1  0
 46 42  1  0
 47 46  2  0
 48 37  1  0
 49 41  1  0
 44 50  1  0
 51 40  2  0
 52 42  2  0
 53 46  1  0
 34 54  1  6
 55 48  2  0
 56 38  1  0
 43 57  1  1
 45 58  1  0
 59 48  1  0
 43 60  1  0
 61 47  1  0
 62 53  1  0
 63 64  1  0
 64 53  2  0
 65 50  1  0
 66 50  1  0
 45 39  1  0
 44 41  1  0
 43 47  1  0
 63 61  2  0
  3 68  1  6
  6 69  1  6
 11 70  1  1
 12 71  1  1
 21 72  1  0
 23 73  1  0
 24 74  1  0
 25 75  1  0
 26 76  1  0
 26 77  1  0
 27 78  1  0
 27 79  1  0
 27 80  1  0
 28 81  1  0
 29 82  1  0
 30 83  1  0
 31 84  1  0
 32 85  1  0
 32 86  1  0
 32 87  1  0
 33 88  1  0
 33 89  1  0
 33 90  1  0
 36 91  1  6
 39 92  1  6
 44 93  1  1
 45 94  1  1
 54 95  1  0
 56 96  1  0
 57 97  1  0
 58 98  1  0
 59 99  1  0
 59100  1  0
 60101  1  0
 60102  1  0
 60103  1  0
 61104  1  0
 62105  1  0
 63106  1  0
 64107  1  0
 65108  1  0
 65109  1  0
 65110  1  0
 66111  1  0
 66112  1  0
 66113  1  0
M  CHG  3  16  -1  49  -1  67   2
M  END
> <Uni-Dock RESULT> 
ENERGY=   -5.090  LOWER_BOUND=    2.777  UPPER_BOUND=    4.563
INTER + INTRA:          -5.090
INTER:                  -5.090
INTRA:                   0.000
UNBOUND:                 0.000

$$$$

     RDKit          3D

113118  0  0  0  0  0  0  0  0999 V2000
   50.1642    8.4632   15.6435 C   0  0  2  0  0  0  0  0  0  0  0  0
   49.2322    7.3566   17.7113 C   0  0  0  0  0  0  0  0  0  0  0  0
   49.3074    9.6837   15.9626 C   0  0  2  0  0  0  0  0  0  0  0  0
   52.1720   10.0820   15.9987 C   0  0  0  0  0  0  0  0  0  0  0  0
   49.9921    7.2952   16.6058 C   0  0  0  0  0  0  0  0  0  0  0  0
   48.6327    8.6212   18.2624 C   0  0  1  0  0  0  0  0  0  0  0  0
   51.6661    8.7629   15.5352 C   0  0  0  0  0  0  0  0  0  0  0  0
   51.3570   11.1705   15.8946 C   0  0  0  0  0  0  0  0  0  0  0  0
   48.8678    6.1019   18.4201 C   0  0  0  0  0  0  0  0  0  0  0  0
   48.8911    8.7268   19.8204 C   0  0  1  0  0  0  0  0  0  0  0  0
   49.9282   10.9640   15.3055 C   0  0  1  0  0  0  0  0  0  0  0  0
   49.1393    9.8811   17.4989 C   0  0  2  0  0  0  0  0  0  0  0  0
   48.7079    6.1663   19.8867 C   0  0  0  0  0  0  0  0  0  0  0  0
   48.7519    7.3950   20.5623 C   0  0  0  0  0  0  0  0  0  0  0  0
   53.5377   10.1378   16.6127 C   0  0  0  0  0  0  0  0  0  0  0  0
   51.5331   12.3622   16.2895 O   0  0  0  0  0  0  0  0  0  0  0  0
   49.8298   11.1638   13.8375 N   0  0  0  0  0  0  0  0  0  0  0  0
   52.4096    7.8882   15.0655 O   0  0  0  0  0  0  0  0  0  0  0  0
   48.6670    5.0312   17.8486 O   0  0  0  0  0  0  0  0  0  0  0  0
   48.5742    4.9629   20.6105 C   0  0  0  0  0  0  0  0  0  0  0  0
   49.7213    7.9337   14.3740 O   0  0  0  0  0  0  0  0  0  0  0  0
   54.0848    9.1585   17.1144 O   0  0  0  0  0  0  0  0  0  0  0  0
   50.6439    6.1140   16.2553 O   0  0  0  0  0  0  0  0  0  0  0  0
   50.2315    9.1640   20.0828 O   0  0  0  0  0  0  0  0  0  0  0  0
   48.1882   10.9388   17.7022 O   0  0  0  0  0  0  0  0  0  0  0  0
   54.1352   11.3617   16.6176 N   0  0  0  0  0  0  0  0  0  0  0  0
   47.9550    9.7902   20.4337 C   0  0  0  0  0  0  0  0  0  0  0  0
   48.7399    7.3619   21.9755 C   0  0  0  0  0  0  0  0  0  0  0  0
   48.5139    3.7278   20.0162 O   0  0  0  0  0  0  0  0  0  0  0  0
   48.6132    6.1653   22.6852 C   0  0  0  0  0  0  0  0  0  0  0  0
   48.5180    4.9630   21.9987 C   0  0  0  0  0  0  0  0  0  0  0  0
   50.8715   10.6234   12.9854 C   0  0  0  0  0  0  0  0  0  0  0  0
   48.4998   10.9210   13.3011 C   0  0  0  0  0  0  0  0  0  0  0  0
   49.5178    8.2744   15.4779 C   0  0  2  0  0  0  0  0  0  0  0  0
   49.4890    7.5024   17.8212 C   0  0  0  0  0  0  0  0  0  0  0  0
   49.4967    9.7186   15.9508 C   0  0  2  0  0  0  0  0  0  0  0  0
   51.6690    8.8111   14.1563 C   0  0  0  0  0  0  0  0  0  0  0  0
   49.9663    7.3274   16.5718 C   0  0  0  0  0  0  0  0  0  0  0  0
   48.4832    8.6016   18.1285 C   0  0  1  0  0  0  0  0  0  0  0  0
   50.3084    8.2052   14.1679 C   0  0  0  0  0  0  0  0  0  0  0  0
   52.0160    9.7141   15.1194 C   0  0  0  0  0  0  0  0  0  0  0  0
   49.8590    6.5576   18.9106 C   0  0  0  0  0  0  0  0  0  0  0  0
   48.3772    8.9133   19.6648 C   0  0  1  0  0  0  0  0  0  0  0  0
   50.9463   10.2715   16.1234 C   0  0  1  0  0  0  0  0  0  0  0  0
   48.7013    9.8913   17.2782 C   0  0  2  0  0  0  0  0  0  0  0  0
   48.9484    6.4814   20.0675 C   0  0  0  0  0  0  0  0  0  0  0  0
   48.1958    7.6096   20.4423 C   0  0  0  0  0  0  0  0  0  0  0  0
   52.6597    8.3151   13.1305 C   0  0  0  0  0  0  0  0  0  0  0  0
   53.1708   10.1711   15.3798 O   0  0  0  0  0  0  0  0  0  0  0  0
   50.7655   11.7599   16.1951 N   0  0  0  0  0  0  0  0  0  0  0  0
   49.8460    7.5669   13.2166 O   0  0  0  0  0  0  0  0  0  0  0  0
   50.8748    5.8734   18.9394 O   0  0  0  0  0  0  0  0  0  0  0  0
   48.8723    5.2865   20.8020 C   0  0  0  0  0  0  0  0  0  0  0  0
   48.1653    7.8743   15.1492 O   0  0  0  0  0  0  0  0  0  0  0  0
   52.3530    7.8950   12.0196 O   0  0  0  0  0  0  0  0  0  0  0  0
   50.7598    6.2409   16.2467 O   0  0  0  0  0  0  0  0  0  0  0  0
   49.5864    9.5310   20.1327 O   0  0  0  0  0  0  0  0  0  0  0  0
   47.4041   10.4422   16.9633 O   0  0  0  0  0  0  0  0  0  0  0  0
   53.9672    8.3246   13.5202 N   0  0  0  0  0  0  0  0  0  0  0  0
   47.2646    9.9391   19.9494 C   0  0  0  0  0  0  0  0  0  0  0  0
   47.3525    7.4854   21.5633 C   0  0  0  0  0  0  0  0  0  0  0  0
   49.6207    4.1785   20.5018 O   0  0  0  0  0  0  0  0  0  0  0  0
   47.2567    6.2825   22.2705 C   0  0  0  0  0  0  0  0  0  0  0  0
   48.0174    5.1811   21.8922 C   0  0  0  0  0  0  0  0  0  0  0  0
   50.8142   12.4172   14.8887 C   0  0  0  0  0  0  0  0  0  0  0  0
   51.7241   12.3866   17.1072 C   0  0  0  0  0  0  0  0  0  0  0  0
   49.8316    8.8344   17.4022 Ca  0  0  0  0  0 15  0  0  0  0  0  0
   48.2959    9.5482   15.5547 H   0  0  0  0  0  0  0  0  0  0  0  0
   47.5462    8.5408   18.1121 H   0  0  0  0  0  0  0  0  0  0  0  0
   49.3012   11.7890   15.6764 H   0  0  0  0  0  0  0  0  0  0  0  0
   50.0845   10.2055   17.9457 H   0  0  0  0  0  0  0  0  0  0  0  0
   50.4170    7.3187   14.0797 H   0  0  0  0  0  0  0  0  0  0  0  0
   51.4363    6.3360   15.7206 H   0  0  0  0  0  0  0  0  0  0  0  0
   50.8486    8.4529   19.8323 H   0  0  0  0  0  0  0  0  0  0  0  0
   48.7060   11.7695   17.6249 H   0  0  0  0  0  0  0  0  0  0  0  0
   54.9044   11.5024   17.2501 H   0  0  0  0  0  0  0  0  0  0  0  0
   53.4709   12.1377   16.4791 H   0  0  0  0  0  0  0  0  0  0  0  0
   46.9009    9.5271   20.2919 H   0  0  0  0  0  0  0  0  0  0  0  0
   48.1255    9.9367   21.5041 H   0  0  0  0  0  0  0  0  0  0  0  0
   48.1313   10.7824   20.0123 H   0  0  0  0  0  0  0  0  0  0  0  0
   48.8585    8.2783   22.5506 H   0  0  0  0  0  0  0  0  0  0  0  0
   48.5521    3.8680   19.0418 H   0  0  0  0  0  0  0  0  0  0  0  0
   48.6071    6.1740   23.7710 H   0  0  0  0  0  0  0  0  0  0  0  0
   48.4247    4.0253   22.5381 H   0  0  0  0  0  0  0  0  0  0  0  0
   50.7565   11.0069   11.9645 H   0  0  0  0  0  0  0  0  0  0  0  0
   50.8498    9.5334   12.9186 H   0  0  0  0  0  0  0  0  0  0  0  0
   51.8723   10.9403   13.2964 H   0  0  0  0  0  0  0  0  0  0  0  0
   47.7365   11.4267   13.9023 H   0  0  0  0  0  0  0  0  0  0  0  0
   48.2525    9.8558   13.2506 H   0  0  0  0  0  0  0  0  0  0  0  0
   48.4125   11.3303   12.2894 H   0  0  0  0  0  0  0  0  0  0  0  0
   48.9827   10.2955   15.1658 H   0  0  0  0  0  0  0  0  0  0  0  0
   47.5035    8.1831   17.8451 H   0  0  0  0  0  0  0  0  0  0  0  0
   51.2700    9.9234   17.1175 H   0  0  0  0  0  0  0  0  0  0  0  0
   49.1847   10.6504   17.9013 H   0  0  0  0  0  0  0  0  0  0  0  0
   48.2618    7.2640   14.3858 H   0  0  0  0  0  0  0  0  0  0  0  0
   51.3626    6.4531   15.5125 H   0  0  0  0  0  0  0  0  0  0  0  0
   50.3094    8.8799   20.1291 H   0  0  0  0  0  0  0  0  0  0  0  0
   47.5785   11.2782   16.4909 H   0  0  0  0  0  0  0  0  0  0  0  0
   54.1395    8.9847   14.2957 H   0  0  0  0  0  0  0  0  0  0  0  0
   54.6455    8.3041   12.7764 H   0  0  0  0  0  0  0  0  0  0  0  0
   46.2775    9.5621   19.6616 H   0  0  0  0  0  0  0  0  0  0  0  0
   47.2398   10.2197   21.0089 H   0  0  0  0  0  0  0  0  0  0  0  0
   47.4381   10.8897   19.4321 H   0  0  0  0  0  0  0  0  0  0  0  0
   46.7547    8.3222   21.9169 H   0  0  0  0  0  0  0  0  0  0  0  0
   50.3024    4.4535   19.8442 H   0  0  0  0  0  0  0  0  0  0  0  0
   46.5946    6.2104   23.1292 H   0  0  0  0  0  0  0  0  0  0  0  0
   47.9571    4.2505   22.4478 H   0  0  0  0  0  0  0  0  0  0  0  0
   50.5001   13.4626   14.9913 H   0  0  0  0  0  0  0  0  0  0  0  0
   51.8097   12.4217   14.4339 H   0  0  0  0  0  0  0  0  0  0  0  0
   50.1119   11.9617   14.1806 H   0  0  0  0  0  0  0  0  0  0  0  0
   51.6826   11.9211   18.0966 H   0  0  0  0  0  0  0  0  0  0  0  0
   52.7579   12.3650   16.7532 H   0  0  0  0  0  0  0  0  0  0  0  0
   51.4548   13.4389   17.2560 H   0  0  0  0  0  0  0  0  0  0  0  0
  2  5  2  0
  3  1  1  0
  4  7  1  0
  5  1  1  0
  6  2  1  0
  7  1  1  0
  8  4  2  0
  9  2  1  0
 10  6  1  0
  3 11  1  0
 12  3  1  0
 13  9  1  0
 14 13  2  0
 15  4  1  0
 16  8  1  0
 11 17  1  0
 18  7  2  0
 19  9  2  0
 20 13  1  0
  1 21  1  6
 22 15  2  0
 23  5  1  0
 10 24  1  1
 12 25  1  0
 26 15  1  0
 10 27  1  0
 28 14  1  0
 29 20  1  0
 30 31  1  0
 31 20  2  0
 32 17  1  0
 33 17  1  0
 12  6  1  0
 11  8  1  0
 10 14  1  0
 30 28  2  0
 35 38  2  0
 36 34  1  0
 37 40  1  0
 38 34  1  0
 39 35  1  0
 40 34  1  0
 41 37  2  0
 42 35  1  0
 43 39  1  0
 36 44  1  0
 45 36  1  0
 46 42  1  0
 47 46  2  0
 48 37  1  0
 49 41  1  0
 44 50  1  0
 51 40  2  0
 52 42  2  0
 53 46  1  0
 34 54  1  6
 55 48  2  0
 56 38  1  0
 43 57  1  1
 45 58  1  0
 59 48  1  0
 43 60  1  0
 61 47  1  0
 62 53  1  0
 63 64  1  0
 64 53  2  0
 65 50  1  0
 66 50  1  0
 45 39  1  0
 44 41  1  0
 43 47  1  0
 63 61  2  0
  3 68  1  6
  6 69  1  6
 11 70  1  1
 12 71  1  1
 21 72  1  0
 23 73  1  0
 24 74  1  0
 25 75  1  0
 26 76  1  0
 26 77  1  0
 27 78  1  0
 27 79  1  0
 27 80  1  0
 28 81  1  0
 29 82  1  0
 30 83  1  0
 31 84  1  0
 32 85  1  0
 32 86  1  0
 32 87  1  0
 33 88  1  0
 33 89  1  0
 33 90  1  0
 36 91  1  6
 39 92  1  6
 44 93  1  1
 45 94  1  1
 54 95  1  0
 56 96  1  0
 57 97  1  0
 58 98  1  0
 59 99  1  0
 59100  1  0
 60101  1  0
 60102  1  0
 60103  1  0
 61104  1  0
 62105  1  0
 63106  1  0
 64107  1  0
 65108  1  0
 65109  1  0
 65110  1  0
 66111  1  0
 66112  1  0
 66113  1  0
M  CHG  3  16  -1  49  -1  67   2
M  END
> <Uni-Dock RESULT> 
ENERGY=   -5.034  LOWER_BOUND=    2.645  UPPER_BOUND=    6.587
INTER + INTRA:          -5.034
INTER:                  -5.034
INTRA:                   0.000
UNBOUND:                 0.000

$$$$

     RDKit          3D

113118  0  0  0  0  0  0  0  0999 V2000
   48.5650    8.9103   13.3302 C   0  0  2  0  0  0  0  0  0  0  0  0
   46.5996    9.6794   11.9465 C   0  0  0  0  0  0  0  0  0  0  0  0
   49.4463    9.8638   12.5305 C   0  0  2  0  0  0  0  0  0  0  0  0
   49.2096   10.4051   15.3619 C   0  0  0  0  0  0  0  0  0  0  0  0
   47.1074    8.8698   12.8898 C   0  0  0  0  0  0  0  0  0  0  0  0
   47.3229   10.8604   11.3596 C   0  0  1  0  0  0  0  0  0  0  0  0
   48.5894    9.1562   14.8454 C   0  0  0  0  0  0  0  0  0  0  0  0
   50.2478   10.9563   14.6706 C   0  0  0  0  0  0  0  0  0  0  0  0
   45.2696    9.3736   11.3575 C   0  0  0  0  0  0  0  0  0  0  0  0
   46.3819   12.1329   11.3338 C   0  0  1  0  0  0  0  0  0  0  0  0
   50.7173   10.2484   13.3631 C   0  0  1  0  0  0  0  0  0  0  0  0
   48.6655   11.1409   12.0983 C   0  0  2  0  0  0  0  0  0  0  0  0
   44.4299   10.5126   10.9355 C   0  0  0  0  0  0  0  0  0  0  0  0
   44.9320   11.8225   10.9532 C   0  0  0  0  0  0  0  0  0  0  0  0
   48.6215   11.0289   16.5908 C   0  0  0  0  0  0  0  0  0  0  0  0
   50.8736   12.0413   14.8664 O   0  0  0  0  0  0  0  0  0  0  0  0
   51.8050    9.2558   13.5537 N   0  0  0  0  0  0  0  0  0  0  0  0
   48.0852    8.3018   15.5898 O   0  0  0  0  0  0  0  0  0  0  0  0
   44.8506    8.2307   11.1799 O   0  0  0  0  0  0  0  0  0  0  0  0
   43.0878   10.2720   10.5740 C   0  0  0  0  0  0  0  0  0  0  0  0
   49.0370    7.5662   13.0878 O   0  0  0  0  0  0  0  0  0  0  0  0
   47.4656   10.8257   16.9552 O   0  0  0  0  0  0  0  0  0  0  0  0
   46.3126    7.8994   13.4976 O   0  0  0  0  0  0  0  0  0  0  0  0
   46.3079   12.7343   12.6336 O   0  0  0  0  0  0  0  0  0  0  0  0
   49.5127   11.8931   11.2145 O   0  0  0  0  0  0  0  0  0  0  0  0
   49.4396   11.8768   17.2740 N   0  0  0  0  0  0  0  0  0  0  0  0
   46.9742   13.2009   10.3895 C   0  0  0  0  0  0  0  0  0  0  0  0
   44.0250   12.8713   10.6780 C   0  0  0  0  0  0  0  0  0  0  0  0
   42.5329    9.0182   10.5248 O   0  0  0  0  0  0  0  0  0  0  0  0
   42.6956   12.6250   10.3264 C   0  0  0  0  0  0  0  0  0  0  0  0
   42.2296   11.3193   10.2628 C   0  0  0  0  0  0  0  0  0  0  0  0
   51.7400    8.3541   14.6877 C   0  0  0  0  0  0  0  0  0  0  0  0
   52.1960    8.5732   12.3303 C   0  0  0  0  0  0  0  0  0  0  0  0
   48.6418    8.6048   12.7123 C   0  0  2  0  0  0  0  0  0  0  0  0
   46.5952    9.8800   12.1895 C   0  0  0  0  0  0  0  0  0  0  0  0
   49.4461    9.8944   12.7209 C   0  0  2  0  0  0  0  0  0  0  0  0
   49.4880    8.1423   15.1066 C   0  0  0  0  0  0  0  0  0  0  0  0
   47.1579    8.8625   12.8734 C   0  0  0  0  0  0  0  0  0  0  0  0
   47.4187   10.7329   11.2363 C   0  0  1  0  0  0  0  0  0  0  0  0
   49.2662    7.6379   13.7228 C   0  0  0  0  0  0  0  0  0  0  0  0
   49.5084    9.4869   15.3417 C   0  0  0  0  0  0  0  0  0  0  0  0
   45.1299   10.1286   12.2747 C   0  0  0  0  0  0  0  0  0  0  0  0
   46.7135   12.0893   10.8742 C   0  0  1  0  0  0  0  0  0  0  0  0
   49.4964   10.5123   14.1536 C   0  0  1  0  0  0  0  0  0  0  0  0
   48.8902   10.9410   11.7108 C   0  0  2  0  0  0  0  0  0  0  0  0
   44.5126   10.8748   11.1632 C   0  0  0  0  0  0  0  0  0  0  0  0
   45.2702   11.8204   10.4479 C   0  0  0  0  0  0  0  0  0  0  0  0
   49.5745    7.1330   16.2262 C   0  0  0  0  0  0  0  0  0  0  0  0
   49.4842   10.0829   16.4616 O   0  0  0  0  0  0  0  0  0  0  0  0
   50.6139   11.5118   14.0834 N   0  0  0  0  0  0  0  0  0  0  0  0
   49.4601    6.4629   13.3939 O   0  0  0  0  0  0  0  0  0  0  0  0
   44.4093    9.7994   13.2092 O   0  0  0  0  0  0  0  0  0  0  0  0
   43.1599   10.6529   10.8567 C   0  0  0  0  0  0  0  0  0  0  0  0
   48.7877    7.9760   11.4159 O   0  0  0  0  0  0  0  0  0  0  0  0
   50.0059    5.9921   16.0968 O   0  0  0  0  0  0  0  0  0  0  0  0
   46.3934    7.9852   13.6230 O   0  0  0  0  0  0  0  0  0  0  0  0
   46.6716   12.9515   12.0221 O   0  0  0  0  0  0  0  0  0  0  0  0
   49.7394   10.9419   10.5427 O   0  0  0  0  0  0  0  0  0  0  0  0
   49.1022    7.5518   17.4358 N   0  0  0  0  0  0  0  0  0  0  0  0
   47.5148   12.8681    9.8146 C   0  0  0  0  0  0  0  0  0  0  0  0
   44.6268   12.5143    9.4050 C   0  0  0  0  0  0  0  0  0  0  0  0
   42.3716    9.7765   11.5557 O   0  0  0  0  0  0  0  0  0  0  0  0
   43.2886   12.2648    9.0837 C   0  0  0  0  0  0  0  0  0  0  0  0
   42.5520   11.3347    9.8097 C   0  0  0  0  0  0  0  0  0  0  0  0
   51.9213   10.9505   14.4251 C   0  0  0  0  0  0  0  0  0  0  0  0
   50.3462   12.6941   14.9046 C   0  0  0  0  0  0  0  0  0  0  0  0
   47.8066   10.4534   12.7098 Ca  0  0  0  0  0 15  0  0  0  0  0  0
   49.7811    9.3765   11.6040 H   0  0  0  0  0  0  0  0  0  0  0  0
   47.5518   10.5972   10.3166 H   0  0  0  0  0  0  0  0  0  0  0  0
   51.2246   11.0064   12.7471 H   0  0  0  0  0  0  0  0  0  0  0  0
   48.4618   11.7739   12.9680 H   0  0  0  0  0  0  0  0  0  0  0  0
   48.6288    7.0081   13.7740 H   0  0  0  0  0  0  0  0  0  0  0  0
   46.6727    7.7085   14.3904 H   0  0  0  0  0  0  0  0  0  0  0  0
   45.8135   12.1403   13.2269 H   0  0  0  0  0  0  0  0  0  0  0  0
   50.0983   12.4175   11.8030 H   0  0  0  0  0  0  0  0  0  0  0  0
   49.0121   12.5160   17.9220 H   0  0  0  0  0  0  0  0  0  0  0  0
   50.2352   12.2135   16.7114 H   0  0  0  0  0  0  0  0  0  0  0  0
   47.0533   12.8291    9.3619 H   0  0  0  0  0  0  0  0  0  0  0  0
   46.3851   14.1222   10.3709 H   0  0  0  0  0  0  0  0  0  0  0  0
   47.9592   13.5381   10.7200 H   0  0  0  0  0  0  0  0  0  0  0  0
   44.3395   13.9099   10.7620 H   0  0  0  0  0  0  0  0  0  0  0  0
   43.2419    8.3736   10.7533 H   0  0  0  0  0  0  0  0  0  0  0  0
   42.0241   13.4531   10.1208 H   0  0  0  0  0  0  0  0  0  0  0  0
   41.1973   11.1142    9.9962 H   0  0  0  0  0  0  0  0  0  0  0  0
   52.6904    7.8176   14.7944 H   0  0  0  0  0  0  0  0  0  0  0  0
   50.9582    7.5973   14.5908 H   0  0  0  0  0  0  0  0  0  0  0  0
   51.6054    8.8842   15.6362 H   0  0  0  0  0  0  0  0  0  0  0  0
   52.3415    9.2872   11.5126 H   0  0  0  0  0  0  0  0  0  0  0  0
   51.4637    7.8246   12.0114 H   0  0  0  0  0  0  0  0  0  0  0  0
   53.1553    8.0629   12.4644 H   0  0  0  0  0  0  0  0  0  0  0  0
   50.4677    9.6259   12.4089 H   0  0  0  0  0  0  0  0  0  0  0  0
   47.4551   10.1599   10.2951 H   0  0  0  0  0  0  0  0  0  0  0  0
   48.5519   11.0700   14.2592 H   0  0  0  0  0  0  0  0  0  0  0  0
   48.9895   11.9470   12.1306 H   0  0  0  0  0  0  0  0  0  0  0  0
   48.7845    7.0118   11.6020 H   0  0  0  0  0  0  0  0  0  0  0  0
   46.9050    7.6197   14.3660 H   0  0  0  0  0  0  0  0  0  0  0  0
   46.0492   12.5929   12.6785 H   0  0  0  0  0  0  0  0  0  0  0  0
   50.6380   11.1395   10.8682 H   0  0  0  0  0  0  0  0  0  0  0  0
   49.0870    8.5815   17.5148 H   0  0  0  0  0  0  0  0  0  0  0  0
   49.4296    7.0354   18.2358 H   0  0  0  0  0  0  0  0  0  0  0  0
   47.5866   12.3180    8.8705 H   0  0  0  0  0  0  0  0  0  0  0  0
   47.0694   13.8503    9.6175 H   0  0  0  0  0  0  0  0  0  0  0  0
   48.5286   13.1056   10.1567 H   0  0  0  0  0  0  0  0  0  0  0  0
   45.1486   13.2694    8.8218 H   0  0  0  0  0  0  0  0  0  0  0  0
   42.8687    9.5167   12.3670 H   0  0  0  0  0  0  0  0  0  0  0  0
   42.8162   12.8099    8.2708 H   0  0  0  0  0  0  0  0  0  0  0  0
   41.5090   11.1492    9.5731 H   0  0  0  0  0  0  0  0  0  0  0  0
   52.7073   11.6755   14.1829 H   0  0  0  0  0  0  0  0  0  0  0  0
   52.0296   10.6978   15.4845 H   0  0  0  0  0  0  0  0  0  0  0  0
   52.1451   10.0566   13.8311 H   0  0  0  0  0  0  0  0  0  0  0  0
   49.3815   13.1396   14.6438 H   0  0  0  0  0  0  0  0  0  0  0  0
   50.3649   12.5043   15.9808 H   0  0  0  0  0  0  0  0  0  0  0  0
   51.1005   13.4625   14.6983 H   0  0  0  0  0  0  0  0  0  0  0  0
  2  5  2  0
  3  1  1  0
  4  7  1  0
  5  1  1  0
  6  2  1  0
  7  1  1  0
  8  4  2  0
  9  2  1  0
 10  6  1  0
  3 11  1  0
 12  3  1  0
 13  9  1  0
 14 13  2  0
 15  4  1  0
 16  8  1  0
 11 17  1  0
 18  7  2  0
 19  9  2  0
 20 13  1  0
  1 21  1  6
 22 15  2  0
 23  5  1  0
 10 24  1  1
 12 25  1  0
 26 15  1  0
 10 27  1  0
 28 14  1  0
 29 20  1  0
 30 31  1  0
 31 20  2  0
 32 17  1  0
 33 17  1  0
 12  6  1  0
 11  8  1  0
 10 14  1  0
 30 28  2  0
 35 38  2  0
 36 34  1  0
 37 40  1  0
 38 34  1  0
 39 35  1  0
 40 34  1  0
 41 37  2  0
 42 35  1  0
 43 39  1  0
 36 44  1  0
 45 36  1  0
 46 42  1  0
 47 46  2  0
 48 37  1  0
 49 41  1  0
 44 50  1  0
 51 40  2  0
 52 42  2  0
 53 46  1  0
 34 54  1  6
 55 48  2  0
 56 38  1  0
 43 57  1  1
 45 58  1  0
 59 48  1  0
 43 60  1  0
 61 47  1  0
 62 53  1  0
 63 64  1  0
 64 53  2  0
 65 50  1  0
 66 50  1  0
 45 39  1  0
 44 41  1  0
 43 47  1  0
 63 61  2  0
  3 68  1  6
  6 69  1  6
 11 70  1  1
 12 71  1  1
 21 72  1  0
 23 73  1  0
 24 74  1  0
 25 75  1  0
 26 76  1  0
 26 77  1  0
 27 78  1  0
 27 79  1  0
 27 80  1  0
 28 81  1  0
 29 82  1  0
 30 83  1  0
 31 84  1  0
 32 85  1  0
 32 86  1  0
 32 87  1  0
 33 88  1  0
 33 89  1  0
 33 90  1  0
 36 91  1  6
 39 92  1  6
 44 93  1  1
 45 94  1  1
 54 95  1  0
 56 96  1  0
 57 97  1  0
 58 98  1  0
 59 99  1  0
 59100  1  0
 60101  1  0
 60102  1  0
 60103  1  0
 61104  1  0
 62105  1  0
 63106  1  0
 64107  1  0
 65108  1  0
 65109  1  0
 65110  1  0
 66111  1  0
 66112  1  0
 66113  1  0
M  CHG  3  16  -1  49  -1  67   2
M  END
> <Uni-Dock RESULT> 
ENERGY=   -4.933  LOWER_BOUND=    4.524  UPPER_BOUND=    7.115
INTER + INTRA:          -4.933
INTER:                  -4.933
INTRA:                   0.000
UNBOUND:                 0.000

$$$$

     RDKit          3D

113118  0  0  0  0  0  0  0  0999 V2000
   48.2092   12.7429   12.0868 C   0  0  2  0  0  0  0  0  0  0  0  0
   46.7343   12.2068   10.1104 C   0  0  0  0  0  0  0  0  0  0  0  0
   49.4109   12.6917   11.1493 C   0  0  2  0  0  0  0  0  0  0  0  0
   48.8667   15.2424   12.3997 C   0  0  0  0  0  0  0  0  0  0  0  0
   46.8742   12.4184   11.4291 C   0  0  0  0  0  0  0  0  0  0  0  0
   47.8061   12.4686    9.0882 C   0  0  1  0  0  0  0  0  0  0  0  0
   48.0520   14.0760   12.8319 C   0  0  0  0  0  0  0  0  0  0  0  0
   50.1037   15.0187   11.8712 C   0  0  0  0  0  0  0  0  0  0  0  0
   45.4805   11.5964    9.5957 C   0  0  0  0  0  0  0  0  0  0  0  0
   47.2183   13.2745    7.8592 C   0  0  1  0  0  0  0  0  0  0  0  0
   50.5886   13.5429   11.7366 C   0  0  1  0  0  0  0  0  0  0  0  0
   49.0420   13.1793    9.7163 C   0  0  2  0  0  0  0  0  0  0  0  0
   45.0201   12.0072    8.2541 C   0  0  0  0  0  0  0  0  0  0  0  0
   45.8157   12.8270    7.4399 C   0  0  0  0  0  0  0  0  0  0  0  0
   48.2604   16.6078   12.5147 C   0  0  0  0  0  0  0  0  0  0  0  0
   50.9349   15.8325   11.3672 O   0  0  0  0  0  0  0  0  0  0  0  0
   51.3585   13.0364   12.9007 N   0  0  0  0  0  0  0  0  0  0  0  0
   47.2441   14.1350   13.7712 O   0  0  0  0  0  0  0  0  0  0  0  0
   44.8302   10.7542   10.2132 O   0  0  0  0  0  0  0  0  0  0  0  0
   43.7345   11.6151    7.8258 C   0  0  0  0  0  0  0  0  0  0  0  0
   48.3733   11.6974   13.0707 O   0  0  0  0  0  0  0  0  0  0  0  0
   47.0471   16.7988   12.5532 O   0  0  0  0  0  0  0  0  0  0  0  0
   45.7817   12.3071   12.2874 O   0  0  0  0  0  0  0  0  0  0  0  0
   47.0873   14.6657    8.1820 O   0  0  0  0  0  0  0  0  0  0  0  0
   50.1755   12.9374    8.8669 O   0  0  0  0  0  0  0  0  0  0  0  0
   49.1409   17.6467   12.5377 N   0  0  0  0  0  0  0  0  0  0  0  0
   48.1941   13.1911    6.6658 C   0  0  0  0  0  0  0  0  0  0  0  0
   45.2458   13.2975    6.2348 C   0  0  0  0  0  0  0  0  0  0  0  0
   42.9070   10.8074    8.5642 O   0  0  0  0  0  0  0  0  0  0  0  0
   43.9694   12.9092    5.8204 C   0  0  0  0  0  0  0  0  0  0  0  0
   43.2166   12.0551    6.6140 C   0  0  0  0  0  0  0  0  0  0  0  0
   50.8977   13.3558   14.2382 C   0  0  0  0  0  0  0  0  0  0  0  0
   51.7611   11.6443   12.7759 C   0  0  0  0  0  0  0  0  0  0  0  0
   48.3066   12.0681   11.9598 C   0  0  2  0  0  0  0  0  0  0  0  0
   46.7402   12.5218   10.1082 C   0  0  0  0  0  0  0  0  0  0  0  0
   49.3879   12.8591   11.2422 C   0  0  2  0  0  0  0  0  0  0  0  0
   48.6246   13.6167   14.0002 C   0  0  0  0  0  0  0  0  0  0  0  0
   46.9234   12.3995   11.4390 C   0  0  0  0  0  0  0  0  0  0  0  0
   47.8864   12.2898    9.1354 C   0  0  1  0  0  0  0  0  0  0  0  0
   48.5094   12.2299   13.4693 C   0  0  0  0  0  0  0  0  0  0  0  0
   48.9332   14.6421   13.1534 C   0  0  0  0  0  0  0  0  0  0  0  0
   45.3846   12.7880    9.5535 C   0  0  0  0  0  0  0  0  0  0  0  0
   47.5980   12.8794    7.7079 C   0  0  1  0  0  0  0  0  0  0  0  0
   49.3588   14.3603   11.6693 C   0  0  1  0  0  0  0  0  0  0  0  0
   49.2700   12.7456    9.6937 C   0  0  2  0  0  0  0  0  0  0  0  0
   45.1510   12.4090    8.1481 C   0  0  0  0  0  0  0  0  0  0  0  0
   46.2190   12.4222    7.2321 C   0  0  0  0  0  0  0  0  0  0  0  0
   48.2850   13.8530   15.4523 C   0  0  0  0  0  0  0  0  0  0  0  0
   48.8770   15.8884   13.3853 O   0  0  0  0  0  0  0  0  0  0  0  0
   50.6821   14.8988   11.2088 N   0  0  0  0  0  0  0  0  0  0  0  0
   48.4620   11.2314   14.1954 O   0  0  0  0  0  0  0  0  0  0  0  0
   44.4669   13.3307   10.1570 O   0  0  0  0  0  0  0  0  0  0  0  0
   43.8511   12.0718    7.7363 C   0  0  0  0  0  0  0  0  0  0  0  0
   48.4992   10.6603   11.6801 O   0  0  0  0  0  0  0  0  0  0  0  0
   48.4415   13.0241   16.3427 O   0  0  0  0  0  0  0  0  0  0  0  0
   45.8599   12.4560   12.3234 O   0  0  0  0  0  0  0  0  0  0  0  0
   47.5851   14.3149    7.7547 O   0  0  0  0  0  0  0  0  0  0  0  0
   50.2681   11.8113    9.2285 O   0  0  0  0  0  0  0  0  0  0  0  0
   47.7428   15.0714   15.7406 N   0  0  0  0  0  0  0  0  0  0  0  0
   48.7218   12.5188    6.7189 C   0  0  0  0  0  0  0  0  0  0  0  0
   45.9369   12.0646    5.8995 C   0  0  0  0  0  0  0  0  0  0  0  0
   42.7733   12.0903    8.5823 O   0  0  0  0  0  0  0  0  0  0  0  0
   44.6466   11.6982    5.5033 C   0  0  0  0  0  0  0  0  0  0  0  0
   43.6008   11.7024    6.4205 C   0  0  0  0  0  0  0  0  0  0  0  0
   51.7429   14.7738   12.2089 C   0  0  0  0  0  0  0  0  0  0  0  0
   50.5825   16.2874   10.7551 C   0  0  0  0  0  0  0  0  0  0  0  0
   47.9562   13.2501   10.3490 Ca  0  0  0  0  0 15  0  0  0  0  0  0
   49.7599   11.6549   11.0440 H   0  0  0  0  0  0  0  0  0  0  0  0
   48.1267   11.4848    8.7157 H   0  0  0  0  0  0  0  0  0  0  0  0
   51.3557   13.5233   10.9476 H   0  0  0  0  0  0  0  0  0  0  0  0
   48.8627   14.2593    9.7170 H   0  0  0  0  0  0  0  0  0  0  0  0
   47.7384   11.8940   13.7829 H   0  0  0  0  0  0  0  0  0  0  0  0
   45.9385   12.8716   13.0748 H   0  0  0  0  0  0  0  0  0  0  0  0
   46.3760   14.7700    8.8395 H   0  0  0  0  0  0  0  0  0  0  0  0
   50.7698   13.7068    9.0048 H   0  0  0  0  0  0  0  0  0  0  0  0
   48.7841   18.5648   12.3348 H   0  0  0  0  0  0  0  0  0  0  0  0
   50.0732   17.3961   12.1761 H   0  0  0  0  0  0  0  0  0  0  0  0
   48.3425   12.1557    6.3399 H   0  0  0  0  0  0  0  0  0  0  0  0
   47.8568   13.7719    5.8026 H   0  0  0  0  0  0  0  0  0  0  0  0
   49.1662   13.6304    6.9009 H   0  0  0  0  0  0  0  0  0  0  0  0
   45.7854   14.0046    5.6076 H   0  0  0  0  0  0  0  0  0  0  0  0
   43.3930   10.5599    9.3846 H   0  0  0  0  0  0  0  0  0  0  0  0
   43.5602   13.2885    4.8889 H   0  0  0  0  0  0  0  0  0  0  0  0
   42.2211   11.7500    6.3064 H   0  0  0  0  0  0  0  0  0  0  0  0
   51.6603   13.0741   14.9742 H   0  0  0  0  0  0  0  0  0  0  0  0
   49.9813   12.8294   14.5143 H   0  0  0  0  0  0  0  0  0  0  0  0
   50.7472   14.4306   14.3830 H   0  0  0  0  0  0  0  0  0  0  0  0
   52.2032   11.4510   11.7927 H   0  0  0  0  0  0  0  0  0  0  0  0
   50.9291   10.9487   12.9253 H   0  0  0  0  0  0  0  0  0  0  0  0
   52.5342   11.4001   13.5117 H   0  0  0  0  0  0  0  0  0  0  0  0
   50.3500   12.4173   11.5460 H   0  0  0  0  0  0  0  0  0  0  0  0
   47.9313   11.1968    8.9985 H   0  0  0  0  0  0  0  0  0  0  0  0
   48.5734   14.8205   11.0482 H   0  0  0  0  0  0  0  0  0  0  0  0
   49.5426   13.7001    9.2325 H   0  0  0  0  0  0  0  0  0  0  0  0
   48.2327   10.2007   12.5061 H   0  0  0  0  0  0  0  0  0  0  0  0
   46.1431   12.7900   13.1927 H   0  0  0  0  0  0  0  0  0  0  0  0
   46.7983   14.6196    8.2393 H   0  0  0  0  0  0  0  0  0  0  0  0
   51.1245   12.1617    9.5389 H   0  0  0  0  0  0  0  0  0  0  0  0
   47.9656   15.7789   15.0219 H   0  0  0  0  0  0  0  0  0  0  0  0
   47.8040   15.3606   16.7031 H   0  0  0  0  0  0  0  0  0  0  0  0
   48.8068   11.4367    6.5735 H   0  0  0  0  0  0  0  0  0  0  0  0
   48.5652   12.9944    5.7437 H   0  0  0  0  0  0  0  0  0  0  0  0
   49.6955   12.9036    7.0431 H   0  0  0  0  0  0  0  0  0  0  0  0
   46.7120   12.0683    5.1368 H   0  0  0  0  0  0  0  0  0  0  0  0
   43.0574   12.5441    9.4107 H   0  0  0  0  0  0  0  0  0  0  0  0
   44.4555   11.4213    4.4699 H   0  0  0  0  0  0  0  0  0  0  0  0
   42.5951   11.4332    6.1133 H   0  0  0  0  0  0  0  0  0  0  0  0
   52.7095   15.0161   11.7516 H   0  0  0  0  0  0  0  0  0  0  0  0
   51.6173   15.4368   13.0705 H   0  0  0  0  0  0  0  0  0  0  0  0
   51.8344   13.7442   12.5745 H   0  0  0  0  0  0  0  0  0  0  0  0
   49.8086   16.3926    9.9888 H   0  0  0  0  0  0  0  0  0  0  0  0
   50.3837   17.0057   11.5545 H   0  0  0  0  0  0  0  0  0  0  0  0
   51.5235   16.5859   10.2784 H   0  0  0  0  0  0  0  0  0  0  0  0
  2  5  2  0
  3  1  1  0
  4  7  1  0
  5  1  1  0
  6  2  1  0
  7  1  1  0
  8  4  2  0
  9  2  1  0
 10  6  1  0
  3 11  1  0
 12  3  1  0
 13  9  1  0
 14 13  2  0
 15  4  1  0
 16  8  1  0
 11 17  1  0
 18  7  2  0
 19  9  2  0
 20 13  1  0
  1 21  1  6
 22 15  2  0
 23  5  1  0
 10 24  1  1
 12 25  1  0
 26 15  1  0
 10 27  1  0
 28 14  1  0
 29 20  1  0
 30 31  1  0
 31 20  2  0
 32 17  1  0
 33 17  1  0
 12  6  1  0
 11  8  1  0
 10 14  1  0
 30 28  2  0
 35 38  2  0
 36 34  1  0
 37 40  1  0
 38 34  1  0
 39 35  1  0
 40 34  1  0
 41 37  2  0
 42 35  1  0
 43 39  1  0
 36 44  1  0
 45 36  1  0
 46 42  1  0
 47 46  2  0
 48 37  1  0
 49 41  1  0
 44 50  1  0
 51 40  2  0
 52 42  2  0
 53 46  1  0
 34 54  1  6
 55 48  2  0
 56 38  1  0
 43 57  1  1
 45 58  1  0
 59 48  1  0
 43 60  1  0
 61 47  1  0
 62 53  1  0
 63 64  1  0
 64 53  2  0
 65 50  1  0
 66 50  1  0
 45 39  1  0
 44 41  1  0
 43 47  1  0
 63 61  2  0
  3 68  1  6
  6 69  1  6
 11 70  1  1
 12 71  1  1
 21 72  1  0
 23 73  1  0
 24 74  1  0
 25 75  1  0
 26 76  1  0
 26 77  1  0
 27 78  1  0
 27 79  1  0
 27 80  1  0
 28 81  1  0
 29 82  1  0
 30 83  1  0
 31 84  1  0
 32 85  1  0
 32 86  1  0
 32 87  1  0
 33 88  1  0
 33 89  1  0
 33 90  1  0
 36 91  1  6
 39 92  1  6
 44 93  1  1
 45 94  1  1
 54 95  1  0
 56 96  1  0
 57 97  1  0
 58 98  1  0
 59 99  1  0
 59100  1  0
 60101  1  0
 60102  1  0
 60103  1  0
 61104  1  0
 62105  1  0
 63106  1  0
 64107  1  0
 65108  1  0
 65109  1  0
 65110  1  0
 66111  1  0
 66112  1  0
 66113  1  0
M  CHG  3  16  -1  49  -1  67   2
M  END
> <Uni-Dock RESULT> 
ENERGY=   -4.894  LOWER_BOUND=    6.955  UPPER_BOUND=   10.222
INTER + INTRA:          -4.894
INTER:                  -4.894
INTRA:                   0.000
UNBOUND:                 0.000

$$$$

     RDKit          3D

113118  0  0  0  0  0  0  0  0999 V2000
   49.5461   13.5786   14.3276 C   0  0  2  0  0  0  0  0  0  0  0  0
   49.0058   12.8090   16.6695 C   0  0  0  0  0  0  0  0  0  0  0  0
   50.4104   12.3330   14.1637 C   0  0  2  0  0  0  0  0  0  0  0  0
   48.1210   12.5462   12.4091 C   0  0  0  0  0  0  0  0  0  0  0  0
   48.9103   13.7361   15.7027 C   0  0  0  0  0  0  0  0  0  0  0  0
   49.5527   11.4225   16.4677 C   0  0  1  0  0  0  0  0  0  0  0  0
   48.4325   13.7110   13.2791 C   0  0  0  0  0  0  0  0  0  0  0  0
   49.1273   11.6877   12.0773 C   0  0  0  0  0  0  0  0  0  0  0  0
   48.6332   13.1641   18.0640 C   0  0  0  0  0  0  0  0  0  0  0  0
   48.5905   10.3449   17.1144 C   0  0  1  0  0  0  0  0  0  0  0  0
   50.5514   11.9715   12.6452 C   0  0  1  0  0  0  0  0  0  0  0  0
   49.8360   11.1265   14.9647 C   0  0  2  0  0  0  0  0  0  0  0  0
   48.0525   12.1013   18.9088 C   0  0  0  0  0  0  0  0  0  0  0  0
   47.9951   10.7741   18.4578 C   0  0  0  0  0  0  0  0  0  0  0  0
   46.6982   12.3420   11.9859 C   0  0  0  0  0  0  0  0  0  0  0  0
   49.0907   10.6001   11.4269 O   0  0  0  0  0  0  0  0  0  0  0  0
   51.4147   12.7989   11.7649 N   0  0  0  0  0  0  0  0  0  0  0  0
   47.8256   14.7896   13.1963 O   0  0  0  0  0  0  0  0  0  0  0  0
   48.8092   14.2794   18.5523 O   0  0  0  0  0  0  0  0  0  0  0  0
   47.4944   12.4516   20.1561 C   0  0  0  0  0  0  0  0  0  0  0  0
   50.4090   14.7320   14.2113 O   0  0  0  0  0  0  0  0  0  0  0  0
   45.7439   12.8056   12.6061 O   0  0  0  0  0  0  0  0  0  0  0  0
   48.2416   14.9373   15.9324 O   0  0  0  0  0  0  0  0  0  0  0  0
   47.4614   10.0996   16.2649 O   0  0  0  0  0  0  0  0  0  0  0  0
   50.7943   10.0582   14.8930 O   0  0  0  0  0  0  0  0  0  0  0  0
   46.5145   11.5709   10.8784 N   0  0  0  0  0  0  0  0  0  0  0  0
   49.3338    8.9992   17.2553 C   0  0  0  0  0  0  0  0  0  0  0  0
   47.2934    9.8440   19.2584 C   0  0  0  0  0  0  0  0  0  0  0  0
   47.5233   13.7257   20.6643 O   0  0  0  0  0  0  0  0  0  0  0  0
   46.7383   10.2003   20.4900 C   0  0  0  0  0  0  0  0  0  0  0  0
   46.8503   11.5066   20.9449 C   0  0  0  0  0  0  0  0  0  0  0  0
   50.8368   13.9499   11.0982 C   0  0  0  0  0  0  0  0  0  0  0  0
   52.7213   13.0913   12.3330 C   0  0  0  0  0  0  0  0  0  0  0  0
   50.1157   13.7075   14.7017 C   0  0  2  0  0  0  0  0  0  0  0  0
   48.7757   12.6773   16.4991 C   0  0  0  0  0  0  0  0  0  0  0  0
   50.2684   12.3505   14.0344 C   0  0  2  0  0  0  0  0  0  0  0  0
   49.1284   14.6055   12.4923 C   0  0  0  0  0  0  0  0  0  0  0  0
   48.9570   13.7312   15.6768 C   0  0  0  0  0  0  0  0  0  0  0  0
   49.7382   11.4994   16.4863 C   0  0  1  0  0  0  0  0  0  0  0  0
   50.0946   14.7834   13.6117 C   0  0  0  0  0  0  0  0  0  0  0  0
   48.5933   13.3733   12.2494 C   0  0  0  0  0  0  0  0  0  0  0  0
   47.6847   12.6883   17.5120 C   0  0  0  0  0  0  0  0  0  0  0  0
   49.1416   10.2223   17.1803 C   0  0  1  0  0  0  0  0  0  0  0  0
   49.1232   12.1027   13.0030 C   0  0  1  0  0  0  0  0  0  0  0  0
   50.3114   11.1878   15.0692 C   0  0  2  0  0  0  0  0  0  0  0  0
   47.8440   11.7976   18.6760 C   0  0  0  0  0  0  0  0  0  0  0  0
   48.5706   10.5996   18.5473 C   0  0  0  0  0  0  0  0  0  0  0  0
   48.6907   15.8324   11.7289 C   0  0  0  0  0  0  0  0  0  0  0  0
   47.6241   13.0814   11.4842 O   0  0  0  0  0  0  0  0  0  0  0  0
   49.6192   10.9552   12.1722 N   0  0  0  0  0  0  0  0  0  0  0  0
   50.7874   15.7969   13.7504 O   0  0  0  0  0  0  0  0  0  0  0  0
   46.6531   13.3445   17.4341 O   0  0  0  0  0  0  0  0  0  0  0  0
   47.2351   12.1453   19.8931 C   0  0  0  0  0  0  0  0  0  0  0  0
   51.2974   13.9686   15.4972 O   0  0  0  0  0  0  0  0  0  0  0  0
   49.3898   16.8254   11.5562 O   0  0  0  0  0  0  0  0  0  0  0  0
   48.1824   14.8734   15.7841 O   0  0  0  0  0  0  0  0  0  0  0  0
   48.0652    9.6853   16.3955 O   0  0  0  0  0  0  0  0  0  0  0  0
   51.6843   10.7684   15.2261 O   0  0  0  0  0  0  0  0  0  0  0  0
   47.4158   15.8017   11.2439 N   0  0  0  0  0  0  0  0  0  0  0  0
   50.1851    9.0926   17.2592 C   0  0  0  0  0  0  0  0  0  0  0  0
   48.6798    9.7799   19.6871 C   0  0  0  0  0  0  0  0  0  0  0  0
   46.4801   13.2778   20.0518 O   0  0  0  0  0  0  0  0  0  0  0  0
   48.0987   10.1480   20.9049 C   0  0  0  0  0  0  0  0  0  0  0  0
   47.3740   11.3306   21.0101 C   0  0  0  0  0  0  0  0  0  0  0  0
   50.3974   11.3728   11.0056 C   0  0  0  0  0  0  0  0  0  0  0  0
   48.5318   10.0669   11.7571 C   0  0  0  0  0  0  0  0  0  0  0  0
   49.0420   12.0678   15.2245 Ca  0  0  0  0  0 15  0  0  0  0  0  0
   51.4168   12.5201   14.5638 H   0  0  0  0  0  0  0  0  0  0  0  0
   50.5072   11.3830   17.0126 H   0  0  0  0  0  0  0  0  0  0  0  0
   51.0981   11.0162   12.6446 H   0  0  0  0  0  0  0  0  0  0  0  0
   48.9137   10.7656   14.4983 H   0  0  0  0  0  0  0  0  0  0  0  0
   49.8211   15.4977   14.0812 H   0  0  0  0  0  0  0  0  0  0  0  0
   47.9080   15.2829   15.0766 H   0  0  0  0  0  0  0  0  0  0  0  0
   46.8922   10.8904   16.2627 H   0  0  0  0  0  0  0  0  0  0  0  0
   50.6168    9.6095   14.0377 H   0  0  0  0  0  0  0  0  0  0  0  0
   45.5986   11.1846   10.7259 H   0  0  0  0  0  0  0  0  0  0  0  0
   47.3330   10.9870   10.6507 H   0  0  0  0  0  0  0  0  0  0  0  0
   50.2103    9.0908   17.9063 H   0  0  0  0  0  0  0  0  0  0  0  0
   48.6975    8.2046   17.6553 H   0  0  0  0  0  0  0  0  0  0  0  0
   49.6519    8.6044   16.2878 H   0  0  0  0  0  0  0  0  0  0  0  0
   47.1440    8.8219   18.9156 H   0  0  0  0  0  0  0  0  0  0  0  0
   48.0124   14.2882   20.0203 H   0  0  0  0  0  0  0  0  0  0  0  0
   46.2053    9.4619   21.0812 H   0  0  0  0  0  0  0  0  0  0  0  0
   46.4187   11.7981   21.8976 H   0  0  0  0  0  0  0  0  0  0  0  0
   51.5384   14.3417   10.3520 H   0  0  0  0  0  0  0  0  0  0  0  0
   50.6084   14.7719   11.7804 H   0  0  0  0  0  0  0  0  0  0  0  0
   49.9340   13.6962   10.5331 H   0  0  0  0  0  0  0  0  0  0  0  0
   53.1844   12.1849   12.7375 H   0  0  0  0  0  0  0  0  0  0  0  0
   52.6781   13.8433   13.1273 H   0  0  0  0  0  0  0  0  0  0  0  0
   53.4020   13.4633   11.5604 H   0  0  0  0  0  0  0  0  0  0  0  0
   51.2329   12.3720   13.5029 H   0  0  0  0  0  0  0  0  0  0  0  0
   50.5837   11.8113   17.1213 H   0  0  0  0  0  0  0  0  0  0  0  0
   48.2710   11.7418   13.6012 H   0  0  0  0  0  0  0  0  0  0  0  0
   49.7955   10.3126   14.6616 H   0  0  0  0  0  0  0  0  0  0  0  0
   51.4407   14.9374   15.4246 H   0  0  0  0  0  0  0  0  0  0  0  0
   48.1026   15.3257   14.9259 H   0  0  0  0  0  0  0  0  0  0  0  0
   47.3009   10.2862   16.4333 H   0  0  0  0  0  0  0  0  0  0  0  0
   51.9893   10.5194   14.3331 H   0  0  0  0  0  0  0  0  0  0  0  0
   47.0564   14.8381   11.1485 H   0  0  0  0  0  0  0  0  0  0  0  0
   47.2185   16.4411   10.4915 H   0  0  0  0  0  0  0  0  0  0  0  0
   51.0495    9.3764   17.8688 H   0  0  0  0  0  0  0  0  0  0  0  0
   49.7505    8.1737   17.6697 H   0  0  0  0  0  0  0  0  0  0  0  0
   50.5426    8.7916   16.2677 H   0  0  0  0  0  0  0  0  0  0  0  0
   49.2139    8.8332   19.6539 H   0  0  0  0  0  0  0  0  0  0  0  0
   46.3130   13.6480   19.1530 H   0  0  0  0  0  0  0  0  0  0  0  0
   48.2016    9.5006   21.7717 H   0  0  0  0  0  0  0  0  0  0  0  0
   46.9089   11.6123   21.9496 H   0  0  0  0  0  0  0  0  0  0  0  0
   50.8749   10.4974   10.5497 H   0  0  0  0  0  0  0  0  0  0  0  0
   49.8000   11.8575   10.2272 H   0  0  0  0  0  0  0  0  0  0  0  0
   51.2148   12.0477   11.2855 H   0  0  0  0  0  0  0  0  0  0  0  0
   47.9545    9.7266   12.6221 H   0  0  0  0  0  0  0  0  0  0  0  0
   47.8457   10.5094   11.0304 H   0  0  0  0  0  0  0  0  0  0  0  0
   48.9509    9.1636   11.2983 H   0  0  0  0  0  0  0  0  0  0  0  0
  2  5  2  0
  3  1  1  0
  4  7  1  0
  5  1  1  0
  6  2  1  0
  7  1  1  0
  8  4  2  0
  9  2  1  0
 10  6  1  0
  3 11  1  0
 12  3  1  0
 13  9  1  0
 14 13  2  0
 15  4  1  0
 16  8  1  0
 11 17  1  0
 18  7  2  0
 19  9  2  0
 20 13  1  0
  1 21  1  6
 22 15  2  0
 23  5  1  0
 10 24  1  1
 12 25  1  0
 26 15  1  0
 10 27  1  0
 28 14  1  0
 29 20  1  0
 30 31  1  0
 31 20  2  0
 32 17  1  0
 33 17  1  0
 12  6  1  0
 11  8  1  0
 10 14  1  0
 30 28  2  0
 35 38  2  0
 36 34  1  0
 37 40  1  0
 38 34  1  0
 39 35  1  0
 40 34  1  0
 41 37  2  0
 42 35  1  0
 43 39  1  0
 36 44  1  0
 45 36  1  0
 46 42  1  0
 47 46  2  0
 48 37  1  0
 49 41  1  0
 44 50  1  0
 51 40  2  0
 52 42  2  0
 53 46  1  0
 34 54  1  6
 55 48  2  0
 56 38  1  0
 43 57  1  1
 45 58  1  0
 59 48  1  0
 43 60  1  0
 61 47  1  0
 62 53  1  0
 63 64  1  0
 64 53  2  0
 65 50  1  0
 66 50  1  0
 45 39  1  0
 44 41  1  0
 43 47  1  0
 63 61  2  0
  3 68  1  6
  6 69  1  6
 11 70  1  1
 12 71  1  1
 21 72  1  0
 23 73  1  0
 24 74  1  0
 25 75  1  0
 26 76  1  0
 26 77  1  0
 27 78  1  0
 27 79  1  0
 27 80  1  0
 28 81  1  0
 29 82  1  0
 30 83  1  0
 31 84  1  0
 32 85  1  0
 32 86  1  0
 32 87  1  0
 33 88  1  0
 33 89  1  0
 33 90  1  0
 36 91  1  6
 39 92  1  6
 44 93  1  1
 45 94  1  1
 54 95  1  0
 56 96  1  0
 57 97  1  0
 58 98  1  0
 59 99  1  0
 59100  1  0
 60101  1  0
 60102  1  0
 60103  1  0
 61104  1  0
 62105  1  0
 63106  1  0
 64107  1  0
 65108  1  0
 65109  1  0
 65110  1  0
 66111  1  0
 66112  1  0
 66113  1  0
M  CHG  3  16  -1  49  -1  67   2
M  END
> <Uni-Dock RESULT> 
ENERGY=   -4.875  LOWER_BOUND=    3.959  UPPER_BOUND=    7.844
INTER + INTRA:          -4.875
INTER:                  -4.875
INTRA:                   0.000
UNBOUND:                 0.000

$$$$

     RDKit          3D

113118  0  0  0  0  0  0  0  0999 V2000
   49.6803   12.9264   11.6971 C   0  0  2  0  0  0  0  0  0  0  0  0
   47.4590   12.0564   10.8738 C   0  0  0  0  0  0  0  0  0  0  0  0
   50.1325   13.0229   10.2440 C   0  0  2  0  0  0  0  0  0  0  0  0
   49.9815   15.5123   11.7088 C   0  0  0  0  0  0  0  0  0  0  0  0
   48.2816   12.3557   11.8921 C   0  0  0  0  0  0  0  0  0  0  0  0
   47.7073   12.4359    9.4397 C   0  0  1  0  0  0  0  0  0  0  0  0
   49.7560   14.2528   12.4664 C   0  0  0  0  0  0  0  0  0  0  0  0
   50.7211   15.4656   10.5641 C   0  0  0  0  0  0  0  0  0  0  0  0
   46.2533   11.2246   11.1265 C   0  0  0  0  0  0  0  0  0  0  0  0
   46.4069   13.0709    8.7987 C   0  0  1  0  0  0  0  0  0  0  0  0
   51.2784   14.0833   10.1060 C   0  0  1  0  0  0  0  0  0  0  0  0
   48.9461   13.3694    9.2955 C   0  0  2  0  0  0  0  0  0  0  0  0
   45.0569   11.4853   10.3011 C   0  0  0  0  0  0  0  0  0  0  0  0
   45.1080   12.3805    9.2221 C   0  0  0  0  0  0  0  0  0  0  0  0
   49.3329   16.7651   12.2138 C   0  0  0  0  0  0  0  0  0  0  0  0
   50.9770   16.3766    9.7205 O   0  0  0  0  0  0  0  0  0  0  0  0
   52.6409   13.7694   10.6057 N   0  0  0  0  0  0  0  0  0  0  0  0
   49.6221   14.2281   13.6993 O   0  0  0  0  0  0  0  0  0  0  0  0
   46.2126   10.3209   11.9603 O   0  0  0  0  0  0  0  0  0  0  0  0
   43.8386   10.8679   10.6539 C   0  0  0  0  0  0  0  0  0  0  0  0
   50.5386   11.9736   12.3633 O   0  0  0  0  0  0  0  0  0  0  0  0
   48.3413   16.7580   12.9396 O   0  0  0  0  0  0  0  0  0  0  0  0
   47.8995   12.1127   13.2104 O   0  0  0  0  0  0  0  0  0  0  0  0
   46.2561   14.4372    9.2080 O   0  0  0  0  0  0  0  0  0  0  0  0
   49.4240   13.2715    7.9439 O   0  0  0  0  0  0  0  0  0  0  0  0
   49.8892   17.9330   11.7879 N   0  0  0  0  0  0  0  0  0  0  0  0
   46.5372   13.0858    7.2605 C   0  0  0  0  0  0  0  0  0  0  0  0
   43.8902   12.6892    8.5740 C   0  0  0  0  0  0  0  0  0  0  0  0
   43.7170    9.9757   11.6890 O   0  0  0  0  0  0  0  0  0  0  0  0
   42.6865   12.0778    8.9333 C   0  0  0  0  0  0  0  0  0  0  0  0
   42.6641   11.1548    9.9694 C   0  0  0  0  0  0  0  0  0  0  0  0
   52.9702   14.0783   11.9839 C   0  0  0  0  0  0  0  0  0  0  0  0
   53.1233   12.4567   10.2062 C   0  0  0  0  0  0  0  0  0  0  0  0
   49.7975   12.2707   11.5039 C   0  0  2  0  0  0  0  0  0  0  0  0
   47.4112   12.3677   10.8844 C   0  0  0  0  0  0  0  0  0  0  0  0
   50.1390   13.1889   10.3419 C   0  0  2  0  0  0  0  0  0  0  0  0
   50.9533   13.9536   13.0832 C   0  0  0  0  0  0  0  0  0  0  0  0
   48.3301   12.3456   11.8716 C   0  0  0  0  0  0  0  0  0  0  0  0
   47.8281   12.2751    9.4243 C   0  0  1  0  0  0  0  0  0  0  0  0
   50.7867   12.5410   12.6416 C   0  0  0  0  0  0  0  0  0  0  0  0
   50.5583   14.9704   12.2625 C   0  0  0  0  0  0  0  0  0  0  0  0
   45.9576   12.3810   11.2054 C   0  0  0  0  0  0  0  0  0  0  0  0
   46.6933   12.7356    8.4401 C   0  0  1  0  0  0  0  0  0  0  0  0
   50.1117   14.6854   10.7851 C   0  0  1  0  0  0  0  0  0  0  0  0
   49.1887   12.9779    9.1266 C   0  0  2  0  0  0  0  0  0  0  0  0
   45.0375   11.8971   10.1599 C   0  0  0  0  0  0  0  0  0  0  0  0
   45.3832   12.0364    8.8031 C   0  0  0  0  0  0  0  0  0  0  0  0
   51.4590   14.2062   14.4833 C   0  0  0  0  0  0  0  0  0  0  0  0
   50.4404   16.2013   12.5475 O   0  0  0  0  0  0  0  0  0  0  0  0
   50.8353   15.4073    9.6860 N   0  0  0  0  0  0  0  0  0  0  0  0
   51.3207   11.5869   13.2168 O   0  0  0  0  0  0  0  0  0  0  0  0
   45.4666   12.7978   12.2475 O   0  0  0  0  0  0  0  0  0  0  0  0
   43.8080   11.3323   10.5372 C   0  0  0  0  0  0  0  0  0  0  0  0
   50.0252   10.9004   11.0944 O   0  0  0  0  0  0  0  0  0  0  0  0
   52.2231   13.4608   15.0875 O   0  0  0  0  0  0  0  0  0  0  0  0
   47.9588   12.2741   13.2033 O   0  0  0  0  0  0  0  0  0  0  0  0
   46.4752   14.1503    8.5576 O   0  0  0  0  0  0  0  0  0  0  0  0
   49.8865   12.1956    8.1334 O   0  0  0  0  0  0  0  0  0  0  0  0
   50.9840   15.3334   15.0877 N   0  0  0  0  0  0  0  0  0  0  0  0
   47.1040   12.5119    6.9730 C   0  0  0  0  0  0  0  0  0  0  0  0
   44.4616   11.5695    7.8463 C   0  0  0  0  0  0  0  0  0  0  0  0
   43.4097   11.2189   11.8435 O   0  0  0  0  0  0  0  0  0  0  0  0
   43.2533   10.9782    8.2294 C   0  0  0  0  0  0  0  0  0  0  0  0
   42.9234   10.8597    9.5756 C   0  0  0  0  0  0  0  0  0  0  0  0
   52.2785   15.5081    9.9053 C   0  0  0  0  0  0  0  0  0  0  0  0
   50.2723   16.7359    9.4376 C   0  0  0  0  0  0  0  0  0  0  0  0
   48.4126   13.2954   10.4330 Ca  0  0  0  0  0 15  0  0  0  0  0  0
   50.5247   12.0525    9.9085 H   0  0  0  0  0  0  0  0  0  0  0  0
   47.9171   11.4993    8.9027 H   0  0  0  0  0  0  0  0  0  0  0  0
   51.4575   14.1480    9.0220 H   0  0  0  0  0  0  0  0  0  0  0  0
   48.6254   14.4044    9.4511 H   0  0  0  0  0  0  0  0  0  0  0  0
   50.3943   12.1009   13.3182 H   0  0  0  0  0  0  0  0  0  0  0  0
   48.3785   12.7350   13.7989 H   0  0  0  0  0  0  0  0  0  0  0  0
   46.0342   14.4583   10.1565 H   0  0  0  0  0  0  0  0  0  0  0  0
   49.8575   14.1333    7.7606 H   0  0  0  0  0  0  0  0  0  0  0  0
   49.3362   18.7692   11.8677 H   0  0  0  0  0  0  0  0  0  0  0  0
   50.4808   17.8189   10.9513 H   0  0  0  0  0  0  0  0  0  0  0  0
   46.6423   12.0729    6.8565 H   0  0  0  0  0  0  0  0  0  0  0  0
   45.6826   13.5588    6.7684 H   0  0  0  0  0  0  0  0  0  0  0  0
   47.3851   13.6888    6.9276 H   0  0  0  0  0  0  0  0  0  0  0  0
   43.8579   13.4414    7.7880 H   0  0  0  0  0  0  0  0  0  0  0  0
   44.6134    9.8531   12.0786 H   0  0  0  0  0  0  0  0  0  0  0  0
   41.7681   12.3370    8.4154 H   0  0  0  0  0  0  0  0  0  0  0  0
   41.7345   10.6765   10.2624 H   0  0  0  0  0  0  0  0  0  0  0  0
   54.0485   13.9626   12.1462 H   0  0  0  0  0  0  0  0  0  0  0  0
   52.4699   13.4249   12.7022 H   0  0  0  0  0  0  0  0  0  0  0  0
   52.7548   15.1203   12.2418 H   0  0  0  0  0  0  0  0  0  0  0  0
   52.9581   12.2873    9.1368 H   0  0  0  0  0  0  0  0  0  0  0  0
   52.6475   11.6438   10.7640 H   0  0  0  0  0  0  0  0  0  0  0  0
   54.2040   12.3797   10.3643 H   0  0  0  0  0  0  0  0  0  0  0  0
   51.1613   12.9255   10.0274 H   0  0  0  0  0  0  0  0  0  0  0  0
   47.9655   11.1984    9.2316 H   0  0  0  0  0  0  0  0  0  0  0  0
   49.0506   14.9791   10.7394 H   0  0  0  0  0  0  0  0  0  0  0  0
   48.9935   13.9390    8.6403 H   0  0  0  0  0  0  0  0  0  0  0  0
   50.3503   10.4468   11.9025 H   0  0  0  0  0  0  0  0  0  0  0  0
   48.6239   12.6941   13.7766 H   0  0  0  0  0  0  0  0  0  0  0  0
   46.0620   14.3478    9.4161 H   0  0  0  0  0  0  0  0  0  0  0  0
   50.6978   12.6960    7.9235 H   0  0  0  0  0  0  0  0  0  0  0  0
   50.6436   16.0297   14.4050 H   0  0  0  0  0  0  0  0  0  0  0  0
   51.5293   15.6781   15.8608 H   0  0  0  0  0  0  0  0  0  0  0  0
   47.2672   11.4519    6.7512 H   0  0  0  0  0  0  0  0  0  0  0  0
   46.3496   12.9048    6.2813 H   0  0  0  0  0  0  0  0  0  0  0  0
   48.0123   13.0660    6.7100 H   0  0  0  0  0  0  0  0  0  0  0  0
   44.6581   11.6597    6.7805 H   0  0  0  0  0  0  0  0  0  0  0  0
   44.0329   11.7550   12.3884 H   0  0  0  0  0  0  0  0  0  0  0  0
   42.5609   10.6210    7.4718 H   0  0  0  0  0  0  0  0  0  0  0  0
   41.9800   10.4151    9.8764 H   0  0  0  0  0  0  0  0  0  0  0  0
   52.7634   15.8804    8.9952 H   0  0  0  0  0  0  0  0  0  0  0  0
   52.5547   16.1855   10.7194 H   0  0  0  0  0  0  0  0  0  0  0  0
   52.7266   14.5274   10.1036 H   0  0  0  0  0  0  0  0  0  0  0  0
   49.1964   16.6743    9.2479 H   0  0  0  0  0  0  0  0  0  0  0  0
   50.4452   17.4527   10.2444 H   0  0  0  0  0  0  0  0  0  0  0  0
   50.7165   17.1584    8.5286 H   0  0  0  0  0  0  0  0  0  0  0  0
  2  5  2  0
  3  1  1  0
  4  7  1  0
  5  1  1  0
  6  2  1  0
  7  1  1  0
  8  4  2  0
  9  2  1  0
 10  6  1  0
  3 11  1  0
 12  3  1  0
 13  9  1  0
 14 13  2  0
 15  4  1  0
 16  8  1  0
 11 17  1  0
 18  7  2  0
 19  9  2  0
 20 13  1  0
  1 21  1  6
 22 15  2  0
 23  5  1  0
 10 24  1  1
 12 25  1  0
 26 15  1  0
 10 27  1  0
 28 14  1  0
 29 20  1  0
 30 31  1  0
 31 20  2  0
 32 17  1  0
 33 17  1  0
 12  6  1  0
 11  8  1  0
 10 14  1  0
 30 28  2  0
 35 38  2  0
 36 34  1  0
 37 40  1  0
 38 34  1  0
 39 35  1  0
 40 34  1  0
 41 37  2  0
 42 35  1  0
 43 39  1  0
 36 44  1  0
 45 36  1  0
 46 42  1  0
 47 46  2  0
 48 37  1  0
 49 41  1  0
 44 50  1  0
 51 40  2  0
 52 42  2  0
 53 46  1  0
 34 54  1  6
 55 48  2  0
 56 38  1  0
 43 57  1  1
 45 58  1  0
 59 48  1  0
 43 60  1  0
 61 47  1  0
 62 53  1  0
 63 64  1  0
 64 53  2  0
 65 50  1  0
 66 50  1  0
 45 39  1  0
 44 41  1  0
 43 47  1  0
 63 61  2  0
  3 68  1  6
  6 69  1  6
 11 70  1  1
 12 71  1  1
 21 72  1  0
 23 73  1  0
 24 74  1  0
 25 75  1  0
 26 76  1  0
 26 77  1  0
 27 78  1  0
 27 79  1  0
 27 80  1  0
 28 81  1  0
 29 82  1  0
 30 83  1  0
 31 84  1  0
 32 85  1  0
 32 86  1  0
 32 87  1  0
 33 88  1  0
 33 89  1  0
 33 90  1  0
 36 91  1  6
 39 92  1  6
 44 93  1  1
 45 94  1  1
 54 95  1  0
 56 96  1  0
 57 97  1  0
 58 98  1  0
 59 99  1  0
 59100  1  0
 60101  1  0
 60102  1  0
 60103  1  0
 61104  1  0
 62105  1  0
 63106  1  0
 64107  1  0
 65108  1  0
 65109  1  0
 65110  1  0
 66111  1  0
 66112  1  0
 66113  1  0
M  CHG  3  16  -1  49  -1  67   2
M  END
> <Uni-Dock RESULT> 
ENERGY=   -4.668  LOWER_BOUND=    7.602  UPPER_BOUND=   10.169
INTER + INTRA:          -4.668
INTER:                  -4.668
INTRA:                   0.000
UNBOUND:                 0.000

$$$$

     RDKit          3D

113118  0  0  0  0  0  0  0  0999 V2000
   51.6223    9.6659   12.5798 C   0  0  2  0  0  0  0  0  0  0  0  0
   49.1706    9.7560   11.9880 C   0  0  0  0  0  0  0  0  0  0  0  0
   51.8771   10.7132   11.5010 C   0  0  2  0  0  0  0  0  0  0  0  0
   52.4885   11.4945   14.2179 C   0  0  0  0  0  0  0  0  0  0  0  0
   50.1731    9.2116   12.6965 C   0  0  0  0  0  0  0  0  0  0  0  0
   49.2942   11.0064   11.1613 C   0  0  1  0  0  0  0  0  0  0  0  0
   52.0972   10.0799   13.9798 C   0  0  0  0  0  0  0  0  0  0  0  0
   53.0320   12.2066   13.1898 C   0  0  0  0  0  0  0  0  0  0  0  0
   47.8578    9.0618   11.9243 C   0  0  0  0  0  0  0  0  0  0  0  0
   48.0907   11.9908   11.4576 C   0  0  1  0  0  0  0  0  0  0  0  0
   53.1990   11.4958   11.8121 C   0  0  1  0  0  0  0  0  0  0  0  0
   50.6766   11.6963   11.3605 C   0  0  2  0  0  0  0  0  0  0  0  0
   46.6459    9.8986   11.8167 C   0  0  0  0  0  0  0  0  0  0  0  0
   46.7431   11.2858   11.6315 C   0  0  0  0  0  0  0  0  0  0  0  0
   52.2112   12.0858   15.5665 C   0  0  0  0  0  0  0  0  0  0  0  0
   53.3633   13.4288   13.1294 O   0  0  0  0  0  0  0  0  0  0  0  0
   54.5139   10.8359   11.6120 N   0  0  0  0  0  0  0  0  0  0  0  0
   52.1347    9.2162   14.8692 O   0  0  0  0  0  0  0  0  0  0  0  0
   47.7344    7.8378   11.9278 O   0  0  0  0  0  0  0  0  0  0  0  0
   45.3824    9.2897   11.9683 C   0  0  0  0  0  0  0  0  0  0  0  0
   52.3321    8.4646   12.2040 O   0  0  0  0  0  0  0  0  0  0  0  0
   51.3542   11.6418   16.3271 O   0  0  0  0  0  0  0  0  0  0  0  0
   49.9346    8.1482   13.5654 O   0  0  0  0  0  0  0  0  0  0  0  0
   48.3056   12.6976   12.6869 O   0  0  0  0  0  0  0  0  0  0  0  0
   50.9273   12.5319   10.2188 O   0  0  0  0  0  0  0  0  0  0  0  0
   52.9478   13.1834   15.8947 N   0  0  0  0  0  0  0  0  0  0  0  0
   48.0049   13.0594   10.3467 C   0  0  0  0  0  0  0  0  0  0  0  0
   45.5459   12.0355   11.6865 C   0  0  0  0  0  0  0  0  0  0  0  0
   45.2116    7.9396   12.1424 O   0  0  0  0  0  0  0  0  0  0  0  0
   44.2988   11.4256   11.8429 C   0  0  0  0  0  0  0  0  0  0  0  0
   44.2171   10.0462   11.9721 C   0  0  0  0  0  0  0  0  0  0  0  0
   55.0927   10.0809   12.7067 C   0  0  0  0  0  0  0  0  0  0  0  0
   54.6323   10.1393   10.3407 C   0  0  0  0  0  0  0  0  0  0  0  0
   51.5629    9.3216   11.9807 C   0  0  2  0  0  0  0  0  0  0  0  0
   49.1950    9.9752   12.2131 C   0  0  0  0  0  0  0  0  0  0  0  0
   51.9339   10.7641   11.6782 C   0  0  2  0  0  0  0  0  0  0  0  0
   53.2724    9.3600   13.9142 C   0  0  0  0  0  0  0  0  0  0  0  0
   50.2148    9.2154   12.6631 C   0  0  0  0  0  0  0  0  0  0  0  0
   49.3729   10.8939   11.0137 C   0  0  1  0  0  0  0  0  0  0  0  0
   52.7364    8.6629   12.7121 C   0  0  0  0  0  0  0  0  0  0  0  0
   53.0021   10.6844   14.1053 C   0  0  0  0  0  0  0  0  0  0  0  0
   47.8401    9.8563   12.8182 C   0  0  0  0  0  0  0  0  0  0  0  0
   48.2425   11.9802   10.9100 C   0  0  1  0  0  0  0  0  0  0  0  0
   52.3016   11.5328   12.9861 C   0  0  1  0  0  0  0  0  0  0  0  0
   50.8003   11.5166   10.9211 C   0  0  2  0  0  0  0  0  0  0  0  0
   46.6988   10.2933   11.9935 C   0  0  0  0  0  0  0  0  0  0  0  0
   46.8738   11.3114   11.0382 C   0  0  0  0  0  0  0  0  0  0  0  0
   54.0119    8.5380   14.9424 C   0  0  0  0  0  0  0  0  0  0  0  0
   53.2014   11.3780   15.1490 O   0  0  0  0  0  0  0  0  0  0  0  0
   53.0065   12.7661   12.5014 N   0  0  0  0  0  0  0  0  0  0  0  0
   53.1203    7.5447   12.3536 O   0  0  0  0  0  0  0  0  0  0  0  0
   47.6044    9.4649   13.9549 O   0  0  0  0  0  0  0  0  0  0  0  0
   45.4397    9.7060   12.2000 C   0  0  0  0  0  0  0  0  0  0  0  0
   51.4213    8.6070   10.7290 O   0  0  0  0  0  0  0  0  0  0  0  0
   54.6683    7.5347   14.6835 O   0  0  0  0  0  0  0  0  0  0  0  0
   50.0267    8.2651   13.6518 O   0  0  0  0  0  0  0  0  0  0  0  0
   48.3625   12.9283   11.9820 O   0  0  0  0  0  0  0  0  0  0  0  0
   51.1613   11.5983    9.5253 O   0  0  0  0  0  0  0  0  0  0  0  0
   53.8882    8.9590   16.2343 N   0  0  0  0  0  0  0  0  0  0  0  0
   48.3843   12.8099    9.6206 C   0  0  0  0  0  0  0  0  0  0  0  0
   45.7471   11.6992   10.2877 C   0  0  0  0  0  0  0  0  0  0  0  0
   45.2126    8.7449   13.1501 O   0  0  0  0  0  0  0  0  0  0  0  0
   44.5035   11.0875   10.4756 C   0  0  0  0  0  0  0  0  0  0  0  0
   44.3468   10.0906   11.4330 C   0  0  0  0  0  0  0  0  0  0  0  0
   54.4522   12.5930   12.3563 C   0  0  0  0  0  0  0  0  0  0  0  0
   52.7235   13.9285   13.3455 C   0  0  0  0  0  0  0  0  0  0  0  0
   50.3042   10.8892   12.2516 Ca  0  0  0  0  0 15  0  0  0  0  0  0
   51.9934   10.2238   10.5238 H   0  0  0  0  0  0  0  0  0  0  0  0
   49.2138   10.6928   10.1103 H   0  0  0  0  0  0  0  0  0  0  0  0
   53.2347   12.2821   11.0427 H   0  0  0  0  0  0  0  0  0  0  0  0
   50.6186   12.3521   12.2351 H   0  0  0  0  0  0  0  0  0  0  0  0
   52.3545    7.9033   12.9998 H   0  0  0  0  0  0  0  0  0  0  0  0
   50.6172    8.1559   14.2705 H   0  0  0  0  0  0  0  0  0  0  0  0
   48.2285   12.0696   13.4279 H   0  0  0  0  0  0  0  0  0  0  0  0
   51.5113   13.2496   10.5478 H   0  0  0  0  0  0  0  0  0  0  0  0
   52.6109   13.7641   16.6435 H   0  0  0  0  0  0  0  0  0  0  0  0
   53.3764   13.6430   15.0776 H   0  0  0  0  0  0  0  0  0  0  0  0
   47.8251   12.6055    9.3659 H   0  0  0  0  0  0  0  0  0  0  0  0
   47.2164   13.7953   10.5280 H   0  0  0  0  0  0  0  0  0  0  0  0
   48.9104   13.6680   10.2937 H   0  0  0  0  0  0  0  0  0  0  0  0
   45.5719   13.1224   11.6351 H   0  0  0  0  0  0  0  0  0  0  0  0
   46.1039    7.5235   12.1091 H   0  0  0  0  0  0  0  0  0  0  0  0
   43.3977   12.0301   11.8811 H   0  0  0  0  0  0  0  0  0  0  0  0
   43.2548    9.5600   12.0998 H   0  0  0  0  0  0  0  0  0  0  0  0
   56.1303    9.8155   12.4710 H   0  0  0  0  0  0  0  0  0  0  0  0
   54.5653    9.1463   12.9105 H   0  0  0  0  0  0  0  0  0  0  0  0
   55.1522   10.6641   13.6314 H   0  0  0  0  0  0  0  0  0  0  0  0
   54.2859   10.7697    9.5147 H   0  0  0  0  0  0  0  0  0  0  0  0
   54.0707    9.1999   10.3196 H   0  0  0  0  0  0  0  0  0  0  0  0
   55.6801    9.9044   10.1270 H   0  0  0  0  0  0  0  0  0  0  0  0
   52.8180   10.7268   11.0222 H   0  0  0  0  0  0  0  0  0  0  0  0
   49.2396   10.2456   10.1320 H   0  0  0  0  0  0  0  0  0  0  0  0
   51.3364   11.8441   13.4172 H   0  0  0  0  0  0  0  0  0  0  0  0
   50.7573   12.5562   11.2611 H   0  0  0  0  0  0  0  0  0  0  0  0
   51.7472    7.7002   10.9185 H   0  0  0  0  0  0  0  0  0  0  0  0
   50.8418    8.1261   14.1653 H   0  0  0  0  0  0  0  0  0  0  0  0
   48.1275   12.5018   12.8244 H   0  0  0  0  0  0  0  0  0  0  0  0
   52.0259   12.0504    9.5010 H   0  0  0  0  0  0  0  0  0  0  0  0
   53.6189    9.9541   16.2975 H   0  0  0  0  0  0  0  0  0  0  0  0
   54.5989    8.6351   16.8698 H   0  0  0  0  0  0  0  0  0  0  0  0
   48.2755   12.1923    8.7229 H   0  0  0  0  0  0  0  0  0  0  0  0
   47.6468   13.6203    9.5825 H   0  0  0  0  0  0  0  0  0  0  0  0
   49.3471   13.3312    9.5695 H   0  0  0  0  0  0  0  0  0  0  0  0
   45.8080   12.4901    9.5438 H   0  0  0  0  0  0  0  0  0  0  0  0
   46.0091    8.7115   13.7308 H   0  0  0  0  0  0  0  0  0  0  0  0
   43.6502   11.4010    9.8800 H   0  0  0  0  0  0  0  0  0  0  0  0
   43.3798    9.6240   11.5921 H   0  0  0  0  0  0  0  0  0  0  0  0
   54.8757   13.4597   11.8352 H   0  0  0  0  0  0  0  0  0  0  0  0
   54.9828   12.4970   13.3087 H   0  0  0  0  0  0  0  0  0  0  0  0
   54.6947   11.7225   11.7354 H   0  0  0  0  0  0  0  0  0  0  0  0
   51.6451   14.0854   13.4441 H   0  0  0  0  0  0  0  0  0  0  0  0
   53.1621   13.8725   14.3451 H   0  0  0  0  0  0  0  0  0  0  0  0
   53.1189   14.8331   12.8687 H   0  0  0  0  0  0  0  0  0  0  0  0
  2  5  2  0
  3  1  1  0
  4  7  1  0
  5  1  1  0
  6  2  1  0
  7  1  1  0
  8  4  2  0
  9  2  1  0
 10  6  1  0
  3 11  1  0
 12  3  1  0
 13  9  1  0
 14 13  2  0
 15  4  1  0
 16  8  1  0
 11 17  1  0
 18  7  2  0
 19  9  2  0
 20 13  1  0
  1 21  1  6
 22 15  2  0
 23  5  1  0
 10 24  1  1
 12 25  1  0
 26 15  1  0
 10 27  1  0
 28 14  1  0
 29 20  1  0
 30 31  1  0
 31 20  2  0
 32 17  1  0
 33 17  1  0
 12  6  1  0
 11  8  1  0
 10 14  1  0
 30 28  2  0
 35 38  2  0
 36 34  1  0
 37 40  1  0
 38 34  1  0
 39 35  1  0
 40 34  1  0
 41 37  2  0
 42 35  1  0
 43 39  1  0
 36 44  1  0
 45 36  1  0
 46 42  1  0
 47 46  2  0
 48 37  1  0
 49 41  1  0
 44 50  1  0
 51 40  2  0
 52 42  2  0
 53 46  1  0
 34 54  1  6
 55 48  2  0
 56 38  1  0
 43 57  1  1
 45 58  1  0
 59 48  1  0
 43 60  1  0
 61 47  1  0
 62 53  1  0
 63 64  1  0
 64 53  2  0
 65 50  1  0
 66 50  1  0
 45 39  1  0
 44 41  1  0
 43 47  1  0
 63 61  2  0
  3 68  1  6
  6 69  1  6
 11 70  1  1
 12 71  1  1
 21 72  1  0
 23 73  1  0
 24 74  1  0
 25 75  1  0
 26 76  1  0
 26 77  1  0
 27 78  1  0
 27 79  1  0
 27 80  1  0
 28 81  1  0
 29 82  1  0
 30 83  1  0
 31 84  1  0
 32 85  1  0
 32 86  1  0
 32 87  1  0
 33 88  1  0
 33 89  1  0
 33 90  1  0
 36 91  1  6
 39 92  1  6
 44 93  1  1
 45 94  1  1
 54 95  1  0
 56 96  1  0
 57 97  1  0
 58 98  1  0
 59 99  1  0
 59100  1  0
 60101  1  0
 60102  1  0
 60103  1  0
 61104  1  0
 62105  1  0
 63106  1  0
 64107  1  0
 65108  1  0
 65109  1  0
 65110  1  0
 66111  1  0
 66112  1  0
 66113  1  0
M  CHG  3  16  -1  49  -1  67   2
M  END
> <Uni-Dock RESULT> 
ENERGY=   -4.619  LOWER_BOUND=    5.516  UPPER_BOUND=    7.737
INTER + INTRA:          -4.619
INTER:                  -4.619
INTRA:                   0.000
UNBOUND:                 0.000

$$$$
