
     RDKit          3D

113118  0  0  0  0  0  0  0  0999 V2000
   49.1599    5.5198   17.9933 C   0  0  2  0  0  0  0  0  0  0  0  0
   48.1099    5.2809   15.6957 C   0  0  0  0  0  0  0  0  0  0  0  0
   49.7915    6.8498   17.5508 C   0  0  2  0  0  0  0  0  0  0  0  0
   49.0721    6.2492   20.4404 C   0  0  0  0  0  0  0  0  0  0  0  0
   48.3467    4.7875   16.9310 C   0  0  0  0  0  0  0  0  0  0  0  0
   48.7188    6.5687   15.2217 C   0  0  1  0  0  0  0  0  0  0  0  0
   48.3025    5.7884   19.2467 C   0  0  0  0  0  0  0  0  0  0  0  0
   49.9914    7.2209   20.1822 C   0  0  0  0  0  0  0  0  0  0  0  0
   47.3474    4.4556   14.7245 C   0  0  0  0  0  0  0  0  0  0  0  0
   48.0050    7.2800   14.0182 C   0  0  1  0  0  0  0  0  0  0  0  0
   49.9293    7.8738   18.7495 C   0  0  1  0  0  0  0  0  0  0  0  0
   48.9667    7.5144   16.4178 C   0  0  2  0  0  0  0  0  0  0  0  0
   46.5756    5.1672   13.6791 C   0  0  0  0  0  0  0  0  0  0  0  0
   46.8743    6.5019   13.3596 C   0  0  0  0  0  0  0  0  0  0  0  0
   48.7858    5.6241   21.7810 C   0  0  0  0  0  0  0  0  0  0  0  0
   50.8151    7.7748   20.9628 O   0  0  0  0  0  0  0  0  0  0  0  0
   50.8231    8.9995   18.2988 N   0  0  0  0  0  0  0  0  0  0  0  0
   47.0779    5.6483   19.2968 O   0  0  0  0  0  0  0  0  0  0  0  0
   47.3739    3.2298   14.8197 O   0  0  0  0  0  0  0  0  0  0  0  0
   45.5199    4.5131   13.0062 C   0  0  0  0  0  0  0  0  0  0  0  0
   50.2198    4.5956   18.3038 O   0  0  0  0  0  0  0  0  0  0  0  0
   49.3419    5.8432   22.8526 O   0  0  0  0  0  0  0  0  0  0  0  0
   47.9632    3.5017   17.3139 O   0  0  0  0  0  0  0  0  0  0  0  0
   47.4151    8.5258   14.4267 O   0  0  0  0  0  0  0  0  0  0  0  0
   49.6115    8.6911   15.9078 O   0  0  0  0  0  0  0  0  0  0  0  0
   47.7428    4.7279   21.7907 N   0  0  0  0  0  0  0  0  0  0  0  0
   49.0602    7.6247   12.9404 C   0  0  0  0  0  0  0  0  0  0  0  0
   46.0889    7.1472   12.3745 C   0  0  0  0  0  0  0  0  0  0  0  0
   45.1713    3.2288   13.3237 O   0  0  0  0  0  0  0  0  0  0  0  0
   45.0579    6.4882   11.7108 C   0  0  0  0  0  0  0  0  0  0  0  0
   44.7725    5.1671   12.0233 C   0  0  0  0  0  0  0  0  0  0  0  0
   50.5743   10.2303   19.0571 C   0  0  0  0  0  0  0  0  0  0  0  0
   52.2510    8.6654   18.3583 C   0  0  0  0  0  0  0  0  0  0  0  0
   49.8738    5.6507   17.5473 C   0  0  2  0  0  0  0  0  0  0  0  0
   48.2159    5.7133   15.6979 C   0  0  0  0  0  0  0  0  0  0  0  0
   49.7081    7.1721   17.8178 C   0  0  2  0  0  0  0  0  0  0  0  0
   50.5886    5.4522   20.0503 C   0  0  0  0  0  0  0  0  0  0  0  0
   48.6504    5.0889   16.8154 C   0  0  0  0  0  0  0  0  0  0  0  0
   48.8857    7.0039   15.2958 C   0  0  1  0  0  0  0  0  0  0  0  0
   50.3146    4.7913   18.7507 C   0  0  0  0  0  0  0  0  0  0  0  0
   50.1287    6.7171   20.2428 C   0  0  0  0  0  0  0  0  0  0  0  0
   47.1150    5.1429   14.9003 C   0  0  0  0  0  0  0  0  0  0  0  0
   48.2130    7.7918   14.1165 C   0  0  1  0  0  0  0  0  0  0  0  0
   49.0107    7.2792   19.2340 C   0  0  1  0  0  0  0  0  0  0  0  0
   48.9842    7.8433   16.6129 C   0  0  2  0  0  0  0  0  0  0  0  0
   46.8371    5.7053   13.5641 C   0  0  0  0  0  0  0  0  0  0  0  0
   47.3773    6.9385   13.1649 C   0  0  0  0  0  0  0  0  0  0  0  0
   51.5424    4.7987   21.0161 C   0  0  0  0  0  0  0  0  0  0  0  0
   50.5217    7.5623   21.1020 O   0  0  0  0  0  0  0  0  0  0  0  0
   48.3207    8.5049   19.7577 N   0  0  0  0  0  0  0  0  0  0  0  0
   50.6200    3.5980   18.5801 O   0  0  0  0  0  0  0  0  0  0  0  0
   46.4603    4.1835   15.3100 O   0  0  0  0  0  0  0  0  0  0  0  0
   46.0076    4.9787   12.6840 C   0  0  0  0  0  0  0  0  0  0  0  0
   50.9773    5.4424   16.6143 O   0  0  0  0  0  0  0  0  0  0  0  0
   51.4077    4.7312   22.2361 O   0  0  0  0  0  0  0  0  0  0  0  0
   48.0795    3.9369   17.3188 O   0  0  0  0  0  0  0  0  0  0  0  0
   47.3228    8.7908   14.6473 O   0  0  0  0  0  0  0  0  0  0  0  0
   49.6058    9.1012   16.3344 O   0  0  0  0  0  0  0  0  0  0  0  0
   52.6060    4.1476   20.4397 N   0  0  0  0  0  0  0  0  0  0  0  0
   49.3171    8.5503   13.3379 C   0  0  0  0  0  0  0  0  0  0  0  0
   47.0413    7.4129   11.8768 C   0  0  0  0  0  0  0  0  0  0  0  0
   45.4395    3.7701   12.9974 O   0  0  0  0  0  0  0  0  0  0  0  0
   46.2261    6.6810   11.0103 C   0  0  0  0  0  0  0  0  0  0  0  0
   45.7087    5.4593   11.4152 C   0  0  0  0  0  0  0  0  0  0  0  0
   47.5532    9.3486   18.8735 C   0  0  0  0  0  0  0  0  0  0  0  0
   47.4899    8.1733   20.9297 C   0  0  0  0  0  0  0  0  0  0  0  0
   48.5580    6.6773   16.5819 Ca  0  0  0  0  0 15  0  0  0  0  0  0
   50.7937    6.6307   17.1585 H   0  0  0  0  0  0  0  0  0  0  0  0
   49.7136    6.2726   14.8469 H   0  0  0  0  0  0  0  0  0  0  0  0
   48.9384    8.3619   18.7827 H   0  0  0  0  0  0  0  0  0  0  0  0
   47.9982    7.8341   16.8268 H   0  0  0  0  0  0  0  0  0  0  0  0
   49.7782    3.7395   18.4663 H   0  0  0  0  0  0  0  0  0  0  0  0
   47.6093    3.0425   16.5181 H   0  0  0  0  0  0  0  0  0  0  0  0
   48.1413    9.0440   14.8367 H   0  0  0  0  0  0  0  0  0  0  0  0
   50.1727    9.0363   16.6493 H   0  0  0  0  0  0  0  0  0  0  0  0
   47.4143    4.4748   22.7099 H   0  0  0  0  0  0  0  0  0  0  0  0
   47.0729    4.7402   21.0266 H   0  0  0  0  0  0  0  0  0  0  0  0
   48.6390    8.2258   12.1283 H   0  0  0  0  0  0  0  0  0  0  0  0
   49.4954    6.7196   12.5032 H   0  0  0  0  0  0  0  0  0  0  0  0
   49.8730    8.2272   13.3619 H   0  0  0  0  0  0  0  0  0  0  0  0
   46.2801    8.1939   12.1369 H   0  0  0  0  0  0  0  0  0  0  0  0
   44.5585    2.8806   12.6543 H   0  0  0  0  0  0  0  0  0  0  0  0
   44.4764    7.0159   10.9578 H   0  0  0  0  0  0  0  0  0  0  0  0
   43.9532    4.6704   11.5139 H   0  0  0  0  0  0  0  0  0  0  0  0
   49.5085   10.4955   19.0420 H   0  0  0  0  0  0  0  0  0  0  0  0
   50.9138   10.1955   20.1006 H   0  0  0  0  0  0  0  0  0  0  0  0
   51.0973   11.0649   18.5774 H   0  0  0  0  0  0  0  0  0  0  0  0
   52.4853    7.7877   17.7438 H   0  0  0  0  0  0  0  0  0  0  0  0
   52.8295    9.4870   17.9210 H   0  0  0  0  0  0  0  0  0  0  0  0
   52.6453    8.5013   19.3656 H   0  0  0  0  0  0  0  0  0  0  0  0
   50.7043    7.6320   17.8911 H   0  0  0  0  0  0  0  0  0  0  0  0
   49.8913    6.7496   14.9387 H   0  0  0  0  0  0  0  0  0  0  0  0
   48.2081    6.5236   19.2184 H   0  0  0  0  0  0  0  0  0  0  0  0
   47.9528    8.0358   16.9009 H   0  0  0  0  0  0  0  0  0  0  0  0
   51.1363    4.4766   16.6386 H   0  0  0  0  0  0  0  0  0  0  0  0
   47.3179    3.6914   16.7524 H   0  0  0  0  0  0  0  0  0  0  0  0
   46.5731    8.9080   14.0413 H   0  0  0  0  0  0  0  0  0  0  0  0
   48.9006    9.6756   15.9841 H   0  0  0  0  0  0  0  0  0  0  0  0
   53.1880    3.6241   21.0740 H   0  0  0  0  0  0  0  0  0  0  0  0
   52.5254    3.8437   19.4779 H   0  0  0  0  0  0  0  0  0  0  0  0
   50.0186    9.0599   14.0014 H   0  0  0  0  0  0  0  0  0  0  0  0
   49.9041    7.8661   12.7114 H   0  0  0  0  0  0  0  0  0  0  0  0
   48.9031    9.3437   12.7062 H   0  0  0  0  0  0  0  0  0  0  0  0
   47.3980    8.3794   11.5230 H   0  0  0  0  0  0  0  0  0  0  0  0
   45.6269    3.5820   13.9448 H   0  0  0  0  0  0  0  0  0  0  0  0
   45.9910    7.0703   10.0218 H   0  0  0  0  0  0  0  0  0  0  0  0
   45.0737    4.8824   10.7480 H   0  0  0  0  0  0  0  0  0  0  0  0
   46.7374    8.8090   18.3790 H   0  0  0  0  0  0  0  0  0  0  0  0
   48.1898    9.8530   18.1462 H   0  0  0  0  0  0  0  0  0  0  0  0
   47.0892   10.1777   19.4280 H   0  0  0  0  0  0  0  0  0  0  0  0
   46.6180    7.5656   20.6452 H   0  0  0  0  0  0  0  0  0  0  0  0
   48.0232    7.6266   21.7133 H   0  0  0  0  0  0  0  0  0  0  0  0
   47.1239    9.0883   21.4105 H   0  0  0  0  0  0  0  0  0  0  0  0
  2  5  2  0
  3  1  1  0
  4  7  1  0
  5  1  1  0
  6  2  1  0
  7  1  1  0
  8  4  2  0
  9  2  1  0
 10  6  1  0
  3 11  1  0
 12  3  1  0
 13  9  1  0
 14 13  2  0
 15  4  1  0
 16  8  1  0
 11 17  1  0
 18  7  2  0
 19  9  2  0
 20 13  1  0
  1 21  1  6
 22 15  2  0
 23  5  1  0
 10 24  1  1
 12 25  1  0
 26 15  1  0
 10 27  1  0
 28 14  1  0
 29 20  1  0
 30 31  1  0
 31 20  2  0
 32 17  1  0
 33 17  1  0
 12  6  1  0
 11  8  1  0
 10 14  1  0
 30 28  2  0
 35 38  2  0
 36 34  1  0
 37 40  1  0
 38 34  1  0
 39 35  1  0
 40 34  1  0
 41 37  2  0
 42 35  1  0
 43 39  1  0
 36 44  1  0
 45 36  1  0
 46 42  1  0
 47 46  2  0
 48 37  1  0
 49 41  1  0
 44 50  1  0
 51 40  2  0
 52 42  2  0
 53 46  1  0
 34 54  1  6
 55 48  2  0
 56 38  1  0
 43 57  1  1
 45 58  1  0
 59 48  1  0
 43 60  1  0
 61 47  1  0
 62 53  1  0
 63 64  1  0
 64 53  2  0
 65 50  1  0
 66 50  1  0
 45 39  1  0
 44 41  1  0
 43 47  1  0
 63 61  2  0
  3 68  1  6
  6 69  1  6
 11 70  1  1
 12 71  1  1
 21 72  1  0
 23 73  1  0
 24 74  1  0
 25 75  1  0
 26 76  1  0
 26 77  1  0
 27 78  1  0
 27 79  1  0
 27 80  1  0
 28 81  1  0
 29 82  1  0
 30 83  1  0
 31 84  1  0
 32 85  1  0
 32 86  1  0
 32 87  1  0
 33 88  1  0
 33 89  1  0
 33 90  1  0
 36 91  1  6
 39 92  1  6
 44 93  1  1
 45 94  1  1
 54 95  1  0
 56 96  1  0
 57 97  1  0
 58 98  1  0
 59 99  1  0
 59100  1  0
 60101  1  0
 60102  1  0
 60103  1  0
 61104  1  0
 62105  1  0
 63106  1  0
 64107  1  0
 65108  1  0
 65109  1  0
 65110  1  0
 66111  1  0
 66112  1  0
 66113  1  0
M  CHG  3  16  -1  49  -1  67   2
M  END
> <Uni-Dock RESULT> 
ENERGY=   -7.642  LOWER_BOUND=    0.000  UPPER_BOUND=    0.000
INTER + INTRA:          -7.642
INTER:                  -7.642
INTRA:                   0.000
UNBOUND:                 0.000

$$$$

     RDKit          3D

113118  0  0  0  0  0  0  0  0999 V2000
   48.5314   11.6147   12.2936 C   0  0  2  0  0  0  0  0  0  0  0  0
   47.1164    9.5495   12.7079 C   0  0  0  0  0  0  0  0  0  0  0  0
   49.6863   10.9620   13.0706 C   0  0  2  0  0  0  0  0  0  0  0  0
   50.1320   12.9917   10.8549 C   0  0  0  0  0  0  0  0  0  0  0  0
   47.2452   10.7992   12.2108 C   0  0  0  0  0  0  0  0  0  0  0  0
   48.2157    8.8832   13.4835 C   0  0  1  0  0  0  0  0  0  0  0  0
   49.0423   11.9713   10.8829 C   0  0  0  0  0  0  0  0  0  0  0  0
   51.1243   12.7871   11.7656 C   0  0  0  0  0  0  0  0  0  0  0  0
   45.7991    8.8699   12.6156 C   0  0  0  0  0  0  0  0  0  0  0  0
   48.1630    7.3167   13.5685 C   0  0  1  0  0  0  0  0  0  0  0  0
   51.1023   11.4032   12.5187 C   0  0  1  0  0  0  0  0  0  0  0  0
   49.5915    9.4145   13.0240 C   0  0  2  0  0  0  0  0  0  0  0  0
   45.7949    7.3893   12.5640 C   0  0  0  0  0  0  0  0  0  0  0  0
   46.9146    6.6598   12.9964 C   0  0  0  0  0  0  0  0  0  0  0  0
   50.0481   14.1241    9.8647 C   0  0  0  0  0  0  0  0  0  0  0  0
   52.1436   13.4899   12.0140 O   0  0  0  0  0  0  0  0  0  0  0  0
   52.1452   10.9722   13.5167 N   0  0  0  0  0  0  0  0  0  0  0  0
   48.6127   11.4732    9.8392 O   0  0  0  0  0  0  0  0  0  0  0  0
   44.7714    9.5443   12.5788 O   0  0  0  0  0  0  0  0  0  0  0  0
   44.6693    6.6989   12.0626 C   0  0  0  0  0  0  0  0  0  0  0  0
   48.1305   12.8073   12.9941 O   0  0  0  0  0  0  0  0  0  0  0  0
   50.8201   15.0680    9.7270 O   0  0  0  0  0  0  0  0  0  0  0  0
   46.1713   11.5094   11.6728 O   0  0  0  0  0  0  0  0  0  0  0  0
   49.2606    6.7205   12.8566 O   0  0  0  0  0  0  0  0  0  0  0  0
   50.5886    8.7935   13.8490 O   0  0  0  0  0  0  0  0  0  0  0  0
   48.9888   14.0515    8.9908 N   0  0  0  0  0  0  0  0  0  0  0  0
   48.3126    6.8882   15.0476 C   0  0  0  0  0  0  0  0  0  0  0  0
   46.8730    5.2482   12.8995 C   0  0  0  0  0  0  0  0  0  0  0  0
   43.5796    7.3782   11.5903 O   0  0  0  0  0  0  0  0  0  0  0  0
   45.7533    4.5789   12.4134 C   0  0  0  0  0  0  0  0  0  0  0  0
   44.6464    5.3034   11.9961 C   0  0  0  0  0  0  0  0  0  0  0  0
   53.4615   10.8044   12.8918 C   0  0  0  0  0  0  0  0  0  0  0  0
   52.2580   11.8788   14.6654 C   0  0  0  0  0  0  0  0  0  0  0  0
   48.6571   11.5793   13.1354 C   0  0  2  0  0  0  0  0  0  0  0  0
   47.5242    9.3943   12.7964 C   0  0  0  0  0  0  0  0  0  0  0  0
   50.0537   10.9586   12.8536 C   0  0  2  0  0  0  0  0  0  0  0  0
   49.6822   13.8399   12.3264 C   0  0  0  0  0  0  0  0  0  0  0  0
   47.5436   10.7191   12.5285 C   0  0  0  0  0  0  0  0  0  0  0  0
   48.6711    8.8086   13.5823 C   0  0  1  0  0  0  0  0  0  0  0  0
   48.5071   13.0831   12.8236 C   0  0  0  0  0  0  0  0  0  0  0  0
   50.7443   13.1420   11.8433 C   0  0  0  0  0  0  0  0  0  0  0  0
   46.4095    8.5509   12.3277 C   0  0  0  0  0  0  0  0  0  0  0  0
   48.7062    7.2429   13.6882 C   0  0  1  0  0  0  0  0  0  0  0  0
   50.5315   11.5899   11.4836 C   0  0  1  0  0  0  0  0  0  0  0  0
   49.9627    9.4056   12.9308 C   0  0  2  0  0  0  0  0  0  0  0  0
   46.2896    7.1746   12.8475 C   0  0  0  0  0  0  0  0  0  0  0  0
   47.3527    6.5550   13.5241 C   0  0  0  0  0  0  0  0  0  0  0  0
   49.7539   15.3242   12.5736 C   0  0  0  0  0  0  0  0  0  0  0  0
   51.9353   13.5492   11.6920 O   0  0  0  0  0  0  0  0  0  0  0  0
   51.6311   11.0377   10.6242 N   0  0  0  0  0  0  0  0  0  0  0  0
   47.4753   13.6863   13.1668 O   0  0  0  0  0  0  0  0  0  0  0  0
   45.5597    8.9894   11.5516 O   0  0  0  0  0  0  0  0  0  0  0  0
   45.0774    6.4803   12.6492 C   0  0  0  0  0  0  0  0  0  0  0  0
   48.3938   11.5467   14.5711 O   0  0  0  0  0  0  0  0  0  0  0  0
   50.1501   16.1743   11.7791 O   0  0  0  0  0  0  0  0  0  0  0  0
   46.5853   11.3598   11.7685 O   0  0  0  0  0  0  0  0  0  0  0  0
   49.5569    6.7070   12.6578 O   0  0  0  0  0  0  0  0  0  0  0  0
   51.1178    8.9015   13.6074 O   0  0  0  0  0  0  0  0  0  0  0  0
   49.2358   15.7442   13.7748 N   0  0  0  0  0  0  0  0  0  0  0  0
   49.3517    6.8551   15.0423 C   0  0  0  0  0  0  0  0  0  0  0  0
   47.1596    5.2275   13.9685 C   0  0  0  0  0  0  0  0  0  0  0  0
   43.9938    7.0120   11.9976 O   0  0  0  0  0  0  0  0  0  0  0  0
   45.9520    4.5526   13.7744 C   0  0  0  0  0  0  0  0  0  0  0  0
   44.9073    5.1820   13.1136 C   0  0  0  0  0  0  0  0  0  0  0  0
   51.8086    9.6121   10.4866 C   0  0  0  0  0  0  0  0  0  0  0  0
   51.5909   11.6385    9.2784 C   0  0  0  0  0  0  0  0  0  0  0  0
   48.8155    9.7370   12.5896 Ca  0  0  0  0  0 15  0  0  0  0  0  0
   49.6042   11.2764   14.1198 H   0  0  0  0  0  0  0  0  0  0  0  0
   48.0712    9.2439   14.5164 H   0  0  0  0  0  0  0  0  0  0  0  0
   51.2783   10.7042   11.6811 H   0  0  0  0  0  0  0  0  0  0  0  0
   49.7774    9.0801   11.9938 H   0  0  0  0  0  0  0  0  0  0  0  0
   47.3284   13.1216   12.5334 H   0  0  0  0  0  0  0  0  0  0  0  0
   45.3543   10.9808   11.8227 H   0  0  0  0  0  0  0  0  0  0  0  0
   50.0734    7.1242   13.2313 H   0  0  0  0  0  0  0  0  0  0  0  0
   51.3393    9.4398   13.9008 H   0  0  0  0  0  0  0  0  0  0  0  0
   49.0497   14.6781    8.2031 H   0  0  0  0  0  0  0  0  0  0  0  0
   48.5129   13.1627    8.8632 H   0  0  0  0  0  0  0  0  0  0  0  0
   48.3993    5.8023   15.1556 H   0  0  0  0  0  0  0  0  0  0  0  0
   47.4604    7.2228   15.6489 H   0  0  0  0  0  0  0  0  0  0  0  0
   49.2270    7.3020   15.4881 H   0  0  0  0  0  0  0  0  0  0  0  0
   47.7447    4.6641   13.1956 H   0  0  0  0  0  0  0  0  0  0  0  0
   42.8415    6.7602   11.4554 H   0  0  0  0  0  0  0  0  0  0  0  0
   45.7568    3.4926   12.3551 H   0  0  0  0  0  0  0  0  0  0  0  0
   43.7875    4.7716   11.5998 H   0  0  0  0  0  0  0  0  0  0  0  0
   53.4030   10.1413   12.0181 H   0  0  0  0  0  0  0  0  0  0  0  0
   53.9421   11.7441   12.5891 H   0  0  0  0  0  0  0  0  0  0  0  0
   54.1387   10.3107   13.5974 H   0  0  0  0  0  0  0  0  0  0  0  0
   51.3047   11.9730   15.1995 H   0  0  0  0  0  0  0  0  0  0  0  0
   52.9557   11.4494   15.3932 H   0  0  0  0  0  0  0  0  0  0  0  0
   52.6254   12.8816   14.4278 H   0  0  0  0  0  0  0  0  0  0  0  0
   50.7520   11.2793   13.6403 H   0  0  0  0  0  0  0  0  0  0  0  0
   48.5733    9.1672   14.6145 H   0  0  0  0  0  0  0  0  0  0  0  0
   49.6493   11.5492   10.8238 H   0  0  0  0  0  0  0  0  0  0  0  0
   49.9717    9.0141   11.9157 H   0  0  0  0  0  0  0  0  0  0  0  0
   47.6005   12.1091   14.6849 H   0  0  0  0  0  0  0  0  0  0  0  0
   45.9389   10.6937   11.4530 H   0  0  0  0  0  0  0  0  0  0  0  0
   49.2151    5.8428   12.3761 H   0  0  0  0  0  0  0  0  0  0  0  0
   51.2913    8.0235   13.2215 H   0  0  0  0  0  0  0  0  0  0  0  0
   49.1885   16.7429   13.8998 H   0  0  0  0  0  0  0  0  0  0  0  0
   48.5609   15.1547   14.2448 H   0  0  0  0  0  0  0  0  0  0  0  0
   50.2524    7.4344   15.2548 H   0  0  0  0  0  0  0  0  0  0  0  0
   48.6572    7.0205   15.8762 H   0  0  0  0  0  0  0  0  0  0  0  0
   49.6814    5.8106   15.0561 H   0  0  0  0  0  0  0  0  0  0  0  0
   47.9585    4.6795   14.4664 H   0  0  0  0  0  0  0  0  0  0  0  0
   44.2607    7.8814   11.6220 H   0  0  0  0  0  0  0  0  0  0  0  0
   45.8320    3.5328   14.1344 H   0  0  0  0  0  0  0  0  0  0  0  0
   43.9640    4.6652   12.9580 H   0  0  0  0  0  0  0  0  0  0  0  0
   50.9192    9.1136   10.0848 H   0  0  0  0  0  0  0  0  0  0  0  0
   52.1275    9.1545   11.4234 H   0  0  0  0  0  0  0  0  0  0  0  0
   52.6339    9.3850    9.7955 H   0  0  0  0  0  0  0  0  0  0  0  0
   50.7113   11.2973    8.7122 H   0  0  0  0  0  0  0  0  0  0  0  0
   51.5703   12.7325    9.2795 H   0  0  0  0  0  0  0  0  0  0  0  0
   52.4878   11.3647    8.7101 H   0  0  0  0  0  0  0  0  0  0  0  0
  2  5  2  0
  3  1  1  0
  4  7  1  0
  5  1  1  0
  6  2  1  0
  7  1  1  0
  8  4  2  0
  9  2  1  0
 10  6  1  0
  3 11  1  0
 12  3  1  0
 13  9  1  0
 14 13  2  0
 15  4  1  0
 16  8  1  0
 11 17  1  0
 18  7  2  0
 19  9  2  0
 20 13  1  0
  1 21  1  6
 22 15  2  0
 23  5  1  0
 10 24  1  1
 12 25  1  0
 26 15  1  0
 10 27  1  0
 28 14  1  0
 29 20  1  0
 30 31  1  0
 31 20  2  0
 32 17  1  0
 33 17  1  0
 12  6  1  0
 11  8  1  0
 10 14  1  0
 30 28  2  0
 35 38  2  0
 36 34  1  0
 37 40  1  0
 38 34  1  0
 39 35  1  0
 40 34  1  0
 41 37  2  0
 42 35  1  0
 43 39  1  0
 36 44  1  0
 45 36  1  0
 46 42  1  0
 47 46  2  0
 48 37  1  0
 49 41  1  0
 44 50  1  0
 51 40  2  0
 52 42  2  0
 53 46  1  0
 34 54  1  6
 55 48  2  0
 56 38  1  0
 43 57  1  1
 45 58  1  0
 59 48  1  0
 43 60  1  0
 61 47  1  0
 62 53  1  0
 63 64  1  0
 64 53  2  0
 65 50  1  0
 66 50  1  0
 45 39  1  0
 44 41  1  0
 43 47  1  0
 63 61  2  0
  3 68  1  6
  6 69  1  6
 11 70  1  1
 12 71  1  1
 21 72  1  0
 23 73  1  0
 24 74  1  0
 25 75  1  0
 26 76  1  0
 26 77  1  0
 27 78  1  0
 27 79  1  0
 27 80  1  0
 28 81  1  0
 29 82  1  0
 30 83  1  0
 31 84  1  0
 32 85  1  0
 32 86  1  0
 32 87  1  0
 33 88  1  0
 33 89  1  0
 33 90  1  0
 36 91  1  6
 39 92  1  6
 44 93  1  1
 45 94  1  1
 54 95  1  0
 56 96  1  0
 57 97  1  0
 58 98  1  0
 59 99  1  0
 59100  1  0
 60101  1  0
 60102  1  0
 60103  1  0
 61104  1  0
 62105  1  0
 63106  1  0
 64107  1  0
 65108  1  0
 65109  1  0
 65110  1  0
 66111  1  0
 66112  1  0
 66113  1  0
M  CHG  3  16  -1  49  -1  67   2
M  END
> <Uni-Dock RESULT> 
ENERGY=   -6.830  LOWER_BOUND=    4.539  UPPER_BOUND=    7.905
INTER + INTRA:          -6.830
INTER:                  -6.830
INTRA:                   0.000
UNBOUND:                 0.000

$$$$

     RDKit          3D

113118  0  0  0  0  0  0  0  0999 V2000
   48.8217    9.2756   14.3769 C   0  0  2  0  0  0  0  0  0  0  0  0
   46.9564    9.4871   12.6697 C   0  0  0  0  0  0  0  0  0  0  0  0
   49.3848   10.6272   13.9081 C   0  0  2  0  0  0  0  0  0  0  0  0
   49.7560    9.5800   16.7354 C   0  0  0  0  0  0  0  0  0  0  0  0
   47.5876    8.7784   13.6315 C   0  0  0  0  0  0  0  0  0  0  0  0
   47.4818   10.8037   12.1756 C   0  0  1  0  0  0  0  0  0  0  0  0
   48.5428    9.3701   15.8906 C   0  0  0  0  0  0  0  0  0  0  0  0
   50.6124   10.5327   16.2716 C   0  0  0  0  0  0  0  0  0  0  0  0
   45.7927    8.8803   11.9745 C   0  0  0  0  0  0  0  0  0  0  0  0
   46.4499   11.7460   11.4605 C   0  0  1  0  0  0  0  0  0  0  0  0
   50.0845   11.4230   15.0835 C   0  0  1  0  0  0  0  0  0  0  0  0
   48.2726   11.5172   13.2945 C   0  0  2  0  0  0  0  0  0  0  0  0
   44.7678    9.7988   11.4261 C   0  0  0  0  0  0  0  0  0  0  0  0
   45.0728   11.1513   11.2010 C   0  0  0  0  0  0  0  0  0  0  0  0
   49.9322    8.7508   17.9808 C   0  0  0  0  0  0  0  0  0  0  0  0
   51.7286   10.9018   16.7324 O   0  0  0  0  0  0  0  0  0  0  0  0
   50.8618   12.5614   14.4760 N   0  0  0  0  0  0  0  0  0  0  0  0
   47.4221    9.2870   16.3996 O   0  0  0  0  0  0  0  0  0  0  0  0
   45.7132    7.6565   11.8827 O   0  0  0  0  0  0  0  0  0  0  0  0
   43.4683    9.3247   11.1410 C   0  0  0  0  0  0  0  0  0  0  0  0
   49.8070    8.2585   14.1148 O   0  0  0  0  0  0  0  0  0  0  0  0
   50.8755    8.7546   18.7657 O   0  0  0  0  0  0  0  0  0  0  0  0
   47.2345    7.4677   13.9545 O   0  0  0  0  0  0  0  0  0  0  0  0
   46.2063   12.9325   12.2350 O   0  0  0  0  0  0  0  0  0  0  0  0
   48.8046   12.7288   12.7382 O   0  0  0  0  0  0  0  0  0  0  0  0
   48.8765    7.9211   18.2779 N   0  0  0  0  0  0  0  0  0  0  0  0
   47.0473   12.2147   10.1125 C   0  0  0  0  0  0  0  0  0  0  0  0
   44.0508   11.9950   10.7036 C   0  0  0  0  0  0  0  0  0  0  0  0
   43.1225    8.0247   11.3909 O   0  0  0  0  0  0  0  0  0  0  0  0
   42.7768   11.5131   10.4163 C   0  0  0  0  0  0  0  0  0  0  0  0
   42.4830   10.1746   10.6318 C   0  0  0  0  0  0  0  0  0  0  0  0
   51.0627   13.6558   15.4318 C   0  0  0  0  0  0  0  0  0  0  0  0
   52.1565   12.1487   13.9215 C   0  0  0  0  0  0  0  0  0  0  0  0
   49.3221    9.4437   13.7082 C   0  0  2  0  0  0  0  0  0  0  0  0
   47.1039    9.9067   12.6892 C   0  0  0  0  0  0  0  0  0  0  0  0
   49.4468   10.9030   14.2277 C   0  0  2  0  0  0  0  0  0  0  0  0
   50.9081    8.7840   15.6740 C   0  0  0  0  0  0  0  0  0  0  0  0
   47.8566    9.0790   13.4481 C   0  0  0  0  0  0  0  0  0  0  0  0
   47.7128   11.2107   12.2368 C   0  0  1  0  0  0  0  0  0  0  0  0
   50.0865    8.3698   14.5104 C   0  0  0  0  0  0  0  0  0  0  0  0
   50.7039   10.0195   16.2035 C   0  0  0  0  0  0  0  0  0  0  0  0
   45.7249    9.5385   12.3201 C   0  0  0  0  0  0  0  0  0  0  0  0
   46.7367   12.2220   11.5380 C   0  0  1  0  0  0  0  0  0  0  0  0
   49.3581   10.8026   15.8043 C   0  0  1  0  0  0  0  0  0  0  0  0
   48.4005   11.8066   13.5100 C   0  0  2  0  0  0  0  0  0  0  0  0
   45.0255   10.3344   11.2923 C   0  0  0  0  0  0  0  0  0  0  0  0
   45.5101   11.5881   10.8856 C   0  0  0  0  0  0  0  0  0  0  0  0
   52.0763    7.9268   16.0864 C   0  0  0  0  0  0  0  0  0  0  0  0
   51.4881   10.6841   16.9454 O   0  0  0  0  0  0  0  0  0  0  0  0
   49.0643   11.9548   16.7201 N   0  0  0  0  0  0  0  0  0  0  0  0
   50.1655    7.2090   14.0714 O   0  0  0  0  0  0  0  0  0  0  0  0
   45.1705    8.5584   12.8189 O   0  0  0  0  0  0  0  0  0  0  0  0
   43.8463    9.8126   10.7198 C   0  0  0  0  0  0  0  0  0  0  0  0
   49.9557    9.3410   12.3969 O   0  0  0  0  0  0  0  0  0  0  0  0
   52.4094    7.6591   17.2389 O   0  0  0  0  0  0  0  0  0  0  0  0
   47.3928    7.8891   13.9727 O   0  0  0  0  0  0  0  0  0  0  0  0
   46.2360   13.1604   12.5082 O   0  0  0  0  0  0  0  0  0  0  0  0
   49.0085   13.0598   13.1843 O   0  0  0  0  0  0  0  0  0  0  0  0
   52.7585    7.3296   15.0541 N   0  0  0  0  0  0  0  0  0  0  0  0
   47.5401   13.0444   10.4993 C   0  0  0  0  0  0  0  0  0  0  0  0
   44.7657   12.2922    9.9124 C   0  0  0  0  0  0  0  0  0  0  0  0
   43.3062    8.5992   11.0628 O   0  0  0  0  0  0  0  0  0  0  0  0
   43.6041   11.7621    9.3458 C   0  0  0  0  0  0  0  0  0  0  0  0
   43.1439   10.5176    9.7503 C   0  0  0  0  0  0  0  0  0  0  0  0
   48.1198   12.9756   16.3346 C   0  0  0  0  0  0  0  0  0  0  0  0
   48.7102   11.4714   18.0673 C   0  0  0  0  0  0  0  0  0  0  0  0
   47.8644   10.6866   13.4900 Ca  0  0  0  0  0 15  0  0  0  0  0  0
   50.1302   10.4268   13.1266 H   0  0  0  0  0  0  0  0  0  0  0  0
   48.2181   10.5250   11.4023 H   0  0  0  0  0  0  0  0  0  0  0  0
   49.2437   11.9487   15.5710 H   0  0  0  0  0  0  0  0  0  0  0  0
   47.5761   11.8120   14.0917 H   0  0  0  0  0  0  0  0  0  0  0  0
   49.3658    7.4111   14.3191 H   0  0  0  0  0  0  0  0  0  0  0  0
   46.5543    7.1701   13.3077 H   0  0  0  0  0  0  0  0  0  0  0  0
   47.0880   13.3349   12.3925 H   0  0  0  0  0  0  0  0  0  0  0  0
   49.6413   12.9129   13.2382 H   0  0  0  0  0  0  0  0  0  0  0  0
   48.8960    7.5321   19.2080 H   0  0  0  0  0  0  0  0  0  0  0  0
   47.9723    8.0983   17.8491 H   0  0  0  0  0  0  0  0  0  0  0  0
   46.4203   12.9666    9.6228 H   0  0  0  0  0  0  0  0  0  0  0  0
   47.1769   11.3763    9.4196 H   0  0  0  0  0  0  0  0  0  0  0  0
   48.0224   12.6935   10.2578 H   0  0  0  0  0  0  0  0  0  0  0  0
   44.2553   13.0556   10.5557 H   0  0  0  0  0  0  0  0  0  0  0  0
   42.2656    7.8281   10.9763 H   0  0  0  0  0  0  0  0  0  0  0  0
   42.0169   12.1910   10.0336 H   0  0  0  0  0  0  0  0  0  0  0  0
   41.4804    9.8152   10.4237 H   0  0  0  0  0  0  0  0  0  0  0  0
   50.1093   13.9744   15.8744 H   0  0  0  0  0  0  0  0  0  0  0  0
   51.7675   13.4259   16.2416 H   0  0  0  0  0  0  0  0  0  0  0  0
   51.4553   14.5319   14.9041 H   0  0  0  0  0  0  0  0  0  0  0  0
   52.0374   11.3779   13.1505 H   0  0  0  0  0  0  0  0  0  0  0  0
   52.6148   13.0019   13.4088 H   0  0  0  0  0  0  0  0  0  0  0  0
   52.8831   11.7949   14.6592 H   0  0  0  0  0  0  0  0  0  0  0  0
   50.4414   11.2915   13.9649 H   0  0  0  0  0  0  0  0  0  0  0  0
   48.4707   10.9695   11.4811 H   0  0  0  0  0  0  0  0  0  0  0  0
   48.5294   10.1032   16.0029 H   0  0  0  0  0  0  0  0  0  0  0  0
   47.5857   12.0001   14.2045 H   0  0  0  0  0  0  0  0  0  0  0  0
   50.0005    8.3784   12.2239 H   0  0  0  0  0  0  0  0  0  0  0  0
   46.4503    7.7836   13.7244 H   0  0  0  0  0  0  0  0  0  0  0  0
   45.3307   13.4179   12.2689 H   0  0  0  0  0  0  0  0  0  0  0  0
   48.2938   13.7212   13.2226 H   0  0  0  0  0  0  0  0  0  0  0  0
   53.4743    6.6762   15.3296 H   0  0  0  0  0  0  0  0  0  0  0  0
   52.2838    7.1991   14.1701 H   0  0  0  0  0  0  0  0  0  0  0  0
   48.4946   13.3962   10.8957 H   0  0  0  0  0  0  0  0  0  0  0  0
   47.7620   12.4478    9.6049 H   0  0  0  0  0  0  0  0  0  0  0  0
   47.0103   13.9543   10.1971 H   0  0  0  0  0  0  0  0  0  0  0  0
   45.0686   13.2851    9.5828 H   0  0  0  0  0  0  0  0  0  0  0  0
   43.8173    8.2427   11.8242 H   0  0  0  0  0  0  0  0  0  0  0  0
   43.0566   12.3261    8.5935 H   0  0  0  0  0  0  0  0  0  0  0  0
   42.2414   10.0967    9.3151 H   0  0  0  0  0  0  0  0  0  0  0  0
   47.1214   12.5713   16.1327 H   0  0  0  0  0  0  0  0  0  0  0  0
   48.4848   13.5633   15.4919 H   0  0  0  0  0  0  0  0  0  0  0  0
   47.9999   13.7207   17.1351 H   0  0  0  0  0  0  0  0  0  0  0  0
   47.7324   10.9670   18.0689 H   0  0  0  0  0  0  0  0  0  0  0  0
   49.4354   10.7721   18.4943 H   0  0  0  0  0  0  0  0  0  0  0  0
   48.6619   12.3084   18.7738 H   0  0  0  0  0  0  0  0  0  0  0  0
  2  5  2  0
  3  1  1  0
  4  7  1  0
  5  1  1  0
  6  2  1  0
  7  1  1  0
  8  4  2  0
  9  2  1  0
 10  6  1  0
  3 11  1  0
 12  3  1  0
 13  9  1  0
 14 13  2  0
 15  4  1  0
 16  8  1  0
 11 17  1  0
 18  7  2  0
 19  9  2  0
 20 13  1  0
  1 21  1  6
 22 15  2  0
 23  5  1  0
 10 24  1  1
 12 25  1  0
 26 15  1  0
 10 27  1  0
 28 14  1  0
 29 20  1  0
 30 31  1  0
 31 20  2  0
 32 17  1  0
 33 17  1  0
 12  6  1  0
 11  8  1  0
 10 14  1  0
 30 28  2  0
 35 38  2  0
 36 34  1  0
 37 40  1  0
 38 34  1  0
 39 35  1  0
 40 34  1  0
 41 37  2  0
 42 35  1  0
 43 39  1  0
 36 44  1  0
 45 36  1  0
 46 42  1  0
 47 46  2  0
 48 37  1  0
 49 41  1  0
 44 50  1  0
 51 40  2  0
 52 42  2  0
 53 46  1  0
 34 54  1  6
 55 48  2  0
 56 38  1  0
 43 57  1  1
 45 58  1  0
 59 48  1  0
 43 60  1  0
 61 47  1  0
 62 53  1  0
 63 64  1  0
 64 53  2  0
 65 50  1  0
 66 50  1  0
 45 39  1  0
 44 41  1  0
 43 47  1  0
 63 61  2  0
  3 68  1  6
  6 69  1  6
 11 70  1  1
 12 71  1  1
 21 72  1  0
 23 73  1  0
 24 74  1  0
 25 75  1  0
 26 76  1  0
 26 77  1  0
 27 78  1  0
 27 79  1  0
 27 80  1  0
 28 81  1  0
 29 82  1  0
 30 83  1  0
 31 84  1  0
 32 85  1  0
 32 86  1  0
 32 87  1  0
 33 88  1  0
 33 89  1  0
 33 90  1  0
 36 91  1  6
 39 92  1  6
 44 93  1  1
 45 94  1  1
 54 95  1  0
 56 96  1  0
 57 97  1  0
 58 98  1  0
 59 99  1  0
 59100  1  0
 60101  1  0
 60102  1  0
 60103  1  0
 61104  1  0
 62105  1  0
 63106  1  0
 64107  1  0
 65108  1  0
 65109  1  0
 65110  1  0
 66111  1  0
 66112  1  0
 66113  1  0
M  CHG  3  16  -1  49  -1  67   2
M  END
> <Uni-Dock RESULT> 
ENERGY=   -6.653  LOWER_BOUND=    3.624  UPPER_BOUND=    5.353
INTER + INTRA:          -6.653
INTER:                  -6.653
INTRA:                   0.000
UNBOUND:                 0.000

$$$$

     RDKit          3D

113118  0  0  0  0  0  0  0  0999 V2000
   44.8091   12.5234   10.5556 C   0  0  2  0  0  0  0  0  0  0  0  0
   45.7556   10.5729   11.8740 C   0  0  0  0  0  0  0  0  0  0  0  0
   46.1683   13.2344   10.6587 C   0  0  2  0  0  0  0  0  0  0  0  0
   44.2456   13.6840    8.3502 C   0  0  0  0  0  0  0  0  0  0  0  0
   44.7136   11.1730   11.2580 C   0  0  0  0  0  0  0  0  0  0  0  0
   47.0942   11.2396   12.0071 C   0  0  1  0  0  0  0  0  0  0  0  0
   44.4499   12.3874    9.0621 C   0  0  0  0  0  0  0  0  0  0  0  0
   45.1949   14.6272    8.6057 C   0  0  0  0  0  0  0  0  0  0  0  0
   45.5331    9.2804   12.5710 C   0  0  0  0  0  0  0  0  0  0  0  0
   48.3226   10.2984   12.2696 C   0  0  1  0  0  0  0  0  0  0  0  0
   46.4683   14.1364    9.3934 C   0  0  1  0  0  0  0  0  0  0  0  0
   47.3244   12.2149   10.8313 C   0  0  2  0  0  0  0  0  0  0  0  0
   46.6857    8.3566   12.6841 C   0  0  0  0  0  0  0  0  0  0  0  0
   47.9973    8.8333   12.5248 C   0  0  0  0  0  0  0  0  0  0  0  0
   43.0506   13.8416    7.4464 C   0  0  0  0  0  0  0  0  0  0  0  0
   45.2730   15.8192    8.1965 O   0  0  0  0  0  0  0  0  0  0  0  0
   47.6469   15.0163    9.7187 N   0  0  0  0  0  0  0  0  0  0  0  0
   44.3347   11.3125    8.4678 O   0  0  0  0  0  0  0  0  0  0  0  0
   44.4181    9.0183   13.0187 O   0  0  0  0  0  0  0  0  0  0  0  0
   46.4734    6.9832   12.9365 C   0  0  0  0  0  0  0  0  0  0  0  0
   43.8246   13.3269   11.2333 O   0  0  0  0  0  0  0  0  0  0  0  0
   42.7011   14.8374    6.8203 O   0  0  0  0  0  0  0  0  0  0  0  0
   43.4157   10.6630   11.3063 O   0  0  0  0  0  0  0  0  0  0  0  0
   49.2223   10.2932   11.1482 O   0  0  0  0  0  0  0  0  0  0  0  0
   48.5829   12.8678   11.0557 O   0  0  0  0  0  0  0  0  0  0  0  0
   42.2921   12.7058    7.2865 N   0  0  0  0  0  0  0  0  0  0  0  0
   49.1247   10.8432   13.4753 C   0  0  0  0  0  0  0  0  0  0  0  0
   49.0629    7.9057   12.6128 C   0  0  0  0  0  0  0  0  0  0  0  0
   45.2080    6.4758   13.0515 O   0  0  0  0  0  0  0  0  0  0  0  0
   48.8412    6.5562   12.8727 C   0  0  0  0  0  0  0  0  0  0  0  0
   47.5446    6.0917   13.0383 C   0  0  0  0  0  0  0  0  0  0  0  0
   48.3530   15.4512    8.5088 C   0  0  0  0  0  0  0  0  0  0  0  0
   47.2901   16.1877   10.5277 C   0  0  0  0  0  0  0  0  0  0  0  0
   45.1237   12.9856   11.1984 C   0  0  2  0  0  0  0  0  0  0  0  0
   46.1284   10.7804   11.7467 C   0  0  0  0  0  0  0  0  0  0  0  0
   46.3202   13.3616   10.2807 C   0  0  2  0  0  0  0  0  0  0  0  0
   43.7039   14.6175    9.7368 C   0  0  0  0  0  0  0  0  0  0  0  0
   45.0250   11.4664   11.3735 C   0  0  0  0  0  0  0  0  0  0  0  0
   47.4326   11.5311   11.8545 C   0  0  1  0  0  0  0  0  0  0  0  0
   43.7732   13.6513   10.8603 C   0  0  0  0  0  0  0  0  0  0  0  0
   44.7229   14.6379    8.8369 C   0  0  0  0  0  0  0  0  0  0  0  0
   46.0513    9.3370   12.0366 C   0  0  0  0  0  0  0  0  0  0  0  0
   48.7148   10.6562   12.0876 C   0  0  1  0  0  0  0  0  0  0  0  0
   45.7362   13.3905    8.8104 C   0  0  1  0  0  0  0  0  0  0  0  0
   47.5146   12.4005   10.5558 C   0  0  2  0  0  0  0  0  0  0  0  0
   47.2041    8.6767   12.6802 C   0  0  0  0  0  0  0  0  0  0  0  0
   48.4601    9.3013   12.7445 C   0  0  0  0  0  0  0  0  0  0  0  0
   42.6364   15.6803    9.7513 C   0  0  0  0  0  0  0  0  0  0  0  0
   45.0272   15.5684    8.0315 O   0  0  0  0  0  0  0  0  0  0  0  0
   46.5644   13.3425    7.5596 N   0  0  0  0  0  0  0  0  0  0  0  0
   42.8100   13.5257   11.6365 O   0  0  0  0  0  0  0  0  0  0  0  0
   45.0316    8.6905   11.7936 O   0  0  0  0  0  0  0  0  0  0  0  0
   47.0245    7.3913   13.2335 C   0  0  0  0  0  0  0  0  0  0  0  0
   45.3718   13.4870   12.5470 O   0  0  0  0  0  0  0  0  0  0  0  0
   41.9823   16.0657    8.7845 O   0  0  0  0  0  0  0  0  0  0  0  0
   43.7894   10.8812   11.1810 O   0  0  0  0  0  0  0  0  0  0  0  0
   49.3472   10.3779   10.8247 O   0  0  0  0  0  0  0  0  0  0  0  0
   48.7309   13.1535   10.5591 O   0  0  0  0  0  0  0  0  0  0  0  0
   42.3249   16.1815   10.9920 N   0  0  0  0  0  0  0  0  0  0  0  0
   49.7292   11.4807   12.9194 C   0  0  0  0  0  0  0  0  0  0  0  0
   49.5141    8.5879   13.3588 C   0  0  0  0  0  0  0  0  0  0  0  0
   45.8327    6.7125   13.2101 O   0  0  0  0  0  0  0  0  0  0  0  0
   49.3229    7.3192   13.9112 C   0  0  0  0  0  0  0  0  0  0  0  0
   48.0735    6.7198   13.8491 C   0  0  0  0  0  0  0  0  0  0  0  0
   47.7529   12.5261    7.4979 C   0  0  0  0  0  0  0  0  0  0  0  0
   45.7218   13.0354    6.3894 C   0  0  0  0  0  0  0  0  0  0  0  0
   46.5253   11.7090   10.8478 Ca  0  0  0  0  0 15  0  0  0  0  0  0
   46.1443   13.8758   11.5500 H   0  0  0  0  0  0  0  0  0  0  0  0
   46.9947   11.8615   12.9132 H   0  0  0  0  0  0  0  0  0  0  0  0
   46.9025   13.4233    8.6695 H   0  0  0  0  0  0  0  0  0  0  0  0
   47.4270   11.6365    9.9026 H   0  0  0  0  0  0  0  0  0  0  0  0
   43.0106   12.7868   11.2424 H   0  0  0  0  0  0  0  0  0  0  0  0
   43.4155    9.8958   11.9235 H   0  0  0  0  0  0  0  0  0  0  0  0
   49.4537   11.2336   10.9865 H   0  0  0  0  0  0  0  0  0  0  0  0
   48.5052   13.7608   10.6309 H   0  0  0  0  0  0  0  0  0  0  0  0
   41.6290   12.7461    6.5279 H   0  0  0  0  0  0  0  0  0  0  0  0
   42.6950   11.8041    7.5262 H   0  0  0  0  0  0  0  0  0  0  0  0
   50.0576   10.2926   13.6327 H   0  0  0  0  0  0  0  0  0  0  0  0
   48.5399   10.7929   14.4001 H   0  0  0  0  0  0  0  0  0  0  0  0
   49.4216   11.8858   13.3135 H   0  0  0  0  0  0  0  0  0  0  0  0
   50.0862    8.2478   12.4565 H   0  0  0  0  0  0  0  0  0  0  0  0
   45.2491    5.5681   13.3969 H   0  0  0  0  0  0  0  0  0  0  0  0
   49.6853    5.8727   12.9351 H   0  0  0  0  0  0  0  0  0  0  0  0
   47.3831    5.0341   13.2199 H   0  0  0  0  0  0  0  0  0  0  0  0
   48.6188   14.5936    7.8761 H   0  0  0  0  0  0  0  0  0  0  0  0
   47.8019   16.1803    7.9004 H   0  0  0  0  0  0  0  0  0  0  0  0
   49.3019   15.9207    8.7905 H   0  0  0  0  0  0  0  0  0  0  0  0
   46.8212   15.8954   11.4751 H   0  0  0  0  0  0  0  0  0  0  0  0
   48.2053   16.7199   10.8104 H   0  0  0  0  0  0  0  0  0  0  0  0
   46.6427   16.9144   10.0277 H   0  0  0  0  0  0  0  0  0  0  0  0
   46.6591   14.3766   10.5344 H   0  0  0  0  0  0  0  0  0  0  0  0
   47.3606   12.1810   12.7354 H   0  0  0  0  0  0  0  0  0  0  0  0
   45.1064   12.4890    8.7322 H   0  0  0  0  0  0  0  0  0  0  0  0
   47.5674   11.6824    9.7402 H   0  0  0  0  0  0  0  0  0  0  0  0
   44.5147   13.3782   13.0076 H   0  0  0  0  0  0  0  0  0  0  0  0
   43.8731    9.9160   11.3310 H   0  0  0  0  0  0  0  0  0  0  0  0
   49.7659    9.5025   10.8608 H   0  0  0  0  0  0  0  0  0  0  0  0
   49.4211   12.5470   10.2342 H   0  0  0  0  0  0  0  0  0  0  0  0
   41.5427   16.8161   11.0182 H   0  0  0  0  0  0  0  0  0  0  0  0
   42.5344   15.6213   11.8082 H   0  0  0  0  0  0  0  0  0  0  0  0
   49.8293   12.5054   12.5562 H   0  0  0  0  0  0  0  0  0  0  0  0
   49.4257   11.5395   13.9727 H   0  0  0  0  0  0  0  0  0  0  0  0
   50.7408   11.0642   12.8637 H   0  0  0  0  0  0  0  0  0  0  0  0
   50.5203    9.0022   13.4069 H   0  0  0  0  0  0  0  0  0  0  0  0
   45.1992    7.2283   12.6619 H   0  0  0  0  0  0  0  0  0  0  0  0
   50.1531    6.7981   14.3835 H   0  0  0  0  0  0  0  0  0  0  0  0
   47.9148    5.7331   14.2763 H   0  0  0  0  0  0  0  0  0  0  0  0
   47.5466   11.4666    7.6877 H   0  0  0  0  0  0  0  0  0  0  0  0
   48.5328   12.9007    8.1612 H   0  0  0  0  0  0  0  0  0  0  0  0
   48.2147   12.5814    6.5009 H   0  0  0  0  0  0  0  0  0  0  0  0
   45.3545   11.9987    6.4197 H   0  0  0  0  0  0  0  0  0  0  0  0
   44.8474   13.6852    6.2874 H   0  0  0  0  0  0  0  0  0  0  0  0
   46.2920   13.1668    5.4621 H   0  0  0  0  0  0  0  0  0  0  0  0
  2  5  2  0
  3  1  1  0
  4  7  1  0
  5  1  1  0
  6  2  1  0
  7  1  1  0
  8  4  2  0
  9  2  1  0
 10  6  1  0
  3 11  1  0
 12  3  1  0
 13  9  1  0
 14 13  2  0
 15  4  1  0
 16  8  1  0
 11 17  1  0
 18  7  2  0
 19  9  2  0
 20 13  1  0
  1 21  1  6
 22 15  2  0
 23  5  1  0
 10 24  1  1
 12 25  1  0
 26 15  1  0
 10 27  1  0
 28 14  1  0
 29 20  1  0
 30 31  1  0
 31 20  2  0
 32 17  1  0
 33 17  1  0
 12  6  1  0
 11  8  1  0
 10 14  1  0
 30 28  2  0
 35 38  2  0
 36 34  1  0
 37 40  1  0
 38 34  1  0
 39 35  1  0
 40 34  1  0
 41 37  2  0
 42 35  1  0
 43 39  1  0
 36 44  1  0
 45 36  1  0
 46 42  1  0
 47 46  2  0
 48 37  1  0
 49 41  1  0
 44 50  1  0
 51 40  2  0
 52 42  2  0
 53 46  1  0
 34 54  1  6
 55 48  2  0
 56 38  1  0
 43 57  1  1
 45 58  1  0
 59 48  1  0
 43 60  1  0
 61 47  1  0
 62 53  1  0
 63 64  1  0
 64 53  2  0
 65 50  1  0
 66 50  1  0
 45 39  1  0
 44 41  1  0
 43 47  1  0
 63 61  2  0
  3 68  1  6
  6 69  1  6
 11 70  1  1
 12 71  1  1
 21 72  1  0
 23 73  1  0
 24 74  1  0
 25 75  1  0
 26 76  1  0
 26 77  1  0
 27 78  1  0
 27 79  1  0
 27 80  1  0
 28 81  1  0
 29 82  1  0
 30 83  1  0
 31 84  1  0
 32 85  1  0
 32 86  1  0
 32 87  1  0
 33 88  1  0
 33 89  1  0
 33 90  1  0
 36 91  1  6
 39 92  1  6
 44 93  1  1
 45 94  1  1
 54 95  1  0
 56 96  1  0
 57 97  1  0
 58 98  1  0
 59 99  1  0
 59100  1  0
 60101  1  0
 60102  1  0
 60103  1  0
 61104  1  0
 62105  1  0
 63106  1  0
 64107  1  0
 65108  1  0
 65109  1  0
 65110  1  0
 66111  1  0
 66112  1  0
 66113  1  0
M  CHG  3  16  -1  49  -1  67   2
M  END
> <Uni-Dock RESULT> 
ENERGY=   -6.536  LOWER_BOUND=    6.370  UPPER_BOUND=   10.473
INTER + INTRA:          -6.536
INTER:                  -6.536
INTRA:                   0.000
UNBOUND:                 0.000

$$$$

     RDKit          3D

113118  0  0  0  0  0  0  0  0999 V2000
   45.8843   13.0646   10.7291 C   0  0  2  0  0  0  0  0  0  0  0  0
   45.3910   10.7137   11.5468 C   0  0  0  0  0  0  0  0  0  0  0  0
   47.2492   13.0082   11.4343 C   0  0  2  0  0  0  0  0  0  0  0  0
   46.7427   14.6956    8.9596 C   0  0  0  0  0  0  0  0  0  0  0  0
   45.0021   11.8317   10.8955 C   0  0  0  0  0  0  0  0  0  0  0  0
   46.7096   10.6242   12.2588 C   0  0  1  0  0  0  0  0  0  0  0  0
   46.1268   13.3637    9.2358 C   0  0  0  0  0  0  0  0  0  0  0  0
   47.7962   15.0112    9.7637 C   0  0  0  0  0  0  0  0  0  0  0  0
   44.4277    9.5926   11.6917 C   0  0  0  0  0  0  0  0  0  0  0  0
   47.2619    9.1805   12.5318 C   0  0  1  0  0  0  0  0  0  0  0  0
   48.3516   13.8484   10.6705 C   0  0  1  0  0  0  0  0  0  0  0  0
   47.7468   11.5464   11.5803 C   0  0  2  0  0  0  0  0  0  0  0  0
   44.9831    8.2246   11.8142 C   0  0  0  0  0  0  0  0  0  0  0  0
   46.3219    8.0321   12.1926 C   0  0  0  0  0  0  0  0  0  0  0  0
   46.1695   15.5526    7.8611 C   0  0  0  0  0  0  0  0  0  0  0  0
   48.4860   16.0681    9.8055 O   0  0  0  0  0  0  0  0  0  0  0  0
   49.5435   13.9881   11.5810 N   0  0  0  0  0  0  0  0  0  0  0  0
   45.8507   12.5895    8.3159 O   0  0  0  0  0  0  0  0  0  0  0  0
   43.2208    9.8286   11.6987 O   0  0  0  0  0  0  0  0  0  0  0  0
   44.1737    7.1014   11.5341 C   0  0  0  0  0  0  0  0  0  0  0  0
   45.1076   14.1189   11.3283 O   0  0  0  0  0  0  0  0  0  0  0  0
   46.5139   16.6809    7.5234 O   0  0  0  0  0  0  0  0  0  0  0  0
   43.7058   12.0071   10.4097 O   0  0  0  0  0  0  0  0  0  0  0  0
   48.4540    8.9274   11.7690 O   0  0  0  0  0  0  0  0  0  0  0  0
   48.9572   11.4685   12.3479 O   0  0  0  0  0  0  0  0  0  0  0  0
   45.1619   14.9637    7.1337 N   0  0  0  0  0  0  0  0  0  0  0  0
   47.6607    9.0683   14.0225 C   0  0  0  0  0  0  0  0  0  0  0  0
   46.8135    6.7068   12.2668 C   0  0  0  0  0  0  0  0  0  0  0  0
   42.8790    7.2526   11.1184 O   0  0  0  0  0  0  0  0  0  0  0  0
   46.0026    5.6075   11.9987 C   0  0  0  0  0  0  0  0  0  0  0  0
   44.6784    5.8023   11.6341 C   0  0  0  0  0  0  0  0  0  0  0  0
   50.7804   14.2217   10.8280 C   0  0  0  0  0  0  0  0  0  0  0  0
   49.3791   15.0370   12.5944 C   0  0  0  0  0  0  0  0  0  0  0  0
   46.0694   13.2070   11.5484 C   0  0  2  0  0  0  0  0  0  0  0  0
   45.8320   10.7345   11.6039 C   0  0  0  0  0  0  0  0  0  0  0  0
   47.5752   13.1068   11.1771 C   0  0  2  0  0  0  0  0  0  0  0  0
   46.1027   15.5338   10.3651 C   0  0  0  0  0  0  0  0  0  0  0  0
   45.3288   11.9163   11.1826 C   0  0  0  0  0  0  0  0  0  0  0  0
   47.1647   10.7380   12.3109 C   0  0  1  0  0  0  0  0  0  0  0  0
   45.3389   14.4841   11.0832 C   0  0  0  0  0  0  0  0  0  0  0  0
   47.3159   15.2093    9.8440 C   0  0  0  0  0  0  0  0  0  0  0  0
   45.0931    9.4799   11.3725 C   0  0  0  0  0  0  0  0  0  0  0  0
   47.7991    9.3304   12.5939 C   0  0  1  0  0  0  0  0  0  0  0  0
   47.6855   13.6520    9.6958 C   0  0  1  0  0  0  0  0  0  0  0  0
   48.0865   11.6602   11.4453 C   0  0  2  0  0  0  0  0  0  0  0  0
   45.5398    8.2524   12.0600 C   0  0  0  0  0  0  0  0  0  0  0  0
   46.8008    8.1775   12.6732 C   0  0  0  0  0  0  0  0  0  0  0  0
   45.6211   16.9599   10.4270 C   0  0  0  0  0  0  0  0  0  0  0  0
   48.2500   15.9968    9.5059 O   0  0  0  0  0  0  0  0  0  0  0  0
   48.8530   13.4175    8.7823 N   0  0  0  0  0  0  0  0  0  0  0  0
   44.1805   14.7114   11.4737 O   0  0  0  0  0  0  0  0  0  0  0  0
   44.0911    9.4518   10.6570 O   0  0  0  0  0  0  0  0  0  0  0  0
   44.6721    7.1402   12.0895 C   0  0  0  0  0  0  0  0  0  0  0  0
   45.9338   13.2999   12.9991 O   0  0  0  0  0  0  0  0  0  0  0  0
   45.6111   17.7639    9.4972 O   0  0  0  0  0  0  0  0  0  0  0  0
   44.1510   12.0363   10.4723 O   0  0  0  0  0  0  0  0  0  0  0  0
   48.7194    8.9933   11.5395 O   0  0  0  0  0  0  0  0  0  0  0  0
   49.3885   11.7249   12.0342 O   0  0  0  0  0  0  0  0  0  0  0  0
   45.0630   17.3387   11.6238 N   0  0  0  0  0  0  0  0  0  0  0  0
   48.6316    9.4185   13.8977 C   0  0  0  0  0  0  0  0  0  0  0  0
   47.1564    6.9564   13.2893 C   0  0  0  0  0  0  0  0  0  0  0  0
   43.4272    7.1309   11.5136 O   0  0  0  0  0  0  0  0  0  0  0  0
   46.2860    5.8643   13.3201 C   0  0  0  0  0  0  0  0  0  0  0  0
   45.0393    5.9575   12.7192 C   0  0  0  0  0  0  0  0  0  0  0  0
   49.5494   12.1535    8.7920 C   0  0  0  0  0  0  0  0  0  0  0  0
   48.4986   13.7483    7.3899 C   0  0  0  0  0  0  0  0  0  0  0  0
   46.8795   11.4912   11.2065 Ca  0  0  0  0  0 15  0  0  0  0  0  0
   47.1235   13.4270   12.4419 H   0  0  0  0  0  0  0  0  0  0  0  0
   46.5076   11.0601   13.2523 H   0  0  0  0  0  0  0  0  0  0  0  0
   48.7242   13.1436    9.9053 H   0  0  0  0  0  0  0  0  0  0  0  0
   47.9772   11.1503   10.5815 H   0  0  0  0  0  0  0  0  0  0  0  0
   44.2176   14.0426   10.9326 H   0  0  0  0  0  0  0  0  0  0  0  0
   43.1628   11.2451   10.7163 H   0  0  0  0  0  0  0  0  0  0  0  0
   49.0754    9.6534   11.9949 H   0  0  0  0  0  0  0  0  0  0  0  0
   49.4077   12.3450   12.2343 H   0  0  0  0  0  0  0  0  0  0  0  0
   44.9279   15.4406    6.2766 H   0  0  0  0  0  0  0  0  0  0  0  0
   45.0521   13.9539    7.1681 H   0  0  0  0  0  0  0  0  0  0  0  0
   48.1604    8.1202   14.2455 H   0  0  0  0  0  0  0  0  0  0  0  0
   46.7870    9.1545   14.6776 H   0  0  0  0  0  0  0  0  0  0  0  0
   48.3761    9.8509   14.3000 H   0  0  0  0  0  0  0  0  0  0  0  0
   47.8593    6.5360   12.5235 H   0  0  0  0  0  0  0  0  0  0  0  0
   42.4239    6.3941   11.1453 H   0  0  0  0  0  0  0  0  0  0  0  0
   46.4148    4.6030   12.0676 H   0  0  0  0  0  0  0  0  0  0  0  0
   44.0619    4.9386   11.4074 H   0  0  0  0  0  0  0  0  0  0  0  0
   50.9206   13.4582   10.0509 H   0  0  0  0  0  0  0  0  0  0  0  0
   50.8467   15.2140   10.3628 H   0  0  0  0  0  0  0  0  0  0  0  0
   51.6395   14.1250   11.5010 H   0  0  0  0  0  0  0  0  0  0  0  0
   48.4991   14.8552   13.2232 H   0  0  0  0  0  0  0  0  0  0  0  0
   50.2341   15.0103   13.2792 H   0  0  0  0  0  0  0  0  0  0  0  0
   49.3213   16.0557   12.1994 H   0  0  0  0  0  0  0  0  0  0  0  0
   48.1496   13.7776   11.8324 H   0  0  0  0  0  0  0  0  0  0  0  0
   47.0065   11.1890   13.2984 H   0  0  0  0  0  0  0  0  0  0  0  0
   46.8434   13.1900    9.1547 H   0  0  0  0  0  0  0  0  0  0  0  0
   48.1763   11.1491   10.4891 H   0  0  0  0  0  0  0  0  0  0  0  0
   44.9957   13.5422   13.1399 H   0  0  0  0  0  0  0  0  0  0  0  0
   43.7868   11.1397   10.3158 H   0  0  0  0  0  0  0  0  0  0  0  0
   48.7139    8.0318   11.4031 H   0  0  0  0  0  0  0  0  0  0  0  0
   49.8566   10.9240   11.7356 H   0  0  0  0  0  0  0  0  0  0  0  0
   44.6481   18.2569   11.6362 H   0  0  0  0  0  0  0  0  0  0  0  0
   44.6954   16.6220   12.2363 H   0  0  0  0  0  0  0  0  0  0  0  0
   49.2565   10.3130   13.9326 H   0  0  0  0  0  0  0  0  0  0  0  0
   47.9831    9.4428   14.7832 H   0  0  0  0  0  0  0  0  0  0  0  0
   49.3335    8.5830   13.9942 H   0  0  0  0  0  0  0  0  0  0  0  0
   48.1347    6.8228   13.7493 H   0  0  0  0  0  0  0  0  0  0  0  0
   43.3183    7.9691   11.0100 H   0  0  0  0  0  0  0  0  0  0  0  0
   46.5866    4.9396   13.8084 H   0  0  0  0  0  0  0  0  0  0  0  0
   44.3549    5.1133   12.7382 H   0  0  0  0  0  0  0  0  0  0  0  0
   48.8916   11.3082    8.5596 H   0  0  0  0  0  0  0  0  0  0  0  0
   50.0794   11.9938    9.7312 H   0  0  0  0  0  0  0  0  0  0  0  0
   50.3514   12.1423    8.0390 H   0  0  0  0  0  0  0  0  0  0  0  0
   47.7793   13.0260    6.9759 H   0  0  0  0  0  0  0  0  0  0  0  0
   48.0640   14.7447    7.2657 H   0  0  0  0  0  0  0  0  0  0  0  0
   49.3926   13.7393    6.7550 H   0  0  0  0  0  0  0  0  0  0  0  0
  2  5  2  0
  3  1  1  0
  4  7  1  0
  5  1  1  0
  6  2  1  0
  7  1  1  0
  8  4  2  0
  9  2  1  0
 10  6  1  0
  3 11  1  0
 12  3  1  0
 13  9  1  0
 14 13  2  0
 15  4  1  0
 16  8  1  0
 11 17  1  0
 18  7  2  0
 19  9  2  0
 20 13  1  0
  1 21  1  6
 22 15  2  0
 23  5  1  0
 10 24  1  1
 12 25  1  0
 26 15  1  0
 10 27  1  0
 28 14  1  0
 29 20  1  0
 30 31  1  0
 31 20  2  0
 32 17  1  0
 33 17  1  0
 12  6  1  0
 11  8  1  0
 10 14  1  0
 30 28  2  0
 35 38  2  0
 36 34  1  0
 37 40  1  0
 38 34  1  0
 39 35  1  0
 40 34  1  0
 41 37  2  0
 42 35  1  0
 43 39  1  0
 36 44  1  0
 45 36  1  0
 46 42  1  0
 47 46  2  0
 48 37  1  0
 49 41  1  0
 44 50  1  0
 51 40  2  0
 52 42  2  0
 53 46  1  0
 34 54  1  6
 55 48  2  0
 56 38  1  0
 43 57  1  1
 45 58  1  0
 59 48  1  0
 43 60  1  0
 61 47  1  0
 62 53  1  0
 63 64  1  0
 64 53  2  0
 65 50  1  0
 66 50  1  0
 45 39  1  0
 44 41  1  0
 43 47  1  0
 63 61  2  0
  3 68  1  6
  6 69  1  6
 11 70  1  1
 12 71  1  1
 21 72  1  0
 23 73  1  0
 24 74  1  0
 25 75  1  0
 26 76  1  0
 26 77  1  0
 27 78  1  0
 27 79  1  0
 27 80  1  0
 28 81  1  0
 29 82  1  0
 30 83  1  0
 31 84  1  0
 32 85  1  0
 32 86  1  0
 32 87  1  0
 33 88  1  0
 33 89  1  0
 33 90  1  0
 36 91  1  6
 39 92  1  6
 44 93  1  1
 45 94  1  1
 54 95  1  0
 56 96  1  0
 57 97  1  0
 58 98  1  0
 59 99  1  0
 59100  1  0
 60101  1  0
 60102  1  0
 60103  1  0
 61104  1  0
 62105  1  0
 63106  1  0
 64107  1  0
 65108  1  0
 65109  1  0
 65110  1  0
 66111  1  0
 66112  1  0
 66113  1  0
M  CHG  3  16  -1  49  -1  67   2
M  END
> <Uni-Dock RESULT> 
ENERGY=   -6.421  LOWER_BOUND=    6.048  UPPER_BOUND=    9.946
INTER + INTRA:          -6.421
INTER:                  -6.421
INTRA:                   0.000
UNBOUND:                 0.000

$$$$

     RDKit          3D

113118  0  0  0  0  0  0  0  0999 V2000
   50.5972    8.7957   12.1683 C   0  0  2  0  0  0  0  0  0  0  0  0
   49.1582    7.3859   13.7111 C   0  0  0  0  0  0  0  0  0  0  0  0
   51.3403    9.3528   13.3935 C   0  0  2  0  0  0  0  0  0  0  0  0
   52.6317    9.1092   10.6547 C   0  0  0  0  0  0  0  0  0  0  0  0
   49.4660    7.8179   12.4685 C   0  0  0  0  0  0  0  0  0  0  0  0
   49.8512    7.9152   14.9332 C   0  0  1  0  0  0  0  0  0  0  0  0
   51.6365    8.1542   11.2266 C   0  0  0  0  0  0  0  0  0  0  0  0
   53.1670    9.9786   11.5568 C   0  0  0  0  0  0  0  0  0  0  0  0
   48.0010    6.4724   13.8901 C   0  0  0  0  0  0  0  0  0  0  0  0
   49.7848    7.0186   16.2199 C   0  0  1  0  0  0  0  0  0  0  0  0
   52.8535    9.6876   13.0733 C   0  0  1  0  0  0  0  0  0  0  0  0
   51.2891    8.3579   14.5824 C   0  0  2  0  0  0  0  0  0  0  0  0
   48.0338    5.5443   15.0443 C   0  0  0  0  0  0  0  0  0  0  0  0
   48.8864    5.7928   16.1325 C   0  0  0  0  0  0  0  0  0  0  0  0
   52.9481    9.0416    9.1833 C   0  0  0  0  0  0  0  0  0  0  0  0
   53.9882   10.9203   11.3745 O   0  0  0  0  0  0  0  0  0  0  0  0
   53.4016   10.5012   14.2165 N   0  0  0  0  0  0  0  0  0  0  0  0
   51.6763    6.9533   10.9469 O   0  0  0  0  0  0  0  0  0  0  0  0
   47.0711    6.5088   13.0861 O   0  0  0  0  0  0  0  0  0  0  0  0
   47.2188    4.3906   15.0519 C   0  0  0  0  0  0  0  0  0  0  0  0
   49.9325    9.8880   11.5058 O   0  0  0  0  0  0  0  0  0  0  0  0
   53.6990    9.7651    8.5364 O   0  0  0  0  0  0  0  0  0  0  0  0
   48.6985    7.4961   11.3485 O   0  0  0  0  0  0  0  0  0  0  0  0
   51.0837    6.5081   16.5650 O   0  0  0  0  0  0  0  0  0  0  0  0
   51.8681    8.9164   15.7712 O   0  0  0  0  0  0  0  0  0  0  0  0
   52.3395    8.0102    8.5073 N   0  0  0  0  0  0  0  0  0  0  0  0
   49.3211    7.8864   17.4139 C   0  0  0  0  0  0  0  0  0  0  0  0
   48.9028    4.8607   17.1976 C   0  0  0  0  0  0  0  0  0  0  0  0
   46.4104    4.0927   13.9890 O   0  0  0  0  0  0  0  0  0  0  0  0
   48.0867    3.7329   17.1982 C   0  0  0  0  0  0  0  0  0  0  0  0
   47.2397    3.4964   16.1254 C   0  0  0  0  0  0  0  0  0  0  0  0
   54.8601   10.3839   14.3192 C   0  0  0  0  0  0  0  0  0  0  0  0
   53.0254   11.9184   14.1522 C   0  0  0  0  0  0  0  0  0  0  0  0
   50.3682    9.4284   12.6908 C   0  0  2  0  0  0  0  0  0  0  0  0
   49.4958    7.4927   13.9811 C   0  0  0  0  0  0  0  0  0  0  0  0
   51.7643    9.3152   13.3639 C   0  0  2  0  0  0  0  0  0  0  0  0
   51.6107   10.5389   10.6813 C   0  0  0  0  0  0  0  0  0  0  0  0
   49.6092    8.1000   12.7788 C   0  0  0  0  0  0  0  0  0  0  0  0
   50.2272    8.0937   15.1557 C   0  0  1  0  0  0  0  0  0  0  0  0
   50.3430   10.0550   11.2808 C   0  0  0  0  0  0  0  0  0  0  0  0
   52.7847   10.1218   11.2255 C   0  0  0  0  0  0  0  0  0  0  0  0
   48.6791    6.2746   14.1316 C   0  0  0  0  0  0  0  0  0  0  0  0
   50.2324    7.2420   16.4742 C   0  0  1  0  0  0  0  0  0  0  0  0
   52.7538    8.8573   12.2172 C   0  0  1  0  0  0  0  0  0  0  0  0
   51.6660    8.4082   14.6264 C   0  0  2  0  0  0  0  0  0  0  0  0
   48.3715    5.7859   15.4901 C   0  0  0  0  0  0  0  0  0  0  0  0
   49.0715    6.2594   16.6116 C   0  0  0  0  0  0  0  0  0  0  0  0
   51.5595   11.6340    9.6480 C   0  0  0  0  0  0  0  0  0  0  0  0
   53.9291   10.6525   11.0999 O   0  0  0  0  0  0  0  0  0  0  0  0
   54.1144    8.2665   12.4464 N   0  0  0  0  0  0  0  0  0  0  0  0
   49.2548   10.3236   10.7424 O   0  0  0  0  0  0  0  0  0  0  0  0
   48.2163    5.6910   13.1507 O   0  0  0  0  0  0  0  0  0  0  0  0
   47.3537    4.8215   15.6473 C   0  0  0  0  0  0  0  0  0  0  0  0
   49.5412   10.3650   13.4461 O   0  0  0  0  0  0  0  0  0  0  0  0
   52.2370   11.6987    8.6244 O   0  0  0  0  0  0  0  0  0  0  0  0
   49.0388    7.6135   11.6193 O   0  0  0  0  0  0  0  0  0  0  0  0
   51.4354    6.4540   16.5367 O   0  0  0  0  0  0  0  0  0  0  0  0
   52.4487    8.9817   15.6775 O   0  0  0  0  0  0  0  0  0  0  0  0
   50.5912   12.5872    9.8515 N   0  0  0  0  0  0  0  0  0  0  0  0
   50.2718    8.2084   17.6847 C   0  0  0  0  0  0  0  0  0  0  0  0
   48.7274    5.7209   17.8720 C   0  0  0  0  0  0  0  0  0  0  0  0
   46.6257    4.3067   14.6049 O   0  0  0  0  0  0  0  0  0  0  0  0
   47.7119    4.7727   18.0171 C   0  0  0  0  0  0  0  0  0  0  0  0
   47.0222    4.3228   16.9009 C   0  0  0  0  0  0  0  0  0  0  0  0
   54.3476    7.3693   13.5524 C   0  0  0  0  0  0  0  0  0  0  0  0
   54.6217    7.6355   11.2142 C   0  0  0  0  0  0  0  0  0  0  0  0
   50.7552    7.9777   13.9003 Ca  0  0  0  0  0 15  0  0  0  0  0  0
   50.8331   10.2772   13.7013 H   0  0  0  0  0  0  0  0  0  0  0  0
   49.2933    8.8348   15.1802 H   0  0  0  0  0  0  0  0  0  0  0  0
   53.3639    8.7173   13.2120 H   0  0  0  0  0  0  0  0  0  0  0  0
   51.8834    7.4699   14.3257 H   0  0  0  0  0  0  0  0  0  0  0  0
   49.3856    9.4751   10.8096 H   0  0  0  0  0  0  0  0  0  0  0  0
   47.8971    7.0159   11.6593 H   0  0  0  0  0  0  0  0  0  0  0  0
   51.6680    7.2934   16.6425 H   0  0  0  0  0  0  0  0  0  0  0  0
   52.5253    9.5919   15.4617 H   0  0  0  0  0  0  0  0  0  0  0  0
   52.7105    7.8341    7.5863 H   0  0  0  0  0  0  0  0  0  0  0  0
   51.9667    7.2253    9.0342 H   0  0  0  0  0  0  0  0  0  0  0  0
   49.3674    7.3416   18.3623 H   0  0  0  0  0  0  0  0  0  0  0  0
   48.2941    8.2411   17.2753 H   0  0  0  0  0  0  0  0  0  0  0  0
   49.9710    8.7594   17.5436 H   0  0  0  0  0  0  0  0  0  0  0  0
   49.5833    5.0152   18.0353 H   0  0  0  0  0  0  0  0  0  0  0  0
   45.7985    3.3779   14.2330 H   0  0  0  0  0  0  0  0  0  0  0  0
   48.1251    3.0392   18.0353 H   0  0  0  0  0  0  0  0  0  0  0  0
   46.6236    2.6032   16.1276 H   0  0  0  0  0  0  0  0  0  0  0  0
   55.1708    9.3309   14.3534 H   0  0  0  0  0  0  0  0  0  0  0  0
   55.4125   10.8881   13.5154 H   0  0  0  0  0  0  0  0  0  0  0  0
   55.1947   10.8257   15.2642 H   0  0  0  0  0  0  0  0  0  0  0  0
   51.9362   12.0462   14.1446 H   0  0  0  0  0  0  0  0  0  0  0  0
   53.3691   12.4217   15.0629 H   0  0  0  0  0  0  0  0  0  0  0  0
   53.4473   12.4702   13.3068 H   0  0  0  0  0  0  0  0  0  0  0  0
   52.0765   10.3121   13.7076 H   0  0  0  0  0  0  0  0  0  0  0  0
   49.7122    9.0271   15.4151 H   0  0  0  0  0  0  0  0  0  0  0  0
   52.2190    8.0596   11.6759 H   0  0  0  0  0  0  0  0  0  0  0  0
   52.0933    7.4381   14.3816 H   0  0  0  0  0  0  0  0  0  0  0  0
   48.7649   10.5217   12.8705 H   0  0  0  0  0  0  0  0  0  0  0  0
   48.5848    6.7691   11.8241 H   0  0  0  0  0  0  0  0  0  0  0  0
   51.2479    5.6164   16.9909 H   0  0  0  0  0  0  0  0  0  0  0  0
   52.7740    8.2315   16.2079 H   0  0  0  0  0  0  0  0  0  0  0  0
   50.4865   13.2623    9.1108 H   0  0  0  0  0  0  0  0  0  0  0  0
   49.7894   12.3504   10.4214 H   0  0  0  0  0  0  0  0  0  0  0  0
   51.0008    9.0104   17.5531 H   0  0  0  0  0  0  0  0  0  0  0  0
   49.2954    8.6830   17.8472 H   0  0  0  0  0  0  0  0  0  0  0  0
   50.5779    7.7007   18.6059 H   0  0  0  0  0  0  0  0  0  0  0  0
   49.2587    6.0195   18.7748 H   0  0  0  0  0  0  0  0  0  0  0  0
   47.0138    4.6445   13.7663 H   0  0  0  0  0  0  0  0  0  0  0  0
   47.4659    4.3820   19.0024 H   0  0  0  0  0  0  0  0  0  0  0  0
   46.2303    3.5855   17.0038 H   0  0  0  0  0  0  0  0  0  0  0  0
   53.7055    6.4819   13.5177 H   0  0  0  0  0  0  0  0  0  0  0  0
   54.2603    7.8816   14.5108 H   0  0  0  0  0  0  0  0  0  0  0  0
   55.3856    7.0050   13.5491 H   0  0  0  0  0  0  0  0  0  0  0  0
   54.0541    6.7264   10.9653 H   0  0  0  0  0  0  0  0  0  0  0  0
   54.5910    8.2865   10.3353 H   0  0  0  0  0  0  0  0  0  0  0  0
   55.6753    7.3563   11.3331 H   0  0  0  0  0  0  0  0  0  0  0  0
  2  5  2  0
  3  1  1  0
  4  7  1  0
  5  1  1  0
  6  2  1  0
  7  1  1  0
  8  4  2  0
  9  2  1  0
 10  6  1  0
  3 11  1  0
 12  3  1  0
 13  9  1  0
 14 13  2  0
 15  4  1  0
 16  8  1  0
 11 17  1  0
 18  7  2  0
 19  9  2  0
 20 13  1  0
  1 21  1  6
 22 15  2  0
 23  5  1  0
 10 24  1  1
 12 25  1  0
 26 15  1  0
 10 27  1  0
 28 14  1  0
 29 20  1  0
 30 31  1  0
 31 20  2  0
 32 17  1  0
 33 17  1  0
 12  6  1  0
 11  8  1  0
 10 14  1  0
 30 28  2  0
 35 38  2  0
 36 34  1  0
 37 40  1  0
 38 34  1  0
 39 35  1  0
 40 34  1  0
 41 37  2  0
 42 35  1  0
 43 39  1  0
 36 44  1  0
 45 36  1  0
 46 42  1  0
 47 46  2  0
 48 37  1  0
 49 41  1  0
 44 50  1  0
 51 40  2  0
 52 42  2  0
 53 46  1  0
 34 54  1  6
 55 48  2  0
 56 38  1  0
 43 57  1  1
 45 58  1  0
 59 48  1  0
 43 60  1  0
 61 47  1  0
 62 53  1  0
 63 64  1  0
 64 53  2  0
 65 50  1  0
 66 50  1  0
 45 39  1  0
 44 41  1  0
 43 47  1  0
 63 61  2  0
  3 68  1  6
  6 69  1  6
 11 70  1  1
 12 71  1  1
 21 72  1  0
 23 73  1  0
 24 74  1  0
 25 75  1  0
 26 76  1  0
 26 77  1  0
 27 78  1  0
 27 79  1  0
 27 80  1  0
 28 81  1  0
 29 82  1  0
 30 83  1  0
 31 84  1  0
 32 85  1  0
 32 86  1  0
 32 87  1  0
 33 88  1  0
 33 89  1  0
 33 90  1  0
 36 91  1  6
 39 92  1  6
 44 93  1  1
 45 94  1  1
 54 95  1  0
 56 96  1  0
 57 97  1  0
 58 98  1  0
 59 99  1  0
 59100  1  0
 60101  1  0
 60102  1  0
 60103  1  0
 61104  1  0
 62105  1  0
 63106  1  0
 64107  1  0
 65108  1  0
 65109  1  0
 65110  1  0
 66111  1  0
 66112  1  0
 66113  1  0
M  CHG  3  16  -1  49  -1  67   2
M  END
> <Uni-Dock RESULT> 
ENERGY=   -6.187  LOWER_BOUND=    3.819  UPPER_BOUND=    7.421
INTER + INTRA:          -6.187
INTER:                  -6.187
INTRA:                   0.000
UNBOUND:                 0.000

$$$$

     RDKit          3D

113118  0  0  0  0  0  0  0  0999 V2000
   48.7589   13.9295   14.5531 C   0  0  2  0  0  0  0  0  0  0  0  0
   48.4088   12.8156   16.8059 C   0  0  0  0  0  0  0  0  0  0  0  0
   49.4764   12.6644   14.0549 C   0  0  2  0  0  0  0  0  0  0  0  0
   47.9707   14.5415   12.2010 C   0  0  0  0  0  0  0  0  0  0  0  0
   48.2894   13.8962   16.0038 C   0  0  0  0  0  0  0  0  0  0  0  0
   49.1140   11.5670   16.3612 C   0  0  1  0  0  0  0  0  0  0  0  0
   47.5775   14.2170   13.6045 C   0  0  0  0  0  0  0  0  0  0  0  0
   48.9154   13.7152   11.6710 C   0  0  0  0  0  0  0  0  0  0  0  0
   47.9629   12.9147   18.2191 C   0  0  0  0  0  0  0  0  0  0  0  0
   48.7648   10.2498   17.1404 C   0  0  1  0  0  0  0  0  0  0  0  0
   49.2568   12.4235   12.5063 C   0  0  1  0  0  0  0  0  0  0  0  0
   49.0014   11.4069   14.8288 C   0  0  2  0  0  0  0  0  0  0  0  0
   47.5131   11.6695   18.8839 C   0  0  0  0  0  0  0  0  0  0  0  0
   47.8765   10.4157   18.3654 C   0  0  0  0  0  0  0  0  0  0  0  0
   47.3213   15.7134   11.5120 C   0  0  0  0  0  0  0  0  0  0  0  0
   49.4770   13.7583   10.5409 O   0  0  0  0  0  0  0  0  0  0  0  0
   50.2302   11.3649   12.0578 N   0  0  0  0  0  0  0  0  0  0  0  0
   46.3908   14.1880   13.9401 O   0  0  0  0  0  0  0  0  0  0  0  0
   47.9739   14.0081   18.7819 O   0  0  0  0  0  0  0  0  0  0  0  0
   46.6995   11.7334   20.0366 C   0  0  0  0  0  0  0  0  0  0  0  0
   49.6962   15.0225   14.5265 O   0  0  0  0  0  0  0  0  0  0  0  0
   47.5471   16.1510   10.3881 O   0  0  0  0  0  0  0  0  0  0  0  0
   47.8261   15.1286   16.4657 O   0  0  0  0  0  0  0  0  0  0  0  0
   48.0701    9.3157   16.2967 O   0  0  0  0  0  0  0  0  0  0  0  0
   49.7524   10.2396   14.4631 O   0  0  0  0  0  0  0  0  0  0  0  0
   46.3280   16.3318   12.2346 N   0  0  0  0  0  0  0  0  0  0  0  0
   50.0795    9.5587   17.5738 C   0  0  0  0  0  0  0  0  0  0  0  0
   47.3973    9.2555   19.0196 C   0  0  0  0  0  0  0  0  0  0  0  0
   46.2883   12.9363   20.5424 O   0  0  0  0  0  0  0  0  0  0  0  0
   46.6047    9.3317   20.1615 C   0  0  0  0  0  0  0  0  0  0  0  0
   46.2560   10.5723   20.6750 C   0  0  0  0  0  0  0  0  0  0  0  0
   49.7631   10.6697   10.8536 C   0  0  0  0  0  0  0  0  0  0  0  0
   51.5855   11.8813   11.8331 C   0  0  0  0  0  0  0  0  0  0  0  0
   49.5689   13.6927   14.6701 C   0  0  2  0  0  0  0  0  0  0  0  0
   48.5053   12.4644   16.5498 C   0  0  0  0  0  0  0  0  0  0  0  0
   49.3172   12.5145   13.6885 C   0  0  2  0  0  0  0  0  0  0  0  0
   49.5438   15.2351   12.5640 C   0  0  0  0  0  0  0  0  0  0  0  0
   48.6102   13.6245   15.8637 C   0  0  0  0  0  0  0  0  0  0  0  0
   49.2483   11.2586   16.0301 C   0  0  1  0  0  0  0  0  0  0  0  0
   49.6579   15.0970   14.0367 C   0  0  0  0  0  0  0  0  0  0  0  0
   49.0350   14.1934   11.8537 C   0  0  0  0  0  0  0  0  0  0  0  0
   47.6829   12.3875   17.7709 C   0  0  0  0  0  0  0  0  0  0  0  0
   48.9310    9.8946   16.7390 C   0  0  1  0  0  0  0  0  0  0  0  0
   48.2445   13.0447   12.6532 C   0  0  1  0  0  0  0  0  0  0  0  0
   48.9592   11.2293   14.4924 C   0  0  2  0  0  0  0  0  0  0  0  0
   47.7909   11.1911   18.6288 C   0  0  0  0  0  0  0  0  0  0  0  0
   48.4096   10.0172   18.1691 C   0  0  0  0  0  0  0  0  0  0  0  0
   50.1900   16.4163   11.8883 C   0  0  0  0  0  0  0  0  0  0  0  0
   49.1584   13.9680   10.6123 O   0  0  0  0  0  0  0  0  0  0  0  0
   47.4213   12.1720   11.7513 N   0  0  0  0  0  0  0  0  0  0  0  0
   50.0116   16.0670   14.7295 O   0  0  0  0  0  0  0  0  0  0  0  0
   46.9487   13.3178   18.1059 O   0  0  0  0  0  0  0  0  0  0  0  0
   47.2538   11.2432   19.9324 C   0  0  0  0  0  0  0  0  0  0  0  0
   50.8944   13.5517   15.2657 O   0  0  0  0  0  0  0  0  0  0  0  0
   49.7144   17.0747   10.9656 O   0  0  0  0  0  0  0  0  0  0  0  0
   47.9317   14.7779   16.2034 O   0  0  0  0  0  0  0  0  0  0  0  0
   47.9162    9.1897   16.0003 O   0  0  0  0  0  0  0  0  0  0  0  0
   49.6212   10.1073   13.9015 O   0  0  0  0  0  0  0  0  0  0  0  0
   51.3804   16.8271   12.4376 N   0  0  0  0  0  0  0  0  0  0  0  0
   50.2030    9.0109   16.6988 C   0  0  0  0  0  0  0  0  0  0  0  0
   48.4491    8.9118   19.0487 C   0  0  0  0  0  0  0  0  0  0  0  0
   46.6326   12.3486   20.4557 O   0  0  0  0  0  0  0  0  0  0  0  0
   47.9219    8.9774   20.3405 C   0  0  0  0  0  0  0  0  0  0  0  0
   47.3234   10.1476   20.7839 C   0  0  0  0  0  0  0  0  0  0  0  0
   46.9284   10.8971   12.2144 C   0  0  0  0  0  0  0  0  0  0  0  0
   46.2948   12.9317   11.1789 C   0  0  0  0  0  0  0  0  0  0  0  0
   48.5715   12.1435   15.2381 Ca  0  0  0  0  0 15  0  0  0  0  0  0
   50.5511   12.7930   14.2418 H   0  0  0  0  0  0  0  0  0  0  0  0
   50.1773   11.7690   16.5763 H   0  0  0  0  0  0  0  0  0  0  0  0
   48.2924   11.8853   12.4665 H   0  0  0  0  0  0  0  0  0  0  0  0
   47.9532   11.2061   14.5670 H   0  0  0  0  0  0  0  0  0  0  0  0
   49.2356   15.7698   14.9554 H   0  0  0  0  0  0  0  0  0  0  0  0
   47.7181   15.0639   17.4422 H   0  0  0  0  0  0  0  0  0  0  0  0
   48.6442    9.1869   15.5106 H   0  0  0  0  0  0  0  0  0  0  0  0
   50.0757   10.4029   13.5397 H   0  0  0  0  0  0  0  0  0  0  0  0
   45.7542   16.9675   11.7023 H   0  0  0  0  0  0  0  0  0  0  0  0
   45.9032   15.8380   13.0147 H   0  0  0  0  0  0  0  0  0  0  0  0
   49.9006    8.5755   18.0207 H   0  0  0  0  0  0  0  0  0  0  0  0
   50.6306   10.1669   18.2992 H   0  0  0  0  0  0  0  0  0  0  0  0
   50.7324    9.3764   16.7125 H   0  0  0  0  0  0  0  0  0  0  0  0
   47.6373    8.2727   18.6132 H   0  0  0  0  0  0  0  0  0  0  0  0
   45.8950   12.8049   21.4216 H   0  0  0  0  0  0  0  0  0  0  0  0
   46.2561    8.4183   20.6386 H   0  0  0  0  0  0  0  0  0  0  0  0
   45.6206   10.6191   21.5535 H   0  0  0  0  0  0  0  0  0  0  0  0
   48.7429   10.2857   10.9891 H   0  0  0  0  0  0  0  0  0  0  0  0
   49.7919   11.2778    9.9399 H   0  0  0  0  0  0  0  0  0  0  0  0
   50.3922    9.7910   10.6739 H   0  0  0  0  0  0  0  0  0  0  0  0
   51.9941   12.3476   12.7377 H   0  0  0  0  0  0  0  0  0  0  0  0
   52.2559   11.0431   11.6120 H   0  0  0  0  0  0  0  0  0  0  0  0
   51.6785   12.5886   11.0035 H   0  0  0  0  0  0  0  0  0  0  0  0
   50.2465   12.3023   13.1401 H   0  0  0  0  0  0  0  0  0  0  0  0
   50.3166   11.4356   16.2061 H   0  0  0  0  0  0  0  0  0  0  0  0
   47.4875   13.5648   13.2628 H   0  0  0  0  0  0  0  0  0  0  0  0
   47.8866   11.0660   14.4115 H   0  0  0  0  0  0  0  0  0  0  0  0
   51.0499   14.4069   15.7164 H   0  0  0  0  0  0  0  0  0  0  0  0
   47.3654   14.5906   16.9814 H   0  0  0  0  0  0  0  0  0  0  0  0
   47.3687    8.6759   16.6162 H   0  0  0  0  0  0  0  0  0  0  0  0
   49.0390    9.3414   14.0572 H   0  0  0  0  0  0  0  0  0  0  0  0
   51.7632   17.6767   12.0545 H   0  0  0  0  0  0  0  0  0  0  0  0
   51.5800   16.5848   13.3996 H   0  0  0  0  0  0  0  0  0  0  0  0
   50.6814    9.0149   15.7174 H   0  0  0  0  0  0  0  0  0  0  0  0
   50.9511    9.3568   17.4241 H   0  0  0  0  0  0  0  0  0  0  0  0
   49.9777    7.9572   16.8959 H   0  0  0  0  0  0  0  0  0  0  0  0
   48.8816    7.9616   18.7381 H   0  0  0  0  0  0  0  0  0  0  0  0
   46.5446   13.0166   19.7387 H   0  0  0  0  0  0  0  0  0  0  0  0
   47.9738    8.1109   20.9966 H   0  0  0  0  0  0  0  0  0  0  0  0
   46.9106   10.2085   21.7874 H   0  0  0  0  0  0  0  0  0  0  0  0
   46.2928   10.9884   13.1024 H   0  0  0  0  0  0  0  0  0  0  0  0
   47.7404   10.1891   12.3820 H   0  0  0  0  0  0  0  0  0  0  0  0
   46.3172   10.4090   11.4407 H   0  0  0  0  0  0  0  0  0  0  0  0
   45.5463   13.1797   11.9462 H   0  0  0  0  0  0  0  0  0  0  0  0
   46.5886   13.8700   10.6988 H   0  0  0  0  0  0  0  0  0  0  0  0
   45.7976   12.3471   10.3957 H   0  0  0  0  0  0  0  0  0  0  0  0
  2  5  2  0
  3  1  1  0
  4  7  1  0
  5  1  1  0
  6  2  1  0
  7  1  1  0
  8  4  2  0
  9  2  1  0
 10  6  1  0
  3 11  1  0
 12  3  1  0
 13  9  1  0
 14 13  2  0
 15  4  1  0
 16  8  1  0
 11 17  1  0
 18  7  2  0
 19  9  2  0
 20 13  1  0
  1 21  1  6
 22 15  2  0
 23  5  1  0
 10 24  1  1
 12 25  1  0
 26 15  1  0
 10 27  1  0
 28 14  1  0
 29 20  1  0
 30 31  1  0
 31 20  2  0
 32 17  1  0
 33 17  1  0
 12  6  1  0
 11  8  1  0
 10 14  1  0
 30 28  2  0
 35 38  2  0
 36 34  1  0
 37 40  1  0
 38 34  1  0
 39 35  1  0
 40 34  1  0
 41 37  2  0
 42 35  1  0
 43 39  1  0
 36 44  1  0
 45 36  1  0
 46 42  1  0
 47 46  2  0
 48 37  1  0
 49 41  1  0
 44 50  1  0
 51 40  2  0
 52 42  2  0
 53 46  1  0
 34 54  1  6
 55 48  2  0
 56 38  1  0
 43 57  1  1
 45 58  1  0
 59 48  1  0
 43 60  1  0
 61 47  1  0
 62 53  1  0
 63 64  1  0
 64 53  2  0
 65 50  1  0
 66 50  1  0
 45 39  1  0
 44 41  1  0
 43 47  1  0
 63 61  2  0
  3 68  1  6
  6 69  1  6
 11 70  1  1
 12 71  1  1
 21 72  1  0
 23 73  1  0
 24 74  1  0
 25 75  1  0
 26 76  1  0
 26 77  1  0
 27 78  1  0
 27 79  1  0
 27 80  1  0
 28 81  1  0
 29 82  1  0
 30 83  1  0
 31 84  1  0
 32 85  1  0
 32 86  1  0
 32 87  1  0
 33 88  1  0
 33 89  1  0
 33 90  1  0
 36 91  1  6
 39 92  1  6
 44 93  1  1
 45 94  1  1
 54 95  1  0
 56 96  1  0
 57 97  1  0
 58 98  1  0
 59 99  1  0
 59100  1  0
 60101  1  0
 60102  1  0
 60103  1  0
 61104  1  0
 62105  1  0
 63106  1  0
 64107  1  0
 65108  1  0
 65109  1  0
 65110  1  0
 66111  1  0
 66112  1  0
 66113  1  0
M  CHG  3  16  -1  49  -1  67   2
M  END
> <Uni-Dock RESULT> 
ENERGY=   -5.947  LOWER_BOUND=    5.087  UPPER_BOUND=    9.479
INTER + INTRA:          -5.947
INTER:                  -5.947
INTRA:                   0.000
UNBOUND:                 0.000

$$$$

     RDKit          3D

113118  0  0  0  0  0  0  0  0999 V2000
   49.3579    8.7535   16.0150 C   0  0  2  0  0  0  0  0  0  0  0  0
   48.4839    7.6815   18.1423 C   0  0  0  0  0  0  0  0  0  0  0  0
   49.0218   10.1385   16.5917 C   0  0  2  0  0  0  0  0  0  0  0  0
   51.2576    9.6885   14.5850 C   0  0  0  0  0  0  0  0  0  0  0  0
   48.9958    7.5636   16.8976 C   0  0  0  0  0  0  0  0  0  0  0  0
   48.1302    9.0145   18.7355 C   0  0  1  0  0  0  0  0  0  0  0  0
   50.8584    8.7320   15.6598 C   0  0  0  0  0  0  0  0  0  0  0  0
   50.7406   10.9417   14.7201 C   0  0  0  0  0  0  0  0  0  0  0  0
   48.1202    6.4515   18.8911 C   0  0  0  0  0  0  0  0  0  0  0  0
   48.0315    9.0809   20.3007 C   0  0  1  0  0  0  0  0  0  0  0  0
   50.0246   11.2546   16.0884 C   0  0  1  0  0  0  0  0  0  0  0  0
   49.0325   10.1194   18.1426 C   0  0  2  0  0  0  0  0  0  0  0  0
   48.1664    6.5121   20.3706 C   0  0  0  0  0  0  0  0  0  0  0  0
   48.1423    7.7506   21.0325 C   0  0  0  0  0  0  0  0  0  0  0  0
   52.1601    9.2093   13.4779 C   0  0  0  0  0  0  0  0  0  0  0  0
   50.8558   11.9439   13.9607 O   0  0  0  0  0  0  0  0  0  0  0  0
   49.4427   12.5975   16.4452 N   0  0  0  0  0  0  0  0  0  0  0  0
   51.6922    8.0004   16.1997 O   0  0  0  0  0  0  0  0  0  0  0  0
   47.8040    5.4372   18.2718 O   0  0  0  0  0  0  0  0  0  0  0  0
   48.2527    5.3230   21.1281 C   0  0  0  0  0  0  0  0  0  0  0  0
   48.5631    8.5502   14.8314 O   0  0  0  0  0  0  0  0  0  0  0  0
   52.5538    9.8344   12.4981 O   0  0  0  0  0  0  0  0  0  0  0  0
   49.1348    6.3330   16.2546 O   0  0  0  0  0  0  0  0  0  0  0  0
   49.0753    9.9010   20.8528 O   0  0  0  0  0  0  0  0  0  0  0  0
   48.5974   11.3709   18.6949 O   0  0  0  0  0  0  0  0  0  0  0  0
   52.6195    7.9212   13.6224 N   0  0  0  0  0  0  0  0  0  0  0  0
   46.6923    9.7496   20.6921 C   0  0  0  0  0  0  0  0  0  0  0  0
   48.2184    7.7567   22.4460 C   0  0  0  0  0  0  0  0  0  0  0  0
   48.3246    4.1017   20.5156 O   0  0  0  0  0  0  0  0  0  0  0  0
   48.2922    6.5773   23.1818 C   0  0  0  0  0  0  0  0  0  0  0  0
   48.3066    5.3561   22.5239 C   0  0  0  0  0  0  0  0  0  0  0  0
   50.4797   13.6289   16.5566 C   0  0  0  0  0  0  0  0  0  0  0  0
   48.4021   13.0450   15.5118 C   0  0  0  0  0  0  0  0  0  0  0  0
   48.6096    9.1607   16.0274 C   0  0  2  0  0  0  0  0  0  0  0  0
   48.5399    8.1030   18.2745 C   0  0  0  0  0  0  0  0  0  0  0  0
   49.3513   10.4094   16.5802 C   0  0  2  0  0  0  0  0  0  0  0  0
   49.7214    9.7214   13.7329 C   0  0  0  0  0  0  0  0  0  0  0  0
   48.7991    7.9564   16.9559 C   0  0  0  0  0  0  0  0  0  0  0  0
   48.1929    9.4797   18.7845 C   0  0  1  0  0  0  0  0  0  0  0  0
   48.8522    8.8302   14.5397 C   0  0  0  0  0  0  0  0  0  0  0  0
   50.5379   10.5919   14.3840 C   0  0  0  0  0  0  0  0  0  0  0  0
   48.5991    6.9438   19.1835 C   0  0  0  0  0  0  0  0  0  0  0  0
   48.1046    9.6356   20.3439 C   0  0  1  0  0  0  0  0  0  0  0  0
   50.8024   10.3555   15.9517 C   0  0  1  0  0  0  0  0  0  0  0  0
   49.2469   10.4364   18.1341 C   0  0  2  0  0  0  0  0  0  0  0  0
   48.0689    7.0848   20.5538 C   0  0  0  0  0  0  0  0  0  0  0  0
   47.7959    8.3476   21.1041 C   0  0  0  0  0  0  0  0  0  0  0  0
   49.5143    9.7907   12.2423 C   0  0  0  0  0  0  0  0  0  0  0  0
   51.0872   11.6354   13.9185 O   0  0  0  0  0  0  0  0  0  0  0  0
   51.9855   11.1248   16.4627 N   0  0  0  0  0  0  0  0  0  0  0  0
   48.1774    7.9456   13.9844 O   0  0  0  0  0  0  0  0  0  0  0  0
   49.0384    5.8573   18.8049 O   0  0  0  0  0  0  0  0  0  0  0  0
   47.8408    5.9182   21.3138 C   0  0  0  0  0  0  0  0  0  0  0  0
   47.1703    9.4051   16.0457 O   0  0  0  0  0  0  0  0  0  0  0  0
   50.3969    9.8444   11.3884 O   0  0  0  0  0  0  0  0  0  0  0  0
   49.1863    6.7624   16.3807 O   0  0  0  0  0  0  0  0  0  0  0  0
   49.3632   10.1120   20.8549 O   0  0  0  0  0  0  0  0  0  0  0  0
   49.0053   11.7791   18.5643 O   0  0  0  0  0  0  0  0  0  0  0  0
   48.2087    9.6910   11.8264 N   0  0  0  0  0  0  0  0  0  0  0  0
   47.0523   10.7247   20.6712 C   0  0  0  0  0  0  0  0  0  0  0  0
   47.3116    8.3915   22.4310 C   0  0  0  0  0  0  0  0  0  0  0  0
   48.0832    4.6495   20.8518 O   0  0  0  0  0  0  0  0  0  0  0  0
   47.0811    7.2295   23.1712 C   0  0  0  0  0  0  0  0  0  0  0  0
   47.3455    5.9889   22.6099 C   0  0  0  0  0  0  0  0  0  0  0  0
   52.1747   11.3234   17.8796 C   0  0  0  0  0  0  0  0  0  0  0  0
   53.2370   10.5947   15.8911 C   0  0  0  0  0  0  0  0  0  0  0  0
   49.1757    9.2252   17.8693 Ca  0  0  0  0  0 15  0  0  0  0  0  0
   48.0079   10.4020   16.2616 H   0  0  0  0  0  0  0  0  0  0  0  0
   47.1103    9.2113   18.3628 H   0  0  0  0  0  0  0  0  0  0  0  0
   50.8715   11.1728   16.7934 H   0  0  0  0  0  0  0  0  0  0  0  0
   50.0639    9.9610   18.4868 H   0  0  0  0  0  0  0  0  0  0  0  0
   48.7222    7.6230   14.5681 H   0  0  0  0  0  0  0  0  0  0  0  0
   48.7145    5.6467   16.8219 H   0  0  0  0  0  0  0  0  0  0  0  0
   49.0010   10.7693   20.4004 H   0  0  0  0  0  0  0  0  0  0  0  0
   48.8056   12.0572   18.0097 H   0  0  0  0  0  0  0  0  0  0  0  0
   53.3809    7.6749   13.0089 H   0  0  0  0  0  0  0  0  0  0  0  0
   52.5763    7.4803   14.5370 H   0  0  0  0  0  0  0  0  0  0  0  0
   46.6198    9.9280   21.7697 H   0  0  0  0  0  0  0  0  0  0  0  0
   45.8362    9.1365   20.3905 H   0  0  0  0  0  0  0  0  0  0  0  0
   46.5909   10.7349   20.2228 H   0  0  0  0  0  0  0  0  0  0  0  0
   48.2376    8.7082   22.9781 H   0  0  0  0  0  0  0  0  0  0  0  0
   48.1989    3.3973   21.1736 H   0  0  0  0  0  0  0  0  0  0  0  0
   48.3476    6.6209   24.2674 H   0  0  0  0  0  0  0  0  0  0  0  0
   48.3854    4.4445   23.1072 H   0  0  0  0  0  0  0  0  0  0  0  0
   51.2805   13.3126   17.2387 H   0  0  0  0  0  0  0  0  0  0  0  0
   50.9288   13.9245   15.5993 H   0  0  0  0  0  0  0  0  0  0  0  0
   50.0477   14.5324   17.0007 H   0  0  0  0  0  0  0  0  0  0  0  0
   47.5746   12.3274   15.4569 H   0  0  0  0  0  0  0  0  0  0  0  0
   47.9564   13.9718   15.8902 H   0  0  0  0  0  0  0  0  0  0  0  0
   48.7515   13.2531   14.4961 H   0  0  0  0  0  0  0  0  0  0  0  0
   48.8507   11.3153   16.2084 H   0  0  0  0  0  0  0  0  0  0  0  0
   47.1896    9.7202   18.4114 H   0  0  0  0  0  0  0  0  0  0  0  0
   51.1211    9.3048   16.0510 H   0  0  0  0  0  0  0  0  0  0  0  0
   50.2037   10.1203   18.5442 H   0  0  0  0  0  0  0  0  0  0  0  0
   46.7926    8.6683   15.5231 H   0  0  0  0  0  0  0  0  0  0  0  0
   49.2615    6.0851   17.0854 H   0  0  0  0  0  0  0  0  0  0  0  0
   49.5108    9.7431   21.7410 H   0  0  0  0  0  0  0  0  0  0  0  0
   49.4268   11.8589   19.4394 H   0  0  0  0  0  0  0  0  0  0  0  0
   48.0755    9.6340   10.8294 H   0  0  0  0  0  0  0  0  0  0  0  0
   47.5360    9.2507   12.4409 H   0  0  0  0  0  0  0  0  0  0  0  0
   47.1606   11.6103   20.0420 H   0  0  0  0  0  0  0  0  0  0  0  0
   46.0313   10.3483   20.5260 H   0  0  0  0  0  0  0  0  0  0  0  0
   47.1513   11.0966   21.6968 H   0  0  0  0  0  0  0  0  0  0  0  0
   47.1163    9.3414   22.9270 H   0  0  0  0  0  0  0  0  0  0  0  0
   48.5279    4.7238   19.9772 H   0  0  0  0  0  0  0  0  0  0  0  0
   46.7012    7.2962   24.1887 H   0  0  0  0  0  0  0  0  0  0  0  0
   47.1691    5.0792   23.1778 H   0  0  0  0  0  0  0  0  0  0  0  0
   52.2482   10.3793   18.4313 H   0  0  0  0  0  0  0  0  0  0  0  0
   51.4030   11.9675   18.3017 H   0  0  0  0  0  0  0  0  0  0  0  0
   53.1061   11.8747   18.0769 H   0  0  0  0  0  0  0  0  0  0  0  0
   53.4683    9.5951   16.2883 H   0  0  0  0  0  0  0  0  0  0  0  0
   53.2295   10.5151   14.7998 H   0  0  0  0  0  0  0  0  0  0  0  0
   54.0773   11.2577   16.1290 H   0  0  0  0  0  0  0  0  0  0  0  0
  2  5  2  0
  3  1  1  0
  4  7  1  0
  5  1  1  0
  6  2  1  0
  7  1  1  0
  8  4  2  0
  9  2  1  0
 10  6  1  0
  3 11  1  0
 12  3  1  0
 13  9  1  0
 14 13  2  0
 15  4  1  0
 16  8  1  0
 11 17  1  0
 18  7  2  0
 19  9  2  0
 20 13  1  0
  1 21  1  6
 22 15  2  0
 23  5  1  0
 10 24  1  1
 12 25  1  0
 26 15  1  0
 10 27  1  0
 28 14  1  0
 29 20  1  0
 30 31  1  0
 31 20  2  0
 32 17  1  0
 33 17  1  0
 12  6  1  0
 11  8  1  0
 10 14  1  0
 30 28  2  0
 35 38  2  0
 36 34  1  0
 37 40  1  0
 38 34  1  0
 39 35  1  0
 40 34  1  0
 41 37  2  0
 42 35  1  0
 43 39  1  0
 36 44  1  0
 45 36  1  0
 46 42  1  0
 47 46  2  0
 48 37  1  0
 49 41  1  0
 44 50  1  0
 51 40  2  0
 52 42  2  0
 53 46  1  0
 34 54  1  6
 55 48  2  0
 56 38  1  0
 43 57  1  1
 45 58  1  0
 59 48  1  0
 43 60  1  0
 61 47  1  0
 62 53  1  0
 63 64  1  0
 64 53  2  0
 65 50  1  0
 66 50  1  0
 45 39  1  0
 44 41  1  0
 43 47  1  0
 63 61  2  0
  3 68  1  6
  6 69  1  6
 11 70  1  1
 12 71  1  1
 21 72  1  0
 23 73  1  0
 24 74  1  0
 25 75  1  0
 26 76  1  0
 26 77  1  0
 27 78  1  0
 27 79  1  0
 27 80  1  0
 28 81  1  0
 29 82  1  0
 30 83  1  0
 31 84  1  0
 32 85  1  0
 32 86  1  0
 32 87  1  0
 33 88  1  0
 33 89  1  0
 33 90  1  0
 36 91  1  6
 39 92  1  6
 44 93  1  1
 45 94  1  1
 54 95  1  0
 56 96  1  0
 57 97  1  0
 58 98  1  0
 59 99  1  0
 59100  1  0
 60101  1  0
 60102  1  0
 60103  1  0
 61104  1  0
 62105  1  0
 63106  1  0
 64107  1  0
 65108  1  0
 65109  1  0
 65110  1  0
 66111  1  0
 66112  1  0
 66113  1  0
M  CHG  3  16  -1  49  -1  67   2
M  END
> <Uni-Dock RESULT> 
ENERGY=   -5.909  LOWER_BOUND=    3.313  UPPER_BOUND=    7.090
INTER + INTRA:          -5.909
INTER:                  -5.909
INTRA:                   0.000
UNBOUND:                 0.000

$$$$

     RDKit          3D

113118  0  0  0  0  0  0  0  0999 V2000
   51.2457   12.5344    9.3723 C   0  0  2  0  0  0  0  0  0  0  0  0
   49.8105   11.1737   10.9620 C   0  0  0  0  0  0  0  0  0  0  0  0
   52.4499   11.6440    9.7198 C   0  0  2  0  0  0  0  0  0  0  0  0
   52.1549   13.0422    7.0391 C   0  0  0  0  0  0  0  0  0  0  0  0
   49.9502   12.2130   10.1101 C   0  0  0  0  0  0  0  0  0  0  0  0
   50.9646   10.2897   11.3367 C   0  0  1  0  0  0  0  0  0  0  0  0
   51.0317   12.4792    7.8461 C   0  0  0  0  0  0  0  0  0  0  0  0
   53.3951   12.6430    7.4371 C   0  0  0  0  0  0  0  0  0  0  0  0
   48.5154   10.9875   11.6647 C   0  0  0  0  0  0  0  0  0  0  0  0
   50.6053    8.8696   11.9007 C   0  0  1  0  0  0  0  0  0  0  0  0
   53.4437   11.4800    8.4992 C   0  0  1  0  0  0  0  0  0  0  0  0
   51.9929   10.2367   10.1850 C   0  0  2  0  0  0  0  0  0  0  0  0
   48.1463    9.6100   12.0660 C   0  0  0  0  0  0  0  0  0  0  0  0
   49.1279    8.6097   12.1598 C   0  0  0  0  0  0  0  0  0  0  0  0
   51.8400   13.9739    5.8979 C   0  0  0  0  0  0  0  0  0  0  0  0
   54.5279   12.9770    6.9903 O   0  0  0  0  0  0  0  0  0  0  0  0
   54.7185   10.8665    9.0167 N   0  0  0  0  0  0  0  0  0  0  0  0
   50.0292   12.0128    7.2991 O   0  0  0  0  0  0  0  0  0  0  0  0
   47.7991   11.9632   11.8823 O   0  0  0  0  0  0  0  0  0  0  0  0
   46.7991    9.2869   12.3413 C   0  0  0  0  0  0  0  0  0  0  0  0
   51.5439   13.8816    9.7848 O   0  0  0  0  0  0  0  0  0  0  0  0
   52.6261   14.5600    5.1602 O   0  0  0  0  0  0  0  0  0  0  0  0
   48.9483   13.1639    9.9125 O   0  0  0  0  0  0  0  0  0  0  0  0
   51.0156    7.8316   10.9946 O   0  0  0  0  0  0  0  0  0  0  0  0
   53.0979    9.4375   10.6329 O   0  0  0  0  0  0  0  0  0  0  0  0
   50.4994   14.1450    5.6434 N   0  0  0  0  0  0  0  0  0  0  0  0
   51.3854    8.6392   13.2168 C   0  0  0  0  0  0  0  0  0  0  0  0
   48.7204    7.3024   12.5185 C   0  0  0  0  0  0  0  0  0  0  0  0
   45.8105   10.2243   12.2155 O   0  0  0  0  0  0  0  0  0  0  0  0
   47.3908    6.9991   12.7979 C   0  0  0  0  0  0  0  0  0  0  0  0
   46.4263    7.9925   12.7127 C   0  0  0  0  0  0  0  0  0  0  0  0
   55.4528   10.1621    7.9602 C   0  0  0  0  0  0  0  0  0  0  0  0
   55.6055   11.8366    9.6694 C   0  0  0  0  0  0  0  0  0  0  0  0
   51.7712   12.5824   10.0412 C   0  0  2  0  0  0  0  0  0  0  0  0
   50.1582   10.9015   10.9047 C   0  0  0  0  0  0  0  0  0  0  0  0
   52.6431   11.4814    9.3758 C   0  0  2  0  0  0  0  0  0  0  0  0
   52.7267   14.2011    8.2296 C   0  0  0  0  0  0  0  0  0  0  0  0
   50.3413   12.0823   10.2725 C   0  0  0  0  0  0  0  0  0  0  0  0
   51.3755   10.0772   11.2431 C   0  0  1  0  0  0  0  0  0  0  0  0
   51.8324   13.9812    9.3926 C   0  0  0  0  0  0  0  0  0  0  0  0
   53.2010   13.1149    7.5633 C   0  0  0  0  0  0  0  0  0  0  0  0
   48.8016   10.4378   11.2486 C   0  0  0  0  0  0  0  0  0  0  0  0
   51.0998    8.6305   11.7861 C   0  0  1  0  0  0  0  0  0  0  0  0
   52.4854   11.6981    7.8164 C   0  0  1  0  0  0  0  0  0  0  0  0
   52.2511   10.0859    9.9460 C   0  0  2  0  0  0  0  0  0  0  0  0
   48.6518    9.2814   12.1537 C   0  0  0  0  0  0  0  0  0  0  0  0
   49.7363    8.4387   12.4464 C   0  0  0  0  0  0  0  0  0  0  0  0
   53.2524   15.5876    7.9633 C   0  0  0  0  0  0  0  0  0  0  0  0
   54.2047   13.0566    6.7911 O   0  0  0  0  0  0  0  0  0  0  0  0
   52.8323   10.6783    6.7713 N   0  0  0  0  0  0  0  0  0  0  0  0
   51.2902   14.9485    9.9553 O   0  0  0  0  0  0  0  0  0  0  0  0
   47.8018   11.0241   10.8322 O   0  0  0  0  0  0  0  0  0  0  0  0
   47.3865    9.0295   12.7249 C   0  0  0  0  0  0  0  0  0  0  0  0
   52.2774   12.8555   11.3831 O   0  0  0  0  0  0  0  0  0  0  0  0
   53.3707   16.1202    6.8618 O   0  0  0  0  0  0  0  0  0  0  0  0
   49.3061   12.8958    9.8568 O   0  0  0  0  0  0  0  0  0  0  0  0
   51.1568    7.6869   10.7003 O   0  0  0  0  0  0  0  0  0  0  0  0
   53.4383    9.3183   10.1638 O   0  0  0  0  0  0  0  0  0  0  0  0
   53.5316   16.3337    9.0827 N   0  0  0  0  0  0  0  0  0  0  0  0
   52.2366    8.2474   12.7666 C   0  0  0  0  0  0  0  0  0  0  0  0
   49.4984    7.3417   13.3050 C   0  0  0  0  0  0  0  0  0  0  0  0
   46.2776    9.8017   12.4886 O   0  0  0  0  0  0  0  0  0  0  0  0
   48.2435    7.1068   13.8719 C   0  0  0  0  0  0  0  0  0  0  0  0
   47.1847    7.9545   13.5816 C   0  0  0  0  0  0  0  0  0  0  0  0
   52.5825    9.2760    7.0035 C   0  0  0  0  0  0  0  0  0  0  0  0
   52.2504   11.0499    5.4685 C   0  0  0  0  0  0  0  0  0  0  0  0
   51.2019   10.7404   10.0606 Ca  0  0  0  0  0 15  0  0  0  0  0  0
   52.9890   12.1187   10.5508 H   0  0  0  0  0  0  0  0  0  0  0  0
   51.4543   10.8264   12.1674 H   0  0  0  0  0  0  0  0  0  0  0  0
   53.0023   10.6479    7.9214 H   0  0  0  0  0  0  0  0  0  0  0  0
   51.5450    9.7104    9.3306 H   0  0  0  0  0  0  0  0  0  0  0  0
   50.7160   14.3829    9.6520 H   0  0  0  0  0  0  0  0  0  0  0  0
   48.2262   12.9798   10.5560 H   0  0  0  0  0  0  0  0  0  0  0  0
   51.9732    7.9788   10.8350 H   0  0  0  0  0  0  0  0  0  0  0  0
   53.8949    9.7833   10.1542 H   0  0  0  0  0  0  0  0  0  0  0  0
   50.2919   14.5880    4.7617 H   0  0  0  0  0  0  0  0  0  0  0  0
   49.8360   13.4681    6.0100 H   0  0  0  0  0  0  0  0  0  0  0  0
   51.2634    7.6194   13.5954 H   0  0  0  0  0  0  0  0  0  0  0  0
   51.0621    9.3336   13.9999 H   0  0  0  0  0  0  0  0  0  0  0  0
   52.4629    8.7704   13.0654 H   0  0  0  0  0  0  0  0  0  0  0  0
   49.4603    6.5028   12.5620 H   0  0  0  0  0  0  0  0  0  0  0  0
   44.9881    9.8880   12.6098 H   0  0  0  0  0  0  0  0  0  0  0  0
   47.1150    5.9831   13.0721 H   0  0  0  0  0  0  0  0  0  0  0  0
   45.3902    7.7393   12.9125 H   0  0  0  0  0  0  0  0  0  0  0  0
   54.8067    9.4393    7.4439 H   0  0  0  0  0  0  0  0  0  0  0  0
   55.9122   10.8211    7.2118 H   0  0  0  0  0  0  0  0  0  0  0  0
   56.2609    9.5742    8.4090 H   0  0  0  0  0  0  0  0  0  0  0  0
   55.1091   12.3334   10.5117 H   0  0  0  0  0  0  0  0  0  0  0  0
   56.4567   11.3044   10.1087 H   0  0  0  0  0  0  0  0  0  0  0  0
   56.0189   12.6030    9.0068 H   0  0  0  0  0  0  0  0  0  0  0  0
   53.6967   11.6524    9.6403 H   0  0  0  0  0  0  0  0  0  0  0  0
   51.9030   10.5957   12.0533 H   0  0  0  0  0  0  0  0  0  0  0  0
   51.4081   11.8689    7.6562 H   0  0  0  0  0  0  0  0  0  0  0  0
   51.6511    9.5703    9.1990 H   0  0  0  0  0  0  0  0  0  0  0  0
   51.8067   13.6684   11.6590 H   0  0  0  0  0  0  0  0  0  0  0  0
   48.4566   12.4565   10.0724 H   0  0  0  0  0  0  0  0  0  0  0  0
   50.5317    6.9634   10.8700 H   0  0  0  0  0  0  0  0  0  0  0  0
   53.1841    8.3879   10.0235 H   0  0  0  0  0  0  0  0  0  0  0  0
   53.7851   17.2935    8.9105 H   0  0  0  0  0  0  0  0  0  0  0  0
   53.0767   16.0912    9.9533 H   0  0  0  0  0  0  0  0  0  0  0  0
   53.2245    8.5029   12.3784 H   0  0  0  0  0  0  0  0  0  0  0  0
   52.1239    8.7646   13.7284 H   0  0  0  0  0  0  0  0  0  0  0  0
   52.2775    7.1676   12.9465 H   0  0  0  0  0  0  0  0  0  0  0  0
   50.2891    6.6306   13.5406 H   0  0  0  0  0  0  0  0  0  0  0  0
   46.5067   10.4588   11.7931 H   0  0  0  0  0  0  0  0  0  0  0  0
   48.0939    6.2571   14.5349 H   0  0  0  0  0  0  0  0  0  0  0  0
   46.2047    7.7802   14.0181 H   0  0  0  0  0  0  0  0  0  0  0  0
   51.5259    9.0635    7.2021 H   0  0  0  0  0  0  0  0  0  0  0  0
   53.2197    8.8799    7.7946 H   0  0  0  0  0  0  0  0  0  0  0  0
   52.8624    8.6774    6.1239 H   0  0  0  0  0  0  0  0  0  0  0  0
   51.1542   10.9555    5.4765 H   0  0  0  0  0  0  0  0  0  0  0  0
   52.4846   12.0705    5.1510 H   0  0  0  0  0  0  0  0  0  0  0  0
   52.6415   10.4013    4.6757 H   0  0  0  0  0  0  0  0  0  0  0  0
  2  5  2  0
  3  1  1  0
  4  7  1  0
  5  1  1  0
  6  2  1  0
  7  1  1  0
  8  4  2  0
  9  2  1  0
 10  6  1  0
  3 11  1  0
 12  3  1  0
 13  9  1  0
 14 13  2  0
 15  4  1  0
 16  8  1  0
 11 17  1  0
 18  7  2  0
 19  9  2  0
 20 13  1  0
  1 21  1  6
 22 15  2  0
 23  5  1  0
 10 24  1  1
 12 25  1  0
 26 15  1  0
 10 27  1  0
 28 14  1  0
 29 20  1  0
 30 31  1  0
 31 20  2  0
 32 17  1  0
 33 17  1  0
 12  6  1  0
 11  8  1  0
 10 14  1  0
 30 28  2  0
 35 38  2  0
 36 34  1  0
 37 40  1  0
 38 34  1  0
 39 35  1  0
 40 34  1  0
 41 37  2  0
 42 35  1  0
 43 39  1  0
 36 44  1  0
 45 36  1  0
 46 42  1  0
 47 46  2  0
 48 37  1  0
 49 41  1  0
 44 50  1  0
 51 40  2  0
 52 42  2  0
 53 46  1  0
 34 54  1  6
 55 48  2  0
 56 38  1  0
 43 57  1  1
 45 58  1  0
 59 48  1  0
 43 60  1  0
 61 47  1  0
 62 53  1  0
 63 64  1  0
 64 53  2  0
 65 50  1  0
 66 50  1  0
 45 39  1  0
 44 41  1  0
 43 47  1  0
 63 61  2  0
  3 68  1  6
  6 69  1  6
 11 70  1  1
 12 71  1  1
 21 72  1  0
 23 73  1  0
 24 74  1  0
 25 75  1  0
 26 76  1  0
 26 77  1  0
 27 78  1  0
 27 79  1  0
 27 80  1  0
 28 81  1  0
 29 82  1  0
 30 83  1  0
 31 84  1  0
 32 85  1  0
 32 86  1  0
 32 87  1  0
 33 88  1  0
 33 89  1  0
 33 90  1  0
 36 91  1  6
 39 92  1  6
 44 93  1  1
 45 94  1  1
 54 95  1  0
 56 96  1  0
 57 97  1  0
 58 98  1  0
 59 99  1  0
 59100  1  0
 60101  1  0
 60102  1  0
 60103  1  0
 61104  1  0
 62105  1  0
 63106  1  0
 64107  1  0
 65108  1  0
 65109  1  0
 65110  1  0
 66111  1  0
 66112  1  0
 66113  1  0
M  CHG  3  16  -1  49  -1  67   2
M  END
> <Uni-Dock RESULT> 
ENERGY=   -5.506  LOWER_BOUND=    6.670  UPPER_BOUND=   10.664
INTER + INTRA:          -5.506
INTER:                  -5.506
INTRA:                   0.000
UNBOUND:                 0.000

$$$$
