
     RDKit          3D

113118  0  0  0  0  0  0  0  0999 V2000
   50.2098    6.7254   17.7393 C   0  0  2  0  0  0  0  0  0  0  0  0
   49.3248    8.7657   18.8566 C   0  0  0  0  0  0  0  0  0  0  0  0
   51.2314    6.5411   18.8659 C   0  0  2  0  0  0  0  0  0  0  0  0
   49.1150    4.4720   18.2556 C   0  0  0  0  0  0  0  0  0  0  0  0
   49.0753    7.6575   18.1229 C   0  0  0  0  0  0  0  0  0  0  0  0
   50.7560    9.1159   19.1532 C   0  0  1  0  0  0  0  0  0  0  0  0
   49.7371    5.3452   17.2397 C   0  0  0  0  0  0  0  0  0  0  0  0
   49.5147    4.6242   19.5437 C   0  0  0  0  0  0  0  0  0  0  0  0
   48.2117    9.6347   19.3038 C   0  0  0  0  0  0  0  0  0  0  0  0
   51.0239   10.4259   19.9781 C   0  0  1  0  0  0  0  0  0  0  0  0
   50.8665    5.3539   19.8344 C   0  0  1  0  0  0  0  0  0  0  0  0
   51.4907    7.8604   19.6815 C   0  0  2  0  0  0  0  0  0  0  0  0
   48.4903   10.7723   20.2060 C   0  0  0  0  0  0  0  0  0  0  0  0
   49.8000   11.1407   20.5303 C   0  0  0  0  0  0  0  0  0  0  0  0
   47.9298    3.6607   17.8807 C   0  0  0  0  0  0  0  0  0  0  0  0
   48.9334    4.2498   20.6050 O   0  0  0  0  0  0  0  0  0  0  0  0
   51.9896    4.3729   19.9933 N   0  0  0  0  0  0  0  0  0  0  0  0
   49.8196    5.0387   16.0437 O   0  0  0  0  0  0  0  0  0  0  0  0
   47.0520    9.4056   18.9514 O   0  0  0  0  0  0  0  0  0  0  0  0
   47.4074   11.4923   20.7561 C   0  0  0  0  0  0  0  0  0  0  0  0
   50.8865    7.3712   16.6341 O   0  0  0  0  0  0  0  0  0  0  0  0
   47.9837    2.4867   17.5144 O   0  0  0  0  0  0  0  0  0  0  0  0
   47.8108    7.3146   17.6737 O   0  0  0  0  0  0  0  0  0  0  0  0
   51.8454   10.1674   21.1269 O   0  0  0  0  0  0  0  0  0  0  0  0
   52.9055    8.1670   19.7112 O   0  0  0  0  0  0  0  0  0  0  0  0
   46.7390    4.3315   17.9912 N   0  0  0  0  0  0  0  0  0  0  0  0
   51.8243   11.4110   19.0839 C   0  0  0  0  0  0  0  0  0  0  0  0
   49.9791   12.2305   21.4157 C   0  0  0  0  0  0  0  0  0  0  0  0
   46.0888   11.1888   20.4954 O   0  0  0  0  0  0  0  0  0  0  0  0
   48.8988   12.9451   21.9433 C   0  0  0  0  0  0  0  0  0  0  0  0
   47.6017   12.5681   21.6140 C   0  0  0  0  0  0  0  0  0  0  0  0
   53.2012    4.9437   20.5513 C   0  0  0  0  0  0  0  0  0  0  0  0
   52.2589    3.5450   18.8205 C   0  0  0  0  0  0  0  0  0  0  0  0
   48.8830    8.6154   20.9475 C   0  0  2  0  0  0  0  0  0  0  0  0
   49.1679    6.8008   19.2655 C   0  0  0  0  0  0  0  0  0  0  0  0
   50.3923    8.8388   20.9107 C   0  0  2  0  0  0  0  0  0  0  0  0
   48.4425   10.8563   19.8244 C   0  0  0  0  0  0  0  0  0  0  0  0
   48.4028    7.7929   19.7682 C   0  0  0  0  0  0  0  0  0  0  0  0
   50.4229    6.3488   19.9767 C   0  0  1  0  0  0  0  0  0  0  0  0
   48.2462   10.0127   21.0278 C   0  0  0  0  0  0  0  0  0  0  0  0
   49.6260   10.6960   19.1679 C   0  0  0  0  0  0  0  0  0  0  0  0
   48.6919    6.0427   18.0821 C   0  0  0  0  0  0  0  0  0  0  0  0
   51.3717    5.4796   19.0772 C   0  0  1  0  0  0  0  0  0  0  0  0
   50.8154    9.9421   19.8686 C   0  0  1  0  0  0  0  0  0  0  0  0
   51.1782    7.5133   20.7003 C   0  0  2  0  0  0  0  0  0  0  0  0
   49.3162    4.7355   17.7868 C   0  0  0  0  0  0  0  0  0  0  0  0
   50.5802    4.4161   18.3101 C   0  0  0  0  0  0  0  0  0  0  0  0
   47.2973   11.7041   19.3325 C   0  0  0  0  0  0  0  0  0  0  0  0
   49.9541   11.0820   17.9983 O   0  0  0  0  0  0  0  0  0  0  0  0
   51.7792   10.8576   20.6078 N   0  0  0  0  0  0  0  0  0  0  0  0
   47.5951   10.3562   22.0161 O   0  0  0  0  0  0  0  0  0  0  0  0
   47.7957    6.4600   17.3556 O   0  0  0  0  0  0  0  0  0  0  0  0
   48.6286    3.8186   16.9755 C   0  0  0  0  0  0  0  0  0  0  0  0
   48.5419    7.8634   22.1291 O   0  0  0  0  0  0  0  0  0  0  0  0
   46.3934   12.1290   20.0421 O   0  0  0  0  0  0  0  0  0  0  0  0
   47.1557    8.1282   19.2657 O   0  0  0  0  0  0  0  0  0  0  0  0
   52.0080    6.3282   18.1125 O   0  0  0  0  0  0  0  0  0  0  0  0
   51.5984    6.9937   21.9878 O   0  0  0  0  0  0  0  0  0  0  0  0
   47.3256   12.0026   17.9921 N   0  0  0  0  0  0  0  0  0  0  0  0
   52.5210    4.8781   19.9142 C   0  0  0  0  0  0  0  0  0  0  0  0
   51.1054    3.1380   18.0223 C   0  0  0  0  0  0  0  0  0  0  0  0
   47.4222    4.0885   16.3901 O   0  0  0  0  0  0  0  0  0  0  0  0
   50.3915    2.2122   17.2483 C   0  0  0  0  0  0  0  0  0  0  0  0
   49.1560    2.5579   16.7218 C   0  0  0  0  0  0  0  0  0  0  0  0
   51.7847   12.2498   20.1432 C   0  0  0  0  0  0  0  0  0  0  0  0
   53.1520   10.3529   20.5367 C   0  0  0  0  0  0  0  0  0  0  0  0
   50.1428    7.7771   19.3814 Ca  0  0  0  0  0 15  0  0  0  0  0  0
   52.1757    6.2907   18.3638 H   0  0  0  0  0  0  0  0  0  0  0  0
   51.2037    9.3216   18.1698 H   0  0  0  0  0  0  0  0  0  0  0  0
   50.7453    5.7870   20.8377 H   0  0  0  0  0  0  0  0  0  0  0  0
   51.1932    7.7218   20.7289 H   0  0  0  0  0  0  0  0  0  0  0  0
   50.4227    7.0302   15.8380 H   0  0  0  0  0  0  0  0  0  0  0  0
   47.1620    7.9531   18.0432 H   0  0  0  0  0  0  0  0  0  0  0  0
   52.6058    9.6204   20.8255 H   0  0  0  0  0  0  0  0  0  0  0  0
   53.2870    7.8781   18.8643 H   0  0  0  0  0  0  0  0  0  0  0  0
   46.7518    5.0665   18.6922 H   0  0  0  0  0  0  0  0  0  0  0  0
   45.9338    3.7329   17.9931 H   0  0  0  0  0  0  0  0  0  0  0  0
   52.0997   12.3275   19.6158 H   0  0  0  0  0  0  0  0  0  0  0  0
   51.2541   11.6881   18.1947 H   0  0  0  0  0  0  0  0  0  0  0  0
   52.7691   10.9575   18.7632 H   0  0  0  0  0  0  0  0  0  0  0  0
   50.9853   12.5343   21.7124 H   0  0  0  0  0  0  0  0  0  0  0  0
   46.0772   10.3759   19.9446 H   0  0  0  0  0  0  0  0  0  0  0  0
   49.0668   13.7726   22.6242 H   0  0  0  0  0  0  0  0  0  0  0  0
   46.7526   13.1024   22.0314 H   0  0  0  0  0  0  0  0  0  0  0  0
   52.9931    5.5014   21.4710 H   0  0  0  0  0  0  0  0  0  0  0  0
   53.9026    4.1455   20.8355 H   0  0  0  0  0  0  0  0  0  0  0  0
   53.7249    5.6053   19.8507 H   0  0  0  0  0  0  0  0  0  0  0  0
   53.0931    2.8567   19.0123 H   0  0  0  0  0  0  0  0  0  0  0  0
   52.5299    4.1334   17.9360 H   0  0  0  0  0  0  0  0  0  0  0  0
   51.4062    2.9041   18.5697 H   0  0  0  0  0  0  0  0  0  0  0  0
   50.6527    9.2224   21.9096 H   0  0  0  0  0  0  0  0  0  0  0  0
   50.0593    5.6561   20.7553 H   0  0  0  0  0  0  0  0  0  0  0  0
   51.3705    9.4380   19.0636 H   0  0  0  0  0  0  0  0  0  0  0  0
   52.1134    7.7247   20.1722 H   0  0  0  0  0  0  0  0  0  0  0  0
   47.6880    8.2481   22.4192 H   0  0  0  0  0  0  0  0  0  0  0  0
   47.0870    7.7702   18.3518 H   0  0  0  0  0  0  0  0  0  0  0  0
   51.7704    6.0449   17.2115 H   0  0  0  0  0  0  0  0  0  0  0  0
   51.8148    7.7478   22.5614 H   0  0  0  0  0  0  0  0  0  0  0  0
   46.7985   12.7987   17.6833 H   0  0  0  0  0  0  0  0  0  0  0  0
   48.2491   11.8263   17.5651 H   0  0  0  0  0  0  0  0  0  0  0  0
   52.1562    4.1353   20.6336 H   0  0  0  0  0  0  0  0  0  0  0  0
   53.2778    4.4095   19.2734 H   0  0  0  0  0  0  0  0  0  0  0  0
   53.0780    5.6443   20.4593 H   0  0  0  0  0  0  0  0  0  0  0  0
   52.0812    2.8284   18.3835 H   0  0  0  0  0  0  0  0  0  0  0  0
   47.2351    5.0492   16.5133 H   0  0  0  0  0  0  0  0  0  0  0  0
   50.8213    1.2346   17.0339 H   0  0  0  0  0  0  0  0  0  0  0  0
   48.6109    1.8543   16.0946 H   0  0  0  0  0  0  0  0  0  0  0  0
   50.8081   12.7269   20.2717 H   0  0  0  0  0  0  0  0  0  0  0  0
   52.1241   12.3572   19.1096 H   0  0  0  0  0  0  0  0  0  0  0  0
   52.4658   12.8464   20.7674 H   0  0  0  0  0  0  0  0  0  0  0  0
   53.2452    9.3900   21.0434 H   0  0  0  0  0  0  0  0  0  0  0  0
   53.5090   10.2521   19.5049 H   0  0  0  0  0  0  0  0  0  0  0  0
   53.8377   11.0199   21.0729 H   0  0  0  0  0  0  0  0  0  0  0  0
  2  5  2  0
  3  1  1  0
  4  7  1  0
  5  1  1  0
  6  2  1  0
  7  1  1  0
  8  4  2  0
  9  2  1  0
 10  6  1  0
  3 11  1  0
 12  3  1  0
 13  9  1  0
 14 13  2  0
 15  4  1  0
 16  8  1  0
 11 17  1  0
 18  7  2  0
 19  9  2  0
 20 13  1  0
  1 21  1  6
 22 15  2  0
 23  5  1  0
 10 24  1  1
 12 25  1  0
 26 15  1  0
 10 27  1  0
 28 14  1  0
 29 20  1  0
 30 31  1  0
 31 20  2  0
 32 17  1  0
 33 17  1  0
 12  6  1  0
 11  8  1  0
 10 14  1  0
 30 28  2  0
 35 38  2  0
 36 34  1  0
 37 40  1  0
 38 34  1  0
 39 35  1  0
 40 34  1  0
 41 37  2  0
 42 35  1  0
 43 39  1  0
 36 44  1  0
 45 36  1  0
 46 42  1  0
 47 46  2  0
 48 37  1  0
 49 41  1  0
 44 50  1  0
 51 40  2  0
 52 42  2  0
 53 46  1  0
 34 54  1  1
 55 48  2  0
 56 38  1  0
 43 57  1  6
 45 58  1  0
 59 48  1  0
 43 60  1  0
 61 47  1  0
 62 53  1  0
 63 64  1  0
 64 53  2  0
 65 50  1  0
 66 50  1  0
 45 39  1  0
 44 41  1  0
 43 47  1  0
 63 61  2  0
  3 68  1  6
  6 69  1  6
 11 70  1  1
 12 71  1  1
 21 72  1  0
 23 73  1  0
 24 74  1  0
 25 75  1  0
 26 76  1  0
 26 77  1  0
 27 78  1  0
 27 79  1  0
 27 80  1  0
 28 81  1  0
 29 82  1  0
 30 83  1  0
 31 84  1  0
 32 85  1  0
 32 86  1  0
 32 87  1  0
 33 88  1  0
 33 89  1  0
 33 90  1  0
 36 91  1  1
 39 92  1  1
 44 93  1  6
 45 94  1  6
 54 95  1  0
 56 96  1  0
 57 97  1  0
 58 98  1  0
 59 99  1  0
 59100  1  0
 60101  1  0
 60102  1  0
 60103  1  0
 61104  1  0
 62105  1  0
 63106  1  0
 64107  1  0
 65108  1  0
 65109  1  0
 65110  1  0
 66111  1  0
 66112  1  0
 66113  1  0
M  CHG  3  16  -1  49  -1  67   2
M  END
> <Uni-Dock RESULT> 
ENERGY=   -4.691  LOWER_BOUND=    0.000  UPPER_BOUND=    0.000
INTER + INTRA:          -4.691
INTER:                  -4.691
INTRA:                   0.000
UNBOUND:                 0.000

$$$$

     RDKit          3D

113118  0  0  0  0  0  0  0  0999 V2000
   49.9899   10.3975   19.8042 C   0  0  2  0  0  0  0  0  0  0  0  0
   49.6158   11.9983   17.9356 C   0  0  0  0  0  0  0  0  0  0  0  0
   49.4817   11.4371   20.8081 C   0  0  2  0  0  0  0  0  0  0  0  0
   48.1146    8.7702   20.4189 C   0  0  0  0  0  0  0  0  0  0  0  0
   49.5941   10.7196   18.3750 C   0  0  0  0  0  0  0  0  0  0  0  0
   50.1723   13.0553   18.8478 C   0  0  1  0  0  0  0  0  0  0  0  0
   49.5672    8.9871   20.2625 C   0  0  0  0  0  0  0  0  0  0  0  0
   47.3512    9.8441   20.7447 C   0  0  0  0  0  0  0  0  0  0  0  0
   49.1521   12.3289   16.5681 C   0  0  0  0  0  0  0  0  0  0  0  0
   50.2191   14.5285   18.3038 C   0  0  1  0  0  0  0  0  0  0  0  0
   48.0430   11.1056   21.3565 C   0  0  1  0  0  0  0  0  0  0  0  0
   49.5361   12.9066   20.2507 C   0  0  2  0  0  0  0  0  0  0  0  0
   49.0678   13.7437   16.1475 C   0  0  0  0  0  0  0  0  0  0  0  0
   49.5567   14.7743   16.9567 C   0  0  0  0  0  0  0  0  0  0  0  0
   47.5268    7.4798   19.9797 C   0  0  0  0  0  0  0  0  0  0  0  0
   46.0993    9.9947   20.6232 O   0  0  0  0  0  0  0  0  0  0  0  0
   47.9882   11.0816   22.8550 N   0  0  0  0  0  0  0  0  0  0  0  0
   50.4051    8.0893   20.4144 O   0  0  0  0  0  0  0  0  0  0  0  0
   48.8127   11.4384   15.7849 O   0  0  0  0  0  0  0  0  0  0  0  0
   48.4718   14.0554   14.9060 C   0  0  0  0  0  0  0  0  0  0  0  0
   51.4372   10.4377   19.8250 O   0  0  0  0  0  0  0  0  0  0  0  0
   47.3237    6.5230   20.7272 O   0  0  0  0  0  0  0  0  0  0  0  0
   49.2341    9.6488   17.5738 O   0  0  0  0  0  0  0  0  0  0  0  0
   49.5722   15.4434   19.2015 O   0  0  0  0  0  0  0  0  0  0  0  0
   50.2750   13.7634   21.1543 O   0  0  0  0  0  0  0  0  0  0  0  0
   47.2052    7.4398   18.6474 N   0  0  0  0  0  0  0  0  0  0  0  0
   51.7047   14.9732   18.2254 C   0  0  0  0  0  0  0  0  0  0  0  0
   49.4204   16.1028   16.4877 C   0  0  0  0  0  0  0  0  0  0  0  0
   47.9577   13.1017   14.0546 O   0  0  0  0  0  0  0  0  0  0  0  0
   48.8409   16.3985   15.2496 C   0  0  0  0  0  0  0  0  0  0  0  0
   48.3577   15.3649   14.4551 C   0  0  0  0  0  0  0  0  0  0  0  0
   48.3393   12.3422   23.4816 C   0  0  0  0  0  0  0  0  0  0  0  0
   48.6628    9.9474   23.4810 C   0  0  0  0  0  0  0  0  0  0  0  0
   47.7188   12.9916   17.8710 C   0  0  2  0  0  0  0  0  0  0  0  0
   48.3669   10.9156   19.0847 C   0  0  0  0  0  0  0  0  0  0  0  0
   48.5152   13.7967   18.8942 C   0  0  2  0  0  0  0  0  0  0  0  0
   49.3818   13.5405   16.0244 C   0  0  0  0  0  0  0  0  0  0  0  0
   48.0681   11.5171   17.9138 C   0  0  0  0  0  0  0  0  0  0  0  0
   48.1700   11.6325   20.4009 C   0  0  1  0  0  0  0  0  0  0  0  0
   47.9845   13.6514   16.5078 C   0  0  0  0  0  0  0  0  0  0  0  0
   50.3504   13.5687   16.9827 C   0  0  0  0  0  0  0  0  0  0  0  0
   48.7495    9.4819   19.0897 C   0  0  0  0  0  0  0  0  0  0  0  0
   48.9144   10.9483   21.6020 C   0  0  1  0  0  0  0  0  0  0  0  0
   50.0005   14.0551   18.4370 C   0  0  1  0  0  0  0  0  0  0  0  0
   48.4488   13.1703   20.3162 C   0  0  2  0  0  0  0  0  0  0  0  0
   48.6857    8.7418   20.3679 C   0  0  0  0  0  0  0  0  0  0  0  0
   48.6978    9.4320   21.5914 C   0  0  0  0  0  0  0  0  0  0  0  0
   49.6290   13.2633   14.5635 C   0  0  0  0  0  0  0  0  0  0  0  0
   51.5796   13.2440   16.8917 O   0  0  0  0  0  0  0  0  0  0  0  0
   50.2508   15.5370   18.6713 N   0  0  0  0  0  0  0  0  0  0  0  0
   47.0728   14.1871   15.8750 O   0  0  0  0  0  0  0  0  0  0  0  0
   49.1024    8.8959   18.0714 O   0  0  0  0  0  0  0  0  0  0  0  0
   48.6139    7.3396   20.3418 C   0  0  0  0  0  0  0  0  0  0  0  0
   46.3143   13.0824   18.1830 O   0  0  0  0  0  0  0  0  0  0  0  0
   48.8586   13.5649   13.6597 O   0  0  0  0  0  0  0  0  0  0  0  0
   48.0542   10.8576   16.6951 O   0  0  0  0  0  0  0  0  0  0  0  0
   50.3226   11.1873   21.4764 O   0  0  0  0  0  0  0  0  0  0  0  0
   47.4011   13.8210   21.0799 O   0  0  0  0  0  0  0  0  0  0  0  0
   50.8204   12.6412   14.2808 N   0  0  0  0  0  0  0  0  0  0  0  0
   48.5069   11.5987   22.9414 C   0  0  0  0  0  0  0  0  0  0  0  0
   48.5970    8.6703   22.7754 C   0  0  0  0  0  0  0  0  0  0  0  0
   48.6543    6.6053   19.1884 O   0  0  0  0  0  0  0  0  0  0  0  0
   48.4804    7.2735   22.7377 C   0  0  0  0  0  0  0  0  0  0  0  0
   48.4950    6.6111   21.5194 C   0  0  0  0  0  0  0  0  0  0  0  0
   51.2255   16.1484   17.7602 C   0  0  0  0  0  0  0  0  0  0  0  0
   50.6949   15.7907   20.0435 C   0  0  0  0  0  0  0  0  0  0  0  0
   49.1360   12.0570   19.2349 Ca  0  0  0  0  0 15  0  0  0  0  0  0
   50.1840   11.3942   21.6515 H   0  0  0  0  0  0  0  0  0  0  0  0
   51.2301   12.7837   18.9787 H   0  0  0  0  0  0  0  0  0  0  0  0
   47.3940   11.9484   21.0782 H   0  0  0  0  0  0  0  0  0  0  0  0
   48.5242   13.3289   20.1993 H   0  0  0  0  0  0  0  0  0  0  0  0
   51.7047    9.5169   19.6112 H   0  0  0  0  0  0  0  0  0  0  0  0
   48.9365    9.9935   16.7033 H   0  0  0  0  0  0  0  0  0  0  0  0
   49.9062   15.2502   20.1067 H   0  0  0  0  0  0  0  0  0  0  0  0
   50.9802   13.2279   21.5568 H   0  0  0  0  0  0  0  0  0  0  0  0
   46.9841    8.3510   18.2567 H   0  0  0  0  0  0  0  0  0  0  0  0
   46.5844    6.6910   18.4013 H   0  0  0  0  0  0  0  0  0  0  0  0
   51.8118   16.0158   17.9089 H   0  0  0  0  0  0  0  0  0  0  0  0
   52.2681   14.3443   17.5329 H   0  0  0  0  0  0  0  0  0  0  0  0
   52.1765   14.9118   19.2127 H   0  0  0  0  0  0  0  0  0  0  0  0
   49.7679   16.9374   17.1005 H   0  0  0  0  0  0  0  0  0  0  0  0
   48.0277   12.2336   14.5084 H   0  0  0  0  0  0  0  0  0  0  0  0
   48.7449   17.4271   14.9190 H   0  0  0  0  0  0  0  0  0  0  0  0
   47.8882   15.5814   13.4994 H   0  0  0  0  0  0  0  0  0  0  0  0
   47.7715   13.1742   23.0506 H   0  0  0  0  0  0  0  0  0  0  0  0
   48.0792   12.3220   24.5502 H   0  0  0  0  0  0  0  0  0  0  0  0
   49.4090   12.5729   23.4096 H   0  0  0  0  0  0  0  0  0  0  0  0
   48.5819   10.0010   24.5751 H   0  0  0  0  0  0  0  0  0  0  0  0
   49.7322    9.9029   23.2435 H   0  0  0  0  0  0  0  0  0  0  0  0
   48.2001    8.9938   23.2027 H   0  0  0  0  0  0  0  0  0  0  0  0
   48.0174   14.7778   18.9416 H   0  0  0  0  0  0  0  0  0  0  0  0
   47.0967   11.5024   20.6231 H   0  0  0  0  0  0  0  0  0  0  0  0
   50.6560   13.4857   19.1126 H   0  0  0  0  0  0  0  0  0  0  0  0
   49.3693   13.4044   20.8602 H   0  0  0  0  0  0  0  0  0  0  0  0
   45.8766   13.1218   17.3065 H   0  0  0  0  0  0  0  0  0  0  0  0
   48.5819   10.0322   16.7872 H   0  0  0  0  0  0  0  0  0  0  0  0
   50.7978   10.3414   21.3920 H   0  0  0  0  0  0  0  0  0  0  0  0
   47.3784   14.7581   20.8235 H   0  0  0  0  0  0  0  0  0  0  0  0
   51.1762   12.7238   13.3462 H   0  0  0  0  0  0  0  0  0  0  0  0
   51.4872   12.6827   15.0682 H   0  0  0  0  0  0  0  0  0  0  0  0
   47.4575   11.3994   23.1890 H   0  0  0  0  0  0  0  0  0  0  0  0
   49.1390   11.2448   23.7649 H   0  0  0  0  0  0  0  0  0  0  0  0
   48.6629   12.6804   22.9381 H   0  0  0  0  0  0  0  0  0  0  0  0
   48.6122    9.1362   23.7557 H   0  0  0  0  0  0  0  0  0  0  0  0
   48.8952    7.2145   18.4510 H   0  0  0  0  0  0  0  0  0  0  0  0
   48.4113    6.7072   23.6654 H   0  0  0  0  0  0  0  0  0  0  0  0
   48.4358    5.5244   21.4854 H   0  0  0  0  0  0  0  0  0  0  0  0
   50.9002   16.0920   16.7167 H   0  0  0  0  0  0  0  0  0  0  0  0
   52.2315   15.7336   17.8648 H   0  0  0  0  0  0  0  0  0  0  0  0
   51.3006   17.2262   17.9664 H   0  0  0  0  0  0  0  0  0  0  0  0
   49.9189   15.5261   20.7648 H   0  0  0  0  0  0  0  0  0  0  0  0
   51.6163   15.2510   20.2927 H   0  0  0  0  0  0  0  0  0  0  0  0
   50.8717   16.8614   20.2013 H   0  0  0  0  0  0  0  0  0  0  0  0
  2  5  2  0
  3  1  1  0
  4  7  1  0
  5  1  1  0
  6  2  1  0
  7  1  1  0
  8  4  2  0
  9  2  1  0
 10  6  1  0
  3 11  1  0
 12  3  1  0
 13  9  1  0
 14 13  2  0
 15  4  1  0
 16  8  1  0
 11 17  1  0
 18  7  2  0
 19  9  2  0
 20 13  1  0
  1 21  1  6
 22 15  2  0
 23  5  1  0
 10 24  1  1
 12 25  1  0
 26 15  1  0
 10 27  1  0
 28 14  1  0
 29 20  1  0
 30 31  1  0
 31 20  2  0
 32 17  1  0
 33 17  1  0
 12  6  1  0
 11  8  1  0
 10 14  1  0
 30 28  2  0
 35 38  2  0
 36 34  1  0
 37 40  1  0
 38 34  1  0
 39 35  1  0
 40 34  1  0
 41 37  2  0
 42 35  1  0
 43 39  1  0
 36 44  1  0
 45 36  1  0
 46 42  1  0
 47 46  2  0
 48 37  1  0
 49 41  1  0
 44 50  1  0
 51 40  2  0
 52 42  2  0
 53 46  1  0
 34 54  1  1
 55 48  2  0
 56 38  1  0
 43 57  1  6
 45 58  1  0
 59 48  1  0
 43 60  1  0
 61 47  1  0
 62 53  1  0
 63 64  1  0
 64 53  2  0
 65 50  1  0
 66 50  1  0
 45 39  1  0
 44 41  1  0
 43 47  1  0
 63 61  2  0
  3 68  1  6
  6 69  1  6
 11 70  1  1
 12 71  1  1
 21 72  1  0
 23 73  1  0
 24 74  1  0
 25 75  1  0
 26 76  1  0
 26 77  1  0
 27 78  1  0
 27 79  1  0
 27 80  1  0
 28 81  1  0
 29 82  1  0
 30 83  1  0
 31 84  1  0
 32 85  1  0
 32 86  1  0
 32 87  1  0
 33 88  1  0
 33 89  1  0
 33 90  1  0
 36 91  1  1
 39 92  1  1
 44 93  1  6
 45 94  1  6
 54 95  1  0
 56 96  1  0
 57 97  1  0
 58 98  1  0
 59 99  1  0
 59100  1  0
 60101  1  0
 60102  1  0
 60103  1  0
 61104  1  0
 62105  1  0
 63106  1  0
 64107  1  0
 65108  1  0
 65109  1  0
 65110  1  0
 66111  1  0
 66112  1  0
 66113  1  0
M  CHG  3  16  -1  49  -1  67   2
M  END
> <Uni-Dock RESULT> 
ENERGY=   -4.537  LOWER_BOUND=    3.102  UPPER_BOUND=    5.674
INTER + INTRA:          -4.537
INTER:                  -4.537
INTRA:                   0.000
UNBOUND:                 0.000

$$$$

     RDKit          3D

113118  0  0  0  0  0  0  0  0999 V2000
   50.9002    8.3312   19.7936 C   0  0  2  0  0  0  0  0  0  0  0  0
   52.4349    6.4058   19.4303 C   0  0  0  0  0  0  0  0  0  0  0  0
   50.4899    8.2938   18.3181 C   0  0  2  0  0  0  0  0  0  0  0  0
   48.5034    7.8623   20.5542 C   0  0  0  0  0  0  0  0  0  0  0  0
   51.5711    7.0483   20.2486 C   0  0  0  0  0  0  0  0  0  0  0  0
   52.8135    7.0668   18.1346 C   0  0  1  0  0  0  0  0  0  0  0  0
   49.6885    8.7378   20.6565 C   0  0  0  0  0  0  0  0  0  0  0  0
   48.3091    7.2032   19.3837 C   0  0  0  0  0  0  0  0  0  0  0  0
   53.0292    5.1110   19.8356 C   0  0  0  0  0  0  0  0  0  0  0  0
   53.8445    6.3183   17.2152 C   0  0  1  0  0  0  0  0  0  0  0  0
   49.0434    7.7102   18.1000 C   0  0  1  0  0  0  0  0  0  0  0  0
   51.5318    7.5434   17.4101 C   0  0  2  0  0  0  0  0  0  0  0  0
   53.8744    4.3641   18.8799 C   0  0  0  0  0  0  0  0  0  0  0  0
   54.2511    4.9194   17.6528 C   0  0  0  0  0  0  0  0  0  0  0  0
   47.7314    7.5475   21.7824 C   0  0  0  0  0  0  0  0  0  0  0  0
   47.5893    6.1863   19.1550 O   0  0  0  0  0  0  0  0  0  0  0  0
   48.1666    8.6260   17.2991 N   0  0  0  0  0  0  0  0  0  0  0  0
   49.7535    9.7000   21.4319 O   0  0  0  0  0  0  0  0  0  0  0  0
   52.8071    4.6373   20.9528 O   0  0  0  0  0  0  0  0  0  0  0  0
   54.2995    3.0599   19.2145 C   0  0  0  0  0  0  0  0  0  0  0  0
   51.8999    9.3675   19.9454 O   0  0  0  0  0  0  0  0  0  0  0  0
   46.7256    8.1594   22.1422 O   0  0  0  0  0  0  0  0  0  0  0  0
   51.2593    6.6022   21.5223 O   0  0  0  0  0  0  0  0  0  0  0  0
   53.3387    6.1517   15.8819 O   0  0  0  0  0  0  0  0  0  0  0  0
   51.9453    8.3888   16.3097 O   0  0  0  0  0  0  0  0  0  0  0  0
   48.2280    6.4866   22.4951 N   0  0  0  0  0  0  0  0  0  0  0  0
   55.1171    7.1991   17.0908 C   0  0  0  0  0  0  0  0  0  0  0  0
   55.0466    4.1304   16.7877 C   0  0  0  0  0  0  0  0  0  0  0  0
   53.9653    2.4370   20.3973 O   0  0  0  0  0  0  0  0  0  0  0  0
   55.4735    2.8449   17.1360 C   0  0  0  0  0  0  0  0  0  0  0  0
   55.0912    2.3040   18.3584 C   0  0  0  0  0  0  0  0  0  0  0  0
   48.6587    8.8989   15.9617 C   0  0  0  0  0  0  0  0  0  0  0  0
   47.7456    9.8415   17.9909 C   0  0  0  0  0  0  0  0  0  0  0  0
   51.6408    4.7130   18.3846 C   0  0  2  0  0  0  0  0  0  0  0  0
   50.4305    6.5612   19.5346 C   0  0  0  0  0  0  0  0  0  0  0  0
   52.0032    5.6906   17.2700 C   0  0  2  0  0  0  0  0  0  0  0  0
   54.0614    4.5712   19.1577 C   0  0  0  0  0  0  0  0  0  0  0  0
   51.1578    5.4281   19.6310 C   0  0  0  0  0  0  0  0  0  0  0  0
   49.9082    7.0400   18.1992 C   0  0  1  0  0  0  0  0  0  0  0  0
   52.8890    3.8447   18.6138 C   0  0  0  0  0  0  0  0  0  0  0  0
   54.2094    5.8618   18.7456 C   0  0  0  0  0  0  0  0  0  0  0  0
   50.0104    7.2641   20.7720 C   0  0  0  0  0  0  0  0  0  0  0  0
   49.4307    8.5355   18.2154 C   0  0  1  0  0  0  0  0  0  0  0  0
   53.3967    6.3870   17.5056 C   0  0  1  0  0  0  0  0  0  0  0  0
   50.8751    6.7288   17.0084 C   0  0  2  0  0  0  0  0  0  0  0  0
   48.9096    8.2470   20.6830 C   0  0  0  0  0  0  0  0  0  0  0  0
   48.5692    8.8245   19.4485 C   0  0  0  0  0  0  0  0  0  0  0  0
   54.9066    3.9062   20.2139 C   0  0  0  0  0  0  0  0  0  0  0  0
   54.9486    6.7799   19.2309 O   0  0  0  0  0  0  0  0  0  0  0  0
   54.1412    6.2738   16.1841 N   0  0  0  0  0  0  0  0  0  0  0  0
   52.8674    2.6331   18.3896 O   0  0  0  0  0  0  0  0  0  0  0  0
   50.5372    7.0464   21.8584 O   0  0  0  0  0  0  0  0  0  0  0  0
   48.2102    8.5957   21.8496 C   0  0  0  0  0  0  0  0  0  0  0  0
   50.5485    3.8789   17.9495 O   0  0  0  0  0  0  0  0  0  0  0  0
   55.0207    2.6939   20.3500 O   0  0  0  0  0  0  0  0  0  0  0  0
   51.5089    4.8432   20.8372 O   0  0  0  0  0  0  0  0  0  0  0  0
   50.5787    9.3922   18.2765 O   0  0  0  0  0  0  0  0  0  0  0  0
   50.0433    6.2692   15.9124 O   0  0  0  0  0  0  0  0  0  0  0  0
   55.5847    4.7644   21.0447 N   0  0  0  0  0  0  0  0  0  0  0  0
   48.7196    8.8981   16.8940 C   0  0  0  0  0  0  0  0  0  0  0  0
   47.4849    9.7277   19.4235 C   0  0  0  0  0  0  0  0  0  0  0  0
   48.5270    8.1133   23.0898 O   0  0  0  0  0  0  0  0  0  0  0  0
   46.7636   10.0355   20.5859 C   0  0  0  0  0  0  0  0  0  0  0  0
   47.1327    9.4721   21.7981 C   0  0  0  0  0  0  0  0  0  0  0  0
   55.6027    6.2129   16.3041 C   0  0  0  0  0  0  0  0  0  0  0  0
   53.8079    7.3841   15.2893 C   0  0  0  0  0  0  0  0  0  0  0  0
   51.4159    6.8672   18.6113 Ca  0  0  0  0  0 15  0  0  0  0  0  0
   50.4851    9.3423   17.9912 H   0  0  0  0  0  0  0  0  0  0  0  0
   53.3377    7.9869   18.4322 H   0  0  0  0  0  0  0  0  0  0  0  0
   49.1517    6.8196   17.4644 H   0  0  0  0  0  0  0  0  0  0  0  0
   51.0666    6.6616   16.9506 H   0  0  0  0  0  0  0  0  0  0  0  0
   51.7650    9.6973   20.8610 H   0  0  0  0  0  0  0  0  0  0  0  0
   51.6996    5.7362   21.6687 H   0  0  0  0  0  0  0  0  0  0  0  0
   52.9760    7.0206   15.5960 H   0  0  0  0  0  0  0  0  0  0  0  0
   51.9525    9.3070   16.6308 H   0  0  0  0  0  0  0  0  0  0  0  0
   48.7242    5.8105   21.9219 H   0  0  0  0  0  0  0  0  0  0  0  0
   47.5834    6.1095   23.1651 H   0  0  0  0  0  0  0  0  0  0  0  0
   55.8597    6.7657   16.4130 H   0  0  0  0  0  0  0  0  0  0  0  0
   55.5879    7.3510   18.0644 H   0  0  0  0  0  0  0  0  0  0  0  0
   54.8660    8.1794   16.6698 H   0  0  0  0  0  0  0  0  0  0  0  0
   55.3419    4.5186   15.8105 H   0  0  0  0  0  0  0  0  0  0  0  0
   53.3511    3.0321   20.8800 H   0  0  0  0  0  0  0  0  0  0  0  0
   56.0780    2.2615   16.4499 H   0  0  0  0  0  0  0  0  0  0  0  0
   55.3999    1.2992   18.6339 H   0  0  0  0  0  0  0  0  0  0  0  0
   48.9019    7.9730   15.4290 H   0  0  0  0  0  0  0  0  0  0  0  0
   47.8804    9.3948   15.3632 H   0  0  0  0  0  0  0  0  0  0  0  0
   49.5412    9.5499   15.9548 H   0  0  0  0  0  0  0  0  0  0  0  0
   47.1111   10.4598   17.3416 H   0  0  0  0  0  0  0  0  0  0  0  0
   48.5888   10.4694   18.3017 H   0  0  0  0  0  0  0  0  0  0  0  0
   47.1301    9.6179   18.8695 H   0  0  0  0  0  0  0  0  0  0  0  0
   52.1008    5.0730   16.3636 H   0  0  0  0  0  0  0  0  0  0  0  0
   48.9879    6.4515   18.0408 H   0  0  0  0  0  0  0  0  0  0  0  0
   53.2029    7.4524   17.6998 H   0  0  0  0  0  0  0  0  0  0  0  0
   51.3167    7.6617   16.6440 H   0  0  0  0  0  0  0  0  0  0  0  0
   50.7515    2.9997   18.3332 H   0  0  0  0  0  0  0  0  0  0  0  0
   51.4285    5.5242   21.5429 H   0  0  0  0  0  0  0  0  0  0  0  0
   50.5502    9.9301   19.0879 H   0  0  0  0  0  0  0  0  0  0  0  0
   50.6137    5.8123   15.2718 H   0  0  0  0  0  0  0  0  0  0  0  0
   56.3842    4.4031   21.5318 H   0  0  0  0  0  0  0  0  0  0  0  0
   55.6265    5.7270   20.6733 H   0  0  0  0  0  0  0  0  0  0  0  0
   47.7688    8.3633   16.7824 H   0  0  0  0  0  0  0  0  0  0  0  0
   48.5302    9.9762   16.8261 H   0  0  0  0  0  0  0  0  0  0  0  0
   49.3411    8.6861   16.0204 H   0  0  0  0  0  0  0  0  0  0  0  0
   47.1745   10.2202   18.5073 H   0  0  0  0  0  0  0  0  0  0  0  0
   49.3884    7.6380   23.0178 H   0  0  0  0  0  0  0  0  0  0  0  0
   45.9352   10.7412   20.5423 H   0  0  0  0  0  0  0  0  0  0  0  0
   46.5957    9.7312   22.7092 H   0  0  0  0  0  0  0  0  0  0  0  0
   55.9295    5.3369   16.8731 H   0  0  0  0  0  0  0  0  0  0  0  0
   56.0380    7.1218   16.7276 H   0  0  0  0  0  0  0  0  0  0  0  0
   56.0512    6.0768   15.3092 H   0  0  0  0  0  0  0  0  0  0  0  0
   52.7519    7.3639   15.0118 H   0  0  0  0  0  0  0  0  0  0  0  0
   54.0461    8.3611   15.7264 H   0  0  0  0  0  0  0  0  0  0  0  0
   54.3495    7.2921   14.3402 H   0  0  0  0  0  0  0  0  0  0  0  0
  2  5  2  0
  3  1  1  0
  4  7  1  0
  5  1  1  0
  6  2  1  0
  7  1  1  0
  8  4  2  0
  9  2  1  0
 10  6  1  0
  3 11  1  0
 12  3  1  0
 13  9  1  0
 14 13  2  0
 15  4  1  0
 16  8  1  0
 11 17  1  0
 18  7  2  0
 19  9  2  0
 20 13  1  0
  1 21  1  6
 22 15  2  0
 23  5  1  0
 10 24  1  1
 12 25  1  0
 26 15  1  0
 10 27  1  0
 28 14  1  0
 29 20  1  0
 30 31  1  0
 31 20  2  0
 32 17  1  0
 33 17  1  0
 12  6  1  0
 11  8  1  0
 10 14  1  0
 30 28  2  0
 35 38  2  0
 36 34  1  0
 37 40  1  0
 38 34  1  0
 39 35  1  0
 40 34  1  0
 41 37  2  0
 42 35  1  0
 43 39  1  0
 36 44  1  0
 45 36  1  0
 46 42  1  0
 47 46  2  0
 48 37  1  0
 49 41  1  0
 44 50  1  0
 51 40  2  0
 52 42  2  0
 53 46  1  0
 34 54  1  1
 55 48  2  0
 56 38  1  0
 43 57  1  6
 45 58  1  0
 59 48  1  0
 43 60  1  0
 61 47  1  0
 62 53  1  0
 63 64  1  0
 64 53  2  0
 65 50  1  0
 66 50  1  0
 45 39  1  0
 44 41  1  0
 43 47  1  0
 63 61  2  0
  3 68  1  6
  6 69  1  6
 11 70  1  1
 12 71  1  1
 21 72  1  0
 23 73  1  0
 24 74  1  0
 25 75  1  0
 26 76  1  0
 26 77  1  0
 27 78  1  0
 27 79  1  0
 27 80  1  0
 28 81  1  0
 29 82  1  0
 30 83  1  0
 31 84  1  0
 32 85  1  0
 32 86  1  0
 32 87  1  0
 33 88  1  0
 33 89  1  0
 33 90  1  0
 36 91  1  1
 39 92  1  1
 44 93  1  6
 45 94  1  6
 54 95  1  0
 56 96  1  0
 57 97  1  0
 58 98  1  0
 59 99  1  0
 59100  1  0
 60101  1  0
 60102  1  0
 60103  1  0
 61104  1  0
 62105  1  0
 63106  1  0
 64107  1  0
 65108  1  0
 65109  1  0
 65110  1  0
 66111  1  0
 66112  1  0
 66113  1  0
M  CHG  3  16  -1  49  -1  67   2
M  END
> <Uni-Dock RESULT> 
ENERGY=   -4.501  LOWER_BOUND=    2.394  UPPER_BOUND=    6.866
INTER + INTRA:          -4.501
INTER:                  -4.501
INTRA:                   0.000
UNBOUND:                 0.000

$$$$

     RDKit          3D

113118  0  0  0  0  0  0  0  0999 V2000
   49.2039   10.6089   15.2488 C   0  0  2  0  0  0  0  0  0  0  0  0
   48.6533   10.6022   17.6760 C   0  0  0  0  0  0  0  0  0  0  0  0
   50.6629   10.9459   15.5717 C   0  0  2  0  0  0  0  0  0  0  0  0
   49.8756    8.4050   14.1376 C   0  0  0  0  0  0  0  0  0  0  0  0
   48.4461   10.0724   16.4492 C   0  0  0  0  0  0  0  0  0  0  0  0
   49.5355   11.8139   17.7884 C   0  0  1  0  0  0  0  0  0  0  0  0
   49.1479    9.6845   14.0157 C   0  0  0  0  0  0  0  0  0  0  0  0
   50.9565    8.3733   14.9578 C   0  0  0  0  0  0  0  0  0  0  0  0
   47.9790   10.0287   18.8636 C   0  0  0  0  0  0  0  0  0  0  0  0
   49.7349   12.4329   19.2186 C   0  0  1  0  0  0  0  0  0  0  0  0
   51.6328    9.7215   15.3693 C   0  0  1  0  0  0  0  0  0  0  0  0
   50.8469   11.5660   17.0051 C   0  0  2  0  0  0  0  0  0  0  0  0
   48.3106   10.5410   20.2102 C   0  0  0  0  0  0  0  0  0  0  0  0
   49.1356   11.6573   20.3818 C   0  0  0  0  0  0  0  0  0  0  0  0
   49.2679    7.1735   13.5740 C   0  0  0  0  0  0  0  0  0  0  0  0
   51.5341    7.3700   15.4718 O   0  0  0  0  0  0  0  0  0  0  0  0
   52.7899   10.0444   14.4716 N   0  0  0  0  0  0  0  0  0  0  0  0
   48.4708    9.9855   13.0247 O   0  0  0  0  0  0  0  0  0  0  0  0
   47.1620    9.1123   18.7439 O   0  0  0  0  0  0  0  0  0  0  0  0
   47.7880    9.8799   21.3432 C   0  0  0  0  0  0  0  0  0  0  0  0
   48.5375   11.8428   14.8884 O   0  0  0  0  0  0  0  0  0  0  0  0
   49.5219    6.7272   12.4552 O   0  0  0  0  0  0  0  0  0  0  0  0
   47.5475    9.0462   16.2086 O   0  0  0  0  0  0  0  0  0  0  0  0
   51.1263   12.5663   19.5466 O   0  0  0  0  0  0  0  0  0  0  0  0
   51.5479   12.8303   16.9232 O   0  0  0  0  0  0  0  0  0  0  0  0
   48.3916    6.5471   14.4224 N   0  0  0  0  0  0  0  0  0  0  0  0
   49.1492   13.8708   19.2144 C   0  0  0  0  0  0  0  0  0  0  0  0
   49.4182   12.0719   21.7054 C   0  0  0  0  0  0  0  0  0  0  0  0
   46.9763    8.7694   21.2616 O   0  0  0  0  0  0  0  0  0  0  0  0
   48.8833   11.4175   22.8198 C   0  0  0  0  0  0  0  0  0  0  0  0
   48.0655   10.3084   22.6356 C   0  0  0  0  0  0  0  0  0  0  0  0
   53.6418   11.1113   14.9627 C   0  0  0  0  0  0  0  0  0  0  0  0
   52.4506   10.2141   13.0612 C   0  0  0  0  0  0  0  0  0  0  0  0
   49.9502    9.4850   18.9642 C   0  0  2  0  0  0  0  0  0  0  0  0
   49.6643    9.3227   16.4954 C   0  0  0  0  0  0  0  0  0  0  0  0
   50.6921   10.8026   18.7567 C   0  0  2  0  0  0  0  0  0  0  0  0
   47.9773   10.6731   20.0474 C   0  0  0  0  0  0  0  0  0  0  0  0
   49.1770    9.0691   17.7285 C   0  0  0  0  0  0  0  0  0  0  0  0
   51.0713    9.8418   16.3059 C   0  0  1  0  0  0  0  0  0  0  0  0
   49.0687    9.6826   20.2086 C   0  0  0  0  0  0  0  0  0  0  0  0
   48.2510   11.7393   19.2439 C   0  0  0  0  0  0  0  0  0  0  0  0
   48.8639    8.9448   15.3045 C   0  0  0  0  0  0  0  0  0  0  0  0
   51.3305   10.4352   14.8756 C   0  0  1  0  0  0  0  0  0  0  0  0
   49.7375   12.0534   18.8371 C   0  0  1  0  0  0  0  0  0  0  0  0
   51.5364   10.8028   17.4505 C   0  0  2  0  0  0  0  0  0  0  0  0
   49.5484    8.8553   13.9970 C   0  0  0  0  0  0  0  0  0  0  0  0
   50.7722    9.5125   13.7879 C   0  0  0  0  0  0  0  0  0  0  0  0
   46.6258   10.3736   20.6438 C   0  0  0  0  0  0  0  0  0  0  0  0
   47.4472   12.5850   18.7304 O   0  0  0  0  0  0  0  0  0  0  0  0
   50.4351   13.0442   19.7564 N   0  0  0  0  0  0  0  0  0  0  0  0
   49.2589    9.0213   21.2309 O   0  0  0  0  0  0  0  0  0  0  0  0
   47.6648    8.6955   15.3749 O   0  0  0  0  0  0  0  0  0  0  0  0
   48.9575    8.1053   12.9674 C   0  0  0  0  0  0  0  0  0  0  0  0
   50.9059    8.4351   19.2142 O   0  0  0  0  0  0  0  0  0  0  0  0
   46.4402    9.6476   21.6131 O   0  0  0  0  0  0  0  0  0  0  0  0
   47.9709    8.4266   17.9585 O   0  0  0  0  0  0  0  0  0  0  0  0
   50.6574   11.6962   14.7637 O   0  0  0  0  0  0  0  0  0  0  0  0
   52.9053   10.4385   17.7627 O   0  0  0  0  0  0  0  0  0  0  0  0
   45.5659   10.9940   20.0287 N   0  0  0  0  0  0  0  0  0  0  0  0
   52.8283   10.7518   14.6768 C   0  0  0  0  0  0  0  0  0  0  0  0
   51.3934    9.3576   12.5300 C   0  0  0  0  0  0  0  0  0  0  0  0
   47.7426    7.4883   13.0875 O   0  0  0  0  0  0  0  0  0  0  0  0
   50.8178    8.5698   11.5231 C   0  0  0  0  0  0  0  0  0  0  0  0
   49.5970    7.9499   11.7433 C   0  0  0  0  0  0  0  0  0  0  0  0
   49.5343   13.9253   20.5090 C   0  0  0  0  0  0  0  0  0  0  0  0
   51.3748   13.8873   19.0143 C   0  0  0  0  0  0  0  0  0  0  0  0
   49.8999   10.5598   17.0709 Ca  0  0  0  0  0 15  0  0  0  0  0  0
   50.9471   11.7258   14.8525 H   0  0  0  0  0  0  0  0  0  0  0  0
   49.0065   12.5985   17.2276 H   0  0  0  0  0  0  0  0  0  0  0  0
   52.0986    9.5195   16.3445 H   0  0  0  0  0  0  0  0  0  0  0  0
   51.4794   10.9134   17.6208 H   0  0  0  0  0  0  0  0  0  0  0  0
   47.8476   11.5633   14.2472 H   0  0  0  0  0  0  0  0  0  0  0  0
   47.1774    8.7446   17.0672 H   0  0  0  0  0  0  0  0  0  0  0  0
   51.5707   12.9809   18.7727 H   0  0  0  0  0  0  0  0  0  0  0  0
   51.2822   13.2607   16.0923 H   0  0  0  0  0  0  0  0  0  0  0  0
   48.5945    6.7073   15.4048 H   0  0  0  0  0  0  0  0  0  0  0  0
   48.1808    5.6010   14.1633 H   0  0  0  0  0  0  0  0  0  0  0  0
   49.3067   14.3882   20.1664 H   0  0  0  0  0  0  0  0  0  0  0  0
   48.0779   13.8592   19.0028 H   0  0  0  0  0  0  0  0  0  0  0  0
   49.6464   14.4857   18.4555 H   0  0  0  0  0  0  0  0  0  0  0  0
   50.0773   12.9246   21.8823 H   0  0  0  0  0  0  0  0  0  0  0  0
   46.9131    8.5200   20.3140 H   0  0  0  0  0  0  0  0  0  0  0  0
   49.1222   11.7548   23.8226 H   0  0  0  0  0  0  0  0  0  0  0  0
   47.6583    9.7790   23.4927 H   0  0  0  0  0  0  0  0  0  0  0  0
   53.9475   10.9331   15.9995 H   0  0  0  0  0  0  0  0  0  0  0  0
   54.5724   11.1554   14.3780 H   0  0  0  0  0  0  0  0  0  0  0  0
   53.1695   12.0992   14.9010 H   0  0  0  0  0  0  0  0  0  0  0  0
   53.3459   10.4505   12.4704 H   0  0  0  0  0  0  0  0  0  0  0  0
   51.7336   11.0256   12.8894 H   0  0  0  0  0  0  0  0  0  0  0  0
   52.0504    9.2922   12.6245 H   0  0  0  0  0  0  0  0  0  0  0  0
   51.3925   10.8769   19.6031 H   0  0  0  0  0  0  0  0  0  0  0  0
   51.7031    8.9381   16.3553 H   0  0  0  0  0  0  0  0  0  0  0  0
   49.6891   12.4950   17.8306 H   0  0  0  0  0  0  0  0  0  0  0  0
   51.6067   11.8241   17.0629 H   0  0  0  0  0  0  0  0  0  0  0  0
   50.4671    7.8662   19.8814 H   0  0  0  0  0  0  0  0  0  0  0  0
   47.4295    8.4885   17.1392 H   0  0  0  0  0  0  0  0  0  0  0  0
   49.9981   11.6596   14.0478 H   0  0  0  0  0  0  0  0  0  0  0  0
   53.1258   10.8112   18.6327 H   0  0  0  0  0  0  0  0  0  0  0  0
   44.7179   11.0942   20.5559 H   0  0  0  0  0  0  0  0  0  0  0  0
   45.8610   11.7712   19.4163 H   0  0  0  0  0  0  0  0  0  0  0  0
   53.4380    9.8407   14.6523 H   0  0  0  0  0  0  0  0  0  0  0  0
   52.9969   11.3165   13.7518 H   0  0  0  0  0  0  0  0  0  0  0  0
   53.2176   11.4085   15.4588 H   0  0  0  0  0  0  0  0  0  0  0  0
   52.3338    9.8462   12.2949 H   0  0  0  0  0  0  0  0  0  0  0  0
   47.3278    7.7992   13.9267 H   0  0  0  0  0  0  0  0  0  0  0  0
   51.3130    8.4715   10.5580 H   0  0  0  0  0  0  0  0  0  0  0  0
   49.1304    7.3621   10.9544 H   0  0  0  0  0  0  0  0  0  0  0  0
   48.8726   13.3611   21.1736 H   0  0  0  0  0  0  0  0  0  0  0  0
   48.9485   14.5901   19.8688 H   0  0  0  0  0  0  0  0  0  0  0  0
   50.1204   14.5657   21.1842 H   0  0  0  0  0  0  0  0  0  0  0  0
   52.1848   13.2931   18.5862 H   0  0  0  0  0  0  0  0  0  0  0  0
   50.8860   14.4572   18.2152 H   0  0  0  0  0  0  0  0  0  0  0  0
   51.8719   14.5969   19.6865 H   0  0  0  0  0  0  0  0  0  0  0  0
  2  5  2  0
  3  1  1  0
  4  7  1  0
  5  1  1  0
  6  2  1  0
  7  1  1  0
  8  4  2  0
  9  2  1  0
 10  6  1  0
  3 11  1  0
 12  3  1  0
 13  9  1  0
 14 13  2  0
 15  4  1  0
 16  8  1  0
 11 17  1  0
 18  7  2  0
 19  9  2  0
 20 13  1  0
  1 21  1  6
 22 15  2  0
 23  5  1  0
 10 24  1  1
 12 25  1  0
 26 15  1  0
 10 27  1  0
 28 14  1  0
 29 20  1  0
 30 31  1  0
 31 20  2  0
 32 17  1  0
 33 17  1  0
 12  6  1  0
 11  8  1  0
 10 14  1  0
 30 28  2  0
 35 38  2  0
 36 34  1  0
 37 40  1  0
 38 34  1  0
 39 35  1  0
 40 34  1  0
 41 37  2  0
 42 35  1  0
 43 39  1  0
 36 44  1  0
 45 36  1  0
 46 42  1  0
 47 46  2  0
 48 37  1  0
 49 41  1  0
 44 50  1  0
 51 40  2  0
 52 42  2  0
 53 46  1  0
 34 54  1  1
 55 48  2  0
 56 38  1  0
 43 57  1  6
 45 58  1  0
 59 48  1  0
 43 60  1  0
 61 47  1  0
 62 53  1  0
 63 64  1  0
 64 53  2  0
 65 50  1  0
 66 50  1  0
 45 39  1  0
 44 41  1  0
 43 47  1  0
 63 61  2  0
  3 68  1  6
  6 69  1  6
 11 70  1  1
 12 71  1  1
 21 72  1  0
 23 73  1  0
 24 74  1  0
 25 75  1  0
 26 76  1  0
 26 77  1  0
 27 78  1  0
 27 79  1  0
 27 80  1  0
 28 81  1  0
 29 82  1  0
 30 83  1  0
 31 84  1  0
 32 85  1  0
 32 86  1  0
 32 87  1  0
 33 88  1  0
 33 89  1  0
 33 90  1  0
 36 91  1  1
 39 92  1  1
 44 93  1  6
 45 94  1  6
 54 95  1  0
 56 96  1  0
 57 97  1  0
 58 98  1  0
 59 99  1  0
 59100  1  0
 60101  1  0
 60102  1  0
 60103  1  0
 61104  1  0
 62105  1  0
 63106  1  0
 64107  1  0
 65108  1  0
 65109  1  0
 65110  1  0
 66111  1  0
 66112  1  0
 66113  1  0
M  CHG  3  16  -1  49  -1  67   2
M  END
> <Uni-Dock RESULT> 
ENERGY=   -4.469  LOWER_BOUND=    3.335  UPPER_BOUND=    4.680
INTER + INTRA:          -4.469
INTER:                  -4.469
INTRA:                   0.000
UNBOUND:                 0.000

$$$$

     RDKit          3D

113118  0  0  0  0  0  0  0  0999 V2000
   50.6359   10.6035   18.3458 C   0  0  2  0  0  0  0  0  0  0  0  0
   49.7425    8.2805   18.3450 C   0  0  0  0  0  0  0  0  0  0  0  0
   51.4411   10.3036   17.0776 C   0  0  2  0  0  0  0  0  0  0  0  0
   49.2976   12.4324   17.1595 C   0  0  0  0  0  0  0  0  0  0  0  0
   49.5306    9.5931   18.5917 C   0  0  0  0  0  0  0  0  0  0  0  0
   51.1287    7.8427   17.9632 C   0  0  1  0  0  0  0  0  0  0  0  0
   50.1447   12.0649   18.3124 C   0  0  0  0  0  0  0  0  0  0  0  0
   49.4912   11.7574   15.9980 C   0  0  0  0  0  0  0  0  0  0  0  0
   48.6429    7.3009   18.5042 C   0  0  0  0  0  0  0  0  0  0  0  0
   51.3597    6.3086   17.7144 C   0  0  1  0  0  0  0  0  0  0  0  0
   50.8300   10.9769   15.7916 C   0  0  1  0  0  0  0  0  0  0  0  0
   51.6658    8.7650   16.8426 C   0  0  2  0  0  0  0  0  0  0  0  0
   48.8582    5.8914   18.1136 C   0  0  0  0  0  0  0  0  0  0  0  0
   50.1217    5.4251   17.7367 C   0  0  0  0  0  0  0  0  0  0  0  0
   48.1300   13.3226   17.3775 C   0  0  0  0  0  0  0  0  0  0  0  0
   48.7160   11.6528   15.0017 O   0  0  0  0  0  0  0  0  0  0  0  0
   51.8313   11.8053   15.0430 N   0  0  0  0  0  0  0  0  0  0  0  0
   50.3979   12.8430   19.2406 O   0  0  0  0  0  0  0  0  0  0  0  0
   47.5424    7.6528   18.9361 O   0  0  0  0  0  0  0  0  0  0  0  0
   47.7596    5.0043   18.1143 C   0  0  0  0  0  0  0  0  0  0  0  0
   51.5334   10.4802   19.4754 O   0  0  0  0  0  0  0  0  0  0  0  0
   48.1509   14.5425   17.2136 O   0  0  0  0  0  0  0  0  0  0  0  0
   48.3339   10.0886   19.0825 O   0  0  0  0  0  0  0  0  0  0  0  0
   51.9586    6.0663   16.4322 O   0  0  0  0  0  0  0  0  0  0  0  0
   53.0762    8.4781   16.6844 O   0  0  0  0  0  0  0  0  0  0  0  0
   46.9936   12.6635   17.7704 N   0  0  0  0  0  0  0  0  0  0  0  0
   52.3708    5.7892   18.7720 C   0  0  0  0  0  0  0  0  0  0  0  0
   50.2381    4.0657   17.3597 C   0  0  0  0  0  0  0  0  0  0  0  0
   46.4820    5.3851   18.4627 O   0  0  0  0  0  0  0  0  0  0  0  0
   49.1454    3.1929   17.3777 C   0  0  0  0  0  0  0  0  0  0  0  0
   47.8944    3.6692   17.7534 C   0  0  0  0  0  0  0  0  0  0  0  0
   52.9759   11.0571   14.5580 C   0  0  0  0  0  0  0  0  0  0  0  0
   52.2235   13.0479   15.7026 C   0  0  0  0  0  0  0  0  0  0  0  0
   48.9532    7.5428   16.4951 C   0  0  2  0  0  0  0  0  0  0  0  0
   49.3669    9.8947   17.2023 C   0  0  0  0  0  0  0  0  0  0  0  0
   50.4609    7.3596   16.3450 C   0  0  2  0  0  0  0  0  0  0  0  0
   48.8804    5.9743   18.4979 C   0  0  0  0  0  0  0  0  0  0  0  0
   48.6100    8.7812   17.2991 C   0  0  0  0  0  0  0  0  0  0  0  0
   50.4487   10.0122   16.1530 C   0  0  1  0  0  0  0  0  0  0  0  0
   48.4236    6.2377   17.1122 C   0  0  0  0  0  0  0  0  0  0  0  0
   50.1392    6.3975   18.8035 C   0  0  0  0  0  0  0  0  0  0  0  0
   49.0334   11.0763   18.0357 C   0  0  0  0  0  0  0  0  0  0  0  0
   51.4610   11.1803   16.4279 C   0  0  1  0  0  0  0  0  0  0  0  0
   51.1346    6.7934   17.6518 C   0  0  1  0  0  0  0  0  0  0  0  0
   51.1641    8.6542   15.8465 C   0  0  2  0  0  0  0  0  0  0  0  0
   49.5931   12.3892   17.6499 C   0  0  0  0  0  0  0  0  0  0  0  0
   50.7250   12.4647   16.8214 C   0  0  0  0  0  0  0  0  0  0  0  0
   47.9016    5.4060   19.4935 C   0  0  0  0  0  0  0  0  0  0  0  0
   50.6842    6.5360   19.9475 O   0  0  0  0  0  0  0  0  0  0  0  0
   52.0329    5.6557   17.1913 N   0  0  0  0  0  0  0  0  0  0  0  0
   47.6482    5.5111   16.4882 O   0  0  0  0  0  0  0  0  0  0  0  0
   48.3042   10.9979   19.0191 O   0  0  0  0  0  0  0  0  0  0  0  0
   48.9781   13.5592   18.1241 C   0  0  0  0  0  0  0  0  0  0  0  0
   48.3648    7.7318   15.1927 O   0  0  0  0  0  0  0  0  0  0  0  0
   46.9297    4.7209   19.1979 O   0  0  0  0  0  0  0  0  0  0  0  0
   47.4924    8.6827   18.1126 O   0  0  0  0  0  0  0  0  0  0  0  0
   52.3116   10.8139   17.5224 O   0  0  0  0  0  0  0  0  0  0  0  0
   51.3252    8.5899   14.4063 O   0  0  0  0  0  0  0  0  0  0  0  0
   48.1729    5.6944   20.8086 N   0  0  0  0  0  0  0  0  0  0  0  0
   52.4065   11.3807   15.2242 C   0  0  0  0  0  0  0  0  0  0  0  0
   51.1883   13.7477   16.4590 C   0  0  0  0  0  0  0  0  0  0  0  0
   47.9090   13.5548   18.9774 O   0  0  0  0  0  0  0  0  0  0  0  0
   50.5406   14.9101   16.9009 C   0  0  0  0  0  0  0  0  0  0  0  0
   49.4393   14.8121   17.7379 C   0  0  0  0  0  0  0  0  0  0  0  0
   52.2239    4.5847   18.1764 C   0  0  0  0  0  0  0  0  0  0  0  0
   53.3549    6.1480   16.7981 C   0  0  0  0  0  0  0  0  0  0  0  0
   50.3831    8.9621   17.3217 Ca  0  0  0  0  0 15  0  0  0  0  0  0
   52.4323   10.7435   17.2519 H   0  0  0  0  0  0  0  0  0  0  0  0
   51.7465    8.0676   18.8450 H   0  0  0  0  0  0  0  0  0  0  0  0
   50.5802   10.1641   15.0946 H   0  0  0  0  0  0  0  0  0  0  0  0
   51.1905    8.4528   15.9037 H   0  0  0  0  0  0  0  0  0  0  0  0
   51.1811   11.1210   20.1314 H   0  0  0  0  0  0  0  0  0  0  0  0
   47.6855    9.3522   19.1322 H   0  0  0  0  0  0  0  0  0  0  0  0
   52.7129    6.6914   16.3389 H   0  0  0  0  0  0  0  0  0  0  0  0
   53.5676    9.0954   17.2533 H   0  0  0  0  0  0  0  0  0  0  0  0
   46.9489   11.7030   17.4430 H   0  0  0  0  0  0  0  0  0  0  0  0
   46.1545   13.2043   17.6697 H   0  0  0  0  0  0  0  0  0  0  0  0
   52.6263    4.7352   18.6223 H   0  0  0  0  0  0  0  0  0  0  0  0
   51.9778    5.9071   19.7840 H   0  0  0  0  0  0  0  0  0  0  0  0
   53.3169    6.3379   18.7008 H   0  0  0  0  0  0  0  0  0  0  0  0
   51.2027    3.6686   17.0361 H   0  0  0  0  0  0  0  0  0  0  0  0
   46.4971    6.3537   18.6237 H   0  0  0  0  0  0  0  0  0  0  0  0
   49.2639    2.1571   17.0780 H   0  0  0  0  0  0  0  0  0  0  0  0
   47.0330    3.0069   17.7539 H   0  0  0  0  0  0  0  0  0  0  0  0
   52.6642   10.1658   14.0025 H   0  0  0  0  0  0  0  0  0  0  0  0
   53.5563   11.6658   13.8490 H   0  0  0  0  0  0  0  0  0  0  0  0
   53.6578   10.7500   15.3601 H   0  0  0  0  0  0  0  0  0  0  0  0
   52.9582   13.5958   15.0971 H   0  0  0  0  0  0  0  0  0  0  0  0
   52.6814   12.8834   16.6851 H   0  0  0  0  0  0  0  0  0  0  0  0
   51.3759   13.7326   15.8191 H   0  0  0  0  0  0  0  0  0  0  0  0
   50.5831    6.5947   15.5622 H   0  0  0  0  0  0  0  0  0  0  0  0
   49.9090   10.3155   15.2393 H   0  0  0  0  0  0  0  0  0  0  0  0
   51.7729    7.5892   18.0636 H   0  0  0  0  0  0  0  0  0  0  0  0
   52.1870    8.6852   16.2350 H   0  0  0  0  0  0  0  0  0  0  0  0
   47.5077    7.2586   15.2465 H   0  0  0  0  0  0  0  0  0  0  0  0
   47.5468    9.3894   18.7950 H   0  0  0  0  0  0  0  0  0  0  0  0
   52.2036   11.4468   18.2547 H   0  0  0  0  0  0  0  0  0  0  0  0
   51.5031    7.6659   14.1635 H   0  0  0  0  0  0  0  0  0  0  0  0
   47.7678    5.0984   21.5070 H   0  0  0  0  0  0  0  0  0  0  0  0
   49.1371    6.0356   20.9501 H   0  0  0  0  0  0  0  0  0  0  0  0
   51.8714   11.7543   14.3430 H   0  0  0  0  0  0  0  0  0  0  0  0
   53.2190   12.0763   15.4671 H   0  0  0  0  0  0  0  0  0  0  0  0
   52.9249   10.4586   14.9498 H   0  0  0  0  0  0  0  0  0  0  0  0
   52.0641   13.8811   15.8316 H   0  0  0  0  0  0  0  0  0  0  0  0
   47.7804   12.6299   19.2953 H   0  0  0  0  0  0  0  0  0  0  0  0
   50.9216   15.8891   16.6134 H   0  0  0  0  0  0  0  0  0  0  0  0
   48.9509   15.7117   18.1091 H   0  0  0  0  0  0  0  0  0  0  0  0
   51.2800    4.0946   18.4349 H   0  0  0  0  0  0  0  0  0  0  0  0
   52.7357    4.9195   19.0825 H   0  0  0  0  0  0  0  0  0  0  0  0
   52.8382    3.7839   17.7393 H   0  0  0  0  0  0  0  0  0  0  0  0
   53.2877    6.8117   15.9335 H   0  0  0  0  0  0  0  0  0  0  0  0
   53.8673    6.6714   17.6140 H   0  0  0  0  0  0  0  0  0  0  0  0
   53.9935    5.3200   16.4677 H   0  0  0  0  0  0  0  0  0  0  0  0
  2  5  2  0
  3  1  1  0
  4  7  1  0
  5  1  1  0
  6  2  1  0
  7  1  1  0
  8  4  2  0
  9  2  1  0
 10  6  1  0
  3 11  1  0
 12  3  1  0
 13  9  1  0
 14 13  2  0
 15  4  1  0
 16  8  1  0
 11 17  1  0
 18  7  2  0
 19  9  2  0
 20 13  1  0
  1 21  1  6
 22 15  2  0
 23  5  1  0
 10 24  1  1
 12 25  1  0
 26 15  1  0
 10 27  1  0
 28 14  1  0
 29 20  1  0
 30 31  1  0
 31 20  2  0
 32 17  1  0
 33 17  1  0
 12  6  1  0
 11  8  1  0
 10 14  1  0
 30 28  2  0
 35 38  2  0
 36 34  1  0
 37 40  1  0
 38 34  1  0
 39 35  1  0
 40 34  1  0
 41 37  2  0
 42 35  1  0
 43 39  1  0
 36 44  1  0
 45 36  1  0
 46 42  1  0
 47 46  2  0
 48 37  1  0
 49 41  1  0
 44 50  1  0
 51 40  2  0
 52 42  2  0
 53 46  1  0
 34 54  1  1
 55 48  2  0
 56 38  1  0
 43 57  1  6
 45 58  1  0
 59 48  1  0
 43 60  1  0
 61 47  1  0
 62 53  1  0
 63 64  1  0
 64 53  2  0
 65 50  1  0
 66 50  1  0
 45 39  1  0
 44 41  1  0
 43 47  1  0
 63 61  2  0
  3 68  1  6
  6 69  1  6
 11 70  1  1
 12 71  1  1
 21 72  1  0
 23 73  1  0
 24 74  1  0
 25 75  1  0
 26 76  1  0
 26 77  1  0
 27 78  1  0
 27 79  1  0
 27 80  1  0
 28 81  1  0
 29 82  1  0
 30 83  1  0
 31 84  1  0
 32 85  1  0
 32 86  1  0
 32 87  1  0
 33 88  1  0
 33 89  1  0
 33 90  1  0
 36 91  1  1
 39 92  1  1
 44 93  1  6
 45 94  1  6
 54 95  1  0
 56 96  1  0
 57 97  1  0
 58 98  1  0
 59 99  1  0
 59100  1  0
 60101  1  0
 60102  1  0
 60103  1  0
 61104  1  0
 62105  1  0
 63106  1  0
 64107  1  0
 65108  1  0
 65109  1  0
 65110  1  0
 66111  1  0
 66112  1  0
 66113  1  0
M  CHG  3  16  -1  49  -1  67   2
M  END
> <Uni-Dock RESULT> 
ENERGY=   -4.429  LOWER_BOUND=    2.411  UPPER_BOUND=    6.890
INTER + INTRA:          -4.429
INTER:                  -4.429
INTRA:                   0.000
UNBOUND:                 0.000

$$$$

     RDKit          3D

113118  0  0  0  0  0  0  0  0999 V2000
   48.4977    9.4298   18.3424 C   0  0  2  0  0  0  0  0  0  0  0  0
   49.7510    7.8084   19.7548 C   0  0  0  0  0  0  0  0  0  0  0  0
   48.1029   10.2253   19.5906 C   0  0  2  0  0  0  0  0  0  0  0  0
   49.7540   11.4327   17.3660 C   0  0  0  0  0  0  0  0  0  0  0  0
   49.6631    8.4898   18.5900 C   0  0  0  0  0  0  0  0  0  0  0  0
   48.6035    7.8994   20.7212 C   0  0  1  0  0  0  0  0  0  0  0  0
   48.7206   10.3973   17.1624 C   0  0  0  0  0  0  0  0  0  0  0  0
   49.9795   11.8529   18.6367 C   0  0  0  0  0  0  0  0  0  0  0  0
   50.9275    6.9535   20.0360 C   0  0  0  0  0  0  0  0  0  0  0  0
   48.7122    7.0727   22.0527 C   0  0  1  0  0  0  0  0  0  0  0  0
   48.8922   11.5814   19.7268 C   0  0  1  0  0  0  0  0  0  0  0  0
   48.2149    9.3848   20.9151 C   0  0  2  0  0  0  0  0  0  0  0  0
   51.0654    6.3137   21.3616 C   0  0  0  0  0  0  0  0  0  0  0  0
   50.0383    6.3730   22.3091 C   0  0  0  0  0  0  0  0  0  0  0  0
   50.6564   11.7819   16.2403 C   0  0  0  0  0  0  0  0  0  0  0  0
   50.9869   12.4618   19.1047 O   0  0  0  0  0  0  0  0  0  0  0  0
   47.9842   12.7631   19.8940 N   0  0  0  0  0  0  0  0  0  0  0  0
   48.1105   10.2514   16.0957 O   0  0  0  0  0  0  0  0  0  0  0  0
   51.8054    6.7890   19.1851 O   0  0  0  0  0  0  0  0  0  0  0  0
   52.2649    5.6380   21.6754 C   0  0  0  0  0  0  0  0  0  0  0  0
   47.3798    8.5788   17.9921 O   0  0  0  0  0  0  0  0  0  0  0  0
   50.4664   12.7217   15.4682 O   0  0  0  0  0  0  0  0  0  0  0  0
   50.5928    8.3708   17.5702 O   0  0  0  0  0  0  0  0  0  0  0  0
   48.5073    7.9017   23.2069 O   0  0  0  0  0  0  0  0  0  0  0  0
   46.9618    9.4135   21.6399 O   0  0  0  0  0  0  0  0  0  0  0  0
   51.7534   10.9663   16.1332 N   0  0  0  0  0  0  0  0  0  0  0  0
   47.5729    6.0179   22.0670 C   0  0  0  0  0  0  0  0  0  0  0  0
   50.2582    5.7495   23.5607 C   0  0  0  0  0  0  0  0  0  0  0  0
   53.3273    5.5415   20.8033 O   0  0  0  0  0  0  0  0  0  0  0  0
   51.4452    5.0709   23.8551 C   0  0  0  0  0  0  0  0  0  0  0  0
   52.4589    5.0202   22.9049 C   0  0  0  0  0  0  0  0  0  0  0  0
   47.1464   12.7047   21.0771 C   0  0  0  0  0  0  0  0  0  0  0  0
   47.2291   13.1372   18.7010 C   0  0  0  0  0  0  0  0  0  0  0  0
   51.0968    8.6228   21.2091 C   0  0  2  0  0  0  0  0  0  0  0  0
   50.1171    9.7063   19.1919 C   0  0  0  0  0  0  0  0  0  0  0  0
   49.7310    8.7221   21.8830 C   0  0  2  0  0  0  0  0  0  0  0  0
   50.9330    6.0870   21.0682 C   0  0  0  0  0  0  0  0  0  0  0  0
   51.0062    8.8331   19.7106 C   0  0  0  0  0  0  0  0  0  0  0  0
   49.3314   10.6399   20.0842 C   0  0  1  0  0  0  0  0  0  0  0  0
   51.6716    7.2536   21.6084 C   0  0  0  0  0  0  0  0  0  0  0  0
   49.5841    6.2375   20.9455 C   0  0  0  0  0  0  0  0  0  0  0  0
   50.0196    9.8575   17.7190 C   0  0  0  0  0  0  0  0  0  0  0  0
   48.0959   11.2940   19.3697 C   0  0  1  0  0  0  0  0  0  0  0  0
   48.8583    7.4270   21.6750 C   0  0  1  0  0  0  0  0  0  0  0  0
   48.9629   10.0094   21.4686 C   0  0  2  0  0  0  0  0  0  0  0  0
   49.3565   11.0633   17.1785 C   0  0  0  0  0  0  0  0  0  0  0  0
   48.4748   11.8094   17.9780 C   0  0  0  0  0  0  0  0  0  0  0  0
   51.7123    4.8986   20.5656 C   0  0  0  0  0  0  0  0  0  0  0  0
   48.7528    5.5253   20.2924 O   0  0  0  0  0  0  0  0  0  0  0  0
   48.3163    7.0714   23.0510 N   0  0  0  0  0  0  0  0  0  0  0  0
   52.6931    7.1707   22.2927 O   0  0  0  0  0  0  0  0  0  0  0  0
   50.4795    9.0247   16.9445 O   0  0  0  0  0  0  0  0  0  0  0  0
   49.6197   11.4513   15.8549 C   0  0  0  0  0  0  0  0  0  0  0  0
   51.9527    9.6682   21.7119 O   0  0  0  0  0  0  0  0  0  0  0  0
   52.8308    4.5864   20.9563 O   0  0  0  0  0  0  0  0  0  0  0  0
   51.8822    8.0836   18.9415 O   0  0  0  0  0  0  0  0  0  0  0  0
   47.0735   10.3027   19.2028 O   0  0  0  0  0  0  0  0  0  0  0  0
   49.1839   11.0423   22.4629 O   0  0  0  0  0  0  0  0  0  0  0  0
   51.0724    4.1402   19.6160 N   0  0  0  0  0  0  0  0  0  0  0  0
   47.4645   12.3873   20.2581 C   0  0  0  0  0  0  0  0  0  0  0  0
   47.9027   12.9708   17.4157 C   0  0  0  0  0  0  0  0  0  0  0  0
   50.4231   10.7391   15.0072 O   0  0  0  0  0  0  0  0  0  0  0  0
   48.2065   13.3752   16.1080 C   0  0  0  0  0  0  0  0  0  0  0  0
   49.0608   12.6099   15.3286 C   0  0  0  0  0  0  0  0  0  0  0  0
   48.0717    5.6402   23.2653 C   0  0  0  0  0  0  0  0  0  0  0  0
   47.0716    7.7891   23.3339 C   0  0  0  0  0  0  0  0  0  0  0  0
   49.2811    9.0682   20.0925 Ca  0  0  0  0  0 15  0  0  0  0  0  0
   47.0391   10.4643   19.4585 H   0  0  0  0  0  0  0  0  0  0  0  0
   47.7540    7.4441   20.1911 H   0  0  0  0  0  0  0  0  0  0  0  0
   49.4467   11.5334   20.6751 H   0  0  0  0  0  0  0  0  0  0  0  0
   48.9583    9.8343   21.5861 H   0  0  0  0  0  0  0  0  0  0  0  0
   47.4387    8.4975   17.0148 H   0  0  0  0  0  0  0  0  0  0  0  0
   51.3252    7.7931   17.8783 H   0  0  0  0  0  0  0  0  0  0  0  0
   47.7044    8.4450   23.0379 H   0  0  0  0  0  0  0  0  0  0  0  0
   46.2435    9.4428   20.9846 H   0  0  0  0  0  0  0  0  0  0  0  0
   52.0450   10.5615   17.0180 H   0  0  0  0  0  0  0  0  0  0  0  0
   52.4839   11.3411   15.5565 H   0  0  0  0  0  0  0  0  0  0  0  0
   47.5501    5.4412   22.9974 H   0  0  0  0  0  0  0  0  0  0  0  0
   47.6715    5.3202   21.2327 H   0  0  0  0  0  0  0  0  0  0  0  0
   46.5951    6.5078   21.9963 H   0  0  0  0  0  0  0  0  0  0  0  0
   49.4902    5.7937   24.3360 H   0  0  0  0  0  0  0  0  0  0  0  0
   53.1045    6.0725   20.0079 H   0  0  0  0  0  0  0  0  0  0  0  0
   51.5874    4.6073   24.8253 H   0  0  0  0  0  0  0  0  0  0  0  0
   53.3936    4.5126   23.1269 H   0  0  0  0  0  0  0  0  0  0  0  0
   47.7378   12.4950   21.9753 H   0  0  0  0  0  0  0  0  0  0  0  0
   46.6672   13.6790   21.2531 H   0  0  0  0  0  0  0  0  0  0  0  0
   46.3482   11.9566   21.0001 H   0  0  0  0  0  0  0  0  0  0  0  0
   46.5874   14.0056   18.9021 H   0  0  0  0  0  0  0  0  0  0  0  0
   46.5740   12.3348   18.3417 H   0  0  0  0  0  0  0  0  0  0  0  0
   47.8881   13.4472   17.8822 H   0  0  0  0  0  0  0  0  0  0  0  0
   49.9446    8.7970   22.9606 H   0  0  0  0  0  0  0  0  0  0  0  0
   50.0231   11.4784   20.2760 H   0  0  0  0  0  0  0  0  0  0  0  0
   48.0088    7.7030   21.0327 H   0  0  0  0  0  0  0  0  0  0  0  0
   47.8858    9.8186   21.5072 H   0  0  0  0  0  0  0  0  0  0  0  0
   52.8371    9.2482   21.7654 H   0  0  0  0  0  0  0  0  0  0  0  0
   51.5358    8.0568   18.0209 H   0  0  0  0  0  0  0  0  0  0  0  0
   46.8821   10.1776   18.2562 H   0  0  0  0  0  0  0  0  0  0  0  0
   49.2358   10.6158   23.3347 H   0  0  0  0  0  0  0  0  0  0  0  0
   51.3852    3.1951   19.4895 H   0  0  0  0  0  0  0  0  0  0  0  0
   50.0596    4.3354   19.5676 H   0  0  0  0  0  0  0  0  0  0  0  0
   48.1314   13.2491   20.3802 H   0  0  0  0  0  0  0  0  0  0  0  0
   46.5092   12.7337   19.8453 H   0  0  0  0  0  0  0  0  0  0  0  0
   47.2000   12.0105   21.2492 H   0  0  0  0  0  0  0  0  0  0  0  0
   47.2039   13.5882   17.9716 H   0  0  0  0  0  0  0  0  0  0  0  0
   50.6257    9.8752   15.4381 H   0  0  0  0  0  0  0  0  0  0  0  0
   47.7465   14.2715   15.6940 H   0  0  0  0  0  0  0  0  0  0  0  0
   49.2763   12.9024   14.3021 H   0  0  0  0  0  0  0  0  0  0  0  0
   48.9901    5.0514   23.1772 H   0  0  0  0  0  0  0  0  0  0  0  0
   47.2980    5.2329   22.6092 H   0  0  0  0  0  0  0  0  0  0  0  0
   47.7359    5.4720   24.2990 H   0  0  0  0  0  0  0  0  0  0  0  0
   47.2385    8.8675   23.3751 H   0  0  0  0  0  0  0  0  0  0  0  0
   46.2873    7.5747   22.5982 H   0  0  0  0  0  0  0  0  0  0  0  0
   46.6904    7.5257   24.3278 H   0  0  0  0  0  0  0  0  0  0  0  0
  2  5  2  0
  3  1  1  0
  4  7  1  0
  5  1  1  0
  6  2  1  0
  7  1  1  0
  8  4  2  0
  9  2  1  0
 10  6  1  0
  3 11  1  0
 12  3  1  0
 13  9  1  0
 14 13  2  0
 15  4  1  0
 16  8  1  0
 11 17  1  0
 18  7  2  0
 19  9  2  0
 20 13  1  0
  1 21  1  6
 22 15  2  0
 23  5  1  0
 10 24  1  1
 12 25  1  0
 26 15  1  0
 10 27  1  0
 28 14  1  0
 29 20  1  0
 30 31  1  0
 31 20  2  0
 32 17  1  0
 33 17  1  0
 12  6  1  0
 11  8  1  0
 10 14  1  0
 30 28  2  0
 35 38  2  0
 36 34  1  0
 37 40  1  0
 38 34  1  0
 39 35  1  0
 40 34  1  0
 41 37  2  0
 42 35  1  0
 43 39  1  0
 36 44  1  0
 45 36  1  0
 46 42  1  0
 47 46  2  0
 48 37  1  0
 49 41  1  0
 44 50  1  0
 51 40  2  0
 52 42  2  0
 53 46  1  0
 34 54  1  1
 55 48  2  0
 56 38  1  0
 43 57  1  6
 45 58  1  0
 59 48  1  0
 43 60  1  0
 61 47  1  0
 62 53  1  0
 63 64  1  0
 64 53  2  0
 65 50  1  0
 66 50  1  0
 45 39  1  0
 44 41  1  0
 43 47  1  0
 63 61  2  0
  3 68  1  6
  6 69  1  6
 11 70  1  1
 12 71  1  1
 21 72  1  0
 23 73  1  0
 24 74  1  0
 25 75  1  0
 26 76  1  0
 26 77  1  0
 27 78  1  0
 27 79  1  0
 27 80  1  0
 28 81  1  0
 29 82  1  0
 30 83  1  0
 31 84  1  0
 32 85  1  0
 32 86  1  0
 32 87  1  0
 33 88  1  0
 33 89  1  0
 33 90  1  0
 36 91  1  1
 39 92  1  1
 44 93  1  6
 45 94  1  6
 54 95  1  0
 56 96  1  0
 57 97  1  0
 58 98  1  0
 59 99  1  0
 59100  1  0
 60101  1  0
 60102  1  0
 60103  1  0
 61104  1  0
 62105  1  0
 63106  1  0
 64107  1  0
 65108  1  0
 65109  1  0
 65110  1  0
 66111  1  0
 66112  1  0
 66113  1  0
M  CHG  3  16  -1  49  -1  67   2
M  END
> <Uni-Dock RESULT> 
ENERGY=   -4.355  LOWER_BOUND=    2.267  UPPER_BOUND=    6.619
INTER + INTRA:          -4.355
INTER:                  -4.355
INTRA:                   0.000
UNBOUND:                 0.000

$$$$

     RDKit          3D

113118  0  0  0  0  0  0  0  0999 V2000
   52.4375    7.5399   19.3463 C   0  0  2  0  0  0  0  0  0  0  0  0
   50.6088    9.2191   19.5211 C   0  0  0  0  0  0  0  0  0  0  0  0
   51.4094    6.4346   19.0854 C   0  0  2  0  0  0  0  0  0  0  0  0
   53.5409    7.1609   17.0700 C   0  0  0  0  0  0  0  0  0  0  0  0
   51.8709    8.9311   19.1302 C   0  0  0  0  0  0  0  0  0  0  0  0
   49.8475    8.1782   20.2931 C   0  0  1  0  0  0  0  0  0  0  0  0
   53.7171    7.2577   18.5332 C   0  0  0  0  0  0  0  0  0  0  0  0
   52.3387    6.7310   16.6096 C   0  0  0  0  0  0  0  0  0  0  0  0
   50.0220   10.5495   19.2387 C   0  0  0  0  0  0  0  0  0  0  0  0
   48.3955    8.5471   20.7665 C   0  0  1  0  0  0  0  0  0  0  0  0
   51.3877    5.9616   17.5833 C   0  0  1  0  0  0  0  0  0  0  0  0
   49.9616    6.8170   19.5658 C   0  0  2  0  0  0  0  0  0  0  0  0
   48.6026   10.8056   19.5635 C   0  0  0  0  0  0  0  0  0  0  0  0
   47.8371    9.8716   20.2690 C   0  0  0  0  0  0  0  0  0  0  0  0
   54.5662    7.7598   16.1792 C   0  0  0  0  0  0  0  0  0  0  0  0
   51.8375    6.8631   15.4538 O   0  0  0  0  0  0  0  0  0  0  0  0
   51.5527    4.4776   17.4433 N   0  0  0  0  0  0  0  0  0  0  0  0
   54.8216    7.1913   19.0871 O   0  0  0  0  0  0  0  0  0  0  0  0
   50.6973   11.4381   18.7135 O   0  0  0  0  0  0  0  0  0  0  0  0
   48.0105   12.0163   19.1421 C   0  0  0  0  0  0  0  0  0  0  0  0
   52.7997    7.4812   20.7470 O   0  0  0  0  0  0  0  0  0  0  0  0
   55.5031    7.1329   15.6845 O   0  0  0  0  0  0  0  0  0  0  0  0
   52.7112    9.8588   18.5373 O   0  0  0  0  0  0  0  0  0  0  0  0
   47.4373    7.5648   20.3442 O   0  0  0  0  0  0  0  0  0  0  0  0
   49.4409    5.8036   20.4593 O   0  0  0  0  0  0  0  0  0  0  0  0
   54.3763    9.0949   15.9310 N   0  0  0  0  0  0  0  0  0  0  0  0
   48.3712    8.5392   22.3189 C   0  0  0  0  0  0  0  0  0  0  0  0
   46.4808   10.1870   20.5232 C   0  0  0  0  0  0  0  0  0  0  0  0
   48.6911   12.9838   18.4355 O   0  0  0  0  0  0  0  0  0  0  0  0
   45.9089   11.3956   20.1130 C   0  0  0  0  0  0  0  0  0  0  0  0
   46.6804   12.3152   19.4115 C   0  0  0  0  0  0  0  0  0  0  0  0
   50.5103    3.7015   18.0885 C   0  0  0  0  0  0  0  0  0  0  0  0
   52.8878    3.9715   17.7507 C   0  0  0  0  0  0  0  0  0  0  0  0
   49.1307    9.2122   17.9704 C   0  0  2  0  0  0  0  0  0  0  0  0
   51.4203    8.2321   17.9655 C   0  0  0  0  0  0  0  0  0  0  0  0
   48.6878    8.0847   18.8988 C   0  0  2  0  0  0  0  0  0  0  0  0
   48.8703   10.9441   19.8169 C   0  0  0  0  0  0  0  0  0  0  0  0
   50.6404    9.3322   17.9044 C   0  0  0  0  0  0  0  0  0  0  0  0
   50.8190    6.8467   17.8996 C   0  0  1  0  0  0  0  0  0  0  0  0
   48.4303   10.4835   18.4780 C   0  0  0  0  0  0  0  0  0  0  0  0
   49.2104    9.9669   20.7038 C   0  0  0  0  0  0  0  0  0  0  0  0
   52.8962    8.3840   17.9446 C   0  0  0  0  0  0  0  0  0  0  0  0
   51.8036    5.7159   18.3650 C   0  0  1  0  0  0  0  0  0  0  0  0
   48.8017    8.4746   20.4210 C   0  0  1  0  0  0  0  0  0  0  0  0
   49.4172    6.7466   18.5887 C   0  0  2  0  0  0  0  0  0  0  0  0
   53.7200    7.2017   17.6139 C   0  0  0  0  0  0  0  0  0  0  0  0
   53.1919    5.9067   17.7466 C   0  0  0  0  0  0  0  0  0  0  0  0
   49.0500   12.4212   20.0581 C   0  0  0  0  0  0  0  0  0  0  0  0
   49.8494   10.0664   21.8022 O   0  0  0  0  0  0  0  0  0  0  0  0
   47.4790    8.0648   21.0503 N   0  0  0  0  0  0  0  0  0  0  0  0
   47.6012   11.0711   17.7810 O   0  0  0  0  0  0  0  0  0  0  0  0
   53.4466    9.4548   18.1799 O   0  0  0  0  0  0  0  0  0  0  0  0
   55.0374    7.3914   17.1665 C   0  0  0  0  0  0  0  0  0  0  0  0
   48.6901    8.9244   16.6283 O   0  0  0  0  0  0  0  0  0  0  0  0
   48.4550   13.3016   19.4481 O   0  0  0  0  0  0  0  0  0  0  0  0
   51.1391   10.6189   17.7781 O   0  0  0  0  0  0  0  0  0  0  0  0
   51.9497    5.7804   19.7898 O   0  0  0  0  0  0  0  0  0  0  0  0
   48.5871    5.9372   17.7168 O   0  0  0  0  0  0  0  0  0  0  0  0
   49.9428   12.7463   21.0499 N   0  0  0  0  0  0  0  0  0  0  0  0
   51.2104    4.3200   18.0773 C   0  0  0  0  0  0  0  0  0  0  0  0
   54.0163    4.8213   17.3796 C   0  0  0  0  0  0  0  0  0  0  0  0
   55.6294    8.6207   17.0686 O   0  0  0  0  0  0  0  0  0  0  0  0
   55.3151    5.0229   16.8912 C   0  0  0  0  0  0  0  0  0  0  0  0
   55.8243    6.3089   16.7914 C   0  0  0  0  0  0  0  0  0  0  0  0
   47.0675    8.8763   22.2018 C   0  0  0  0  0  0  0  0  0  0  0  0
   47.5027    6.6626   21.4720 C   0  0  0  0  0  0  0  0  0  0  0  0
   50.5570    7.9331   19.0058 Ca  0  0  0  0  0 15  0  0  0  0  0  0
   51.7321    5.5858   19.7033 H   0  0  0  0  0  0  0  0  0  0  0  0
   50.4119    8.0552   21.2292 H   0  0  0  0  0  0  0  0  0  0  0  0
   50.3746    6.1555   17.2028 H   0  0  0  0  0  0  0  0  0  0  0  0
   49.2742    6.8426   18.7104 H   0  0  0  0  0  0  0  0  0  0  0  0
   53.7308    7.7938   20.7663 H   0  0  0  0  0  0  0  0  0  0  0  0
   52.2086   10.6903   18.3915 H   0  0  0  0  0  0  0  0  0  0  0  0
   47.8088    6.6805   20.5641 H   0  0  0  0  0  0  0  0  0  0  0  0
   50.1890    5.4495   20.9704 H   0  0  0  0  0  0  0  0  0  0  0  0
   53.4037    9.3827   15.9864 H   0  0  0  0  0  0  0  0  0  0  0  0
   54.8952    9.4402   15.1448 H   0  0  0  0  0  0  0  0  0  0  0  0
   47.3712    8.7305   22.7214 H   0  0  0  0  0  0  0  0  0  0  0  0
   49.0547    9.2866   22.7274 H   0  0  0  0  0  0  0  0  0  0  0  0
   48.6633    7.5550   22.7026 H   0  0  0  0  0  0  0  0  0  0  0  0
   45.8431    9.4739   21.0502 H   0  0  0  0  0  0  0  0  0  0  0  0
   49.5875   12.6319   18.2432 H   0  0  0  0  0  0  0  0  0  0  0  0
   44.8648   11.6073   20.3173 H   0  0  0  0  0  0  0  0  0  0  0  0
   46.2441   13.2500   19.0703 H   0  0  0  0  0  0  0  0  0  0  0  0
   49.5138    4.0464   17.7915 H   0  0  0  0  0  0  0  0  0  0  0  0
   50.5701    2.6487   17.7755 H   0  0  0  0  0  0  0  0  0  0  0  0
   50.5767    3.7217   19.1830 H   0  0  0  0  0  0  0  0  0  0  0  0
   52.9291    2.8807   17.6286 H   0  0  0  0  0  0  0  0  0  0  0  0
   53.1998    4.1877   18.7793 H   0  0  0  0  0  0  0  0  0  0  0  0
   53.6426    4.3688   17.0627 H   0  0  0  0  0  0  0  0  0  0  0  0
   47.6182    7.9358   18.6836 H   0  0  0  0  0  0  0  0  0  0  0  0
   50.6712    6.6659   16.8208 H   0  0  0  0  0  0  0  0  0  0  0  0
   49.5971    7.8544   20.8604 H   0  0  0  0  0  0  0  0  0  0  0  0
   49.5039    6.1581   19.5075 H   0  0  0  0  0  0  0  0  0  0  0  0
   48.4400    9.8003   16.2656 H   0  0  0  0  0  0  0  0  0  0  0  0
   52.0827   10.6106   18.0567 H   0  0  0  0  0  0  0  0  0  0  0  0
   52.8800    5.9510   20.0220 H   0  0  0  0  0  0  0  0  0  0  0  0
   47.6584    6.0840   17.9627 H   0  0  0  0  0  0  0  0  0  0  0  0
   49.8638   13.6566   21.4646 H   0  0  0  0  0  0  0  0  0  0  0  0
   50.1692   11.9442   21.6596 H   0  0  0  0  0  0  0  0  0  0  0  0
   51.1380    4.1214   17.0013 H   0  0  0  0  0  0  0  0  0  0  0  0
   51.8089    3.5286   18.5446 H   0  0  0  0  0  0  0  0  0  0  0  0
   50.2193    4.1946   18.5205 H   0  0  0  0  0  0  0  0  0  0  0  0
   53.6780    3.7936   17.4675 H   0  0  0  0  0  0  0  0  0  0  0  0
   55.0362    9.2770   17.5048 H   0  0  0  0  0  0  0  0  0  0  0  0
   55.9345    4.1687   16.6213 H   0  0  0  0  0  0  0  0  0  0  0  0
   56.8430    6.4697   16.4419 H   0  0  0  0  0  0  0  0  0  0  0  0
   46.9224    9.9266   21.9302 H   0  0  0  0  0  0  0  0  0  0  0  0
   47.7517    8.7972   23.0507 H   0  0  0  0  0  0  0  0  0  0  0  0
   46.0798    8.5453   22.5549 H   0  0  0  0  0  0  0  0  0  0  0  0
   47.6176    5.9948   20.6155 H   0  0  0  0  0  0  0  0  0  0  0  0
   48.2982    6.4563   22.1978 H   0  0  0  0  0  0  0  0  0  0  0  0
   46.5446    6.3781   21.9234 H   0  0  0  0  0  0  0  0  0  0  0  0
  2  5  2  0
  3  1  1  0
  4  7  1  0
  5  1  1  0
  6  2  1  0
  7  1  1  0
  8  4  2  0
  9  2  1  0
 10  6  1  0
  3 11  1  0
 12  3  1  0
 13  9  1  0
 14 13  2  0
 15  4  1  0
 16  8  1  0
 11 17  1  0
 18  7  2  0
 19  9  2  0
 20 13  1  0
  1 21  1  6
 22 15  2  0
 23  5  1  0
 10 24  1  1
 12 25  1  0
 26 15  1  0
 10 27  1  0
 28 14  1  0
 29 20  1  0
 30 31  1  0
 31 20  2  0
 32 17  1  0
 33 17  1  0
 12  6  1  0
 11  8  1  0
 10 14  1  0
 30 28  2  0
 35 38  2  0
 36 34  1  0
 37 40  1  0
 38 34  1  0
 39 35  1  0
 40 34  1  0
 41 37  2  0
 42 35  1  0
 43 39  1  0
 36 44  1  0
 45 36  1  0
 46 42  1  0
 47 46  2  0
 48 37  1  0
 49 41  1  0
 44 50  1  0
 51 40  2  0
 52 42  2  0
 53 46  1  0
 34 54  1  1
 55 48  2  0
 56 38  1  0
 43 57  1  6
 45 58  1  0
 59 48  1  0
 43 60  1  0
 61 47  1  0
 62 53  1  0
 63 64  1  0
 64 53  2  0
 65 50  1  0
 66 50  1  0
 45 39  1  0
 44 41  1  0
 43 47  1  0
 63 61  2  0
  3 68  1  6
  6 69  1  6
 11 70  1  1
 12 71  1  1
 21 72  1  0
 23 73  1  0
 24 74  1  0
 25 75  1  0
 26 76  1  0
 26 77  1  0
 27 78  1  0
 27 79  1  0
 27 80  1  0
 28 81  1  0
 29 82  1  0
 30 83  1  0
 31 84  1  0
 32 85  1  0
 32 86  1  0
 32 87  1  0
 33 88  1  0
 33 89  1  0
 33 90  1  0
 36 91  1  1
 39 92  1  1
 44 93  1  6
 45 94  1  6
 54 95  1  0
 56 96  1  0
 57 97  1  0
 58 98  1  0
 59 99  1  0
 59100  1  0
 60101  1  0
 60102  1  0
 60103  1  0
 61104  1  0
 62105  1  0
 63106  1  0
 64107  1  0
 65108  1  0
 65109  1  0
 65110  1  0
 66111  1  0
 66112  1  0
 66113  1  0
M  CHG  3  16  -1  49  -1  67   2
M  END
> <Uni-Dock RESULT> 
ENERGY=   -4.328  LOWER_BOUND=    2.189  UPPER_BOUND=    4.463
INTER + INTRA:          -4.328
INTER:                  -4.328
INTRA:                   0.000
UNBOUND:                 0.000

$$$$

     RDKit          3D

113118  0  0  0  0  0  0  0  0999 V2000
   48.3548    8.0004   18.8058 C   0  0  2  0  0  0  0  0  0  0  0  0
   49.3093    8.5465   16.5730 C   0  0  0  0  0  0  0  0  0  0  0  0
   48.4180    6.5056   18.4768 C   0  0  2  0  0  0  0  0  0  0  0  0
   49.9502    7.7137   20.7845 C   0  0  0  0  0  0  0  0  0  0  0  0
   49.2270    8.8399   17.8905 C   0  0  0  0  0  0  0  0  0  0  0  0
   48.4136    7.4706   16.0259 C   0  0  1  0  0  0  0  0  0  0  0  0
   48.6450    8.2120   20.3055 C   0  0  0  0  0  0  0  0  0  0  0  0
   50.4952    6.6549   20.1333 C   0  0  0  0  0  0  0  0  0  0  0  0
   50.2218    9.3100   15.6907 C   0  0  0  0  0  0  0  0  0  0  0  0
   48.5018    7.1698   14.4864 C   0  0  1  0  0  0  0  0  0  0  0  0
   49.5734    5.7588   19.2436 C   0  0  1  0  0  0  0  0  0  0  0  0
   48.5042    6.2199   16.9328 C   0  0  2  0  0  0  0  0  0  0  0  0
   50.3900    8.8972   14.2811 C   0  0  0  0  0  0  0  0  0  0  0  0
   49.5958    7.8939   13.7165 C   0  0  0  0  0  0  0  0  0  0  0  0
   50.7139    8.5221   21.7678 C   0  0  0  0  0  0  0  0  0  0  0  0
   51.6980    6.2575   20.1309 O   0  0  0  0  0  0  0  0  0  0  0  0
   49.0824    4.5626   20.0033 N   0  0  0  0  0  0  0  0  0  0  0  0
   47.8497    8.8268   21.0271 O   0  0  0  0  0  0  0  0  0  0  0  0
   50.8612   10.2713   16.1251 O   0  0  0  0  0  0  0  0  0  0  0  0
   51.3809    9.5262   13.4961 C   0  0  0  0  0  0  0  0  0  0  0  0
   46.9982    8.4460   18.5660 O   0  0  0  0  0  0  0  0  0  0  0  0
   50.6746    8.3468   22.9857 O   0  0  0  0  0  0  0  0  0  0  0  0
   49.9000    9.9002   18.4744 O   0  0  0  0  0  0  0  0  0  0  0  0
   48.7381    5.7764   14.2336 O   0  0  0  0  0  0  0  0  0  0  0  0
   47.4508    5.3132   16.5265 O   0  0  0  0  0  0  0  0  0  0  0  0
   51.4979    9.4933   21.2002 N   0  0  0  0  0  0  0  0  0  0  0  0
   47.1275    7.5015   13.8445 C   0  0  0  0  0  0  0  0  0  0  0  0
   49.8337    7.5461   12.3652 C   0  0  0  0  0  0  0  0  0  0  0  0
   52.2104   10.5154   13.9778 O   0  0  0  0  0  0  0  0  0  0  0  0
   50.8087    8.1859   11.5932 C   0  0  0  0  0  0  0  0  0  0  0  0
   51.5923    9.1809   12.1667 C   0  0  0  0  0  0  0  0  0  0  0  0
   48.4725    3.5415   19.1723 C   0  0  0  0  0  0  0  0  0  0  0  0
   48.2779    4.8665   21.1838 C   0  0  0  0  0  0  0  0  0  0  0  0
   51.0546    7.4607   15.9695 C   0  0  2  0  0  0  0  0  0  0  0  0
   50.1036    7.7676   18.2508 C   0  0  0  0  0  0  0  0  0  0  0  0
   49.9067    6.5046   15.6574 C   0  0  2  0  0  0  0  0  0  0  0  0
   50.1513    9.2029   14.3491 C   0  0  0  0  0  0  0  0  0  0  0  0
   50.7794    8.2923   17.2067 C   0  0  0  0  0  0  0  0  0  0  0  0
   49.7781    6.2924   18.3054 C   0  0  1  0  0  0  0  0  0  0  0  0
   51.2719    8.2968   14.6974 C   0  0  0  0  0  0  0  0  0  0  0  0
   48.9010    8.7504   14.6481 C   0  0  0  0  0  0  0  0  0  0  0  0
   49.8093    8.6195   19.4295 C   0  0  0  0  0  0  0  0  0  0  0  0
   48.6802    5.9343   19.3690 C   0  0  1  0  0  0  0  0  0  0  0  0
   48.6781    7.2316   14.9911 C   0  0  1  0  0  0  0  0  0  0  0  0
   49.4809    5.6713   16.8997 C   0  0  2  0  0  0  0  0  0  0  0  0
   49.4382    7.9591   20.6991 C   0  0  0  0  0  0  0  0  0  0  0  0
   48.9530    6.6408   20.7003 C   0  0  0  0  0  0  0  0  0  0  0  0
   50.4629   10.5863   13.8382 C   0  0  0  0  0  0  0  0  0  0  0  0
   47.8040    9.3974   14.7000 O   0  0  0  0  0  0  0  0  0  0  0  0
   48.2944    6.3761   13.7934 N   0  0  0  0  0  0  0  0  0  0  0  0
   52.3263    8.2233   14.0637 O   0  0  0  0  0  0  0  0  0  0  0  0
   49.8758    9.8436   19.3844 O   0  0  0  0  0  0  0  0  0  0  0  0
   49.5769    8.6682   21.9032 C   0  0  0  0  0  0  0  0  0  0  0  0
   52.2451    6.6986   16.2526 O   0  0  0  0  0  0  0  0  0  0  0  0
   51.4942   10.8941   13.2526 O   0  0  0  0  0  0  0  0  0  0  0  0
   51.2633    9.5906   17.1816 O   0  0  0  0  0  0  0  0  0  0  0  0
   47.4041    6.3820   18.8926 O   0  0  0  0  0  0  0  0  0  0  0  0
   50.1507    4.3849   16.8685 O   0  0  0  0  0  0  0  0  0  0  0  0
   49.4838   11.5241   14.0581 N   0  0  0  0  0  0  0  0  0  0  0  0
   48.5452    4.4042   19.5235 C   0  0  0  0  0  0  0  0  0  0  0  0
   48.6515    6.0538   21.9481 C   0  0  0  0  0  0  0  0  0  0  0  0
   49.9898    9.9708   21.9663 O   0  0  0  0  0  0  0  0  0  0  0  0
   48.8358    6.7545   23.1486 C   0  0  0  0  0  0  0  0  0  0  0  0
   49.2931    8.0634   23.1219 C   0  0  0  0  0  0  0  0  0  0  0  0
   47.6900    7.1141   12.6780 C   0  0  0  0  0  0  0  0  0  0  0  0
   47.3723    5.3055   14.1784 C   0  0  0  0  0  0  0  0  0  0  0  0
   49.2825    7.3248   17.2278 Ca  0  0  0  0  0 15  0  0  0  0  0  0
   47.4605    6.0917   18.8206 H   0  0  0  0  0  0  0  0  0  0  0  0
   47.3935    7.8572   16.1659 H   0  0  0  0  0  0  0  0  0  0  0  0
   50.2410    5.3352   18.4796 H   0  0  0  0  0  0  0  0  0  0  0  0
   49.4461    5.7088   16.6951 H   0  0  0  0  0  0  0  0  0  0  0  0
   46.8675    9.1728   19.2139 H   0  0  0  0  0  0  0  0  0  0  0  0
   50.4773   10.3172   17.7976 H   0  0  0  0  0  0  0  0  0  0  0  0
   48.1077    5.2670   14.7916 H   0  0  0  0  0  0  0  0  0  0  0  0
   46.6721    5.5007   17.0786 H   0  0  0  0  0  0  0  0  0  0  0  0
   51.8049    9.2670   20.2587 H   0  0  0  0  0  0  0  0  0  0  0  0
   52.1982    9.8622   21.8167 H   0  0  0  0  0  0  0  0  0  0  0  0
   47.0962    7.2589   12.7773 H   0  0  0  0  0  0  0  0  0  0  0  0
   46.8818    8.5588   13.9638 H   0  0  0  0  0  0  0  0  0  0  0  0
   46.3332    6.9058   14.3087 H   0  0  0  0  0  0  0  0  0  0  0  0
   49.2510    6.7512   11.8945 H   0  0  0  0  0  0  0  0  0  0  0  0
   52.0193   10.6194   14.9353 H   0  0  0  0  0  0  0  0  0  0  0  0
   50.9722    7.8940   10.5614 H   0  0  0  0  0  0  0  0  0  0  0  0
   52.3662    9.6734   11.5843 H   0  0  0  0  0  0  0  0  0  0  0  0
   49.1203    3.2718   18.3309 H   0  0  0  0  0  0  0  0  0  0  0  0
   48.3283    2.6164   19.7496 H   0  0  0  0  0  0  0  0  0  0  0  0
   47.4925    3.8382   18.7795 H   0  0  0  0  0  0  0  0  0  0  0  0
   47.9543    3.9434   21.6834 H   0  0  0  0  0  0  0  0  0  0  0  0
   47.3704    5.4342   20.9471 H   0  0  0  0  0  0  0  0  0  0  0  0
   48.8519    5.4178   21.9372 H   0  0  0  0  0  0  0  0  0  0  0  0
   50.3094    5.8026   14.9107 H   0  0  0  0  0  0  0  0  0  0  0  0
   50.7025    5.8242   18.6854 H   0  0  0  0  0  0  0  0  0  0  0  0
   47.8482    7.2029   15.7129 H   0  0  0  0  0  0  0  0  0  0  0  0
   48.4164    5.4273   16.8267 H   0  0  0  0  0  0  0  0  0  0  0  0
   52.9684    7.2287   15.8563 H   0  0  0  0  0  0  0  0  0  0  0  0
   50.7753   10.1127   17.8580 H   0  0  0  0  0  0  0  0  0  0  0  0
   47.0298    7.0372   19.5083 H   0  0  0  0  0  0  0  0  0  0  0  0
   50.2231    4.1049   15.9407 H   0  0  0  0  0  0  0  0  0  0  0  0
   49.4876   12.3431   13.4782 H   0  0  0  0  0  0  0  0  0  0  0  0
   48.5759   11.1000   14.3071 H   0  0  0  0  0  0  0  0  0  0  0  0
   49.4414    3.9589   19.9719 H   0  0  0  0  0  0  0  0  0  0  0  0
   47.6740    4.1407   20.1355 H   0  0  0  0  0  0  0  0  0  0  0  0
   48.3531    3.9093   18.5682 H   0  0  0  0  0  0  0  0  0  0  0  0
   48.2615    5.0436   22.0232 H   0  0  0  0  0  0  0  0  0  0  0  0
   50.0058   10.3273   21.0467 H   0  0  0  0  0  0  0  0  0  0  0  0
   48.5891    6.2823   24.0985 H   0  0  0  0  0  0  0  0  0  0  0  0
   49.4088    8.6227   24.0489 H   0  0  0  0  0  0  0  0  0  0  0  0
   48.3735    7.8630   12.2659 H   0  0  0  0  0  0  0  0  0  0  0  0
   46.7340    7.5771   12.9361 H   0  0  0  0  0  0  0  0  0  0  0  0
   47.4975    6.4279   11.8403 H   0  0  0  0  0  0  0  0  0  0  0  0
   47.8452    4.6084   14.8733 H   0  0  0  0  0  0  0  0  0  0  0  0
   46.4483    5.6890   14.6270 H   0  0  0  0  0  0  0  0  0  0  0  0
   47.1031    4.6952   13.3080 H   0  0  0  0  0  0  0  0  0  0  0  0
  2  5  2  0
  3  1  1  0
  4  7  1  0
  5  1  1  0
  6  2  1  0
  7  1  1  0
  8  4  2  0
  9  2  1  0
 10  6  1  0
  3 11  1  0
 12  3  1  0
 13  9  1  0
 14 13  2  0
 15  4  1  0
 16  8  1  0
 11 17  1  0
 18  7  2  0
 19  9  2  0
 20 13  1  0
  1 21  1  6
 22 15  2  0
 23  5  1  0
 10 24  1  1
 12 25  1  0
 26 15  1  0
 10 27  1  0
 28 14  1  0
 29 20  1  0
 30 31  1  0
 31 20  2  0
 32 17  1  0
 33 17  1  0
 12  6  1  0
 11  8  1  0
 10 14  1  0
 30 28  2  0
 35 38  2  0
 36 34  1  0
 37 40  1  0
 38 34  1  0
 39 35  1  0
 40 34  1  0
 41 37  2  0
 42 35  1  0
 43 39  1  0
 36 44  1  0
 45 36  1  0
 46 42  1  0
 47 46  2  0
 48 37  1  0
 49 41  1  0
 44 50  1  0
 51 40  2  0
 52 42  2  0
 53 46  1  0
 34 54  1  1
 55 48  2  0
 56 38  1  0
 43 57  1  6
 45 58  1  0
 59 48  1  0
 43 60  1  0
 61 47  1  0
 62 53  1  0
 63 64  1  0
 64 53  2  0
 65 50  1  0
 66 50  1  0
 45 39  1  0
 44 41  1  0
 43 47  1  0
 63 61  2  0
  3 68  1  6
  6 69  1  6
 11 70  1  1
 12 71  1  1
 21 72  1  0
 23 73  1  0
 24 74  1  0
 25 75  1  0
 26 76  1  0
 26 77  1  0
 27 78  1  0
 27 79  1  0
 27 80  1  0
 28 81  1  0
 29 82  1  0
 30 83  1  0
 31 84  1  0
 32 85  1  0
 32 86  1  0
 32 87  1  0
 33 88  1  0
 33 89  1  0
 33 90  1  0
 36 91  1  1
 39 92  1  1
 44 93  1  6
 45 94  1  6
 54 95  1  0
 56 96  1  0
 57 97  1  0
 58 98  1  0
 59 99  1  0
 59100  1  0
 60101  1  0
 60102  1  0
 60103  1  0
 61104  1  0
 62105  1  0
 63106  1  0
 64107  1  0
 65108  1  0
 65109  1  0
 65110  1  0
 66111  1  0
 66112  1  0
 66113  1  0
M  CHG  3  16  -1  49  -1  67   2
M  END
> <Uni-Dock RESULT> 
ENERGY=   -4.300  LOWER_BOUND=    2.913  UPPER_BOUND=    6.206
INTER + INTRA:          -4.300
INTER:                  -4.300
INTRA:                   0.000
UNBOUND:                 0.000

$$$$

     RDKit          3D

113118  0  0  0  0  0  0  0  0999 V2000
   49.3991    7.8364   17.1148 C   0  0  2  0  0  0  0  0  0  0  0  0
   49.1905   10.1421   18.0284 C   0  0  0  0  0  0  0  0  0  0  0  0
   50.9084    7.8601   17.3760 C   0  0  2  0  0  0  0  0  0  0  0  0
   49.0754    5.8553   18.7001 C   0  0  0  0  0  0  0  0  0  0  0  0
   48.6532    8.9092   17.8866 C   0  0  0  0  0  0  0  0  0  0  0  0
   50.4610   10.4544   17.2885 C   0  0  1  0  0  0  0  0  0  0  0  0
   48.8565    6.4122   17.3497 C   0  0  0  0  0  0  0  0  0  0  0  0
   50.1629    6.2865   19.3882 C   0  0  0  0  0  0  0  0  0  0  0  0
   48.5065   11.1678   18.8495 C   0  0  0  0  0  0  0  0  0  0  0  0
   51.0489   11.9034   17.4409 C   0  0  1  0  0  0  0  0  0  0  0  0
   51.3305    6.9702   18.6049 C   0  0  1  0  0  0  0  0  0  0  0  0
   51.4829    9.3165   17.5244 C   0  0  2  0  0  0  0  0  0  0  0  0
   49.1670   12.4678   19.0934 C   0  0  0  0  0  0  0  0  0  0  0  0
   50.3572   12.8127   18.4451 C   0  0  0  0  0  0  0  0  0  0  0  0
   47.9947    5.0608   19.3362 C   0  0  0  0  0  0  0  0  0  0  0  0
   50.3931    6.2206   20.6320 O   0  0  0  0  0  0  0  0  0  0  0  0
   52.4044    5.9819   18.2598 N   0  0  0  0  0  0  0  0  0  0  0  0
   48.2186    5.8207   16.4697 O   0  0  0  0  0  0  0  0  0  0  0  0
   47.4031   10.9405   19.3519 O   0  0  0  0  0  0  0  0  0  0  0  0
   48.5841   13.3720   20.0079 C   0  0  0  0  0  0  0  0  0  0  0  0
   49.1904    8.1478   15.7162 O   0  0  0  0  0  0  0  0  0  0  0  0
   47.9269    3.8322   19.2993 O   0  0  0  0  0  0  0  0  0  0  0  0
   47.4194    8.5556   18.4071 O   0  0  0  0  0  0  0  0  0  0  0  0
   52.4220   11.8744   17.8594 O   0  0  0  0  0  0  0  0  0  0  0  0
   52.5813    9.5232   16.6039 O   0  0  0  0  0  0  0  0  0  0  0  0
   47.0629    5.8186   19.9978 N   0  0  0  0  0  0  0  0  0  0  0  0
   51.0335   12.5858   16.0463 C   0  0  0  0  0  0  0  0  0  0  0  0
   50.9339   14.0693   18.7487 C   0  0  0  0  0  0  0  0  0  0  0  0
   47.4194   13.1058   20.6945 O   0  0  0  0  0  0  0  0  0  0  0  0
   50.3399   14.9627   19.6459 C   0  0  0  0  0  0  0  0  0  0  0  0
   49.1573   14.6073   20.2846 C   0  0  0  0  0  0  0  0  0  0  0  0
   53.6412    6.5861   17.8009 C   0  0  0  0  0  0  0  0  0  0  0  0
   51.9781    4.8787   17.4029 C   0  0  0  0  0  0  0  0  0  0  0  0
   50.1388   10.5324   19.9093 C   0  0  2  0  0  0  0  0  0  0  0  0
   49.5088    8.3499   18.8881 C   0  0  0  0  0  0  0  0  0  0  0  0
   51.2788   10.6360   18.8998 C   0  0  2  0  0  0  0  0  0  0  0  0
   48.8875   12.4601   18.8161 C   0  0  0  0  0  0  0  0  0  0  0  0
   49.1199    9.4841   19.5080 C   0  0  0  0  0  0  0  0  0  0  0  0
   50.9730    7.9981   18.7549 C   0  0  1  0  0  0  0  0  0  0  0  0
   49.5525   11.9480   20.0383 C   0  0  0  0  0  0  0  0  0  0  0  0
   49.4297   12.0650   17.6299 C   0  0  0  0  0  0  0  0  0  0  0  0
   48.4844    7.3627   18.4663 C   0  0  0  0  0  0  0  0  0  0  0  0
   51.2511    6.8742   17.6946 C   0  0  1  0  0  0  0  0  0  0  0  0
   50.8653   11.4229   17.5991 C   0  0  1  0  0  0  0  0  0  0  0  0
   51.8954    9.2482   18.5643 C   0  0  2  0  0  0  0  0  0  0  0  0
   48.9206    5.9832   18.1622 C   0  0  0  0  0  0  0  0  0  0  0  0
   50.2637    5.7137   17.8513 C   0  0  0  0  0  0  0  0  0  0  0  0
   47.6054   13.2405   18.9551 C   0  0  0  0  0  0  0  0  0  0  0  0
   48.9334   12.1334   16.4577 O   0  0  0  0  0  0  0  0  0  0  0  0
   51.9851   12.4215   17.3494 N   0  0  0  0  0  0  0  0  0  0  0  0
   49.6134   12.5640   21.1039 O   0  0  0  0  0  0  0  0  0  0  0  0
   47.2959    7.6526   18.3750 O   0  0  0  0  0  0  0  0  0  0  0  0
   47.9735    4.9468   18.1877 C   0  0  0  0  0  0  0  0  0  0  0  0
   50.6678   10.1135   21.1832 O   0  0  0  0  0  0  0  0  0  0  0  0
   47.2894   13.8854   19.9478 O   0  0  0  0  0  0  0  0  0  0  0  0
   47.8011    9.7730   19.8206 O   0  0  0  0  0  0  0  0  0  0  0  0
   51.0771    7.4186   16.3796 O   0  0  0  0  0  0  0  0  0  0  0  0
   53.0640    9.0276   19.3949 O   0  0  0  0  0  0  0  0  0  0  0  0
   46.7778   13.2035   17.8595 N   0  0  0  0  0  0  0  0  0  0  0  0
   52.7238    6.4153   17.7557 C   0  0  0  0  0  0  0  0  0  0  0  0
   50.6239    4.3710   17.6071 C   0  0  0  0  0  0  0  0  0  0  0  0
   46.6422    5.1495   18.4279 O   0  0  0  0  0  0  0  0  0  0  0  0
   49.6798    3.3368   17.6790 C   0  0  0  0  0  0  0  0  0  0  0  0
   48.3545    3.6291   17.9638 C   0  0  0  0  0  0  0  0  0  0  0  0
   51.5695   13.6564   16.6737 C   0  0  0  0  0  0  0  0  0  0  0  0
   53.0677   11.8215   16.5669 C   0  0  0  0  0  0  0  0  0  0  0  0
   50.2498    9.2559   18.1484 Ca  0  0  0  0  0 15  0  0  0  0  0  0
   51.3661    7.4316   16.4742 H   0  0  0  0  0  0  0  0  0  0  0  0
   50.1900   10.3851   16.2248 H   0  0  0  0  0  0  0  0  0  0  0  0
   51.8077    7.6402   19.3345 H   0  0  0  0  0  0  0  0  0  0  0  0
   51.9044    9.4559   18.5283 H   0  0  0  0  0  0  0  0  0  0  0  0
   48.3722    7.6572   15.4818 H   0  0  0  0  0  0  0  0  0  0  0  0
   47.0745    9.3076   18.9371 H   0  0  0  0  0  0  0  0  0  0  0  0
   52.8873   11.2199   17.2906 H   0  0  0  0  0  0  0  0  0  0  0  0
   52.3902    9.0127   15.7984 H   0  0  0  0  0  0  0  0  0  0  0  0
   47.4308    6.6985   20.3473 H   0  0  0  0  0  0  0  0  0  0  0  0
   46.4906    5.2949   20.6341 H   0  0  0  0  0  0  0  0  0  0  0  0
   51.4861   13.5825   16.0646 H   0  0  0  0  0  0  0  0  0  0  0  0
   50.0146   12.6782   15.6642 H   0  0  0  0  0  0  0  0  0  0  0  0
   51.6225   12.0044   15.3278 H   0  0  0  0  0  0  0  0  0  0  0  0
   51.8755   14.3660   18.2816 H   0  0  0  0  0  0  0  0  0  0  0  0
   47.1521   12.1867   20.4754 H   0  0  0  0  0  0  0  0  0  0  0  0
   50.8082   15.9167   19.8632 H   0  0  0  0  0  0  0  0  0  0  0  0
   48.6947   15.2837   20.9982 H   0  0  0  0  0  0  0  0  0  0  0  0
   53.9870    7.3625   18.4923 H   0  0  0  0  0  0  0  0  0  0  0  0
   54.4432    5.8340   17.7677 H   0  0  0  0  0  0  0  0  0  0  0  0
   53.5588    7.0211   16.7976 H   0  0  0  0  0  0  0  0  0  0  0  0
   52.8170    4.2015   17.1928 H   0  0  0  0  0  0  0  0  0  0  0  0
   51.5919    5.2157   16.4338 H   0  0  0  0  0  0  0  0  0  0  0  0
   51.2178    4.2562   17.8880 H   0  0  0  0  0  0  0  0  0  0  0  0
   52.0573   11.2309   19.4024 H   0  0  0  0  0  0  0  0  0  0  0  0
   51.2318    7.5407   19.7255 H   0  0  0  0  0  0  0  0  0  0  0  0
   50.8568   10.7023   16.7678 H   0  0  0  0  0  0  0  0  0  0  0  0
   52.2852    9.2610   17.5415 H   0  0  0  0  0  0  0  0  0  0  0  0
   50.1381   10.6147   21.8386 H   0  0  0  0  0  0  0  0  0  0  0  0
   47.2224    9.2102   19.2579 H   0  0  0  0  0  0  0  0  0  0  0  0
   50.3664    6.9430   15.9135 H   0  0  0  0  0  0  0  0  0  0  0  0
   53.5117    9.8813   19.5186 H   0  0  0  0  0  0  0  0  0  0  0  0
   46.0977   13.9356   17.7674 H   0  0  0  0  0  0  0  0  0  0  0  0
   47.2580   12.8662   17.0099 H   0  0  0  0  0  0  0  0  0  0  0  0
   52.9504    5.8953   18.6941 H   0  0  0  0  0  0  0  0  0  0  0  0
   52.9707    5.7549   16.9156 H   0  0  0  0  0  0  0  0  0  0  0  0
   53.4201    7.2504   17.6453 H   0  0  0  0  0  0  0  0  0  0  0  0
   51.6407    4.0916   17.3495 H   0  0  0  0  0  0  0  0  0  0  0  0
   46.4774    6.1219   18.4133 H   0  0  0  0  0  0  0  0  0  0  0  0
   49.9808    2.3093   17.4792 H   0  0  0  0  0  0  0  0  0  0  0  0
   47.6112    2.8339   17.9907 H   0  0  0  0  0  0  0  0  0  0  0  0
   50.8356   14.2163   17.2617 H   0  0  0  0  0  0  0  0  0  0  0  0
   51.1925   13.4872   15.6617 H   0  0  0  0  0  0  0  0  0  0  0  0
   52.4282   14.3380   16.5856 H   0  0  0  0  0  0  0  0  0  0  0  0
   53.5447   11.0056   17.1140 H   0  0  0  0  0  0  0  0  0  0  0  0
   52.7258   11.4501   15.5936 H   0  0  0  0  0  0  0  0  0  0  0  0
   53.8692   12.5496   16.3935 H   0  0  0  0  0  0  0  0  0  0  0  0
  2  5  2  0
  3  1  1  0
  4  7  1  0
  5  1  1  0
  6  2  1  0
  7  1  1  0
  8  4  2  0
  9  2  1  0
 10  6  1  0
  3 11  1  0
 12  3  1  0
 13  9  1  0
 14 13  2  0
 15  4  1  0
 16  8  1  0
 11 17  1  0
 18  7  2  0
 19  9  2  0
 20 13  1  0
  1 21  1  6
 22 15  2  0
 23  5  1  0
 10 24  1  1
 12 25  1  0
 26 15  1  0
 10 27  1  0
 28 14  1  0
 29 20  1  0
 30 31  1  0
 31 20  2  0
 32 17  1  0
 33 17  1  0
 12  6  1  0
 11  8  1  0
 10 14  1  0
 30 28  2  0
 35 38  2  0
 36 34  1  0
 37 40  1  0
 38 34  1  0
 39 35  1  0
 40 34  1  0
 41 37  2  0
 42 35  1  0
 43 39  1  0
 36 44  1  0
 45 36  1  0
 46 42  1  0
 47 46  2  0
 48 37  1  0
 49 41  1  0
 44 50  1  0
 51 40  2  0
 52 42  2  0
 53 46  1  0
 34 54  1  1
 55 48  2  0
 56 38  1  0
 43 57  1  6
 45 58  1  0
 59 48  1  0
 43 60  1  0
 61 47  1  0
 62 53  1  0
 63 64  1  0
 64 53  2  0
 65 50  1  0
 66 50  1  0
 45 39  1  0
 44 41  1  0
 43 47  1  0
 63 61  2  0
  3 68  1  6
  6 69  1  6
 11 70  1  1
 12 71  1  1
 21 72  1  0
 23 73  1  0
 24 74  1  0
 25 75  1  0
 26 76  1  0
 26 77  1  0
 27 78  1  0
 27 79  1  0
 27 80  1  0
 28 81  1  0
 29 82  1  0
 30 83  1  0
 31 84  1  0
 32 85  1  0
 32 86  1  0
 32 87  1  0
 33 88  1  0
 33 89  1  0
 33 90  1  0
 36 91  1  1
 39 92  1  1
 44 93  1  6
 45 94  1  6
 54 95  1  0
 56 96  1  0
 57 97  1  0
 58 98  1  0
 59 99  1  0
 59100  1  0
 60101  1  0
 60102  1  0
 60103  1  0
 61104  1  0
 62105  1  0
 63106  1  0
 64107  1  0
 65108  1  0
 65109  1  0
 65110  1  0
 66111  1  0
 66112  1  0
 66113  1  0
M  CHG  3  16  -1  49  -1  67   2
M  END
> <Uni-Dock RESULT> 
ENERGY=   -4.269  LOWER_BOUND=    1.798  UPPER_BOUND=    2.396
INTER + INTRA:          -4.269
INTER:                  -4.269
INTRA:                   0.000
UNBOUND:                 0.000

$$$$
