
     RDKit          3D

113118  0  0  0  0  0  0  0  0999 V2000
   52.9358    5.7584   20.1079 C   0  0  2  0  0  0  0  0  0  0  0  0
   51.4432    7.7340   20.5693 C   0  0  0  0  0  0  0  0  0  0  0  0
   51.6875    4.8609   20.1260 C   0  0  2  0  0  0  0  0  0  0  0  0
   52.9239    5.8698   17.5658 C   0  0  0  0  0  0  0  0  0  0  0  0
   52.6519    7.2497   20.2263 C   0  0  0  0  0  0  0  0  0  0  0  0
   50.3011    6.8979   21.0711 C   0  0  1  0  0  0  0  0  0  0  0  0
   53.6896    5.5015   18.7874 C   0  0  0  0  0  0  0  0  0  0  0  0
   51.5808    5.7017   17.6665 C   0  0  0  0  0  0  0  0  0  0  0  0
   51.2123    9.1998   20.5664 C   0  0  0  0  0  0  0  0  0  0  0  0
   48.9219    7.2804   20.4409 C   0  0  1  0  0  0  0  0  0  0  0  0
   51.0632    4.6685   18.7157 C   0  0  1  0  0  0  0  0  0  0  0  0
   50.6477    5.3843   21.1444 C   0  0  2  0  0  0  0  0  0  0  0  0
   49.8335    9.6878   20.3432 C   0  0  0  0  0  0  0  0  0  0  0  0
   48.7636    8.7837   20.2091 C   0  0  0  0  0  0  0  0  0  0  0  0
   53.5816    6.6765   16.5099 C   0  0  0  0  0  0  0  0  0  0  0  0
   50.6328    6.2904   17.0737 O   0  0  0  0  0  0  0  0  0  0  0  0
   51.1017    3.2302   18.2966 N   0  0  0  0  0  0  0  0  0  0  0  0
   54.8479    5.0818   18.7721 O   0  0  0  0  0  0  0  0  0  0  0  0
   52.1458    9.9944   20.7105 O   0  0  0  0  0  0  0  0  0  0  0  0
   49.6097   11.0722   20.1992 C   0  0  0  0  0  0  0  0  0  0  0  0
   53.7415    5.4267   21.2535 O   0  0  0  0  0  0  0  0  0  0  0  0
   53.8109    6.2634   15.3797 O   0  0  0  0  0  0  0  0  0  0  0  0
   53.7313    8.0799   19.9369 O   0  0  0  0  0  0  0  0  0  0  0  0
   48.6305    6.6341   19.2140 O   0  0  0  0  0  0  0  0  0  0  0  0
   51.1539    5.1290   22.4784 O   0  0  0  0  0  0  0  0  0  0  0  0
   54.0075    7.9098   16.9165 N   0  0  0  0  0  0  0  0  0  0  0  0
   47.8135    6.7972   21.4148 C   0  0  0  0  0  0  0  0  0  0  0  0
   47.5054    9.3084   19.8403 C   0  0  0  0  0  0  0  0  0  0  0  0
   50.5944   12.0176   20.3499 O   0  0  0  0  0  0  0  0  0  0  0  0
   47.2964   10.6815   19.6922 C   0  0  0  0  0  0  0  0  0  0  0  0
   48.3467   11.5647   19.8882 C   0  0  0  0  0  0  0  0  0  0  0  0
   50.0846    2.9733   17.2665 C   0  0  0  0  0  0  0  0  0  0  0  0
   52.3962    2.7422   17.8395 C   0  0  0  0  0  0  0  0  0  0  0  0
   50.2914    5.5838   18.0263 C   0  0  2  0  0  0  0  0  0  0  0  0
   49.2947    7.7451   18.8755 C   0  0  0  0  0  0  0  0  0  0  0  0
   51.6793    5.9895   18.6242 C   0  0  2  0  0  0  0  0  0  0  0  0
   51.0818    3.1412   18.0561 C   0  0  0  0  0  0  0  0  0  0  0  0
   49.1110    6.4828   18.4424 C   0  0  0  0  0  0  0  0  0  0  0  0
   50.6845    8.3269   18.9372 C   0  0  1  0  0  0  0  0  0  0  0  0
   49.9911    4.0997   18.3012 C   0  0  0  0  0  0  0  0  0  0  0  0
   52.2990    3.4334   18.5825 C   0  0  0  0  0  0  0  0  0  0  0  0
   48.1748    8.4814   19.5322 C   0  0  0  0  0  0  0  0  0  0  0  0
   50.7447    9.7450   19.5965 C   0  0  1  0  0  0  0  0  0  0  0  0
   52.4294    4.7989   19.3530 C   0  0  1  0  0  0  0  0  0  0  0  0
   51.5724    7.2350   19.5721 C   0  0  2  0  0  0  0  0  0  0  0  0
   48.5502    9.2599   20.7316 C   0  0  0  0  0  0  0  0  0  0  0  0
   49.8416    9.8054   20.8159 C   0  0  0  0  0  0  0  0  0  0  0  0
   50.7683    1.9167   17.2564 C   0  0  0  0  0  0  0  0  0  0  0  0
   53.3340    2.7070   18.5774 O   0  0  0  0  0  0  0  0  0  0  0  0
   53.7763    5.2972   19.8137 N   0  0  0  0  0  0  0  0  0  0  0  0
   48.8771    3.7066   18.6667 O   0  0  0  0  0  0  0  0  0  0  0  0
   46.9897    8.4087   19.2134 O   0  0  0  0  0  0  0  0  0  0  0  0
   47.6377    9.4092   21.7818 C   0  0  0  0  0  0  0  0  0  0  0  0
   50.3611    5.7368   16.5952 O   0  0  0  0  0  0  0  0  0  0  0  0
   49.8420    1.8735   16.4506 O   0  0  0  0  0  0  0  0  0  0  0  0
   47.8273    5.9480   18.3934 O   0  0  0  0  0  0  0  0  0  0  0  0
   52.0668   10.1588   19.9524 O   0  0  0  0  0  0  0  0  0  0  0  0
   52.8673    7.7884   19.8424 O   0  0  0  0  0  0  0  0  0  0  0  0
   51.5990    0.8531   17.4477 N   0  0  0  0  0  0  0  0  0  0  0  0
   50.2670   10.8167   18.5944 C   0  0  0  0  0  0  0  0  0  0  0  0
   50.2166   10.4482   22.0057 C   0  0  0  0  0  0  0  0  0  0  0  0
   46.3529    8.9355   21.7227 O   0  0  0  0  0  0  0  0  0  0  0  0
   49.3189   10.5510   23.0700 C   0  0  0  0  0  0  0  0  0  0  0  0
   48.0273   10.0405   22.9520 C   0  0  0  0  0  0  0  0  0  0  0  0
   54.7676    5.4256   18.7361 C   0  0  0  0  0  0  0  0  0  0  0  0
   54.3197    4.4774   20.8983 C   0  0  0  0  0  0  0  0  0  0  0  0
   50.9134    6.7255   19.4259 Ca  0  0  0  0  0 15  0  0  0  0  0  0
   52.0033    3.8742   20.5051 H   0  0  0  0  0  0  0  0  0  0  0  0
   50.2135    7.2268   22.1221 H   0  0  0  0  0  0  0  0  0  0  0  0
   49.9926    4.8280   18.8696 H   0  0  0  0  0  0  0  0  0  0  0  0
   49.7415    4.7738   21.0790 H   0  0  0  0  0  0  0  0  0  0  0  0
   54.6405    5.2972   20.8823 H   0  0  0  0  0  0  0  0  0  0  0  0
   53.4972    8.9899   20.2339 H   0  0  0  0  0  0  0  0  0  0  0  0
   49.3387    6.7878   18.5372 H   0  0  0  0  0  0  0  0  0  0  0  0
   52.1080    5.3554   22.4759 H   0  0  0  0  0  0  0  0  0  0  0  0
   53.7958    8.2512   17.8500 H   0  0  0  0  0  0  0  0  0  0  0  0
   54.3183    8.5593   16.2139 H   0  0  0  0  0  0  0  0  0  0  0  0
   46.8084    6.9289   20.9999 H   0  0  0  0  0  0  0  0  0  0  0  0
   47.8561    7.3227   22.3753 H   0  0  0  0  0  0  0  0  0  0  0  0
   47.8899    5.7224   21.6110 H   0  0  0  0  0  0  0  0  0  0  0  0
   46.6690    8.6378   19.6455 H   0  0  0  0  0  0  0  0  0  0  0  0
   51.4399   11.5453   20.5116 H   0  0  0  0  0  0  0  0  0  0  0  0
   46.3123   11.0543   19.4150 H   0  0  0  0  0  0  0  0  0  0  0  0
   48.1911   12.6363   19.7782 H   0  0  0  0  0  0  0  0  0  0  0  0
   50.0743    1.9085   17.0080 H   0  0  0  0  0  0  0  0  0  0  0  0
   50.2478    3.5394   16.3470 H   0  0  0  0  0  0  0  0  0  0  0  0
   49.0863    3.1974   17.6474 H   0  0  0  0  0  0  0  0  0  0  0  0
   52.7384    3.2172   16.9147 H   0  0  0  0  0  0  0  0  0  0  0  0
   52.3400    1.6661   17.6429 H   0  0  0  0  0  0  0  0  0  0  0  0
   53.1591    2.8547   18.6155 H   0  0  0  0  0  0  0  0  0  0  0  0
   52.3144    6.2935   17.7820 H   0  0  0  0  0  0  0  0  0  0  0  0
   51.0533    8.4634   17.9100 H   0  0  0  0  0  0  0  0  0  0  0  0
   51.8568    4.6408   20.2826 H   0  0  0  0  0  0  0  0  0  0  0  0
   51.1563    6.9274   20.5418 H   0  0  0  0  0  0  0  0  0  0  0  0
   49.4904    5.4693   16.2454 H   0  0  0  0  0  0  0  0  0  0  0  0
   47.8657    4.9678   18.4742 H   0  0  0  0  0  0  0  0  0  0  0  0
   52.6486    9.3671   19.9006 H   0  0  0  0  0  0  0  0  0  0  0  0
   53.4414    7.0020   19.9937 H   0  0  0  0  0  0  0  0  0  0  0  0
   52.4839    1.1132   17.9066 H   0  0  0  0  0  0  0  0  0  0  0  0
   51.6145    0.1394   16.7424 H   0  0  0  0  0  0  0  0  0  0  0  0
   49.2505   10.6435   18.2232 H   0  0  0  0  0  0  0  0  0  0  0  0
   50.2872   11.8140   19.0500 H   0  0  0  0  0  0  0  0  0  0  0  0
   50.9364   10.8642   17.7295 H   0  0  0  0  0  0  0  0  0  0  0  0
   51.2128   10.8784   22.1063 H   0  0  0  0  0  0  0  0  0  0  0  0
   46.2050    8.5900   20.8121 H   0  0  0  0  0  0  0  0  0  0  0  0
   49.6270   11.0393   23.9923 H   0  0  0  0  0  0  0  0  0  0  0  0
   47.3223   10.1356   23.7730 H   0  0  0  0  0  0  0  0  0  0  0  0
   54.9616    4.5136   18.1648 H   0  0  0  0  0  0  0  0  0  0  0  0
   54.4698    6.2060   18.0274 H   0  0  0  0  0  0  0  0  0  0  0  0
   55.7338    5.7592   19.1462 H   0  0  0  0  0  0  0  0  0  0  0  0
   55.1330    5.0253   21.3914 H   0  0  0  0  0  0  0  0  0  0  0  0
   54.7342    3.5196   20.5737 H   0  0  0  0  0  0  0  0  0  0  0  0
   53.5681    4.2888   21.6746 H   0  0  0  0  0  0  0  0  0  0  0  0
  2  5  2  0
  3  1  1  0
  4  7  1  0
  5  1  1  0
  6  2  1  0
  7  1  1  0
  8  4  2  0
  9  2  1  0
 10  6  1  0
  3 11  1  0
 12  3  1  0
 13  9  1  0
 14 13  2  0
 15  4  1  0
 16  8  1  0
 11 17  1  0
 18  7  2  0
 19  9  2  0
 20 13  1  0
  1 21  1  6
 22 15  2  0
 23  5  1  0
 10 24  1  1
 12 25  1  0
 26 15  1  0
 10 27  1  0
 28 14  1  0
 29 20  1  0
 30 31  1  0
 31 20  2  0
 32 17  1  0
 33 17  1  0
 12  6  1  0
 11  8  1  0
 10 14  1  0
 30 28  2  0
 35 38  2  0
 36 34  1  0
 37 40  1  0
 38 34  1  0
 39 35  1  0
 40 34  1  0
 41 37  2  0
 42 35  1  0
 43 39  1  0
 36 44  1  0
 45 36  1  0
 46 42  1  0
 47 46  2  0
 48 37  1  0
 49 41  1  0
 44 50  1  0
 51 40  2  0
 52 42  2  0
 53 46  1  0
 34 54  1  1
 55 48  2  0
 56 38  1  0
 43 57  1  6
 45 58  1  0
 59 48  1  0
 43 60  1  0
 61 47  1  0
 62 53  1  0
 63 64  1  0
 64 53  2  0
 65 50  1  0
 66 50  1  0
 45 39  1  0
 44 41  1  0
 43 47  1  0
 63 61  2  0
  3 68  1  6
  6 69  1  6
 11 70  1  1
 12 71  1  1
 21 72  1  0
 23 73  1  0
 24 74  1  0
 25 75  1  0
 26 76  1  0
 26 77  1  0
 27 78  1  0
 27 79  1  0
 27 80  1  0
 28 81  1  0
 29 82  1  0
 30 83  1  0
 31 84  1  0
 32 85  1  0
 32 86  1  0
 32 87  1  0
 33 88  1  0
 33 89  1  0
 33 90  1  0
 36 91  1  1
 39 92  1  1
 44 93  1  6
 45 94  1  6
 54 95  1  0
 56 96  1  0
 57 97  1  0
 58 98  1  0
 59 99  1  0
 59100  1  0
 60101  1  0
 60102  1  0
 60103  1  0
 61104  1  0
 62105  1  0
 63106  1  0
 64107  1  0
 65108  1  0
 65109  1  0
 65110  1  0
 66111  1  0
 66112  1  0
 66113  1  0
M  CHG  3  16  -1  49  -1  67   2
M  END
> <Uni-Dock RESULT> 
ENERGY=   -5.828  LOWER_BOUND=    0.000  UPPER_BOUND=    0.000
INTER + INTRA:          -5.828
INTER:                  -5.828
INTRA:                   0.000
UNBOUND:                 0.000

$$$$

     RDKit          3D

113118  0  0  0  0  0  0  0  0999 V2000
   48.7735    6.1641   17.0797 C   0  0  2  0  0  0  0  0  0  0  0  0
   49.6418    8.4608   17.6405 C   0  0  0  0  0  0  0  0  0  0  0  0
   50.2077    5.7566   16.7039 C   0  0  2  0  0  0  0  0  0  0  0  0
   48.9878    5.1125   19.3868 C   0  0  0  0  0  0  0  0  0  0  0  0
   48.6408    7.5607   17.6716 C   0  0  0  0  0  0  0  0  0  0  0  0
   50.9136    8.2947   16.8593 C   0  0  1  0  0  0  0  0  0  0  0  0
   48.2385    5.1406   18.1015 C   0  0  0  0  0  0  0  0  0  0  0  0
   50.3126    5.3871   19.2768 C   0  0  0  0  0  0  0  0  0  0  0  0
   49.4761    9.7663   18.3261 C   0  0  0  0  0  0  0  0  0  0  0  0
   52.1941    8.7158   17.6522 C   0  0  1  0  0  0  0  0  0  0  0  0
   50.9868    5.1285   17.8931 C   0  0  1  0  0  0  0  0  0  0  0  0
   50.9745    6.9485   16.0844 C   0  0  2  0  0  0  0  0  0  0  0  0
   50.6911   10.4607   18.8064 C   0  0  0  0  0  0  0  0  0  0  0  0
   51.9696    9.9294   18.5551 C   0  0  0  0  0  0  0  0  0  0  0  0
   48.2395    5.1372   20.6665 C   0  0  0  0  0  0  0  0  0  0  0  0
   51.1212    5.8805   20.1131 O   0  0  0  0  0  0  0  0  0  0  0  0
   51.3686    3.7088   17.6027 N   0  0  0  0  0  0  0  0  0  0  0  0
   47.2389    4.4574   17.8736 O   0  0  0  0  0  0  0  0  0  0  0  0
   48.3565   10.2471   18.5240 O   0  0  0  0  0  0  0  0  0  0  0  0
   50.5529   11.6315   19.5794 C   0  0  0  0  0  0  0  0  0  0  0  0
   47.9831    6.1778   15.8769 O   0  0  0  0  0  0  0  0  0  0  0  0
   48.2319    4.2124   21.4699 O   0  0  0  0  0  0  0  0  0  0  0  0
   47.4114    7.8352   18.2643 O   0  0  0  0  0  0  0  0  0  0  0  0
   52.7569    7.6936   18.4563 O   0  0  0  0  0  0  0  0  0  0  0  0
   50.4342    7.1951   14.7623 O   0  0  0  0  0  0  0  0  0  0  0  0
   47.4673    6.2490   20.8543 N   0  0  0  0  0  0  0  0  0  0  0  0
   53.2970    9.0530   16.6129 C   0  0  0  0  0  0  0  0  0  0  0  0
   53.0724   10.5557   19.1763 C   0  0  0  0  0  0  0  0  0  0  0  0
   49.3438   12.2289   19.8386 O   0  0  0  0  0  0  0  0  0  0  0  0
   52.9234   11.7109   19.9472 C   0  0  0  0  0  0  0  0  0  0  0  0
   51.6636   12.2579   20.1348 C   0  0  0  0  0  0  0  0  0  0  0  0
   52.5072    3.3066   18.4414 C   0  0  0  0  0  0  0  0  0  0  0  0
   50.2967    2.7301   17.7296 C   0  0  0  0  0  0  0  0  0  0  0  0
   51.5487    5.8065   18.9577 C   0  0  2  0  0  0  0  0  0  0  0  0
   51.8564    8.2989   19.2389 C   0  0  0  0  0  0  0  0  0  0  0  0
   50.0543    6.0369   18.5551 C   0  0  2  0  0  0  0  0  0  0  0  0
   51.4333    3.5301   17.7760 C   0  0  0  0  0  0  0  0  0  0  0  0
   52.4062    7.0835   19.0511 C   0  0  0  0  0  0  0  0  0  0  0  0
   50.3625    8.4356   19.3929 C   0  0  1  0  0  0  0  0  0  0  0  0
   52.2045    4.7554   18.0447 C   0  0  0  0  0  0  0  0  0  0  0  0
   50.1393    3.6790   17.3919 C   0  0  0  0  0  0  0  0  0  0  0  0
   52.6767    9.5300   19.0416 C   0  0  0  0  0  0  0  0  0  0  0  0
   49.8694    9.9196   19.4568 C   0  0  1  0  0  0  0  0  0  0  0  0
   49.5825    5.1493   17.3300 C   0  0  1  0  0  0  0  0  0  0  0  0
   49.7409    7.5511   18.2907 C   0  0  2  0  0  0  0  0  0  0  0  0
   52.0007   10.6285   18.3191 C   0  0  0  0  0  0  0  0  0  0  0  0
   50.6090   10.7720   18.4406 C   0  0  0  0  0  0  0  0  0  0  0  0
   52.1312    2.2169   17.9362 C   0  0  0  0  0  0  0  0  0  0  0  0
   49.3382    2.7745   17.0192 O   0  0  0  0  0  0  0  0  0  0  0  0
   48.1155    5.4074   17.0935 N   0  0  0  0  0  0  0  0  0  0  0  0
   53.3445    4.8955   17.5867 O   0  0  0  0  0  0  0  0  0  0  0  0
   53.8628    9.6520   19.3410 O   0  0  0  0  0  0  0  0  0  0  0  0
   52.7414   11.4824   17.4944 C   0  0  0  0  0  0  0  0  0  0  0  0
   51.5721    5.2699   20.2948 O   0  0  0  0  0  0  0  0  0  0  0  0
   53.1055    2.0722   18.6704 O   0  0  0  0  0  0  0  0  0  0  0  0
   53.7845    6.9630   18.9029 O   0  0  0  0  0  0  0  0  0  0  0  0
   48.4582   10.0656   19.2754 O   0  0  0  0  0  0  0  0  0  0  0  0
   48.3266    7.7843   18.2505 O   0  0  0  0  0  0  0  0  0  0  0  0
   51.5976    1.1716   17.2431 N   0  0  0  0  0  0  0  0  0  0  0  0
   50.1361   10.5074   20.8582 C   0  0  0  0  0  0  0  0  0  0  0  0
   49.9702   11.7512   17.6644 C   0  0  0  0  0  0  0  0  0  0  0  0
   54.1055   11.4095   17.3833 O   0  0  0  0  0  0  0  0  0  0  0  0
   50.7076   12.5679   16.8051 C   0  0  0  0  0  0  0  0  0  0  0  0
   52.0935   12.4390   16.7297 C   0  0  0  0  0  0  0  0  0  0  0  0
   47.2283    4.7548   18.0668 C   0  0  0  0  0  0  0  0  0  0  0  0
   47.7115    5.0523   15.7317 C   0  0  0  0  0  0  0  0  0  0  0  0
   50.5217    7.2353   18.2140 Ca  0  0  0  0  0 15  0  0  0  0  0  0
   50.1309    5.0039   15.9010 H   0  0  0  0  0  0  0  0  0  0  0  0
   50.8146    9.0730   16.0815 H   0  0  0  0  0  0  0  0  0  0  0  0
   51.9585    5.6296   17.8749 H   0  0  0  0  0  0  0  0  0  0  0  0
   52.0119    6.6520   15.9003 H   0  0  0  0  0  0  0  0  0  0  0  0
   47.1883    5.6514   16.1090 H   0  0  0  0  0  0  0  0  0  0  0  0
   47.3684    8.8059   18.4285 H   0  0  0  0  0  0  0  0  0  0  0  0
   52.0982    7.3220   19.0975 H   0  0  0  0  0  0  0  0  0  0  0  0
   49.4585    7.1219   14.8283 H   0  0  0  0  0  0  0  0  0  0  0  0
   47.4949    7.0191   20.1918 H   0  0  0  0  0  0  0  0  0  0  0  0
   47.0613    6.3961   21.7630 H   0  0  0  0  0  0  0  0  0  0  0  0
   54.2651    9.2551   17.0837 H   0  0  0  0  0  0  0  0  0  0  0  0
   53.0293    9.9210   16.0002 H   0  0  0  0  0  0  0  0  0  0  0  0
   53.4900    8.2091   15.9419 H   0  0  0  0  0  0  0  0  0  0  0  0
   54.0706   10.1304   19.0763 H   0  0  0  0  0  0  0  0  0  0  0  0
   48.6422   11.6675   19.4425 H   0  0  0  0  0  0  0  0  0  0  0  0
   53.7950   12.1740   20.4058 H   0  0  0  0  0  0  0  0  0  0  0  0
   51.5396   13.1599   20.7311 H   0  0  0  0  0  0  0  0  0  0  0  0
   52.8224    2.2896   18.1822 H   0  0  0  0  0  0  0  0  0  0  0  0
   52.2848    3.3257   19.5104 H   0  0  0  0  0  0  0  0  0  0  0  0
   53.3715    3.9450   18.2484 H   0  0  0  0  0  0  0  0  0  0  0  0
   49.9271    2.6202   18.7539 H   0  0  0  0  0  0  0  0  0  0  0  0
   50.6532    1.7443   17.4121 H   0  0  0  0  0  0  0  0  0  0  0  0
   49.4636    2.9653   17.0607 H   0  0  0  0  0  0  0  0  0  0  0  0
   49.4412    5.7382   19.4152 H   0  0  0  0  0  0  0  0  0  0  0  0
   50.0663    7.9849   20.3515 H   0  0  0  0  0  0  0  0  0  0  0  0
   50.0891    5.5939   16.4567 H   0  0  0  0  0  0  0  0  0  0  0  0
   50.1331    7.8439   17.3065 H   0  0  0  0  0  0  0  0  0  0  0  0
   52.5108    5.1259   20.5189 H   0  0  0  0  0  0  0  0  0  0  0  0
   53.9995    6.1578   18.3794 H   0  0  0  0  0  0  0  0  0  0  0  0
   48.1137    9.2099   18.9332 H   0  0  0  0  0  0  0  0  0  0  0  0
   47.9697    7.0271   17.7309 H   0  0  0  0  0  0  0  0  0  0  0  0
   50.6372    1.3548   16.9180 H   0  0  0  0  0  0  0  0  0  0  0  0
   51.8359    0.2433   17.5403 H   0  0  0  0  0  0  0  0  0  0  0  0
   51.1918   10.4739   21.1508 H   0  0  0  0  0  0  0  0  0  0  0  0
   49.8113   11.5535   20.9113 H   0  0  0  0  0  0  0  0  0  0  0  0
   49.5600    9.9714   21.6193 H   0  0  0  0  0  0  0  0  0  0  0  0
   48.8909   11.8859   17.7308 H   0  0  0  0  0  0  0  0  0  0  0  0
   54.4222   10.7457   18.0388 H   0  0  0  0  0  0  0  0  0  0  0  0
   50.1984   13.3137   16.1981 H   0  0  0  0  0  0  0  0  0  0  0  0
   52.6701   13.0858   16.0746 H   0  0  0  0  0  0  0  0  0  0  0  0
   47.3355    3.6695   18.1467 H   0  0  0  0  0  0  0  0  0  0  0  0
   47.3726    5.1786   19.0666 H   0  0  0  0  0  0  0  0  0  0  0  0
   46.1750    4.9558   17.8155 H   0  0  0  0  0  0  0  0  0  0  0  0
   46.7408    5.5148   15.5116 H   0  0  0  0  0  0  0  0  0  0  0  0
   47.5966    3.9786   15.5623 H   0  0  0  0  0  0  0  0  0  0  0  0
   48.4120    5.4513   14.9879 H   0  0  0  0  0  0  0  0  0  0  0  0
  2  5  2  0
  3  1  1  0
  4  7  1  0
  5  1  1  0
  6  2  1  0
  7  1  1  0
  8  4  2  0
  9  2  1  0
 10  6  1  0
  3 11  1  0
 12  3  1  0
 13  9  1  0
 14 13  2  0
 15  4  1  0
 16  8  1  0
 11 17  1  0
 18  7  2  0
 19  9  2  0
 20 13  1  0
  1 21  1  6
 22 15  2  0
 23  5  1  0
 10 24  1  1
 12 25  1  0
 26 15  1  0
 10 27  1  0
 28 14  1  0
 29 20  1  0
 30 31  1  0
 31 20  2  0
 32 17  1  0
 33 17  1  0
 12  6  1  0
 11  8  1  0
 10 14  1  0
 30 28  2  0
 35 38  2  0
 36 34  1  0
 37 40  1  0
 38 34  1  0
 39 35  1  0
 40 34  1  0
 41 37  2  0
 42 35  1  0
 43 39  1  0
 36 44  1  0
 45 36  1  0
 46 42  1  0
 47 46  2  0
 48 37  1  0
 49 41  1  0
 44 50  1  0
 51 40  2  0
 52 42  2  0
 53 46  1  0
 34 54  1  1
 55 48  2  0
 56 38  1  0
 43 57  1  6
 45 58  1  0
 59 48  1  0
 43 60  1  0
 61 47  1  0
 62 53  1  0
 63 64  1  0
 64 53  2  0
 65 50  1  0
 66 50  1  0
 45 39  1  0
 44 41  1  0
 43 47  1  0
 63 61  2  0
  3 68  1  6
  6 69  1  6
 11 70  1  1
 12 71  1  1
 21 72  1  0
 23 73  1  0
 24 74  1  0
 25 75  1  0
 26 76  1  0
 26 77  1  0
 27 78  1  0
 27 79  1  0
 27 80  1  0
 28 81  1  0
 29 82  1  0
 30 83  1  0
 31 84  1  0
 32 85  1  0
 32 86  1  0
 32 87  1  0
 33 88  1  0
 33 89  1  0
 33 90  1  0
 36 91  1  1
 39 92  1  1
 44 93  1  6
 45 94  1  6
 54 95  1  0
 56 96  1  0
 57 97  1  0
 58 98  1  0
 59 99  1  0
 59100  1  0
 60101  1  0
 60102  1  0
 60103  1  0
 61104  1  0
 62105  1  0
 63106  1  0
 64107  1  0
 65108  1  0
 65109  1  0
 65110  1  0
 66111  1  0
 66112  1  0
 66113  1  0
M  CHG  3  16  -1  49  -1  67   2
M  END
> <Uni-Dock RESULT> 
ENERGY=   -4.979  LOWER_BOUND=    1.921  UPPER_BOUND=    4.842
INTER + INTRA:          -4.979
INTER:                  -4.979
INTRA:                   0.000
UNBOUND:                 0.000

$$$$

     RDKit          3D

113118  0  0  0  0  0  0  0  0999 V2000
   48.0359    7.3362   19.6607 C   0  0  2  0  0  0  0  0  0  0  0  0
   48.0737    9.8407   19.3970 C   0  0  0  0  0  0  0  0  0  0  0  0
   49.3485    7.2716   18.8627 C   0  0  2  0  0  0  0  0  0  0  0  0
   49.2756    7.1774   21.8772 C   0  0  0  0  0  0  0  0  0  0  0  0
   47.5481    8.7440   19.9751 C   0  0  0  0  0  0  0  0  0  0  0  0
   49.0371    9.8185   18.2452 C   0  0  1  0  0  0  0  0  0  0  0  0
   48.2453    6.5774   20.9868 C   0  0  0  0  0  0  0  0  0  0  0  0
   50.3043    7.7800   21.2283 C   0  0  0  0  0  0  0  0  0  0  0  0
   47.6183   11.1861   19.8264 C   0  0  0  0  0  0  0  0  0  0  0  0
   50.2237   10.8247   18.4029 C   0  0  1  0  0  0  0  0  0  0  0  0
   50.6087    7.3088   19.7718 C   0  0  1  0  0  0  0  0  0  0  0  0
   49.3910    8.3774   17.7820 C   0  0  2  0  0  0  0  0  0  0  0  0
   48.5546   12.3212   19.6719 C   0  0  0  0  0  0  0  0  0  0  0  0
   49.8128   12.1385   19.0691 C   0  0  0  0  0  0  0  0  0  0  0  0
   48.9668    7.3831   23.3126 C   0  0  0  0  0  0  0  0  0  0  0  0
   51.0603    8.7265   21.5878 O   0  0  0  0  0  0  0  0  0  0  0  0
   51.4090    6.0484   19.6420 N   0  0  0  0  0  0  0  0  0  0  0  0
   47.5650    5.5952   21.2872 O   0  0  0  0  0  0  0  0  0  0  0  0
   46.5042   11.3532   20.3311 O   0  0  0  0  0  0  0  0  0  0  0  0
   48.1997   13.5807   20.1965 C   0  0  0  0  0  0  0  0  0  0  0  0
   46.9981    6.7371   18.8634 O   0  0  0  0  0  0  0  0  0  0  0  0
   49.5410    6.7996   24.2240 O   0  0  0  0  0  0  0  0  0  0  0  0
   46.5275    8.8171   20.9190 O   0  0  0  0  0  0  0  0  0  0  0  0
   51.3372   10.3213   19.1204 O   0  0  0  0  0  0  0  0  0  0  0  0
   48.4502    8.0243   16.7375 O   0  0  0  0  0  0  0  0  0  0  0  0
   47.9128    8.2185   23.5554 N   0  0  0  0  0  0  0  0  0  0  0  0
   50.7727   11.1257   16.9821 C   0  0  0  0  0  0  0  0  0  0  0  0
   50.7162   13.2236   19.0977 C   0  0  0  0  0  0  0  0  0  0  0  0
   46.9792   13.8459   20.7676 O   0  0  0  0  0  0  0  0  0  0  0  0
   50.3572   14.4652   19.6274 C   0  0  0  0  0  0  0  0  0  0  0  0
   49.0914   14.6475   20.1624 C   0  0  0  0  0  0  0  0  0  0  0  0
   52.8002    6.2845   20.0547 C   0  0  0  0  0  0  0  0  0  0  0  0
   50.8780    4.8902   20.3489 C   0  0  0  0  0  0  0  0  0  0  0  0
   51.1408    8.4213   20.3947 C   0  0  2  0  0  0  0  0  0  0  0  0
   50.5319   10.8493   20.0491 C   0  0  0  0  0  0  0  0  0  0  0  0
   49.6249    8.0629   20.5440 C   0  0  2  0  0  0  0  0  0  0  0  0
   51.5831    5.9608   19.8098 C   0  0  0  0  0  0  0  0  0  0  0  0
   51.4301    9.8551   19.9098 C   0  0  0  0  0  0  0  0  0  0  0  0
   49.2087   10.5821   20.7210 C   0  0  1  0  0  0  0  0  0  0  0  0
   51.8656    7.3778   19.5262 C   0  0  0  0  0  0  0  0  0  0  0  0
   50.2801    5.5938   19.9168 C   0  0  0  0  0  0  0  0  0  0  0  0
   50.7248   12.1393   19.3234 C   0  0  0  0  0  0  0  0  0  0  0  0
   48.2223   11.7964   20.6745 C   0  0  1  0  0  0  0  0  0  0  0  0
   49.2077    6.7372   19.7827 C   0  0  1  0  0  0  0  0  0  0  0  0
   48.6930    9.2538   20.1266 C   0  0  2  0  0  0  0  0  0  0  0  0
   49.5053   12.7041   18.7074 C   0  0  0  0  0  0  0  0  0  0  0  0
   48.2601   12.4626   19.3104 C   0  0  0  0  0  0  0  0  0  0  0  0
   52.7468    5.0315   19.9497 C   0  0  0  0  0  0  0  0  0  0  0  0
   49.8188    4.4245   20.0548 O   0  0  0  0  0  0  0  0  0  0  0  0
   47.7519    6.4644   20.0669 N   0  0  0  0  0  0  0  0  0  0  0  0
   52.6860    7.6950   18.6570 O   0  0  0  0  0  0  0  0  0  0  0  0
   51.8050   12.6924   19.1272 O   0  0  0  0  0  0  0  0  0  0  0  0
   49.5971   13.4324   17.5162 C   0  0  0  0  0  0  0  0  0  0  0  0
   51.7426    8.3654   21.7027 O   0  0  0  0  0  0  0  0  0  0  0  0
   53.8652    5.4187   20.2789 O   0  0  0  0  0  0  0  0  0  0  0  0
   52.6471   10.1049   19.2831 O   0  0  0  0  0  0  0  0  0  0  0  0
   46.8741   11.4561   21.0097 O   0  0  0  0  0  0  0  0  0  0  0  0
   47.3482    9.0359   20.5740 O   0  0  0  0  0  0  0  0  0  0  0  0
   52.4850    3.7129   19.7245 N   0  0  0  0  0  0  0  0  0  0  0  0
   48.6239   12.8469   21.7308 C   0  0  0  0  0  0  0  0  0  0  0  0
   47.1042   12.9138   18.6550 C   0  0  0  0  0  0  0  0  0  0  0  0
   50.7938   13.7326   16.9192 O   0  0  0  0  0  0  0  0  0  0  0  0
   47.1977   13.5967   17.4408 C   0  0  0  0  0  0  0  0  0  0  0  0
   48.4451   13.8640   16.8790 C   0  0  0  0  0  0  0  0  0  0  0  0
   47.4955    5.9214   21.4085 C   0  0  0  0  0  0  0  0  0  0  0  0
   47.1513    5.5959   19.0525 C   0  0  0  0  0  0  0  0  0  0  0  0
   49.4796    9.1743   19.8264 Ca  0  0  0  0  0 15  0  0  0  0  0  0
   49.3452    6.3169   18.3101 H   0  0  0  0  0  0  0  0  0  0  0  0
   48.4327   10.2465   17.4254 H   0  0  0  0  0  0  0  0  0  0  0  0
   51.2655    8.0408   19.2941 H   0  0  0  0  0  0  0  0  0  0  0  0
   50.3657    8.3567   17.2846 H   0  0  0  0  0  0  0  0  0  0  0  0
   46.5665    6.1016   19.4737 H   0  0  0  0  0  0  0  0  0  0  0  0
   46.1625    9.7321   20.8950 H   0  0  0  0  0  0  0  0  0  0  0  0
   51.0806    9.9944   20.0206 H   0  0  0  0  0  0  0  0  0  0  0  0
   47.6387    7.6923   17.1767 H   0  0  0  0  0  0  0  0  0  0  0  0
   47.4552    8.7127   22.7943 H   0  0  0  0  0  0  0  0  0  0  0  0
   47.7540    8.5182   24.5025 H   0  0  0  0  0  0  0  0  0  0  0  0
   51.6784   11.7411   17.0074 H   0  0  0  0  0  0  0  0  0  0  0  0
   50.0317   11.6371   16.3578 H   0  0  0  0  0  0  0  0  0  0  0  0
   51.0787   10.2095   16.4659 H   0  0  0  0  0  0  0  0  0  0  0  0
   51.7296   13.1018   18.7163 H   0  0  0  0  0  0  0  0  0  0  0  0
   46.4669   13.0083   20.7803 H   0  0  0  0  0  0  0  0  0  0  0  0
   51.0743   15.2837   19.6269 H   0  0  0  0  0  0  0  0  0  0  0  0
   48.8028   15.6129   20.5738 H   0  0  0  0  0  0  0  0  0  0  0  0
   53.3957    5.3778   19.8998 H   0  0  0  0  0  0  0  0  0  0  0  0
   52.8970    6.5734   21.1035 H   0  0  0  0  0  0  0  0  0  0  0  0
   53.2607    7.0539   19.4320 H   0  0  0  0  0  0  0  0  0  0  0  0
   50.8824    5.0051   21.4373 H   0  0  0  0  0  0  0  0  0  0  0  0
   51.4816    4.0054   20.1195 H   0  0  0  0  0  0  0  0  0  0  0  0
   49.8673    4.6467   20.0083 H   0  0  0  0  0  0  0  0  0  0  0  0
   49.4417    7.8843   21.6114 H   0  0  0  0  0  0  0  0  0  0  0  0
   49.3902   10.3904   21.7888 H   0  0  0  0  0  0  0  0  0  0  0  0
   49.2374    7.0121   18.7147 H   0  0  0  0  0  0  0  0  0  0  0  0
   48.6493    9.3231   19.0305 H   0  0  0  0  0  0  0  0  0  0  0  0
   52.6864    8.5820   21.5827 H   0  0  0  0  0  0  0  0  0  0  0  0
   52.9991    9.2765   18.8848 H   0  0  0  0  0  0  0  0  0  0  0  0
   46.8042   10.4748   20.9950 H   0  0  0  0  0  0  0  0  0  0  0  0
   47.1796    8.0839   20.3839 H   0  0  0  0  0  0  0  0  0  0  0  0
   51.4787    3.4935   19.7535 H   0  0  0  0  0  0  0  0  0  0  0  0
   53.1348    3.0390   20.0856 H   0  0  0  0  0  0  0  0  0  0  0  0
   49.6473   13.2192   21.6076 H   0  0  0  0  0  0  0  0  0  0  0  0
   47.9509   13.7121   21.6968 H   0  0  0  0  0  0  0  0  0  0  0  0
   48.5366   12.4338   22.7409 H   0  0  0  0  0  0  0  0  0  0  0  0
   46.1217   12.7390   19.0928 H   0  0  0  0  0  0  0  0  0  0  0  0
   51.5113   13.4333   17.5242 H   0  0  0  0  0  0  0  0  0  0  0  0
   46.2930   13.9287   16.9358 H   0  0  0  0  0  0  0  0  0  0  0  0
   48.5198   14.4108   15.9433 H   0  0  0  0  0  0  0  0  0  0  0  0
   48.0294    4.9988   21.6521 H   0  0  0  0  0  0  0  0  0  0  0  0
   47.7398    6.6613   22.1784 H   0  0  0  0  0  0  0  0  0  0  0  0
   46.4213    5.7139   21.5356 H   0  0  0  0  0  0  0  0  0  0  0  0
   46.0579    5.6585   19.1262 H   0  0  0  0  0  0  0  0  0  0  0  0
   47.4155    4.5399   19.1510 H   0  0  0  0  0  0  0  0  0  0  0  0
   47.4054    5.9274   18.0383 H   0  0  0  0  0  0  0  0  0  0  0  0
  2  5  2  0
  3  1  1  0
  4  7  1  0
  5  1  1  0
  6  2  1  0
  7  1  1  0
  8  4  2  0
  9  2  1  0
 10  6  1  0
  3 11  1  0
 12  3  1  0
 13  9  1  0
 14 13  2  0
 15  4  1  0
 16  8  1  0
 11 17  1  0
 18  7  2  0
 19  9  2  0
 20 13  1  0
  1 21  1  6
 22 15  2  0
 23  5  1  0
 10 24  1  1
 12 25  1  0
 26 15  1  0
 10 27  1  0
 28 14  1  0
 29 20  1  0
 30 31  1  0
 31 20  2  0
 32 17  1  0
 33 17  1  0
 12  6  1  0
 11  8  1  0
 10 14  1  0
 30 28  2  0
 35 38  2  0
 36 34  1  0
 37 40  1  0
 38 34  1  0
 39 35  1  0
 40 34  1  0
 41 37  2  0
 42 35  1  0
 43 39  1  0
 36 44  1  0
 45 36  1  0
 46 42  1  0
 47 46  2  0
 48 37  1  0
 49 41  1  0
 44 50  1  0
 51 40  2  0
 52 42  2  0
 53 46  1  0
 34 54  1  1
 55 48  2  0
 56 38  1  0
 43 57  1  6
 45 58  1  0
 59 48  1  0
 43 60  1  0
 61 47  1  0
 62 53  1  0
 63 64  1  0
 64 53  2  0
 65 50  1  0
 66 50  1  0
 45 39  1  0
 44 41  1  0
 43 47  1  0
 63 61  2  0
  3 68  1  6
  6 69  1  6
 11 70  1  1
 12 71  1  1
 21 72  1  0
 23 73  1  0
 24 74  1  0
 25 75  1  0
 26 76  1  0
 26 77  1  0
 27 78  1  0
 27 79  1  0
 27 80  1  0
 28 81  1  0
 29 82  1  0
 30 83  1  0
 31 84  1  0
 32 85  1  0
 32 86  1  0
 32 87  1  0
 33 88  1  0
 33 89  1  0
 33 90  1  0
 36 91  1  1
 39 92  1  1
 44 93  1  6
 45 94  1  6
 54 95  1  0
 56 96  1  0
 57 97  1  0
 58 98  1  0
 59 99  1  0
 59100  1  0
 60101  1  0
 60102  1  0
 60103  1  0
 61104  1  0
 62105  1  0
 63106  1  0
 64107  1  0
 65108  1  0
 65109  1  0
 65110  1  0
 66111  1  0
 66112  1  0
 66113  1  0
M  CHG  3  16  -1  49  -1  67   2
M  END
> <Uni-Dock RESULT> 
ENERGY=   -4.834  LOWER_BOUND=    2.170  UPPER_BOUND=    5.339
INTER + INTRA:          -4.834
INTER:                  -4.834
INTRA:                   0.000
UNBOUND:                 0.000

$$$$

     RDKit          3D

113118  0  0  0  0  0  0  0  0999 V2000
   47.5070   11.0706   19.4997 C   0  0  2  0  0  0  0  0  0  0  0  0
   48.3203    8.7329   19.0336 C   0  0  0  0  0  0  0  0  0  0  0  0
   48.1291   10.9653   20.9019 C   0  0  2  0  0  0  0  0  0  0  0  0
   49.5194   12.3484   18.6094 C   0  0  0  0  0  0  0  0  0  0  0  0
   47.7891    9.8862   18.5853 C   0  0  0  0  0  0  0  0  0  0  0  0
   48.5076    8.3873   20.4830 C   0  0  1  0  0  0  0  0  0  0  0  0
   48.0481   12.3511   18.8322 C   0  0  0  0  0  0  0  0  0  0  0  0
   50.2334   11.6744   19.5467 C   0  0  0  0  0  0  0  0  0  0  0  0
   48.6618    7.6586   18.0687 C   0  0  0  0  0  0  0  0  0  0  0  0
   49.8904    7.7267   20.7947 C   0  0  1  0  0  0  0  0  0  0  0  0
   49.5861   11.5037   20.9566 C   0  0  1  0  0  0  0  0  0  0  0  0
   48.0344    9.5180   21.4391 C   0  0  2  0  0  0  0  0  0  0  0  0
   49.7400    6.7126   18.4315 C   0  0  0  0  0  0  0  0  0  0  0  0
   50.3720    6.7897   19.6864 C   0  0  0  0  0  0  0  0  0  0  0  0
   50.0560   12.7457   17.2857 C   0  0  0  0  0  0  0  0  0  0  0  0
   51.3530   11.0943   19.4659 O   0  0  0  0  0  0  0  0  0  0  0  0
   49.6956   12.6809   21.8775 N   0  0  0  0  0  0  0  0  0  0  0  0
   47.2997   13.2602   18.4698 O   0  0  0  0  0  0  0  0  0  0  0  0
   48.0900    7.5731   16.9781 O   0  0  0  0  0  0  0  0  0  0  0  0
   50.1765    5.7702   17.4783 C   0  0  0  0  0  0  0  0  0  0  0  0
   46.0759   11.1119   19.6476 O   0  0  0  0  0  0  0  0  0  0  0  0
   50.7455   13.7412   17.1003 O   0  0  0  0  0  0  0  0  0  0  0  0
   47.4729   10.0882   17.2447 O   0  0  0  0  0  0  0  0  0  0  0  0
   50.9401    8.6424   21.0551 O   0  0  0  0  0  0  0  0  0  0  0  0
   46.6480    9.2465   21.7637 O   0  0  0  0  0  0  0  0  0  0  0  0
   49.6465   11.9601   16.2450 N   0  0  0  0  0  0  0  0  0  0  0  0
   49.7355    6.9187   22.1114 C   0  0  0  0  0  0  0  0  0  0  0  0
   51.4960    5.9631   19.9051 C   0  0  0  0  0  0  0  0  0  0  0  0
   49.5890    5.6112   16.2472 O   0  0  0  0  0  0  0  0  0  0  0  0
   51.9252    5.0382   18.9505 C   0  0  0  0  0  0  0  0  0  0  0  0
   51.2539    4.9310   17.7425 C   0  0  0  0  0  0  0  0  0  0  0  0
   51.0847   12.8449   22.3302 C   0  0  0  0  0  0  0  0  0  0  0  0
   49.2011   13.9440   21.3457 C   0  0  0  0  0  0  0  0  0  0  0  0
   50.7187   10.8589   20.4981 C   0  0  2  0  0  0  0  0  0  0  0  0
   50.9525    8.4631   19.7293 C   0  0  0  0  0  0  0  0  0  0  0  0
   49.4628   11.0303   19.5805 C   0  0  2  0  0  0  0  0  0  0  0  0
   49.8838   12.8561   21.8787 C   0  0  0  0  0  0  0  0  0  0  0  0
   51.2318    9.4131   20.6427 C   0  0  0  0  0  0  0  0  0  0  0  0
   50.1392    8.8074   18.5071 C   0  0  1  0  0  0  0  0  0  0  0  0
   50.4844   11.5116   21.8720 C   0  0  0  0  0  0  0  0  0  0  0  0
   48.7723   13.0466   21.1223 C   0  0  0  0  0  0  0  0  0  0  0  0
   51.2185    7.0272   20.0376 C   0  0  0  0  0  0  0  0  0  0  0  0
   49.7790    7.5686   17.6210 C   0  0  1  0  0  0  0  0  0  0  0  0
   48.2753   11.8207   20.2705 C   0  0  1  0  0  0  0  0  0  0  0  0
   48.9548    9.6588   19.0131 C   0  0  2  0  0  0  0  0  0  0  0  0
   50.1572    6.0862   19.6208 C   0  0  0  0  0  0  0  0  0  0  0  0
   49.3810    6.3885   18.4900 C   0  0  0  0  0  0  0  0  0  0  0  0
   50.5340   13.9067   22.7218 C   0  0  0  0  0  0  0  0  0  0  0  0
   48.0492   14.0823   21.0644 O   0  0  0  0  0  0  0  0  0  0  0  0
   47.1643   11.9830   19.2634 N   0  0  0  0  0  0  0  0  0  0  0  0
   50.8214   10.9668   22.9296 O   0  0  0  0  0  0  0  0  0  0  0  0
   52.1778    6.6011   20.6775 O   0  0  0  0  0  0  0  0  0  0  0  0
   49.9095    4.9336   20.3744 C   0  0  0  0  0  0  0  0  0  0  0  0
   51.8174   11.5611   19.8850 O   0  0  0  0  0  0  0  0  0  0  0  0
   51.7215   13.8619   23.0335 O   0  0  0  0  0  0  0  0  0  0  0  0
   51.9771    9.0891   21.7723 O   0  0  0  0  0  0  0  0  0  0  0  0
   48.7537    7.8281   16.6581 O   0  0  0  0  0  0  0  0  0  0  0  0
   48.0319    9.8586   17.9340 O   0  0  0  0  0  0  0  0  0  0  0  0
   49.7355   14.9454   23.0978 N   0  0  0  0  0  0  0  0  0  0  0  0
   50.9990    7.1490   16.7747 C   0  0  0  0  0  0  0  0  0  0  0  0
   48.3091    5.5404   18.1719 C   0  0  0  0  0  0  0  0  0  0  0  0
   50.6717    4.5748   21.4556 O   0  0  0  0  0  0  0  0  0  0  0  0
   48.0351    4.4185   18.9564 C   0  0  0  0  0  0  0  0  0  0  0  0
   48.8426    4.1113   20.0502 C   0  0  0  0  0  0  0  0  0  0  0  0
   47.4233   13.0129   18.2473 C   0  0  0  0  0  0  0  0  0  0  0  0
   45.8740   12.2310   19.9095 C   0  0  0  0  0  0  0  0  0  0  0  0
   49.4002    9.7094   19.7303 Ca  0  0  0  0  0 15  0  0  0  0  0  0
   47.5066   11.5743   21.5791 H   0  0  0  0  0  0  0  0  0  0  0  0
   47.7827    7.5657   20.6239 H   0  0  0  0  0  0  0  0  0  0  0  0
   50.1375   10.7368   21.5075 H   0  0  0  0  0  0  0  0  0  0  0  0
   48.5530    9.4568   22.4010 H   0  0  0  0  0  0  0  0  0  0  0  0
   45.8030   11.8820   19.1043 H   0  0  0  0  0  0  0  0  0  0  0  0
   47.5061    9.2125   16.7941 H   0  0  0  0  0  0  0  0  0  0  0  0
   51.0607    9.2883   20.3125 H   0  0  0  0  0  0  0  0  0  0  0  0
   46.1013    9.6190   21.0399 H   0  0  0  0  0  0  0  0  0  0  0  0
   49.0906   11.1257   16.4109 H   0  0  0  0  0  0  0  0  0  0  0  0
   50.0959   12.0826   15.3533 H   0  0  0  0  0  0  0  0  0  0  0  0
   50.6886    6.5090   22.4630 H   0  0  0  0  0  0  0  0  0  0  0  0
   49.0291    6.0886   22.0006 H   0  0  0  0  0  0  0  0  0  0  0  0
   49.3897    7.5525   22.9349 H   0  0  0  0  0  0  0  0  0  0  0  0
   52.0654    6.0478   20.8303 H   0  0  0  0  0  0  0  0  0  0  0  0
   48.8848    6.2903   16.1623 H   0  0  0  0  0  0  0  0  0  0  0  0
   52.7904    4.4101   19.1534 H   0  0  0  0  0  0  0  0  0  0  0  0
   51.5799    4.2103   16.9949 H   0  0  0  0  0  0  0  0  0  0  0  0
   51.1489   13.6678   23.0509 H   0  0  0  0  0  0  0  0  0  0  0  0
   51.7823   13.0571   21.5171 H   0  0  0  0  0  0  0  0  0  0  0  0
   51.4232   11.9544   22.8633 H   0  0  0  0  0  0  0  0  0  0  0  0
   49.7817   14.3152   20.4954 H   0  0  0  0  0  0  0  0  0  0  0  0
   49.2430   14.7163   22.1214 H   0  0  0  0  0  0  0  0  0  0  0  0
   48.1456   13.8712   21.0674 H   0  0  0  0  0  0  0  0  0  0  0  0
   49.7777   11.6273   18.7149 H   0  0  0  0  0  0  0  0  0  0  0  0
   50.7379    9.4672   17.8621 H   0  0  0  0  0  0  0  0  0  0  0  0
   47.8738   11.1163   21.0187 H   0  0  0  0  0  0  0  0  0  0  0  0
   48.4066    9.1149   19.7953 H   0  0  0  0  0  0  0  0  0  0  0  0
   52.5837   11.4485   20.4784 H   0  0  0  0  0  0  0  0  0  0  0  0
   51.7575    9.7025   22.5100 H   0  0  0  0  0  0  0  0  0  0  0  0
   48.3334    8.6851   16.8970 H   0  0  0  0  0  0  0  0  0  0  0  0
   47.4582   10.5995   18.2384 H   0  0  0  0  0  0  0  0  0  0  0  0
   48.8741   15.0123   22.5366 H   0  0  0  0  0  0  0  0  0  0  0  0
   50.1813   15.7930   23.3976 H   0  0  0  0  0  0  0  0  0  0  0  0
   51.8833    6.9075   17.3752 H   0  0  0  0  0  0  0  0  0  0  0  0
   50.7655    6.2701   16.1617 H   0  0  0  0  0  0  0  0  0  0  0  0
   51.2760    7.9431   16.0739 H   0  0  0  0  0  0  0  0  0  0  0  0
   47.6838    5.7485   17.3041 H   0  0  0  0  0  0  0  0  0  0  0  0
   51.4275    5.2044   21.5087 H   0  0  0  0  0  0  0  0  0  0  0  0
   47.1923    3.7770   18.7072 H   0  0  0  0  0  0  0  0  0  0  0  0
   48.6409    3.2289   20.6508 H   0  0  0  0  0  0  0  0  0  0  0  0
   47.6290   14.0145   18.6350 H   0  0  0  0  0  0  0  0  0  0  0  0
   48.2649   12.7232   17.6087 H   0  0  0  0  0  0  0  0  0  0  0  0
   46.5608   13.1023   17.5682 H   0  0  0  0  0  0  0  0  0  0  0  0
   45.0684   12.0540   19.1852 H   0  0  0  0  0  0  0  0  0  0  0  0
   45.7464   13.2503   20.2826 H   0  0  0  0  0  0  0  0  0  0  0  0
   45.6971   11.5310   20.7353 H   0  0  0  0  0  0  0  0  0  0  0  0
  2  5  2  0
  3  1  1  0
  4  7  1  0
  5  1  1  0
  6  2  1  0
  7  1  1  0
  8  4  2  0
  9  2  1  0
 10  6  1  0
  3 11  1  0
 12  3  1  0
 13  9  1  0
 14 13  2  0
 15  4  1  0
 16  8  1  0
 11 17  1  0
 18  7  2  0
 19  9  2  0
 20 13  1  0
  1 21  1  6
 22 15  2  0
 23  5  1  0
 10 24  1  1
 12 25  1  0
 26 15  1  0
 10 27  1  0
 28 14  1  0
 29 20  1  0
 30 31  1  0
 31 20  2  0
 32 17  1  0
 33 17  1  0
 12  6  1  0
 11  8  1  0
 10 14  1  0
 30 28  2  0
 35 38  2  0
 36 34  1  0
 37 40  1  0
 38 34  1  0
 39 35  1  0
 40 34  1  0
 41 37  2  0
 42 35  1  0
 43 39  1  0
 36 44  1  0
 45 36  1  0
 46 42  1  0
 47 46  2  0
 48 37  1  0
 49 41  1  0
 44 50  1  0
 51 40  2  0
 52 42  2  0
 53 46  1  0
 34 54  1  1
 55 48  2  0
 56 38  1  0
 43 57  1  6
 45 58  1  0
 59 48  1  0
 43 60  1  0
 61 47  1  0
 62 53  1  0
 63 64  1  0
 64 53  2  0
 65 50  1  0
 66 50  1  0
 45 39  1  0
 44 41  1  0
 43 47  1  0
 63 61  2  0
  3 68  1  6
  6 69  1  6
 11 70  1  1
 12 71  1  1
 21 72  1  0
 23 73  1  0
 24 74  1  0
 25 75  1  0
 26 76  1  0
 26 77  1  0
 27 78  1  0
 27 79  1  0
 27 80  1  0
 28 81  1  0
 29 82  1  0
 30 83  1  0
 31 84  1  0
 32 85  1  0
 32 86  1  0
 32 87  1  0
 33 88  1  0
 33 89  1  0
 33 90  1  0
 36 91  1  1
 39 92  1  1
 44 93  1  6
 45 94  1  6
 54 95  1  0
 56 96  1  0
 57 97  1  0
 58 98  1  0
 59 99  1  0
 59100  1  0
 60101  1  0
 60102  1  0
 60103  1  0
 61104  1  0
 62105  1  0
 63106  1  0
 64107  1  0
 65108  1  0
 65109  1  0
 65110  1  0
 66111  1  0
 66112  1  0
 66113  1  0
M  CHG  3  16  -1  49  -1  67   2
M  END
> <Uni-Dock RESULT> 
ENERGY=   -4.763  LOWER_BOUND=    2.854  UPPER_BOUND=    7.424
INTER + INTRA:          -4.763
INTER:                  -4.763
INTRA:                   0.000
UNBOUND:                 0.000

$$$$

     RDKit          3D

113118  0  0  0  0  0  0  0  0999 V2000
   51.7798   11.7825   15.0862 C   0  0  2  0  0  0  0  0  0  0  0  0
   50.4668   11.8675   17.2338 C   0  0  0  0  0  0  0  0  0  0  0  0
   51.6882   10.2485   15.1367 C   0  0  2  0  0  0  0  0  0  0  0  0
   49.8329   11.9305   13.4545 C   0  0  0  0  0  0  0  0  0  0  0  0
   50.9931   12.5054   16.1711 C   0  0  0  0  0  0  0  0  0  0  0  0
   50.7504   10.4380   17.5963 C   0  0  1  0  0  0  0  0  0  0  0  0
   51.2646   12.2466   13.7088 C   0  0  0  0  0  0  0  0  0  0  0  0
   49.3942   10.7833   14.0323 C   0  0  0  0  0  0  0  0  0  0  0  0
   49.6265   12.6192   18.1985 C   0  0  0  0  0  0  0  0  0  0  0  0
   49.4773    9.6371   18.0247 C   0  0  1  0  0  0  0  0  0  0  0  0
   50.4607    9.6924   14.3622 C   0  0  1  0  0  0  0  0  0  0  0  0
   51.7184    9.7428   16.5981 C   0  0  2  0  0  0  0  0  0  0  0  0
   48.6026   11.8717   18.9613 C   0  0  0  0  0  0  0  0  0  0  0  0
   48.4807   10.4765   18.8252 C   0  0  0  0  0  0  0  0  0  0  0  0
   48.9375   12.9862   12.9235 C   0  0  0  0  0  0  0  0  0  0  0  0
   48.2374   10.4448   14.4114 O   0  0  0  0  0  0  0  0  0  0  0  0
   50.8886    8.8238   13.2184 N   0  0  0  0  0  0  0  0  0  0  0  0
   51.9791   12.8753   12.9265 O   0  0  0  0  0  0  0  0  0  0  0  0
   49.7500   13.8394   18.3389 O   0  0  0  0  0  0  0  0  0  0  0  0
   47.7016   12.5822   19.7805 C   0  0  0  0  0  0  0  0  0  0  0  0
   53.1545   12.1552   15.2929 O   0  0  0  0  0  0  0  0  0  0  0  0
   48.4083   12.9397   11.8196 O   0  0  0  0  0  0  0  0  0  0  0  0
   50.8421   13.8755   15.9759 O   0  0  0  0  0  0  0  0  0  0  0  0
   48.7618    9.0439   16.9551 O   0  0  0  0  0  0  0  0  0  0  0  0
   53.0613    9.9264   17.1119 O   0  0  0  0  0  0  0  0  0  0  0  0
   48.8098   14.0837   13.7278 N   0  0  0  0  0  0  0  0  0  0  0  0
   49.9490    8.4415   18.8955 C   0  0  0  0  0  0  0  0  0  0  0  0
   47.3840    9.8504   19.4573 C   0  0  0  0  0  0  0  0  0  0  0  0
   47.7771   13.9372   19.9907 O   0  0  0  0  0  0  0  0  0  0  0  0
   46.4923   10.5651   20.2603 C   0  0  0  0  0  0  0  0  0  0  0  0
   46.6618   11.9299   20.4346 C   0  0  0  0  0  0  0  0  0  0  0  0
   49.8008    7.9105   12.8388 C   0  0  0  0  0  0  0  0  0  0  0  0
   51.3703    9.5295   12.0382 C   0  0  0  0  0  0  0  0  0  0  0  0
   49.1466    9.7005   14.7888 C   0  0  2  0  0  0  0  0  0  0  0  0
   48.2488   10.2731   17.0804 C   0  0  0  0  0  0  0  0  0  0  0  0
   50.0042   11.0094   14.7983 C   0  0  2  0  0  0  0  0  0  0  0  0
   50.7460    8.7602   13.0140 C   0  0  0  0  0  0  0  0  0  0  0  0
   48.4791    9.3452   16.1315 C   0  0  0  0  0  0  0  0  0  0  0  0
   48.6210   11.7134   16.8335 C   0  0  1  0  0  0  0  0  0  0  0  0
   49.9616    8.5177   14.2364 C   0  0  0  0  0  0  0  0  0  0  0  0
   51.5314    9.8676   12.9863 C   0  0  0  0  0  0  0  0  0  0  0  0
   47.8682    9.8531   18.4612 C   0  0  0  0  0  0  0  0  0  0  0  0
   48.4253   12.6371   18.0816 C   0  0  1  0  0  0  0  0  0  0  0  0
   51.4759   10.8084   14.2461 C   0  0  1  0  0  0  0  0  0  0  0  0
   50.0349   11.6847   16.2139 C   0  0  2  0  0  0  0  0  0  0  0  0
   48.5345   10.5960   19.5519 C   0  0  0  0  0  0  0  0  0  0  0  0
   48.8979   11.9365   19.3434 C   0  0  0  0  0  0  0  0  0  0  0  0
   50.6277    7.7684   11.9006 C   0  0  0  0  0  0  0  0  0  0  0  0
   52.3526   10.2062   12.0863 O   0  0  0  0  0  0  0  0  0  0  0  0
   52.1669   12.1490   14.2368 N   0  0  0  0  0  0  0  0  0  0  0  0
   49.9344    7.3956   14.7553 O   0  0  0  0  0  0  0  0  0  0  0  0
   47.1410    8.9026   18.7424 O   0  0  0  0  0  0  0  0  0  0  0  0
   48.8326    9.9504   20.7569 C   0  0  0  0  0  0  0  0  0  0  0  0
   48.0393    9.9002   13.8887 O   0  0  0  0  0  0  0  0  0  0  0  0
   49.6395    7.0532   11.7556 O   0  0  0  0  0  0  0  0  0  0  0  0
   48.1400    8.0162   16.3664 O   0  0  0  0  0  0  0  0  0  0  0  0
   49.0700   13.9084   17.9637 O   0  0  0  0  0  0  0  0  0  0  0  0
   50.5339   13.0265   16.1331 O   0  0  0  0  0  0  0  0  0  0  0  0
   51.6728    7.7286   11.0265 N   0  0  0  0  0  0  0  0  0  0  0  0
   46.9318   12.9823   18.2573 C   0  0  0  0  0  0  0  0  0  0  0  0
   49.6248   12.5934   20.3481 C   0  0  0  0  0  0  0  0  0  0  0  0
   48.4548    8.6597   21.0215 O   0  0  0  0  0  0  0  0  0  0  0  0
   49.9634   11.9291   21.5285 C   0  0  0  0  0  0  0  0  0  0  0  0
   49.5572   10.6118   21.7351 C   0  0  0  0  0  0  0  0  0  0  0  0
   51.7442   13.0327   13.1409 C   0  0  0  0  0  0  0  0  0  0  0  0
   53.6247   12.0115   14.2346 C   0  0  0  0  0  0  0  0  0  0  0  0
   49.8889   10.8575   16.1154 Ca  0  0  0  0  0 15  0  0  0  0  0  0
   52.6050    9.8535   14.6672 H   0  0  0  0  0  0  0  0  0  0  0  0
   51.3261   10.5432   18.5333 H   0  0  0  0  0  0  0  0  0  0  0  0
   50.0185    8.9616   15.0447 H   0  0  0  0  0  0  0  0  0  0  0  0
   51.5730    8.6581   16.6064 H   0  0  0  0  0  0  0  0  0  0  0  0
   53.3441   12.7799   14.5604 H   0  0  0  0  0  0  0  0  0  0  0  0
   50.5017   14.2618   16.8161 H   0  0  0  0  0  0  0  0  0  0  0  0
   48.4977    9.7113   16.2710 H   0  0  0  0  0  0  0  0  0  0  0  0
   53.3703   10.8068   16.8106 H   0  0  0  0  0  0  0  0  0  0  0  0
   49.2368   14.1050   14.6498 H   0  0  0  0  0  0  0  0  0  0  0  0
   48.1010   14.7597   13.4982 H   0  0  0  0  0  0  0  0  0  0  0  0
   49.1280    7.7629   19.1510 H   0  0  0  0  0  0  0  0  0  0  0  0
   50.4169    8.7750   19.8284 H   0  0  0  0  0  0  0  0  0  0  0  0
   50.6679    7.8119   18.3603 H   0  0  0  0  0  0  0  0  0  0  0  0
   47.2038    8.7856   19.3120 H   0  0  0  0  0  0  0  0  0  0  0  0
   48.5103   14.2850   19.4378 H   0  0  0  0  0  0  0  0  0  0  0  0
   45.6617   10.0511   20.7402 H   0  0  0  0  0  0  0  0  0  0  0  0
   45.9734   12.4933   21.0616 H   0  0  0  0  0  0  0  0  0  0  0  0
   50.1387    7.2358   12.0442 H   0  0  0  0  0  0  0  0  0  0  0  0
   48.9073    8.4270   12.4818 H   0  0  0  0  0  0  0  0  0  0  0  0
   49.5268    7.2688   13.6784 H   0  0  0  0  0  0  0  0  0  0  0  0
   50.5982   10.1266   11.5429 H   0  0  0  0  0  0  0  0  0  0  0  0
   51.7394    8.8101   11.2993 H   0  0  0  0  0  0  0  0  0  0  0  0
   52.2289   10.1635   12.2780 H   0  0  0  0  0  0  0  0  0  0  0  0
   49.5095   11.7213   14.1250 H   0  0  0  0  0  0  0  0  0  0  0  0
   47.9546   12.1197   16.0586 H   0  0  0  0  0  0  0  0  0  0  0  0
   51.9901   10.2343   15.0355 H   0  0  0  0  0  0  0  0  0  0  0  0
   50.7234   11.1352   16.8713 H   0  0  0  0  0  0  0  0  0  0  0  0
   47.5266    9.0700   13.8921 H   0  0  0  0  0  0  0  0  0  0  0  0
   48.7087    7.4213   15.8268 H   0  0  0  0  0  0  0  0  0  0  0  0
   49.6877   13.8573   17.1996 H   0  0  0  0  0  0  0  0  0  0  0  0
   51.2961   12.9658   15.5117 H   0  0  0  0  0  0  0  0  0  0  0  0
   52.2765    8.5614   11.0855 H   0  0  0  0  0  0  0  0  0  0  0  0
   51.5146    7.3119   10.1275 H   0  0  0  0  0  0  0  0  0  0  0  0
   46.2911   12.1000   18.3679 H   0  0  0  0  0  0  0  0  0  0  0  0
   46.7783   13.6151   19.1397 H   0  0  0  0  0  0  0  0  0  0  0  0
   46.5641   13.5588   17.4024 H   0  0  0  0  0  0  0  0  0  0  0  0
   49.9268   13.6321   20.2167 H   0  0  0  0  0  0  0  0  0  0  0  0
   47.8868    8.3572   20.2756 H   0  0  0  0  0  0  0  0  0  0  0  0
   50.5396   12.4454   22.2936 H   0  0  0  0  0  0  0  0  0  0  0  0
   49.8049   10.0998   22.6606 H   0  0  0  0  0  0  0  0  0  0  0  0
   51.8643   12.6233   12.1341 H   0  0  0  0  0  0  0  0  0  0  0  0
   50.6944   13.3219   13.2603 H   0  0  0  0  0  0  0  0  0  0  0  0
   52.3109   13.9764   13.1735 H   0  0  0  0  0  0  0  0  0  0  0  0
   54.0774   12.9704   14.5182 H   0  0  0  0  0  0  0  0  0  0  0  0
   54.0488   11.7350   13.2660 H   0  0  0  0  0  0  0  0  0  0  0  0
   53.9608   11.2850   14.9845 H   0  0  0  0  0  0  0  0  0  0  0  0
  2  5  2  0
  3  1  1  0
  4  7  1  0
  5  1  1  0
  6  2  1  0
  7  1  1  0
  8  4  2  0
  9  2  1  0
 10  6  1  0
  3 11  1  0
 12  3  1  0
 13  9  1  0
 14 13  2  0
 15  4  1  0
 16  8  1  0
 11 17  1  0
 18  7  2  0
 19  9  2  0
 20 13  1  0
  1 21  1  6
 22 15  2  0
 23  5  1  0
 10 24  1  1
 12 25  1  0
 26 15  1  0
 10 27  1  0
 28 14  1  0
 29 20  1  0
 30 31  1  0
 31 20  2  0
 32 17  1  0
 33 17  1  0
 12  6  1  0
 11  8  1  0
 10 14  1  0
 30 28  2  0
 35 38  2  0
 36 34  1  0
 37 40  1  0
 38 34  1  0
 39 35  1  0
 40 34  1  0
 41 37  2  0
 42 35  1  0
 43 39  1  0
 36 44  1  0
 45 36  1  0
 46 42  1  0
 47 46  2  0
 48 37  1  0
 49 41  1  0
 44 50  1  0
 51 40  2  0
 52 42  2  0
 53 46  1  0
 34 54  1  1
 55 48  2  0
 56 38  1  0
 43 57  1  6
 45 58  1  0
 59 48  1  0
 43 60  1  0
 61 47  1  0
 62 53  1  0
 63 64  1  0
 64 53  2  0
 65 50  1  0
 66 50  1  0
 45 39  1  0
 44 41  1  0
 43 47  1  0
 63 61  2  0
  3 68  1  6
  6 69  1  6
 11 70  1  1
 12 71  1  1
 21 72  1  0
 23 73  1  0
 24 74  1  0
 25 75  1  0
 26 76  1  0
 26 77  1  0
 27 78  1  0
 27 79  1  0
 27 80  1  0
 28 81  1  0
 29 82  1  0
 30 83  1  0
 31 84  1  0
 32 85  1  0
 32 86  1  0
 32 87  1  0
 33 88  1  0
 33 89  1  0
 33 90  1  0
 36 91  1  1
 39 92  1  1
 44 93  1  6
 45 94  1  6
 54 95  1  0
 56 96  1  0
 57 97  1  0
 58 98  1  0
 59 99  1  0
 59100  1  0
 60101  1  0
 60102  1  0
 60103  1  0
 61104  1  0
 62105  1  0
 63106  1  0
 64107  1  0
 65108  1  0
 65109  1  0
 65110  1  0
 66111  1  0
 66112  1  0
 66113  1  0
M  CHG  3  16  -1  49  -1  67   2
M  END
> <Uni-Dock RESULT> 
ENERGY=   -4.613  LOWER_BOUND=    4.082  UPPER_BOUND=    6.171
INTER + INTRA:          -4.613
INTER:                  -4.613
INTRA:                   0.000
UNBOUND:                 0.000

$$$$

     RDKit          3D

113118  0  0  0  0  0  0  0  0999 V2000
   49.6861    5.0351   18.2584 C   0  0  2  0  0  0  0  0  0  0  0  0
   51.7438    6.0892   17.2591 C   0  0  0  0  0  0  0  0  0  0  0  0
   50.4752    4.8227   19.5608 C   0  0  2  0  0  0  0  0  0  0  0  0
   48.5911    7.1454   19.1653 C   0  0  0  0  0  0  0  0  0  0  0  0
   50.4268    5.8191   17.1835 C   0  0  0  0  0  0  0  0  0  0  0  0
   52.6787    5.4960   18.2738 C   0  0  1  0  0  0  0  0  0  0  0  0
   48.3827    5.7822   18.6062 C   0  0  0  0  0  0  0  0  0  0  0  0
   49.7165    7.2863   19.9110 C   0  0  0  0  0  0  0  0  0  0  0  0
   52.3779    6.9445   16.2256 C   0  0  0  0  0  0  0  0  0  0  0  0
   53.6727    6.5340   18.8903 C   0  0  1  0  0  0  0  0  0  0  0  0
   50.3113    5.9992   20.5633 C   0  0  1  0  0  0  0  0  0  0  0  0
   51.9643    4.5309   19.2611 C   0  0  2  0  0  0  0  0  0  0  0  0
   53.5856    7.7123   16.6011 C   0  0  0  0  0  0  0  0  0  0  0  0
   54.1544    7.5771   17.8811 C   0  0  0  0  0  0  0  0  0  0  0  0
   47.8071    8.2817   18.6247 C   0  0  0  0  0  0  0  0  0  0  0  0
   50.4263    8.3059   20.1420 O   0  0  0  0  0  0  0  0  0  0  0  0
   49.6586    5.5434   21.8329 N   0  0  0  0  0  0  0  0  0  0  0  0
   47.2744    5.2953   18.3771 O   0  0  0  0  0  0  0  0  0  0  0  0
   51.8955    7.0438   15.0937 O   0  0  0  0  0  0  0  0  0  0  0  0
   54.1260    8.6352   15.6827 C   0  0  0  0  0  0  0  0  0  0  0  0
   49.4210    3.7438   17.6807 O   0  0  0  0  0  0  0  0  0  0  0  0
   46.9835    8.9130   19.2759 O   0  0  0  0  0  0  0  0  0  0  0  0
   49.6381    6.2527   16.1214 O   0  0  0  0  0  0  0  0  0  0  0  0
   53.1741    7.2376   20.0147 O   0  0  0  0  0  0  0  0  0  0  0  0
   52.0588    3.1995   18.6960 O   0  0  0  0  0  0  0  0  0  0  0  0
   48.0016    8.5273   17.2944 N   0  0  0  0  0  0  0  0  0  0  0  0
   54.8968    5.7453   19.4289 C   0  0  0  0  0  0  0  0  0  0  0  0
   55.2064    8.4539   18.2259 C   0  0  0  0  0  0  0  0  0  0  0  0
   53.6489    8.7994   14.4054 O   0  0  0  0  0  0  0  0  0  0  0  0
   55.7291    9.3706   17.3107 C   0  0  0  0  0  0  0  0  0  0  0  0
   55.1983    9.4490   16.0326 C   0  0  0  0  0  0  0  0  0  0  0  0
   49.9763    6.4702   22.9292 C   0  0  0  0  0  0  0  0  0  0  0  0
   48.2171    5.3432   21.7629 C   0  0  0  0  0  0  0  0  0  0  0  0
   50.9278    7.2334   20.4905 C   0  0  2  0  0  0  0  0  0  0  0  0
   52.7975    7.9607   18.9540 C   0  0  0  0  0  0  0  0  0  0  0  0
   50.1490    6.6491   19.2655 C   0  0  2  0  0  0  0  0  0  0  0  0
   49.5409    5.6932   22.0058 C   0  0  0  0  0  0  0  0  0  0  0  0
   52.3785    7.6641   20.1994 C   0  0  0  0  0  0  0  0  0  0  0  0
   51.8300    7.9036   17.7988 C   0  0  1  0  0  0  0  0  0  0  0  0
   50.8573    6.2731   21.6910 C   0  0  0  0  0  0  0  0  0  0  0  0
   48.8396    5.1445   20.9805 C   0  0  0  0  0  0  0  0  0  0  0  0
   54.2561    8.0948   18.6672 C   0  0  0  0  0  0  0  0  0  0  0  0
   52.5012    8.1319   16.4035 C   0  0  1  0  0  0  0  0  0  0  0  0
   49.4858    5.2381   19.5490 C   0  0  1  0  0  0  0  0  0  0  0  0
   51.0383    6.5899   17.9745 C   0  0  2  0  0  0  0  0  0  0  0  0
   54.7113    7.4658   17.4091 C   0  0  0  0  0  0  0  0  0  0  0  0
   53.8259    7.3938   16.3214 C   0  0  0  0  0  0  0  0  0  0  0  0
   49.0783    5.7427   23.4273 C   0  0  0  0  0  0  0  0  0  0  0  0
   47.7474    4.5109   21.0474 O   0  0  0  0  0  0  0  0  0  0  0  0
   48.7079    4.8244   18.3248 N   0  0  0  0  0  0  0  0  0  0  0  0
   51.8407    6.0245   22.3983 O   0  0  0  0  0  0  0  0  0  0  0  0
   55.0892    8.5886   19.4245 O   0  0  0  0  0  0  0  0  0  0  0  0
   55.9949    6.9148   17.3278 C   0  0  0  0  0  0  0  0  0  0  0  0
   50.2742    8.4528   20.8933 O   0  0  0  0  0  0  0  0  0  0  0  0
   49.4842    6.5842   24.2249 O   0  0  0  0  0  0  0  0  0  0  0  0
   53.2765    7.7117   21.2613 O   0  0  0  0  0  0  0  0  0  0  0  0
   51.6720    7.7622   15.2983 O   0  0  0  0  0  0  0  0  0  0  0  0
   50.2356    6.3716   16.8065 O   0  0  0  0  0  0  0  0  0  0  0  0
   48.1445    4.8149   23.7812 N   0  0  0  0  0  0  0  0  0  0  0  0
   52.7770    9.6345   16.1868 C   0  0  0  0  0  0  0  0  0  0  0  0
   54.2364    6.6988   15.1734 C   0  0  0  0  0  0  0  0  0  0  0  0
   56.9077    7.0041   18.3464 O   0  0  0  0  0  0  0  0  0  0  0  0
   55.4998    6.1075   15.1159 C   0  0  0  0  0  0  0  0  0  0  0  0
   56.3809    6.2258   16.1895 C   0  0  0  0  0  0  0  0  0  0  0  0
   47.4292    5.5305   18.1612 C   0  0  0  0  0  0  0  0  0  0  0  0
   48.4895    3.3772   18.2804 C   0  0  0  0  0  0  0  0  0  0  0  0
   51.3744    6.5836   18.7505 Ca  0  0  0  0  0 15  0  0  0  0  0  0
   50.0823    3.9058   20.0319 H   0  0  0  0  0  0  0  0  0  0  0  0
   53.3220    4.8495   17.6504 H   0  0  0  0  0  0  0  0  0  0  0  0
   51.3297    6.2122   20.8994 H   0  0  0  0  0  0  0  0  0  0  0  0
   52.5143    4.4624   20.2049 H   0  0  0  0  0  0  0  0  0  0  0  0
   48.4589    3.7622   17.4891 H   0  0  0  0  0  0  0  0  0  0  0  0
   50.2420    6.5643   15.4078 H   0  0  0  0  0  0  0  0  0  0  0  0
   52.3210    7.7009   19.8131 H   0  0  0  0  0  0  0  0  0  0  0  0
   51.3224    3.1021   18.0558 H   0  0  0  0  0  0  0  0  0  0  0  0
   48.7007    8.0112   16.7673 H   0  0  0  0  0  0  0  0  0  0  0  0
   47.6207    9.3745   16.9082 H   0  0  0  0  0  0  0  0  0  0  0  0
   55.5968    6.3857   19.9760 H   0  0  0  0  0  0  0  0  0  0  0  0
   55.4491    5.2484   18.6236 H   0  0  0  0  0  0  0  0  0  0  0  0
   54.5969    4.9835   20.1564 H   0  0  0  0  0  0  0  0  0  0  0  0
   55.6217    8.4405   19.2332 H   0  0  0  0  0  0  0  0  0  0  0  0
   52.8673    8.2142   14.3009 H   0  0  0  0  0  0  0  0  0  0  0  0
   56.5457   10.0268   17.6054 H   0  0  0  0  0  0  0  0  0  0  0  0
   55.6025   10.1581   15.3125 H   0  0  0  0  0  0  0  0  0  0  0  0
   49.5489    6.1003   23.8678 H   0  0  0  0  0  0  0  0  0  0  0  0
   49.5974    7.4811   22.7643 H   0  0  0  0  0  0  0  0  0  0  0  0
   51.0548    6.5188   23.0912 H   0  0  0  0  0  0  0  0  0  0  0  0
   47.6577    6.2668   21.5843 H   0  0  0  0  0  0  0  0  0  0  0  0
   47.8526    4.9279   22.7086 H   0  0  0  0  0  0  0  0  0  0  0  0
   47.9562    4.6016   21.0021 H   0  0  0  0  0  0  0  0  0  0  0  0
   49.3286    7.3446   19.0462 H   0  0  0  0  0  0  0  0  0  0  0  0
   51.1005    8.7190   17.9119 H   0  0  0  0  0  0  0  0  0  0  0  0
   50.3366    4.5371   19.5897 H   0  0  0  0  0  0  0  0  0  0  0  0
   51.7304    5.7386   18.0405 H   0  0  0  0  0  0  0  0  0  0  0  0
   50.7702    8.7919   21.6620 H   0  0  0  0  0  0  0  0  0  0  0  0
   52.9855    7.1034   21.9782 H   0  0  0  0  0  0  0  0  0  0  0  0
   50.9207    7.2364   15.6549 H   0  0  0  0  0  0  0  0  0  0  0  0
   49.5834    5.6870   17.0837 H   0  0  0  0  0  0  0  0  0  0  0  0
   47.6832    4.3805   22.9688 H   0  0  0  0  0  0  0  0  0  0  0  0
   47.6009    4.9900   24.6063 H   0  0  0  0  0  0  0  0  0  0  0  0
   53.4145   10.0763   16.9611 H   0  0  0  0  0  0  0  0  0  0  0  0
   53.2641    9.8067   15.2195 H   0  0  0  0  0  0  0  0  0  0  0  0
   51.8403   10.2005   16.1604 H   0  0  0  0  0  0  0  0  0  0  0  0
   53.5722    6.6197   14.3132 H   0  0  0  0  0  0  0  0  0  0  0  0
   56.5205    7.5834   19.0427 H   0  0  0  0  0  0  0  0  0  0  0  0
   55.8004    5.5592   14.2254 H   0  0  0  0  0  0  0  0  0  0  0  0
   57.3708    5.7812   16.1388 H   0  0  0  0  0  0  0  0  0  0  0  0
   46.7357    5.4480   19.0026 H   0  0  0  0  0  0  0  0  0  0  0  0
   47.5974    6.5961   17.9709 H   0  0  0  0  0  0  0  0  0  0  0  0
   46.8998    5.1565   17.2707 H   0  0  0  0  0  0  0  0  0  0  0  0
   48.1904    3.0890   17.2643 H   0  0  0  0  0  0  0  0  0  0  0  0
   47.7070    3.0196   18.9544 H   0  0  0  0  0  0  0  0  0  0  0  0
   49.4133    2.8248   18.4917 H   0  0  0  0  0  0  0  0  0  0  0  0
  2  5  2  0
  3  1  1  0
  4  7  1  0
  5  1  1  0
  6  2  1  0
  7  1  1  0
  8  4  2  0
  9  2  1  0
 10  6  1  0
  3 11  1  0
 12  3  1  0
 13  9  1  0
 14 13  2  0
 15  4  1  0
 16  8  1  0
 11 17  1  0
 18  7  2  0
 19  9  2  0
 20 13  1  0
  1 21  1  6
 22 15  2  0
 23  5  1  0
 10 24  1  1
 12 25  1  0
 26 15  1  0
 10 27  1  0
 28 14  1  0
 29 20  1  0
 30 31  1  0
 31 20  2  0
 32 17  1  0
 33 17  1  0
 12  6  1  0
 11  8  1  0
 10 14  1  0
 30 28  2  0
 35 38  2  0
 36 34  1  0
 37 40  1  0
 38 34  1  0
 39 35  1  0
 40 34  1  0
 41 37  2  0
 42 35  1  0
 43 39  1  0
 36 44  1  0
 45 36  1  0
 46 42  1  0
 47 46  2  0
 48 37  1  0
 49 41  1  0
 44 50  1  0
 51 40  2  0
 52 42  2  0
 53 46  1  0
 34 54  1  1
 55 48  2  0
 56 38  1  0
 43 57  1  6
 45 58  1  0
 59 48  1  0
 43 60  1  0
 61 47  1  0
 62 53  1  0
 63 64  1  0
 64 53  2  0
 65 50  1  0
 66 50  1  0
 45 39  1  0
 44 41  1  0
 43 47  1  0
 63 61  2  0
  3 68  1  6
  6 69  1  6
 11 70  1  1
 12 71  1  1
 21 72  1  0
 23 73  1  0
 24 74  1  0
 25 75  1  0
 26 76  1  0
 26 77  1  0
 27 78  1  0
 27 79  1  0
 27 80  1  0
 28 81  1  0
 29 82  1  0
 30 83  1  0
 31 84  1  0
 32 85  1  0
 32 86  1  0
 32 87  1  0
 33 88  1  0
 33 89  1  0
 33 90  1  0
 36 91  1  1
 39 92  1  1
 44 93  1  6
 45 94  1  6
 54 95  1  0
 56 96  1  0
 57 97  1  0
 58 98  1  0
 59 99  1  0
 59100  1  0
 60101  1  0
 60102  1  0
 60103  1  0
 61104  1  0
 62105  1  0
 63106  1  0
 64107  1  0
 65108  1  0
 65109  1  0
 65110  1  0
 66111  1  0
 66112  1  0
 66113  1  0
M  CHG  3  16  -1  49  -1  67   2
M  END
> <Uni-Dock RESULT> 
ENERGY=   -4.554  LOWER_BOUND=    2.280  UPPER_BOUND=    6.104
INTER + INTRA:          -4.554
INTER:                  -4.554
INTRA:                   0.000
UNBOUND:                 0.000

$$$$

     RDKit          3D

113118  0  0  0  0  0  0  0  0999 V2000
   48.7848    7.0183   17.6007 C   0  0  2  0  0  0  0  0  0  0  0  0
   48.4397    9.4204   18.2747 C   0  0  0  0  0  0  0  0  0  0  0  0
   50.2408    7.3668   17.2505 C   0  0  2  0  0  0  0  0  0  0  0  0
   49.4631    6.0895   19.8706 C   0  0  0  0  0  0  0  0  0  0  0  0
   47.9938    8.1502   18.2423 C   0  0  0  0  0  0  0  0  0  0  0  0
   49.6399    9.9219   17.5242 C   0  0  1  0  0  0  0  0  0  0  0  0
   48.8006    5.8162   18.5665 C   0  0  0  0  0  0  0  0  0  0  0  0
   50.4938    6.9706   19.8091 C   0  0  0  0  0  0  0  0  0  0  0  0
   47.6629   10.4522   19.0053 C   0  0  0  0  0  0  0  0  0  0  0  0
   50.5557   10.8670   18.3690 C   0  0  1  0  0  0  0  0  0  0  0  0
   51.2182    7.1333   18.4362 C   0  0  1  0  0  0  0  0  0  0  0  0
   50.3449    8.8084   16.6998 C   0  0  2  0  0  0  0  0  0  0  0  0
   48.3919   11.6203   19.5466 C   0  0  0  0  0  0  0  0  0  0  0  0
   49.7701   11.7798   19.3114 C   0  0  0  0  0  0  0  0  0  0  0  0
   48.7867    5.6914   21.1284 C   0  0  0  0  0  0  0  0  0  0  0  0
   50.9607    7.7508   20.6866 O   0  0  0  0  0  0  0  0  0  0  0  0
   52.2369    6.0862   18.1019 N   0  0  0  0  0  0  0  0  0  0  0  0
   48.2535    4.7491   18.2839 O   0  0  0  0  0  0  0  0  0  0  0  0
   46.4488   10.3272   19.1897 O   0  0  0  0  0  0  0  0  0  0  0  0
   47.7035   12.5431   20.3602 C   0  0  0  0  0  0  0  0  0  0  0  0
   48.0927    6.7086   16.3774 O   0  0  0  0  0  0  0  0  0  0  0  0
   49.2191    4.8391   21.8949 O   0  0  0  0  0  0  0  0  0  0  0  0
   46.7799    7.7730   18.8099 O   0  0  0  0  0  0  0  0  0  0  0  0
   51.5351   10.2029   19.1485 O   0  0  0  0  0  0  0  0  0  0  0  0
   49.7609    8.8284   15.3733 O   0  0  0  0  0  0  0  0  0  0  0  0
   47.5742    6.2864   21.3371 N   0  0  0  0  0  0  0  0  0  0  0  0
   51.3677   11.7409   17.3753 C   0  0  0  0  0  0  0  0  0  0  0  0
   50.4326   12.8278   19.9876 C   0  0  0  0  0  0  0  0  0  0  0  0
   46.3544   12.4744   20.6077 O   0  0  0  0  0  0  0  0  0  0  0  0
   49.7422   13.7318   20.7982 C   0  0  0  0  0  0  0  0  0  0  0  0
   48.3733   13.5981   20.9708 C   0  0  0  0  0  0  0  0  0  0  0  0
   53.4233    6.2397   18.9566 C   0  0  0  0  0  0  0  0  0  0  0  0
   51.7659    4.7086   18.1603 C   0  0  0  0  0  0  0  0  0  0  0  0
   51.3786    7.9461   19.5418 C   0  0  2  0  0  0  0  0  0  0  0  0
   50.4496   10.2641   19.9281 C   0  0  0  0  0  0  0  0  0  0  0  0
   49.9598    7.4506   19.1060 C   0  0  2  0  0  0  0  0  0  0  0  0
   52.3783    5.9524   18.2700 C   0  0  0  0  0  0  0  0  0  0  0  0
   51.5167    9.4717   19.7091 C   0  0  0  0  0  0  0  0  0  0  0  0
   49.0727    9.6603   20.0446 C   0  0  1  0  0  0  0  0  0  0  0  0
   52.4645    7.3830   18.6078 C   0  0  0  0  0  0  0  0  0  0  0  0
   51.1743    5.4808   17.8553 C   0  0  0  0  0  0  0  0  0  0  0  0
   50.5790   11.7457   19.8021 C   0  0  0  0  0  0  0  0  0  0  0  0
   47.9270   10.7211   20.1519 C   0  0  1  0  0  0  0  0  0  0  0  0
   49.9802    6.5050   17.8346 C   0  0  1  0  0  0  0  0  0  0  0  0
   48.9594    8.6397   18.8917 C   0  0  2  0  0  0  0  0  0  0  0  0
   49.4632   12.4186   19.1038 C   0  0  0  0  0  0  0  0  0  0  0  0
   48.1728   11.8711   19.1909 C   0  0  0  0  0  0  0  0  0  0  0  0
   53.6202    5.1287   18.3991 C   0  0  0  0  0  0  0  0  0  0  0  0
   50.9085    4.3218   17.4251 O   0  0  0  0  0  0  0  0  0  0  0  0
   48.5710    6.0391   17.5665 N   0  0  0  0  0  0  0  0  0  0  0  0
   53.4000    8.0742   18.1883 O   0  0  0  0  0  0  0  0  0  0  0  0
   51.5588   12.4071   20.1396 O   0  0  0  0  0  0  0  0  0  0  0  0
   49.7079   13.5612   18.3342 C   0  0  0  0  0  0  0  0  0  0  0  0
   51.6483    7.4234   20.8573 O   0  0  0  0  0  0  0  0  0  0  0  0
   54.5395    5.4341   19.1545 O   0  0  0  0  0  0  0  0  0  0  0  0
   52.7845   10.0341   19.5957 O   0  0  0  0  0  0  0  0  0  0  0  0
   46.6203   10.1811   19.9362 O   0  0  0  0  0  0  0  0  0  0  0  0
   47.6072    8.1679   18.8203 O   0  0  0  0  0  0  0  0  0  0  0  0
   53.6585    3.9899   17.6510 N   0  0  0  0  0  0  0  0  0  0  0  0
   47.8697   11.2973   21.5821 C   0  0  0  0  0  0  0  0  0  0  0  0
   47.1472   12.4599   18.4354 C   0  0  0  0  0  0  0  0  0  0  0  0
   50.9401   14.1567   18.2593 O   0  0  0  0  0  0  0  0  0  0  0  0
   47.4072   13.5700   17.6297 C   0  0  0  0  0  0  0  0  0  0  0  0
   48.6851   14.1252   17.5890 C   0  0  0  0  0  0  0  0  0  0  0  0
   48.1001    4.9954   18.4881 C   0  0  0  0  0  0  0  0  0  0  0  0
   48.3960    5.5991   16.1809 C   0  0  0  0  0  0  0  0  0  0  0  0
   49.7963    8.7411   18.8251 Ca  0  0  0  0  0 15  0  0  0  0  0  0
   50.5401    6.7087   16.4171 H   0  0  0  0  0  0  0  0  0  0  0  0
   49.1843   10.5935   16.7747 H   0  0  0  0  0  0  0  0  0  0  0  0
   51.8299    8.0391   18.4651 H   0  0  0  0  0  0  0  0  0  0  0  0
   51.3983    9.0548   16.5339 H   0  0  0  0  0  0  0  0  0  0  0  0
   47.6468    5.8552   16.5661 H   0  0  0  0  0  0  0  0  0  0  0  0
   46.2749    8.5951   19.0104 H   0  0  0  0  0  0  0  0  0  0  0  0
   51.1318    9.5309   19.7559 H   0  0  0  0  0  0  0  0  0  0  0  0
   48.9400    8.2934   15.4086 H   0  0  0  0  0  0  0  0  0  0  0  0
   47.2328    7.0060   20.7059 H   0  0  0  0  0  0  0  0  0  0  0  0
   47.1417    6.1773   22.2388 H   0  0  0  0  0  0  0  0  0  0  0  0
   52.1167   12.3597   17.8811 H   0  0  0  0  0  0  0  0  0  0  0  0
   50.7200   12.4023   16.7894 H   0  0  0  0  0  0  0  0  0  0  0  0
   51.9466   11.1260   16.6779 H   0  0  0  0  0  0  0  0  0  0  0  0
   51.5130   12.9385   19.8997 H   0  0  0  0  0  0  0  0  0  0  0  0
   46.0112   11.6650   20.1704 H   0  0  0  0  0  0  0  0  0  0  0  0
   50.2812   14.5336   21.2990 H   0  0  0  0  0  0  0  0  0  0  0  0
   47.8275   14.3006   21.5979 H   0  0  0  0  0  0  0  0  0  0  0  0
   54.1898    5.5121   18.6672 H   0  0  0  0  0  0  0  0  0  0  0  0
   53.2122    6.0989   20.0188 H   0  0  0  0  0  0  0  0  0  0  0  0
   53.8759    7.2228   18.8132 H   0  0  0  0  0  0  0  0  0  0  0  0
   51.4880    4.3862   19.1686 H   0  0  0  0  0  0  0  0  0  0  0  0
   52.5541    4.0309   17.8151 H   0  0  0  0  0  0  0  0  0  0  0  0
   50.9266    4.5472   17.4775 H   0  0  0  0  0  0  0  0  0  0  0  0
   49.5600    6.8539   19.9361 H   0  0  0  0  0  0  0  0  0  0  0  0
   49.0232    9.0776   20.9761 H   0  0  0  0  0  0  0  0  0  0  0  0
   50.2165    7.1792   16.9939 H   0  0  0  0  0  0  0  0  0  0  0  0
   49.1690    9.1312   17.9312 H   0  0  0  0  0  0  0  0  0  0  0  0
   52.5394    7.7366   21.1023 H   0  0  0  0  0  0  0  0  0  0  0  0
   53.3632    9.4566   19.0477 H   0  0  0  0  0  0  0  0  0  0  0  0
   46.7313    9.2824   19.5514 H   0  0  0  0  0  0  0  0  0  0  0  0
   47.6611    7.3580   18.2618 H   0  0  0  0  0  0  0  0  0  0  0  0
   52.7303    3.7055   17.3061 H   0  0  0  0  0  0  0  0  0  0  0  0
   54.3116    3.2766   17.9187 H   0  0  0  0  0  0  0  0  0  0  0  0
   48.8098   11.7602   21.9031 H   0  0  0  0  0  0  0  0  0  0  0  0
   47.0820   12.0557   21.6664 H   0  0  0  0  0  0  0  0  0  0  0  0
   47.6169   10.5151   22.3051 H   0  0  0  0  0  0  0  0  0  0  0  0
   46.1354   12.0572   18.4762 H   0  0  0  0  0  0  0  0  0  0  0  0
   51.5324   13.6957   18.8972 H   0  0  0  0  0  0  0  0  0  0  0  0
   46.6062   14.0083   17.0379 H   0  0  0  0  0  0  0  0  0  0  0  0
   48.8843   14.9997   16.9761 H   0  0  0  0  0  0  0  0  0  0  0  0
   48.7149    4.0920   18.5289 H   0  0  0  0  0  0  0  0  0  0  0  0
   48.0167    5.3883   19.5073 H   0  0  0  0  0  0  0  0  0  0  0  0
   47.0813    4.6785   18.2148 H   0  0  0  0  0  0  0  0  0  0  0  0
   47.3238    5.5494   15.9514 H   0  0  0  0  0  0  0  0  0  0  0  0
   48.8119    4.6113   15.9669 H   0  0  0  0  0  0  0  0  0  0  0  0
   48.8235    6.3200   15.4734 H   0  0  0  0  0  0  0  0  0  0  0  0
  2  5  2  0
  3  1  1  0
  4  7  1  0
  5  1  1  0
  6  2  1  0
  7  1  1  0
  8  4  2  0
  9  2  1  0
 10  6  1  0
  3 11  1  0
 12  3  1  0
 13  9  1  0
 14 13  2  0
 15  4  1  0
 16  8  1  0
 11 17  1  0
 18  7  2  0
 19  9  2  0
 20 13  1  0
  1 21  1  6
 22 15  2  0
 23  5  1  0
 10 24  1  1
 12 25  1  0
 26 15  1  0
 10 27  1  0
 28 14  1  0
 29 20  1  0
 30 31  1  0
 31 20  2  0
 32 17  1  0
 33 17  1  0
 12  6  1  0
 11  8  1  0
 10 14  1  0
 30 28  2  0
 35 38  2  0
 36 34  1  0
 37 40  1  0
 38 34  1  0
 39 35  1  0
 40 34  1  0
 41 37  2  0
 42 35  1  0
 43 39  1  0
 36 44  1  0
 45 36  1  0
 46 42  1  0
 47 46  2  0
 48 37  1  0
 49 41  1  0
 44 50  1  0
 51 40  2  0
 52 42  2  0
 53 46  1  0
 34 54  1  1
 55 48  2  0
 56 38  1  0
 43 57  1  6
 45 58  1  0
 59 48  1  0
 43 60  1  0
 61 47  1  0
 62 53  1  0
 63 64  1  0
 64 53  2  0
 65 50  1  0
 66 50  1  0
 45 39  1  0
 44 41  1  0
 43 47  1  0
 63 61  2  0
  3 68  1  6
  6 69  1  6
 11 70  1  1
 12 71  1  1
 21 72  1  0
 23 73  1  0
 24 74  1  0
 25 75  1  0
 26 76  1  0
 26 77  1  0
 27 78  1  0
 27 79  1  0
 27 80  1  0
 28 81  1  0
 29 82  1  0
 30 83  1  0
 31 84  1  0
 32 85  1  0
 32 86  1  0
 32 87  1  0
 33 88  1  0
 33 89  1  0
 33 90  1  0
 36 91  1  1
 39 92  1  1
 44 93  1  6
 45 94  1  6
 54 95  1  0
 56 96  1  0
 57 97  1  0
 58 98  1  0
 59 99  1  0
 59100  1  0
 60101  1  0
 60102  1  0
 60103  1  0
 61104  1  0
 62105  1  0
 63106  1  0
 64107  1  0
 65108  1  0
 65109  1  0
 65110  1  0
 66111  1  0
 66112  1  0
 66113  1  0
M  CHG  3  16  -1  49  -1  67   2
M  END
> <Uni-Dock RESULT> 
ENERGY=   -4.520  LOWER_BOUND=    1.901  UPPER_BOUND=    4.990
INTER + INTRA:          -4.520
INTER:                  -4.520
INTRA:                   0.000
UNBOUND:                 0.000

$$$$

     RDKit          3D

113118  0  0  0  0  0  0  0  0999 V2000
   52.0160    8.3662   17.3071 C   0  0  2  0  0  0  0  0  0  0  0  0
   51.1489    8.1246   19.6593 C   0  0  0  0  0  0  0  0  0  0  0  0
   51.1829    7.1346   16.9154 C   0  0  2  0  0  0  0  0  0  0  0  0
   50.2398    9.9567   16.4181 C   0  0  0  0  0  0  0  0  0  0  0  0
   51.8080    8.8497   18.7358 C   0  0  0  0  0  0  0  0  0  0  0  0
   50.7237    6.6959   19.4769 C   0  0  1  0  0  0  0  0  0  0  0  0
   51.6578    9.5123   16.3396 C   0  0  0  0  0  0  0  0  0  0  0  0
   49.3537    8.9742   16.7215 C   0  0  0  0  0  0  0  0  0  0  0  0
   50.8964    8.7023   21.0026 C   0  0  0  0  0  0  0  0  0  0  0  0
   49.2737    6.4051   19.9853 C   0  0  1  0  0  0  0  0  0  0  0  0
   49.7682    7.5064   16.3900 C   0  0  1  0  0  0  0  0  0  0  0  0
   51.1108    6.1241   18.0841 C   0  0  2  0  0  0  0  0  0  0  0  0
   49.7225    8.2166   21.7609 C   0  0  0  0  0  0  0  0  0  0  0  0
   48.9127    7.1856   21.2498 C   0  0  0  0  0  0  0  0  0  0  0  0
   49.9346   11.4049   16.5074 C   0  0  0  0  0  0  0  0  0  0  0  0
   48.2277    9.0313   17.2918 O   0  0  0  0  0  0  0  0  0  0  0  0
   49.5884    7.0781   14.9651 N   0  0  0  0  0  0  0  0  0  0  0  0
   52.5039   10.0388   15.6152 O   0  0  0  0  0  0  0  0  0  0  0  0
   51.6214    9.5883   21.4642 O   0  0  0  0  0  0  0  0  0  0  0  0
   49.3821    8.8445   22.9764 C   0  0  0  0  0  0  0  0  0  0  0  0
   53.4079    8.0109   17.2185 O   0  0  0  0  0  0  0  0  0  0  0  0
   49.3402   12.0312   15.6384 O   0  0  0  0  0  0  0  0  0  0  0  0
   52.3355   10.1075   19.0150 O   0  0  0  0  0  0  0  0  0  0  0  0
   48.2514    6.6504   19.0351 O   0  0  0  0  0  0  0  0  0  0  0  0
   52.4136    5.5050   18.2268 O   0  0  0  0  0  0  0  0  0  0  0  0
   50.4513   12.0300   17.6073 N   0  0  0  0  0  0  0  0  0  0  0  0
   49.1795    4.8842   20.2829 C   0  0  0  0  0  0  0  0  0  0  0  0
   47.7225    6.8816   21.9466 C   0  0  0  0  0  0  0  0  0  0  0  0
   50.1398    9.8325   23.5559 O   0  0  0  0  0  0  0  0  0  0  0  0
   47.3905    7.5156   23.1460 C   0  0  0  0  0  0  0  0  0  0  0  0
   48.2303    8.4865   23.6691 C   0  0  0  0  0  0  0  0  0  0  0  0
   48.1584    6.9420   14.6516 C   0  0  0  0  0  0  0  0  0  0  0  0
   50.2303    7.9243   13.9678 C   0  0  0  0  0  0  0  0  0  0  0  0
   48.6830    7.8926   17.1528 C   0  0  2  0  0  0  0  0  0  0  0  0
   48.4303    7.8166   19.6660 C   0  0  0  0  0  0  0  0  0  0  0  0
   50.0716    8.5957   17.3142 C   0  0  2  0  0  0  0  0  0  0  0  0
   49.4126    7.1679   14.8003 C   0  0  0  0  0  0  0  0  0  0  0  0
   48.0710    7.3446   18.4566 C   0  0  0  0  0  0  0  0  0  0  0  0
   49.4386    8.9329   19.7711 C   0  0  1  0  0  0  0  0  0  0  0  0
   48.7431    6.8089   16.0618 C   0  0  0  0  0  0  0  0  0  0  0  0
   50.6354    7.7521   14.8873 C   0  0  0  0  0  0  0  0  0  0  0  0
   48.0379    7.0803   20.9035 C   0  0  0  0  0  0  0  0  0  0  0  0
   49.8569    9.2671   21.2418 C   0  0  1  0  0  0  0  0  0  0  0  0
   51.1842    8.0367   16.3341 C   0  0  1  0  0  0  0  0  0  0  0  0
   50.5796    8.5655   18.7981 C   0  0  2  0  0  0  0  0  0  0  0  0
   49.0939    6.9691   21.9322 C   0  0  0  0  0  0  0  0  0  0  0  0
   50.0491    7.9925   22.0447 C   0  0  0  0  0  0  0  0  0  0  0  0
   48.7038    6.8559   13.5206 C   0  0  0  0  0  0  0  0  0  0  0  0
   51.4177    8.0447   13.9380 O   0  0  0  0  0  0  0  0  0  0  0  0
   52.4429    8.8431   16.5350 N   0  0  0  0  0  0  0  0  0  0  0  0
   48.2183    5.6982   16.2026 O   0  0  0  0  0  0  0  0  0  0  0  0
   46.9693    6.4980   21.0782 O   0  0  0  0  0  0  0  0  0  0  0  0
   49.1569    5.8351   22.7494 C   0  0  0  0  0  0  0  0  0  0  0  0
   47.7328    8.8801   16.7076 O   0  0  0  0  0  0  0  0  0  0  0  0
   47.4822    6.7455   13.4524 O   0  0  0  0  0  0  0  0  0  0  0  0
   47.1452    6.3098   18.3648 O   0  0  0  0  0  0  0  0  0  0  0  0
   51.0299   10.0800   21.3361 O   0  0  0  0  0  0  0  0  0  0  0  0
   51.6658    9.4820   18.9888 O   0  0  0  0  0  0  0  0  0  0  0  0
   49.4947    6.7360   12.4170 N   0  0  0  0  0  0  0  0  0  0  0  0
   48.7575   10.1036   21.9290 C   0  0  0  0  0  0  0  0  0  0  0  0
   51.1059    7.8202   22.9518 C   0  0  0  0  0  0  0  0  0  0  0  0
   48.2197    4.8358   22.7071 O   0  0  0  0  0  0  0  0  0  0  0  0
   51.1921    6.6639   23.7295 C   0  0  0  0  0  0  0  0  0  0  0  0
   50.2112    5.6781   23.6344 C   0  0  0  0  0  0  0  0  0  0  0  0
   52.4015   10.1795   15.9244 C   0  0  0  0  0  0  0  0  0  0  0  0
   53.6322    8.1211   16.0787 C   0  0  0  0  0  0  0  0  0  0  0  0
   50.0340    7.9923   18.4997 Ca  0  0  0  0  0 15  0  0  0  0  0  0
   51.7295    6.6169   16.1090 H   0  0  0  0  0  0  0  0  0  0  0  0
   51.3700    6.1647   20.1985 H   0  0  0  0  0  0  0  0  0  0  0  0
   49.0960    6.8227   16.9155 H   0  0  0  0  0  0  0  0  0  0  0  0
   50.4493    5.2980   17.8049 H   0  0  0  0  0  0  0  0  0  0  0  0
   53.8044    8.7340   16.6869 H   0  0  0  0  0  0  0  0  0  0  0  0
   52.3205   10.2280   19.9929 H   0  0  0  0  0  0  0  0  0  0  0  0
   48.2828    7.5791   18.6890 H   0  0  0  0  0  0  0  0  0  0  0  0
   53.0847    6.2135   18.1312 H   0  0  0  0  0  0  0  0  0  0  0  0
   50.9262   11.4988   18.3320 H   0  0  0  0  0  0  0  0  0  0  0  0
   50.1505   12.9697   17.8034 H   0  0  0  0  0  0  0  0  0  0  0  0
   48.1620    4.5731   20.5429 H   0  0  0  0  0  0  0  0  0  0  0  0
   49.8453    4.5859   21.1003 H   0  0  0  0  0  0  0  0  0  0  0  0
   49.4323    4.2847   19.4019 H   0  0  0  0  0  0  0  0  0  0  0  0
   47.0250    6.1480   21.5435 H   0  0  0  0  0  0  0  0  0  0  0  0
   50.8869   10.0302   22.9501 H   0  0  0  0  0  0  0  0  0  0  0  0
   46.4696    7.2525   23.6627 H   0  0  0  0  0  0  0  0  0  0  0  0
   47.9806    8.9826   24.6051 H   0  0  0  0  0  0  0  0  0  0  0  0
   48.0333    6.5694   13.6288 H   0  0  0  0  0  0  0  0  0  0  0  0
   47.6061    7.8803   14.7359 H   0  0  0  0  0  0  0  0  0  0  0  0
   47.6918    6.1975   15.2996 H   0  0  0  0  0  0  0  0  0  0  0  0
   49.8082    8.9328   13.9162 H   0  0  0  0  0  0  0  0  0  0  0  0
   50.1158    7.4798   12.9733 H   0  0  0  0  0  0  0  0  0  0  0  0
   51.3098    7.9849   14.1346 H   0  0  0  0  0  0  0  0  0  0  0  0
   49.9271    9.6530   17.0567 H   0  0  0  0  0  0  0  0  0  0  0  0
   48.9842    9.8539   19.3773 H   0  0  0  0  0  0  0  0  0  0  0  0
   51.4258    7.0371   16.7334 H   0  0  0  0  0  0  0  0  0  0  0  0
   50.9701    7.5658   19.0353 H   0  0  0  0  0  0  0  0  0  0  0  0
   46.8800    8.4172   16.6049 H   0  0  0  0  0  0  0  0  0  0  0  0
   47.2852    5.8031   17.5327 H   0  0  0  0  0  0  0  0  0  0  0  0
   51.4580   10.0858   20.4502 H   0  0  0  0  0  0  0  0  0  0  0  0
   52.2286    9.3623   18.1890 H   0  0  0  0  0  0  0  0  0  0  0  0
   50.4338    7.1379   12.5514 H   0  0  0  0  0  0  0  0  0  0  0  0
   49.0584    6.8232   11.5176 H   0  0  0  0  0  0  0  0  0  0  0  0
   47.7796    9.6091   21.9445 H   0  0  0  0  0  0  0  0  0  0  0  0
   49.0301   10.3297   22.9669 H   0  0  0  0  0  0  0  0  0  0  0  0
   48.6367   11.0701   21.4292 H   0  0  0  0  0  0  0  0  0  0  0  0
   51.8669    8.5926   23.0606 H   0  0  0  0  0  0  0  0  0  0  0  0
   47.5024    5.1264   22.0977 H   0  0  0  0  0  0  0  0  0  0  0  0
   52.0243    6.5363   24.4187 H   0  0  0  0  0  0  0  0  0  0  0  0
   50.2678    4.7862   24.2519 H   0  0  0  0  0  0  0  0  0  0  0  0
   52.1977   10.1993   14.8503 H   0  0  0  0  0  0  0  0  0  0  0  0
   51.6514   10.8071   16.4178 H   0  0  0  0  0  0  0  0  0  0  0  0
   53.3609   10.6978   16.0789 H   0  0  0  0  0  0  0  0  0  0  0  0
   54.5268    8.5989   16.4984 H   0  0  0  0  0  0  0  0  0  0  0  0
   53.7604    8.1064   14.9934 H   0  0  0  0  0  0  0  0  0  0  0  0
   53.6406    7.0878   16.4465 H   0  0  0  0  0  0  0  0  0  0  0  0
  2  5  2  0
  3  1  1  0
  4  7  1  0
  5  1  1  0
  6  2  1  0
  7  1  1  0
  8  4  2  0
  9  2  1  0
 10  6  1  0
  3 11  1  0
 12  3  1  0
 13  9  1  0
 14 13  2  0
 15  4  1  0
 16  8  1  0
 11 17  1  0
 18  7  2  0
 19  9  2  0
 20 13  1  0
  1 21  1  6
 22 15  2  0
 23  5  1  0
 10 24  1  1
 12 25  1  0
 26 15  1  0
 10 27  1  0
 28 14  1  0
 29 20  1  0
 30 31  1  0
 31 20  2  0
 32 17  1  0
 33 17  1  0
 12  6  1  0
 11  8  1  0
 10 14  1  0
 30 28  2  0
 35 38  2  0
 36 34  1  0
 37 40  1  0
 38 34  1  0
 39 35  1  0
 40 34  1  0
 41 37  2  0
 42 35  1  0
 43 39  1  0
 36 44  1  0
 45 36  1  0
 46 42  1  0
 47 46  2  0
 48 37  1  0
 49 41  1  0
 44 50  1  0
 51 40  2  0
 52 42  2  0
 53 46  1  0
 34 54  1  1
 55 48  2  0
 56 38  1  0
 43 57  1  6
 45 58  1  0
 59 48  1  0
 43 60  1  0
 61 47  1  0
 62 53  1  0
 63 64  1  0
 64 53  2  0
 65 50  1  0
 66 50  1  0
 45 39  1  0
 44 41  1  0
 43 47  1  0
 63 61  2  0
  3 68  1  6
  6 69  1  6
 11 70  1  1
 12 71  1  1
 21 72  1  0
 23 73  1  0
 24 74  1  0
 25 75  1  0
 26 76  1  0
 26 77  1  0
 27 78  1  0
 27 79  1  0
 27 80  1  0
 28 81  1  0
 29 82  1  0
 30 83  1  0
 31 84  1  0
 32 85  1  0
 32 86  1  0
 32 87  1  0
 33 88  1  0
 33 89  1  0
 33 90  1  0
 36 91  1  1
 39 92  1  1
 44 93  1  6
 45 94  1  6
 54 95  1  0
 56 96  1  0
 57 97  1  0
 58 98  1  0
 59 99  1  0
 59100  1  0
 60101  1  0
 60102  1  0
 60103  1  0
 61104  1  0
 62105  1  0
 63106  1  0
 64107  1  0
 65108  1  0
 65109  1  0
 65110  1  0
 66111  1  0
 66112  1  0
 66113  1  0
M  CHG  3  16  -1  49  -1  67   2
M  END
> <Uni-Dock RESULT> 
ENERGY=   -4.453  LOWER_BOUND=    2.585  UPPER_BOUND=    4.149
INTER + INTRA:          -4.453
INTER:                  -4.453
INTRA:                   0.000
UNBOUND:                 0.000

$$$$

     RDKit          3D

113118  0  0  0  0  0  0  0  0999 V2000
   50.2840    9.5325   15.1582 C   0  0  2  0  0  0  0  0  0  0  0  0
   50.6347    7.4999   16.6035 C   0  0  0  0  0  0  0  0  0  0  0  0
   48.9527    9.7737   15.8886 C   0  0  2  0  0  0  0  0  0  0  0  0
   51.4898   11.2358   16.6141 C   0  0  0  0  0  0  0  0  0  0  0  0
   51.1196    8.3878   15.7150 C   0  0  0  0  0  0  0  0  0  0  0  0
   49.1896    7.3906   16.9974 C   0  0  1  0  0  0  0  0  0  0  0  0
   51.1118   10.8314   15.2328 C   0  0  0  0  0  0  0  0  0  0  0  0
   50.5807   10.9118   17.5685 C   0  0  0  0  0  0  0  0  0  0  0  0
   51.5359    6.4713   17.1794 C   0  0  0  0  0  0  0  0  0  0  0  0
   48.9728    7.2050   18.5349 C   0  0  1  0  0  0  0  0  0  0  0  0
   49.1001   10.7189   17.1136 C   0  0  1  0  0  0  0  0  0  0  0  0
   48.2876    8.4329   16.2785 C   0  0  2  0  0  0  0  0  0  0  0  0
   51.2118    5.9312   18.5181 C   0  0  0  0  0  0  0  0  0  0  0  0
   50.0429    6.3317   19.1913 C   0  0  0  0  0  0  0  0  0  0  0  0
   52.8924   11.6209   16.9018 C   0  0  0  0  0  0  0  0  0  0  0  0
   50.7314   10.6809   18.8016 O   0  0  0  0  0  0  0  0  0  0  0  0
   48.2995   11.9726   16.9315 N   0  0  0  0  0  0  0  0  0  0  0  0
   51.4678   11.4336   14.2186 O   0  0  0  0  0  0  0  0  0  0  0  0
   52.5478    6.0990   16.5784 O   0  0  0  0  0  0  0  0  0  0  0  0
   52.1229    5.0571   19.1452 C   0  0  0  0  0  0  0  0  0  0  0  0
   49.9878    9.1681   13.7977 O   0  0  0  0  0  0  0  0  0  0  0  0
   53.2343   12.7474   17.2408 O   0  0  0  0  0  0  0  0  0  0  0  0
   52.4309    8.3352   15.2505 O   0  0  0  0  0  0  0  0  0  0  0  0
   48.9050    8.4118   19.2745 O   0  0  0  0  0  0  0  0  0  0  0  0
   47.7946    7.8047   15.0689 O   0  0  0  0  0  0  0  0  0  0  0  0
   53.8128   10.6374   16.6710 N   0  0  0  0  0  0  0  0  0  0  0  0
   47.5834    6.5414   18.7338 C   0  0  0  0  0  0  0  0  0  0  0  0
   49.8765    5.9021   20.5263 C   0  0  0  0  0  0  0  0  0  0  0  0
   53.2660    4.5945   18.5408 O   0  0  0  0  0  0  0  0  0  0  0  0
   50.7897    5.0424   21.1411 C   0  0  0  0  0  0  0  0  0  0  0  0
   51.9054    4.6069   20.4432 C   0  0  0  0  0  0  0  0  0  0  0  0
   48.0137   12.5875   18.2360 C   0  0  0  0  0  0  0  0  0  0  0  0
   48.8804   12.9662   16.0381 C   0  0  0  0  0  0  0  0  0  0  0  0
   49.6210   10.3878   18.3497 C   0  0  2  0  0  0  0  0  0  0  0  0
   50.2044    8.0955   19.2389 C   0  0  0  0  0  0  0  0  0  0  0  0
   50.4100   10.0778   17.0344 C   0  0  2  0  0  0  0  0  0  0  0  0
   48.3333   12.1943   17.0573 C   0  0  0  0  0  0  0  0  0  0  0  0
   49.4101    9.1825   19.2864 C   0  0  0  0  0  0  0  0  0  0  0  0
   51.3573    8.0453   18.2682 C   0  0  1  0  0  0  0  0  0  0  0  0
   48.2903   11.0938   18.0347 C   0  0  0  0  0  0  0  0  0  0  0  0
   48.9797   11.9631   15.8857 C   0  0  0  0  0  0  0  0  0  0  0  0
   49.8057    6.8455   19.9503 C   0  0  0  0  0  0  0  0  0  0  0  0
   52.0915    6.6635   18.2335 C   0  0  1  0  0  0  0  0  0  0  0  0
   49.6663   10.5573   15.7198 C   0  0  1  0  0  0  0  0  0  0  0  0
   50.8014    8.5627   16.9239 C   0  0  2  0  0  0  0  0  0  0  0  0
   50.0252    5.5935   19.1954 C   0  0  0  0  0  0  0  0  0  0  0  0
   51.0879    5.5247   18.2798 C   0  0  0  0  0  0  0  0  0  0  0  0
   47.6568   13.4778   17.4212 C   0  0  0  0  0  0  0  0  0  0  0  0
   49.0475   12.7272   14.8805 O   0  0  0  0  0  0  0  0  0  0  0  0
   50.5588   10.2712   14.5380 N   0  0  0  0  0  0  0  0  0  0  0  0
   47.2324   10.7951   18.6011 O   0  0  0  0  0  0  0  0  0  0  0  0
   49.2384    6.7952   21.0399 O   0  0  0  0  0  0  0  0  0  0  0  0
   49.1544    4.5119   19.3674 C   0  0  0  0  0  0  0  0  0  0  0  0
   50.4056   11.3078   19.1334 O   0  0  0  0  0  0  0  0  0  0  0  0
   47.4715   13.8192   18.5866 O   0  0  0  0  0  0  0  0  0  0  0  0
   48.3435    9.2215   20.1791 O   0  0  0  0  0  0  0  0  0  0  0  0
   52.9575    6.4999   17.1070 O   0  0  0  0  0  0  0  0  0  0  0  0
   51.7885    8.3594   15.9040 O   0  0  0  0  0  0  0  0  0  0  0  0
   47.2870   14.2717   16.3767 N   0  0  0  0  0  0  0  0  0  0  0  0
   53.0249    6.5279   19.4545 C   0  0  0  0  0  0  0  0  0  0  0  0
   51.2163    4.3689   17.4943 C   0  0  0  0  0  0  0  0  0  0  0  0
   48.1346    4.5174   20.2831 O   0  0  0  0  0  0  0  0  0  0  0  0
   50.3147    3.3122   17.6342 C   0  0  0  0  0  0  0  0  0  0  0  0
   49.2915    3.3814   18.5783 C   0  0  0  0  0  0  0  0  0  0  0  0
   51.6805   11.2100   14.3939 C   0  0  0  0  0  0  0  0  0  0  0  0
   49.8016   10.2005   13.2868 C   0  0  0  0  0  0  0  0  0  0  0  0
   50.1430    8.8226   17.3868 Ca  0  0  0  0  0 15  0  0  0  0  0  0
   48.2668   10.2455   15.1647 H   0  0  0  0  0  0  0  0  0  0  0  0
   48.9026    6.4137   16.5686 H   0  0  0  0  0  0  0  0  0  0  0  0
   48.5485   10.2153   17.9120 H   0  0  0  0  0  0  0  0  0  0  0  0
   47.3851    8.6358   16.8635 H   0  0  0  0  0  0  0  0  0  0  0  0
   50.5621    9.7575   13.2634 H   0  0  0  0  0  0  0  0  0  0  0  0
   52.8066    7.4628   15.5128 H   0  0  0  0  0  0  0  0  0  0  0  0
   49.7083    8.9764   19.1363 H   0  0  0  0  0  0  0  0  0  0  0  0
   48.4846    7.9159   14.3811 H   0  0  0  0  0  0  0  0  0  0  0  0
   53.5181    9.7009   16.4086 H   0  0  0  0  0  0  0  0  0  0  0  0
   54.7546   10.7849   16.9924 H   0  0  0  0  0  0  0  0  0  0  0  0
   47.3024    6.4722   19.7902 H   0  0  0  0  0  0  0  0  0  0  0  0
   47.5471    5.5334   18.3058 H   0  0  0  0  0  0  0  0  0  0  0  0
   46.7843    7.1344   18.2764 H   0  0  0  0  0  0  0  0  0  0  0  0
   49.0282    6.2543   21.1125 H   0  0  0  0  0  0  0  0  0  0  0  0
   53.3323    5.0226   17.6596 H   0  0  0  0  0  0  0  0  0  0  0  0
   50.6281    4.7233   22.1688 H   0  0  0  0  0  0  0  0  0  0  0  0
   52.6197    3.9341   20.9139 H   0  0  0  0  0  0  0  0  0  0  0  0
   47.3764   13.4688   18.1029 H   0  0  0  0  0  0  0  0  0  0  0  0
   48.9118   12.9018   18.7719 H   0  0  0  0  0  0  0  0  0  0  0  0
   47.4463   11.9018   18.8683 H   0  0  0  0  0  0  0  0  0  0  0  0
   49.8164   13.3929   16.4119 H   0  0  0  0  0  0  0  0  0  0  0  0
   48.1820   13.7991   15.9034 H   0  0  0  0  0  0  0  0  0  0  0  0
   49.0370   12.5555   15.0363 H   0  0  0  0  0  0  0  0  0  0  0  0
   51.3519   10.6392   17.0861 H   0  0  0  0  0  0  0  0  0  0  0  0
   52.1163    8.7745   18.5874 H   0  0  0  0  0  0  0  0  0  0  0  0
   48.8225    9.8553   15.6093 H   0  0  0  0  0  0  0  0  0  0  0  0
   49.9217    7.9738   16.6281 H   0  0  0  0  0  0  0  0  0  0  0  0
   49.8902   11.4930   19.9409 H   0  0  0  0  0  0  0  0  0  0  0  0
   47.6411    9.8226   19.8413 H   0  0  0  0  0  0  0  0  0  0  0  0
   52.7485    7.2168   16.4664 H   0  0  0  0  0  0  0  0  0  0  0  0
   51.4883    8.9285   15.1578 H   0  0  0  0  0  0  0  0  0  0  0  0
   47.7563   14.0187   15.4952 H   0  0  0  0  0  0  0  0  0  0  0  0
   47.1096   15.2410   16.5663 H   0  0  0  0  0  0  0  0  0  0  0  0
   52.5042    6.6263   20.4138 H   0  0  0  0  0  0  0  0  0  0  0  0
   53.5326    5.5558   19.4521 H   0  0  0  0  0  0  0  0  0  0  0  0
   53.8162    7.2839   19.4232 H   0  0  0  0  0  0  0  0  0  0  0  0
   52.0267    4.2847   16.7706 H   0  0  0  0  0  0  0  0  0  0  0  0
   48.2162    5.3430   20.8142 H   0  0  0  0  0  0  0  0  0  0  0  0
   50.4169    2.4275   17.0090 H   0  0  0  0  0  0  0  0  0  0  0  0
   48.6002    2.5524   18.7003 H   0  0  0  0  0  0  0  0  0  0  0  0
   51.4034   12.2649   14.3154 H   0  0  0  0  0  0  0  0  0  0  0  0
   52.3787   11.1100   15.2320 H   0  0  0  0  0  0  0  0  0  0  0  0
   52.2684   10.9647   13.4954 H   0  0  0  0  0  0  0  0  0  0  0  0
   50.4178    9.7141   12.5197 H   0  0  0  0  0  0  0  0  0  0  0  0
   49.5048   11.1728   12.8853 H   0  0  0  0  0  0  0  0  0  0  0  0
   48.9052    9.5775   13.3943 H   0  0  0  0  0  0  0  0  0  0  0  0
  2  5  2  0
  3  1  1  0
  4  7  1  0
  5  1  1  0
  6  2  1  0
  7  1  1  0
  8  4  2  0
  9  2  1  0
 10  6  1  0
  3 11  1  0
 12  3  1  0
 13  9  1  0
 14 13  2  0
 15  4  1  0
 16  8  1  0
 11 17  1  0
 18  7  2  0
 19  9  2  0
 20 13  1  0
  1 21  1  6
 22 15  2  0
 23  5  1  0
 10 24  1  1
 12 25  1  0
 26 15  1  0
 10 27  1  0
 28 14  1  0
 29 20  1  0
 30 31  1  0
 31 20  2  0
 32 17  1  0
 33 17  1  0
 12  6  1  0
 11  8  1  0
 10 14  1  0
 30 28  2  0
 35 38  2  0
 36 34  1  0
 37 40  1  0
 38 34  1  0
 39 35  1  0
 40 34  1  0
 41 37  2  0
 42 35  1  0
 43 39  1  0
 36 44  1  0
 45 36  1  0
 46 42  1  0
 47 46  2  0
 48 37  1  0
 49 41  1  0
 44 50  1  0
 51 40  2  0
 52 42  2  0
 53 46  1  0
 34 54  1  1
 55 48  2  0
 56 38  1  0
 43 57  1  6
 45 58  1  0
 59 48  1  0
 43 60  1  0
 61 47  1  0
 62 53  1  0
 63 64  1  0
 64 53  2  0
 65 50  1  0
 66 50  1  0
 45 39  1  0
 44 41  1  0
 43 47  1  0
 63 61  2  0
  3 68  1  6
  6 69  1  6
 11 70  1  1
 12 71  1  1
 21 72  1  0
 23 73  1  0
 24 74  1  0
 25 75  1  0
 26 76  1  0
 26 77  1  0
 27 78  1  0
 27 79  1  0
 27 80  1  0
 28 81  1  0
 29 82  1  0
 30 83  1  0
 31 84  1  0
 32 85  1  0
 32 86  1  0
 32 87  1  0
 33 88  1  0
 33 89  1  0
 33 90  1  0
 36 91  1  1
 39 92  1  1
 44 93  1  6
 45 94  1  6
 54 95  1  0
 56 96  1  0
 57 97  1  0
 58 98  1  0
 59 99  1  0
 59100  1  0
 60101  1  0
 60102  1  0
 60103  1  0
 61104  1  0
 62105  1  0
 63106  1  0
 64107  1  0
 65108  1  0
 65109  1  0
 65110  1  0
 66111  1  0
 66112  1  0
 66113  1  0
M  CHG  3  16  -1  49  -1  67   2
M  END
> <Uni-Dock RESULT> 
ENERGY=   -4.410  LOWER_BOUND=    2.918  UPPER_BOUND=    6.760
INTER + INTRA:          -4.410
INTER:                  -4.410
INTRA:                   0.000
UNBOUND:                 0.000

$$$$
