
     RDKit          3D

113118  0  0  0  0  0  0  0  0999 V2000
   43.6742   11.1479   11.1734 C   0  0  2  0  0  0  0  0  0  0  0  0
   45.7438    9.9432   12.0058 C   0  0  0  0  0  0  0  0  0  0  0  0
   44.3668   12.4421   11.6225 C   0  0  2  0  0  0  0  0  0  0  0  0
   43.8285   12.2674    8.8127 C   0  0  0  0  0  0  0  0  0  0  0  0
   44.4830    9.9062   11.5297 C   0  0  0  0  0  0  0  0  0  0  0  0
   46.5389   11.2168   12.1624 C   0  0  1  0  0  0  0  0  0  0  0  0
   43.2805   11.1569    9.6645 C   0  0  0  0  0  0  0  0  0  0  0  0
   44.0501   13.4787    9.4121 C   0  0  0  0  0  0  0  0  0  0  0  0
   46.3689    8.7237   12.5737 C   0  0  0  0  0  0  0  0  0  0  0  0
   48.0851   11.0662   11.8908 C   0  0  1  0  0  0  0  0  0  0  0  0
   43.6808   13.6338   10.9098 C   0  0  1  0  0  0  0  0  0  0  0  0
   45.8907   12.3436   11.3265 C   0  0  2  0  0  0  0  0  0  0  0  0
   47.8139    8.5534   12.3631 C   0  0  0  0  0  0  0  0  0  0  0  0
   48.6221    9.6427   12.0025 C   0  0  0  0  0  0  0  0  0  0  0  0
   44.1716   11.9922    7.3731 C   0  0  0  0  0  0  0  0  0  0  0  0
   44.6099   14.5344    8.9857 O   0  0  0  0  0  0  0  0  0  0  0  0
   42.2081   13.6685   11.1954 N   0  0  0  0  0  0  0  0  0  0  0  0
   42.5111   10.3079    9.2059 O   0  0  0  0  0  0  0  0  0  0  0  0
   45.7659    7.8924   13.2453 O   0  0  0  0  0  0  0  0  0  0  0  0
   48.3784    7.2713   12.5131 C   0  0  0  0  0  0  0  0  0  0  0  0
   42.4425   10.9857   11.9207 O   0  0  0  0  0  0  0  0  0  0  0  0
   43.7175   11.0641    6.7170 O   0  0  0  0  0  0  0  0  0  0  0  0
   43.7750    8.7139   11.4614 O   0  0  0  0  0  0  0  0  0  0  0  0
   48.4213   11.4759   10.5589 O   0  0  0  0  0  0  0  0  0  0  0  0
   46.5567   13.5829   11.5670 O   0  0  0  0  0  0  0  0  0  0  0  0
   45.0793   12.8463    6.8225 N   0  0  0  0  0  0  0  0  0  0  0  0
   48.8621   11.9866   12.8723 C   0  0  0  0  0  0  0  0  0  0  0  0
   49.9842    9.3816   11.7201 C   0  0  0  0  0  0  0  0  0  0  0  0
   47.6563    6.1748   12.9109 O   0  0  0  0  0  0  0  0  0  0  0  0
   50.5308    8.1037   11.8445 C   0  0  0  0  0  0  0  0  0  0  0  0
   49.7292    7.0471   12.2606 C   0  0  0  0  0  0  0  0  0  0  0  0
   41.4853   14.4814   10.2022 C   0  0  0  0  0  0  0  0  0  0  0  0
   41.9701   14.2704   12.5179 C   0  0  0  0  0  0  0  0  0  0  0  0
   45.5351   12.7028    9.9018 C   0  0  2  0  0  0  0  0  0  0  0  0
   46.9197   11.5111   11.6648 C   0  0  0  0  0  0  0  0  0  0  0  0
   44.6659   11.4456    9.7348 C   0  0  2  0  0  0  0  0  0  0  0  0
   43.5003   13.8325   11.0247 C   0  0  0  0  0  0  0  0  0  0  0  0
   46.6130   12.6321   10.9738 C   0  0  0  0  0  0  0  0  0  0  0  0
   46.2198   10.1999   11.4156 C   0  0  1  0  0  0  0  0  0  0  0  0
   44.6927   13.9790   10.1421 C   0  0  0  0  0  0  0  0  0  0  0  0
   42.7531   12.7362   10.7476 C   0  0  0  0  0  0  0  0  0  0  0  0
   48.0822   11.5533   12.5925 C   0  0  0  0  0  0  0  0  0  0  0  0
   46.3103    9.1451   12.5958 C   0  0  1  0  0  0  0  0  0  0  0  0
   43.1747   11.8607    9.5139 C   0  0  1  0  0  0  0  0  0  0  0  0
   44.7680   10.4465   10.9138 C   0  0  2  0  0  0  0  0  0  0  0  0
   48.3796   10.3985   13.4581 C   0  0  0  0  0  0  0  0  0  0  0  0
   47.5333    9.2869   13.5017 C   0  0  0  0  0  0  0  0  0  0  0  0
   43.2175   14.8711   12.0734 C   0  0  0  0  0  0  0  0  0  0  0  0
   41.7236   12.2595   11.2975 O   0  0  0  0  0  0  0  0  0  0  0  0
   42.9728   12.5821    8.2095 N   0  0  0  0  0  0  0  0  0  0  0  0
   45.0283   15.0775    9.6755 O   0  0  0  0  0  0  0  0  0  0  0  0
   48.8096   12.5483   12.6649 O   0  0  0  0  0  0  0  0  0  0  0  0
   49.5141   10.4523   14.3005 C   0  0  0  0  0  0  0  0  0  0  0  0
   46.2791   12.8763    8.6697 O   0  0  0  0  0  0  0  0  0  0  0  0
   42.5092   14.7507   13.0677 O   0  0  0  0  0  0  0  0  0  0  0  0
   47.3233   13.8238   11.1147 O   0  0  0  0  0  0  0  0  0  0  0  0
   45.2098    9.1644   13.5083 O   0  0  0  0  0  0  0  0  0  0  0  0
   44.1939    9.1971   10.5119 O   0  0  0  0  0  0  0  0  0  0  0  0
   43.8369   16.0741   11.8689 N   0  0  0  0  0  0  0  0  0  0  0  0
   46.3358    7.7190   11.9728 C   0  0  0  0  0  0  0  0  0  0  0  0
   47.8088    8.2936   14.4782 C   0  0  0  0  0  0  0  0  0  0  0  0
   50.4120   11.4902   14.2981 O   0  0  0  0  0  0  0  0  0  0  0  0
   48.9249    8.3607   15.3132 C   0  0  0  0  0  0  0  0  0  0  0  0
   49.7914    9.4348   15.2070 C   0  0  0  0  0  0  0  0  0  0  0  0
   41.6018   13.1285    8.1294 C   0  0  0  0  0  0  0  0  0  0  0  0
   43.1586   11.6761    7.0711 C   0  0  0  0  0  0  0  0  0  0  0  0
   45.4827   11.4387   11.2373 Ca  0  0  0  0  0 15  0  0  0  0  0  0
   44.2457   12.5826   12.7048 H   0  0  0  0  0  0  0  0  0  0  0  0
   46.4290   11.4861   13.2236 H   0  0  0  0  0  0  0  0  0  0  0  0
   44.1195   14.5608   11.3116 H   0  0  0  0  0  0  0  0  0  0  0  0
   46.0589   12.1034   10.2691 H   0  0  0  0  0  0  0  0  0  0  0  0
   41.9228   11.7859   11.6860 H   0  0  0  0  0  0  0  0  0  0  0  0
   42.8301    8.9742   11.4814 H   0  0  0  0  0  0  0  0  0  0  0  0
   48.2173   12.4311   10.4928 H   0  0  0  0  0  0  0  0  0  0  0  0
   46.1710   14.2239   10.9179 H   0  0  0  0  0  0  0  0  0  0  0  0
   45.2356   12.8325    5.8334 H   0  0  0  0  0  0  0  0  0  0  0  0
   45.2270   13.7205    7.3512 H   0  0  0  0  0  0  0  0  0  0  0  0
   48.7725   13.0395   12.5926 H   0  0  0  0  0  0  0  0  0  0  0  0
   49.9316   11.7712   12.8902 H   0  0  0  0  0  0  0  0  0  0  0  0
   48.5019   11.8660   13.8976 H   0  0  0  0  0  0  0  0  0  0  0  0
   50.6265   10.1932   11.3740 H   0  0  0  0  0  0  0  0  0  0  0  0
   46.7369    6.4827   13.0989 H   0  0  0  0  0  0  0  0  0  0  0  0
   51.5752    7.9355   11.6085 H   0  0  0  0  0  0  0  0  0  0  0  0
   50.1447    6.0504   12.3674 H   0  0  0  0  0  0  0  0  0  0  0  0
   41.5066   14.0159    9.2114 H   0  0  0  0  0  0  0  0  0  0  0  0
   41.8758   15.5022   10.1313 H   0  0  0  0  0  0  0  0  0  0  0  0
   40.4235   14.5419   10.4652 H   0  0  0  0  0  0  0  0  0  0  0  0
   42.3707   15.2911   12.5884 H   0  0  0  0  0  0  0  0  0  0  0  0
   40.8945   14.3162   12.7357 H   0  0  0  0  0  0  0  0  0  0  0  0
   42.4147   13.6701   13.3196 H   0  0  0  0  0  0  0  0  0  0  0  0
   45.0123   10.8980    8.8489 H   0  0  0  0  0  0  0  0  0  0  0  0
   46.7805    9.7518   10.5826 H   0  0  0  0  0  0  0  0  0  0  0  0
   42.5696   10.9402    9.4809 H   0  0  0  0  0  0  0  0  0  0  0  0
   44.1706   10.8067   11.7527 H   0  0  0  0  0  0  0  0  0  0  0  0
   46.4689   13.8426    8.6444 H   0  0  0  0  0  0  0  0  0  0  0  0
   48.0511   13.6893   11.7602 H   0  0  0  0  0  0  0  0  0  0  0  0
   44.7181   10.0050   13.4456 H   0  0  0  0  0  0  0  0  0  0  0  0
   44.3081    9.0829    9.5508 H   0  0  0  0  0  0  0  0  0  0  0  0
   43.5428   16.8526   12.4402 H   0  0  0  0  0  0  0  0  0  0  0  0
   44.3085   16.2521   10.9857 H   0  0  0  0  0  0  0  0  0  0  0  0
   46.3307    6.9285   12.7305 H   0  0  0  0  0  0  0  0  0  0  0  0
   45.4477    7.5091   11.3758 H   0  0  0  0  0  0  0  0  0  0  0  0
   47.2244    7.5714   11.3442 H   0  0  0  0  0  0  0  0  0  0  0  0
   47.1198    7.4591   14.6114 H   0  0  0  0  0  0  0  0  0  0  0  0
   50.0547   12.1875   13.7032 H   0  0  0  0  0  0  0  0  0  0  0  0
   49.1010    7.5811   16.0472 H   0  0  0  0  0  0  0  0  0  0  0  0
   50.6632    9.5005   15.8516 H   0  0  0  0  0  0  0  0  0  0  0  0
   41.4436   13.6012    7.1560 H   0  0  0  0  0  0  0  0  0  0  0  0
   41.4381   13.9261    8.8596 H   0  0  0  0  0  0  0  0  0  0  0  0
   40.8369   12.3529    8.2572 H   0  0  0  0  0  0  0  0  0  0  0  0
   44.1997   11.3514    6.9732 H   0  0  0  0  0  0  0  0  0  0  0  0
   42.5204   10.7855    7.1431 H   0  0  0  0  0  0  0  0  0  0  0  0
   42.9213   12.1824    6.1283 H   0  0  0  0  0  0  0  0  0  0  0  0
  2  5  2  0
  3  1  1  0
  4  7  1  0
  5  1  1  0
  6  2  1  0
  7  1  1  0
  8  4  2  0
  9  2  1  0
 10  6  1  0
  3 11  1  0
 12  3  1  0
 13  9  1  0
 14 13  2  0
 15  4  1  0
 16  8  1  0
 11 17  1  0
 18  7  2  0
 19  9  2  0
 20 13  1  0
  1 21  1  1
 22 15  2  0
 23  5  1  0
 10 24  1  6
 12 25  1  0
 26 15  1  0
 10 27  1  0
 28 14  1  0
 29 20  1  0
 30 31  1  0
 31 20  2  0
 32 17  1  0
 33 17  1  0
 12  6  1  0
 11  8  1  0
 10 14  1  0
 30 28  2  0
 35 38  2  0
 36 34  1  0
 37 40  1  0
 38 34  1  0
 39 35  1  0
 40 34  1  0
 41 37  2  0
 42 35  1  0
 43 39  1  0
 36 44  1  0
 45 36  1  0
 46 42  1  0
 47 46  2  0
 48 37  1  0
 49 41  1  0
 44 50  1  0
 51 40  2  0
 52 42  2  0
 53 46  1  0
 34 54  1  6
 55 48  2  0
 56 38  1  0
 43 57  1  1
 45 58  1  0
 59 48  1  0
 43 60  1  0
 61 47  1  0
 62 53  1  0
 63 64  1  0
 64 53  2  0
 65 50  1  0
 66 50  1  0
 45 39  1  0
 44 41  1  0
 43 47  1  0
 63 61  2  0
  3 68  1  1
  6 69  1  1
 11 70  1  6
 12 71  1  6
 21 72  1  0
 23 73  1  0
 24 74  1  0
 25 75  1  0
 26 76  1  0
 26 77  1  0
 27 78  1  0
 27 79  1  0
 27 80  1  0
 28 81  1  0
 29 82  1  0
 30 83  1  0
 31 84  1  0
 32 85  1  0
 32 86  1  0
 32 87  1  0
 33 88  1  0
 33 89  1  0
 33 90  1  0
 36 91  1  6
 39 92  1  6
 44 93  1  1
 45 94  1  1
 54 95  1  0
 56 96  1  0
 57 97  1  0
 58 98  1  0
 59 99  1  0
 59100  1  0
 60101  1  0
 60102  1  0
 60103  1  0
 61104  1  0
 62105  1  0
 63106  1  0
 64107  1  0
 65108  1  0
 65109  1  0
 65110  1  0
 66111  1  0
 66112  1  0
 66113  1  0
M  CHG  3  16  -1  49  -1  67   2
M  END
> <Uni-Dock RESULT> 
ENERGY=   -6.018  LOWER_BOUND=    0.000  UPPER_BOUND=    0.000
INTER + INTRA:          -6.018
INTER:                  -6.018
INTRA:                   0.000
UNBOUND:                 0.000

$$$$

     RDKit          3D

113118  0  0  0  0  0  0  0  0999 V2000
   51.6537    8.7858   15.0575 C   0  0  2  0  0  0  0  0  0  0  0  0
   52.4619    7.0866   16.7565 C   0  0  0  0  0  0  0  0  0  0  0  0
   50.6022    7.7409   14.6586 C   0  0  2  0  0  0  0  0  0  0  0  0
   49.5416   10.1899   15.7041 C   0  0  0  0  0  0  0  0  0  0  0  0
   52.6223    8.2584   16.1093 C   0  0  0  0  0  0  0  0  0  0  0  0
   51.2569    6.1947   16.5800 C   0  0  1  0  0  0  0  0  0  0  0  0
   51.0289   10.1472   15.4912 C   0  0  0  0  0  0  0  0  0  0  0  0
   48.7661    9.3558   14.9436 C   0  0  0  0  0  0  0  0  0  0  0  0
   53.5671    6.5175   17.5661 C   0  0  0  0  0  0  0  0  0  0  0  0
   50.8085    5.4270   17.8825 C   0  0  1  0  0  0  0  0  0  0  0  0
   49.4675    8.4614   13.8893 C   0  0  1  0  0  0  0  0  0  0  0  0
   50.1054    6.9947   15.9299 C   0  0  2  0  0  0  0  0  0  0  0  0
   53.1934    5.7743   18.7783 C   0  0  0  0  0  0  0  0  0  0  0  0
   51.8870    5.2923   18.9531 C   0  0  0  0  0  0  0  0  0  0  0  0
   48.9751   11.0833   16.7750 C   0  0  0  0  0  0  0  0  0  0  0  0
   47.5265    9.0895   14.9914 O   0  0  0  0  0  0  0  0  0  0  0  0
   49.9975    9.1954   12.6926 N   0  0  0  0  0  0  0  0  0  0  0  0
   51.7293   11.1567   15.6077 O   0  0  0  0  0  0  0  0  0  0  0  0
   54.7519    6.5852   17.2539 O   0  0  0  0  0  0  0  0  0  0  0  0
   54.1656    5.5646   19.7762 C   0  0  0  0  0  0  0  0  0  0  0  0
   52.5010    9.0655   13.9148 O   0  0  0  0  0  0  0  0  0  0  0  0
   49.5554   12.0506   17.2499 O   0  0  0  0  0  0  0  0  0  0  0  0
   53.7780    9.0123   16.2631 O   0  0  0  0  0  0  0  0  0  0  0  0
   49.7294    6.1041   18.5397 O   0  0  0  0  0  0  0  0  0  0  0  0
   49.0061    6.1317   15.6400 O   0  0  0  0  0  0  0  0  0  0  0  0
   47.7430   10.7252   17.2334 N   0  0  0  0  0  0  0  0  0  0  0  0
   50.2998    4.0135   17.4857 C   0  0  0  0  0  0  0  0  0  0  0  0
   51.5774    4.6742   20.1882 C   0  0  0  0  0  0  0  0  0  0  0  0
   55.4714    5.9652   19.6485 O   0  0  0  0  0  0  0  0  0  0  0  0
   52.5388    4.4940   21.1834 C   0  0  0  0  0  0  0  0  0  0  0  0
   53.8432    4.9242   20.9698 C   0  0  0  0  0  0  0  0  0  0  0  0
   49.0510   10.2242   12.2284 C   0  0  0  0  0  0  0  0  0  0  0  0
   50.2071    8.2526   11.5813 C   0  0  0  0  0  0  0  0  0  0  0  0
   49.2208    8.1973   16.1676 C   0  0  2  0  0  0  0  0  0  0  0  0
   50.6640    6.2537   16.9324 C   0  0  0  0  0  0  0  0  0  0  0  0
   50.4284    9.1413   16.2880 C   0  0  2  0  0  0  0  0  0  0  0  0
   49.4102    8.4525   13.6031 C   0  0  0  0  0  0  0  0  0  0  0  0
   49.4898    6.7279   16.4582 C   0  0  0  0  0  0  0  0  0  0  0  0
   51.8282    7.1599   17.2400 C   0  0  1  0  0  0  0  0  0  0  0  0
   48.5217    8.3009   14.7905 C   0  0  0  0  0  0  0  0  0  0  0  0
   50.3966    9.3653   13.7782 C   0  0  0  0  0  0  0  0  0  0  0  0
   50.7458    4.8124   17.2926 C   0  0  0  0  0  0  0  0  0  0  0  0
   53.2458    6.4520   17.2940 C   0  0  1  0  0  0  0  0  0  0  0  0
   50.4040   10.1808   15.1203 C   0  0  1  0  0  0  0  0  0  0  0  0
   51.7961    8.4153   16.3217 C   0  0  2  0  0  0  0  0  0  0  0  0
   52.0349    4.2228   17.6949 C   0  0  0  0  0  0  0  0  0  0  0  0
   53.2173    4.9671   17.6554 C   0  0  0  0  0  0  0  0  0  0  0  0
   49.1389    7.6496   12.3620 C   0  0  0  0  0  0  0  0  0  0  0  0
   51.3510    9.7245   13.0368 O   0  0  0  0  0  0  0  0  0  0  0  0
   49.2339   11.1208   15.2205 N   0  0  0  0  0  0  0  0  0  0  0  0
   47.2913    8.2000   14.6761 O   0  0  0  0  0  0  0  0  0  0  0  0
   49.7498    4.0837   17.2537 O   0  0  0  0  0  0  0  0  0  0  0  0
   52.0737    2.8599   18.0697 C   0  0  0  0  0  0  0  0  0  0  0  0
   48.2689    8.5866   17.1894 O   0  0  0  0  0  0  0  0  0  0  0  0
   49.9216    7.4011   11.4508 O   0  0  0  0  0  0  0  0  0  0  0  0
   48.3691    5.9192   16.2719 O   0  0  0  0  0  0  0  0  0  0  0  0
   53.9854    6.4880   16.0709 O   0  0  0  0  0  0  0  0  0  0  0  0
   52.7994    9.3397   16.7586 O   0  0  0  0  0  0  0  0  0  0  0  0
   47.8677    7.1513   12.2696 N   0  0  0  0  0  0  0  0  0  0  0  0
   54.1172    7.1883   18.3529 C   0  0  0  0  0  0  0  0  0  0  0  0
   54.4328    4.2768   17.9051 C   0  0  0  0  0  0  0  0  0  0  0  0
   50.9574    2.0673   18.1646 O   0  0  0  0  0  0  0  0  0  0  0  0
   54.4623    2.9284   18.2634 C   0  0  0  0  0  0  0  0  0  0  0  0
   53.2748    2.2249   18.3666 C   0  0  0  0  0  0  0  0  0  0  0  0
   49.1347   11.9521   14.0025 C   0  0  0  0  0  0  0  0  0  0  0  0
   49.3799   12.0248   16.3663 C   0  0  0  0  0  0  0  0  0  0  0  0
   50.9275    7.5109   16.1559 Ca  0  0  0  0  0 15  0  0  0  0  0  0
   51.0440    6.9946   13.9851 H   0  0  0  0  0  0  0  0  0  0  0  0
   51.5786    5.4300   15.8571 H   0  0  0  0  0  0  0  0  0  0  0  0
   48.7695    7.6912   13.5248 H   0  0  0  0  0  0  0  0  0  0  0  0
   49.7447    7.7129   16.6769 H   0  0  0  0  0  0  0  0  0  0  0  0
   51.8739    9.4082   13.2406 H   0  0  0  0  0  0  0  0  0  0  0  0
   53.8422    9.5539   15.4485 H   0  0  0  0  0  0  0  0  0  0  0  0
   48.9654    6.0869   17.9279 H   0  0  0  0  0  0  0  0  0  0  0  0
   48.2720    6.7254   15.3406 H   0  0  0  0  0  0  0  0  0  0  0  0
   47.2315   11.3542   17.8214 H   0  0  0  0  0  0  0  0  0  0  0  0
   47.2332   10.0606   16.6302 H   0  0  0  0  0  0  0  0  0  0  0  0
   49.3190    4.0593   17.0053 H   0  0  0  0  0  0  0  0  0  0  0  0
   50.1812    3.3542   18.3469 H   0  0  0  0  0  0  0  0  0  0  0  0
   50.9983    3.5174   16.8062 H   0  0  0  0  0  0  0  0  0  0  0  0
   50.5552    4.3460   20.3836 H   0  0  0  0  0  0  0  0  0  0  0  0
   55.5701    6.3571   18.7473 H   0  0  0  0  0  0  0  0  0  0  0  0
   52.2656    4.0278   22.1229 H   0  0  0  0  0  0  0  0  0  0  0  0
   54.6008    4.7834   21.7337 H   0  0  0  0  0  0  0  0  0  0  0  0
   48.9509   11.0348   12.9574 H   0  0  0  0  0  0  0  0  0  0  0  0
   48.0606    9.8131   12.0054 H   0  0  0  0  0  0  0  0  0  0  0  0
   49.4314   10.7041   11.3199 H   0  0  0  0  0  0  0  0  0  0  0  0
   49.2823    7.7311   11.2983 H   0  0  0  0  0  0  0  0  0  0  0  0
   50.5816    8.7776   10.6921 H   0  0  0  0  0  0  0  0  0  0  0  0
   50.9645    7.5003   11.8285 H   0  0  0  0  0  0  0  0  0  0  0  0
   50.3541    9.6819   17.2403 H   0  0  0  0  0  0  0  0  0  0  0  0
   51.6360    7.5026   18.2669 H   0  0  0  0  0  0  0  0  0  0  0  0
   51.3224   10.7860   15.1882 H   0  0  0  0  0  0  0  0  0  0  0  0
   52.0744    8.1100   15.3118 H   0  0  0  0  0  0  0  0  0  0  0  0
   47.4030    8.2828   16.8312 H   0  0  0  0  0  0  0  0  0  0  0  0
   48.5847    5.0027   16.5507 H   0  0  0  0  0  0  0  0  0  0  0  0
   53.4000    6.6779   15.3136 H   0  0  0  0  0  0  0  0  0  0  0  0
   52.3964    9.9959   17.3559 H   0  0  0  0  0  0  0  0  0  0  0  0
   47.5839    6.7603   11.3833 H   0  0  0  0  0  0  0  0  0  0  0  0
   47.1586    7.4590   12.9304 H   0  0  0  0  0  0  0  0  0  0  0  0
   55.1391    6.7981   18.4019 H   0  0  0  0  0  0  0  0  0  0  0  0
   54.2558    8.2440   18.1174 H   0  0  0  0  0  0  0  0  0  0  0  0
   53.6815    7.1069   19.3579 H   0  0  0  0  0  0  0  0  0  0  0  0
   55.3844    4.7963   17.7897 H   0  0  0  0  0  0  0  0  0  0  0  0
   50.1948    2.5910   17.8303 H   0  0  0  0  0  0  0  0  0  0  0  0
   55.4120    2.4363   18.4465 H   0  0  0  0  0  0  0  0  0  0  0  0
   53.2832    1.1745   18.6433 H   0  0  0  0  0  0  0  0  0  0  0  0
   48.3180   12.6720   14.1062 H   0  0  0  0  0  0  0  0  0  0  0  0
   48.8746   11.3562   13.1231 H   0  0  0  0  0  0  0  0  0  0  0  0
   50.0566   12.5124   13.8052 H   0  0  0  0  0  0  0  0  0  0  0  0
   49.3039   11.4916   17.3196 H   0  0  0  0  0  0  0  0  0  0  0  0
   50.3339   12.5681   16.3453 H   0  0  0  0  0  0  0  0  0  0  0  0
   48.5728   12.7664   16.3820 H   0  0  0  0  0  0  0  0  0  0  0  0
  2  5  2  0
  3  1  1  0
  4  7  1  0
  5  1  1  0
  6  2  1  0
  7  1  1  0
  8  4  2  0
  9  2  1  0
 10  6  1  0
  3 11  1  0
 12  3  1  0
 13  9  1  0
 14 13  2  0
 15  4  1  0
 16  8  1  0
 11 17  1  0
 18  7  2  0
 19  9  2  0
 20 13  1  0
  1 21  1  1
 22 15  2  0
 23  5  1  0
 10 24  1  6
 12 25  1  0
 26 15  1  0
 10 27  1  0
 28 14  1  0
 29 20  1  0
 30 31  1  0
 31 20  2  0
 32 17  1  0
 33 17  1  0
 12  6  1  0
 11  8  1  0
 10 14  1  0
 30 28  2  0
 35 38  2  0
 36 34  1  0
 37 40  1  0
 38 34  1  0
 39 35  1  0
 40 34  1  0
 41 37  2  0
 42 35  1  0
 43 39  1  0
 36 44  1  0
 45 36  1  0
 46 42  1  0
 47 46  2  0
 48 37  1  0
 49 41  1  0
 44 50  1  0
 51 40  2  0
 52 42  2  0
 53 46  1  0
 34 54  1  6
 55 48  2  0
 56 38  1  0
 43 57  1  1
 45 58  1  0
 59 48  1  0
 43 60  1  0
 61 47  1  0
 62 53  1  0
 63 64  1  0
 64 53  2  0
 65 50  1  0
 66 50  1  0
 45 39  1  0
 44 41  1  0
 43 47  1  0
 63 61  2  0
  3 68  1  1
  6 69  1  1
 11 70  1  6
 12 71  1  6
 21 72  1  0
 23 73  1  0
 24 74  1  0
 25 75  1  0
 26 76  1  0
 26 77  1  0
 27 78  1  0
 27 79  1  0
 27 80  1  0
 28 81  1  0
 29 82  1  0
 30 83  1  0
 31 84  1  0
 32 85  1  0
 32 86  1  0
 32 87  1  0
 33 88  1  0
 33 89  1  0
 33 90  1  0
 36 91  1  6
 39 92  1  6
 44 93  1  1
 45 94  1  1
 54 95  1  0
 56 96  1  0
 57 97  1  0
 58 98  1  0
 59 99  1  0
 59100  1  0
 60101  1  0
 60102  1  0
 60103  1  0
 61104  1  0
 62105  1  0
 63106  1  0
 64107  1  0
 65108  1  0
 65109  1  0
 65110  1  0
 66111  1  0
 66112  1  0
 66113  1  0
M  CHG  3  16  -1  49  -1  67   2
M  END
> <Uni-Dock RESULT> 
ENERGY=   -5.152  LOWER_BOUND=    5.448  UPPER_BOUND=    9.382
INTER + INTRA:          -5.152
INTER:                  -5.152
INTRA:                   0.000
UNBOUND:                 0.000

$$$$

     RDKit          3D

113118  0  0  0  0  0  0  0  0999 V2000
   54.4186    6.2563   17.1810 C   0  0  2  0  0  0  0  0  0  0  0  0
   52.0418    5.7220   17.8830 C   0  0  0  0  0  0  0  0  0  0  0  0
   53.8442    6.5057   15.7794 C   0  0  2  0  0  0  0  0  0  0  0  0
   55.0601    8.7884   17.0149 C   0  0  0  0  0  0  0  0  0  0  0  0
   53.3612    5.7565   18.1582 C   0  0  0  0  0  0  0  0  0  0  0  0
   51.4425    6.2556   16.6044 C   0  0  1  0  0  0  0  0  0  0  0  0
   55.1873    7.4860   17.7544 C   0  0  0  0  0  0  0  0  0  0  0  0
   54.8825    8.7346   15.6580 C   0  0  0  0  0  0  0  0  0  0  0  0
   51.1078    4.9862   18.7701 C   0  0  0  0  0  0  0  0  0  0  0  0
   50.0162    6.9086   16.7670 C   0  0  1  0  0  0  0  0  0  0  0  0
   54.8694    7.3428   14.9751 C   0  0  1  0  0  0  0  0  0  0  0  0
   52.4536    7.1916   15.9041 C   0  0  2  0  0  0  0  0  0  0  0  0
   49.7590    5.5478   18.9334 C   0  0  0  0  0  0  0  0  0  0  0  0
   49.2530    6.4831   18.0175 C   0  0  0  0  0  0  0  0  0  0  0  0
   55.0644   10.0795   17.7888 C   0  0  0  0  0  0  0  0  0  0  0  0
   54.6249    9.6427   14.8103 O   0  0  0  0  0  0  0  0  0  0  0  0
   56.2039    6.6597   14.9108 N   0  0  0  0  0  0  0  0  0  0  0  0
   55.9070    7.3743   18.7509 O   0  0  0  0  0  0  0  0  0  0  0  0
   51.3780    3.9234   19.3207 O   0  0  0  0  0  0  0  0  0  0  0  0
   48.9818    5.1448   20.0372 C   0  0  0  0  0  0  0  0  0  0  0  0
   55.3726    5.1668   17.1151 O   0  0  0  0  0  0  0  0  0  0  0  0
   55.5225   10.2110   18.9161 O   0  0  0  0  0  0  0  0  0  0  0  0
   53.8672    5.1981   19.3242 O   0  0  0  0  0  0  0  0  0  0  0  0
   50.1061    8.3357   16.8665 O   0  0  0  0  0  0  0  0  0  0  0  0
   51.9502    7.6001   14.6325 O   0  0  0  0  0  0  0  0  0  0  0  0
   54.4760   11.1334   17.1566 N   0  0  0  0  0  0  0  0  0  0  0  0
   49.1645    6.5811   15.5094 C   0  0  0  0  0  0  0  0  0  0  0  0
   47.9876    7.0529   18.2960 C   0  0  0  0  0  0  0  0  0  0  0  0
   49.3950    4.1997   20.9416 O   0  0  0  0  0  0  0  0  0  0  0  0
   47.2347    6.6687   19.4062 C   0  0  0  0  0  0  0  0  0  0  0  0
   47.7252    5.6971   20.2709 C   0  0  0  0  0  0  0  0  0  0  0  0
   57.2779    7.6063   14.5640 C   0  0  0  0  0  0  0  0  0  0  0  0
   56.1810    5.6160   13.8726 C   0  0  0  0  0  0  0  0  0  0  0  0
   53.2189    8.4773   16.1198 C   0  0  2  0  0  0  0  0  0  0  0  0
   51.2550    6.9134   16.4977 C   0  0  0  0  0  0  0  0  0  0  0  0
   53.8941    7.9364   17.3909 C   0  0  2  0  0  0  0  0  0  0  0  0
   55.0426    7.2543   14.7573 C   0  0  0  0  0  0  0  0  0  0  0  0
   51.9021    7.8204   15.7317 C   0  0  0  0  0  0  0  0  0  0  0  0
   51.7817    6.4779   17.8409 C   0  0  1  0  0  0  0  0  0  0  0  0
   54.1587    8.4474   14.8902 C   0  0  0  0  0  0  0  0  0  0  0  0
   55.6552    6.9031   15.9141 C   0  0  0  0  0  0  0  0  0  0  0  0
   49.9127    6.4489   16.0545 C   0  0  0  0  0  0  0  0  0  0  0  0
   51.2238    5.0930   18.3743 C   0  0  1  0  0  0  0  0  0  0  0  0
   55.4373    7.8291   17.1637 C   0  0  1  0  0  0  0  0  0  0  0  0
   53.3342    6.5751   17.8725 C   0  0  2  0  0  0  0  0  0  0  0  0
   49.2238    5.3721   16.7873 C   0  0  0  0  0  0  0  0  0  0  0  0
   49.8451    4.7002   17.8438 C   0  0  0  0  0  0  0  0  0  0  0  0
   55.2019    6.5904   13.4186 C   0  0  0  0  0  0  0  0  0  0  0  0
   56.4188    5.9423   16.2030 O   0  0  0  0  0  0  0  0  0  0  0  0
   56.0815    9.1773   16.9911 N   0  0  0  0  0  0  0  0  0  0  0  0
   54.1318    9.3389   14.0290 O   0  0  0  0  0  0  0  0  0  0  0  0
   49.3563    6.9421   15.0688 O   0  0  0  0  0  0  0  0  0  0  0  0
   47.9323    4.9793   16.3664 C   0  0  0  0  0  0  0  0  0  0  0  0
   52.8573    9.8568   16.3804 O   0  0  0  0  0  0  0  0  0  0  0  0
   55.5995    5.4516   13.1956 O   0  0  0  0  0  0  0  0  0  0  0  0
   51.3749    8.3146   14.5390 O   0  0  0  0  0  0  0  0  0  0  0  0
   52.0384    3.9575   18.0720 O   0  0  0  0  0  0  0  0  0  0  0  0
   53.7904    6.3344   19.2089 O   0  0  0  0  0  0  0  0  0  0  0  0
   54.8528    7.3690   12.3487 N   0  0  0  0  0  0  0  0  0  0  0  0
   51.1385    5.1683   19.9266 C   0  0  0  0  0  0  0  0  0  0  0  0
   49.1735    3.5731   18.3867 C   0  0  0  0  0  0  0  0  0  0  0  0
   47.2395    5.6047   15.3602 O   0  0  0  0  0  0  0  0  0  0  0  0
   47.9035    3.1860   17.9573 C   0  0  0  0  0  0  0  0  0  0  0  0
   47.2733    3.9068   16.9578 C   0  0  0  0  0  0  0  0  0  0  0  0
   57.4942    9.0254   16.5837 C   0  0  0  0  0  0  0  0  0  0  0  0
   56.0587    9.9376   18.2453 C   0  0  0  0  0  0  0  0  0  0  0  0
   52.7241    6.8398   16.7965 Ca  0  0  0  0  0 15  0  0  0  0  0  0
   53.7002    5.5533   15.2523 H   0  0  0  0  0  0  0  0  0  0  0  0
   51.3135    5.3693   15.9651 H   0  0  0  0  0  0  0  0  0  0  0  0
   54.4918    7.4328   13.9443 H   0  0  0  0  0  0  0  0  0  0  0  0
   52.5306    8.1018   16.5120 H   0  0  0  0  0  0  0  0  0  0  0  0
   56.0539    5.4939   16.4872 H   0  0  0  0  0  0  0  0  0  0  0  0
   54.8031    4.9865   19.1232 H   0  0  0  0  0  0  0  0  0  0  0  0
   50.4669    8.6601   16.0162 H   0  0  0  0  0  0  0  0  0  0  0  0
   52.5866    8.2821   14.2997 H   0  0  0  0  0  0  0  0  0  0  0  0
   54.5820   12.0566   17.5299 H   0  0  0  0  0  0  0  0  0  0  0  0
   54.3346   11.0053   16.1421 H   0  0  0  0  0  0  0  0  0  0  0  0
   49.4872    7.1632   14.6424 H   0  0  0  0  0  0  0  0  0  0  0  0
   48.1071    6.8113   15.6484 H   0  0  0  0  0  0  0  0  0  0  0  0
   49.2225    5.5186   15.2575 H   0  0  0  0  0  0  0  0  0  0  0  0
   47.5924    7.8306   17.6404 H   0  0  0  0  0  0  0  0  0  0  0  0
   50.2704    3.8625   20.6326 H   0  0  0  0  0  0  0  0  0  0  0  0
   46.2745    7.1339   19.5973 H   0  0  0  0  0  0  0  0  0  0  0  0
   47.1457    5.3856   21.1338 H   0  0  0  0  0  0  0  0  0  0  0  0
   57.4423    8.3363   15.3632 H   0  0  0  0  0  0  0  0  0  0  0  0
   57.0838    8.1351   13.6247 H   0  0  0  0  0  0  0  0  0  0  0  0
   58.2308    7.0750   14.4635 H   0  0  0  0  0  0  0  0  0  0  0  0
   55.9405    6.0218   12.8803 H   0  0  0  0  0  0  0  0  0  0  0  0
   57.1565    5.1159   13.8033 H   0  0  0  0  0  0  0  0  0  0  0  0
   55.4551    4.8296   14.1079 H   0  0  0  0  0  0  0  0  0  0  0  0
   53.7086    8.6421   18.2107 H   0  0  0  0  0  0  0  0  0  0  0  0
   51.3939    7.2346   18.5381 H   0  0  0  0  0  0  0  0  0  0  0  0
   55.8785    7.3629   18.0595 H   0  0  0  0  0  0  0  0  0  0  0  0
   53.7416    5.7721   17.2564 H   0  0  0  0  0  0  0  0  0  0  0  0
   52.8340   10.2663   15.4848 H   0  0  0  0  0  0  0  0  0  0  0  0
   50.4926    7.9112   14.3866 H   0  0  0  0  0  0  0  0  0  0  0  0
   52.6546    4.1536   17.3413 H   0  0  0  0  0  0  0  0  0  0  0  0
   53.9135    7.1858   19.6669 H   0  0  0  0  0  0  0  0  0  0  0  0
   55.1063    7.0381   11.4293 H   0  0  0  0  0  0  0  0  0  0  0  0
   54.6608    8.3578   12.4889 H   0  0  0  0  0  0  0  0  0  0  0  0
   50.8229    4.2216   20.3772 H   0  0  0  0  0  0  0  0  0  0  0  0
   52.1072    5.3629   20.3883 H   0  0  0  0  0  0  0  0  0  0  0  0
   50.4321    5.9437   20.2526 H   0  0  0  0  0  0  0  0  0  0  0  0
   49.6651    2.9632   19.1452 H   0  0  0  0  0  0  0  0  0  0  0  0
   47.8435    6.2661   14.9536 H   0  0  0  0  0  0  0  0  0  0  0  0
   47.4230    2.3182   18.3975 H   0  0  0  0  0  0  0  0  0  0  0  0
   46.2853    3.6158   16.6129 H   0  0  0  0  0  0  0  0  0  0  0  0
   57.9718   10.0069   16.5162 H   0  0  0  0  0  0  0  0  0  0  0  0
   57.5850    8.5985   15.5809 H   0  0  0  0  0  0  0  0  0  0  0  0
   58.0685    8.4177   17.2935 H   0  0  0  0  0  0  0  0  0  0  0  0
   55.0414   10.2252   18.5301 H   0  0  0  0  0  0  0  0  0  0  0  0
   56.5089    9.3781   19.0760 H   0  0  0  0  0  0  0  0  0  0  0  0
   56.6090   10.8796   18.1392 H   0  0  0  0  0  0  0  0  0  0  0  0
  2  5  2  0
  3  1  1  0
  4  7  1  0
  5  1  1  0
  6  2  1  0
  7  1  1  0
  8  4  2  0
  9  2  1  0
 10  6  1  0
  3 11  1  0
 12  3  1  0
 13  9  1  0
 14 13  2  0
 15  4  1  0
 16  8  1  0
 11 17  1  0
 18  7  2  0
 19  9  2  0
 20 13  1  0
  1 21  1  1
 22 15  2  0
 23  5  1  0
 10 24  1  6
 12 25  1  0
 26 15  1  0
 10 27  1  0
 28 14  1  0
 29 20  1  0
 30 31  1  0
 31 20  2  0
 32 17  1  0
 33 17  1  0
 12  6  1  0
 11  8  1  0
 10 14  1  0
 30 28  2  0
 35 38  2  0
 36 34  1  0
 37 40  1  0
 38 34  1  0
 39 35  1  0
 40 34  1  0
 41 37  2  0
 42 35  1  0
 43 39  1  0
 36 44  1  0
 45 36  1  0
 46 42  1  0
 47 46  2  0
 48 37  1  0
 49 41  1  0
 44 50  1  0
 51 40  2  0
 52 42  2  0
 53 46  1  0
 34 54  1  6
 55 48  2  0
 56 38  1  0
 43 57  1  1
 45 58  1  0
 59 48  1  0
 43 60  1  0
 61 47  1  0
 62 53  1  0
 63 64  1  0
 64 53  2  0
 65 50  1  0
 66 50  1  0
 45 39  1  0
 44 41  1  0
 43 47  1  0
 63 61  2  0
  3 68  1  1
  6 69  1  1
 11 70  1  6
 12 71  1  6
 21 72  1  0
 23 73  1  0
 24 74  1  0
 25 75  1  0
 26 76  1  0
 26 77  1  0
 27 78  1  0
 27 79  1  0
 27 80  1  0
 28 81  1  0
 29 82  1  0
 30 83  1  0
 31 84  1  0
 32 85  1  0
 32 86  1  0
 32 87  1  0
 33 88  1  0
 33 89  1  0
 33 90  1  0
 36 91  1  6
 39 92  1  6
 44 93  1  1
 45 94  1  1
 54 95  1  0
 56 96  1  0
 57 97  1  0
 58 98  1  0
 59 99  1  0
 59100  1  0
 60101  1  0
 60102  1  0
 60103  1  0
 61104  1  0
 62105  1  0
 63106  1  0
 64107  1  0
 65108  1  0
 65109  1  0
 65110  1  0
 66111  1  0
 66112  1  0
 66113  1  0
M  CHG  3  16  -1  49  -1  67   2
M  END
> <Uni-Dock RESULT> 
ENERGY=   -4.997  LOWER_BOUND=    8.213  UPPER_BOUND=   11.698
INTER + INTRA:          -4.997
INTER:                  -4.997
INTRA:                   0.000
UNBOUND:                 0.000

$$$$

     RDKit          3D

113118  0  0  0  0  0  0  0  0999 V2000
   54.4186    6.2563   17.1810 C   0  0  2  0  0  0  0  0  0  0  0  0
   52.0418    5.7220   17.8830 C   0  0  0  0  0  0  0  0  0  0  0  0
   53.8442    6.5058   15.7794 C   0  0  2  0  0  0  0  0  0  0  0  0
   55.0601    8.7884   17.0149 C   0  0  0  0  0  0  0  0  0  0  0  0
   53.3612    5.7565   18.1582 C   0  0  0  0  0  0  0  0  0  0  0  0
   51.4425    6.2556   16.6044 C   0  0  1  0  0  0  0  0  0  0  0  0
   55.1873    7.4860   17.7544 C   0  0  0  0  0  0  0  0  0  0  0  0
   54.8825    8.7346   15.6580 C   0  0  0  0  0  0  0  0  0  0  0  0
   51.1078    4.9862   18.7701 C   0  0  0  0  0  0  0  0  0  0  0  0
   50.0162    6.9086   16.7670 C   0  0  1  0  0  0  0  0  0  0  0  0
   54.8693    7.3428   14.9751 C   0  0  1  0  0  0  0  0  0  0  0  0
   52.4535    7.1916   15.9041 C   0  0  2  0  0  0  0  0  0  0  0  0
   49.7590    5.5478   18.9334 C   0  0  0  0  0  0  0  0  0  0  0  0
   49.2530    6.4831   18.0175 C   0  0  0  0  0  0  0  0  0  0  0  0
   55.0644   10.0795   17.7888 C   0  0  0  0  0  0  0  0  0  0  0  0
   54.6249    9.6427   14.8103 O   0  0  0  0  0  0  0  0  0  0  0  0
   56.2039    6.6598   14.9108 N   0  0  0  0  0  0  0  0  0  0  0  0
   55.9070    7.3743   18.7508 O   0  0  0  0  0  0  0  0  0  0  0  0
   51.3780    3.9234   19.3207 O   0  0  0  0  0  0  0  0  0  0  0  0
   48.9818    5.1448   20.0372 C   0  0  0  0  0  0  0  0  0  0  0  0
   55.3727    5.1668   17.1150 O   0  0  0  0  0  0  0  0  0  0  0  0
   55.5225   10.2110   18.9161 O   0  0  0  0  0  0  0  0  0  0  0  0
   53.8672    5.1981   19.3242 O   0  0  0  0  0  0  0  0  0  0  0  0
   50.1061    8.3357   16.8665 O   0  0  0  0  0  0  0  0  0  0  0  0
   51.9501    7.6001   14.6325 O   0  0  0  0  0  0  0  0  0  0  0  0
   54.4760   11.1334   17.1566 N   0  0  0  0  0  0  0  0  0  0  0  0
   49.1645    6.5811   15.5094 C   0  0  0  0  0  0  0  0  0  0  0  0
   47.9876    7.0529   18.2960 C   0  0  0  0  0  0  0  0  0  0  0  0
   49.3950    4.1997   20.9416 O   0  0  0  0  0  0  0  0  0  0  0  0
   47.2347    6.6687   19.4062 C   0  0  0  0  0  0  0  0  0  0  0  0
   47.7252    5.6971   20.2709 C   0  0  0  0  0  0  0  0  0  0  0  0
   57.2779    7.6063   14.5640 C   0  0  0  0  0  0  0  0  0  0  0  0
   56.1810    5.6161   13.8726 C   0  0  0  0  0  0  0  0  0  0  0  0
   53.2189    8.4773   16.1198 C   0  0  2  0  0  0  0  0  0  0  0  0
   51.2550    6.9134   16.4977 C   0  0  0  0  0  0  0  0  0  0  0  0
   53.8941    7.9364   17.3908 C   0  0  2  0  0  0  0  0  0  0  0  0
   55.0426    7.2544   14.7573 C   0  0  0  0  0  0  0  0  0  0  0  0
   51.9021    7.8204   15.7317 C   0  0  0  0  0  0  0  0  0  0  0  0
   51.7817    6.4779   17.8409 C   0  0  1  0  0  0  0  0  0  0  0  0
   54.1586    8.4474   14.8902 C   0  0  0  0  0  0  0  0  0  0  0  0
   55.6552    6.9031   15.9141 C   0  0  0  0  0  0  0  0  0  0  0  0
   49.9127    6.4489   16.0545 C   0  0  0  0  0  0  0  0  0  0  0  0
   51.2239    5.0930   18.3743 C   0  0  1  0  0  0  0  0  0  0  0  0
   55.4373    7.8291   17.1637 C   0  0  1  0  0  0  0  0  0  0  0  0
   53.3342    6.5751   17.8725 C   0  0  2  0  0  0  0  0  0  0  0  0
   49.2238    5.3721   16.7872 C   0  0  0  0  0  0  0  0  0  0  0  0
   49.8451    4.7002   17.8438 C   0  0  0  0  0  0  0  0  0  0  0  0
   55.2018    6.5904   13.4186 C   0  0  0  0  0  0  0  0  0  0  0  0
   56.4188    5.9423   16.2030 O   0  0  0  0  0  0  0  0  0  0  0  0
   56.0815    9.1774   16.9911 N   0  0  0  0  0  0  0  0  0  0  0  0
   54.1318    9.3389   14.0290 O   0  0  0  0  0  0  0  0  0  0  0  0
   49.3563    6.9421   15.0688 O   0  0  0  0  0  0  0  0  0  0  0  0
   47.9323    4.9793   16.3664 C   0  0  0  0  0  0  0  0  0  0  0  0
   52.8573    9.8568   16.3804 O   0  0  0  0  0  0  0  0  0  0  0  0
   55.5995    5.4516   13.1956 O   0  0  0  0  0  0  0  0  0  0  0  0
   51.3749    8.3146   14.5390 O   0  0  0  0  0  0  0  0  0  0  0  0
   52.0384    3.9575   18.0720 O   0  0  0  0  0  0  0  0  0  0  0  0
   53.7904    6.3344   19.2089 O   0  0  0  0  0  0  0  0  0  0  0  0
   54.8528    7.3690   12.3487 N   0  0  0  0  0  0  0  0  0  0  0  0
   51.1386    5.1683   19.9266 C   0  0  0  0  0  0  0  0  0  0  0  0
   49.1736    3.5731   18.3867 C   0  0  0  0  0  0  0  0  0  0  0  0
   47.2395    5.6047   15.3602 O   0  0  0  0  0  0  0  0  0  0  0  0
   47.9035    3.1859   17.9573 C   0  0  0  0  0  0  0  0  0  0  0  0
   47.2733    3.9068   16.9578 C   0  0  0  0  0  0  0  0  0  0  0  0
   57.4942    9.0254   16.5837 C   0  0  0  0  0  0  0  0  0  0  0  0
   56.0587    9.9376   18.2453 C   0  0  0  0  0  0  0  0  0  0  0  0
   52.7241    6.8398   16.7965 Ca  0  0  0  0  0 15  0  0  0  0  0  0
   53.7002    5.5533   15.2523 H   0  0  0  0  0  0  0  0  0  0  0  0
   51.3135    5.3693   15.9651 H   0  0  0  0  0  0  0  0  0  0  0  0
   54.4918    7.4329   13.9443 H   0  0  0  0  0  0  0  0  0  0  0  0
   52.5306    8.1018   16.5120 H   0  0  0  0  0  0  0  0  0  0  0  0
   56.0539    5.4939   16.4872 H   0  0  0  0  0  0  0  0  0  0  0  0
   54.8031    4.9866   19.1232 H   0  0  0  0  0  0  0  0  0  0  0  0
   50.4669    8.6601   16.0162 H   0  0  0  0  0  0  0  0  0  0  0  0
   52.5866    8.2821   14.2997 H   0  0  0  0  0  0  0  0  0  0  0  0
   54.5820   12.0567   17.5299 H   0  0  0  0  0  0  0  0  0  0  0  0
   54.3345   11.0053   16.1421 H   0  0  0  0  0  0  0  0  0  0  0  0
   49.4872    7.1632   14.6424 H   0  0  0  0  0  0  0  0  0  0  0  0
   48.1071    6.8113   15.6484 H   0  0  0  0  0  0  0  0  0  0  0  0
   49.2225    5.5186   15.2575 H   0  0  0  0  0  0  0  0  0  0  0  0
   47.5924    7.8306   17.6404 H   0  0  0  0  0  0  0  0  0  0  0  0
   50.2704    3.8625   20.6326 H   0  0  0  0  0  0  0  0  0  0  0  0
   46.2745    7.1339   19.5974 H   0  0  0  0  0  0  0  0  0  0  0  0
   47.1457    5.3856   21.1338 H   0  0  0  0  0  0  0  0  0  0  0  0
   57.4423    8.3363   15.3632 H   0  0  0  0  0  0  0  0  0  0  0  0
   57.0838    8.1351   13.6246 H   0  0  0  0  0  0  0  0  0  0  0  0
   58.2308    7.0751   14.4635 H   0  0  0  0  0  0  0  0  0  0  0  0
   55.9405    6.0219   12.8803 H   0  0  0  0  0  0  0  0  0  0  0  0
   57.1565    5.1160   13.8032 H   0  0  0  0  0  0  0  0  0  0  0  0
   55.4551    4.8296   14.1079 H   0  0  0  0  0  0  0  0  0  0  0  0
   53.7086    8.6421   18.2107 H   0  0  0  0  0  0  0  0  0  0  0  0
   51.3939    7.2346   18.5381 H   0  0  0  0  0  0  0  0  0  0  0  0
   55.8785    7.3629   18.0595 H   0  0  0  0  0  0  0  0  0  0  0  0
   53.7416    5.7721   17.2563 H   0  0  0  0  0  0  0  0  0  0  0  0
   52.8340   10.2663   15.4848 H   0  0  0  0  0  0  0  0  0  0  0  0
   50.4926    7.9113   14.3866 H   0  0  0  0  0  0  0  0  0  0  0  0
   52.6546    4.1537   17.3412 H   0  0  0  0  0  0  0  0  0  0  0  0
   53.9135    7.1858   19.6669 H   0  0  0  0  0  0  0  0  0  0  0  0
   55.1063    7.0381   11.4293 H   0  0  0  0  0  0  0  0  0  0  0  0
   54.6608    8.3578   12.4889 H   0  0  0  0  0  0  0  0  0  0  0  0
   50.8229    4.2216   20.3772 H   0  0  0  0  0  0  0  0  0  0  0  0
   52.1072    5.3629   20.3882 H   0  0  0  0  0  0  0  0  0  0  0  0
   50.4322    5.9436   20.2526 H   0  0  0  0  0  0  0  0  0  0  0  0
   49.6651    2.9632   19.1452 H   0  0  0  0  0  0  0  0  0  0  0  0
   47.8435    6.2661   14.9536 H   0  0  0  0  0  0  0  0  0  0  0  0
   47.4230    2.3182   18.3975 H   0  0  0  0  0  0  0  0  0  0  0  0
   46.2853    3.6157   16.6129 H   0  0  0  0  0  0  0  0  0  0  0  0
   57.9718   10.0069   16.5162 H   0  0  0  0  0  0  0  0  0  0  0  0
   57.5850    8.5986   15.5809 H   0  0  0  0  0  0  0  0  0  0  0  0
   58.0685    8.4178   17.2935 H   0  0  0  0  0  0  0  0  0  0  0  0
   55.0414   10.2252   18.5301 H   0  0  0  0  0  0  0  0  0  0  0  0
   56.5089    9.3781   19.0760 H   0  0  0  0  0  0  0  0  0  0  0  0
   56.6090   10.8796   18.1392 H   0  0  0  0  0  0  0  0  0  0  0  0
  2  5  2  0
  3  1  1  0
  4  7  1  0
  5  1  1  0
  6  2  1  0
  7  1  1  0
  8  4  2  0
  9  2  1  0
 10  6  1  0
  3 11  1  0
 12  3  1  0
 13  9  1  0
 14 13  2  0
 15  4  1  0
 16  8  1  0
 11 17  1  0
 18  7  2  0
 19  9  2  0
 20 13  1  0
  1 21  1  1
 22 15  2  0
 23  5  1  0
 10 24  1  6
 12 25  1  0
 26 15  1  0
 10 27  1  0
 28 14  1  0
 29 20  1  0
 30 31  1  0
 31 20  2  0
 32 17  1  0
 33 17  1  0
 12  6  1  0
 11  8  1  0
 10 14  1  0
 30 28  2  0
 35 38  2  0
 36 34  1  0
 37 40  1  0
 38 34  1  0
 39 35  1  0
 40 34  1  0
 41 37  2  0
 42 35  1  0
 43 39  1  0
 36 44  1  0
 45 36  1  0
 46 42  1  0
 47 46  2  0
 48 37  1  0
 49 41  1  0
 44 50  1  0
 51 40  2  0
 52 42  2  0
 53 46  1  0
 34 54  1  6
 55 48  2  0
 56 38  1  0
 43 57  1  1
 45 58  1  0
 59 48  1  0
 43 60  1  0
 61 47  1  0
 62 53  1  0
 63 64  1  0
 64 53  2  0
 65 50  1  0
 66 50  1  0
 45 39  1  0
 44 41  1  0
 43 47  1  0
 63 61  2  0
  3 68  1  1
  6 69  1  1
 11 70  1  6
 12 71  1  6
 21 72  1  0
 23 73  1  0
 24 74  1  0
 25 75  1  0
 26 76  1  0
 26 77  1  0
 27 78  1  0
 27 79  1  0
 27 80  1  0
 28 81  1  0
 29 82  1  0
 30 83  1  0
 31 84  1  0
 32 85  1  0
 32 86  1  0
 32 87  1  0
 33 88  1  0
 33 89  1  0
 33 90  1  0
 36 91  1  6
 39 92  1  6
 44 93  1  1
 45 94  1  1
 54 95  1  0
 56 96  1  0
 57 97  1  0
 58 98  1  0
 59 99  1  0
 59100  1  0
 60101  1  0
 60102  1  0
 60103  1  0
 61104  1  0
 62105  1  0
 63106  1  0
 64107  1  0
 65108  1  0
 65109  1  0
 65110  1  0
 66111  1  0
 66112  1  0
 66113  1  0
M  CHG  3  16  -1  49  -1  67   2
M  END
> <Uni-Dock RESULT> 
ENERGY=   -4.997  LOWER_BOUND=    8.213  UPPER_BOUND=   11.698
INTER + INTRA:          -4.997
INTER:                  -4.997
INTRA:                   0.000
UNBOUND:                 0.000

$$$$

     RDKit          3D

113118  0  0  0  0  0  0  0  0999 V2000
   52.6371    8.7282   15.4730 C   0  0  2  0  0  0  0  0  0  0  0  0
   50.8902    7.1518   16.4167 C   0  0  0  0  0  0  0  0  0  0  0  0
   53.3836    8.5386   16.8009 C   0  0  2  0  0  0  0  0  0  0  0  0
   54.7973    7.6371   14.4762 C   0  0  0  0  0  0  0  0  0  0  0  0
   51.2927    8.0103   15.4583 C   0  0  0  0  0  0  0  0  0  0  0  0
   51.7588    6.7308   17.5773 C   0  0  1  0  0  0  0  0  0  0  0  0
   53.4975    8.3501   14.2285 C   0  0  0  0  0  0  0  0  0  0  0  0
   55.4631    7.9145   15.6404 C   0  0  0  0  0  0  0  0  0  0  0  0
   49.4793    6.6973   16.4745 C   0  0  0  0  0  0  0  0  0  0  0  0
   51.5524    5.2399   18.0484 C   0  0  1  0  0  0  0  0  0  0  0  0
   54.8563    8.9724   16.5976 C   0  0  1  0  0  0  0  0  0  0  0  0
   53.2368    7.0632   17.2715 C   0  0  2  0  0  0  0  0  0  0  0  0
   49.2388    5.3202   16.9296 C   0  0  0  0  0  0  0  0  0  0  0  0
   50.2241    4.6132   17.6360 C   0  0  0  0  0  0  0  0  0  0  0  0
   55.2766    6.6114   13.4842 C   0  0  0  0  0  0  0  0  0  0  0  0
   56.4908    7.3859   16.1639 O   0  0  0  0  0  0  0  0  0  0  0  0
   54.9477   10.3888   16.1107 N   0  0  0  0  0  0  0  0  0  0  0  0
   53.1399    8.6689   13.0911 O   0  0  0  0  0  0  0  0  0  0  0  0
   48.5163    7.4142   16.2205 O   0  0  0  0  0  0  0  0  0  0  0  0
   48.0047    4.7094   16.6316 C   0  0  0  0  0  0  0  0  0  0  0  0
   52.2853   10.1265   15.3226 O   0  0  0  0  0  0  0  0  0  0  0  0
   54.9114    6.5510   12.3176 O   0  0  0  0  0  0  0  0  0  0  0  0
   50.4330    8.4104   14.4442 O   0  0  0  0  0  0  0  0  0  0  0  0
   52.5493    4.3752   17.4889 O   0  0  0  0  0  0  0  0  0  0  0  0
   54.0511    6.7889   18.4112 O   0  0  0  0  0  0  0  0  0  0  0  0
   56.1507    5.6919   13.9813 N   0  0  0  0  0  0  0  0  0  0  0  0
   51.6928    5.1749   19.5945 C   0  0  0  0  0  0  0  0  0  0  0  0
   49.9575    3.2598   17.9532 C   0  0  0  0  0  0  0  0  0  0  0  0
   46.9814    5.3585   15.9887 O   0  0  0  0  0  0  0  0  0  0  0  0
   48.7430    2.6529   17.6309 C   0  0  0  0  0  0  0  0  0  0  0  0
   47.7549    3.3856   16.9838 C   0  0  0  0  0  0  0  0  0  0  0  0
   56.2567   10.6634   15.4934 C   0  0  0  0  0  0  0  0  0  0  0  0
   54.7884   11.3170   17.2424 C   0  0  0  0  0  0  0  0  0  0  0  0
   54.3404    6.7454   16.2885 C   0  0  2  0  0  0  0  0  0  0  0  0
   52.2126    6.2081   17.5649 C   0  0  0  0  0  0  0  0  0  0  0  0
   53.5018    7.2281   15.0937 C   0  0  2  0  0  0  0  0  0  0  0  0
   54.9881    9.2136   16.6962 C   0  0  0  0  0  0  0  0  0  0  0  0
   53.5599    6.3133   17.5214 C   0  0  0  0  0  0  0  0  0  0  0  0
   51.3476    6.4968   16.3650 C   0  0  1  0  0  0  0  0  0  0  0  0
   55.4039    7.7822   16.7244 C   0  0  0  0  0  0  0  0  0  0  0  0
   54.3246    9.5624   15.5671 C   0  0  0  0  0  0  0  0  0  0  0  0
   51.5904    5.6510   18.7962 C   0  0  0  0  0  0  0  0  0  0  0  0
   49.8289    6.8223   16.6834 C   0  0  1  0  0  0  0  0  0  0  0  0
   54.1815    8.4763   14.4418 C   0  0  1  0  0  0  0  0  0  0  0  0
   52.0287    7.5514   15.4460 C   0  0  2  0  0  0  0  0  0  0  0  0
   50.1241    5.6321   18.9402 C   0  0  0  0  0  0  0  0  0  0  0  0
   49.2929    6.2174   17.9809 C   0  0  0  0  0  0  0  0  0  0  0  0
   55.3454   10.1160   17.8437 C   0  0  0  0  0  0  0  0  0  0  0  0
   53.7843   10.6440   15.2096 O   0  0  0  0  0  0  0  0  0  0  0  0
   55.5027    8.1375   13.8076 N   0  0  0  0  0  0  0  0  0  0  0  0
   56.5211    7.4351   17.1349 O   0  0  0  0  0  0  0  0  0  0  0  0
   52.2800    5.2063   19.7188 O   0  0  0  0  0  0  0  0  0  0  0  0
   49.5607    5.0603   20.1043 C   0  0  0  0  0  0  0  0  0  0  0  0
   55.0280    5.5395   15.8704 O   0  0  0  0  0  0  0  0  0  0  0  0
   54.8225   11.1854   18.1397 O   0  0  0  0  0  0  0  0  0  0  0  0
   54.3805    5.9458   18.5874 O   0  0  0  0  0  0  0  0  0  0  0  0
   49.5229    8.2134   16.8074 O   0  0  0  0  0  0  0  0  0  0  0  0
   51.2778    7.6676   14.2317 O   0  0  0  0  0  0  0  0  0  0  0  0
   56.3707    9.6640   18.6291 N   0  0  0  0  0  0  0  0  0  0  0  0
   48.9599    6.2873   15.5082 C   0  0  0  0  0  0  0  0  0  0  0  0
   47.9064    6.2949   18.2771 C   0  0  0  0  0  0  0  0  0  0  0  0
   50.3010    4.4388   21.0785 O   0  0  0  0  0  0  0  0  0  0  0  0
   47.3607    5.7374   19.4342 C   0  0  0  0  0  0  0  0  0  0  0  0
   48.1906    5.0990   20.3394 C   0  0  0  0  0  0  0  0  0  0  0  0
   56.2006    9.3687   13.3813 C   0  0  0  0  0  0  0  0  0  0  0  0
   55.3178    7.2963   12.6203 C   0  0  0  0  0  0  0  0  0  0  0  0
   52.5853    7.2371   16.5375 Ca  0  0  0  0  0 15  0  0  0  0  0  0
   52.9478    9.1812   17.5773 H   0  0  0  0  0  0  0  0  0  0  0  0
   51.4404    7.3732   18.4121 H   0  0  0  0  0  0  0  0  0  0  0  0
   55.3570    8.9246   17.5775 H   0  0  0  0  0  0  0  0  0  0  0  0
   53.5691    6.3767   16.4827 H   0  0  0  0  0  0  0  0  0  0  0  0
   53.1541   10.5853   15.3291 H   0  0  0  0  0  0  0  0  0  0  0  0
   50.7770    9.2773   14.1423 H   0  0  0  0  0  0  0  0  0  0  0  0
   53.4133    4.6645   17.8467 H   0  0  0  0  0  0  0  0  0  0  0  0
   54.9859    6.9098   18.1070 H   0  0  0  0  0  0  0  0  0  0  0  0
   56.6383    5.0824   13.3538 H   0  0  0  0  0  0  0  0  0  0  0  0
   56.5824    5.9486   14.8832 H   0  0  0  0  0  0  0  0  0  0  0  0
   52.7347    5.2782   19.9084 H   0  0  0  0  0  0  0  0  0  0  0  0
   51.3483    4.2251   20.0065 H   0  0  0  0  0  0  0  0  0  0  0  0
   51.1031    5.9579   20.0790 H   0  0  0  0  0  0  0  0  0  0  0  0
   50.7265    2.6614   18.4444 H   0  0  0  0  0  0  0  0  0  0  0  0
   47.2730    6.2907   15.8420 H   0  0  0  0  0  0  0  0  0  0  0  0
   48.5756    1.6107   17.8772 H   0  0  0  0  0  0  0  0  0  0  0  0
   46.8040    2.9262   16.7341 H   0  0  0  0  0  0  0  0  0  0  0  0
   56.3865   10.1017   14.5626 H   0  0  0  0  0  0  0  0  0  0  0  0
   57.0922   10.4459   16.1673 H   0  0  0  0  0  0  0  0  0  0  0  0
   56.3222   11.7172   15.2011 H   0  0  0  0  0  0  0  0  0  0  0  0
   55.5477   11.1583   18.0205 H   0  0  0  0  0  0  0  0  0  0  0  0
   54.8674   12.3590   16.9041 H   0  0  0  0  0  0  0  0  0  0  0  0
   53.7986   11.2241   17.7035 H   0  0  0  0  0  0  0  0  0  0  0  0
   53.4606    6.4226   14.3493 H   0  0  0  0  0  0  0  0  0  0  0  0
   51.3307    5.5462   15.8128 H   0  0  0  0  0  0  0  0  0  0  0  0
   53.5157    8.8451   13.6448 H   0  0  0  0  0  0  0  0  0  0  0  0
   51.9741    8.5234   15.9387 H   0  0  0  0  0  0  0  0  0  0  0  0
   55.8228    5.5092   16.4515 H   0  0  0  0  0  0  0  0  0  0  0  0
   53.8222    5.6036   19.3192 H   0  0  0  0  0  0  0  0  0  0  0  0
   50.3308    8.7362   16.9695 H   0  0  0  0  0  0  0  0  0  0  0  0
   51.6726    7.0928   13.5510 H   0  0  0  0  0  0  0  0  0  0  0  0
   56.7636   10.3090   19.2989 H   0  0  0  0  0  0  0  0  0  0  0  0
   56.9174    8.8611   18.3280 H   0  0  0  0  0  0  0  0  0  0  0  0
   47.8993    6.5338   15.6227 H   0  0  0  0  0  0  0  0  0  0  0  0
   49.2276    6.7393   14.5525 H   0  0  0  0  0  0  0  0  0  0  0  0
   49.0395    5.1958   15.4147 H   0  0  0  0  0  0  0  0  0  0  0  0
   47.2372    6.8287   17.6018 H   0  0  0  0  0  0  0  0  0  0  0  0
   51.2502    4.5695   20.8557 H   0  0  0  0  0  0  0  0  0  0  0  0
   46.2953    5.8174   19.6247 H   0  0  0  0  0  0  0  0  0  0  0  0
   47.7795    4.6619   21.2449 H   0  0  0  0  0  0  0  0  0  0  0  0
   57.1327    9.1125   12.8698 H   0  0  0  0  0  0  0  0  0  0  0  0
   56.5068    9.9794   14.2353 H   0  0  0  0  0  0  0  0  0  0  0  0
   55.5945    9.9745   12.6968 H   0  0  0  0  0  0  0  0  0  0  0  0
   54.9471    6.2993   12.8798 H   0  0  0  0  0  0  0  0  0  0  0  0
   54.6265    7.7485   11.8968 H   0  0  0  0  0  0  0  0  0  0  0  0
   56.2733    7.1283   12.1101 H   0  0  0  0  0  0  0  0  0  0  0  0
  2  5  2  0
  3  1  1  0
  4  7  1  0
  5  1  1  0
  6  2  1  0
  7  1  1  0
  8  4  2  0
  9  2  1  0
 10  6  1  0
  3 11  1  0
 12  3  1  0
 13  9  1  0
 14 13  2  0
 15  4  1  0
 16  8  1  0
 11 17  1  0
 18  7  2  0
 19  9  2  0
 20 13  1  0
  1 21  1  1
 22 15  2  0
 23  5  1  0
 10 24  1  6
 12 25  1  0
 26 15  1  0
 10 27  1  0
 28 14  1  0
 29 20  1  0
 30 31  1  0
 31 20  2  0
 32 17  1  0
 33 17  1  0
 12  6  1  0
 11  8  1  0
 10 14  1  0
 30 28  2  0
 35 38  2  0
 36 34  1  0
 37 40  1  0
 38 34  1  0
 39 35  1  0
 40 34  1  0
 41 37  2  0
 42 35  1  0
 43 39  1  0
 36 44  1  0
 45 36  1  0
 46 42  1  0
 47 46  2  0
 48 37  1  0
 49 41  1  0
 44 50  1  0
 51 40  2  0
 52 42  2  0
 53 46  1  0
 34 54  1  6
 55 48  2  0
 56 38  1  0
 43 57  1  1
 45 58  1  0
 59 48  1  0
 43 60  1  0
 61 47  1  0
 62 53  1  0
 63 64  1  0
 64 53  2  0
 65 50  1  0
 66 50  1  0
 45 39  1  0
 44 41  1  0
 43 47  1  0
 63 61  2  0
  3 68  1  1
  6 69  1  1
 11 70  1  6
 12 71  1  6
 21 72  1  0
 23 73  1  0
 24 74  1  0
 25 75  1  0
 26 76  1  0
 26 77  1  0
 27 78  1  0
 27 79  1  0
 27 80  1  0
 28 81  1  0
 29 82  1  0
 30 83  1  0
 31 84  1  0
 32 85  1  0
 32 86  1  0
 32 87  1  0
 33 88  1  0
 33 89  1  0
 33 90  1  0
 36 91  1  6
 39 92  1  6
 44 93  1  1
 45 94  1  1
 54 95  1  0
 56 96  1  0
 57 97  1  0
 58 98  1  0
 59 99  1  0
 59100  1  0
 60101  1  0
 60102  1  0
 60103  1  0
 61104  1  0
 62105  1  0
 63106  1  0
 64107  1  0
 65108  1  0
 65109  1  0
 65110  1  0
 66111  1  0
 66112  1  0
 66113  1  0
M  CHG  3  16  -1  49  -1  67   2
M  END
> <Uni-Dock RESULT> 
ENERGY=   -4.692  LOWER_BOUND=    8.221  UPPER_BOUND=   10.935
INTER + INTRA:          -4.692
INTER:                  -4.692
INTRA:                   0.000
UNBOUND:                 0.000

$$$$

     RDKit          3D

113118  0  0  0  0  0  0  0  0999 V2000
   51.1431   11.6594    9.6096 C   0  0  2  0  0  0  0  0  0  0  0  0
   50.2797   10.1460   11.4512 C   0  0  0  0  0  0  0  0  0  0  0  0
   49.6736   11.8407    9.2043 C   0  0  2  0  0  0  0  0  0  0  0  0
   51.0056   14.2378   10.0381 C   0  0  0  0  0  0  0  0  0  0  0  0
   51.3091   10.6619   10.7499 C   0  0  0  0  0  0  0  0  0  0  0  0
   48.8423   10.5602   11.2489 C   0  0  1  0  0  0  0  0  0  0  0  0
   51.8614   13.0074    9.9238 C   0  0  0  0  0  0  0  0  0  0  0  0
   49.8677   14.2937    9.2782 C   0  0  0  0  0  0  0  0  0  0  0  0
   50.4925    8.9940   12.3613 C   0  0  0  0  0  0  0  0  0  0  0  0
   47.9684   10.5713   12.5617 C   0  0  1  0  0  0  0  0  0  0  0  0
   49.5645   13.1101    8.3239 C   0  0  1  0  0  0  0  0  0  0  0  0
   48.7877   11.9007   10.4816 C   0  0  2  0  0  0  0  0  0  0  0  0
   49.6825    8.9524   13.5874 C   0  0  0  0  0  0  0  0  0  0  0  0
   48.5149    9.7222   13.7052 C   0  0  0  0  0  0  0  0  0  0  0  0
   51.3890   15.3146   11.0176 C   0  0  0  0  0  0  0  0  0  0  0  0
   48.9118   15.1279    9.2615 O   0  0  0  0  0  0  0  0  0  0  0  0
   50.4610   13.0228    7.1237 N   0  0  0  0  0  0  0  0  0  0  0  0
   53.0901   13.0609   10.0273 O   0  0  0  0  0  0  0  0  0  0  0  0
   51.2546    8.0623   12.1225 O   0  0  0  0  0  0  0  0  0  0  0  0
   50.1045    8.1371   14.6560 C   0  0  0  0  0  0  0  0  0  0  0  0
   51.8665   11.0524    8.5096 O   0  0  0  0  0  0  0  0  0  0  0  0
   52.5145   15.4694   11.4728 O   0  0  0  0  0  0  0  0  0  0  0  0
   52.6063   10.2028   10.9342 O   0  0  0  0  0  0  0  0  0  0  0  0
   47.8684   11.8926   13.1085 O   0  0  0  0  0  0  0  0  0  0  0  0
   47.4359   12.2380   10.1715 O   0  0  0  0  0  0  0  0  0  0  0  0
   50.3671   16.1232   11.4157 N   0  0  0  0  0  0  0  0  0  0  0  0
   46.5292   10.0998   12.2143 C   0  0  0  0  0  0  0  0  0  0  0  0
   47.8435    9.7060   14.9512 C   0  0  0  0  0  0  0  0  0  0  0  0
   51.2070    7.3233   14.5898 O   0  0  0  0  0  0  0  0  0  0  0  0
   48.2827    8.9166   16.0147 C   0  0  0  0  0  0  0  0  0  0  0  0
   49.4073    8.1143   15.8611 C   0  0  0  0  0  0  0  0  0  0  0  0
   50.7139   14.3521    6.5417 C   0  0  0  0  0  0  0  0  0  0  0  0
   49.8240   12.1979    6.0838 C   0  0  0  0  0  0  0  0  0  0  0  0
   49.2218   13.3444   10.5930 C   0  0  2  0  0  0  0  0  0  0  0  0
   48.5366   11.0986   11.5587 C   0  0  0  0  0  0  0  0  0  0  0  0
   50.7021   12.9545   10.7366 C   0  0  2  0  0  0  0  0  0  0  0  0
   49.5210   13.1260    8.0356 C   0  0  0  0  0  0  0  0  0  0  0  0
   48.2090   12.2778   10.9837 C   0  0  0  0  0  0  0  0  0  0  0  0
   49.9620   10.7368   11.8881 C   0  0  1  0  0  0  0  0  0  0  0  0
   48.8757   13.8462    9.1702 C   0  0  0  0  0  0  0  0  0  0  0  0
   50.8441   12.8986    8.2213 C   0  0  0  0  0  0  0  0  0  0  0  0
   47.4346   10.2042   12.0050 C   0  0  0  0  0  0  0  0  0  0  0  0
   50.2456    9.1879   12.0733 C   0  0  1  0  0  0  0  0  0  0  0  0
   51.5111   13.4943    9.5123 C   0  0  1  0  0  0  0  0  0  0  0  0
   50.9410   11.4330   10.8994 C   0  0  2  0  0  0  0  0  0  0  0  0
   47.7383    8.8582   12.5222 C   0  0  0  0  0  0  0  0  0  0  0  0
   49.0425    8.3555   12.5163 C   0  0  0  0  0  0  0  0  0  0  0  0
   48.7068   12.7572    6.8275 C   0  0  0  0  0  0  0  0  0  0  0  0
   51.6983   12.2880    7.5234 O   0  0  0  0  0  0  0  0  0  0  0  0
   51.5628   14.9973    9.4834 N   0  0  0  0  0  0  0  0  0  0  0  0
   48.0565   14.7578    8.9830 O   0  0  0  0  0  0  0  0  0  0  0  0
   46.2541   10.5607   11.9439 O   0  0  0  0  0  0  0  0  0  0  0  0
   46.6734    8.0461   12.9760 C   0  0  0  0  0  0  0  0  0  0  0  0
   48.9702   14.4236   11.5277 O   0  0  0  0  0  0  0  0  0  0  0  0
   48.9704   11.9064    5.9841 O   0  0  0  0  0  0  0  0  0  0  0  0
   46.8886   12.6735   10.7724 O   0  0  0  0  0  0  0  0  0  0  0  0
   50.7088    8.5146   10.9002 O   0  0  0  0  0  0  0  0  0  0  0  0
   52.2855   11.2214   11.3464 O   0  0  0  0  0  0  0  0  0  0  0  0
   47.5453   13.4661    6.6823 N   0  0  0  0  0  0  0  0  0  0  0  0
   51.3648    9.0227   13.1422 C   0  0  0  0  0  0  0  0  0  0  0  0
   49.2203    6.9952   12.8825 C   0  0  0  0  0  0  0  0  0  0  0  0
   45.3706    8.4719   13.0441 O   0  0  0  0  0  0  0  0  0  0  0  0
   48.1614    6.1978   13.3184 C   0  0  0  0  0  0  0  0  0  0  0  0
   46.8872    6.7342   13.3851 C   0  0  0  0  0  0  0  0  0  0  0  0
   52.1599   15.4683    8.2160 C   0  0  0  0  0  0  0  0  0  0  0  0
   52.3822   15.5184   10.5827 C   0  0  0  0  0  0  0  0  0  0  0  0
   49.6952   11.5721   10.7301 Ca  0  0  0  0  0 15  0  0  0  0  0  0
   49.3361   10.9852    8.6044 H   0  0  0  0  0  0  0  0  0  0  0  0
   48.4178    9.7853   10.5930 H   0  0  0  0  0  0  0  0  0  0  0  0
   48.5270   13.1762    7.9600 H   0  0  0  0  0  0  0  0  0  0  0  0
   49.1518   12.6810   11.1618 H   0  0  0  0  0  0  0  0  0  0  0  0
   51.7601   11.6996    7.7780 H   0  0  0  0  0  0  0  0  0  0  0  0
   53.0725   10.4051   10.0958 H   0  0  0  0  0  0  0  0  0  0  0  0
   47.3922   12.4396   12.4509 H   0  0  0  0  0  0  0  0  0  0  0  0
   47.4689   13.1523    9.7922 H   0  0  0  0  0  0  0  0  0  0  0  0
   50.5681   16.9570   11.9328 H   0  0  0  0  0  0  0  0  0  0  0  0
   49.5252   16.0817   10.8199 H   0  0  0  0  0  0  0  0  0  0  0  0
   45.9746   10.8685   11.6701 H   0  0  0  0  0  0  0  0  0  0  0  0
   45.9367    9.8747   13.1024 H   0  0  0  0  0  0  0  0  0  0  0  0
   46.5460    9.1883   11.6106 H   0  0  0  0  0  0  0  0  0  0  0  0
   46.9695   10.3426   15.0990 H   0  0  0  0  0  0  0  0  0  0  0  0
   51.5733    7.4013   13.6759 H   0  0  0  0  0  0  0  0  0  0  0  0
   47.7525    8.9369   16.9598 H   0  0  0  0  0  0  0  0  0  0  0  0
   49.7543    7.4912   16.6789 H   0  0  0  0  0  0  0  0  0  0  0  0
   51.3080   14.9782    7.2153 H   0  0  0  0  0  0  0  0  0  0  0  0
   49.7895   14.8779    6.2795 H   0  0  0  0  0  0  0  0  0  0  0  0
   51.3194   14.2572    5.6336 H   0  0  0  0  0  0  0  0  0  0  0  0
   48.8502   12.6003    5.7723 H   0  0  0  0  0  0  0  0  0  0  0  0
   50.4623   12.1362    5.1920 H   0  0  0  0  0  0  0  0  0  0  0  0
   49.6777   11.1658    6.4217 H   0  0  0  0  0  0  0  0  0  0  0  0
   51.0971   13.4179   11.6497 H   0  0  0  0  0  0  0  0  0  0  0  0
   50.1286   11.1826   12.8793 H   0  0  0  0  0  0  0  0  0  0  0  0
   52.5465   13.1285    9.6044 H   0  0  0  0  0  0  0  0  0  0  0  0
   50.8561   10.9423    9.9286 H   0  0  0  0  0  0  0  0  0  0  0  0
   48.2054   14.9026   11.1326 H   0  0  0  0  0  0  0  0  0  0  0  0
   46.2862   11.9784   11.1162 H   0  0  0  0  0  0  0  0  0  0  0  0
   50.5045    9.0302   10.0973 H   0  0  0  0  0  0  0  0  0  0  0  0
   52.5735   11.9857   11.8781 H   0  0  0  0  0  0  0  0  0  0  0  0
   47.0558   13.3834    5.8033 H   0  0  0  0  0  0  0  0  0  0  0  0
   47.3714   14.2721    7.2776 H   0  0  0  0  0  0  0  0  0  0  0  0
   51.6654    7.9787   13.2789 H   0  0  0  0  0  0  0  0  0  0  0  0
   52.2912    9.5219   12.8562 H   0  0  0  0  0  0  0  0  0  0  0  0
   51.0459    9.4078   14.1201 H   0  0  0  0  0  0  0  0  0  0  0  0
   50.2058    6.5361   12.7990 H   0  0  0  0  0  0  0  0  0  0  0  0
   45.3303    9.3642   12.6321 H   0  0  0  0  0  0  0  0  0  0  0  0
   48.3381    5.1620   13.5899 H   0  0  0  0  0  0  0  0  0  0  0  0
   46.0535    6.1244   13.7213 H   0  0  0  0  0  0  0  0  0  0  0  0
   52.2474   16.5584    8.2259 H   0  0  0  0  0  0  0  0  0  0  0  0
   51.5207   15.2450    7.3572 H   0  0  0  0  0  0  0  0  0  0  0  0
   53.1596   15.0502    8.0467 H   0  0  0  0  0  0  0  0  0  0  0  0
   51.9167   15.3425   11.5580 H   0  0  0  0  0  0  0  0  0  0  0  0
   53.3888   15.0796   10.5920 H   0  0  0  0  0  0  0  0  0  0  0  0
   52.4921   16.6062   10.5042 H   0  0  0  0  0  0  0  0  0  0  0  0
  2  5  2  0
  3  1  1  0
  4  7  1  0
  5  1  1  0
  6  2  1  0
  7  1  1  0
  8  4  2  0
  9  2  1  0
 10  6  1  0
  3 11  1  0
 12  3  1  0
 13  9  1  0
 14 13  2  0
 15  4  1  0
 16  8  1  0
 11 17  1  0
 18  7  2  0
 19  9  2  0
 20 13  1  0
  1 21  1  1
 22 15  2  0
 23  5  1  0
 10 24  1  6
 12 25  1  0
 26 15  1  0
 10 27  1  0
 28 14  1  0
 29 20  1  0
 30 31  1  0
 31 20  2  0
 32 17  1  0
 33 17  1  0
 12  6  1  0
 11  8  1  0
 10 14  1  0
 30 28  2  0
 35 38  2  0
 36 34  1  0
 37 40  1  0
 38 34  1  0
 39 35  1  0
 40 34  1  0
 41 37  2  0
 42 35  1  0
 43 39  1  0
 36 44  1  0
 45 36  1  0
 46 42  1  0
 47 46  2  0
 48 37  1  0
 49 41  1  0
 44 50  1  0
 51 40  2  0
 52 42  2  0
 53 46  1  0
 34 54  1  6
 55 48  2  0
 56 38  1  0
 43 57  1  1
 45 58  1  0
 59 48  1  0
 43 60  1  0
 61 47  1  0
 62 53  1  0
 63 64  1  0
 64 53  2  0
 65 50  1  0
 66 50  1  0
 45 39  1  0
 44 41  1  0
 43 47  1  0
 63 61  2  0
  3 68  1  1
  6 69  1  1
 11 70  1  6
 12 71  1  6
 21 72  1  0
 23 73  1  0
 24 74  1  0
 25 75  1  0
 26 76  1  0
 26 77  1  0
 27 78  1  0
 27 79  1  0
 27 80  1  0
 28 81  1  0
 29 82  1  0
 30 83  1  0
 31 84  1  0
 32 85  1  0
 32 86  1  0
 32 87  1  0
 33 88  1  0
 33 89  1  0
 33 90  1  0
 36 91  1  6
 39 92  1  6
 44 93  1  1
 45 94  1  1
 54 95  1  0
 56 96  1  0
 57 97  1  0
 58 98  1  0
 59 99  1  0
 59100  1  0
 60101  1  0
 60102  1  0
 60103  1  0
 61104  1  0
 62105  1  0
 63106  1  0
 64107  1  0
 65108  1  0
 65109  1  0
 65110  1  0
 66111  1  0
 66112  1  0
 66113  1  0
M  CHG  3  16  -1  49  -1  67   2
M  END
> <Uni-Dock RESULT> 
ENERGY=   -4.572  LOWER_BOUND=    3.453  UPPER_BOUND=    6.315
INTER + INTRA:          -4.572
INTER:                  -4.572
INTRA:                   0.000
UNBOUND:                 0.000

$$$$

     RDKit          3D

113118  0  0  0  0  0  0  0  0999 V2000
   49.4963   12.7632   13.6933 C   0  0  2  0  0  0  0  0  0  0  0  0
   49.0370   12.4134   16.1619 C   0  0  0  0  0  0  0  0  0  0  0  0
   50.2092   11.4043   13.7339 C   0  0  2  0  0  0  0  0  0  0  0  0
   47.9212   11.5218   12.0115 C   0  0  0  0  0  0  0  0  0  0  0  0
   49.0152   13.2046   15.0705 C   0  0  0  0  0  0  0  0  0  0  0  0
   49.4607   10.9649   16.1334 C   0  0  1  0  0  0  0  0  0  0  0  0
   48.3444   12.8182   12.6436 C   0  0  0  0  0  0  0  0  0  0  0  0
   48.8749   10.5526   11.8484 C   0  0  0  0  0  0  0  0  0  0  0  0
   48.8029   12.9860   17.5102 C   0  0  0  0  0  0  0  0  0  0  0  0
   48.6785   10.0294   17.1335 C   0  0  1  0  0  0  0  0  0  0  0  0
   50.3279   10.8734   12.2838 C   0  0  1  0  0  0  0  0  0  0  0  0
   49.4354   10.4415   14.6794 C   0  0  2  0  0  0  0  0  0  0  0  0
   48.0960   12.1394   18.4823 C   0  0  0  0  0  0  0  0  0  0  0  0
   47.9984   10.7524   18.2920 C   0  0  0  0  0  0  0  0  0  0  0  0
   46.4747   11.3152   11.6497 C   0  0  0  0  0  0  0  0  0  0  0  0
   48.7856    9.3446   11.4710 O   0  0  0  0  0  0  0  0  0  0  0  0
   51.0495   11.8488   11.4010 N   0  0  0  0  0  0  0  0  0  0  0  0
   47.8369   13.8946   12.3164 O   0  0  0  0  0  0  0  0  0  0  0  0
   49.2094   14.0871   17.8683 O   0  0  0  0  0  0  0  0  0  0  0  0
   47.4999   12.7442   19.6065 C   0  0  0  0  0  0  0  0  0  0  0  0
   50.4498   13.7873   13.3143 O   0  0  0  0  0  0  0  0  0  0  0  0
   45.6667   12.2184   11.4783 O   0  0  0  0  0  0  0  0  0  0  0  0
   48.6735   14.5471   15.1623 O   0  0  0  0  0  0  0  0  0  0  0  0
   47.6169    9.3312   16.4700 O   0  0  0  0  0  0  0  0  0  0  0  0
   49.9564    9.1138   14.6229 O   0  0  0  0  0  0  0  0  0  0  0  0
   46.0846   10.0134   11.5513 N   0  0  0  0  0  0  0  0  0  0  0  0
   49.6574    8.9628   17.6977 C   0  0  0  0  0  0  0  0  0  0  0  0
   47.2181   10.0184   19.2170 C   0  0  0  0  0  0  0  0  0  0  0  0
   47.5987   14.0851   19.8788 O   0  0  0  0  0  0  0  0  0  0  0  0
   46.6077   10.6283   20.3136 C   0  0  0  0  0  0  0  0  0  0  0  0
   46.7642   11.9939   20.5201 C   0  0  0  0  0  0  0  0  0  0  0  0
   50.7807   11.5878    9.9764 C   0  0  0  0  0  0  0  0  0  0  0  0
   52.5024   11.7282   11.6068 C   0  0  0  0  0  0  0  0  0  0  0  0
   48.4918   10.2218   13.5190 C   0  0  2  0  0  0  0  0  0  0  0  0
   49.0437   10.4317   15.9882 C   0  0  0  0  0  0  0  0  0  0  0  0
   48.0897   11.7054   13.4828 C   0  0  2  0  0  0  0  0  0  0  0  0
   50.5668   10.8586   12.1166 C   0  0  0  0  0  0  0  0  0  0  0  0
   49.0311    9.7080   14.8460 C   0  0  0  0  0  0  0  0  0  0  0  0
   48.4954   11.8339   16.0539 C   0  0  1  0  0  0  0  0  0  0  0  0
   49.5042    9.8542   12.4072 C   0  0  0  0  0  0  0  0  0  0  0  0
   50.1012   12.1281   12.0250 C   0  0  0  0  0  0  0  0  0  0  0  0
   49.4819    9.7598   17.2413 C   0  0  0  0  0  0  0  0  0  0  0  0
   49.0194   12.7135   17.2645 C   0  0  1  0  0  0  0  0  0  0  0  0
   48.5493   12.3439   12.1316 C   0  0  1  0  0  0  0  0  0  0  0  0
   48.6326   12.5357   14.6721 C   0  0  2  0  0  0  0  0  0  0  0  0
   49.6311   10.5374   18.4839 C   0  0  0  0  0  0  0  0  0  0  0  0
   49.4623   11.9248   18.4968 C   0  0  0  0  0  0  0  0  0  0  0  0
   51.9874   10.4066   11.9265 C   0  0  0  0  0  0  0  0  0  0  0  0
   50.6897   13.2285   11.8453 O   0  0  0  0  0  0  0  0  0  0  0  0
   47.8134   11.7694   10.9521 N   0  0  0  0  0  0  0  0  0  0  0  0
   49.4698    8.7558   11.8332 O   0  0  0  0  0  0  0  0  0  0  0  0
   49.7370    8.5520   17.2663 O   0  0  0  0  0  0  0  0  0  0  0  0
   50.0107    9.8640   19.6680 C   0  0  0  0  0  0  0  0  0  0  0  0
   47.2857    9.4455   13.3083 O   0  0  0  0  0  0  0  0  0  0  0  0
   53.0030   11.0891   12.0123 O   0  0  0  0  0  0  0  0  0  0  0  0
   49.4334    8.3738   14.7934 O   0  0  0  0  0  0  0  0  0  0  0  0
   50.1489   13.5381   16.9671 O   0  0  0  0  0  0  0  0  0  0  0  0
   47.9415   13.7897   14.7141 O   0  0  0  0  0  0  0  0  0  0  0  0
   52.1301    9.0787   11.6282 N   0  0  0  0  0  0  0  0  0  0  0  0
   47.8763   13.6778   17.6958 C   0  0  0  0  0  0  0  0  0  0  0  0
   49.7813   12.6110   19.6982 C   0  0  0  0  0  0  0  0  0  0  0  0
   50.1668    8.5029   19.7496 O   0  0  0  0  0  0  0  0  0  0  0  0
   50.1660   11.9388   20.8590 C   0  0  0  0  0  0  0  0  0  0  0  0
   50.2594   10.5579   20.8473 C   0  0  0  0  0  0  0  0  0  0  0  0
   48.4103   12.2497    9.6882 C   0  0  0  0  0  0  0  0  0  0  0  0
   46.4037   12.1745   10.9614 C   0  0  0  0  0  0  0  0  0  0  0  0
   49.1036   11.3709   14.8188 Ca  0  0  0  0  0 15  0  0  0  0  0  0
   51.2252   11.5195   14.1341 H   0  0  0  0  0  0  0  0  0  0  0  0
   50.5102   10.9741   16.4642 H   0  0  0  0  0  0  0  0  0  0  0  0
   50.9246    9.9481   12.3146 H   0  0  0  0  0  0  0  0  0  0  0  0
   48.3832   10.3729   14.3757 H   0  0  0  0  0  0  0  0  0  0  0  0
   50.7549   13.5013   12.4252 H   0  0  0  0  0  0  0  0  0  0  0  0
   49.0994   14.9745   14.3897 H   0  0  0  0  0  0  0  0  0  0  0  0
   48.0314    8.7449   15.8046 H   0  0  0  0  0  0  0  0  0  0  0  0
   49.8001    8.8047   13.6950 H   0  0  0  0  0  0  0  0  0  0  0  0
   45.1903    9.7929   11.1579 H   0  0  0  0  0  0  0  0  0  0  0  0
   46.8583    9.3344   11.4744 H   0  0  0  0  0  0  0  0  0  0  0  0
   49.8963    8.2011   16.9510 H   0  0  0  0  0  0  0  0  0  0  0  0
   49.2436    8.4253   18.5524 H   0  0  0  0  0  0  0  0  0  0  0  0
   50.5895    9.4216   18.0387 H   0  0  0  0  0  0  0  0  0  0  0  0
   47.0671    8.9486   19.0631 H   0  0  0  0  0  0  0  0  0  0  0  0
   48.1792   14.4821   19.1853 H   0  0  0  0  0  0  0  0  0  0  0  0
   46.0065   10.0391   20.9964 H   0  0  0  0  0  0  0  0  0  0  0  0
   46.2998   12.4780   21.3730 H   0  0  0  0  0  0  0  0  0  0  0  0
   49.7356   11.7917    9.7218 H   0  0  0  0  0  0  0  0  0  0  0  0
   51.0316   10.5627    9.6831 H   0  0  0  0  0  0  0  0  0  0  0  0
   51.3646   12.2720    9.3509 H   0  0  0  0  0  0  0  0  0  0  0  0
   52.8700   10.7151   11.3932 H   0  0  0  0  0  0  0  0  0  0  0  0
   53.0460   12.4265   10.9562 H   0  0  0  0  0  0  0  0  0  0  0  0
   52.7869   11.9883   12.6326 H   0  0  0  0  0  0  0  0  0  0  0  0
   46.9960   11.7712   13.5476 H   0  0  0  0  0  0  0  0  0  0  0  0
   47.4214   11.6924   16.2419 H   0  0  0  0  0  0  0  0  0  0  0  0
   48.3207   13.4211   12.1725 H   0  0  0  0  0  0  0  0  0  0  0  0
   49.6860   12.7675   14.5072 H   0  0  0  0  0  0  0  0  0  0  0  0
   47.6154    8.5984   12.9287 H   0  0  0  0  0  0  0  0  0  0  0  0
   49.6941    8.0814   15.6938 H   0  0  0  0  0  0  0  0  0  0  0  0
   50.6083   13.2259   16.1647 H   0  0  0  0  0  0  0  0  0  0  0  0
   47.0416   13.6751   14.3579 H   0  0  0  0  0  0  0  0  0  0  0  0
   53.0387    8.7657   11.3190 H   0  0  0  0  0  0  0  0  0  0  0  0
   51.3078    8.5226   11.4072 H   0  0  0  0  0  0  0  0  0  0  0  0
   48.1844   14.3682   18.4878 H   0  0  0  0  0  0  0  0  0  0  0  0
   47.5607   14.3380   16.8872 H   0  0  0  0  0  0  0  0  0  0  0  0
   47.0000   13.1243   18.0594 H   0  0  0  0  0  0  0  0  0  0  0  0
   49.7567   13.7008   19.7226 H   0  0  0  0  0  0  0  0  0  0  0  0
   50.0715    8.1403   18.8402 H   0  0  0  0  0  0  0  0  0  0  0  0
   50.4015   12.4994   21.7579 H   0  0  0  0  0  0  0  0  0  0  0  0
   50.5591   10.0219   21.7433 H   0  0  0  0  0  0  0  0  0  0  0  0
   47.8355   11.8748    8.8366 H   0  0  0  0  0  0  0  0  0  0  0  0
   49.4205   11.8577    9.5404 H   0  0  0  0  0  0  0  0  0  0  0  0
   48.4301   13.3446    9.6274 H   0  0  0  0  0  0  0  0  0  0  0  0
   45.8541   11.7220   11.7933 H   0  0  0  0  0  0  0  0  0  0  0  0
   46.2873   13.2649   11.0181 H   0  0  0  0  0  0  0  0  0  0  0  0
   45.8941   11.8304   10.0539 H   0  0  0  0  0  0  0  0  0  0  0  0
  2  5  2  0
  3  1  1  0
  4  7  1  0
  5  1  1  0
  6  2  1  0
  7  1  1  0
  8  4  2  0
  9  2  1  0
 10  6  1  0
  3 11  1  0
 12  3  1  0
 13  9  1  0
 14 13  2  0
 15  4  1  0
 16  8  1  0
 11 17  1  0
 18  7  2  0
 19  9  2  0
 20 13  1  0
  1 21  1  1
 22 15  2  0
 23  5  1  0
 10 24  1  6
 12 25  1  0
 26 15  1  0
 10 27  1  0
 28 14  1  0
 29 20  1  0
 30 31  1  0
 31 20  2  0
 32 17  1  0
 33 17  1  0
 12  6  1  0
 11  8  1  0
 10 14  1  0
 30 28  2  0
 35 38  2  0
 36 34  1  0
 37 40  1  0
 38 34  1  0
 39 35  1  0
 40 34  1  0
 41 37  2  0
 42 35  1  0
 43 39  1  0
 36 44  1  0
 45 36  1  0
 46 42  1  0
 47 46  2  0
 48 37  1  0
 49 41  1  0
 44 50  1  0
 51 40  2  0
 52 42  2  0
 53 46  1  0
 34 54  1  6
 55 48  2  0
 56 38  1  0
 43 57  1  1
 45 58  1  0
 59 48  1  0
 43 60  1  0
 61 47  1  0
 62 53  1  0
 63 64  1  0
 64 53  2  0
 65 50  1  0
 66 50  1  0
 45 39  1  0
 44 41  1  0
 43 47  1  0
 63 61  2  0
  3 68  1  1
  6 69  1  1
 11 70  1  6
 12 71  1  6
 21 72  1  0
 23 73  1  0
 24 74  1  0
 25 75  1  0
 26 76  1  0
 26 77  1  0
 27 78  1  0
 27 79  1  0
 27 80  1  0
 28 81  1  0
 29 82  1  0
 30 83  1  0
 31 84  1  0
 32 85  1  0
 32 86  1  0
 32 87  1  0
 33 88  1  0
 33 89  1  0
 33 90  1  0
 36 91  1  6
 39 92  1  6
 44 93  1  1
 45 94  1  1
 54 95  1  0
 56 96  1  0
 57 97  1  0
 58 98  1  0
 59 99  1  0
 59100  1  0
 60101  1  0
 60102  1  0
 60103  1  0
 61104  1  0
 62105  1  0
 63106  1  0
 64107  1  0
 65108  1  0
 65109  1  0
 65110  1  0
 66111  1  0
 66112  1  0
 66113  1  0
M  CHG  3  16  -1  49  -1  67   2
M  END
> <Uni-Dock RESULT> 
ENERGY=   -4.447  LOWER_BOUND=    3.713  UPPER_BOUND=    7.136
INTER + INTRA:          -4.447
INTER:                  -4.447
INTRA:                   0.000
UNBOUND:                 0.000

$$$$

     RDKit          3D

113118  0  0  0  0  0  0  0  0999 V2000
   46.8009   13.3278    8.9280 C   0  0  2  0  0  0  0  0  0  0  0  0
   48.8971   12.4111   10.0204 C   0  0  0  0  0  0  0  0  0  0  0  0
   46.0977   12.0649    9.4447 C   0  0  2  0  0  0  0  0  0  0  0  0
   45.0834   14.5321   10.4934 C   0  0  0  0  0  0  0  0  0  0  0  0
   48.2953   13.3205    9.2277 C   0  0  0  0  0  0  0  0  0  0  0  0
   48.1495   11.3401   10.7773 C   0  0  1  0  0  0  0  0  0  0  0  0
   46.1286   14.6463    9.4192 C   0  0  0  0  0  0  0  0  0  0  0  0
   44.3276   13.3905   10.5264 C   0  0  0  0  0  0  0  0  0  0  0  0
   50.3764   12.3071   10.0565 C   0  0  0  0  0  0  0  0  0  0  0  0
   48.7629   10.9770   12.1841 C   0  0  1  0  0  0  0  0  0  0  0  0
   44.5700   12.3190    9.4325 C   0  0  1  0  0  0  0  0  0  0  0  0
   46.6496   11.7045   10.8538 C   0  0  2  0  0  0  0  0  0  0  0  0
   50.9900   11.9489   11.3436 C   0  0  0  0  0  0  0  0  0  0  0  0
   50.2287   11.3592   12.3646 C   0  0  0  0  0  0  0  0  0  0  0  0
   44.9547   15.6283   11.5169 C   0  0  0  0  0  0  0  0  0  0  0  0
   43.4801   12.9713   11.3724 O   0  0  0  0  0  0  0  0  0  0  0  0
   44.0887   12.6970    8.0625 N   0  0  0  0  0  0  0  0  0  0  0  0
   46.4161   15.7322    8.9079 O   0  0  0  0  0  0  0  0  0  0  0  0
   51.0985   12.4469    9.0743 O   0  0  0  0  0  0  0  0  0  0  0  0
   52.3572   12.2216   11.5465 C   0  0  0  0  0  0  0  0  0  0  0  0
   46.7377   13.3465    7.4798 O   0  0  0  0  0  0  0  0  0  0  0  0
   45.3603   16.7727   11.3623 O   0  0  0  0  0  0  0  0  0  0  0  0
   49.0355   14.2479    8.5069 O   0  0  0  0  0  0  0  0  0  0  0  0
   48.0782   11.6604   13.2418 O   0  0  0  0  0  0  0  0  0  0  0  0
   45.9121   10.6396   11.4533 O   0  0  0  0  0  0  0  0  0  0  0  0
   44.3682   15.2573   12.6895 N   0  0  0  0  0  0  0  0  0  0  0  0
   48.5961    9.4517   12.4292 C   0  0  0  0  0  0  0  0  0  0  0  0
   50.8650   11.1349   13.6088 C   0  0  0  0  0  0  0  0  0  0  0  0
   53.1696   12.7503   10.5757 O   0  0  0  0  0  0  0  0  0  0  0  0
   52.2131   11.4326   13.8113 C   0  0  0  0  0  0  0  0  0  0  0  0
   52.9678   11.9610   12.7704 C   0  0  0  0  0  0  0  0  0  0  0  0
   42.7776   13.3661    8.1171 C   0  0  0  0  0  0  0  0  0  0  0  0
   43.9349   11.4881    7.2362 C   0  0  0  0  0  0  0  0  0  0  0  0
   45.7184   12.7723   11.3811 C   0  0  2  0  0  0  0  0  0  0  0  0
   47.8672   11.4203   11.4042 C   0  0  0  0  0  0  0  0  0  0  0  0
   46.4206   13.8743   10.5708 C   0  0  2  0  0  0  0  0  0  0  0  0
   44.3708   12.2095    9.2492 C   0  0  0  0  0  0  0  0  0  0  0  0
   46.5492   11.5339   11.6845 C   0  0  0  0  0  0  0  0  0  0  0  0
   48.6508   12.5410   10.7710 C   0  0  1  0  0  0  0  0  0  0  0  0
   44.3865   12.3188   10.7359 C   0  0  0  0  0  0  0  0  0  0  0  0
   44.9420   13.2668    8.6227 C   0  0  0  0  0  0  0  0  0  0  0  0
   48.5827   10.2025   11.8719 C   0  0  0  0  0  0  0  0  0  0  0  0
   49.9989   12.1097   10.0564 C   0  0  1  0  0  0  0  0  0  0  0  0
   45.4307   14.4641    9.5139 C   0  0  1  0  0  0  0  0  0  0  0  0
   47.7245   13.4120    9.8745 C   0  0  2  0  0  0  0  0  0  0  0  0
   49.9861    9.9751   11.4847 C   0  0  0  0  0  0  0  0  0  0  0  0
   50.6436   10.8350   10.6004 C   0  0  0  0  0  0  0  0  0  0  0  0
   43.7298   11.0172    8.5965 C   0  0  0  0  0  0  0  0  0  0  0  0
   45.1576   13.5056    7.4037 O   0  0  0  0  0  0  0  0  0  0  0  0
   44.2860   15.1992   10.1555 N   0  0  0  0  0  0  0  0  0  0  0  0
   43.4046   12.0030   11.4239 O   0  0  0  0  0  0  0  0  0  0  0  0
   48.0212    9.3598   12.5783 O   0  0  0  0  0  0  0  0  0  0  0  0
   50.6519    8.8289   11.9770 C   0  0  0  0  0  0  0  0  0  0  0  0
   45.4237   13.3238   12.6890 O   0  0  0  0  0  0  0  0  0  0  0  0
   43.9106   10.6076    7.4544 O   0  0  0  0  0  0  0  0  0  0  0  0
   45.8353   10.5501   12.3679 O   0  0  0  0  0  0  0  0  0  0  0  0
   49.8847   11.8585    8.6535 O   0  0  0  0  0  0  0  0  0  0  0  0
   48.4495   14.5674    9.4369 O   0  0  0  0  0  0  0  0  0  0  0  0
   42.8537   10.3311    9.3930 N   0  0  0  0  0  0  0  0  0  0  0  0
   51.0240   13.2707   10.2100 C   0  0  0  0  0  0  0  0  0  0  0  0
   51.9377   10.4531   10.1581 C   0  0  0  0  0  0  0  0  0  0  0  0
   50.0913    7.9517   12.8713 O   0  0  0  0  0  0  0  0  0  0  0  0
   52.5827    9.3137   10.6411 C   0  0  0  0  0  0  0  0  0  0  0  0
   51.9436    8.5118   11.5707 C   0  0  0  0  0  0  0  0  0  0  0  0
   43.2760   15.5669    9.1409 C   0  0  0  0  0  0  0  0  0  0  0  0
   44.7457   16.4364   10.7954 C   0  0  0  0  0  0  0  0  0  0  0  0
   47.2468   12.3831   10.4341 Ca  0  0  0  0  0 15  0  0  0  0  0  0
   46.3028   11.2160    8.7792 H   0  0  0  0  0  0  0  0  0  0  0  0
   48.2405   10.4400   10.1508 H   0  0  0  0  0  0  0  0  0  0  0  0
   44.0724   11.3768    9.7117 H   0  0  0  0  0  0  0  0  0  0  0  0
   46.5566   12.5632   11.5306 H   0  0  0  0  0  0  0  0  0  0  0  0
   45.7735   13.3545    7.2908 H   0  0  0  0  0  0  0  0  0  0  0  0
   48.4656   14.5000    7.7502 H   0  0  0  0  0  0  0  0  0  0  0  0
   47.1560   11.3318   13.2455 H   0  0  0  0  0  0  0  0  0  0  0  0
   44.9930   10.9873   11.5767 H   0  0  0  0  0  0  0  0  0  0  0  0
   44.0990   15.9584   13.3520 H   0  0  0  0  0  0  0  0  0  0  0  0
   43.8510   14.3648   12.6512 H   0  0  0  0  0  0  0  0  0  0  0  0
   47.5591    9.1920   12.6570 H   0  0  0  0  0  0  0  0  0  0  0  0
   49.1869    9.0966   13.2749 H   0  0  0  0  0  0  0  0  0  0  0  0
   48.9175    8.8732   11.5587 H   0  0  0  0  0  0  0  0  0  0  0  0
   50.2862   10.7383   14.4447 H   0  0  0  0  0  0  0  0  0  0  0  0
   52.6257   12.8397    9.7561 H   0  0  0  0  0  0  0  0  0  0  0  0
   52.6667   11.2601   14.7805 H   0  0  0  0  0  0  0  0  0  0  0  0
   54.0186   12.1903   12.9142 H   0  0  0  0  0  0  0  0  0  0  0  0
   42.8468   14.3443    8.6040 H   0  0  0  0  0  0  0  0  0  0  0  0
   42.0189   12.7614    8.6255 H   0  0  0  0  0  0  0  0  0  0  0  0
   42.4196   13.5776    7.1035 H   0  0  0  0  0  0  0  0  0  0  0  0
   43.2286   10.7707    7.6764 H   0  0  0  0  0  0  0  0  0  0  0  0
   43.5689   11.7471    6.2335 H   0  0  0  0  0  0  0  0  0  0  0  0
   44.8933   10.9788    7.0850 H   0  0  0  0  0  0  0  0  0  0  0  0
   46.7179   14.6763   11.2586 H   0  0  0  0  0  0  0  0  0  0  0  0
   48.9605   13.1646   11.6219 H   0  0  0  0  0  0  0  0  0  0  0  0
   45.9873   15.1892    8.8983 H   0  0  0  0  0  0  0  0  0  0  0  0
   47.4790   12.8418    8.9772 H   0  0  0  0  0  0  0  0  0  0  0  0
   44.6528   12.7944   12.9985 H   0  0  0  0  0  0  0  0  0  0  0  0
   46.4442    9.8162   12.6026 H   0  0  0  0  0  0  0  0  0  0  0  0
   48.9552   11.7032    8.4004 H   0  0  0  0  0  0  0  0  0  0  0  0
   48.2608   15.3133   10.0351 H   0  0  0  0  0  0  0  0  0  0  0  0
   42.2689    9.6366    8.9518 H   0  0  0  0  0  0  0  0  0  0  0  0
   42.5731   10.7261   10.2871 H   0  0  0  0  0  0  0  0  0  0  0  0
   51.9634   13.0753    9.6827 H   0  0  0  0  0  0  0  0  0  0  0  0
   50.6688   14.2017    9.7668 H   0  0  0  0  0  0  0  0  0  0  0  0
   51.2670   13.4546   11.2653 H   0  0  0  0  0  0  0  0  0  0  0  0
   52.4458   11.0439    9.3954 H   0  0  0  0  0  0  0  0  0  0  0  0
   49.1529    8.2185   12.9969 H   0  0  0  0  0  0  0  0  0  0  0  0
   53.5724    9.0556   10.2783 H   0  0  0  0  0  0  0  0  0  0  0  0
   52.4333    7.6212   11.9540 H   0  0  0  0  0  0  0  0  0  0  0  0
   42.4756   16.1507    9.6040 H   0  0  0  0  0  0  0  0  0  0  0  0
   42.7780   14.6867    8.7247 H   0  0  0  0  0  0  0  0  0  0  0  0
   43.7032   16.1649    8.3267 H   0  0  0  0  0  0  0  0  0  0  0  0
   45.3804   16.2352   11.6646 H   0  0  0  0  0  0  0  0  0  0  0  0
   45.3001   17.0802   10.0998 H   0  0  0  0  0  0  0  0  0  0  0  0
   43.8972   17.0132   11.1812 H   0  0  0  0  0  0  0  0  0  0  0  0
  2  5  2  0
  3  1  1  0
  4  7  1  0
  5  1  1  0
  6  2  1  0
  7  1  1  0
  8  4  2  0
  9  2  1  0
 10  6  1  0
  3 11  1  0
 12  3  1  0
 13  9  1  0
 14 13  2  0
 15  4  1  0
 16  8  1  0
 11 17  1  0
 18  7  2  0
 19  9  2  0
 20 13  1  0
  1 21  1  1
 22 15  2  0
 23  5  1  0
 10 24  1  6
 12 25  1  0
 26 15  1  0
 10 27  1  0
 28 14  1  0
 29 20  1  0
 30 31  1  0
 31 20  2  0
 32 17  1  0
 33 17  1  0
 12  6  1  0
 11  8  1  0
 10 14  1  0
 30 28  2  0
 35 38  2  0
 36 34  1  0
 37 40  1  0
 38 34  1  0
 39 35  1  0
 40 34  1  0
 41 37  2  0
 42 35  1  0
 43 39  1  0
 36 44  1  0
 45 36  1  0
 46 42  1  0
 47 46  2  0
 48 37  1  0
 49 41  1  0
 44 50  1  0
 51 40  2  0
 52 42  2  0
 53 46  1  0
 34 54  1  6
 55 48  2  0
 56 38  1  0
 43 57  1  1
 45 58  1  0
 59 48  1  0
 43 60  1  0
 61 47  1  0
 62 53  1  0
 63 64  1  0
 64 53  2  0
 65 50  1  0
 66 50  1  0
 45 39  1  0
 44 41  1  0
 43 47  1  0
 63 61  2  0
  3 68  1  1
  6 69  1  1
 11 70  1  6
 12 71  1  6
 21 72  1  0
 23 73  1  0
 24 74  1  0
 25 75  1  0
 26 76  1  0
 26 77  1  0
 27 78  1  0
 27 79  1  0
 27 80  1  0
 28 81  1  0
 29 82  1  0
 30 83  1  0
 31 84  1  0
 32 85  1  0
 32 86  1  0
 32 87  1  0
 33 88  1  0
 33 89  1  0
 33 90  1  0
 36 91  1  6
 39 92  1  6
 44 93  1  1
 45 94  1  1
 54 95  1  0
 56 96  1  0
 57 97  1  0
 58 98  1  0
 59 99  1  0
 59100  1  0
 60101  1  0
 60102  1  0
 60103  1  0
 61104  1  0
 62105  1  0
 63106  1  0
 64107  1  0
 65108  1  0
 65109  1  0
 65110  1  0
 66111  1  0
 66112  1  0
 66113  1  0
M  CHG  3  16  -1  49  -1  67   2
M  END
> <Uni-Dock RESULT> 
ENERGY=   -4.396  LOWER_BOUND=    2.054  UPPER_BOUND=    4.716
INTER + INTRA:          -4.396
INTER:                  -4.396
INTRA:                   0.000
UNBOUND:                 0.000

$$$$

     RDKit          3D

113118  0  0  0  0  0  0  0  0999 V2000
   52.9523    4.8352   18.3401 C   0  0  2  0  0  0  0  0  0  0  0  0
   51.0883    5.4810   19.9325 C   0  0  0  0  0  0  0  0  0  0  0  0
   53.8419    5.7880   19.1508 C   0  0  2  0  0  0  0  0  0  0  0  0
   54.6599    3.0412   19.1862 C   0  0  0  0  0  0  0  0  0  0  0  0
   51.5038    4.8539   18.8137 C   0  0  0  0  0  0  0  0  0  0  0  0
   52.0223    6.1687   20.8987 C   0  0  1  0  0  0  0  0  0  0  0  0
   53.5118    3.3809   18.2776 C   0  0  0  0  0  0  0  0  0  0  0  0
   55.5419    4.0415   19.4978 C   0  0  0  0  0  0  0  0  0  0  0  0
   49.6409    5.6792   20.1898 C   0  0  0  0  0  0  0  0  0  0  0  0
   51.5905    6.0752   22.4126 C   0  0  1  0  0  0  0  0  0  0  0  0
   55.3222    5.4374   18.8601 C   0  0  1  0  0  0  0  0  0  0  0  0
   53.4708    5.6865   20.6580 C   0  0  2  0  0  0  0  0  0  0  0  0
   49.1970    5.6220   21.5902 C   0  0  0  0  0  0  0  0  0  0  0  0
   50.1142    5.7674   22.6425 C   0  0  0  0  0  0  0  0  0  0  0  0
   54.7578    1.6549   19.7645 C   0  0  0  0  0  0  0  0  0  0  0  0
   56.5081    4.0805   20.3191 O   0  0  0  0  0  0  0  0  0  0  0  0
   55.6251    5.5145   17.3924 N   0  0  0  0  0  0  0  0  0  0  0  0
   53.0541    2.5603   17.4773 O   0  0  0  0  0  0  0  0  0  0  0  0
   48.8179    5.9388   19.3174 O   0  0  0  0  0  0  0  0  0  0  0  0
   47.8328    5.4017   21.8645 C   0  0  0  0  0  0  0  0  0  0  0  0
   52.8758    5.3075   16.9716 O   0  0  0  0  0  0  0  0  0  0  0  0
   54.2104    0.6667   19.2936 O   0  0  0  0  0  0  0  0  0  0  0  0
   50.5969    4.2879   17.9279 O   0  0  0  0  0  0  0  0  0  0  0  0
   52.2889    5.0214   23.0883 O   0  0  0  0  0  0  0  0  0  0  0  0
   54.3793    6.4229   21.4764 O   0  0  0  0  0  0  0  0  0  0  0  0
   55.4913    1.5571   20.9086 N   0  0  0  0  0  0  0  0  0  0  0  0
   51.9542    7.4075   23.1246 C   0  0  0  0  0  0  0  0  0  0  0  0
   49.6284    5.6012   23.9615 C   0  0  0  0  0  0  0  0  0  0  0  0
   46.8768    5.3001   20.8859 O   0  0  0  0  0  0  0  0  0  0  0  0
   48.2801    5.3562   24.2248 C   0  0  0  0  0  0  0  0  0  0  0  0
   47.3747    5.2744   23.1732 C   0  0  0  0  0  0  0  0  0  0  0  0
   56.8498    4.7689   17.0548 C   0  0  0  0  0  0  0  0  0  0  0  0
   55.8383    6.9174   16.9997 C   0  0  0  0  0  0  0  0  0  0  0  0
   54.3185    4.4350   20.6791 C   0  0  2  0  0  0  0  0  0  0  0  0
   52.3516    5.8578   21.4224 C   0  0  0  0  0  0  0  0  0  0  0  0
   53.4207    3.7332   19.6470 C   0  0  2  0  0  0  0  0  0  0  0  0
   55.5144    5.5874   18.6994 C   0  0  0  0  0  0  0  0  0  0  0  0
   53.6682    5.5550   21.4784 C   0  0  0  0  0  0  0  0  0  0  0  0
   51.3878    5.0842   20.5600 C   0  0  1  0  0  0  0  0  0  0  0  0
   55.6268    4.9784   20.0555 C   0  0  0  0  0  0  0  0  0  0  0  0
   54.7686    4.8546   17.8371 C   0  0  0  0  0  0  0  0  0  0  0  0
   51.8284    6.8935   22.3537 C   0  0  0  0  0  0  0  0  0  0  0  0
   50.0369    5.8353   20.2066 C   0  0  1  0  0  0  0  0  0  0  0  0
   54.2318    3.4660   18.3371 C   0  0  1  0  0  0  0  0  0  0  0  0
   52.1188    4.5037   19.3153 C   0  0  2  0  0  0  0  0  0  0  0  0
   50.4302    7.3460   22.2462 C   0  0  0  0  0  0  0  0  0  0  0  0
   49.5975    6.8928   21.2191 C   0  0  0  0  0  0  0  0  0  0  0  0
   56.2238    6.8782   18.4012 C   0  0  0  0  0  0  0  0  0  0  0  0
   54.4127    5.0637   16.6458 O   0  0  0  0  0  0  0  0  0  0  0  0
   55.3398    2.4708   18.5478 N   0  0  0  0  0  0  0  0  0  0  0  0
   56.6991    4.9642   20.6776 O   0  0  0  0  0  0  0  0  0  0  0  0
   52.5474    7.3987   23.2210 O   0  0  0  0  0  0  0  0  0  0  0  0
   49.9503    8.3024   23.1705 C   0  0  0  0  0  0  0  0  0  0  0  0
   54.6701    3.4491   21.6822 O   0  0  0  0  0  0  0  0  0  0  0  0
   55.9843    7.6658   17.4917 O   0  0  0  0  0  0  0  0  0  0  0  0
   54.5520    6.1886   22.3513 O   0  0  0  0  0  0  0  0  0  0  0  0
   50.0461    6.5410   18.9632 O   0  0  0  0  0  0  0  0  0  0  0  0
   51.2275    3.6262   18.6170 O   0  0  0  0  0  0  0  0  0  0  0  0
   57.2445    7.1819   19.2607 N   0  0  0  0  0  0  0  0  0  0  0  0
   48.9041    4.7735   20.0976 C   0  0  0  0  0  0  0  0  0  0  0  0
   48.3200    7.5005   21.0972 C   0  0  0  0  0  0  0  0  0  0  0  0
   50.6901    8.7759   24.2250 O   0  0  0  0  0  0  0  0  0  0  0  0
   47.8590    8.4521   22.0078 C   0  0  0  0  0  0  0  0  0  0  0  0
   48.6712    8.8370   23.0605 C   0  0  0  0  0  0  0  0  0  0  0  0
   56.2002    2.3957   17.3484 C   0  0  0  0  0  0  0  0  0  0  0  0
   54.8032    1.1284   18.7960 C   0  0  0  0  0  0  0  0  0  0  0  0
   52.7625    5.2398   20.1176 Ca  0  0  0  0  0 15  0  0  0  0  0  0
   53.6739    6.8262   18.8352 H   0  0  0  0  0  0  0  0  0  0  0  0
   51.9768    7.2327   20.6220 H   0  0  0  0  0  0  0  0  0  0  0  0
   55.9491    6.1867   19.3689 H   0  0  0  0  0  0  0  0  0  0  0  0
   53.5279    4.6439   20.9953 H   0  0  0  0  0  0  0  0  0  0  0  0
   53.8104    5.2909   16.6689 H   0  0  0  0  0  0  0  0  0  0  0  0
   51.0600    4.2666   17.0641 H   0  0  0  0  0  0  0  0  0  0  0  0
   53.2390    5.2574   23.0824 H   0  0  0  0  0  0  0  0  0  0  0  0
   55.2598    5.9848   21.3593 H   0  0  0  0  0  0  0  0  0  0  0  0
   55.7393    0.6535   21.2620 H   0  0  0  0  0  0  0  0  0  0  0  0
   56.1018    2.3668   21.1017 H   0  0  0  0  0  0  0  0  0  0  0  0
   53.0311    7.4937   23.2910 H   0  0  0  0  0  0  0  0  0  0  0  0
   51.4908    7.4964   24.1084 H   0  0  0  0  0  0  0  0  0  0  0  0
   51.6207    8.2713   22.5430 H   0  0  0  0  0  0  0  0  0  0  0  0
   50.3253    5.6431   24.8002 H   0  0  0  0  0  0  0  0  0  0  0  0
   47.3270    5.4547   20.0204 H   0  0  0  0  0  0  0  0  0  0  0  0
   47.9430    5.2215   25.2460 H   0  0  0  0  0  0  0  0  0  0  0  0
   46.3228    5.0909   23.3662 H   0  0  0  0  0  0  0  0  0  0  0  0
   56.7147    3.6915   17.1955 H   0  0  0  0  0  0  0  0  0  0  0  0
   57.7176    5.1037   17.6330 H   0  0  0  0  0  0  0  0  0  0  0  0
   57.0837    4.8896   15.9913 H   0  0  0  0  0  0  0  0  0  0  0  0
   56.6609    7.3851   17.5581 H   0  0  0  0  0  0  0  0  0  0  0  0
   56.0757    6.9892   15.9297 H   0  0  0  0  0  0  0  0  0  0  0  0
   54.9349    7.5194   17.1491 H   0  0  0  0  0  0  0  0  0  0  0  0
   53.0994    2.7697   20.0630 H   0  0  0  0  0  0  0  0  0  0  0  0
   51.0902    4.2330   21.1892 H   0  0  0  0  0  0  0  0  0  0  0  0
   53.5398    3.0395   17.5930 H   0  0  0  0  0  0  0  0  0  0  0  0
   52.3424    5.3255   18.6334 H   0  0  0  0  0  0  0  0  0  0  0  0
   55.5225    3.7805   22.0481 H   0  0  0  0  0  0  0  0  0  0  0  0
   54.0566    6.8424   22.8912 H   0  0  0  0  0  0  0  0  0  0  0  0
   50.9592    6.7019   18.6591 H   0  0  0  0  0  0  0  0  0  0  0  0
   51.3848    2.7087   18.9056 H   0  0  0  0  0  0  0  0  0  0  0  0
   57.8610    7.9385   19.0029 H   0  0  0  0  0  0  0  0  0  0  0  0
   57.5609    6.4851   19.9304 H   0  0  0  0  0  0  0  0  0  0  0  0
   47.9478    5.2085   19.7892 H   0  0  0  0  0  0  0  0  0  0  0  0
   49.1062    4.0257   19.3301 H   0  0  0  0  0  0  0  0  0  0  0  0
   48.7424    4.2594   21.0547 H   0  0  0  0  0  0  0  0  0  0  0  0
   47.6775    7.2464   20.2536 H   0  0  0  0  0  0  0  0  0  0  0  0
   51.5993    8.4113   24.1343 H   0  0  0  0  0  0  0  0  0  0  0  0
   46.8758    8.8935   21.8805 H   0  0  0  0  0  0  0  0  0  0  0  0
   48.3256    9.5778   23.7759 H   0  0  0  0  0  0  0  0  0  0  0  0
   56.9684    1.6295   17.4862 H   0  0  0  0  0  0  0  0  0  0  0  0
   56.7547    3.3243   17.1864 H   0  0  0  0  0  0  0  0  0  0  0  0
   55.6320    2.1463   16.4440 H   0  0  0  0  0  0  0  0  0  0  0  0
   54.2809    1.0684   19.7565 H   0  0  0  0  0  0  0  0  0  0  0  0
   54.1151    0.8052   18.0036 H   0  0  0  0  0  0  0  0  0  0  0  0
   55.6123    0.3914   18.8577 H   0  0  0  0  0  0  0  0  0  0  0  0
  2  5  2  0
  3  1  1  0
  4  7  1  0
  5  1  1  0
  6  2  1  0
  7  1  1  0
  8  4  2  0
  9  2  1  0
 10  6  1  0
  3 11  1  0
 12  3  1  0
 13  9  1  0
 14 13  2  0
 15  4  1  0
 16  8  1  0
 11 17  1  0
 18  7  2  0
 19  9  2  0
 20 13  1  0
  1 21  1  1
 22 15  2  0
 23  5  1  0
 10 24  1  6
 12 25  1  0
 26 15  1  0
 10 27  1  0
 28 14  1  0
 29 20  1  0
 30 31  1  0
 31 20  2  0
 32 17  1  0
 33 17  1  0
 12  6  1  0
 11  8  1  0
 10 14  1  0
 30 28  2  0
 35 38  2  0
 36 34  1  0
 37 40  1  0
 38 34  1  0
 39 35  1  0
 40 34  1  0
 41 37  2  0
 42 35  1  0
 43 39  1  0
 36 44  1  0
 45 36  1  0
 46 42  1  0
 47 46  2  0
 48 37  1  0
 49 41  1  0
 44 50  1  0
 51 40  2  0
 52 42  2  0
 53 46  1  0
 34 54  1  6
 55 48  2  0
 56 38  1  0
 43 57  1  1
 45 58  1  0
 59 48  1  0
 43 60  1  0
 61 47  1  0
 62 53  1  0
 63 64  1  0
 64 53  2  0
 65 50  1  0
 66 50  1  0
 45 39  1  0
 44 41  1  0
 43 47  1  0
 63 61  2  0
  3 68  1  1
  6 69  1  1
 11 70  1  6
 12 71  1  6
 21 72  1  0
 23 73  1  0
 24 74  1  0
 25 75  1  0
 26 76  1  0
 26 77  1  0
 27 78  1  0
 27 79  1  0
 27 80  1  0
 28 81  1  0
 29 82  1  0
 30 83  1  0
 31 84  1  0
 32 85  1  0
 32 86  1  0
 32 87  1  0
 33 88  1  0
 33 89  1  0
 33 90  1  0
 36 91  1  6
 39 92  1  6
 44 93  1  1
 45 94  1  1
 54 95  1  0
 56 96  1  0
 57 97  1  0
 58 98  1  0
 59 99  1  0
 59100  1  0
 60101  1  0
 60102  1  0
 60103  1  0
 61104  1  0
 62105  1  0
 63106  1  0
 64107  1  0
 65108  1  0
 65109  1  0
 65110  1  0
 66111  1  0
 66112  1  0
 66113  1  0
M  CHG  3  16  -1  49  -1  67   2
M  END
> <Uni-Dock RESULT> 
ENERGY=   -4.393  LOWER_BOUND=   11.440  UPPER_BOUND=   14.192
INTER + INTRA:          -4.393
INTER:                  -4.393
INTRA:                   0.000
UNBOUND:                 0.000

$$$$
