
     RDKit          3D

113118  0  0  0  0  0  0  0  0999 V2000
   45.8050   13.5647    7.7451 C   0  0  2  0  0  0  0  0  0  0  0  0
   43.6623   13.2577    9.0085 C   0  0  0  0  0  0  0  0  0  0  0  0
   46.5622   13.2637    9.0378 C   0  0  2  0  0  0  0  0  0  0  0  0
   47.5659   12.5688    6.2633 C   0  0  0  0  0  0  0  0  0  0  0  0
   44.3143   13.7067    7.9284 C   0  0  0  0  0  0  0  0  0  0  0  0
   44.2943   12.4854   10.1307 C   0  0  1  0  0  0  0  0  0  0  0  0
   46.1660   12.4428    6.7525 C   0  0  0  0  0  0  0  0  0  0  0  0
   48.4796   12.8832    7.2336 C   0  0  0  0  0  0  0  0  0  0  0  0
   42.2254   13.5783    9.2197 C   0  0  0  0  0  0  0  0  0  0  0  0
   43.5051   11.1460   10.3605 C   0  0  1  0  0  0  0  0  0  0  0  0
   48.0041   12.6719    8.7245 C   0  0  1  0  0  0  0  0  0  0  0  0
   45.8194   12.2582    9.9558 C   0  0  2  0  0  0  0  0  0  0  0  0
   41.4001   12.5385    9.8902 C   0  0  0  0  0  0  0  0  0  0  0  0
   41.9874   11.3663   10.4017 C   0  0  0  0  0  0  0  0  0  0  0  0
   47.8145   12.6553    4.7962 C   0  0  0  0  0  0  0  0  0  0  0  0
   49.6623   13.3054    7.0993 O   0  0  0  0  0  0  0  0  0  0  0  0
   48.8637   12.8952    9.9243 N   0  0  0  0  0  0  0  0  0  0  0  0
   45.4353   11.4961    6.4717 O   0  0  0  0  0  0  0  0  0  0  0  0
   41.7149   14.6523    8.9123 O   0  0  0  0  0  0  0  0  0  0  0  0
   40.0062   12.7323    9.9769 C   0  0  0  0  0  0  0  0  0  0  0  0
   46.1921   14.8690    7.2462 O   0  0  0  0  0  0  0  0  0  0  0  0
   46.9182   12.8372    3.9750 O   0  0  0  0  0  0  0  0  0  0  0  0
   43.6709   14.4425    6.9449 O   0  0  0  0  0  0  0  0  0  0  0  0
   43.7511   10.2187    9.2921 O   0  0  0  0  0  0  0  0  0  0  0  0
   46.4174   12.3229   11.2649 O   0  0  0  0  0  0  0  0  0  0  0  0
   49.1203   12.5704    4.4184 N   0  0  0  0  0  0  0  0  0  0  0  0
   44.0084   10.4669   11.6504 C   0  0  0  0  0  0  0  0  0  0  0  0
   41.1230   10.3742   10.9112 C   0  0  0  0  0  0  0  0  0  0  0  0
   39.3716   13.8600    9.5154 O   0  0  0  0  0  0  0  0  0  0  0  0
   39.7447   10.5731   10.9895 C   0  0  0  0  0  0  0  0  0  0  0  0
   39.1852   11.7622   10.5351 C   0  0  0  0  0  0  0  0  0  0  0  0
   49.3809   14.2643   10.0298 C   0  0  0  0  0  0  0  0  0  0  0  0
   49.9805   11.9448    9.9847 C   0  0  0  0  0  0  0  0  0  0  0  0
   43.8935   11.5339    8.2989 C   0  0  2  0  0  0  0  0  0  0  0  0
   46.2341   12.2069    7.5930 C   0  0  0  0  0  0  0  0  0  0  0  0
   44.4663   11.3713    9.7148 C   0  0  2  0  0  0  0  0  0  0  0  0
   42.4936   13.4156    9.4668 C   0  0  0  0  0  0  0  0  0  0  0  0
   44.9794   11.8315    7.2650 C   0  0  0  0  0  0  0  0  0  0  0  0
   46.7078   12.4489    9.0087 C   0  0  1  0  0  0  0  0  0  0  0  0
   42.7735   12.6164    8.2293 C   0  0  0  0  0  0  0  0  0  0  0  0
   42.7471   12.8654   10.6898 C   0  0  0  0  0  0  0  0  0  0  0  0
   47.2576   12.3921    6.5177 C   0  0  0  0  0  0  0  0  0  0  0  0
   47.5619   13.7676    9.0614 C   0  0  1  0  0  0  0  0  0  0  0  0
   43.2890   11.4107   10.7351 C   0  0  1  0  0  0  0  0  0  0  0  0
   45.5445   12.4419   10.0273 C   0  0  2  0  0  0  0  0  0  0  0  0
   48.5721   12.9681    6.8737 C   0  0  0  0  0  0  0  0  0  0  0  0
   48.7545   13.6114    8.1119 C   0  0  0  0  0  0  0  0  0  0  0  0
   42.0537   14.8404    9.3038 C   0  0  0  0  0  0  0  0  0  0  0  0
   42.7079   13.3696   11.8533 O   0  0  0  0  0  0  0  0  0  0  0  0
   42.2523   10.3583   10.4621 N   0  0  0  0  0  0  0  0  0  0  0  0
   42.1013   12.8087    7.2123 O   0  0  0  0  0  0  0  0  0  0  0  0
   47.0430   12.0434    5.3562 O   0  0  0  0  0  0  0  0  0  0  0  0
   49.6315   12.8884    5.9485 C   0  0  0  0  0  0  0  0  0  0  0  0
   43.3378   10.2566    7.9251 O   0  0  0  0  0  0  0  0  0  0  0  0
   42.3502   15.5321    8.3337 O   0  0  0  0  0  0  0  0  0  0  0  0
   44.5920   11.6112    5.9473 O   0  0  0  0  0  0  0  0  0  0  0  0
   46.8569   14.9126    8.5514 O   0  0  0  0  0  0  0  0  0  0  0  0
   46.0645   12.1764   11.3392 O   0  0  0  0  0  0  0  0  0  0  0  0
   41.3522   15.3615   10.3489 N   0  0  0  0  0  0  0  0  0  0  0  0
   47.9755   14.1533   10.4895 C   0  0  0  0  0  0  0  0  0  0  0  0
   50.0320   14.1365    8.3927 C   0  0  0  0  0  0  0  0  0  0  0  0
   49.5113   12.2986    4.7142 O   0  0  0  0  0  0  0  0  0  0  0  0
   51.0876   14.0300    7.4776 C   0  0  0  0  0  0  0  0  0  0  0  0
   50.8845   13.4103    6.2511 C   0  0  0  0  0  0  0  0  0  0  0  0
   42.7485    9.0391   10.8859 C   0  0  0  0  0  0  0  0  0  0  0  0
   41.0100   10.6296   11.2051 C   0  0  0  0  0  0  0  0  0  0  0  0
   45.3422   12.5019    9.0379 Ca  0  0  0  0  0 15  0  0  0  0  0  0
   46.6722   14.2152    9.5783 H   0  0  0  0  0  0  0  0  0  0  0  0
   44.1554   13.1040   11.0331 H   0  0  0  0  0  0  0  0  0  0  0  0
   47.8556   11.5769    8.7299 H   0  0  0  0  0  0  0  0  0  0  0  0
   45.9898   11.2414    9.5883 H   0  0  0  0  0  0  0  0  0  0  0  0
   47.1717   14.8681    7.1475 H   0  0  0  0  0  0  0  0  0  0  0  0
   44.3862   14.9627    6.5211 H   0  0  0  0  0  0  0  0  0  0  0  0
   43.6105   10.6631    8.4358 H   0  0  0  0  0  0  0  0  0  0  0  0
   47.3889   12.4260   11.1221 H   0  0  0  0  0  0  0  0  0  0  0  0
   49.7742   12.7515    5.1928 H   0  0  0  0  0  0  0  0  0  0  0  0
   49.3551   12.9314    3.5075 H   0  0  0  0  0  0  0  0  0  0  0  0
   43.8097   11.0844   12.5349 H   0  0  0  0  0  0  0  0  0  0  0  0
   43.5539    9.4829   11.8146 H   0  0  0  0  0  0  0  0  0  0  0  0
   45.0801   10.2567   11.5972 H   0  0  0  0  0  0  0  0  0  0  0  0
   41.5216    9.4194   11.2471 H   0  0  0  0  0  0  0  0  0  0  0  0
   40.0593   14.4427    9.1201 H   0  0  0  0  0  0  0  0  0  0  0  0
   39.1077    9.7986   11.4063 H   0  0  0  0  0  0  0  0  0  0  0  0
   38.1144   11.9277   10.5912 H   0  0  0  0  0  0  0  0  0  0  0  0
   50.1904   14.5004    9.3270 H   0  0  0  0  0  0  0  0  0  0  0  0
   48.5948   15.0162    9.9100 H   0  0  0  0  0  0  0  0  0  0  0  0
   49.7797   14.4188   11.0413 H   0  0  0  0  0  0  0  0  0  0  0  0
   49.6132   10.9142    9.9358 H   0  0  0  0  0  0  0  0  0  0  0  0
   50.7306   12.0882    9.2010 H   0  0  0  0  0  0  0  0  0  0  0  0
   50.4935   12.0387   10.9498 H   0  0  0  0  0  0  0  0  0  0  0  0
   44.9592   10.3894    9.8004 H   0  0  0  0  0  0  0  0  0  0  0  0
   47.3729   11.6117    9.2768 H   0  0  0  0  0  0  0  0  0  0  0  0
   43.7101   11.2008   11.7311 H   0  0  0  0  0  0  0  0  0  0  0  0
   45.1264   13.4515   10.0498 H   0  0  0  0  0  0  0  0  0  0  0  0
   42.5718   10.1395    8.5293 H   0  0  0  0  0  0  0  0  0  0  0  0
   45.3732   11.7217    5.3575 H   0  0  0  0  0  0  0  0  0  0  0  0
   45.9261   14.6998    8.3630 H   0  0  0  0  0  0  0  0  0  0  0  0
   45.3817   12.5235   11.9576 H   0  0  0  0  0  0  0  0  0  0  0  0
   41.4915   14.8452   11.2277 H   0  0  0  0  0  0  0  0  0  0  0  0
   41.2707   16.3635   10.3849 H   0  0  0  0  0  0  0  0  0  0  0  0
   48.5340   15.0965   10.5095 H   0  0  0  0  0  0  0  0  0  0  0  0
   48.5743   13.3749   10.9701 H   0  0  0  0  0  0  0  0  0  0  0  0
   47.0999   14.3650   11.1104 H   0  0  0  0  0  0  0  0  0  0  0  0
   50.2379   14.6596    9.3220 H   0  0  0  0  0  0  0  0  0  0  0  0
   48.5699   12.0439    4.5964 H   0  0  0  0  0  0  0  0  0  0  0  0
   52.0639   14.4475    7.7194 H   0  0  0  0  0  0  0  0  0  0  0  0
   51.6913   13.3394    5.5255 H   0  0  0  0  0  0  0  0  0  0  0  0
   43.6241    8.7334   10.3106 H   0  0  0  0  0  0  0  0  0  0  0  0
   41.9931    8.2689   10.7058 H   0  0  0  0  0  0  0  0  0  0  0  0
   43.0137    9.0155   11.9484 H   0  0  0  0  0  0  0  0  0  0  0  0
   40.2978    9.8069   11.0644 H   0  0  0  0  0  0  0  0  0  0  0  0
   41.1804   10.7389   12.2830 H   0  0  0  0  0  0  0  0  0  0  0  0
   40.5023   11.5197   10.8210 H   0  0  0  0  0  0  0  0  0  0  0  0
  2  5  2  0
  3  1  1  0
  4  7  1  0
  5  1  1  0
  6  2  1  0
  7  1  1  0
  8  4  2  0
  9  2  1  0
 10  6  1  0
  3 11  1  0
 12  3  1  0
 13  9  1  0
 14 13  2  0
 15  4  1  0
 16  8  1  0
 11 17  1  0
 18  7  2  0
 19  9  2  0
 20 13  1  0
  1 21  1  6
 22 15  2  0
 23  5  1  0
 10 24  1  1
 12 25  1  0
 26 15  1  0
 10 27  1  0
 28 14  1  0
 29 20  1  0
 30 31  1  0
 31 20  2  0
 32 17  1  0
 33 17  1  0
 12  6  1  0
 11  8  1  0
 10 14  1  0
 30 28  2  0
 35 38  2  0
 36 34  1  0
 37 40  1  0
 38 34  1  0
 39 35  1  0
 40 34  1  0
 41 37  2  0
 42 35  1  0
 43 39  1  0
 36 44  1  0
 45 36  1  0
 46 42  1  0
 47 46  2  0
 48 37  1  0
 49 41  1  0
 44 50  1  0
 51 40  2  0
 52 42  2  0
 53 46  1  0
 34 54  1  1
 55 48  2  0
 56 38  1  0
 43 57  1  6
 45 58  1  0
 59 48  1  0
 43 60  1  0
 61 47  1  0
 62 53  1  0
 63 64  1  0
 64 53  2  0
 65 50  1  0
 66 50  1  0
 45 39  1  0
 44 41  1  0
 43 47  1  0
 63 61  2  0
  3 68  1  6
  6 69  1  6
 11 70  1  1
 12 71  1  1
 21 72  1  0
 23 73  1  0
 24 74  1  0
 25 75  1  0
 26 76  1  0
 26 77  1  0
 27 78  1  0
 27 79  1  0
 27 80  1  0
 28 81  1  0
 29 82  1  0
 30 83  1  0
 31 84  1  0
 32 85  1  0
 32 86  1  0
 32 87  1  0
 33 88  1  0
 33 89  1  0
 33 90  1  0
 36 91  1  1
 39 92  1  1
 44 93  1  6
 45 94  1  6
 54 95  1  0
 56 96  1  0
 57 97  1  0
 58 98  1  0
 59 99  1  0
 59100  1  0
 60101  1  0
 60102  1  0
 60103  1  0
 61104  1  0
 62105  1  0
 63106  1  0
 64107  1  0
 65108  1  0
 65109  1  0
 65110  1  0
 66111  1  0
 66112  1  0
 66113  1  0
M  CHG  3  16  -1  49  -1  67   2
M  END
> <Uni-Dock RESULT> 
ENERGY=   -5.958  LOWER_BOUND=    0.000  UPPER_BOUND=    0.000
INTER + INTRA:          -5.958
INTER:                  -5.958
INTRA:                   0.000
UNBOUND:                 0.000

$$$$

     RDKit          3D

113118  0  0  0  0  0  0  0  0999 V2000
   50.5370    6.2192   17.5249 C   0  0  2  0  0  0  0  0  0  0  0  0
   49.6978    8.5107   18.0958 C   0  0  0  0  0  0  0  0  0  0  0  0
   51.5132    6.3300   18.6952 C   0  0  2  0  0  0  0  0  0  0  0  0
   50.2671    3.7357   17.7441 C   0  0  0  0  0  0  0  0  0  0  0  0
   49.7928    7.4969   17.2260 C   0  0  0  0  0  0  0  0  0  0  0  0
   50.2326    8.4882   19.4988 C   0  0  1  0  0  0  0  0  0  0  0  0
   49.5848    5.0536   17.8553 C   0  0  0  0  0  0  0  0  0  0  0  0
   51.5279    3.7030   18.2776 C   0  0  0  0  0  0  0  0  0  0  0  0
   49.1054    9.8124   17.6877 C   0  0  0  0  0  0  0  0  0  0  0  0
   49.0864    8.8613   20.5072 C   0  0  1  0  0  0  0  0  0  0  0  0
   51.8972    4.8907   19.2504 C   0  0  1  0  0  0  0  0  0  0  0  0
   50.9531    7.1663   19.8751 C   0  0  2  0  0  0  0  0  0  0  0  0
   48.3436   10.5553   18.7268 C   0  0  0  0  0  0  0  0  0  0  0  0
   48.2960   10.0965   20.0564 C   0  0  0  0  0  0  0  0  0  0  0  0
   49.6973    2.7004   16.8357 C   0  0  0  0  0  0  0  0  0  0  0  0
   52.4352    2.8402   18.1109 O   0  0  0  0  0  0  0  0  0  0  0  0
   53.1926    5.0105   19.9824 N   0  0  0  0  0  0  0  0  0  0  0  0
   48.4337    5.1856   18.2635 O   0  0  0  0  0  0  0  0  0  0  0  0
   49.2512   10.3075   16.5731 O   0  0  0  0  0  0  0  0  0  0  0  0
   47.6385   11.7163   18.3490 C   0  0  0  0  0  0  0  0  0  0  0  0
   51.2716    5.9819   16.2985 O   0  0  0  0  0  0  0  0  0  0  0  0
   48.8144    2.9424   16.0154 O   0  0  0  0  0  0  0  0  0  0  0  0
   49.3028    7.6004   15.9329 O   0  0  0  0  0  0  0  0  0  0  0  0
   48.1362    7.7906   20.6190 O   0  0  0  0  0  0  0  0  0  0  0  0
   52.0519    7.5065   20.7426 O   0  0  0  0  0  0  0  0  0  0  0  0
   50.2575    1.4630   16.9350 N   0  0  0  0  0  0  0  0  0  0  0  0
   49.6842    9.0611   21.9148 C   0  0  0  0  0  0  0  0  0  0  0  0
   47.4528   10.7863   20.9531 C   0  0  0  0  0  0  0  0  0  0  0  0
   47.6572   12.2287   17.0744 O   0  0  0  0  0  0  0  0  0  0  0  0
   46.7559   11.9320   20.5694 C   0  0  0  0  0  0  0  0  0  0  0  0
   46.8605   12.4081   19.2672 C   0  0  0  0  0  0  0  0  0  0  0  0
   54.3644    5.0506   19.1003 C   0  0  0  0  0  0  0  0  0  0  0  0
   53.3640    3.9425   20.9745 C   0  0  0  0  0  0  0  0  0  0  0  0
   48.4647    7.4490   19.0342 C   0  0  2  0  0  0  0  0  0  0  0  0
   49.9333    5.4367   18.5614 C   0  0  0  0  0  0  0  0  0  0  0  0
   49.4722    7.8102   20.1359 C   0  0  2  0  0  0  0  0  0  0  0  0
   49.3074    9.7117   18.0171 C   0  0  0  0  0  0  0  0  0  0  0  0
   48.7649    6.0925   18.3964 C   0  0  0  0  0  0  0  0  0  0  0  0
   51.1145    5.9823   19.3324 C   0  0  1  0  0  0  0  0  0  0  0  0
   48.3633    8.5496   17.9345 C   0  0  0  0  0  0  0  0  0  0  0  0
   49.7900   10.0960   19.2345 C   0  0  0  0  0  0  0  0  0  0  0  0
   50.1077    4.0727   17.9721 C   0  0  0  0  0  0  0  0  0  0  0  0
   52.4379    5.7219   18.5248 C   0  0  1  0  0  0  0  0  0  0  0  0
   49.3041    9.3189   20.4882 C   0  0  1  0  0  0  0  0  0  0  0  0
   50.9272    7.4669   19.7221 C   0  0  2  0  0  0  0  0  0  0  0  0
   51.4446    3.4423   18.0122 C   0  0  0  0  0  0  0  0  0  0  0  0
   52.5849    4.2120   18.3083 C   0  0  0  0  0  0  0  0  0  0  0  0
   49.7770   10.3335   16.7353 C   0  0  0  0  0  0  0  0  0  0  0  0
   50.6727   10.9520   19.5471 O   0  0  0  0  0  0  0  0  0  0  0  0
   47.9061    9.6591   20.9204 N   0  0  0  0  0  0  0  0  0  0  0  0
   47.5220    8.5083   17.0325 O   0  0  0  0  0  0  0  0  0  0  0  0
   49.1592    3.4525   17.4900 O   0  0  0  0  0  0  0  0  0  0  0  0
   51.5664    2.0685   17.7248 C   0  0  0  0  0  0  0  0  0  0  0  0
   47.1808    7.3037   19.6750 O   0  0  0  0  0  0  0  0  0  0  0  0
   49.8507    9.7201   15.6743 O   0  0  0  0  0  0  0  0  0  0  0  0
   47.7015    5.5454   17.6858 O   0  0  0  0  0  0  0  0  0  0  0  0
   52.3975    6.2635   17.1932 O   0  0  0  0  0  0  0  0  0  0  0  0
   51.7873    7.7787   20.8289 O   0  0  0  0  0  0  0  0  0  0  0  0
   50.1967   11.6261   16.8292 N   0  0  0  0  0  0  0  0  0  0  0  0
   53.6718    6.3593   19.1809 C   0  0  0  0  0  0  0  0  0  0  0  0
   53.8296    3.5514   18.3343 C   0  0  0  0  0  0  0  0  0  0  0  0
   50.4979    1.2684   17.4026 O   0  0  0  0  0  0  0  0  0  0  0  0
   53.9388    2.1792   18.0729 C   0  0  0  0  0  0  0  0  0  0  0  0
   52.8056    1.4385   17.7616 C   0  0  0  0  0  0  0  0  0  0  0  0
   47.6705    9.1777   22.2912 C   0  0  0  0  0  0  0  0  0  0  0  0
   47.6863   11.1153   20.9129 C   0  0  0  0  0  0  0  0  0  0  0  0
   50.3147    7.0498   19.0334 Ca  0  0  0  0  0 15  0  0  0  0  0  0
   52.4197    6.8242   18.3158 H   0  0  0  0  0  0  0  0  0  0  0  0
   50.9822    9.2958   19.5448 H   0  0  0  0  0  0  0  0  0  0  0  0
   51.1717    4.7108   20.0642 H   0  0  0  0  0  0  0  0  0  0  0  0
   50.2737    6.5445   20.4667 H   0  0  0  0  0  0  0  0  0  0  0  0
   51.8259    5.1801   16.4372 H   0  0  0  0  0  0  0  0  0  0  0  0
   49.8247    6.9471   15.4205 H   0  0  0  0  0  0  0  0  0  0  0  0
   47.8555    7.5096   19.7287 H   0  0  0  0  0  0  0  0  0  0  0  0
   52.6383    6.7127   20.7730 H   0  0  0  0  0  0  0  0  0  0  0  0
   51.1765    1.4752   17.3991 H   0  0  0  0  0  0  0  0  0  0  0  0
   50.1322    0.8422   16.1513 H   0  0  0  0  0  0  0  0  0  0  0  0
   50.3867    9.9032   21.9386 H   0  0  0  0  0  0  0  0  0  0  0  0
   48.9173    9.2375   22.6782 H   0  0  0  0  0  0  0  0  0  0  0  0
   50.1979    8.1598   22.2605 H   0  0  0  0  0  0  0  0  0  0  0  0
   47.3221   10.4252   21.9709 H   0  0  0  0  0  0  0  0  0  0  0  0
   48.2134   11.6299   16.5257 H   0  0  0  0  0  0  0  0  0  0  0  0
   46.1310   12.4531   21.2887 H   0  0  0  0  0  0  0  0  0  0  0  0
   46.3230   13.2983   18.9578 H   0  0  0  0  0  0  0  0  0  0  0  0
   54.6323    4.0835   18.6551 H   0  0  0  0  0  0  0  0  0  0  0  0
   54.2512    5.7789   18.2913 H   0  0  0  0  0  0  0  0  0  0  0  0
   55.2350    5.3897   19.6774 H   0  0  0  0  0  0  0  0  0  0  0  0
   52.5117    3.9137   21.6616 H   0  0  0  0  0  0  0  0  0  0  0  0
   53.4985    2.9475   20.5394 H   0  0  0  0  0  0  0  0  0  0  0  0
   54.2456    4.1511   21.5931 H   0  0  0  0  0  0  0  0  0  0  0  0
   49.2520    7.2219   21.0414 H   0  0  0  0  0  0  0  0  0  0  0  0
   51.1814    5.4106   20.2726 H   0  0  0  0  0  0  0  0  0  0  0  0
   49.9685    9.5334   21.3402 H   0  0  0  0  0  0  0  0  0  0  0  0
   51.2669    8.0700   18.8763 H   0  0  0  0  0  0  0  0  0  0  0  0
   46.9570    8.2115   19.9775 H   0  0  0  0  0  0  0  0  0  0  0  0
   47.9385    4.6329   17.4002 H   0  0  0  0  0  0  0  0  0  0  0  0
   51.5978    6.8002   17.0538 H   0  0  0  0  0  0  0  0  0  0  0  0
   51.8924    8.7571   20.8005 H   0  0  0  0  0  0  0  0  0  0  0  0
   50.4466   11.9022   17.7880 H   0  0  0  0  0  0  0  0  0  0  0  0
   50.7476   11.9799   16.0654 H   0  0  0  0  0  0  0  0  0  0  0  0
   54.5766    6.2022   18.5820 H   0  0  0  0  0  0  0  0  0  0  0  0
   53.8439    5.9798   20.1918 H   0  0  0  0  0  0  0  0  0  0  0  0
   53.5800    7.4488   19.2190 H   0  0  0  0  0  0  0  0  0  0  0  0
   54.7516    4.0875   18.5396 H   0  0  0  0  0  0  0  0  0  0  0  0
   49.7045    1.8438   17.3361 H   0  0  0  0  0  0  0  0  0  0  0  0
   54.9138    1.6948   18.0968 H   0  0  0  0  0  0  0  0  0  0  0  0
   52.8814    0.3771   17.5378 H   0  0  0  0  0  0  0  0  0  0  0  0
   47.7316    8.0898   22.3529 H   0  0  0  0  0  0  0  0  0  0  0  0
   46.6598    9.4359   22.6202 H   0  0  0  0  0  0  0  0  0  0  0  0
   48.3817    9.6003   23.0091 H   0  0  0  0  0  0  0  0  0  0  0  0
   46.6927   11.3499   21.3149 H   0  0  0  0  0  0  0  0  0  0  0  0
   48.4242   11.6548   21.5191 H   0  0  0  0  0  0  0  0  0  0  0  0
   47.6864   11.5130   19.8935 H   0  0  0  0  0  0  0  0  0  0  0  0
  2  5  2  0
  3  1  1  0
  4  7  1  0
  5  1  1  0
  6  2  1  0
  7  1  1  0
  8  4  2  0
  9  2  1  0
 10  6  1  0
  3 11  1  0
 12  3  1  0
 13  9  1  0
 14 13  2  0
 15  4  1  0
 16  8  1  0
 11 17  1  0
 18  7  2  0
 19  9  2  0
 20 13  1  0
  1 21  1  6
 22 15  2  0
 23  5  1  0
 10 24  1  1
 12 25  1  0
 26 15  1  0
 10 27  1  0
 28 14  1  0
 29 20  1  0
 30 31  1  0
 31 20  2  0
 32 17  1  0
 33 17  1  0
 12  6  1  0
 11  8  1  0
 10 14  1  0
 30 28  2  0
 35 38  2  0
 36 34  1  0
 37 40  1  0
 38 34  1  0
 39 35  1  0
 40 34  1  0
 41 37  2  0
 42 35  1  0
 43 39  1  0
 36 44  1  0
 45 36  1  0
 46 42  1  0
 47 46  2  0
 48 37  1  0
 49 41  1  0
 44 50  1  0
 51 40  2  0
 52 42  2  0
 53 46  1  0
 34 54  1  1
 55 48  2  0
 56 38  1  0
 43 57  1  6
 45 58  1  0
 59 48  1  0
 43 60  1  0
 61 47  1  0
 62 53  1  0
 63 64  1  0
 64 53  2  0
 65 50  1  0
 66 50  1  0
 45 39  1  0
 44 41  1  0
 43 47  1  0
 63 61  2  0
  3 68  1  6
  6 69  1  6
 11 70  1  1
 12 71  1  1
 21 72  1  0
 23 73  1  0
 24 74  1  0
 25 75  1  0
 26 76  1  0
 26 77  1  0
 27 78  1  0
 27 79  1  0
 27 80  1  0
 28 81  1  0
 29 82  1  0
 30 83  1  0
 31 84  1  0
 32 85  1  0
 32 86  1  0
 32 87  1  0
 33 88  1  0
 33 89  1  0
 33 90  1  0
 36 91  1  1
 39 92  1  1
 44 93  1  6
 45 94  1  6
 54 95  1  0
 56 96  1  0
 57 97  1  0
 58 98  1  0
 59 99  1  0
 59100  1  0
 60101  1  0
 60102  1  0
 60103  1  0
 61104  1  0
 62105  1  0
 63106  1  0
 64107  1  0
 65108  1  0
 65109  1  0
 65110  1  0
 66111  1  0
 66112  1  0
 66113  1  0
M  CHG  3  16  -1  49  -1  67   2
M  END
> <Uni-Dock RESULT> 
ENERGY=   -5.876  LOWER_BOUND=   10.461  UPPER_BOUND=   13.163
INTER + INTRA:          -5.876
INTER:                  -5.876
INTRA:                   0.000
UNBOUND:                 0.000

$$$$

     RDKit          3D

113118  0  0  0  0  0  0  0  0999 V2000
   48.5091    8.4438   18.1981 C   0  0  2  0  0  0  0  0  0  0  0  0
   49.2311    6.0441   18.2311 C   0  0  0  0  0  0  0  0  0  0  0  0
   48.7761    8.5019   19.7015 C   0  0  2  0  0  0  0  0  0  0  0  0
   49.1157   10.8459   17.8098 C   0  0  0  0  0  0  0  0  0  0  0  0
   48.6136    7.0579   17.6114 C   0  0  0  0  0  0  0  0  0  0  0  0
   49.9703    6.1591   19.5332 C   0  0  1  0  0  0  0  0  0  0  0  0
   49.4909    9.4315   17.5386 C   0  0  0  0  0  0  0  0  0  0  0  0
   48.7299   11.0928   19.1004 C   0  0  0  0  0  0  0  0  0  0  0  0
   49.1531    4.6601   17.6921 C   0  0  0  0  0  0  0  0  0  0  0  0
   51.4287    5.5985   19.3640 C   0  0  1  0  0  0  0  0  0  0  0  0
   49.1138    9.9863   20.1596 C   0  0  1  0  0  0  0  0  0  0  0  0
   49.9451    7.5846   20.1458 C   0  0  2  0  0  0  0  0  0  0  0  0
   50.3518    3.8004   17.8813 C   0  0  0  0  0  0  0  0  0  0  0  0
   51.4505    4.2465   18.6393 C   0  0  0  0  0  0  0  0  0  0  0  0
   48.8917   11.7681   16.6605 C   0  0  0  0  0  0  0  0  0  0  0  0
   48.1207   12.0966   19.5655 O   0  0  0  0  0  0  0  0  0  0  0  0
   48.8418   10.0891   21.6237 N   0  0  0  0  0  0  0  0  0  0  0  0
   50.5184    9.1068   16.9487 O   0  0  0  0  0  0  0  0  0  0  0  0
   48.1530    4.1952   17.1511 O   0  0  0  0  0  0  0  0  0  0  0  0
   50.3835    2.5360   17.2583 C   0  0  0  0  0  0  0  0  0  0  0  0
   47.1296    8.8003   17.9342 O   0  0  0  0  0  0  0  0  0  0  0  0
   48.7959   11.3787   15.4986 O   0  0  0  0  0  0  0  0  0  0  0  0
   47.9214    6.8708   16.4245 O   0  0  0  0  0  0  0  0  0  0  0  0
   52.2314    6.4927   18.5779 O   0  0  0  0  0  0  0  0  0  0  0  0
   49.8776    7.4370   21.5773 O   0  0  0  0  0  0  0  0  0  0  0  0
   48.7465   13.0828   16.9854 N   0  0  0  0  0  0  0  0  0  0  0  0
   52.1076    5.5051   20.7456 C   0  0  0  0  0  0  0  0  0  0  0  0
   52.5974    3.4249   18.6687 C   0  0  0  0  0  0  0  0  0  0  0  0
   49.3395    2.0323   16.5209 O   0  0  0  0  0  0  0  0  0  0  0  0
   52.6210    2.1771   18.0459 C   0  0  0  0  0  0  0  0  0  0  0  0
   51.5053    1.7237   17.3510 C   0  0  0  0  0  0  0  0  0  0  0  0
   47.4194   10.2470   21.9474 C   0  0  0  0  0  0  0  0  0  0  0  0
   49.6088   11.1722   22.2505 C   0  0  0  0  0  0  0  0  0  0  0  0
   50.8455    6.8827   17.7635 C   0  0  2  0  0  0  0  0  0  0  0  0
   49.7702    9.1142   18.3054 C   0  0  0  0  0  0  0  0  0  0  0  0
   51.0132    6.6992   19.2792 C   0  0  2  0  0  0  0  0  0  0  0  0
   49.2885    4.7941   18.0430 C   0  0  0  0  0  0  0  0  0  0  0  0
   50.3128    8.2694   17.4029 C   0  0  0  0  0  0  0  0  0  0  0  0
   49.5545    8.7779   19.7641 C   0  0  1  0  0  0  0  0  0  0  0  0
   49.9482    5.7791   17.1247 C   0  0  0  0  0  0  0  0  0  0  0  0
   49.8747    4.4991   19.2396 C   0  0  0  0  0  0  0  0  0  0  0  0
   49.3551   10.4871   17.8800 C   0  0  0  0  0  0  0  0  0  0  0  0
   48.1257    9.2578   20.2109 C   0  0  1  0  0  0  0  0  0  0  0  0
   51.2270    5.1845   19.5761 C   0  0  1  0  0  0  0  0  0  0  0  0
   49.8118    7.2837   20.0673 C   0  0  2  0  0  0  0  0  0  0  0  0
   48.6073   11.3352   18.8329 C   0  0  0  0  0  0  0  0  0  0  0  0
   48.0294   10.7704   19.9850 C   0  0  0  0  0  0  0  0  0  0  0  0
   47.9417    4.2590   17.6558 C   0  0  0  0  0  0  0  0  0  0  0  0
   49.4632    3.8057   20.2192 O   0  0  0  0  0  0  0  0  0  0  0  0
   52.4068    4.6127   18.8425 N   0  0  0  0  0  0  0  0  0  0  0  0
   49.7939    5.6757   15.9047 O   0  0  0  0  0  0  0  0  0  0  0  0
   49.6529   10.9367   16.7728 O   0  0  0  0  0  0  0  0  0  0  0  0
   48.4580   12.7092   18.5604 C   0  0  0  0  0  0  0  0  0  0  0  0
   52.1652    6.8091   17.1863 O   0  0  0  0  0  0  0  0  0  0  0  0
   47.1478    4.8744   16.9498 O   0  0  0  0  0  0  0  0  0  0  0  0
   50.5003    8.6272   16.0718 O   0  0  0  0  0  0  0  0  0  0  0  0
   47.0722    8.7152   19.3960 O   0  0  0  0  0  0  0  0  0  0  0  0
   50.0820    7.1239   21.4686 O   0  0  0  0  0  0  0  0  0  0  0  0
   47.6086    3.0564   18.2024 N   0  0  0  0  0  0  0  0  0  0  0  0
   47.7786    8.8399   21.6476 C   0  0  0  0  0  0  0  0  0  0  0  0
   47.3324   11.6326   20.8553 C   0  0  0  0  0  0  0  0  0  0  0  0
   48.9737   13.3160   17.4417 O   0  0  0  0  0  0  0  0  0  0  0  0
   47.2108   13.0031   20.5902 C   0  0  0  0  0  0  0  0  0  0  0  0
   47.7695   13.5403   19.4374 C   0  0  0  0  0  0  0  0  0  0  0  0
   53.6585    5.0492   19.4818 C   0  0  0  0  0  0  0  0  0  0  0  0
   52.3833    3.1403   18.8623 C   0  0  0  0  0  0  0  0  0  0  0  0
   49.7167    7.5898   19.1079 Ca  0  0  0  0  0 15  0  0  0  0  0  0
   47.8582    8.1681   20.2071 H   0  0  0  0  0  0  0  0  0  0  0  0
   49.4440    5.4903   20.2346 H   0  0  0  0  0  0  0  0  0  0  0  0
   50.2163   10.0419   20.1107 H   0  0  0  0  0  0  0  0  0  0  0  0
   50.8957    8.0831   19.9312 H   0  0  0  0  0  0  0  0  0  0  0  0
   46.9714    9.6848   18.3369 H   0  0  0  0  0  0  0  0  0  0  0  0
   47.2687    7.6024   16.4040 H   0  0  0  0  0  0  0  0  0  0  0  0
   51.7570    6.7207   17.7573 H   0  0  0  0  0  0  0  0  0  0  0  0
   49.6153    8.3187   21.9358 H   0  0  0  0  0  0  0  0  0  0  0  0
   48.5191   13.2274   17.9791 H   0  0  0  0  0  0  0  0  0  0  0  0
   48.2921   13.6721   16.3061 H   0  0  0  0  0  0  0  0  0  0  0  0
   51.5904    4.7944   21.4017 H   0  0  0  0  0  0  0  0  0  0  0  0
   53.1593    5.2024   20.6798 H   0  0  0  0  0  0  0  0  0  0  0  0
   52.1445    6.4809   21.2376 H   0  0  0  0  0  0  0  0  0  0  0  0
   53.4992    3.7602   19.1763 H   0  0  0  0  0  0  0  0  0  0  0  0
   48.6313    2.7159   16.5101 H   0  0  0  0  0  0  0  0  0  0  0  0
   53.5118    1.5587   18.1042 H   0  0  0  0  0  0  0  0  0  0  0  0
   51.5125    0.7547   16.8630 H   0  0  0  0  0  0  0  0  0  0  0  0
   47.0128   11.2448   21.7372 H   0  0  0  0  0  0  0  0  0  0  0  0
   46.7924    9.5089   21.4378 H   0  0  0  0  0  0  0  0  0  0  0  0
   47.2740   10.0613   23.0200 H   0  0  0  0  0  0  0  0  0  0  0  0
   50.6782   11.0571   22.0443 H   0  0  0  0  0  0  0  0  0  0  0  0
   49.2974   12.1749   21.9423 H   0  0  0  0  0  0  0  0  0  0  0  0
   49.5023   11.1171   23.3409 H   0  0  0  0  0  0  0  0  0  0  0  0
   51.9100    7.2431   19.6174 H   0  0  0  0  0  0  0  0  0  0  0  0
   50.2944    9.3541   20.3436 H   0  0  0  0  0  0  0  0  0  0  0  0
   51.4364    5.0870   20.6532 H   0  0  0  0  0  0  0  0  0  0  0  0
   48.8834    6.7456   19.8596 H   0  0  0  0  0  0  0  0  0  0  0  0
   52.4409    5.8769   17.3305 H   0  0  0  0  0  0  0  0  0  0  0  0
   50.2298    9.5662   15.9479 H   0  0  0  0  0  0  0  0  0  0  0  0
   47.4138    8.0504   18.7728 H   0  0  0  0  0  0  0  0  0  0  0  0
   49.8883    6.1775   21.6579 H   0  0  0  0  0  0  0  0  0  0  0  0
   48.1556    2.8282   19.0431 H   0  0  0  0  0  0  0  0  0  0  0  0
   46.6362    2.8000   18.1742 H   0  0  0  0  0  0  0  0  0  0  0  0
   46.7637    9.1473   21.9256 H   0  0  0  0  0  0  0  0  0  0  0  0
   48.4854    9.2446   22.3771 H   0  0  0  0  0  0  0  0  0  0  0  0
   47.7485    7.7506   21.7454 H   0  0  0  0  0  0  0  0  0  0  0  0
   46.8483   11.2609   21.7536 H   0  0  0  0  0  0  0  0  0  0  0  0
   49.3631   12.6143   16.8752 H   0  0  0  0  0  0  0  0  0  0  0  0
   46.6640   13.6458   21.2784 H   0  0  0  0  0  0  0  0  0  0  0  0
   47.6643   14.5989   19.2119 H   0  0  0  0  0  0  0  0  0  0  0  0
   53.7844    6.1318   19.4251 H   0  0  0  0  0  0  0  0  0  0  0  0
   54.5228    4.6239   18.9636 H   0  0  0  0  0  0  0  0  0  0  0  0
   53.7131    4.7545   20.5353 H   0  0  0  0  0  0  0  0  0  0  0  0
   53.2952    2.7412   18.4008 H   0  0  0  0  0  0  0  0  0  0  0  0
   52.3226    2.7347   19.8795 H   0  0  0  0  0  0  0  0  0  0  0  0
   51.5589    2.7468   18.2598 H   0  0  0  0  0  0  0  0  0  0  0  0
  2  5  2  0
  3  1  1  0
  4  7  1  0
  5  1  1  0
  6  2  1  0
  7  1  1  0
  8  4  2  0
  9  2  1  0
 10  6  1  0
  3 11  1  0
 12  3  1  0
 13  9  1  0
 14 13  2  0
 15  4  1  0
 16  8  1  0
 11 17  1  0
 18  7  2  0
 19  9  2  0
 20 13  1  0
  1 21  1  6
 22 15  2  0
 23  5  1  0
 10 24  1  1
 12 25  1  0
 26 15  1  0
 10 27  1  0
 28 14  1  0
 29 20  1  0
 30 31  1  0
 31 20  2  0
 32 17  1  0
 33 17  1  0
 12  6  1  0
 11  8  1  0
 10 14  1  0
 30 28  2  0
 35 38  2  0
 36 34  1  0
 37 40  1  0
 38 34  1  0
 39 35  1  0
 40 34  1  0
 41 37  2  0
 42 35  1  0
 43 39  1  0
 36 44  1  0
 45 36  1  0
 46 42  1  0
 47 46  2  0
 48 37  1  0
 49 41  1  0
 44 50  1  0
 51 40  2  0
 52 42  2  0
 53 46  1  0
 34 54  1  1
 55 48  2  0
 56 38  1  0
 43 57  1  6
 45 58  1  0
 59 48  1  0
 43 60  1  0
 61 47  1  0
 62 53  1  0
 63 64  1  0
 64 53  2  0
 65 50  1  0
 66 50  1  0
 45 39  1  0
 44 41  1  0
 43 47  1  0
 63 61  2  0
  3 68  1  6
  6 69  1  6
 11 70  1  1
 12 71  1  1
 21 72  1  0
 23 73  1  0
 24 74  1  0
 25 75  1  0
 26 76  1  0
 26 77  1  0
 27 78  1  0
 27 79  1  0
 27 80  1  0
 28 81  1  0
 29 82  1  0
 30 83  1  0
 31 84  1  0
 32 85  1  0
 32 86  1  0
 32 87  1  0
 33 88  1  0
 33 89  1  0
 33 90  1  0
 36 91  1  1
 39 92  1  1
 44 93  1  6
 45 94  1  6
 54 95  1  0
 56 96  1  0
 57 97  1  0
 58 98  1  0
 59 99  1  0
 59100  1  0
 60101  1  0
 60102  1  0
 60103  1  0
 61104  1  0
 62105  1  0
 63106  1  0
 64107  1  0
 65108  1  0
 65109  1  0
 65110  1  0
 66111  1  0
 66112  1  0
 66113  1  0
M  CHG  3  16  -1  49  -1  67   2
M  END
> <Uni-Dock RESULT> 
ENERGY=   -5.394  LOWER_BOUND=   10.092  UPPER_BOUND=   13.230
INTER + INTRA:          -5.394
INTER:                  -5.394
INTRA:                   0.000
UNBOUND:                 0.000

$$$$

     RDKit          3D

113118  0  0  0  0  0  0  0  0999 V2000
   52.1215    7.7850   17.0149 C   0  0  2  0  0  0  0  0  0  0  0  0
   50.4072    9.1907   15.8461 C   0  0  0  0  0  0  0  0  0  0  0  0
   51.0463    6.7193   17.2222 C   0  0  2  0  0  0  0  0  0  0  0  0
   53.9944    6.1264   16.8412 C   0  0  0  0  0  0  0  0  0  0  0  0
   51.5963    9.0824   16.4523 C   0  0  0  0  0  0  0  0  0  0  0  0
   49.4811    8.0423   15.5659 C   0  0  1  0  0  0  0  0  0  0  0  0
   53.1994    7.1526   16.1134 C   0  0  0  0  0  0  0  0  0  0  0  0
   53.2527    5.2915   17.6338 C   0  0  0  0  0  0  0  0  0  0  0  0
   49.8625   10.5221   15.4680 C   0  0  0  0  0  0  0  0  0  0  0  0
   49.1105    8.0227   14.0388 C   0  0  1  0  0  0  0  0  0  0  0  0
   51.6984    5.2755   17.3557 C   0  0  1  0  0  0  0  0  0  0  0  0
   50.0083    6.6728   16.0708 C   0  0  2  0  0  0  0  0  0  0  0  0
   49.0472   10.5825   14.2257 C   0  0  0  0  0  0  0  0  0  0  0  0
   48.7152    9.4112   13.5196 C   0  0  0  0  0  0  0  0  0  0  0  0
   55.4765    6.2706   16.9048 C   0  0  0  0  0  0  0  0  0  0  0  0
   53.6447    4.5161   18.5504 O   0  0  0  0  0  0  0  0  0  0  0  0
   50.7234    4.3939   18.0631 N   0  0  0  0  0  0  0  0  0  0  0  0
   53.3289    7.3809   14.9133 O   0  0  0  0  0  0  0  0  0  0  0  0
   50.0161   11.5372   16.1422 O   0  0  0  0  0  0  0  0  0  0  0  0
   48.6368   11.8431   13.7457 C   0  0  0  0  0  0  0  0  0  0  0  0
   52.6622    8.1876   18.2976 O   0  0  0  0  0  0  0  0  0  0  0  0
   56.0643    7.2965   16.5690 O   0  0  0  0  0  0  0  0  0  0  0  0
   52.3858   10.1935   16.7074 O   0  0  0  0  0  0  0  0  0  0  0  0
   50.2306    7.5978   13.2471 O   0  0  0  0  0  0  0  0  0  0  0  0
   48.8709    5.9144   16.5252 O   0  0  0  0  0  0  0  0  0  0  0  0
   56.1469    5.1995   17.4131 N   0  0  0  0  0  0  0  0  0  0  0  0
   47.9892    6.9925   13.7945 C   0  0  0  0  0  0  0  0  0  0  0  0
   48.0463    9.5622   12.2864 C   0  0  0  0  0  0  0  0  0  0  0  0
   48.9104   13.0226   14.3947 O   0  0  0  0  0  0  0  0  0  0  0  0
   47.6476   10.8138   11.8175 C   0  0  0  0  0  0  0  0  0  0  0  0
   47.9300   11.9573   12.5565 C   0  0  0  0  0  0  0  0  0  0  0  0
   50.7043    4.5873   19.5175 C   0  0  0  0  0  0  0  0  0  0  0  0
   50.9464    2.9749   17.7617 C   0  0  0  0  0  0  0  0  0  0  0  0
   51.1953    8.3198   14.3803 C   0  0  2  0  0  0  0  0  0  0  0  0
   52.4036    6.8015   16.0127 C   0  0  0  0  0  0  0  0  0  0  0  0
   49.9541    7.4510   14.6329 C   0  0  2  0  0  0  0  0  0  0  0  0
   49.6880   10.1629   15.4736 C   0  0  0  0  0  0  0  0  0  0  0  0
   52.4434    7.7597   15.0625 C   0  0  0  0  0  0  0  0  0  0  0  0
   51.1292    6.2111   16.5736 C   0  0  1  0  0  0  0  0  0  0  0  0
   50.9771    9.8068   14.7953 C   0  0  0  0  0  0  0  0  0  0  0  0
   48.5710    9.4214   15.2186 C   0  0  0  0  0  0  0  0  0  0  0  0
   53.6804    6.2496   16.5632 C   0  0  0  0  0  0  0  0  0  0  0  0
   51.2404    6.1049   18.1381 C   0  0  1  0  0  0  0  0  0  0  0  0
   48.6895    8.2532   14.2022 C   0  0  1  0  0  0  0  0  0  0  0  0
   49.8707    6.9796   16.1085 C   0  0  2  0  0  0  0  0  0  0  0  0
   53.6219    5.3306   17.7201 C   0  0  0  0  0  0  0  0  0  0  0  0
   52.4427    5.2185   18.4799 C   0  0  0  0  0  0  0  0  0  0  0  0
   49.7084   11.2552   16.5017 C   0  0  0  0  0  0  0  0  0  0  0  0
   47.4171    9.4472   15.7452 O   0  0  0  0  0  0  0  0  0  0  0  0
   48.7437    8.6896   12.7657 N   0  0  0  0  0  0  0  0  0  0  0  0
   51.8066   10.6889   14.5571 O   0  0  0  0  0  0  0  0  0  0  0  0
   54.7700    6.5139   16.0534 O   0  0  0  0  0  0  0  0  0  0  0  0
   54.7679    4.5890   18.0683 C   0  0  0  0  0  0  0  0  0  0  0  0
   51.4642    8.2605   12.9646 O   0  0  0  0  0  0  0  0  0  0  0  0
   50.7024   11.5422   17.1626 O   0  0  0  0  0  0  0  0  0  0  0  0
   53.6418    8.2661   14.5701 O   0  0  0  0  0  0  0  0  0  0  0  0
   51.5445    7.3631   18.7648 O   0  0  0  0  0  0  0  0  0  0  0  0
   48.7210    6.1287   16.2367 O   0  0  0  0  0  0  0  0  0  0  0  0
   48.5167   11.8780   16.7201 N   0  0  0  0  0  0  0  0  0  0  0  0
   49.9364    5.6318   18.7977 C   0  0  0  0  0  0  0  0  0  0  0  0
   52.4501    4.3227   19.5680 C   0  0  0  0  0  0  0  0  0  0  0  0
   55.9562    4.6730   17.3853 O   0  0  0  0  0  0  0  0  0  0  0  0
   53.5861    3.5692   19.8919 C   0  0  0  0  0  0  0  0  0  0  0  0
   54.7485    3.7079   19.1441 C   0  0  0  0  0  0  0  0  0  0  0  0
   48.4798    7.5442   11.8800 C   0  0  0  0  0  0  0  0  0  0  0  0
   47.7278    9.7178   12.4832 C   0  0  0  0  0  0  0  0  0  0  0  0
   50.7849    7.3924   15.9782 Ca  0  0  0  0  0 15  0  0  0  0  0  0
   50.5211    6.9659   18.1566 H   0  0  0  0  0  0  0  0  0  0  0  0
   48.5551    8.2636   16.1227 H   0  0  0  0  0  0  0  0  0  0  0  0
   51.6873    4.8759   16.3255 H   0  0  0  0  0  0  0  0  0  0  0  0
   50.4314    6.1192   15.2266 H   0  0  0  0  0  0  0  0  0  0  0  0
   52.9838    7.3745   18.7504 H   0  0  0  0  0  0  0  0  0  0  0  0
   52.9493    9.9248   17.4638 H   0  0  0  0  0  0  0  0  0  0  0  0
   51.0196    8.1139   13.4949 H   0  0  0  0  0  0  0  0  0  0  0  0
   49.2308    5.1676   17.0614 H   0  0  0  0  0  0  0  0  0  0  0  0
   55.5395    4.5639   17.9489 H   0  0  0  0  0  0  0  0  0  0  0  0
   57.0777    5.3678   17.7602 H   0  0  0  0  0  0  0  0  0  0  0  0
   47.0670    7.2681   14.3204 H   0  0  0  0  0  0  0  0  0  0  0  0
   47.7503    6.8725   12.7312 H   0  0  0  0  0  0  0  0  0  0  0  0
   48.2932    5.9910   14.1110 H   0  0  0  0  0  0  0  0  0  0  0  0
   47.8361    8.6933   11.6666 H   0  0  0  0  0  0  0  0  0  0  0  0
   49.4382   12.8013   15.1955 H   0  0  0  0  0  0  0  0  0  0  0  0
   47.1156   10.8954   10.8743 H   0  0  0  0  0  0  0  0  0  0  0  0
   47.6245   12.9360   12.2015 H   0  0  0  0  0  0  0  0  0  0  0  0
   51.5683    4.1622   20.0446 H   0  0  0  0  0  0  0  0  0  0  0  0
   50.6204    5.6425   19.7957 H   0  0  0  0  0  0  0  0  0  0  0  0
   49.8082    4.1053   19.9305 H   0  0  0  0  0  0  0  0  0  0  0  0
   50.9361    2.8040   16.6800 H   0  0  0  0  0  0  0  0  0  0  0  0
   51.8778    2.5732   18.1722 H   0  0  0  0  0  0  0  0  0  0  0  0
   50.1233    2.3766   18.1712 H   0  0  0  0  0  0  0  0  0  0  0  0
   50.0098    6.5425   14.0117 H   0  0  0  0  0  0  0  0  0  0  0  0
   51.0433    5.1862   16.1766 H   0  0  0  0  0  0  0  0  0  0  0  0
   47.8230    7.5809   14.3046 H   0  0  0  0  0  0  0  0  0  0  0  0
   49.7263    7.8145   16.7989 H   0  0  0  0  0  0  0  0  0  0  0  0
   50.7031    8.7270   12.5538 H   0  0  0  0  0  0  0  0  0  0  0  0
   54.3925    7.7805   14.9835 H   0  0  0  0  0  0  0  0  0  0  0  0
   51.5190    8.0935   18.1224 H   0  0  0  0  0  0  0  0  0  0  0  0
   47.9532    6.7437   16.2737 H   0  0  0  0  0  0  0  0  0  0  0  0
   47.7073   11.3238   16.4105 H   0  0  0  0  0  0  0  0  0  0  0  0
   48.4369   12.4200   17.5638 H   0  0  0  0  0  0  0  0  0  0  0  0
   50.0211    5.6042   19.8904 H   0  0  0  0  0  0  0  0  0  0  0  0
   49.6269    4.6461   18.4397 H   0  0  0  0  0  0  0  0  0  0  0  0
   49.1253    6.3455   18.6250 H   0  0  0  0  0  0  0  0  0  0  0  0
   51.5799    4.1991   20.2061 H   0  0  0  0  0  0  0  0  0  0  0  0
   55.8607    5.3774   16.7073 H   0  0  0  0  0  0  0  0  0  0  0  0
   53.5649    2.8867   20.7401 H   0  0  0  0  0  0  0  0  0  0  0  0
   55.6420    3.1427   19.3986 H   0  0  0  0  0  0  0  0  0  0  0  0
   49.2491    6.7758   11.9741 H   0  0  0  0  0  0  0  0  0  0  0  0
   48.5010    7.8566   10.8319 H   0  0  0  0  0  0  0  0  0  0  0  0
   47.5079    7.0795   12.0781 H   0  0  0  0  0  0  0  0  0  0  0  0
   47.7220    9.9598   11.4129 H   0  0  0  0  0  0  0  0  0  0  0  0
   46.7156    9.3942   12.7546 H   0  0  0  0  0  0  0  0  0  0  0  0
   47.9614   10.6588   12.9905 H   0  0  0  0  0  0  0  0  0  0  0  0
  2  5  2  0
  3  1  1  0
  4  7  1  0
  5  1  1  0
  6  2  1  0
  7  1  1  0
  8  4  2  0
  9  2  1  0
 10  6  1  0
  3 11  1  0
 12  3  1  0
 13  9  1  0
 14 13  2  0
 15  4  1  0
 16  8  1  0
 11 17  1  0
 18  7  2  0
 19  9  2  0
 20 13  1  0
  1 21  1  6
 22 15  2  0
 23  5  1  0
 10 24  1  1
 12 25  1  0
 26 15  1  0
 10 27  1  0
 28 14  1  0
 29 20  1  0
 30 31  1  0
 31 20  2  0
 32 17  1  0
 33 17  1  0
 12  6  1  0
 11  8  1  0
 10 14  1  0
 30 28  2  0
 35 38  2  0
 36 34  1  0
 37 40  1  0
 38 34  1  0
 39 35  1  0
 40 34  1  0
 41 37  2  0
 42 35  1  0
 43 39  1  0
 36 44  1  0
 45 36  1  0
 46 42  1  0
 47 46  2  0
 48 37  1  0
 49 41  1  0
 44 50  1  0
 51 40  2  0
 52 42  2  0
 53 46  1  0
 34 54  1  1
 55 48  2  0
 56 38  1  0
 43 57  1  6
 45 58  1  0
 59 48  1  0
 43 60  1  0
 61 47  1  0
 62 53  1  0
 63 64  1  0
 64 53  2  0
 65 50  1  0
 66 50  1  0
 45 39  1  0
 44 41  1  0
 43 47  1  0
 63 61  2  0
  3 68  1  6
  6 69  1  6
 11 70  1  1
 12 71  1  1
 21 72  1  0
 23 73  1  0
 24 74  1  0
 25 75  1  0
 26 76  1  0
 26 77  1  0
 27 78  1  0
 27 79  1  0
 27 80  1  0
 28 81  1  0
 29 82  1  0
 30 83  1  0
 31 84  1  0
 32 85  1  0
 32 86  1  0
 32 87  1  0
 33 88  1  0
 33 89  1  0
 33 90  1  0
 36 91  1  1
 39 92  1  1
 44 93  1  6
 45 94  1  6
 54 95  1  0
 56 96  1  0
 57 97  1  0
 58 98  1  0
 59 99  1  0
 59100  1  0
 60101  1  0
 60102  1  0
 60103  1  0
 61104  1  0
 62105  1  0
 63106  1  0
 64107  1  0
 65108  1  0
 65109  1  0
 65110  1  0
 66111  1  0
 66112  1  0
 66113  1  0
M  CHG  3  16  -1  49  -1  67   2
M  END
> <Uni-Dock RESULT> 
ENERGY=   -5.350  LOWER_BOUND=    8.666  UPPER_BOUND=   11.662
INTER + INTRA:          -5.350
INTER:                  -5.350
INTRA:                   0.000
UNBOUND:                 0.000

$$$$

     RDKit          3D

113118  0  0  0  0  0  0  0  0999 V2000
   48.8654   10.4090   12.9884 C   0  0  2  0  0  0  0  0  0  0  0  0
   51.2153    9.5739   13.2369 C   0  0  0  0  0  0  0  0  0  0  0  0
   49.3548   11.3308   11.8722 C   0  0  2  0  0  0  0  0  0  0  0  0
   46.5884   10.0968   11.9851 C   0  0  0  0  0  0  0  0  0  0  0  0
   49.9736    9.6963   13.7230 C   0  0  0  0  0  0  0  0  0  0  0  0
   51.6532   10.0422   11.8789 C   0  0  1  0  0  0  0  0  0  0  0  0
   47.8685    9.4273   12.3427 C   0  0  0  0  0  0  0  0  0  0  0  0
   46.7352   11.3307   11.4096 C   0  0  0  0  0  0  0  0  0  0  0  0
   52.3110    9.0183   14.0751 C   0  0  0  0  0  0  0  0  0  0  0  0
   52.3315    8.8550   11.1040 C   0  0  1  0  0  0  0  0  0  0  0  0
   48.1764   11.6695   10.8603 C   0  0  1  0  0  0  0  0  0  0  0  0
   50.5285   10.7269   11.0578 C   0  0  2  0  0  0  0  0  0  0  0  0
   53.3499    8.2184   13.3731 C   0  0  0  0  0  0  0  0  0  0  0  0
   53.3497    8.1027   11.9705 C   0  0  0  0  0  0  0  0  0  0  0  0
   45.3118    9.5567   12.5330 C   0  0  0  0  0  0  0  0  0  0  0  0
   45.8680   12.2335   11.2418 O   0  0  0  0  0  0  0  0  0  0  0  0
   48.5322   12.9307   10.1454 N   0  0  0  0  0  0  0  0  0  0  0  0
   48.1230    8.2602   12.0561 O   0  0  0  0  0  0  0  0  0  0  0  0
   52.4159    9.2225   15.2818 O   0  0  0  0  0  0  0  0  0  0  0  0
   54.3221    7.5470   14.1424 C   0  0  0  0  0  0  0  0  0  0  0  0
   48.2433   11.1970   14.0333 O   0  0  0  0  0  0  0  0  0  0  0  0
   45.2705    8.7165   13.4291 O   0  0  0  0  0  0  0  0  0  0  0  0
   49.6483    9.2688   15.0014 O   0  0  0  0  0  0  0  0  0  0  0  0
   51.3530    7.8867   10.6956 O   0  0  0  0  0  0  0  0  0  0  0  0
   51.1362   11.7883   10.2965 O   0  0  0  0  0  0  0  0  0  0  0  0
   44.1761   10.0955   12.0088 N   0  0  0  0  0  0  0  0  0  0  0  0
   52.9811    9.3888    9.8112 C   0  0  0  0  0  0  0  0  0  0  0  0
   54.2918    7.2275   11.3896 C   0  0  0  0  0  0  0  0  0  0  0  0
   54.3908    7.6320   15.5118 O   0  0  0  0  0  0  0  0  0  0  0  0
   55.2476    6.5642   12.1591 C   0  0  0  0  0  0  0  0  0  0  0  0
   55.2732    6.7359   13.5386 C   0  0  0  0  0  0  0  0  0  0  0  0
   48.2858   14.1429   10.9345 C   0  0  0  0  0  0  0  0  0  0  0  0
   47.8467   13.0415    8.8523 C   0  0  0  0  0  0  0  0  0  0  0  0
   50.5141    8.2846   12.0646 C   0  0  2  0  0  0  0  0  0  0  0  0
   48.4620    9.7473   11.7840 C   0  0  0  0  0  0  0  0  0  0  0  0
   51.2178    9.2439   11.0933 C   0  0  2  0  0  0  0  0  0  0  0  0
   52.3238    9.2033   13.7215 C   0  0  0  0  0  0  0  0  0  0  0  0
   49.0247    8.5965   12.2101 C   0  0  0  0  0  0  0  0  0  0  0  0
   49.2327   10.8982   11.1766 C   0  0  1  0  0  0  0  0  0  0  0  0
   51.1955    8.2490   13.4665 C   0  0  0  0  0  0  0  0  0  0  0  0
   53.0856    9.6334   12.6739 C   0  0  0  0  0  0  0  0  0  0  0  0
   46.9809    9.9313   11.8874 C   0  0  0  0  0  0  0  0  0  0  0  0
   48.7271   12.2544   11.7900 C   0  0  1  0  0  0  0  0  0  0  0  0
   52.7584    9.0793   11.2605 C   0  0  1  0  0  0  0  0  0  0  0  0
   50.7626   10.7122   11.3016 C   0  0  2  0  0  0  0  0  0  0  0  0
   46.4020   11.2566   11.5792 C   0  0  0  0  0  0  0  0  0  0  0  0
   47.2296   12.3917   11.4952 C   0  0  0  0  0  0  0  0  0  0  0  0
   52.4949    9.7404   15.1116 C   0  0  0  0  0  0  0  0  0  0  0  0
   53.9993   10.5115   12.6149 O   0  0  0  0  0  0  0  0  0  0  0  0
   53.2169    7.6671   11.0311 N   0  0  0  0  0  0  0  0  0  0  0  0
   50.8599    7.4504   14.3455 O   0  0  0  0  0  0  0  0  0  0  0  0
   46.2346    8.9984   12.1864 O   0  0  0  0  0  0  0  0  0  0  0  0
   45.0100   11.3738   11.3969 C   0  0  0  0  0  0  0  0  0  0  0  0
   50.5819    6.9703   11.4745 O   0  0  0  0  0  0  0  0  0  0  0  0
   51.5693    9.8558   15.9099 O   0  0  0  0  0  0  0  0  0  0  0  0
   48.2725    7.5606   12.7544 O   0  0  0  0  0  0  0  0  0  0  0  0
   48.8046   12.2834   13.2258 O   0  0  0  0  0  0  0  0  0  0  0  0
   51.4210   11.5235   10.3165 O   0  0  0  0  0  0  0  0  0  0  0  0
   53.7487   10.1721   15.4239 N   0  0  0  0  0  0  0  0  0  0  0  0
   49.5472   13.4645   11.3185 C   0  0  0  0  0  0  0  0  0  0  0  0
   46.6172   13.6251   11.1950 C   0  0  0  0  0  0  0  0  0  0  0  0
   44.1454   10.3112   11.4922 O   0  0  0  0  0  0  0  0  0  0  0  0
   45.2351   13.7286   10.9893 C   0  0  0  0  0  0  0  0  0  0  0  0
   44.4301   12.6016   11.0968 C   0  0  0  0  0  0  0  0  0  0  0  0
   53.2082    7.3614    9.5915 C   0  0  0  0  0  0  0  0  0  0  0  0
   54.5903    7.4669   11.5234 C   0  0  0  0  0  0  0  0  0  0  0  0
   50.1419   10.1272   11.8455 Ca  0  0  0  0  0 15  0  0  0  0  0  0
   49.7008   12.2603   12.3475 H   0  0  0  0  0  0  0  0  0  0  0  0
   52.4339   10.7992   12.0623 H   0  0  0  0  0  0  0  0  0  0  0  0
   48.2696   10.9044   10.0685 H   0  0  0  0  0  0  0  0  0  0  0  0
   50.1316   10.0126   10.3296 H   0  0  0  0  0  0  0  0  0  0  0  0
   47.5322   11.7338   13.6142 H   0  0  0  0  0  0  0  0  0  0  0  0
   48.8651    9.8055   15.2470 H   0  0  0  0  0  0  0  0  0  0  0  0
   50.7961    7.6443   11.4582 H   0  0  0  0  0  0  0  0  0  0  0  0
   50.3976   12.3622    9.9806 H   0  0  0  0  0  0  0  0  0  0  0  0
   44.3417   10.9919   11.5300 H   0  0  0  0  0  0  0  0  0  0  0  0
   43.3334    9.9989   12.5524 H   0  0  0  0  0  0  0  0  0  0  0  0
   53.7870   10.1003   10.0290 H   0  0  0  0  0  0  0  0  0  0  0  0
   53.3946    8.5894    9.1851 H   0  0  0  0  0  0  0  0  0  0  0  0
   52.2435    9.8740    9.1661 H   0  0  0  0  0  0  0  0  0  0  0  0
   54.2820    7.0446   10.3173 H   0  0  0  0  0  0  0  0  0  0  0  0
   53.6474    8.2053   15.8078 H   0  0  0  0  0  0  0  0  0  0  0  0
   55.9729    5.9132   11.6801 H   0  0  0  0  0  0  0  0  0  0  0  0
   56.0123    6.2251   14.1469 H   0  0  0  0  0  0  0  0  0  0  0  0
   47.2273   14.4187   11.0266 H   0  0  0  0  0  0  0  0  0  0  0  0
   48.7101   14.0773   11.9412 H   0  0  0  0  0  0  0  0  0  0  0  0
   48.7972   14.9899   10.4579 H   0  0  0  0  0  0  0  0  0  0  0  0
   48.0411   12.1577    8.2355 H   0  0  0  0  0  0  0  0  0  0  0  0
   46.7646   13.1833    8.9323 H   0  0  0  0  0  0  0  0  0  0  0  0
   48.2482   13.8958    8.2935 H   0  0  0  0  0  0  0  0  0  0  0  0
   50.9564    8.9740   10.0573 H   0  0  0  0  0  0  0  0  0  0  0  0
   48.9991   10.9135   10.0994 H   0  0  0  0  0  0  0  0  0  0  0  0
   53.2411    9.7058   10.4938 H   0  0  0  0  0  0  0  0  0  0  0  0
   51.0580   11.0989   12.2803 H   0  0  0  0  0  0  0  0  0  0  0  0
   51.5381    6.7444   11.4956 H   0  0  0  0  0  0  0  0  0  0  0  0
   47.3176    7.7988   12.7151 H   0  0  0  0  0  0  0  0  0  0  0  0
   49.2642   11.4982   13.5711 H   0  0  0  0  0  0  0  0  0  0  0  0
   52.3370   11.6425   10.6570 H   0  0  0  0  0  0  0  0  0  0  0  0
   54.3232   10.3804   14.5964 H   0  0  0  0  0  0  0  0  0  0  0  0
   53.8357   10.7627   16.2336 H   0  0  0  0  0  0  0  0  0  0  0  0
   49.2061   14.3941   11.7889 H   0  0  0  0  0  0  0  0  0  0  0  0
   49.5187   13.5841   10.2320 H   0  0  0  0  0  0  0  0  0  0  0  0
   50.5894   13.3852   11.6420 H   0  0  0  0  0  0  0  0  0  0  0  0
   47.1938   14.5433   11.1312 H   0  0  0  0  0  0  0  0  0  0  0  0
   44.6653    9.5293   11.7810 H   0  0  0  0  0  0  0  0  0  0  0  0
   44.7879   14.6950   10.7616 H   0  0  0  0  0  0  0  0  0  0  0  0
   43.3539   12.6740   10.9585 H   0  0  0  0  0  0  0  0  0  0  0  0
   52.2001    7.4053    9.1756 H   0  0  0  0  0  0  0  0  0  0  0  0
   53.5566    6.3398    9.4140 H   0  0  0  0  0  0  0  0  0  0  0  0
   53.8440    8.0436    9.0168 H   0  0  0  0  0  0  0  0  0  0  0  0
   54.9403    6.4587   11.2685 H   0  0  0  0  0  0  0  0  0  0  0  0
   55.3002    8.1825   11.0912 H   0  0  0  0  0  0  0  0  0  0  0  0
   54.6338    7.5199   12.6155 H   0  0  0  0  0  0  0  0  0  0  0  0
  2  5  2  0
  3  1  1  0
  4  7  1  0
  5  1  1  0
  6  2  1  0
  7  1  1  0
  8  4  2  0
  9  2  1  0
 10  6  1  0
  3 11  1  0
 12  3  1  0
 13  9  1  0
 14 13  2  0
 15  4  1  0
 16  8  1  0
 11 17  1  0
 18  7  2  0
 19  9  2  0
 20 13  1  0
  1 21  1  6
 22 15  2  0
 23  5  1  0
 10 24  1  1
 12 25  1  0
 26 15  1  0
 10 27  1  0
 28 14  1  0
 29 20  1  0
 30 31  1  0
 31 20  2  0
 32 17  1  0
 33 17  1  0
 12  6  1  0
 11  8  1  0
 10 14  1  0
 30 28  2  0
 35 38  2  0
 36 34  1  0
 37 40  1  0
 38 34  1  0
 39 35  1  0
 40 34  1  0
 41 37  2  0
 42 35  1  0
 43 39  1  0
 36 44  1  0
 45 36  1  0
 46 42  1  0
 47 46  2  0
 48 37  1  0
 49 41  1  0
 44 50  1  0
 51 40  2  0
 52 42  2  0
 53 46  1  0
 34 54  1  1
 55 48  2  0
 56 38  1  0
 43 57  1  6
 45 58  1  0
 59 48  1  0
 43 60  1  0
 61 47  1  0
 62 53  1  0
 63 64  1  0
 64 53  2  0
 65 50  1  0
 66 50  1  0
 45 39  1  0
 44 41  1  0
 43 47  1  0
 63 61  2  0
  3 68  1  6
  6 69  1  6
 11 70  1  1
 12 71  1  1
 21 72  1  0
 23 73  1  0
 24 74  1  0
 25 75  1  0
 26 76  1  0
 26 77  1  0
 27 78  1  0
 27 79  1  0
 27 80  1  0
 28 81  1  0
 29 82  1  0
 30 83  1  0
 31 84  1  0
 32 85  1  0
 32 86  1  0
 32 87  1  0
 33 88  1  0
 33 89  1  0
 33 90  1  0
 36 91  1  1
 39 92  1  1
 44 93  1  6
 45 94  1  6
 54 95  1  0
 56 96  1  0
 57 97  1  0
 58 98  1  0
 59 99  1  0
 59100  1  0
 60101  1  0
 60102  1  0
 60103  1  0
 61104  1  0
 62105  1  0
 63106  1  0
 64107  1  0
 65108  1  0
 65109  1  0
 65110  1  0
 66111  1  0
 66112  1  0
 66113  1  0
M  CHG  3  16  -1  49  -1  67   2
M  END
> <Uni-Dock RESULT> 
ENERGY=   -5.348  LOWER_BOUND=    4.732  UPPER_BOUND=    9.334
INTER + INTRA:          -5.348
INTER:                  -5.348
INTRA:                   0.000
UNBOUND:                 0.000

$$$$

     RDKit          3D

113118  0  0  0  0  0  0  0  0999 V2000
   49.8759    7.8307   18.8799 C   0  0  2  0  0  0  0  0  0  0  0  0
   50.6441    8.3408   16.5495 C   0  0  0  0  0  0  0  0  0  0  0  0
   48.9793    9.0661   18.8106 C   0  0  2  0  0  0  0  0  0  0  0  0
   48.3208    6.5577   20.3798 C   0  0  0  0  0  0  0  0  0  0  0  0
   50.8140    7.6892   17.7069 C   0  0  0  0  0  0  0  0  0  0  0  0
   49.4711    9.2212   16.2265 C   0  0  1  0  0  0  0  0  0  0  0  0
   48.9399    6.6157   19.0277 C   0  0  0  0  0  0  0  0  0  0  0  0
   47.8823    7.7649   20.8549 C   0  0  0  0  0  0  0  0  0  0  0  0
   51.6895    8.3024   15.4923 C   0  0  0  0  0  0  0  0  0  0  0  0
   48.8123    8.7504   14.8796 C   0  0  1  0  0  0  0  0  0  0  0  0
   47.7312    8.9151   19.7837 C   0  0  1  0  0  0  0  0  0  0  0  0
   48.4436    9.3474   17.3826 C   0  0  2  0  0  0  0  0  0  0  0  0
   51.2161    8.3287   14.0827 C   0  0  0  0  0  0  0  0  0  0  0  0
   49.8528    8.5031   13.7797 C   0  0  0  0  0  0  0  0  0  0  0  0
   48.4980    5.3289   21.2045 C   0  0  0  0  0  0  0  0  0  0  0  0
   47.5644    8.0820   22.0355 O   0  0  0  0  0  0  0  0  0  0  0  0
   47.2116   10.2825   20.0811 N   0  0  0  0  0  0  0  0  0  0  0  0
   48.6491    5.8426   18.1183 O   0  0  0  0  0  0  0  0  0  0  0  0
   52.8952    8.2943   15.7267 O   0  0  0  0  0  0  0  0  0  0  0  0
   52.1566    8.1424   13.0489 C   0  0  0  0  0  0  0  0  0  0  0  0
   50.7834    7.9499   20.0033 O   0  0  0  0  0  0  0  0  0  0  0  0
   49.2985    4.4409   20.9191 O   0  0  0  0  0  0  0  0  0  0  0  0
   51.9407    6.9176   17.9480 O   0  0  0  0  0  0  0  0  0  0  0  0
   48.1110    7.5105   15.0603 O   0  0  0  0  0  0  0  0  0  0  0  0
   47.9285   10.6926   17.3558 O   0  0  0  0  0  0  0  0  0  0  0  0
   47.7451    5.2718   22.3380 N   0  0  0  0  0  0  0  0  0  0  0  0
   47.7591    9.7847   14.4329 C   0  0  0  0  0  0  0  0  0  0  0  0
   49.4674    8.3926   12.4268 C   0  0  0  0  0  0  0  0  0  0  0  0
   53.5027    7.9854   13.2735 O   0  0  0  0  0  0  0  0  0  0  0  0
   50.4045    8.2043   11.4111 C   0  0  0  0  0  0  0  0  0  0  0  0
   51.7555    8.0940   11.7208 C   0  0  0  0  0  0  0  0  0  0  0  0
   47.9931   11.0004   21.0945 C   0  0  0  0  0  0  0  0  0  0  0  0
   45.7991   10.2591   20.4792 C   0  0  0  0  0  0  0  0  0  0  0  0
   49.2522    7.1301   16.1957 C   0  0  2  0  0  0  0  0  0  0  0  0
   48.5682    7.3024   18.6313 C   0  0  0  0  0  0  0  0  0  0  0  0
   48.5512    8.4825   15.9984 C   0  0  2  0  0  0  0  0  0  0  0  0
   51.3631    8.5300   15.5256 C   0  0  0  0  0  0  0  0  0  0  0  0
   49.0439    6.5691   17.6024 C   0  0  0  0  0  0  0  0  0  0  0  0
   48.2482    8.7782   18.5488 C   0  0  1  0  0  0  0  0  0  0  0  0
   50.7739    7.1926   15.8616 C   0  0  0  0  0  0  0  0  0  0  0  0
   50.5680    9.4909   14.9715 C   0  0  0  0  0  0  0  0  0  0  0  0
   48.3128    6.6483   19.9523 C   0  0  0  0  0  0  0  0  0  0  0  0
   48.8050    9.5112   19.8233 C   0  0  1  0  0  0  0  0  0  0  0  0
   49.0842    9.1320   14.6860 C   0  0  1  0  0  0  0  0  0  0  0  0
   48.7363    9.4126   17.2259 C   0  0  2  0  0  0  0  0  0  0  0  0
   47.9586    7.4942   21.1122 C   0  0  0  0  0  0  0  0  0  0  0  0
   48.1576    8.8864   21.0637 C   0  0  0  0  0  0  0  0  0  0  0  0
   52.7845    8.7965   15.9242 C   0  0  0  0  0  0  0  0  0  0  0  0
   50.7955   10.7120   14.7134 O   0  0  0  0  0  0  0  0  0  0  0  0
   48.8832    8.2539   13.4836 N   0  0  0  0  0  0  0  0  0  0  0  0
   51.4875    6.1861   15.8351 O   0  0  0  0  0  0  0  0  0  0  0  0
   48.3552    5.4245   20.0848 O   0  0  0  0  0  0  0  0  0  0  0  0
   47.4448    6.8872   22.2750 C   0  0  0  0  0  0  0  0  0  0  0  0
   48.6121    6.1950   15.3036 O   0  0  0  0  0  0  0  0  0  0  0  0
   53.3339    8.2468   16.8745 O   0  0  0  0  0  0  0  0  0  0  0  0
   49.3150    5.2101   17.7235 O   0  0  0  0  0  0  0  0  0  0  0  0
   50.2138    9.2999   20.0205 O   0  0  0  0  0  0  0  0  0  0  0  0
   48.0010   10.6213   16.9800 O   0  0  0  0  0  0  0  0  0  0  0  0
   53.4258    9.7582   15.2032 N   0  0  0  0  0  0  0  0  0  0  0  0
   48.6324   11.0360   19.7570 C   0  0  0  0  0  0  0  0  0  0  0  0
   47.7968    9.6373   22.2006 C   0  0  0  0  0  0  0  0  0  0  0  0
   47.2524    5.5330   22.3961 O   0  0  0  0  0  0  0  0  0  0  0  0
   47.2619    9.0288   23.3437 C   0  0  0  0  0  0  0  0  0  0  0  0
   47.0918    7.6506   23.3825 C   0  0  0  0  0  0  0  0  0  0  0  0
   47.4695    8.2741   13.0747 C   0  0  0  0  0  0  0  0  0  0  0  0
   49.6866    8.7228   12.3419 C   0  0  0  0  0  0  0  0  0  0  0  0
   49.0695    8.4956   17.4933 Ca  0  0  0  0  0 15  0  0  0  0  0  0
   49.5858    9.9255   19.1321 H   0  0  0  0  0  0  0  0  0  0  0  0
   49.8920   10.2251   16.0495 H   0  0  0  0  0  0  0  0  0  0  0  0
   46.9387    8.4855   19.1447 H   0  0  0  0  0  0  0  0  0  0  0  0
   47.5943    8.6874   17.1800 H   0  0  0  0  0  0  0  0  0  0  0  0
   50.2373    8.0961   20.8094 H   0  0  0  0  0  0  0  0  0  0  0  0
   52.0190    6.8977   18.9253 H   0  0  0  0  0  0  0  0  0  0  0  0
   48.6939    6.8681   15.5052 H   0  0  0  0  0  0  0  0  0  0  0  0
   47.4777   10.8351   18.2226 H   0  0  0  0  0  0  0  0  0  0  0  0
   47.3825    6.1917   22.6251 H   0  0  0  0  0  0  0  0  0  0  0  0
   48.0551    4.6401   23.0592 H   0  0  0  0  0  0  0  0  0  0  0  0
   48.2165   10.7577   14.2157 H   0  0  0  0  0  0  0  0  0  0  0  0
   47.2039    9.4648   13.5432 H   0  0  0  0  0  0  0  0  0  0  0  0
   46.9846    9.9178   15.1932 H   0  0  0  0  0  0  0  0  0  0  0  0
   48.4166    8.4428   12.1501 H   0  0  0  0  0  0  0  0  0  0  0  0
   53.6422    8.0071   14.2476 H   0  0  0  0  0  0  0  0  0  0  0  0
   50.0787    8.1441   10.3769 H   0  0  0  0  0  0  0  0  0  0  0  0
   52.4932    7.9476   10.9388 H   0  0  0  0  0  0  0  0  0  0  0  0
   47.8376   10.6485   22.1226 H   0  0  0  0  0  0  0  0  0  0  0  0
   49.0669   10.9776   20.8848 H   0  0  0  0  0  0  0  0  0  0  0  0
   47.7151   12.0627   21.0740 H   0  0  0  0  0  0  0  0  0  0  0  0
   45.1930    9.7515   19.7214 H   0  0  0  0  0  0  0  0  0  0  0  0
   45.6173    9.7864   21.4492 H   0  0  0  0  0  0  0  0  0  0  0  0
   45.4149   11.2850   20.5379 H   0  0  0  0  0  0  0  0  0  0  0  0
   47.4674    8.3203   15.8830 H   0  0  0  0  0  0  0  0  0  0  0  0
   47.1501    8.8743   18.5638 H   0  0  0  0  0  0  0  0  0  0  0  0
   48.5042   10.0529   14.5159 H   0  0  0  0  0  0  0  0  0  0  0  0
   49.7810    9.7001   17.3696 H   0  0  0  0  0  0  0  0  0  0  0  0
   48.8549    6.5119   14.4057 H   0  0  0  0  0  0  0  0  0  0  0  0
   49.0558    4.9074   18.6243 H   0  0  0  0  0  0  0  0  0  0  0  0
   50.6098    8.8292   19.2664 H   0  0  0  0  0  0  0  0  0  0  0  0
   48.5653   11.1402   16.3623 H   0  0  0  0  0  0  0  0  0  0  0  0
   52.7823   10.3943   14.7139 H   0  0  0  0  0  0  0  0  0  0  0  0
   54.2689   10.1359   15.6013 H   0  0  0  0  0  0  0  0  0  0  0  0
   49.0637   11.5317   20.6346 H   0  0  0  0  0  0  0  0  0  0  0  0
   47.5832   11.3287   19.6627 H   0  0  0  0  0  0  0  0  0  0  0  0
   49.1985   11.4614   18.9229 H   0  0  0  0  0  0  0  0  0  0  0  0
   47.9386   10.7135   22.2374 H   0  0  0  0  0  0  0  0  0  0  0  0
   47.6090    5.1079   21.5854 H   0  0  0  0  0  0  0  0  0  0  0  0
   46.9945    9.6329   24.2094 H   0  0  0  0  0  0  0  0  0  0  0  0
   46.6959    7.1658   24.2718 H   0  0  0  0  0  0  0  0  0  0  0  0
   46.8204    7.8554   13.8458 H   0  0  0  0  0  0  0  0  0  0  0  0
   47.3171    7.6500   12.1895 H   0  0  0  0  0  0  0  0  0  0  0  0
   47.1168    9.2852   12.8445 H   0  0  0  0  0  0  0  0  0  0  0  0
   49.4606    8.1255   11.4497 H   0  0  0  0  0  0  0  0  0  0  0  0
   49.4921    9.7735   12.0944 H   0  0  0  0  0  0  0  0  0  0  0  0
   50.7564    8.5794   12.5218 H   0  0  0  0  0  0  0  0  0  0  0  0
  2  5  2  0
  3  1  1  0
  4  7  1  0
  5  1  1  0
  6  2  1  0
  7  1  1  0
  8  4  2  0
  9  2  1  0
 10  6  1  0
  3 11  1  0
 12  3  1  0
 13  9  1  0
 14 13  2  0
 15  4  1  0
 16  8  1  0
 11 17  1  0
 18  7  2  0
 19  9  2  0
 20 13  1  0
  1 21  1  6
 22 15  2  0
 23  5  1  0
 10 24  1  1
 12 25  1  0
 26 15  1  0
 10 27  1  0
 28 14  1  0
 29 20  1  0
 30 31  1  0
 31 20  2  0
 32 17  1  0
 33 17  1  0
 12  6  1  0
 11  8  1  0
 10 14  1  0
 30 28  2  0
 35 38  2  0
 36 34  1  0
 37 40  1  0
 38 34  1  0
 39 35  1  0
 40 34  1  0
 41 37  2  0
 42 35  1  0
 43 39  1  0
 36 44  1  0
 45 36  1  0
 46 42  1  0
 47 46  2  0
 48 37  1  0
 49 41  1  0
 44 50  1  0
 51 40  2  0
 52 42  2  0
 53 46  1  0
 34 54  1  1
 55 48  2  0
 56 38  1  0
 43 57  1  6
 45 58  1  0
 59 48  1  0
 43 60  1  0
 61 47  1  0
 62 53  1  0
 63 64  1  0
 64 53  2  0
 65 50  1  0
 66 50  1  0
 45 39  1  0
 44 41  1  0
 43 47  1  0
 63 61  2  0
  3 68  1  6
  6 69  1  6
 11 70  1  1
 12 71  1  1
 21 72  1  0
 23 73  1  0
 24 74  1  0
 25 75  1  0
 26 76  1  0
 26 77  1  0
 27 78  1  0
 27 79  1  0
 27 80  1  0
 28 81  1  0
 29 82  1  0
 30 83  1  0
 31 84  1  0
 32 85  1  0
 32 86  1  0
 32 87  1  0
 33 88  1  0
 33 89  1  0
 33 90  1  0
 36 91  1  1
 39 92  1  1
 44 93  1  6
 45 94  1  6
 54 95  1  0
 56 96  1  0
 57 97  1  0
 58 98  1  0
 59 99  1  0
 59100  1  0
 60101  1  0
 60102  1  0
 60103  1  0
 61104  1  0
 62105  1  0
 63106  1  0
 64107  1  0
 65108  1  0
 65109  1  0
 65110  1  0
 66111  1  0
 66112  1  0
 66113  1  0
M  CHG  3  16  -1  49  -1  67   2
M  END
> <Uni-Dock RESULT> 
ENERGY=   -5.258  LOWER_BOUND=    8.830  UPPER_BOUND=   12.741
INTER + INTRA:          -5.258
INTER:                  -5.258
INTRA:                   0.000
UNBOUND:                 0.000

$$$$

     RDKit          3D

113118  0  0  0  0  0  0  0  0999 V2000
   49.0316    8.4630   17.6596 C   0  0  2  0  0  0  0  0  0  0  0  0
   50.0205    6.2158   18.1629 C   0  0  0  0  0  0  0  0  0  0  0  0
   48.8723    8.6838   19.1632 C   0  0  2  0  0  0  0  0  0  0  0  0
   49.4061   10.8907   17.1550 C   0  0  0  0  0  0  0  0  0  0  0  0
   49.4684    7.0673   17.2892 C   0  0  0  0  0  0  0  0  0  0  0  0
   50.3589    6.5499   19.5873 C   0  0  1  0  0  0  0  0  0  0  0  0
   50.0195    9.5348   17.1599 C   0  0  0  0  0  0  0  0  0  0  0  0
   48.6572   11.1783   18.2648 C   0  0  0  0  0  0  0  0  0  0  0  0
   50.2700    4.7974   17.7914 C   0  0  0  0  0  0  0  0  0  0  0  0
   51.8682    6.2116   19.8651 C   0  0  1  0  0  0  0  0  0  0  0  0
   48.8794   10.2349   19.5114 C   0  0  1  0  0  0  0  0  0  0  0  0
   49.9856    7.9990   19.9981 C   0  0  2  0  0  0  0  0  0  0  0  0
   51.4732    4.1533   18.3824 C   0  0  0  0  0  0  0  0  0  0  0  0
   52.2591    4.8252   19.3372 C   0  0  0  0  0  0  0  0  0  0  0  0
   49.3845   11.6703   15.8848 C   0  0  0  0  0  0  0  0  0  0  0  0
   47.8209   12.1094   18.4351 O   0  0  0  0  0  0  0  0  0  0  0  0
   48.2107   10.4126   20.8341 N   0  0  0  0  0  0  0  0  0  0  0  0
   51.2011    9.3274   16.8957 O   0  0  0  0  0  0  0  0  0  0  0  0
   49.5221    4.1400   17.0723 O   0  0  0  0  0  0  0  0  0  0  0  0
   51.8348    2.8629   17.9440 C   0  0  0  0  0  0  0  0  0  0  0  0
   47.7409    8.5775   17.0109 O   0  0  0  0  0  0  0  0  0  0  0  0
   49.6574   11.1777   14.7923 O   0  0  0  0  0  0  0  0  0  0  0  0
   49.1531    6.6789   15.9960 O   0  0  0  0  0  0  0  0  0  0  0  0
   52.7315    7.1532   19.2094 O   0  0  0  0  0  0  0  0  0  0  0  0
   49.5531    7.9594   21.3717 O   0  0  0  0  0  0  0  0  0  0  0  0
   48.9888   12.9683   16.0021 N   0  0  0  0  0  0  0  0  0  0  0  0
   52.1543    6.3377   21.3753 C   0  0  0  0  0  0  0  0  0  0  0  0
   53.4511    4.1976   19.7570 C   0  0  0  0  0  0  0  0  0  0  0  0
   51.1030    2.1445   17.0298 O   0  0  0  0  0  0  0  0  0  0  0  0
   53.8028    2.9223   19.3149 C   0  0  0  0  0  0  0  0  0  0  0  0
   52.9846    2.2457   18.4170 C   0  0  0  0  0  0  0  0  0  0  0  0
   46.7458   10.3726   20.7619 C   0  0  0  0  0  0  0  0  0  0  0  0
   48.6336   11.6493   21.5020 C   0  0  0  0  0  0  0  0  0  0  0  0
   51.5793    7.2550   18.0270 C   0  0  2  0  0  0  0  0  0  0  0  0
   50.1194    9.3281   18.0049 C   0  0  0  0  0  0  0  0  0  0  0  0
   51.3530    7.2236   19.5458 C   0  0  2  0  0  0  0  0  0  0  0  0
   50.2871    4.9789   18.1466 C   0  0  0  0  0  0  0  0  0  0  0  0
   50.9900    8.5079   17.3790 C   0  0  0  0  0  0  0  0  0  0  0  0
   49.5624    9.0819   19.3893 C   0  0  1  0  0  0  0  0  0  0  0  0
   51.0380    5.9769   17.3166 C   0  0  0  0  0  0  0  0  0  0  0  0
   50.5607    4.8770   19.4798 C   0  0  0  0  0  0  0  0  0  0  0  0
   49.6617   10.5804   17.3265 C   0  0  0  0  0  0  0  0  0  0  0  0
   48.0166    9.3679   19.3950 C   0  0  1  0  0  0  0  0  0  0  0  0
   51.6717    5.7898   20.0665 C   0  0  1  0  0  0  0  0  0  0  0  0
   49.9183    7.6757   19.9247 C   0  0  2  0  0  0  0  0  0  0  0  0
   48.5813   11.3762   17.9479 C   0  0  0  0  0  0  0  0  0  0  0  0
   47.7911   10.8236   18.9728 C   0  0  0  0  0  0  0  0  0  0  0  0
   49.1757    4.2108   17.4947 C   0  0  0  0  0  0  0  0  0  0  0  0
   49.9925    4.2097   20.3972 O   0  0  0  0  0  0  0  0  0  0  0  0
   53.0694    5.3513   19.7329 N   0  0  0  0  0  0  0  0  0  0  0  0
   51.2341    5.7520   16.1192 O   0  0  0  0  0  0  0  0  0  0  0  0
   50.1874   10.9796   16.2867 O   0  0  0  0  0  0  0  0  0  0  0  0
   48.3357   12.6834   17.4839 C   0  0  0  0  0  0  0  0  0  0  0  0
   53.0040    7.3414   17.8197 O   0  0  0  0  0  0  0  0  0  0  0  0
   48.5300    4.6356   16.5408 O   0  0  0  0  0  0  0  0  0  0  0  0
   51.4828    8.7812   16.1071 O   0  0  0  0  0  0  0  0  0  0  0  0
   47.3018    8.6033   18.4087 O   0  0  0  0  0  0  0  0  0  0  0  0
   49.8177    7.6742   21.3572 O   0  0  0  0  0  0  0  0  0  0  0  0
   48.8649    3.0194   18.0777 N   0  0  0  0  0  0  0  0  0  0  0  0
   47.3508    9.0191   20.7344 C   0  0  0  0  0  0  0  0  0  0  0  0
   46.7797   11.6344   19.5263 C   0  0  0  0  0  0  0  0  0  0  0  0
   49.0521   13.2703   16.4701 O   0  0  0  0  0  0  0  0  0  0  0  0
   46.5589   12.9431   19.0770 C   0  0  0  0  0  0  0  0  0  0  0  0
   47.3345   13.4654   18.0497 C   0  0  0  0  0  0  0  0  0  0  0  0
   54.0345    6.0280   20.6142 C   0  0  0  0  0  0  0  0  0  0  0  0
   53.2311    3.8997   19.9220 C   0  0  0  0  0  0  0  0  0  0  0  0
   50.0477    7.8843   18.9433 Ca  0  0  0  0  0 15  0  0  0  0  0  0
   47.9027    8.2531   19.4533 H   0  0  0  0  0  0  0  0  0  0  0  0
   49.7531    5.8664   20.2055 H   0  0  0  0  0  0  0  0  0  0  0  0
   49.9374   10.4575   19.7399 H   0  0  0  0  0  0  0  0  0  0  0  0
   50.8863    8.6205   19.9758 H   0  0  0  0  0  0  0  0  0  0  0  0
   47.3672    9.4562   17.2510 H   0  0  0  0  0  0  0  0  0  0  0  0
   48.4417    7.2957   15.7218 H   0  0  0  0  0  0  0  0  0  0  0  0
   52.4715    7.2371   18.2736 H   0  0  0  0  0  0  0  0  0  0  0  0
   49.0922    8.8156   21.5431 H   0  0  0  0  0  0  0  0  0  0  0  0
   48.4845   13.1558   16.8799 H   0  0  0  0  0  0  0  0  0  0  0  0
   48.6631   13.4225   15.1638 H   0  0  0  0  0  0  0  0  0  0  0  0
   51.5749    5.6107   21.9574 H   0  0  0  0  0  0  0  0  0  0  0  0
   53.2145    6.1982   21.6174 H   0  0  0  0  0  0  0  0  0  0  0  0
   51.9308    7.3440   21.7400 H   0  0  0  0  0  0  0  0  0  0  0  0
   54.1311    4.7094   20.4345 H   0  0  0  0  0  0  0  0  0  0  0  0
   50.3422    2.7062   16.7566 H   0  0  0  0  0  0  0  0  0  0  0  0
   54.7166    2.4571   19.6726 H   0  0  0  0  0  0  0  0  0  0  0  0
   53.2483    1.2533   18.0666 H   0  0  0  0  0  0  0  0  0  0  0  0
   46.2862   11.2744   20.3369 H   0  0  0  0  0  0  0  0  0  0  0  0
   46.3804    9.5068   20.2009 H   0  0  0  0  0  0  0  0  0  0  0  0
   46.3409   10.2542   21.7759 H   0  0  0  0  0  0  0  0  0  0  0  0
   49.7245   11.6858   21.5916 H   0  0  0  0  0  0  0  0  0  0  0  0
   48.2907   12.5628   21.0068 H   0  0  0  0  0  0  0  0  0  0  0  0
   48.2442   11.6669   22.5274 H   0  0  0  0  0  0  0  0  0  0  0  0
   52.0471    7.9262   20.0346 H   0  0  0  0  0  0  0  0  0  0  0  0
   50.0375    9.8115   20.0655 H   0  0  0  0  0  0  0  0  0  0  0  0
   51.5927    5.8139   21.1650 H   0  0  0  0  0  0  0  0  0  0  0  0
   49.1580    6.9844   19.5523 H   0  0  0  0  0  0  0  0  0  0  0  0
   53.3481    6.4784   18.1400 H   0  0  0  0  0  0  0  0  0  0  0  0
   51.1373    9.6534   15.8068 H   0  0  0  0  0  0  0  0  0  0  0  0
   47.8818    7.9515   17.9778 H   0  0  0  0  0  0  0  0  0  0  0  0
   49.7036    6.7277   21.6024 H   0  0  0  0  0  0  0  0  0  0  0  0
   49.1888    2.9482   19.0514 H   0  0  0  0  0  0  0  0  0  0  0  0
   47.9779    2.6131   17.8326 H   0  0  0  0  0  0  0  0  0  0  0  0
   46.2676    9.1860   20.7048 H   0  0  0  0  0  0  0  0  0  0  0  0
   47.7757    9.5868   21.5666 H   0  0  0  0  0  0  0  0  0  0  0  0
   47.4359    7.9500   20.9509 H   0  0  0  0  0  0  0  0  0  0  0  0
   46.1227   11.2659   20.3087 H   0  0  0  0  0  0  0  0  0  0  0  0
   49.6672   12.5942   16.1101 H   0  0  0  0  0  0  0  0  0  0  0  0
   45.7684   13.5465   19.5204 H   0  0  0  0  0  0  0  0  0  0  0  0
   47.1589   14.4729   17.6799 H   0  0  0  0  0  0  0  0  0  0  0  0
   54.0305    7.1088   20.4625 H   0  0  0  0  0  0  0  0  0  0  0  0
   55.0540    5.7019   20.3890 H   0  0  0  0  0  0  0  0  0  0  0  0
   53.8396    5.8318   21.6740 H   0  0  0  0  0  0  0  0  0  0  0  0
   54.2774    3.6115   19.7603 H   0  0  0  0  0  0  0  0  0  0  0  0
   52.9504    3.5735   20.9308 H   0  0  0  0  0  0  0  0  0  0  0  0
   52.6583    3.3350   19.1802 H   0  0  0  0  0  0  0  0  0  0  0  0
  2  5  2  0
  3  1  1  0
  4  7  1  0
  5  1  1  0
  6  2  1  0
  7  1  1  0
  8  4  2  0
  9  2  1  0
 10  6  1  0
  3 11  1  0
 12  3  1  0
 13  9  1  0
 14 13  2  0
 15  4  1  0
 16  8  1  0
 11 17  1  0
 18  7  2  0
 19  9  2  0
 20 13  1  0
  1 21  1  6
 22 15  2  0
 23  5  1  0
 10 24  1  1
 12 25  1  0
 26 15  1  0
 10 27  1  0
 28 14  1  0
 29 20  1  0
 30 31  1  0
 31 20  2  0
 32 17  1  0
 33 17  1  0
 12  6  1  0
 11  8  1  0
 10 14  1  0
 30 28  2  0
 35 38  2  0
 36 34  1  0
 37 40  1  0
 38 34  1  0
 39 35  1  0
 40 34  1  0
 41 37  2  0
 42 35  1  0
 43 39  1  0
 36 44  1  0
 45 36  1  0
 46 42  1  0
 47 46  2  0
 48 37  1  0
 49 41  1  0
 44 50  1  0
 51 40  2  0
 52 42  2  0
 53 46  1  0
 34 54  1  1
 55 48  2  0
 56 38  1  0
 43 57  1  6
 45 58  1  0
 59 48  1  0
 43 60  1  0
 61 47  1  0
 62 53  1  0
 63 64  1  0
 64 53  2  0
 65 50  1  0
 66 50  1  0
 45 39  1  0
 44 41  1  0
 43 47  1  0
 63 61  2  0
  3 68  1  6
  6 69  1  6
 11 70  1  1
 12 71  1  1
 21 72  1  0
 23 73  1  0
 24 74  1  0
 25 75  1  0
 26 76  1  0
 26 77  1  0
 27 78  1  0
 27 79  1  0
 27 80  1  0
 28 81  1  0
 29 82  1  0
 30 83  1  0
 31 84  1  0
 32 85  1  0
 32 86  1  0
 32 87  1  0
 33 88  1  0
 33 89  1  0
 33 90  1  0
 36 91  1  1
 39 92  1  1
 44 93  1  6
 45 94  1  6
 54 95  1  0
 56 96  1  0
 57 97  1  0
 58 98  1  0
 59 99  1  0
 59100  1  0
 60101  1  0
 60102  1  0
 60103  1  0
 61104  1  0
 62105  1  0
 63106  1  0
 64107  1  0
 65108  1  0
 65109  1  0
 65110  1  0
 66111  1  0
 66112  1  0
 66113  1  0
M  CHG  3  16  -1  49  -1  67   2
M  END
> <Uni-Dock RESULT> 
ENERGY=   -5.022  LOWER_BOUND=    9.990  UPPER_BOUND=   13.249
INTER + INTRA:          -5.022
INTER:                  -5.022
INTRA:                   0.000
UNBOUND:                 0.000

$$$$

     RDKit          3D

113118  0  0  0  0  0  0  0  0999 V2000
   52.6672    9.5524   12.9934 C   0  0  2  0  0  0  0  0  0  0  0  0
   50.1864    9.8995   13.0732 C   0  0  0  0  0  0  0  0  0  0  0  0
   52.5635    8.8022   14.3205 C   0  0  2  0  0  0  0  0  0  0  0  0
   54.6023    8.1910   12.1624 C   0  0  0  0  0  0  0  0  0  0  0  0
   51.3837   10.2202   12.5663 C   0  0  0  0  0  0  0  0  0  0  0  0
   49.9417    8.7908   14.0561 C   0  0  1  0  0  0  0  0  0  0  0  0
   53.1699    8.5349   11.9511 C   0  0  0  0  0  0  0  0  0  0  0  0
   54.9503    7.9909   13.4716 C   0  0  0  0  0  0  0  0  0  0  0  0
   48.9799   10.7060   12.7479 C   0  0  0  0  0  0  0  0  0  0  0  0
   48.8254    7.8322   13.5042 C   0  0  1  0  0  0  0  0  0  0  0  0
   53.7544    7.7607   14.4767 C   0  0  1  0  0  0  0  0  0  0  0  0
   51.2272    8.0309   14.4784 C   0  0  2  0  0  0  0  0  0  0  0  0
   47.6909    9.9708   12.6494 C   0  0  0  0  0  0  0  0  0  0  0  0
   47.6114    8.6024   12.9689 C   0  0  0  0  0  0  0  0  0  0  0  0
   55.5666    8.3895   11.0433 C   0  0  0  0  0  0  0  0  0  0  0  0
   56.1031    7.9483   13.9859 O   0  0  0  0  0  0  0  0  0  0  0  0
   53.9188    7.4645   15.9305 N   0  0  0  0  0  0  0  0  0  0  0  0
   52.4610    7.9874   11.1104 O   0  0  0  0  0  0  0  0  0  0  0  0
   48.9944   11.9258   12.6043 O   0  0  0  0  0  0  0  0  0  0  0  0
   46.5491   10.6633   12.1968 C   0  0  0  0  0  0  0  0  0  0  0  0
   53.5781   10.6705   13.1357 O   0  0  0  0  0  0  0  0  0  0  0  0
   55.2879    9.0149   10.0225 O   0  0  0  0  0  0  0  0  0  0  0  0
   51.5398   11.2797   11.6854 O   0  0  0  0  0  0  0  0  0  0  0  0
   49.3222    7.0471   12.4093 O   0  0  0  0  0  0  0  0  0  0  0  0
   51.0795    7.6729   15.8660 O   0  0  0  0  0  0  0  0  0  0  0  0
   56.8104    7.8724   11.2445 N   0  0  0  0  0  0  0  0  0  0  0  0
   48.4148    6.8330   14.6048 C   0  0  0  0  0  0  0  0  0  0  0  0
   46.3835    7.9489   12.7316 C   0  0  0  0  0  0  0  0  0  0  0  0
   46.5528   12.0015   11.8862 O   0  0  0  0  0  0  0  0  0  0  0  0
   45.2602    8.6415   12.2799 C   0  0  0  0  0  0  0  0  0  0  0  0
   45.3383   10.0063   12.0260 C   0  0  0  0  0  0  0  0  0  0  0  0
   54.6502    8.5044   16.6630 C   0  0  0  0  0  0  0  0  0  0  0  0
   54.5604    6.1640   16.1572 C   0  0  0  0  0  0  0  0  0  0  0  0
   50.2823    8.3398   12.0308 C   0  0  2  0  0  0  0  0  0  0  0  0
   52.7421    8.1711   12.6229 C   0  0  0  0  0  0  0  0  0  0  0  0
   50.0009    7.7680   13.4283 C   0  0  2  0  0  0  0  0  0  0  0  0
   49.0342   10.4197   13.0209 C   0  0  0  0  0  0  0  0  0  0  0  0
   51.7745    8.3510   11.6989 C   0  0  0  0  0  0  0  0  0  0  0  0
   52.4849    8.0066   14.1042 C   0  0  1  0  0  0  0  0  0  0  0  0
   49.6774    9.7636   11.8359 C   0  0  0  0  0  0  0  0  0  0  0  0
   48.4851    9.6428   13.9994 C   0  0  0  0  0  0  0  0  0  0  0  0
   54.1742    8.1093   12.1947 C   0  0  0  0  0  0  0  0  0  0  0  0
   53.5074    8.8806   14.9178 C   0  0  1  0  0  0  0  0  0  0  0  0
   48.5285    8.1014   13.8147 C   0  0  1  0  0  0  0  0  0  0  0  0
   51.0127    8.2926   14.4806 C   0  0  2  0  0  0  0  0  0  0  0  0
   55.2296    8.0858   13.2301 C   0  0  0  0  0  0  0  0  0  0  0  0
   54.9263    8.4244   14.5619 C   0  0  0  0  0  0  0  0  0  0  0  0
   49.1263   11.9124   13.1390 C   0  0  0  0  0  0  0  0  0  0  0  0
   48.0003    9.9490   15.1311 O   0  0  0  0  0  0  0  0  0  0  0  0
   47.5358    7.5720   12.8191 N   0  0  0  0  0  0  0  0  0  0  0  0
   49.6843   10.3420   10.7458 O   0  0  0  0  0  0  0  0  0  0  0  0
   54.4894    8.0410   11.0060 O   0  0  0  0  0  0  0  0  0  0  0  0
   56.5465    7.7465   12.8626 C   0  0  0  0  0  0  0  0  0  0  0  0
   49.6780    7.4374   11.0819 O   0  0  0  0  0  0  0  0  0  0  0  0
   50.0387   12.5735   12.6514 O   0  0  0  0  0  0  0  0  0  0  0  0
   52.0594    8.4884   10.3442 O   0  0  0  0  0  0  0  0  0  0  0  0
   53.4819   10.2685   14.5416 O   0  0  0  0  0  0  0  0  0  0  0  0
   50.7130    7.6618   15.7354 O   0  0  0  0  0  0  0  0  0  0  0  0
   48.1595   12.5021   13.8963 N   0  0  0  0  0  0  0  0  0  0  0  0
   53.2320    8.8685   16.4289 C   0  0  0  0  0  0  0  0  0  0  0  0
   55.9756    8.3794   15.5019 C   0  0  0  0  0  0  0  0  0  0  0  0
   56.9131    7.4327   11.5770 O   0  0  0  0  0  0  0  0  0  0  0  0
   57.2774    8.0155   15.1331 C   0  0  0  0  0  0  0  0  0  0  0  0
   57.5638    7.7047   13.8099 C   0  0  0  0  0  0  0  0  0  0  0  0
   47.3868    6.1167   12.9799 C   0  0  0  0  0  0  0  0  0  0  0  0
   46.2097    8.1824   13.0137 C   0  0  0  0  0  0  0  0  0  0  0  0
   51.3585    8.5681   13.5708 Ca  0  0  0  0  0 15  0  0  0  0  0  0
   52.6316    9.5514   15.1229 H   0  0  0  0  0  0  0  0  0  0  0  0
   49.5358    9.2773   14.9588 H   0  0  0  0  0  0  0  0  0  0  0  0
   53.3429    6.8155   14.0791 H   0  0  0  0  0  0  0  0  0  0  0  0
   51.2861    7.0906   13.9214 H   0  0  0  0  0  0  0  0  0  0  0  0
   54.4348   10.3129   13.4637 H   0  0  0  0  0  0  0  0  0  0  0  0
   52.4782   11.5458   11.7867 H   0  0  0  0  0  0  0  0  0  0  0  0
   49.7525    7.6312   11.7581 H   0  0  0  0  0  0  0  0  0  0  0  0
   51.9790    7.4198   16.1852 H   0  0  0  0  0  0  0  0  0  0  0  0
   57.0079    7.6774   12.2361 H   0  0  0  0  0  0  0  0  0  0  0  0
   57.5558    8.2460   10.6790 H   0  0  0  0  0  0  0  0  0  0  0  0
   47.9683    7.3438   15.4667 H   0  0  0  0  0  0  0  0  0  0  0  0
   47.7003    6.0819   14.2482 H   0  0  0  0  0  0  0  0  0  0  0  0
   49.2699    6.2426   14.9454 H   0  0  0  0  0  0  0  0  0  0  0  0
   46.2937    6.8764   12.8894 H   0  0  0  0  0  0  0  0  0  0  0  0
   47.4707   12.3311   12.0195 H   0  0  0  0  0  0  0  0  0  0  0  0
   44.3233    8.1142   12.1267 H   0  0  0  0  0  0  0  0  0  0  0  0
   44.4709   10.5551   11.6746 H   0  0  0  0  0  0  0  0  0  0  0  0
   55.7322    8.5160   16.4778 H   0  0  0  0  0  0  0  0  0  0  0  0
   54.2592    9.5069   16.4633 H   0  0  0  0  0  0  0  0  0  0  0  0
   54.5113    8.3473   17.7409 H   0  0  0  0  0  0  0  0  0  0  0  0
   54.0126    5.3683   15.6411 H   0  0  0  0  0  0  0  0  0  0  0  0
   55.6097    6.1251   15.8493 H   0  0  0  0  0  0  0  0  0  0  0  0
   54.5230    5.9149   17.2249 H   0  0  0  0  0  0  0  0  0  0  0  0
   50.1073    6.6714   13.4041 H   0  0  0  0  0  0  0  0  0  0  0  0
   52.6795    6.9504   14.3529 H   0  0  0  0  0  0  0  0  0  0  0  0
   48.3204    7.6049   14.7758 H   0  0  0  0  0  0  0  0  0  0  0  0
   50.9209    9.3704   14.6371 H   0  0  0  0  0  0  0  0  0  0  0  0
   48.7125    7.5326   11.2382 H   0  0  0  0  0  0  0  0  0  0  0  0
   53.0283    8.3793   10.2046 H   0  0  0  0  0  0  0  0  0  0  0  0
   52.7538   10.4540   13.9232 H   0  0  0  0  0  0  0  0  0  0  0  0
   49.9304    8.1476   16.0829 H   0  0  0  0  0  0  0  0  0  0  0  0
   47.6979   11.8495   14.5437 H   0  0  0  0  0  0  0  0  0  0  0  0
   48.3364   13.4435   14.2035 H   0  0  0  0  0  0  0  0  0  0  0  0
   53.9290    9.5160   16.9736 H   0  0  0  0  0  0  0  0  0  0  0  0
   53.2805    7.8602   16.8490 H   0  0  0  0  0  0  0  0  0  0  0  0
   52.2538    9.3032   16.6552 H   0  0  0  0  0  0  0  0  0  0  0  0
   55.8155    8.6441   16.5430 H   0  0  0  0  0  0  0  0  0  0  0  0
   56.1297    7.5737   11.0012 H   0  0  0  0  0  0  0  0  0  0  0  0
   58.0699    7.9920   15.8796 H   0  0  0  0  0  0  0  0  0  0  0  0
   58.5747    7.4400   13.5090 H   0  0  0  0  0  0  0  0  0  0  0  0
   48.3174    5.5894   12.7631 H   0  0  0  0  0  0  0  0  0  0  0  0
   46.6531    5.7252   12.2694 H   0  0  0  0  0  0  0  0  0  0  0  0
   47.0656    5.8398   13.9898 H   0  0  0  0  0  0  0  0  0  0  0  0
   45.4781    7.7208   12.3388 H   0  0  0  0  0  0  0  0  0  0  0  0
   45.8374    8.0607   14.0382 H   0  0  0  0  0  0  0  0  0  0  0  0
   46.2169    9.2441   12.7488 H   0  0  0  0  0  0  0  0  0  0  0  0
  2  5  2  0
  3  1  1  0
  4  7  1  0
  5  1  1  0
  6  2  1  0
  7  1  1  0
  8  4  2  0
  9  2  1  0
 10  6  1  0
  3 11  1  0
 12  3  1  0
 13  9  1  0
 14 13  2  0
 15  4  1  0
 16  8  1  0
 11 17  1  0
 18  7  2  0
 19  9  2  0
 20 13  1  0
  1 21  1  6
 22 15  2  0
 23  5  1  0
 10 24  1  1
 12 25  1  0
 26 15  1  0
 10 27  1  0
 28 14  1  0
 29 20  1  0
 30 31  1  0
 31 20  2  0
 32 17  1  0
 33 17  1  0
 12  6  1  0
 11  8  1  0
 10 14  1  0
 30 28  2  0
 35 38  2  0
 36 34  1  0
 37 40  1  0
 38 34  1  0
 39 35  1  0
 40 34  1  0
 41 37  2  0
 42 35  1  0
 43 39  1  0
 36 44  1  0
 45 36  1  0
 46 42  1  0
 47 46  2  0
 48 37  1  0
 49 41  1  0
 44 50  1  0
 51 40  2  0
 52 42  2  0
 53 46  1  0
 34 54  1  1
 55 48  2  0
 56 38  1  0
 43 57  1  6
 45 58  1  0
 59 48  1  0
 43 60  1  0
 61 47  1  0
 62 53  1  0
 63 64  1  0
 64 53  2  0
 65 50  1  0
 66 50  1  0
 45 39  1  0
 44 41  1  0
 43 47  1  0
 63 61  2  0
  3 68  1  6
  6 69  1  6
 11 70  1  1
 12 71  1  1
 21 72  1  0
 23 73  1  0
 24 74  1  0
 25 75  1  0
 26 76  1  0
 26 77  1  0
 27 78  1  0
 27 79  1  0
 27 80  1  0
 28 81  1  0
 29 82  1  0
 30 83  1  0
 31 84  1  0
 32 85  1  0
 32 86  1  0
 32 87  1  0
 33 88  1  0
 33 89  1  0
 33 90  1  0
 36 91  1  1
 39 92  1  1
 44 93  1  6
 45 94  1  6
 54 95  1  0
 56 96  1  0
 57 97  1  0
 58 98  1  0
 59 99  1  0
 59100  1  0
 60101  1  0
 60102  1  0
 60103  1  0
 61104  1  0
 62105  1  0
 63106  1  0
 64107  1  0
 65108  1  0
 65109  1  0
 65110  1  0
 66111  1  0
 66112  1  0
 66113  1  0
M  CHG  3  16  -1  49  -1  67   2
M  END
> <Uni-Dock RESULT> 
ENERGY=   -4.958  LOWER_BOUND=    6.372  UPPER_BOUND=    8.913
INTER + INTRA:          -4.958
INTER:                  -4.958
INTRA:                   0.000
UNBOUND:                 0.000

$$$$

     RDKit          3D

113118  0  0  0  0  0  0  0  0999 V2000
   50.4281    9.0723   15.5642 C   0  0  2  0  0  0  0  0  0  0  0  0
   50.8973    7.3146   17.2879 C   0  0  0  0  0  0  0  0  0  0  0  0
   49.4157    8.1204   14.9287 C   0  0  2  0  0  0  0  0  0  0  0  0
   49.1659   11.1412   14.9200 C   0  0  0  0  0  0  0  0  0  0  0  0
   51.2480    8.4471   16.6653 C   0  0  0  0  0  0  0  0  0  0  0  0
   49.6186    6.5651   17.0461 C   0  0  1  0  0  0  0  0  0  0  0  0
   49.6324   10.2977   16.0538 C   0  0  0  0  0  0  0  0  0  0  0  0
   48.6664   10.4369   13.8571 C   0  0  0  0  0  0  0  0  0  0  0  0
   51.8258    6.6490   18.2402 C   0  0  0  0  0  0  0  0  0  0  0  0
   48.8709    6.3420   18.4102 C   0  0  1  0  0  0  0  0  0  0  0  0
   48.2958    8.9284   14.1411 C   0  0  1  0  0  0  0  0  0  0  0  0
   48.7099    7.2064   15.9640 C   0  0  2  0  0  0  0  0  0  0  0  0
   51.2078    5.9504   19.3986 C   0  0  0  0  0  0  0  0  0  0  0  0
   49.8099    5.8301   19.5101 C   0  0  0  0  0  0  0  0  0  0  0  0
   49.5442   12.5826   14.8871 C   0  0  0  0  0  0  0  0  0  0  0  0
   48.4445   10.8343   12.6790 O   0  0  0  0  0  0  0  0  0  0  0  0
   47.6823    8.0071   13.1396 N   0  0  0  0  0  0  0  0  0  0  0  0
   49.3234   10.5084   17.2239 O   0  0  0  0  0  0  0  0  0  0  0  0
   53.0446    6.6150   18.0918 O   0  0  0  0  0  0  0  0  0  0  0  0
   52.0489    5.4355   20.4063 C   0  0  0  0  0  0  0  0  0  0  0  0
   51.4322    9.4394   14.5860 O   0  0  0  0  0  0  0  0  0  0  0  0
   50.3914   13.0694   15.6328 O   0  0  0  0  0  0  0  0  0  0  0  0
   52.4620    9.0685   16.9165 O   0  0  0  0  0  0  0  0  0  0  0  0
   48.3134    7.5737   18.8942 O   0  0  0  0  0  0  0  0  0  0  0  0
   48.0691    6.1328   15.2482 O   0  0  0  0  0  0  0  0  0  0  0  0
   48.9223   13.3287   13.9324 N   0  0  0  0  0  0  0  0  0  0  0  0
   47.6833    5.3819   18.1951 C   0  0  0  0  0  0  0  0  0  0  0  0
   49.2980    5.2642   20.6970 C   0  0  0  0  0  0  0  0  0  0  0  0
   53.4199    5.5023   20.3510 O   0  0  0  0  0  0  0  0  0  0  0  0
   50.1379    4.7610   21.6904 C   0  0  0  0  0  0  0  0  0  0  0  0
   51.5181    4.8326   21.5384 C   0  0  0  0  0  0  0  0  0  0  0  0
   48.4932    7.8306   11.9295 C   0  0  0  0  0  0  0  0  0  0  0  0
   46.3276    8.4281   12.7630 C   0  0  0  0  0  0  0  0  0  0  0  0
   49.5976    8.3347   18.1816 C   0  0  2  0  0  0  0  0  0  0  0  0
   49.1579    9.5632   16.0075 C   0  0  0  0  0  0  0  0  0  0  0  0
   48.7545    7.1906   17.5991 C   0  0  2  0  0  0  0  0  0  0  0  0
   51.4844    6.5198   18.0782 C   0  0  0  0  0  0  0  0  0  0  0  0
   49.5913    9.5735   17.2860 C   0  0  0  0  0  0  0  0  0  0  0  0
   48.6921    8.3240   15.2762 C   0  0  1  0  0  0  0  0  0  0  0  0
   51.0634    7.8996   18.4873 C   0  0  0  0  0  0  0  0  0  0  0  0
   50.5481    5.5297   18.0026 C   0  0  0  0  0  0  0  0  0  0  0  0
   49.1048   10.8416   15.2322 C   0  0  0  0  0  0  0  0  0  0  0  0
   49.3062    8.3026   13.8293 C   0  0  1  0  0  0  0  0  0  0  0  0
   49.0837    5.8828   18.3800 C   0  0  1  0  0  0  0  0  0  0  0  0
   48.9771    7.0295   16.0724 C   0  0  2  0  0  0  0  0  0  0  0  0
   48.7945   10.7891   13.7874 C   0  0  0  0  0  0  0  0  0  0  0  0
   48.8540    9.5673   13.0916 C   0  0  0  0  0  0  0  0  0  0  0  0
   52.9078    6.3121   17.6525 C   0  0  0  0  0  0  0  0  0  0  0  0
   50.6303    4.3376   17.5763 O   0  0  0  0  0  0  0  0  0  0  0  0
   48.8429    6.0156   19.8569 N   0  0  0  0  0  0  0  0  0  0  0  0
   51.8628    8.6339   19.0745 O   0  0  0  0  0  0  0  0  0  0  0  0
   49.2770   11.9331   15.7760 O   0  0  0  0  0  0  0  0  0  0  0  0
   48.4648   11.9799   13.1108 C   0  0  0  0  0  0  0  0  0  0  0  0
   48.9600    8.7381   19.4107 O   0  0  0  0  0  0  0  0  0  0  0  0
   53.6030    7.1985   17.1645 O   0  0  0  0  0  0  0  0  0  0  0  0
   50.0017   10.7415   17.9204 O   0  0  0  0  0  0  0  0  0  0  0  0
   50.7416    8.3921   13.8285 O   0  0  0  0  0  0  0  0  0  0  0  0
   48.1086    5.9852   15.6063 O   0  0  0  0  0  0  0  0  0  0  0  0
   53.3761    5.0383   17.7713 N   0  0  0  0  0  0  0  0  0  0  0  0
   48.9834    7.0108   13.0637 C   0  0  0  0  0  0  0  0  0  0  0  0
   48.5438    9.5834   11.7168 C   0  0  0  0  0  0  0  0  0  0  0  0
   48.4157   13.2069   13.7253 O   0  0  0  0  0  0  0  0  0  0  0  0
   48.1912   10.7681   11.0569 C   0  0  0  0  0  0  0  0  0  0  0  0
   48.1580   11.9689   11.7545 C   0  0  0  0  0  0  0  0  0  0  0  0
   47.3989    5.9760   20.1384 C   0  0  0  0  0  0  0  0  0  0  0  0
   49.4747    4.9124   20.6004 C   0  0  0  0  0  0  0  0  0  0  0  0
   49.4221    7.8948   16.3493 Ca  0  0  0  0  0 15  0  0  0  0  0  0
   49.9678    7.4852   14.2206 H   0  0  0  0  0  0  0  0  0  0  0  0
   49.9213    5.5717   16.6747 H   0  0  0  0  0  0  0  0  0  0  0  0
   47.4855    9.0611   14.8805 H   0  0  0  0  0  0  0  0  0  0  0  0
   47.9107    7.7697   16.4560 H   0  0  0  0  0  0  0  0  0  0  0  0
   50.9616    9.8145   13.8067 H   0  0  0  0  0  0  0  0  0  0  0  0
   52.6433    9.5883   16.1049 H   0  0  0  0  0  0  0  0  0  0  0  0
   48.9979    8.2677   18.8837 H   0  0  0  0  0  0  0  0  0  0  0  0
   47.6996    6.5300   14.4233 H   0  0  0  0  0  0  0  0  0  0  0  0
   48.5056   12.7564   13.1847 H   0  0  0  0  0  0  0  0  0  0  0  0
   49.3644   14.1961   13.6728 H   0  0  0  0  0  0  0  0  0  0  0  0
   48.0209    4.3884   17.8755 H   0  0  0  0  0  0  0  0  0  0  0  0
   47.0714    5.2584   19.0964 H   0  0  0  0  0  0  0  0  0  0  0  0
   46.9831    5.7751   17.4530 H   0  0  0  0  0  0  0  0  0  0  0  0
   48.2241    5.2195   20.8644 H   0  0  0  0  0  0  0  0  0  0  0  0
   53.6573    5.9771   19.5221 H   0  0  0  0  0  0  0  0  0  0  0  0
   49.7132    4.3122   22.5835 H   0  0  0  0  0  0  0  0  0  0  0  0
   52.1808    4.4442   22.3046 H   0  0  0  0  0  0  0  0  0  0  0  0
   48.4799    8.6877   11.2437 H   0  0  0  0  0  0  0  0  0  0  0  0
   49.5367    7.5935   12.1590 H   0  0  0  0  0  0  0  0  0  0  0  0
   48.1148    6.9656   11.3686 H   0  0  0  0  0  0  0  0  0  0  0  0
   45.6969    8.5385   13.6515 H   0  0  0  0  0  0  0  0  0  0  0  0
   46.2937    9.3597   12.1899 H   0  0  0  0  0  0  0  0  0  0  0  0
   45.8558    7.6498   12.1507 H   0  0  0  0  0  0  0  0  0  0  0  0
   47.6849    7.4135   17.7425 H   0  0  0  0  0  0  0  0  0  0  0  0
   47.5974    8.4006   15.1711 H   0  0  0  0  0  0  0  0  0  0  0  0
   48.4041    5.0989   18.0096 H   0  0  0  0  0  0  0  0  0  0  0  0
   49.9989    6.7215   15.8365 H   0  0  0  0  0  0  0  0  0  0  0  0
   49.0767    7.9669   20.0085 H   0  0  0  0  0  0  0  0  0  0  0  0
   49.8677   11.5044   17.3119 H   0  0  0  0  0  0  0  0  0  0  0  0
   51.0999    8.3372   14.7317 H   0  0  0  0  0  0  0  0  0  0  0  0
   48.5534    5.1481   15.8717 H   0  0  0  0  0  0  0  0  0  0  0  0
   52.6276    4.3345   17.8202 H   0  0  0  0  0  0  0  0  0  0  0  0
   54.2163    4.8157   17.2648 H   0  0  0  0  0  0  0  0  0  0  0  0
   49.4547    6.9971   12.0739 H   0  0  0  0  0  0  0  0  0  0  0  0
   47.9070    6.8581   12.9475 H   0  0  0  0  0  0  0  0  0  0  0  0
   49.4165    6.1382   13.5618 H   0  0  0  0  0  0  0  0  0  0  0  0
   48.5857    8.6798   11.1158 H   0  0  0  0  0  0  0  0  0  0  0  0
   48.7247   13.0892   14.6504 H   0  0  0  0  0  0  0  0  0  0  0  0
   47.9592   10.7521    9.9931 H   0  0  0  0  0  0  0  0  0  0  0  0
   47.9048   12.8973   11.2480 H   0  0  0  0  0  0  0  0  0  0  0  0
   46.8764    6.8211   19.6869 H   0  0  0  0  0  0  0  0  0  0  0  0
   47.2152    6.0555   21.2137 H   0  0  0  0  0  0  0  0  0  0  0  0
   46.9295    5.0538   19.7791 H   0  0  0  0  0  0  0  0  0  0  0  0
   49.2149    4.9758   21.6645 H   0  0  0  0  0  0  0  0  0  0  0  0
   49.1564    3.9265   20.2404 H   0  0  0  0  0  0  0  0  0  0  0  0
   50.5662    4.9819   20.5652 H   0  0  0  0  0  0  0  0  0  0  0  0
  2  5  2  0
  3  1  1  0
  4  7  1  0
  5  1  1  0
  6  2  1  0
  7  1  1  0
  8  4  2  0
  9  2  1  0
 10  6  1  0
  3 11  1  0
 12  3  1  0
 13  9  1  0
 14 13  2  0
 15  4  1  0
 16  8  1  0
 11 17  1  0
 18  7  2  0
 19  9  2  0
 20 13  1  0
  1 21  1  6
 22 15  2  0
 23  5  1  0
 10 24  1  1
 12 25  1  0
 26 15  1  0
 10 27  1  0
 28 14  1  0
 29 20  1  0
 30 31  1  0
 31 20  2  0
 32 17  1  0
 33 17  1  0
 12  6  1  0
 11  8  1  0
 10 14  1  0
 30 28  2  0
 35 38  2  0
 36 34  1  0
 37 40  1  0
 38 34  1  0
 39 35  1  0
 40 34  1  0
 41 37  2  0
 42 35  1  0
 43 39  1  0
 36 44  1  0
 45 36  1  0
 46 42  1  0
 47 46  2  0
 48 37  1  0
 49 41  1  0
 44 50  1  0
 51 40  2  0
 52 42  2  0
 53 46  1  0
 34 54  1  1
 55 48  2  0
 56 38  1  0
 43 57  1  6
 45 58  1  0
 59 48  1  0
 43 60  1  0
 61 47  1  0
 62 53  1  0
 63 64  1  0
 64 53  2  0
 65 50  1  0
 66 50  1  0
 45 39  1  0
 44 41  1  0
 43 47  1  0
 63 61  2  0
  3 68  1  6
  6 69  1  6
 11 70  1  1
 12 71  1  1
 21 72  1  0
 23 73  1  0
 24 74  1  0
 25 75  1  0
 26 76  1  0
 26 77  1  0
 27 78  1  0
 27 79  1  0
 27 80  1  0
 28 81  1  0
 29 82  1  0
 30 83  1  0
 31 84  1  0
 32 85  1  0
 32 86  1  0
 32 87  1  0
 33 88  1  0
 33 89  1  0
 33 90  1  0
 36 91  1  1
 39 92  1  1
 44 93  1  6
 45 94  1  6
 54 95  1  0
 56 96  1  0
 57 97  1  0
 58 98  1  0
 59 99  1  0
 59100  1  0
 60101  1  0
 60102  1  0
 60103  1  0
 61104  1  0
 62105  1  0
 63106  1  0
 64107  1  0
 65108  1  0
 65109  1  0
 65110  1  0
 66111  1  0
 66112  1  0
 66113  1  0
M  CHG  3  16  -1  49  -1  67   2
M  END
> <Uni-Dock RESULT> 
ENERGY=   -4.918  LOWER_BOUND=    8.300  UPPER_BOUND=   11.495
INTER + INTRA:          -4.918
INTER:                  -4.918
INTRA:                   0.000
UNBOUND:                 0.000

$$$$
