
     RDKit          3D

 75 80  0  0  0  0  0  0  0  0999 V2000
   -2.7961    2.0506   -1.7575 C   0  0  0  0  0  0  0  0  0  0  0  0
   -3.2736    1.5110   -0.5562 C   0  0  0  0  0  0  0  0  0  0  0  0
   -2.5936    0.3823   -0.0623 C   0  0  0  0  0  0  0  0  0  0  0  0
   -1.4800   -0.1986   -0.7111 C   0  0  0  0  0  0  0  0  0  0  0  0
   -1.0059    0.4171   -1.8844 C   0  0  0  0  0  0  0  0  0  0  0  0
   -1.6812    1.5209   -2.4149 C   0  0  0  0  0  0  0  0  0  0  0  0
   -4.3706    2.0498    0.0957 N   0  0  0  0  0  0  0  0  0  0  0  0
   -4.7402    3.4667   -0.0745 C   0  0  0  0  0  0  0  0  0  0  0  0
   -5.3990    4.0364    1.2053 C   0  0  0  0  0  0  0  0  0  0  0  0
   -6.5683    3.2926    1.7231 N   0  0  0  0  0  0  0  0  0  0  0  0
   -6.5515    1.8820    1.2772 C   0  0  0  0  0  0  0  0  0  0  0  0
   -5.1316    1.2932    1.1065 C   0  0  0  0  0  0  0  0  0  0  0  0
   -0.9201   -1.3734   -0.1408 N   0  0  0  0  0  0  0  0  0  0  0  0
   -0.9564   -2.5776   -1.0165 C   0  0  0  0  0  0  0  0  0  0  0  0
   -0.2138   -3.7247   -0.3107 C   0  0  0  0  0  0  0  0  0  0  0  0
   -1.1913   -4.6729    0.3702 C   0  0  0  0  0  0  0  0  0  0  0  0
   -2.1374   -5.2542   -0.5280 O   0  0  0  0  0  0  0  0  0  0  0  0
   -2.4712   -4.4618   -1.6696 C   0  0  0  0  0  0  0  0  0  0  0  0
   -2.3972   -2.9736   -1.3755 C   0  0  0  0  0  0  0  0  0  0  0  0
    0.2229   -0.0173   -2.6073 C   0  0  0  0  0  0  0  0  0  0  0  0
    1.2764   -0.3292   -1.7765 N   0  0  0  0  0  0  0  0  0  0  0  0
    0.1903   -0.0381   -3.8331 O   0  0  0  0  0  0  0  0  0  0  0  0
    2.5001   -0.8216   -2.1805 C   0  0  0  0  0  0  0  0  0  0  0  0
    2.8227   -1.1347   -3.4362 N   0  0  0  0  0  0  0  0  0  0  0  0
    4.0838   -1.5766   -3.3619 N   0  0  0  0  0  0  0  0  0  0  0  0
    4.6095   -1.5627   -2.1003 C   0  0  0  0  0  0  0  0  0  0  0  0
    3.5909   -1.0722   -1.2917 C   0  0  0  0  0  0  0  0  0  0  0  0
    3.8372   -0.9151    0.0880 C   0  0  0  0  0  0  0  0  0  0  0  0
    5.1062   -1.2448    0.6077 C   0  0  0  0  0  0  0  0  0  0  0  0
    6.0994   -1.7475   -0.2477 C   0  0  0  0  0  0  0  0  0  0  0  0
    5.8703   -1.9211   -1.6165 C   0  0  0  0  0  0  0  0  0  0  0  0
    5.4172   -0.9986    2.0682 C   0  0  0  0  0  0  0  0  0  0  0  0
    6.0891    0.3348    2.3052 C   0  0  0  0  0  0  0  0  0  0  0  0
    5.3381    1.5207    2.3342 C   0  0  0  0  0  0  0  0  0  0  0  0
    5.9732    2.7497    2.5002 C   0  0  0  0  0  0  0  0  0  0  0  0
    7.3497    2.8337    2.6483 C   0  0  0  0  0  0  0  0  0  0  0  0
    8.0934    1.6630    2.6217 C   0  0  0  0  0  0  0  0  0  0  0  0
    7.4824    0.4213    2.4485 C   0  0  0  0  0  0  0  0  0  0  0  0
    9.4273    1.7237    2.7501 F   0  0  0  0  0  0  0  0  0  0  0  0
    5.2407    3.8686    2.4969 F   0  0  0  0  0  0  0  0  0  0  0  0
   -7.8277    3.9357    1.3551 C   0  0  0  0  0  0  0  0  0  0  0  0
   -3.3034    2.8870   -2.2276 H   0  0  0  0  0  0  0  0  0  0  0  0
   -2.9359   -0.0683    0.8648 H   0  0  0  0  0  0  0  0  0  0  0  0
   -1.3398    1.9792   -3.3416 H   0  0  0  0  0  0  0  0  0  0  0  0
   -3.8518    4.0789   -0.2796 H   0  0  0  0  0  0  0  0  0  0  0  0
   -5.4256    3.5662   -0.9267 H   0  0  0  0  0  0  0  0  0  0  0  0
   -4.6425    4.0227    2.0022 H   0  0  0  0  0  0  0  0  0  0  0  0
   -5.6372    5.0969    1.0487 H   0  0  0  0  0  0  0  0  0  0  0  0
   -7.0717    1.7790    0.3156 H   0  0  0  0  0  0  0  0  0  0  0  0
   -7.1025    1.2749    2.0059 H   0  0  0  0  0  0  0  0  0  0  0  0
   -4.5998    1.3137    2.0658 H   0  0  0  0  0  0  0  0  0  0  0  0
   -5.2472    0.2474    0.7943 H   0  0  0  0  0  0  0  0  0  0  0  0
   -1.3976   -1.5844    0.7399 H   0  0  0  0  0  0  0  0  0  0  0  0
   -0.4014   -2.3816   -1.9400 H   0  0  0  0  0  0  0  0  0  0  0  0
    0.5231   -3.3498    0.4098 H   0  0  0  0  0  0  0  0  0  0  0  0
    0.3417   -4.2929   -1.0701 H   0  0  0  0  0  0  0  0  0  0  0  0
   -1.7463   -4.1526    1.1590 H   0  0  0  0  0  0  0  0  0  0  0  0
   -0.6462   -5.4930    0.8489 H   0  0  0  0  0  0  0  0  0  0  0  0
   -1.8010   -4.7361   -2.4919 H   0  0  0  0  0  0  0  0  0  0  0  0
   -3.4880   -4.7348   -1.9684 H   0  0  0  0  0  0  0  0  0  0  0  0
   -2.7404   -2.3983   -2.2449 H   0  0  0  0  0  0  0  0  0  0  0  0
   -3.0797   -2.7414   -0.5456 H   0  0  0  0  0  0  0  0  0  0  0  0
    1.1172   -0.2739   -0.7779 H   0  0  0  0  0  0  0  0  0  0  0  0
    4.5388   -1.8660   -4.2210 H   0  0  0  0  0  0  0  0  0  0  0  0
    3.0600   -0.5165    0.7352 H   0  0  0  0  0  0  0  0  0  0  0  0
    7.0839   -1.9961    0.1475 H   0  0  0  0  0  0  0  0  0  0  0  0
    6.6495   -2.2975   -2.2714 H   0  0  0  0  0  0  0  0  0  0  0  0
    6.0490   -1.8140    2.4476 H   0  0  0  0  0  0  0  0  0  0  0  0
    4.4975   -1.0549    2.6655 H   0  0  0  0  0  0  0  0  0  0  0  0
    4.2588    1.5077    2.2123 H   0  0  0  0  0  0  0  0  0  0  0  0
    7.8308    3.7949    2.7733 H   0  0  0  0  0  0  0  0  0  0  0  0
    8.1064   -0.4688    2.4168 H   0  0  0  0  0  0  0  0  0  0  0  0
   -7.8685    4.9579    1.7502 H   0  0  0  0  0  0  0  0  0  0  0  0
   -7.9698    3.9788    0.2710 H   0  0  0  0  0  0  0  0  0  0  0  0
   -8.6748    3.3981    1.7936 H   0  0  0  0  0  0  0  0  0  0  0  0
  1  2  2  0
  1  6  1  0
  2  3  1  0
  3  4  2  0
  4  5  1  0
  5  6  2  0
  2  7  1  0
  7  8  1  0
 12  7  1  0
  8  9  1  0
  9 10  1  0
 10 11  1  0
 11 12  1  0
  4 13  1  0
 13 14  1  0
 14 15  1  0
 19 14  1  0
 15 16  1  0
 16 17  1  0
 17 18  1  0
 18 19  1  0
  5 20  1  0
 20 21  1  0
 20 22  2  0
 21 23  1  0
 23 24  2  0
 23 27  1  0
 24 25  1  0
 25 26  1  0
 31 26  2  0
 26 27  1  0
 27 28  2  0
 28 29  1  0
 29 30  2  0
 30 31  1  0
 29 32  1  0
 32 33  1  0
 33 34  2  0
 33 38  1  0
 34 35  1  0
 35 36  2  0
 36 37  1  0
 37 38  2  0
 37 39  1  0
 35 40  1  0
 10 41  1  0
  1 42  1  0
  3 43  1  0
  6 44  1  0
  8 45  1  0
  8 46  1  0
  9 47  1  0
  9 48  1  0
 11 49  1  0
 11 50  1  0
 12 51  1  0
 12 52  1  0
 13 53  1  0
 14 54  1  0
 15 55  1  0
 15 56  1  0
 16 57  1  0
 16 58  1  0
 18 59  1  0
 18 60  1  0
 19 61  1  0
 19 62  1  0
 21 63  1  0
 25 64  1  0
 28 65  1  0
 30 66  1  0
 31 67  1  0
 32 68  1  0
 32 69  1  0
 34 70  1  0
 36 71  1  0
 38 72  1  0
 41 73  1  0
 41 74  1  0
 41 75  1  0
M  END
$$$$
