
     RDKit          3D

 75 80  0  0  0  0  0  0  0  0999 V2000
   -2.7691   -2.6414   -0.3905 C   0  0  0  0  0  0  0  0  0  0  0  0
   -3.4910   -1.4667   -0.1396 C   0  0  0  0  0  0  0  0  0  0  0  0
   -2.7473   -0.3280    0.2312 C   0  0  0  0  0  0  0  0  0  0  0  0
   -1.3413   -0.3077    0.2965 C   0  0  0  0  0  0  0  0  0  0  0  0
   -0.6737   -1.5312    0.0839 C   0  0  0  0  0  0  0  0  0  0  0  0
   -1.3793   -2.6857   -0.2717 C   0  0  0  0  0  0  0  0  0  0  0  0
   -4.8754   -1.4419   -0.2398 N   0  0  0  0  0  0  0  0  0  0  0  0
   -5.5606   -2.2824   -1.2369 C   0  0  0  0  0  0  0  0  0  0  0  0
   -6.8593   -1.6156   -1.7376 C   0  0  0  0  0  0  0  0  0  0  0  0
   -7.8296   -1.3218   -0.6638 N   0  0  0  0  0  0  0  0  0  0  0  0
   -7.1533   -0.8385    0.5618 C   0  0  0  0  0  0  0  0  0  0  0  0
   -5.6840   -0.3823    0.3857 C   0  0  0  0  0  0  0  0  0  0  0  0
   -0.6200    0.8341    0.6924 N   0  0  0  0  0  0  0  0  0  0  0  0
   -1.1677    2.1881    0.5405 C   0  0  0  0  0  0  0  0  0  0  0  0
   -0.2623    3.1754    1.2952 C   0  0  0  0  0  0  0  0  0  0  0  0
   -0.3191    4.5749    0.6925 C   0  0  0  0  0  0  0  0  0  0  0  0
   -1.5958    4.8059    0.1075 O   0  0  0  0  0  0  0  0  0  0  0  0
   -1.8145    4.0041   -1.0577 C   0  0  0  0  0  0  0  0  0  0  0  0
   -1.2527    2.5897   -0.9293 C   0  0  0  0  0  0  0  0  0  0  0  0
    0.8093   -1.6074    0.1868 C   0  0  0  0  0  0  0  0  0  0  0  0
    1.2620   -2.6391    0.9679 N   0  0  0  0  0  0  0  0  0  0  0  0
    1.4708   -0.7429   -0.3757 O   0  0  0  0  0  0  0  0  0  0  0  0
    2.5610   -2.9808    1.2625 C   0  0  0  0  0  0  0  0  0  0  0  0
    2.7154   -3.9162    2.2067 N   0  0  0  0  0  0  0  0  0  0  0  0
    4.0440   -4.0363    2.3361 N   0  0  0  0  0  0  0  0  0  0  0  0
    4.7661   -3.2419    1.4932 C   0  0  0  0  0  0  0  0  0  0  0  0
    3.8197   -2.5438    0.7467 C   0  0  0  0  0  0  0  0  0  0  0  0
    4.2990   -1.6639   -0.2461 C   0  0  0  0  0  0  0  0  0  0  0  0
    5.6816   -1.4789   -0.4360 C   0  0  0  0  0  0  0  0  0  0  0  0
    6.5881   -2.1860    0.3604 C   0  0  0  0  0  0  0  0  0  0  0  0
    6.1475   -3.0908    1.3317 C   0  0  0  0  0  0  0  0  0  0  0  0
    6.1684   -0.4989   -1.4770 C   0  0  0  0  0  0  0  0  0  0  0  0
    6.4049    0.8927   -0.9368 C   0  0  0  0  0  0  0  0  0  0  0  0
    5.3262    1.7449   -0.6532 C   0  0  0  0  0  0  0  0  0  0  0  0
    5.5594    3.0250   -0.1548 C   0  0  0  0  0  0  0  0  0  0  0  0
    6.8486    3.4857    0.0709 C   0  0  0  0  0  0  0  0  0  0  0  0
    7.9143    2.6401   -0.2035 C   0  0  0  0  0  0  0  0  0  0  0  0
    7.7073    1.3542   -0.6992 C   0  0  0  0  0  0  0  0  0  0  0  0
    9.1642    3.0708    0.0078 F   0  0  0  0  0  0  0  0  0  0  0  0
    4.5196    3.8301    0.0981 F   0  0  0  0  0  0  0  0  0  0  0  0
   -8.8605   -0.3956   -1.1252 C   0  0  0  0  0  0  0  0  0  0  0  0
   -3.2908   -3.5578   -0.6508 H   0  0  0  0  0  0  0  0  0  0  0  0
   -3.2900    0.5842    0.4455 H   0  0  0  0  0  0  0  0  0  0  0  0
   -0.8590   -3.6170   -0.4811 H   0  0  0  0  0  0  0  0  0  0  0  0
   -5.7899   -3.2588   -0.7936 H   0  0  0  0  0  0  0  0  0  0  0  0
   -4.9175   -2.4529   -2.1111 H   0  0  0  0  0  0  0  0  0  0  0  0
   -6.5875   -0.6891   -2.2677 H   0  0  0  0  0  0  0  0  0  0  0  0
   -7.3351   -2.2741   -2.4724 H   0  0  0  0  0  0  0  0  0  0  0  0
   -7.7222   -0.0303    1.0397 H   0  0  0  0  0  0  0  0  0  0  0  0
   -7.1655   -1.6733    1.2750 H   0  0  0  0  0  0  0  0  0  0  0  0
   -5.6461    0.5252   -0.2290 H   0  0  0  0  0  0  0  0  0  0  0  0
   -5.2939   -0.1392    1.3823 H   0  0  0  0  0  0  0  0  0  0  0  0
    0.3389    0.7703    0.3302 H   0  0  0  0  0  0  0  0  0  0  0  0
   -2.1590    2.2544    1.0026 H   0  0  0  0  0  0  0  0  0  0  0  0
   -0.5969    3.2116    2.3398 H   0  0  0  0  0  0  0  0  0  0  0  0
    0.7818    2.8421    1.3290 H   0  0  0  0  0  0  0  0  0  0  0  0
   -0.1555    5.3286    1.4710 H   0  0  0  0  0  0  0  0  0  0  0  0
    0.4614    4.7147   -0.0652 H   0  0  0  0  0  0  0  0  0  0  0  0
   -1.3867    4.5118   -1.9311 H   0  0  0  0  0  0  0  0  0  0  0  0
   -2.8985    3.9619   -1.2123 H   0  0  0  0  0  0  0  0  0  0  0  0
   -0.2487    2.5572   -1.3748 H   0  0  0  0  0  0  0  0  0  0  0  0
   -1.8612    1.8983   -1.5202 H   0  0  0  0  0  0  0  0  0  0  0  0
    0.6029   -3.1556    1.5319 H   0  0  0  0  0  0  0  0  0  0  0  0
    4.4004   -4.6861    3.0277 H   0  0  0  0  0  0  0  0  0  0  0  0
    3.6044   -1.1171   -0.8729 H   0  0  0  0  0  0  0  0  0  0  0  0
    7.6581   -2.0382    0.2279 H   0  0  0  0  0  0  0  0  0  0  0  0
    6.8577   -3.6495    1.9322 H   0  0  0  0  0  0  0  0  0  0  0  0
    7.0864   -0.8872   -1.9385 H   0  0  0  0  0  0  0  0  0  0  0  0
    5.4500   -0.4425   -2.3055 H   0  0  0  0  0  0  0  0  0  0  0  0
    4.3000    1.4231   -0.8174 H   0  0  0  0  0  0  0  0  0  0  0  0
    7.0208    4.4849    0.4546 H   0  0  0  0  0  0  0  0  0  0  0  0
    8.5683    0.7245   -0.8990 H   0  0  0  0  0  0  0  0  0  0  0  0
   -9.3567   -0.7831   -2.0224 H   0  0  0  0  0  0  0  0  0  0  0  0
   -8.4517    0.5949   -1.3540 H   0  0  0  0  0  0  0  0  0  0  0  0
   -9.6397   -0.2859   -0.3630 H   0  0  0  0  0  0  0  0  0  0  0  0
  1  2  2  0
  1  6  1  0
  2  3  1  0
  3  4  2  0
  4  5  1  0
  5  6  2  0
  2  7  1  0
  7  8  1  0
 12  7  1  0
  8  9  1  0
  9 10  1  0
 10 11  1  0
 11 12  1  0
  4 13  1  0
 13 14  1  0
 14 15  1  0
 19 14  1  0
 15 16  1  0
 16 17  1  0
 17 18  1  0
 18 19  1  0
  5 20  1  0
 20 21  1  0
 20 22  2  0
 21 23  1  0
 23 24  2  0
 23 27  1  0
 24 25  1  0
 25 26  1  0
 31 26  2  0
 26 27  1  0
 27 28  2  0
 28 29  1  0
 29 30  2  0
 30 31  1  0
 29 32  1  0
 32 33  1  0
 33 34  2  0
 33 38  1  0
 34 35  1  0
 35 36  2  0
 36 37  1  0
 37 38  2  0
 37 39  1  0
 35 40  1  0
 10 41  1  0
  1 42  1  0
  3 43  1  0
  6 44  1  0
  8 45  1  0
  8 46  1  0
  9 47  1  0
  9 48  1  0
 11 49  1  0
 11 50  1  0
 12 51  1  0
 12 52  1  0
 13 53  1  0
 14 54  1  0
 15 55  1  0
 15 56  1  0
 16 57  1  0
 16 58  1  0
 18 59  1  0
 18 60  1  0
 19 61  1  0
 19 62  1  0
 21 63  1  0
 25 64  1  0
 28 65  1  0
 30 66  1  0
 31 67  1  0
 32 68  1  0
 32 69  1  0
 34 70  1  0
 36 71  1  0
 38 72  1  0
 41 73  1  0
 41 74  1  0
 41 75  1  0
M  END
$$$$
