
     RDKit          2D

 41 46  0  0  0  0  0  0  0  0999 V2000
   -4.4196    2.6196    0.0000 C   0  0  0  0  0  0  0  0  0  0  0  0
   -5.1341    2.2071    0.0000 C   0  0  0  0  0  0  0  0  0  0  0  0
   -5.1341    1.3821    0.0000 C   0  0  0  0  0  0  0  0  0  0  0  0
   -4.4196    0.9696    0.0000 C   0  0  0  0  0  0  0  0  0  0  0  0
   -3.7051    1.3821    0.0000 C   0  0  0  0  0  0  0  0  0  0  0  0
   -3.7051    2.2071    0.0000 C   0  0  0  0  0  0  0  0  0  0  0  0
   -5.8486    2.6196    0.0000 N   0  0  0  0  0  0  0  0  0  0  0  0
   -5.8486    3.4446    0.0000 C   0  0  0  0  0  0  0  0  0  0  0  0
   -6.5631    3.8572    0.0000 C   0  0  0  0  0  0  0  0  0  0  0  0
   -7.2776    3.4447    0.0000 N   0  0  0  0  0  0  0  0  0  0  0  0
   -7.2776    2.6197    0.0000 C   0  0  0  0  0  0  0  0  0  0  0  0
   -6.5631    2.2072    0.0000 C   0  0  0  0  0  0  0  0  0  0  0  0
   -4.4196    0.1446    0.0000 N   0  0  0  0  0  0  0  0  0  0  0  0
   -5.1341   -0.2679    0.0000 C   0  0  0  0  0  0  0  0  0  0  0  0
   -5.8486    0.1446    0.0000 C   0  0  0  0  0  0  0  0  0  0  0  0
   -6.5631   -0.2679    0.0000 C   0  0  0  0  0  0  0  0  0  0  0  0
   -6.5631   -1.0929    0.0000 O   0  0  0  0  0  0  0  0  0  0  0  0
   -5.8486   -1.5054    0.0000 C   0  0  0  0  0  0  0  0  0  0  0  0
   -5.1341   -1.0929    0.0000 C   0  0  0  0  0  0  0  0  0  0  0  0
   -2.9907    0.9696    0.0000 C   0  0  0  0  0  0  0  0  0  0  0  0
   -2.2762    1.3821    0.0000 N   0  0  0  0  0  0  0  0  0  0  0  0
   -2.9907    0.1446    0.0000 O   0  0  0  0  0  0  0  0  0  0  0  0
   -1.5617    0.9696    0.0000 C   0  0  0  0  0  0  0  0  0  0  0  0
   -1.4755    0.1491    0.0000 N   0  0  0  0  0  0  0  0  0  0  0  0
   -0.6686   -0.0224    0.0000 N   0  0  0  0  0  0  0  0  0  0  0  0
   -0.2561    0.6921    0.0000 C   0  0  0  0  0  0  0  0  0  0  0  0
   -0.8080    1.3052    0.0000 C   0  0  0  0  0  0  0  0  0  0  0  0
   -0.5531    2.0898    0.0000 C   0  0  0  0  0  0  0  0  0  0  0  0
    0.2538    2.2614    0.0000 C   0  0  0  0  0  0  0  0  0  0  0  0
    0.8059    1.6483    0.0000 C   0  0  0  0  0  0  0  0  0  0  0  0
    0.5509    0.8636    0.0000 C   0  0  0  0  0  0  0  0  0  0  0  0
    0.5088    3.0460    0.0000 C   0  0  0  0  0  0  0  0  0  0  0  0
    1.3057    3.2595    0.0000 C   0  0  0  0  0  0  0  0  0  0  0  0
    1.8890    2.6761    0.0000 C   0  0  0  0  0  0  0  0  0  0  0  0
    2.6859    2.8897    0.0000 C   0  0  0  0  0  0  0  0  0  0  0  0
    2.8994    3.6866    0.0000 C   0  0  0  0  0  0  0  0  0  0  0  0
    2.3161    4.2700    0.0000 C   0  0  0  0  0  0  0  0  0  0  0  0
    1.5192    4.0564    0.0000 C   0  0  0  0  0  0  0  0  0  0  0  0
    2.5296    5.0668    0.0000 F   0  0  0  0  0  0  0  0  0  0  0  0
    3.2693    2.3063    0.0000 F   0  0  0  0  0  0  0  0  0  0  0  0
   -7.9920    3.8572    0.0000 C   0  0  0  0  0  0  0  0  0  0  0  0
  1  2  2  0
  1  6  1  0
  2  3  1  0
  3  4  2  0
  4  5  1  0
  5  6  2  0
  2  7  1  0
  7  8  1  0
 12  7  1  0
  8  9  1  0
  9 10  1  0
 10 11  1  0
 11 12  1  0
  4 13  1  0
 13 14  1  0
 14 15  1  0
 19 14  1  0
 15 16  1  0
 16 17  1  0
 17 18  1  0
 18 19  1  0
  5 20  1  0
 20 21  1  0
 20 22  2  0
 21 23  1  0
 23 24  2  0
 23 27  1  0
 24 25  1  0
 25 26  1  0
 31 26  1  0
 26 27  2  0
 27 28  1  0
 28 29  2  0
 29 30  1  0
 30 31  2  0
 29 32  1  0
 32 33  1  0
 33 34  1  0
 33 38  2  0
 34 35  2  0
 35 36  1  0
 36 37  2  0
 37 38  1  0
 37 39  1  0
 35 40  1  0
 10 41  1  0
M  END
> <chembl_id>
CHEMBL1983268

> <chembl_pref_name>
ENTRECTINIB
