
     RDKit          3D

 75 80  0  0  0  0  0  0  0  0999 V2000
   -2.0993    2.2153    0.5634 C   0  0  0  0  0  0  0  0  0  0  0  0
   -3.1488    1.4043    0.1158 C   0  0  0  0  0  0  0  0  0  0  0  0
   -2.8741    0.0270   -0.0485 C   0  0  0  0  0  0  0  0  0  0  0  0
   -1.6061   -0.5453    0.1630 C   0  0  0  0  0  0  0  0  0  0  0  0
   -0.5975    0.3181    0.6320 C   0  0  0  0  0  0  0  0  0  0  0  0
   -0.8338    1.6852    0.8194 C   0  0  0  0  0  0  0  0  0  0  0  0
   -4.4446    1.8897   -0.1336 N   0  0  0  0  0  0  0  0  0  0  0  0
   -4.9489    1.6197   -1.5046 C   0  0  0  0  0  0  0  0  0  0  0  0
   -6.4581    1.9561   -1.6147 C   0  0  0  0  0  0  0  0  0  0  0  0
   -6.8519    3.3057   -1.1557 N   0  0  0  0  0  0  0  0  0  0  0  0
   -6.3036    3.5202    0.2011 C   0  0  0  0  0  0  0  0  0  0  0  0
   -4.7890    3.2427    0.3534 C   0  0  0  0  0  0  0  0  0  0  0  0
   -1.3618   -1.9252    0.0730 N   0  0  0  0  0  0  0  0  0  0  0  0
   -2.2796   -2.8507   -0.5950 C   0  0  0  0  0  0  0  0  0  0  0  0
   -3.3331   -3.3568    0.3899 C   0  0  0  0  0  0  0  0  0  0  0  0
   -4.2884   -4.3266   -0.3042 C   0  0  0  0  0  0  0  0  0  0  0  0
   -3.7201   -4.9283   -1.4708 O   0  0  0  0  0  0  0  0  0  0  0  0
   -2.3595   -5.2983   -1.2733 C   0  0  0  0  0  0  0  0  0  0  0  0
   -1.4860   -4.0559   -1.1296 C   0  0  0  0  0  0  0  0  0  0  0  0
    0.7656   -0.1963    0.9202 C   0  0  0  0  0  0  0  0  0  0  0  0
    1.1782    0.0440    2.2056 N   0  0  0  0  0  0  0  0  0  0  0  0
    1.3575   -0.8028    0.0369 O   0  0  0  0  0  0  0  0  0  0  0  0
    2.3997   -0.2472    2.7662 C   0  0  0  0  0  0  0  0  0  0  0  0
    2.4613   -0.2005    4.1038 N   0  0  0  0  0  0  0  0  0  0  0  0
    3.7261   -0.5377    4.3833 N   0  0  0  0  0  0  0  0  0  0  0  0
    4.5117   -0.7459    3.2847 C   0  0  0  0  0  0  0  0  0  0  0  0
    3.6701   -0.5579    2.1915 C   0  0  0  0  0  0  0  0  0  0  0  0
    4.2367   -0.6720    0.9037 C   0  0  0  0  0  0  0  0  0  0  0  0
    5.5985   -1.0017    0.7505 C   0  0  0  0  0  0  0  0  0  0  0  0
    6.3944   -1.1943    1.8846 C   0  0  0  0  0  0  0  0  0  0  0  0
    5.8671   -1.0690    3.1741 C   0  0  0  0  0  0  0  0  0  0  0  0
    6.1949   -1.1209   -0.6332 C   0  0  0  0  0  0  0  0  0  0  0  0
    6.8469    0.1509   -1.1211 C   0  0  0  0  0  0  0  0  0  0  0  0
    8.2281    0.3510   -0.9753 C   0  0  0  0  0  0  0  0  0  0  0  0
    8.8141    1.5306   -1.4290 C   0  0  0  0  0  0  0  0  0  0  0  0
    8.0553    2.5282   -2.0239 C   0  0  0  0  0  0  0  0  0  0  0  0
    6.6878    2.3355   -2.1578 C   0  0  0  0  0  0  0  0  0  0  0  0
    6.0783    1.1651   -1.7122 C   0  0  0  0  0  0  0  0  0  0  0  0
    5.9420    3.2913   -2.7275 F   0  0  0  0  0  0  0  0  0  0  0  0
   10.1356    1.7015   -1.2878 F   0  0  0  0  0  0  0  0  0  0  0  0
   -6.4145    4.3403   -2.0896 C   0  0  0  0  0  0  0  0  0  0  0  0
   -2.2336    3.2831    0.7051 H   0  0  0  0  0  0  0  0  0  0  0  0
   -3.7031   -0.6138   -0.3351 H   0  0  0  0  0  0  0  0  0  0  0  0
   -0.0335    2.3442    1.1450 H   0  0  0  0  0  0  0  0  0  0  0  0
   -4.8318    0.5655   -1.7816 H   0  0  0  0  0  0  0  0  0  0  0  0
   -4.3761    2.2142   -2.2296 H   0  0  0  0  0  0  0  0  0  0  0  0
   -6.7910    1.8018   -2.6482 H   0  0  0  0  0  0  0  0  0  0  0  0
   -7.0164    1.2269   -1.0123 H   0  0  0  0  0  0  0  0  0  0  0  0
   -6.5248    4.5411    0.5379 H   0  0  0  0  0  0  0  0  0  0  0  0
   -6.8473    2.8571    0.8887 H   0  0  0  0  0  0  0  0  0  0  0  0
   -4.5403    3.3334    1.4180 H   0  0  0  0  0  0  0  0  0  0  0  0
   -4.2224    4.0041   -0.1961 H   0  0  0  0  0  0  0  0  0  0  0  0
   -0.3762   -2.0841   -0.1711 H   0  0  0  0  0  0  0  0  0  0  0  0
   -2.7582   -2.3633   -1.4541 H   0  0  0  0  0  0  0  0  0  0  0  0
   -3.9021   -2.5502    0.8638 H   0  0  0  0  0  0  0  0  0  0  0  0
   -2.8337   -3.8801    1.2184 H   0  0  0  0  0  0  0  0  0  0  0  0
   -4.6055   -5.1148    0.3922 H   0  0  0  0  0  0  0  0  0  0  0  0
   -5.1921   -3.7964   -0.6279 H   0  0  0  0  0  0  0  0  0  0  0  0
   -2.0319   -5.8904   -2.1334 H   0  0  0  0  0  0  0  0  0  0  0  0
   -2.2846   -5.9409   -0.3877 H   0  0  0  0  0  0  0  0  0  0  0  0
   -1.0567   -3.7848   -2.1008 H   0  0  0  0  0  0  0  0  0  0  0  0
   -0.6317   -4.3009   -0.4877 H   0  0  0  0  0  0  0  0  0  0  0  0
    0.4916    0.3119    2.8982 H   0  0  0  0  0  0  0  0  0  0  0  0
    4.0029   -0.6001    5.3559 H   0  0  0  0  0  0  0  0  0  0  0  0
    3.6262   -0.5009    0.0225 H   0  0  0  0  0  0  0  0  0  0  0  0
    7.4478   -1.4439    1.7744 H   0  0  0  0  0  0  0  0  0  0  0  0
    6.4945   -1.2092    4.0479 H   0  0  0  0  0  0  0  0  0  0  0  0
    5.4219   -1.4324   -1.3482 H   0  0  0  0  0  0  0  0  0  0  0  0
    6.9249   -1.9412   -0.6422 H   0  0  0  0  0  0  0  0  0  0  0  0
    8.8604   -0.4040   -0.5141 H   0  0  0  0  0  0  0  0  0  0  0  0
    8.5210    3.4406   -2.3756 H   0  0  0  0  0  0  0  0  0  0  0  0
    5.0029    1.0529   -1.8320 H   0  0  0  0  0  0  0  0  0  0  0  0
   -5.3289    4.3754   -2.2259 H   0  0  0  0  0  0  0  0  0  0  0  0
   -6.8731    4.1838   -3.0720 H   0  0  0  0  0  0  0  0  0  0  0  0
   -6.7503    5.3262   -1.7504 H   0  0  0  0  0  0  0  0  0  0  0  0
  1  2  2  0
  1  6  1  0
  2  3  1  0
  3  4  2  0
  4  5  1  0
  5  6  2  0
  2  7  1  0
  7  8  1  0
 12  7  1  0
  8  9  1  0
  9 10  1  0
 10 11  1  0
 11 12  1  0
  4 13  1  0
 13 14  1  0
 14 15  1  0
 19 14  1  0
 15 16  1  0
 16 17  1  0
 17 18  1  0
 18 19  1  0
  5 20  1  0
 20 21  1  0
 20 22  2  0
 21 23  1  0
 23 24  2  0
 23 27  1  0
 24 25  1  0
 25 26  1  0
 31 26  2  0
 26 27  1  0
 27 28  2  0
 28 29  1  0
 29 30  2  0
 30 31  1  0
 29 32  1  0
 32 33  1  0
 33 34  2  0
 33 38  1  0
 34 35  1  0
 35 36  2  0
 36 37  1  0
 37 38  2  0
 37 39  1  0
 35 40  1  0
 10 41  1  0
  1 42  1  0
  3 43  1  0
  6 44  1  0
  8 45  1  0
  8 46  1  0
  9 47  1  0
  9 48  1  0
 11 49  1  0
 11 50  1  0
 12 51  1  0
 12 52  1  0
 13 53  1  0
 14 54  1  0
 15 55  1  0
 15 56  1  0
 16 57  1  0
 16 58  1  0
 18 59  1  0
 18 60  1  0
 19 61  1  0
 19 62  1  0
 21 63  1  0
 25 64  1  0
 28 65  1  0
 30 66  1  0
 31 67  1  0
 32 68  1  0
 32 69  1  0
 34 70  1  0
 36 71  1  0
 38 72  1  0
 41 73  1  0
 41 74  1  0
 41 75  1  0
M  END
$$$$
