
     RDKit          3D

 41 46  0  0  0  0  0  0  0  0999 V2000
   -2.3309    1.9165   -0.4719 C   0  0  0  0  0  0  0  0  0  0  0  0
   -3.6706    1.7106   -0.2249 C   0  0  0  0  0  0  0  0  0  0  0  0
   -4.0899    0.4668    0.1210 C   0  0  0  0  0  0  0  0  0  0  0  0
   -3.2124   -0.6406    0.2423 C   0  0  0  0  0  0  0  0  0  0  0  0
   -1.8730   -0.4337   -0.0024 C   0  0  0  0  0  0  0  0  0  0  0  0
   -1.4542    0.8582   -0.3605 C   0  0  0  0  0  0  0  0  0  0  0  0
   -4.5720    2.7995   -0.3384 N   0  0  0  0  0  0  0  0  0  0  0  0
   -6.0064    2.6637   -0.0924 C   0  0  0  0  0  0  0  0  0  0  0  0
   -6.7280    3.6848   -0.9425 C   0  0  0  0  0  0  0  0  0  0  0  0
   -6.3180    5.0414   -0.6345 N   0  0  0  0  0  0  0  0  0  0  0  0
   -5.0308    5.0894    0.0405 C   0  0  0  0  0  0  0  0  0  0  0  0
   -4.1082    4.1216   -0.7096 C   0  0  0  0  0  0  0  0  0  0  0  0
   -3.8129   -1.8185    0.5958 N   0  0  0  0  0  0  0  0  0  0  0  0
   -3.5281   -3.1568    0.7788 C   0  0  0  0  0  0  0  0  0  0  0  0
   -4.7399   -3.8280    1.4810 C   0  0  0  0  0  0  0  0  0  0  0  0
   -5.9482   -3.0879    0.9111 C   0  0  0  0  0  0  0  0  0  0  0  0
   -5.7367   -2.7706   -0.4333 O   0  0  0  0  0  0  0  0  0  0  0  0
   -5.0037   -3.7744   -1.0780 C   0  0  0  0  0  0  0  0  0  0  0  0
   -3.5583   -3.8197   -0.6291 C   0  0  0  0  0  0  0  0  0  0  0  0
   -0.8429   -1.4396    0.1466 C   0  0  0  0  0  0  0  0  0  0  0  0
    0.4842   -1.1001   -0.2711 N   0  0  0  0  0  0  0  0  0  0  0  0
   -0.9769   -2.5860    0.6022 O   0  0  0  0  0  0  0  0  0  0  0  0
    1.4801   -2.1025   -0.1178 C   0  0  0  0  0  0  0  0  0  0  0  0
    1.3986   -3.3495    0.3656 N   0  0  0  0  0  0  0  0  0  0  0  0
    2.5731   -3.9474    0.3274 N   0  0  0  0  0  0  0  0  0  0  0  0
    3.4697   -3.0898   -0.1920 C   0  0  0  0  0  0  0  0  0  0  0  0
    2.7926   -1.9065   -0.4829 C   0  0  0  0  0  0  0  0  0  0  0  0
    3.4522   -0.8128   -1.0376 C   0  0  0  0  0  0  0  0  0  0  0  0
    4.8212   -0.9361   -1.2962 C   0  0  0  0  0  0  0  0  0  0  0  0
    5.4831   -2.1131   -1.0043 C   0  0  0  0  0  0  0  0  0  0  0  0
    4.8313   -3.2132   -0.4488 C   0  0  0  0  0  0  0  0  0  0  0  0
    5.5646    0.2226   -1.8938 C   0  0  0  0  0  0  0  0  0  0  0  0
    6.0578    1.0260   -0.7391 C   0  0  0  0  0  0  0  0  0  0  0  0
    7.3031    0.7738   -0.1684 C   0  0  0  0  0  0  0  0  0  0  0  0
    7.8105    1.4779    0.8936 C   0  0  0  0  0  0  0  0  0  0  0  0
    7.0340    2.4934    1.4200 C   0  0  0  0  0  0  0  0  0  0  0  0
    5.7920    2.7604    0.8668 C   0  0  0  0  0  0  0  0  0  0  0  0
    5.2800    2.0536   -0.2012 C   0  0  0  0  0  0  0  0  0  0  0  0
    5.0627    3.7796    1.4284 F   0  0  0  0  0  0  0  0  0  0  0  0
    9.0246    1.2217    1.4394 F   0  0  0  0  0  0  0  0  0  0  0  0
   -6.1737    5.7651   -1.9034 C   0  0  0  0  0  0  0  0  0  0  0  0
  1  2  2  0
  1  6  1  0
  2  3  1  0
  3  4  2  0
  4  5  1  0
  5  6  2  0
  2  7  1  0
  7  8  1  0
 12  7  1  0
  8  9  1  0
  9 10  1  0
 10 11  1  0
 11 12  1  0
  4 13  1  0
 13 14  1  0
 14 15  1  0
 19 14  1  0
 15 16  1  0
 16 17  1  0
 17 18  1  0
 18 19  1  0
  5 20  1  0
 20 21  1  0
 20 22  2  0
 21 23  1  0
 23 24  2  0
 23 27  1  0
 24 25  1  0
 25 26  1  0
 31 26  2  0
 26 27  1  0
 27 28  2  0
 28 29  1  0
 29 30  2  0
 30 31  1  0
 29 32  1  0
 32 33  1  0
 33 34  2  0
 33 38  1  0
 34 35  1  0
 35 36  2  0
 36 37  1  0
 37 38  2  0
 37 39  1  0
 35 40  1  0
 10 41  1  0
M  END
