
     RDKit          3D

 75 80  0  0  0  0  0  0  0  0999 V2000
   -2.8868    2.0487   -1.2263 C   0  0  0  0  0  0  0  0  0  0  0  0
   -3.2438    1.2378   -0.1437 C   0  0  0  0  0  0  0  0  0  0  0  0
   -2.5765    0.0020    0.0051 C   0  0  0  0  0  0  0  0  0  0  0  0
   -1.5928   -0.4543   -0.8881 C   0  0  0  0  0  0  0  0  0  0  0  0
   -1.2372    0.4303   -1.9242 C   0  0  0  0  0  0  0  0  0  0  0  0
   -1.8877    1.6540   -2.1132 C   0  0  0  0  0  0  0  0  0  0  0  0
   -4.2347    1.5845    0.7881 N   0  0  0  0  0  0  0  0  0  0  0  0
   -5.4390    0.7212    0.6706 C   0  0  0  0  0  0  0  0  0  0  0  0
   -6.6529    1.3479    1.3937 C   0  0  0  0  0  0  0  0  0  0  0  0
   -7.0469    2.6650    0.8461 N   0  0  0  0  0  0  0  0  0  0  0  0
   -5.8677    3.4481    0.4123 C   0  0  0  0  0  0  0  0  0  0  0  0
   -4.5273    3.0113    1.0430 C   0  0  0  0  0  0  0  0  0  0  0  0
   -0.8862   -1.6591   -0.6986 N   0  0  0  0  0  0  0  0  0  0  0  0
   -1.5004   -2.7734    0.0473 C   0  0  0  0  0  0  0  0  0  0  0  0
   -1.0366   -2.7285    1.5118 C   0  0  0  0  0  0  0  0  0  0  0  0
   -1.0265   -4.1274    2.1045 C   0  0  0  0  0  0  0  0  0  0  0  0
   -0.1141   -5.0024    1.4404 O   0  0  0  0  0  0  0  0  0  0  0  0
    0.1068   -4.7111    0.0594 C   0  0  0  0  0  0  0  0  0  0  0  0
   -1.1207   -4.1143   -0.6093 C   0  0  0  0  0  0  0  0  0  0  0  0
   -0.1435    0.1090   -2.8637 C   0  0  0  0  0  0  0  0  0  0  0  0
    1.0985    0.3878   -2.3400 N   0  0  0  0  0  0  0  0  0  0  0  0
   -0.4462   -0.3610   -3.9526 O   0  0  0  0  0  0  0  0  0  0  0  0
    2.2947    0.2723   -3.0180 C   0  0  0  0  0  0  0  0  0  0  0  0
    2.4196   -0.1159   -4.2879 N   0  0  0  0  0  0  0  0  0  0  0  0
    3.7353   -0.0686   -4.5270 N   0  0  0  0  0  0  0  0  0  0  0  0
    4.4859    0.3484   -3.4634 C   0  0  0  0  0  0  0  0  0  0  0  0
    3.5673    0.5790   -2.4460 C   0  0  0  0  0  0  0  0  0  0  0  0
    4.0415    1.0291   -1.1966 C   0  0  0  0  0  0  0  0  0  0  0  0
    5.4226    1.2387   -1.0122 C   0  0  0  0  0  0  0  0  0  0  0  0
    6.3110    0.9846   -2.0678 C   0  0  0  0  0  0  0  0  0  0  0  0
    5.8623    0.5364   -3.3150 C   0  0  0  0  0  0  0  0  0  0  0  0
    5.9455    1.7146    0.3251 C   0  0  0  0  0  0  0  0  0  0  0  0
    6.0419    0.6170    1.3591 C   0  0  0  0  0  0  0  0  0  0  0  0
    5.0930    0.5117    2.3866 C   0  0  0  0  0  0  0  0  0  0  0  0
    5.1881   -0.5145    3.3255 C   0  0  0  0  0  0  0  0  0  0  0  0
    6.2114   -1.4492    3.2683 C   0  0  0  0  0  0  0  0  0  0  0  0
    7.1488   -1.3464    2.2518 C   0  0  0  0  0  0  0  0  0  0  0  0
    7.0757   -0.3298    1.3014 C   0  0  0  0  0  0  0  0  0  0  0  0
    8.1454   -2.2382    2.1809 F   0  0  0  0  0  0  0  0  0  0  0  0
    4.2737   -0.5970    4.3006 F   0  0  0  0  0  0  0  0  0  0  0  0
   -7.8666    3.3948    1.8079 C   0  0  0  0  0  0  0  0  0  0  0  0
   -3.3910    2.9920   -1.4119 H   0  0  0  0  0  0  0  0  0  0  0  0
   -2.8405   -0.5935    0.8731 H   0  0  0  0  0  0  0  0  0  0  0  0
   -1.6189    2.2922   -2.9506 H   0  0  0  0  0  0  0  0  0  0  0  0
   -5.6979    0.5566   -0.3860 H   0  0  0  0  0  0  0  0  0  0  0  0
   -5.2340   -0.2561    1.1228 H   0  0  0  0  0  0  0  0  0  0  0  0
   -6.4008    1.4337    2.4592 H   0  0  0  0  0  0  0  0  0  0  0  0
   -7.5072    0.6644    1.3171 H   0  0  0  0  0  0  0  0  0  0  0  0
   -6.0160    4.5215    0.5867 H   0  0  0  0  0  0  0  0  0  0  0  0
   -5.7927    3.3345   -0.6767 H   0  0  0  0  0  0  0  0  0  0  0  0
   -4.5883    3.1484    2.1311 H   0  0  0  0  0  0  0  0  0  0  0  0
   -3.7142    3.6709    0.7157 H   0  0  0  0  0  0  0  0  0  0  0  0
   -0.4932   -1.9708   -1.5907 H   0  0  0  0  0  0  0  0  0  0  0  0
   -2.5944   -2.7064   -0.0074 H   0  0  0  0  0  0  0  0  0  0  0  0
   -0.0259   -2.3059    1.5748 H   0  0  0  0  0  0  0  0  0  0  0  0
   -1.6895   -2.0798    2.1039 H   0  0  0  0  0  0  0  0  0  0  0  0
   -2.0244   -4.5759    2.0554 H   0  0  0  0  0  0  0  0  0  0  0  0
   -0.7429   -4.0958    3.1604 H   0  0  0  0  0  0  0  0  0  0  0  0
    0.3850   -5.6494   -0.4316 H   0  0  0  0  0  0  0  0  0  0  0  0
    0.9661   -4.0354   -0.0192 H   0  0  0  0  0  0  0  0  0  0  0  0
   -0.9640   -4.0142   -1.6898 H   0  0  0  0  0  0  0  0  0  0  0  0
   -1.9582   -4.8119   -0.4721 H   0  0  0  0  0  0  0  0  0  0  0  0
    1.1549    0.6847   -1.3772 H   0  0  0  0  0  0  0  0  0  0  0  0
    4.0603   -0.3334   -5.4496 H   0  0  0  0  0  0  0  0  0  0  0  0
    3.3465    1.2127   -0.3819 H   0  0  0  0  0  0  0  0  0  0  0  0
    7.3810    1.1323   -1.9253 H   0  0  0  0  0  0  0  0  0  0  0  0
    6.5593    0.3419   -4.1241 H   0  0  0  0  0  0  0  0  0  0  0  0
    6.9345    2.1762    0.2051 H   0  0  0  0  0  0  0  0  0  0  0  0
    5.3011    2.5256    0.6897 H   0  0  0  0  0  0  0  0  0  0  0  0
    4.2726    1.2185    2.4682 H   0  0  0  0  0  0  0  0  0  0  0  0
    6.2765   -2.2427    4.0023 H   0  0  0  0  0  0  0  0  0  0  0  0
    7.8276   -0.2908    0.5186 H   0  0  0  0  0  0  0  0  0  0  0  0
   -8.2374    4.3253    1.3658 H   0  0  0  0  0  0  0  0  0  0  0  0
   -8.7510    2.8063    2.0832 H   0  0  0  0  0  0  0  0  0  0  0  0
   -7.3178    3.6415    2.7251 H   0  0  0  0  0  0  0  0  0  0  0  0
  1  2  2  0
  1  6  1  0
  2  3  1  0
  3  4  2  0
  4  5  1  0
  5  6  2  0
  2  7  1  0
  7  8  1  0
 12  7  1  0
  8  9  1  0
  9 10  1  0
 10 11  1  0
 11 12  1  0
  4 13  1  0
 13 14  1  0
 14 15  1  0
 19 14  1  0
 15 16  1  0
 16 17  1  0
 17 18  1  0
 18 19  1  0
  5 20  1  0
 20 21  1  0
 20 22  2  0
 21 23  1  0
 23 24  2  0
 23 27  1  0
 24 25  1  0
 25 26  1  0
 31 26  2  0
 26 27  1  0
 27 28  2  0
 28 29  1  0
 29 30  2  0
 30 31  1  0
 29 32  1  0
 32 33  1  0
 33 34  2  0
 33 38  1  0
 34 35  1  0
 35 36  2  0
 36 37  1  0
 37 38  2  0
 37 39  1  0
 35 40  1  0
 10 41  1  0
  1 42  1  0
  3 43  1  0
  6 44  1  0
  8 45  1  0
  8 46  1  0
  9 47  1  0
  9 48  1  0
 11 49  1  0
 11 50  1  0
 12 51  1  0
 12 52  1  0
 13 53  1  0
 14 54  1  0
 15 55  1  0
 15 56  1  0
 16 57  1  0
 16 58  1  0
 18 59  1  0
 18 60  1  0
 19 61  1  0
 19 62  1  0
 21 63  1  0
 25 64  1  0
 28 65  1  0
 30 66  1  0
 31 67  1  0
 32 68  1  0
 32 69  1  0
 34 70  1  0
 36 71  1  0
 38 72  1  0
 41 73  1  0
 41 74  1  0
 41 75  1  0
M  END
$$$$
