
     RDKit          3D

 75 80  0  0  0  0  0  0  0  0999 V2000
   -2.5448    2.0673   -0.1391 C   0  0  0  0  0  0  0  0  0  0  0  0
   -3.3208    1.0993   -0.7950 C   0  0  0  0  0  0  0  0  0  0  0  0
   -3.1909   -0.2252   -0.3286 C   0  0  0  0  0  0  0  0  0  0  0  0
   -2.3731   -0.5864    0.7573 C   0  0  0  0  0  0  0  0  0  0  0  0
   -1.6133    0.4169    1.3726 C   0  0  0  0  0  0  0  0  0  0  0  0
   -1.7053    1.7410    0.9332 C   0  0  0  0  0  0  0  0  0  0  0  0
   -4.1383    1.3874   -1.8889 N   0  0  0  0  0  0  0  0  0  0  0  0
   -5.4928    0.7773   -1.9118 C   0  0  0  0  0  0  0  0  0  0  0  0
   -6.5234    1.7084   -1.2268 C   0  0  0  0  0  0  0  0  0  0  0  0
   -6.5657    3.0559   -1.8419 N   0  0  0  0  0  0  0  0  0  0  0  0
   -5.2086    3.6478   -1.8337 C   0  0  0  0  0  0  0  0  0  0  0  0
   -4.1570    2.7311   -2.5072 C   0  0  0  0  0  0  0  0  0  0  0  0
   -2.3181   -1.9585    1.1155 N   0  0  0  0  0  0  0  0  0  0  0  0
   -1.0882   -2.6785    0.6962 C   0  0  0  0  0  0  0  0  0  0  0  0
   -0.8256   -2.5807   -0.8141 C   0  0  0  0  0  0  0  0  0  0  0  0
    0.0158   -3.7617   -1.2684 C   0  0  0  0  0  0  0  0  0  0  0  0
   -0.6423   -5.0142   -1.0799 O   0  0  0  0  0  0  0  0  0  0  0  0
   -1.6014   -5.0375   -0.0201 C   0  0  0  0  0  0  0  0  0  0  0  0
   -1.2033   -4.1445    1.1461 C   0  0  0  0  0  0  0  0  0  0  0  0
   -0.6803    0.0852    2.4765 C   0  0  0  0  0  0  0  0  0  0  0  0
    0.6169    0.4663    2.2061 N   0  0  0  0  0  0  0  0  0  0  0  0
   -1.1185   -0.5308    3.4393 O   0  0  0  0  0  0  0  0  0  0  0  0
    1.7143    0.1976    2.9996 C   0  0  0  0  0  0  0  0  0  0  0  0
    1.6715   -0.3534    4.2127 N   0  0  0  0  0  0  0  0  0  0  0  0
    2.9537   -0.4307    4.5927 N   0  0  0  0  0  0  0  0  0  0  0  0
    3.8431    0.0492    3.6697 C   0  0  0  0  0  0  0  0  0  0  0  0
    3.0593    0.4714    2.6034 C   0  0  0  0  0  0  0  0  0  0  0  0
    3.6938    1.0100    1.4644 C   0  0  0  0  0  0  0  0  0  0  0  0
    5.0980    1.1114    1.4331 C   0  0  0  0  0  0  0  0  0  0  0  0
    5.8474    0.6760    2.5363 C   0  0  0  0  0  0  0  0  0  0  0  0
    5.2374    0.1385    3.6769 C   0  0  0  0  0  0  0  0  0  0  0  0
    5.7933    1.6551    0.2045 C   0  0  0  0  0  0  0  0  0  0  0  0
    6.3301    0.5756   -0.7067 C   0  0  0  0  0  0  0  0  0  0  0  0
    5.4792   -0.1111   -1.5862 C   0  0  0  0  0  0  0  0  0  0  0  0
    5.9838   -1.1197   -2.4067 C   0  0  0  0  0  0  0  0  0  0  0  0
    7.3270   -1.4659   -2.3748 C   0  0  0  0  0  0  0  0  0  0  0  0
    8.1681   -0.7888   -1.5039 C   0  0  0  0  0  0  0  0  0  0  0  0
    7.6868    0.2214   -0.6727 C   0  0  0  0  0  0  0  0  0  0  0  0
    9.4669   -1.1116   -1.4572 F   0  0  0  0  0  0  0  0  0  0  0  0
    5.1550   -1.7653   -3.2375 F   0  0  0  0  0  0  0  0  0  0  0  0
   -7.5129    3.9144   -1.1352 C   0  0  0  0  0  0  0  0  0  0  0  0
   -2.5822    3.1111   -0.4350 H   0  0  0  0  0  0  0  0  0  0  0  0
   -3.7198   -1.0315   -0.8319 H   0  0  0  0  0  0  0  0  0  0  0  0
   -1.1424    2.5290    1.4277 H   0  0  0  0  0  0  0  0  0  0  0  0
   -5.7835    0.6282   -2.9597 H   0  0  0  0  0  0  0  0  0  0  0  0
   -5.5377   -0.2130   -1.4495 H   0  0  0  0  0  0  0  0  0  0  0  0
   -7.5124    1.2414   -1.3102 H   0  0  0  0  0  0  0  0  0  0  0  0
   -6.2820    1.7859   -0.1578 H   0  0  0  0  0  0  0  0  0  0  0  0
   -4.8972    3.8640   -0.8034 H   0  0  0  0  0  0  0  0  0  0  0  0
   -5.2270    4.6004   -2.3767 H   0  0  0  0  0  0  0  0  0  0  0  0
   -3.1659    3.1994   -2.5115 H   0  0  0  0  0  0  0  0  0  0  0  0
   -4.4249    2.6117   -3.5664 H   0  0  0  0  0  0  0  0  0  0  0  0
   -2.3106   -1.9629    2.1484 H   0  0  0  0  0  0  0  0  0  0  0  0
   -0.2295   -2.2511    1.2308 H   0  0  0  0  0  0  0  0  0  0  0  0
   -1.7676   -2.5778   -1.3783 H   0  0  0  0  0  0  0  0  0  0  0  0
   -0.3053   -1.6420   -1.0418 H   0  0  0  0  0  0  0  0  0  0  0  0
    0.9652   -3.7914   -0.7208 H   0  0  0  0  0  0  0  0  0  0  0  0
    0.2633   -3.6743   -2.3328 H   0  0  0  0  0  0  0  0  0  0  0  0
   -2.5771   -4.7470   -0.4271 H   0  0  0  0  0  0  0  0  0  0  0  0
   -1.6912   -6.0751    0.3156 H   0  0  0  0  0  0  0  0  0  0  0  0
   -0.2208   -4.4711    1.5116 H   0  0  0  0  0  0  0  0  0  0  0  0
   -1.9107   -4.2625    1.9747 H   0  0  0  0  0  0  0  0  0  0  0  0
    0.8211    0.8783    1.3087 H   0  0  0  0  0  0  0  0  0  0  0  0
    3.1574   -0.8298    5.5019 H   0  0  0  0  0  0  0  0  0  0  0  0
    3.1025    1.3361    0.6146 H   0  0  0  0  0  0  0  0  0  0  0  0
    6.9350    0.7466    2.5135 H   0  0  0  0  0  0  0  0  0  0  0  0
    5.8292   -0.2019    4.5204 H   0  0  0  0  0  0  0  0  0  0  0  0
    6.6058    2.3242    0.5160 H   0  0  0  0  0  0  0  0  0  0  0  0
    5.1078    2.2971   -0.3648 H   0  0  0  0  0  0  0  0  0  0  0  0
    4.4196    0.1235   -1.6387 H   0  0  0  0  0  0  0  0  0  0  0  0
    7.7116   -2.2502   -3.0155 H   0  0  0  0  0  0  0  0  0  0  0  0
    8.3811    0.7200   -0.0018 H   0  0  0  0  0  0  0  0  0  0  0  0
   -7.5697    4.8969   -1.6138 H   0  0  0  0  0  0  0  0  0  0  0  0
   -8.5202    3.4873   -1.1751 H   0  0  0  0  0  0  0  0  0  0  0  0
   -7.2388    4.0608   -0.0848 H   0  0  0  0  0  0  0  0  0  0  0  0
  1  2  2  0
  1  6  1  0
  2  3  1  0
  3  4  2  0
  4  5  1  0
  5  6  2  0
  2  7  1  0
  7  8  1  0
 12  7  1  0
  8  9  1  0
  9 10  1  0
 10 11  1  0
 11 12  1  0
  4 13  1  0
 13 14  1  0
 14 15  1  0
 19 14  1  0
 15 16  1  0
 16 17  1  0
 17 18  1  0
 18 19  1  0
  5 20  1  0
 20 21  1  0
 20 22  2  0
 21 23  1  0
 23 24  2  0
 23 27  1  0
 24 25  1  0
 25 26  1  0
 31 26  2  0
 26 27  1  0
 27 28  2  0
 28 29  1  0
 29 30  2  0
 30 31  1  0
 29 32  1  0
 32 33  1  0
 33 34  2  0
 33 38  1  0
 34 35  1  0
 35 36  2  0
 36 37  1  0
 37 38  2  0
 37 39  1  0
 35 40  1  0
 10 41  1  0
  1 42  1  0
  3 43  1  0
  6 44  1  0
  8 45  1  0
  8 46  1  0
  9 47  1  0
  9 48  1  0
 11 49  1  0
 11 50  1  0
 12 51  1  0
 12 52  1  0
 13 53  1  0
 14 54  1  0
 15 55  1  0
 15 56  1  0
 16 57  1  0
 16 58  1  0
 18 59  1  0
 18 60  1  0
 19 61  1  0
 19 62  1  0
 21 63  1  0
 25 64  1  0
 28 65  1  0
 30 66  1  0
 31 67  1  0
 32 68  1  0
 32 69  1  0
 34 70  1  0
 36 71  1  0
 38 72  1  0
 41 73  1  0
 41 74  1  0
 41 75  1  0
M  END
$$$$
