
     RDKit          3D

 75 80  0  0  0  0  0  0  0  0999 V2000
    1.8554    2.6027   -0.9301 C   0  0  0  0  0  0  0  0  0  0  0  0
    2.9216    1.9371   -0.3124 C   0  0  0  0  0  0  0  0  0  0  0  0
    2.6954    0.6291    0.1557 C   0  0  0  0  0  0  0  0  0  0  0  0
    1.4498   -0.0180    0.0508 C   0  0  0  0  0  0  0  0  0  0  0  0
    0.4242    0.6812   -0.6210 C   0  0  0  0  0  0  0  0  0  0  0  0
    0.6159    1.9851   -1.0924 C   0  0  0  0  0  0  0  0  0  0  0  0
    4.1598    2.5893   -0.2148 N   0  0  0  0  0  0  0  0  0  0  0  0
    4.7982    2.7778   -1.5439 C   0  0  0  0  0  0  0  0  0  0  0  0
    6.2997    3.1171   -1.3981 C   0  0  0  0  0  0  0  0  0  0  0  0
    7.0817    2.0502   -0.7330 N   0  0  0  0  0  0  0  0  0  0  0  0
    6.2874    1.3796    0.3222 C   0  0  0  0  0  0  0  0  0  0  0  0
    5.0990    2.2056    0.8640 C   0  0  0  0  0  0  0  0  0  0  0  0
    1.2545   -1.3566    0.4415 N   0  0  0  0  0  0  0  0  0  0  0  0
    2.1350   -2.0045    1.4204 C   0  0  0  0  0  0  0  0  0  0  0  0
    3.2632   -2.7599    0.6998 C   0  0  0  0  0  0  0  0  0  0  0  0
    3.7639   -3.9451    1.5171 C   0  0  0  0  0  0  0  0  0  0  0  0
    3.6002   -3.6811    2.9042 O   0  0  0  0  0  0  0  0  0  0  0  0
    2.2252   -3.6642    3.2941 C   0  0  0  0  0  0  0  0  0  0  0  0
    1.3254   -2.9937    2.2613 C   0  0  0  0  0  0  0  0  0  0  0  0
   -0.9024    0.0433   -0.8295 C   0  0  0  0  0  0  0  0  0  0  0  0
   -1.3181    0.0506   -2.1365 N   0  0  0  0  0  0  0  0  0  0  0  0
   -1.4532   -0.4796    0.1325 O   0  0  0  0  0  0  0  0  0  0  0  0
   -2.4743   -0.4950   -2.6454 C   0  0  0  0  0  0  0  0  0  0  0  0
   -2.5038   -0.6950   -3.9695 N   0  0  0  0  0  0  0  0  0  0  0  0
   -3.6931   -1.2741   -4.1850 N   0  0  0  0  0  0  0  0  0  0  0  0
   -4.4682   -1.4051   -3.0681 C   0  0  0  0  0  0  0  0  0  0  0  0
   -3.7023   -0.8819   -2.0286 C   0  0  0  0  0  0  0  0  0  0  0  0
   -4.2870   -0.8348   -0.7447 C   0  0  0  0  0  0  0  0  0  0  0  0
   -5.5830   -1.3449   -0.5331 C   0  0  0  0  0  0  0  0  0  0  0  0
   -6.2959   -1.8864   -1.6096 C   0  0  0  0  0  0  0  0  0  0  0  0
   -5.7549   -1.9235   -2.8979 C   0  0  0  0  0  0  0  0  0  0  0  0
   -6.2052   -1.2663    0.8427 C   0  0  0  0  0  0  0  0  0  0  0  0
   -6.9992   -0.0008    1.0656 C   0  0  0  0  0  0  0  0  0  0  0  0
   -6.3774    1.1546    1.5591 C   0  0  0  0  0  0  0  0  0  0  0  0
   -7.1106    2.3285    1.7287 C   0  0  0  0  0  0  0  0  0  0  0  0
   -8.4617    2.3818    1.4187 C   0  0  0  0  0  0  0  0  0  0  0  0
   -9.0763    1.2394    0.9290 C   0  0  0  0  0  0  0  0  0  0  0  0
   -8.3642    0.0547    0.7484 C   0  0  0  0  0  0  0  0  0  0  0  0
  -10.3775    1.2766    0.6149 F   0  0  0  0  0  0  0  0  0  0  0  0
   -6.4969    3.4281    2.1897 F   0  0  0  0  0  0  0  0  0  0  0  0
    8.3377    2.5819   -0.2124 C   0  0  0  0  0  0  0  0  0  0  0  0
    1.9867    3.6236   -1.2779 H   0  0  0  0  0  0  0  0  0  0  0  0
    3.5295    0.0912    0.5874 H   0  0  0  0  0  0  0  0  0  0  0  0
   -0.1941    2.5336   -1.5653 H   0  0  0  0  0  0  0  0  0  0  0  0
    4.6996    1.8664   -2.1489 H   0  0  0  0  0  0  0  0  0  0  0  0
    4.3035    3.5965   -2.0799 H   0  0  0  0  0  0  0  0  0  0  0  0
    6.3833    4.0596   -0.8416 H   0  0  0  0  0  0  0  0  0  0  0  0
    6.7234    3.2932   -2.3926 H   0  0  0  0  0  0  0  0  0  0  0  0
    5.8963    0.4528   -0.1154 H   0  0  0  0  0  0  0  0  0  0  0  0
    6.9226    1.0648    1.1588 H   0  0  0  0  0  0  0  0  0  0  0  0
    5.4846    3.1314    1.3108 H   0  0  0  0  0  0  0  0  0  0  0  0
    4.6047    1.6764    1.6867 H   0  0  0  0  0  0  0  0  0  0  0  0
    0.2564   -1.5072    0.6395 H   0  0  0  0  0  0  0  0  0  0  0  0
    2.5572   -1.2632    2.1130 H   0  0  0  0  0  0  0  0  0  0  0  0
    4.0990   -2.0726    0.5246 H   0  0  0  0  0  0  0  0  0  0  0  0
    2.9519   -3.1149   -0.2901 H   0  0  0  0  0  0  0  0  0  0  0  0
    4.8284   -4.1133    1.3156 H   0  0  0  0  0  0  0  0  0  0  0  0
    3.2350   -4.8670    1.2537 H   0  0  0  0  0  0  0  0  0  0  0  0
    2.1733   -3.1193    4.2422 H   0  0  0  0  0  0  0  0  0  0  0  0
    1.8928   -4.6909    3.4903 H   0  0  0  0  0  0  0  0  0  0  0  0
    0.4765   -2.5086    2.7582 H   0  0  0  0  0  0  0  0  0  0  0  0
    0.8926   -3.7619    1.6078 H   0  0  0  0  0  0  0  0  0  0  0  0
   -0.6548    0.2883   -2.8632 H   0  0  0  0  0  0  0  0  0  0  0  0
   -3.9286   -1.5459   -5.1320 H   0  0  0  0  0  0  0  0  0  0  0  0
   -3.7437   -0.3920    0.0836 H   0  0  0  0  0  0  0  0  0  0  0  0
   -7.2997   -2.2764   -1.4565 H   0  0  0  0  0  0  0  0  0  0  0  0
   -6.3224   -2.3316   -3.7288 H   0  0  0  0  0  0  0  0  0  0  0  0
   -6.8496   -2.1403    1.0041 H   0  0  0  0  0  0  0  0  0  0  0  0
   -5.4242   -1.3523    1.6101 H   0  0  0  0  0  0  0  0  0  0  0  0
   -5.3180    1.1588    1.8020 H   0  0  0  0  0  0  0  0  0  0  0  0
   -9.0214    3.3013    1.5447 H   0  0  0  0  0  0  0  0  0  0  0  0
   -8.8822   -0.8102    0.3480 H   0  0  0  0  0  0  0  0  0  0  0  0
    8.9598    1.7723    0.1850 H   0  0  0  0  0  0  0  0  0  0  0  0
    8.9173    3.0570   -1.0121 H   0  0  0  0  0  0  0  0  0  0  0  0
    8.1763    3.3164    0.5843 H   0  0  0  0  0  0  0  0  0  0  0  0
  1  2  2  0
  1  6  1  0
  2  3  1  0
  3  4  2  0
  4  5  1  0
  5  6  2  0
  2  7  1  0
  7  8  1  0
 12  7  1  0
  8  9  1  0
  9 10  1  0
 10 11  1  0
 11 12  1  0
  4 13  1  0
 13 14  1  0
 14 15  1  0
 19 14  1  0
 15 16  1  0
 16 17  1  0
 17 18  1  0
 18 19  1  0
  5 20  1  0
 20 21  1  0
 20 22  2  0
 21 23  1  0
 23 24  2  0
 23 27  1  0
 24 25  1  0
 25 26  1  0
 31 26  2  0
 26 27  1  0
 27 28  2  0
 28 29  1  0
 29 30  2  0
 30 31  1  0
 29 32  1  0
 32 33  1  0
 33 34  2  0
 33 38  1  0
 34 35  1  0
 35 36  2  0
 36 37  1  0
 37 38  2  0
 37 39  1  0
 35 40  1  0
 10 41  1  0
  1 42  1  0
  3 43  1  0
  6 44  1  0
  8 45  1  0
  8 46  1  0
  9 47  1  0
  9 48  1  0
 11 49  1  0
 11 50  1  0
 12 51  1  0
 12 52  1  0
 13 53  1  0
 14 54  1  0
 15 55  1  0
 15 56  1  0
 16 57  1  0
 16 58  1  0
 18 59  1  0
 18 60  1  0
 19 61  1  0
 19 62  1  0
 21 63  1  0
 25 64  1  0
 28 65  1  0
 30 66  1  0
 31 67  1  0
 32 68  1  0
 32 69  1  0
 34 70  1  0
 36 71  1  0
 38 72  1  0
 41 73  1  0
 41 74  1  0
 41 75  1  0
M  END
$$$$
