
     RDKit          3D

 93 90  0  0  0  0  0  0  0  0999 V2000
   -0.0129    0.3974    0.0000 O   0  0  0  0  0  0  0  0  0  0  0  0
   -0.1933    0.4061    0.3066 C   0  0  0  0  0  0  0  0  0  0  0  0
   -1.6133   -0.1747    0.2934 C   0  0  0  0  0  0  0  0  0  0  0  0
    0.8414   -0.5234   -0.3363 C   0  0  0  0  0  0  0  0  0  0  0  0
   -0.2913    1.7540   -0.4207 C   0  0  0  0  0  0  0  0  0  0  0  0
    2.1785    0.1311   -0.5584 C   0  0  0  0  0  0  0  0  0  0  0  0
   -1.7161   -1.5255    0.9369 C   0  0  0  0  0  0  0  0  0  0  0  0
   -0.3915    2.8384    0.1348 O   0  0  0  0  0  0  0  0  0  0  0  0
   -2.0873   -1.7661    2.0732 O   0  0  0  0  0  0  0  0  0  0  0  0
    2.4695    1.3077   -0.4395 O   0  0  0  0  0  0  0  0  0  0  0  0
    0.1818    0.6269    1.6755 O   0  0  0  0  0  0  0  0  0  0  0  0
   -0.3315    1.6588   -1.7630 O   0  0  0  0  0  0  0  0  0  0  0  0
   -1.3761   -2.5261    0.1026 O   0  0  0  0  0  0  0  0  0  0  0  0
    3.1080   -0.7614   -0.9602 O   0  0  0  0  0  0  0  0  0  0  0  0
    0.0026    1.3292    0.5538 N   0  0  0  0  0  0  0  0  0  0  0  0
    0.0030   -1.4667   -0.4409 N   0  0  0  0  0  0  0  0  0  0  0  0
   -1.2145    0.6814    0.0444 C   0  0  0  0  0  0  0  0  0  0  0  0
   -1.1827   -0.8558    0.1889 C   0  0  0  0  0  0  0  0  0  0  0  0
    1.1986    0.7084   -0.0323 C   0  0  0  0  0  0  0  0  0  0  0  0
    1.2112   -0.8284    0.1137 C   0  0  0  0  0  0  0  0  0  0  0  0
   -0.1177    0.6895    0.2530 C   0  0  0  0  0  0  0  0  0  0  0  0
    0.9016   -0.0824    1.0920 C   0  0  0  0  0  0  0  0  0  0  0  0
   -1.1001   -0.1295   -0.5892 C   0  0  0  0  0  0  0  0  0  0  0  0
    0.6415    1.6665   -0.6562 C   0  0  0  0  0  0  0  0  0  0  0  0
   -1.9898   -1.0327    0.2173 C   0  0  0  0  0  0  0  0  0  0  0  0
    1.8799   -0.8727    0.2770 C   0  0  0  0  0  0  0  0  0  0  0  0
    0.8530    2.8415   -0.3895 O   0  0  0  0  0  0  0  0  0  0  0  0
    3.0483   -0.5787    0.0847 O   0  0  0  0  0  0  0  0  0  0  0  0
   -1.7125   -1.6476    1.2320 O   0  0  0  0  0  0  0  0  0  0  0  0
   -0.9016    1.5074    1.1550 O   0  0  0  0  0  0  0  0  0  0  0  0
    1.1189    1.1252   -1.7907 O   0  0  0  0  0  0  0  0  0  0  0  0
    1.3530   -1.9882   -0.2575 O   0  0  0  0  0  0  0  0  0  0  0  0
   -3.2072   -1.1789   -0.3478 O   0  0  0  0  0  0  0  0  0  0  0  0
    0.4624   -1.1084   -0.7943 N   0  0  0  0  0  0  0  0  0  0  0  0
   -0.5159    1.2554    0.7104 N   0  0  0  0  0  0  0  0  0  0  0  0
    1.3753   -0.2022   -0.0839 C   0  0  0  0  0  0  0  0  0  0  0  0
    0.8104    1.2275    0.0649 C   0  0  0  0  0  0  0  0  0  0  0  0
   -0.8763   -1.0658   -0.1903 C   0  0  0  0  0  0  0  0  0  0  0  0
   -1.4239    0.3708   -0.0441 C   0  0  0  0  0  0  0  0  0  0  0  0
   -0.4152    1.2336    0.8086 N   0  0  0  0  0  0  0  0  0  0  0  0
    0.3695   -1.0773   -0.8807 N   0  0  0  0  0  0  0  0  0  0  0  0
   -1.3983    0.4584    0.0288 C   0  0  0  0  0  0  0  0  0  0  0  0
   -0.9462   -0.9950   -0.2315 C   0  0  0  0  0  0  0  0  0  0  0  0
    0.8867    1.1685    0.1183 C   0  0  0  0  0  0  0  0  0  0  0  0
    1.3572   -0.2789   -0.1418 C   0  0  0  0  0  0  0  0  0  0  0  0
   -0.7568   -0.2235    0.0000 H   0  0  0  0  0  0  0  0  0  0  0  0
    0.7696   -0.1739    0.0000 H   0  0  0  0  0  0  0  0  0  0  0  0
   -2.0142   -0.2501   -0.7260 H   0  0  0  0  0  0  0  0  0  0  0  0
   -2.3025    0.4857    0.8383 H   0  0  0  0  0  0  0  0  0  0  0  0
    0.4882   -0.8755   -1.3125 H   0  0  0  0  0  0  0  0  0  0  0  0
    1.0206   -1.3855    0.3172 H   0  0  0  0  0  0  0  0  0  0  0  0
   -0.0496    1.5534    1.8943 H   0  0  0  0  0  0  0  0  0  0  0  0
   -0.3509    2.5930   -2.0657 H   0  0  0  0  0  0  0  0  0  0  0  0
   -1.4965   -3.3371    0.6438 H   0  0  0  0  0  0  0  0  0  0  0  0
    3.9262   -0.2297   -1.0560 H   0  0  0  0  0  0  0  0  0  0  0  0
   -0.0155    2.3210    0.3240 H   0  0  0  0  0  0  0  0  0  0  0  0
   -0.0308   -1.2594   -1.4385 H   0  0  0  0  0  0  0  0  0  0  0  0
   -1.3530    0.9471   -1.0115 H   0  0  0  0  0  0  0  0  0  0  0  0
   -2.0781    1.0751    0.5917 H   0  0  0  0  0  0  0  0  0  0  0  0
   -2.0810   -1.2808   -0.2730 H   0  0  0  0  0  0  0  0  0  0  0  0
   -1.2127   -1.1329    1.2503 H   0  0  0  0  0  0  0  0  0  0  0  0
    1.2629    0.9747   -1.0948 H   0  0  0  0  0  0  0  0  0  0  0  0
    2.0871    1.1226    0.4562 H   0  0  0  0  0  0  0  0  0  0  0  0
    2.0886   -1.2327   -0.4030 H   0  0  0  0  0  0  0  0  0  0  0  0
    1.3142   -1.1029    1.1709 H   0  0  0  0  0  0  0  0  0  0  0  0
    1.4867    0.6234    1.6989 H   0  0  0  0  0  0  0  0  0  0  0  0
    0.4350   -0.7387    1.8325 H   0  0  0  0  0  0  0  0  0  0  0  0
   -0.5981   -0.7430   -1.3441 H   0  0  0  0  0  0  0  0  0  0  0  0
   -1.7543    0.5702   -1.1282 H   0  0  0  0  0  0  0  0  0  0  0  0
   -0.3753    2.3096    1.3494 H   0  0  0  0  0  0  0  0  0  0  0  0
    1.6173    1.8524   -2.2229 H   0  0  0  0  0  0  0  0  0  0  0  0
    2.1002   -2.4111   -0.7300 H   0  0  0  0  0  0  0  0  0  0  0  0
   -3.6789   -1.7823    0.2643 H   0  0  0  0  0  0  0  0  0  0  0  0
    0.8253   -2.0594   -0.7580 H   0  0  0  0  0  0  0  0  0  0  0  0
   -0.4147    0.8728    1.6500 H   0  0  0  0  0  0  0  0  0  0  0  0
    2.3241   -0.1582   -0.6296 H   0  0  0  0  0  0  0  0  0  0  0  0
    1.5945   -0.6136    0.9095 H   0  0  0  0  0  0  0  0  0  0  0  0
    0.7447    1.7087   -0.9192 H   0  0  0  0  0  0  0  0  0  0  0  0
    1.5034    1.8290    0.6641 H   0  0  0  0  0  0  0  0  0  0  0  0
   -0.8452   -1.5474    0.7954 H   0  0  0  0  0  0  0  0  0  0  0  0
   -1.5630   -1.6498   -0.8128 H   0  0  0  0  0  0  0  0  0  0  0  0
   -2.3893    0.3375    0.4732 H   0  0  0  0  0  0  0  0  0  0  0  0
   -1.6118    0.8031   -1.0352 H   0  0  0  0  0  0  0  0  0  0  0  0
   -0.3113    0.7836    1.7173 H   0  0  0  0  0  0  0  0  0  0  0  0
    0.6726   -2.0489   -0.9206 H   0  0  0  0  0  0  0  0  0  0  0  0
   -2.3484    0.4481    0.5749 H   0  0  0  0  0  0  0  0  0  0  0  0
   -1.5887    0.9673   -0.9243 H   0  0  0  0  0  0  0  0  0  0  0  0
   -1.6854   -1.4925   -0.8686 H   0  0  0  0  0  0  0  0  0  0  0  0
   -0.9177   -1.5445    0.7178 H   0  0  0  0  0  0  0  0  0  0  0  0
    1.6335    1.6855    0.7313 H   0  0  0  0  0  0  0  0  0  0  0  0
    0.8227    1.7173   -0.8296 H   0  0  0  0  0  0  0  0  0  0  0  0
    2.2908   -0.2557   -0.7147 H   0  0  0  0  0  0  0  0  0  0  0  0
    1.5781   -0.7694    0.8148 H   0  0  0  0  0  0  0  0  0  0  0  0
  3  2  1  0
  4  2  1  0
  5  2  1  0
  6  4  1  0
  7  3  1  0
  8  5  2  0
  9  7  2  0
 10  6  2  0
 11  2  1  0
 12  5  1  0
 13  7  1  0
 14  6  1  0
 16 20  1  0
 17 15  1  0
 18 17  1  0
 19 15  1  0
 20 19  1  0
 16 18  1  0
 22 21  1  0
 23 21  1  0
 24 21  1  0
 25 23  1  0
 26 22  1  0
 27 24  2  0
 28 26  2  0
 29 25  2  0
 30 21  1  0
 31 24  1  0
 32 26  1  0
 33 25  1  0
 35 39  1  0
 36 34  1  0
 37 36  1  0
 38 34  1  0
 39 38  1  0
 35 37  1  0
 41 45  1  0
 42 40  1  0
 43 42  1  0
 44 40  1  0
 45 44  1  0
 41 43  1  0
  1 46  1  0
  1 47  1  0
  3 48  1  0
  3 49  1  0
  4 50  1  0
  4 51  1  0
 11 52  1  0
 12 53  1  0
 13 54  1  0
 14 55  1  0
 15 56  1  0
 16 57  1  0
 17 58  1  0
 17 59  1  0
 18 60  1  0
 18 61  1  0
 19 62  1  0
 19 63  1  0
 20 64  1  0
 20 65  1  0
 22 66  1  0
 22 67  1  0
 23 68  1  0
 23 69  1  0
 30 70  1  0
 31 71  1  0
 32 72  1  0
 33 73  1  0
 34 74  1  0
 35 75  1  0
 36 76  1  0
 36 77  1  0
 37 78  1  0
 37 79  1  0
 38 80  1  0
 38 81  1  0
 39 82  1  0
 39 83  1  0
 40 84  1  0
 41 85  1  0
 42 86  1  0
 42 87  1  0
 43 88  1  0
 43 89  1  0
 44 90  1  0
 44 91  1  0
 45 92  1  0
 45 93  1  0
M  END
$$$$
