
     RDKit          3D

 45 42  0  0  0  0  0  0  0  0999 V2000
    0.0000    0.0000    0.0000 O   0  0  0  0  0  0  0  0  0  0  0  0
   -0.0054   -0.2413   -0.5241 C   0  0  0  0  0  0  0  0  0  0  0  0
    1.2436   -0.2037   -1.4065 C   0  0  0  0  0  0  0  0  0  0  0  0
   -1.1777   -0.0193   -1.4768 C   0  0  0  0  0  0  0  0  0  0  0  0
    0.0420    0.8437    0.4963 C   0  0  0  0  0  0  0  0  0  0  0  0
   -2.4184   -0.0500   -0.6457 C   0  0  0  0  0  0  0  0  0  0  0  0
    2.4000   -0.4184   -0.4972 C   0  0  0  0  0  0  0  0  0  0  0  0
   -0.0189    0.6148    1.7316 O   0  0  0  0  0  0  0  0  0  0  0  0
    2.7764    0.5694    0.2174 O   0  0  0  0  0  0  0  0  0  0  0  0
   -2.2581   -0.2425    0.6081 O   0  0  0  0  0  0  0  0  0  0  0  0
   -0.1223   -1.4662    0.1214 O   0  0  0  0  0  0  0  0  0  0  0  0
    0.1592    2.1501    0.0105 O   0  0  0  0  0  0  0  0  0  0  0  0
    3.0627   -1.6566   -0.4174 O   0  0  0  0  0  0  0  0  0  0  0  0
   -3.6831    0.1201   -1.1936 O   0  0  0  0  0  0  0  0  0  0  0  0
    1.2516    0.6605    0.4495 N   0  0  0  0  0  0  0  0  0  0  0  0
   -1.2944   -0.6573   -0.3005 N   0  0  0  0  0  0  0  0  0  0  0  0
    0.1462    1.2791   -0.2464 C   0  0  0  0  0  0  0  0  0  0  0  0
   -1.1429    0.6797    0.2605 C   0  0  0  0  0  0  0  0  0  0  0  0
    1.0188   -0.7574    0.5545 C   0  0  0  0  0  0  0  0  0  0  0  0
    0.0207   -1.2047   -0.4788 C   0  0  0  0  0  0  0  0  0  0  0  0
    0.1614    0.4086    0.2012 C   0  0  0  0  0  0  0  0  0  0  0  0
   -0.5397   -0.7468   -0.4130 C   0  0  0  0  0  0  0  0  0  0  0  0
    1.4733    0.6027   -0.5484 C   0  0  0  0  0  0  0  0  0  0  0  0
   -0.6265    1.6438   -0.0732 C   0  0  0  0  0  0  0  0  0  0  0  0
    2.3366   -0.5936   -0.4629 C   0  0  0  0  0  0  0  0  0  0  0  0
   -1.8393   -1.0691    0.2032 C   0  0  0  0  0  0  0  0  0  0  0  0
   -0.9536    2.3687    0.9270 O   0  0  0  0  0  0  0  0  0  0  0  0
   -2.3419   -0.4364    1.1698 O   0  0  0  0  0  0  0  0  0  0  0  0
    2.9503   -0.7790    0.6369 O   0  0  0  0  0  0  0  0  0  0  0  0
    0.4135    0.2636    1.5551 O   0  0  0  0  0  0  0  0  0  0  0  0
   -0.9813    1.9759   -1.3720 O   0  0  0  0  0  0  0  0  0  0  0  0
   -2.5539   -2.1377   -0.3159 O   0  0  0  0  0  0  0  0  0  0  0  0
    2.5010   -1.5006   -1.5078 O   0  0  0  0  0  0  0  0  0  0  0  0
   -0.3521    1.2778   -0.7226 N   0  0  0  0  0  0  0  0  0  0  0  0
    0.3204   -1.3351    0.2196 N   0  0  0  0  0  0  0  0  0  0  0  0
   -1.3559    0.3872   -0.2912 C   0  0  0  0  0  0  0  0  0  0  0  0
   -0.9468   -0.7591    0.5466 C   0  0  0  0  0  0  0  0  0  0  0  0
    0.9820    0.8438   -0.7571 C   0  0  0  0  0  0  0  0  0  0  0  0
    1.3525   -0.4147   -0.0954 C   0  0  0  0  0  0  0  0  0  0  0  0
   -1.1278   -0.8231    0.1394 N   0  0  0  0  0  0  0  0  0  0  0  0
    1.1941    0.7986   -0.4965 N   0  0  0  0  0  0  0  0  0  0  0  0
   -0.1171   -1.2717   -0.7748 C   0  0  0  0  0  0  0  0  0  0  0  0
    1.2187   -0.6390   -0.5208 C   0  0  0  0  0  0  0  0  0  0  0  0
   -1.0637    0.5613    0.4750 C   0  0  0  0  0  0  0  0  0  0  0  0
   -0.1042    1.3737   -0.3290 C   0  0  0  0  0  0  0  0  0  0  0  0
  3  2  1  0
  4  2  1  0
  5  2  1  0
  6  4  1  0
  7  3  1  0
  8  5  2  0
  9  7  2  0
 10  6  2  0
 11  2  1  0
 12  5  1  0
 13  7  1  0
 14  6  1  0
 16 20  1  0
 17 15  1  0
 18 17  1  0
 19 15  1  0
 20 19  1  0
 16 18  1  0
 22 21  1  0
 23 21  1  0
 24 21  1  0
 25 23  1  0
 26 22  1  0
 27 24  2  0
 28 26  2  0
 29 25  2  0
 30 21  1  0
 31 24  1  0
 32 26  1  0
 33 25  1  0
 35 39  1  0
 36 34  1  0
 37 36  1  0
 38 34  1  0
 39 38  1  0
 35 37  1  0
 41 45  1  0
 42 40  1  0
 43 42  1  0
 44 40  1  0
 45 44  1  0
 41 43  1  0
M  END
