
     RDKit          3D

 93 90  0  0  0  0  0  0  0  0999 V2000
    0.0239    0.3971    0.0000 O   0  0  0  0  0  0  0  0  0  0  0  0
    0.2357   -0.3825   -0.4041 C   0  0  0  0  0  0  0  0  0  0  0  0
    0.9974   -0.2276    0.9140 C   0  0  0  0  0  0  0  0  0  0  0  0
   -0.9502   -1.3456   -0.2981 C   0  0  0  0  0  0  0  0  0  0  0  0
   -0.2594    0.9592   -0.9579 C   0  0  0  0  0  0  0  0  0  0  0  0
   -1.9777   -0.9267    0.7103 C   0  0  0  0  0  0  0  0  0  0  0  0
    2.3134    0.4780    0.7484 C   0  0  0  0  0  0  0  0  0  0  0  0
   -0.0791    1.3350   -2.1083 O   0  0  0  0  0  0  0  0  0  0  0  0
    3.4066    0.0543    1.0847 O   0  0  0  0  0  0  0  0  0  0  0  0
   -1.8359   -0.9106    1.9205 O   0  0  0  0  0  0  0  0  0  0  0  0
    1.1260   -0.9895   -1.3690 O   0  0  0  0  0  0  0  0  0  0  0  0
   -0.9552    1.7094   -0.0884 O   0  0  0  0  0  0  0  0  0  0  0  0
    2.2005    1.7173    0.2345 O   0  0  0  0  0  0  0  0  0  0  0  0
   -3.1387   -0.5479    0.1473 O   0  0  0  0  0  0  0  0  0  0  0  0
   -0.4585   -1.2803   -0.7057 N   0  0  0  0  0  0  0  0  0  0  0  0
    0.4372    1.1236    0.7873 N   0  0  0  0  0  0  0  0  0  0  0  0
    0.9338   -1.1107   -0.2493 C   0  0  0  0  0  0  0  0  0  0  0  0
    1.3389    0.3717   -0.0966 C   0  0  0  0  0  0  0  0  0  0  0  0
   -1.3475   -0.5496    0.2170 C   0  0  0  0  0  0  0  0  0  0  0  0
   -0.9604    0.9366    0.3745 C   0  0  0  0  0  0  0  0  0  0  0  0
   -0.4148   -0.4994   -0.2780 C   0  0  0  0  0  0  0  0  0  0  0  0
   -1.1495    0.3460    0.7734 C   0  0  0  0  0  0  0  0  0  0  0  0
    0.8180    0.1394   -0.9228 C   0  0  0  0  0  0  0  0  0  0  0  0
    0.0194   -1.8220    0.3827 C   0  0  0  0  0  0  0  0  0  0  0  0
    1.9774    0.2489    0.0209 C   0  0  0  0  0  0  0  0  0  0  0  0
   -1.3148    1.8054    0.4547 C   0  0  0  0  0  0  0  0  0  0  0  0
    0.3491   -2.0038    1.5420 O   0  0  0  0  0  0  0  0  0  0  0  0
   -1.1932    2.7207    1.2542 O   0  0  0  0  0  0  0  0  0  0  0  0
    2.9618   -0.4694    0.0285 O   0  0  0  0  0  0  0  0  0  0  0  0
   -1.3549   -0.8295   -1.3234 O   0  0  0  0  0  0  0  0  0  0  0  0
    0.0476   -2.8432   -0.5077 O   0  0  0  0  0  0  0  0  0  0  0  0
   -1.7105    2.0650   -0.8012 O   0  0  0  0  0  0  0  0  0  0  0  0
    1.8305    1.2438    0.9086 O   0  0  0  0  0  0  0  0  0  0  0  0
    0.4743   -1.2094   -0.6489 N   0  0  0  0  0  0  0  0  0  0  0  0
   -0.6312    1.2945   -0.1884 N   0  0  0  0  0  0  0  0  0  0  0  0
   -0.8161   -1.2050    0.0693 C   0  0  0  0  0  0  0  0  0  0  0  0
   -1.2871    0.1938    0.5387 C   0  0  0  0  0  0  0  0  0  0  0  0
    1.3865   -0.2479   -0.0065 C   0  0  0  0  0  0  0  0  0  0  0  0
    0.8298    1.1974    0.0062 C   0  0  0  0  0  0  0  0  0  0  0  0
    0.4669    1.2740    0.6048 N   0  0  0  0  0  0  0  0  0  0  0  0
   -0.4674   -1.2740   -0.6053 N   0  0  0  0  0  0  0  0  0  0  0  0
    1.3951    0.3084   -0.0090 C   0  0  0  0  0  0  0  0  0  0  0  0
    0.8615   -1.1399    0.0170 C   0  0  0  0  0  0  0  0  0  0  0  0
   -0.8617    1.1398   -0.0177 C   0  0  0  0  0  0  0  0  0  0  0  0
   -1.3955   -0.3086    0.0091 C   0  0  0  0  0  0  0  0  0  0  0  0
    0.7503   -0.2444    0.0000 H   0  0  0  0  0  0  0  0  0  0  0  0
   -0.7742   -0.1527    0.0000 H   0  0  0  0  0  0  0  0  0  0  0  0
    1.2295   -1.2196    1.3223 H   0  0  0  0  0  0  0  0  0  0  0  0
    0.4278    0.3159    1.6749 H   0  0  0  0  0  0  0  0  0  0  0  0
   -1.4331   -1.4609   -1.2775 H   0  0  0  0  0  0  0  0  0  0  0  0
   -0.6131   -2.3547   -0.0326 H   0  0  0  0  0  0  0  0  0  0  0  0
    1.0549   -0.4662   -2.1943 H   0  0  0  0  0  0  0  0  0  0  0  0
   -1.1693    2.5262   -0.5875 H   0  0  0  0  0  0  0  0  0  0  0  0
    3.1275    2.0408    0.2149 H   0  0  0  0  0  0  0  0  0  0  0  0
   -3.7077   -0.3044    0.9080 H   0  0  0  0  0  0  0  0  0  0  0  0
   -0.5412   -0.8512   -1.6267 H   0  0  0  0  0  0  0  0  0  0  0  0
    0.6743    2.1138    0.7594 H   0  0  0  0  0  0  0  0  0  0  0  0
    1.0685   -1.6357    0.7046 H   0  0  0  0  0  0  0  0  0  0  0  0
    1.6005   -1.5950   -0.9716 H   0  0  0  0  0  0  0  0  0  0  0  0
    1.3592    0.8476   -1.0850 H   0  0  0  0  0  0  0  0  0  0  0  0
    2.3558    0.4276    0.3074 H   0  0  0  0  0  0  0  0  0  0  0  0
   -1.3389   -1.0432    1.1966 H   0  0  0  0  0  0  0  0  0  0  0  0
   -2.3741   -0.6169   -0.1602 H   0  0  0  0  0  0  0  0  0  0  0  0
   -1.6135    1.4005    1.1217 H   0  0  0  0  0  0  0  0  0  0  0  0
   -1.1340    1.4614   -0.5734 H   0  0  0  0  0  0  0  0  0  0  0  0
   -2.1543   -0.0573    0.9521 H   0  0  0  0  0  0  0  0  0  0  0  0
   -0.6160    0.3082    1.7313 H   0  0  0  0  0  0  0  0  0  0  0  0
    1.1520   -0.4701   -1.7740 H   0  0  0  0  0  0  0  0  0  0  0  0
    0.6116    1.1215   -1.3598 H   0  0  0  0  0  0  0  0  0  0  0  0
   -1.0118   -1.6359   -1.7597 H   0  0  0  0  0  0  0  0  0  0  0  0
    0.3655   -3.6083    0.0209 H   0  0  0  0  0  0  0  0  0  0  0  0
   -1.8429    3.0363   -0.8197 H   0  0  0  0  0  0  0  0  0  0  0  0
    2.6298    1.2037    1.4770 H   0  0  0  0  0  0  0  0  0  0  0  0
    0.3024   -0.8753   -1.5965 H   0  0  0  0  0  0  0  0  0  0  0  0
   -0.8219    1.1576   -1.1806 H   0  0  0  0  0  0  0  0  0  0  0  0
   -0.7478   -1.8736    0.9355 H   0  0  0  0  0  0  0  0  0  0  0  0
   -1.5697   -1.6351   -0.6010 H   0  0  0  0  0  0  0  0  0  0  0  0
   -1.0892    0.3105    1.6115 H   0  0  0  0  0  0  0  0  0  0  0  0
   -2.3721    0.2764    0.4089 H   0  0  0  0  0  0  0  0  0  0  0  0
    1.5832   -0.5777    1.0212 H   0  0  0  0  0  0  0  0  0  0  0  0
    2.3493   -0.2643   -0.5296 H   0  0  0  0  0  0  0  0  0  0  0  0
    1.1005    1.6810    0.9519 H   0  0  0  0  0  0  0  0  0  0  0  0
    1.3091    1.7770   -0.7916 H   0  0  0  0  0  0  0  0  0  0  0  0
    0.3735    1.0298    1.5918 H   0  0  0  0  0  0  0  0  0  0  0  0
   -0.3737   -1.0292   -1.5919 H   0  0  0  0  0  0  0  0  0  0  0  0
    1.5976    0.6119   -1.0436 H   0  0  0  0  0  0  0  0  0  0  0  0
    2.3506    0.3515    0.5251 H   0  0  0  0  0  0  0  0  0  0  0  0
    1.5645   -1.7941   -0.5103 H   0  0  0  0  0  0  0  0  0  0  0  0
    0.8123   -1.5003    1.0519 H   0  0  0  0  0  0  0  0  0  0  0  0
   -0.8124    1.5000   -1.0528 H   0  0  0  0  0  0  0  0  0  0  0  0
   -1.5636    1.7942    0.5105 H   0  0  0  0  0  0  0  0  0  0  0  0
   -1.5959   -0.6116    1.0442 H   0  0  0  0  0  0  0  0  0  0  0  0
   -2.3519   -0.3520   -0.5239 H   0  0  0  0  0  0  0  0  0  0  0  0
  3  2  1  0
  4  2  1  0
  5  2  1  0
  6  4  1  0
  7  3  1  0
  8  5  2  0
  9  7  2  0
 10  6  2  0
 11  2  1  0
 12  5  1  0
 13  7  1  0
 14  6  1  0
 16 20  1  0
 17 15  1  0
 18 17  1  0
 19 15  1  0
 20 19  1  0
 16 18  1  0
 22 21  1  0
 23 21  1  0
 24 21  1  0
 25 23  1  0
 26 22  1  0
 27 24  2  0
 28 26  2  0
 29 25  2  0
 30 21  1  0
 31 24  1  0
 32 26  1  0
 33 25  1  0
 35 39  1  0
 36 34  1  0
 37 36  1  0
 38 34  1  0
 39 38  1  0
 35 37  1  0
 41 45  1  0
 42 40  1  0
 43 42  1  0
 44 40  1  0
 45 44  1  0
 41 43  1  0
  1 46  1  0
  1 47  1  0
  3 48  1  0
  3 49  1  0
  4 50  1  0
  4 51  1  0
 11 52  1  0
 12 53  1  0
 13 54  1  0
 14 55  1  0
 15 56  1  0
 16 57  1  0
 17 58  1  0
 17 59  1  0
 18 60  1  0
 18 61  1  0
 19 62  1  0
 19 63  1  0
 20 64  1  0
 20 65  1  0
 22 66  1  0
 22 67  1  0
 23 68  1  0
 23 69  1  0
 30 70  1  0
 31 71  1  0
 32 72  1  0
 33 73  1  0
 34 74  1  0
 35 75  1  0
 36 76  1  0
 36 77  1  0
 37 78  1  0
 37 79  1  0
 38 80  1  0
 38 81  1  0
 39 82  1  0
 39 83  1  0
 40 84  1  0
 41 85  1  0
 42 86  1  0
 42 87  1  0
 43 88  1  0
 43 89  1  0
 44 90  1  0
 44 91  1  0
 45 92  1  0
 45 93  1  0
M  END
$$$$
