
     RDKit          3D

 93 90  0  0  0  0  0  0  0  0999 V2000
   -0.0247    0.3970    0.0000 O   0  0  0  0  0  0  0  0  0  0  0  0
    0.1338   -0.5798   -0.0256 C   0  0  0  0  0  0  0  0  0  0  0  0
    0.4592    0.3125   -1.2338 C   0  0  0  0  0  0  0  0  0  0  0  0
   -1.2762   -1.1726   -0.1255 C   0  0  0  0  0  0  0  0  0  0  0  0
    0.2653    0.2364    1.2759 C   0  0  0  0  0  0  0  0  0  0  0  0
   -2.3642   -0.2441    0.3242 C   0  0  0  0  0  0  0  0  0  0  0  0
    1.7593    1.0638   -1.1155 C   0  0  0  0  0  0  0  0  0  0  0  0
   -0.0950    1.3914    1.4395 O   0  0  0  0  0  0  0  0  0  0  0  0
    2.0287    2.1074   -1.6860 O   0  0  0  0  0  0  0  0  0  0  0  0
   -2.8928   -0.2395    1.4226 O   0  0  0  0  0  0  0  0  0  0  0  0
    1.0226   -1.7112   -0.0644 O   0  0  0  0  0  0  0  0  0  0  0  0
    0.8509   -0.4488    2.2778 O   0  0  0  0  0  0  0  0  0  0  0  0
    2.6944    0.4478   -0.3661 O   0  0  0  0  0  0  0  0  0  0  0  0
   -2.7232    0.6393   -0.6224 O   0  0  0  0  0  0  0  0  0  0  0  0
    0.2165   -1.4346   -0.3220 N   0  0  0  0  0  0  0  0  0  0  0  0
   -0.2166    1.4343    0.3217 N   0  0  0  0  0  0  0  0  0  0  0  0
    1.2779   -0.5881    0.2509 C   0  0  0  0  0  0  0  0  0  0  0  0
    1.0996    0.9089   -0.0811 C   0  0  0  0  0  0  0  0  0  0  0  0
   -1.0998   -0.9091    0.0809 C   0  0  0  0  0  0  0  0  0  0  0  0
   -1.2780    0.5881   -0.2509 C   0  0  0  0  0  0  0  0  0  0  0  0
    0.1440   -0.3471   -0.0112 C   0  0  0  0  0  0  0  0  0  0  0  0
   -0.7479    0.8773    0.2309 C   0  0  0  0  0  0  0  0  0  0  0  0
    1.4771   -0.0069   -0.6893 C   0  0  0  0  0  0  0  0  0  0  0  0
   -0.5647   -1.3210   -0.9708 C   0  0  0  0  0  0  0  0  0  0  0  0
    2.2853    1.0078    0.0635 C   0  0  0  0  0  0  0  0  0  0  0  0
   -2.1599    0.5074    0.5984 C   0  0  0  0  0  0  0  0  0  0  0  0
   -0.9889   -1.0615   -2.0853 O   0  0  0  0  0  0  0  0  0  0  0  0
   -2.5777   -0.5913    0.9212 O   0  0  0  0  0  0  0  0  0  0  0  0
    1.9522    2.1542    0.3147 O   0  0  0  0  0  0  0  0  0  0  0  0
    0.4456   -0.9661    1.2469 O   0  0  0  0  0  0  0  0  0  0  0  0
   -0.6934   -2.5614   -0.4487 O   0  0  0  0  0  0  0  0  0  0  0  0
   -2.9856    1.5710    0.5626 O   0  0  0  0  0  0  0  0  0  0  0  0
    3.5019    0.5546    0.4203 O   0  0  0  0  0  0  0  0  0  0  0  0
    1.2815    0.8382   -0.0122 N   0  0  0  0  0  0  0  0  0  0  0  0
   -1.2032   -0.7786   -0.1377 N   0  0  0  0  0  0  0  0  0  0  0  0
    1.2808   -0.5706   -0.4473 C   0  0  0  0  0  0  0  0  0  0  0  0
    0.1071   -1.3816    0.1437 C   0  0  0  0  0  0  0  0  0  0  0  0
   -0.0282    1.4326   -0.3371 C   0  0  0  0  0  0  0  0  0  0  0  0
   -1.2120    0.6375    0.2551 C   0  0  0  0  0  0  0  0  0  0  0  0
   -0.4900   -1.2483   -0.5595 N   0  0  0  0  0  0  0  0  0  0  0  0
    0.4772    1.3412   -0.2878 N   0  0  0  0  0  0  0  0  0  0  0  0
   -1.3379   -0.3599    0.2543 C   0  0  0  0  0  0  0  0  0  0  0  0
   -0.9084    1.1262    0.1751 C   0  0  0  0  0  0  0  0  0  0  0  0
    0.9093   -1.1343   -0.1000 C   0  0  0  0  0  0  0  0  0  0  0  0
    1.3457    0.3004    0.2877 C   0  0  0  0  0  0  0  0  0  0  0  0
    0.7745   -0.1512    0.0000 H   0  0  0  0  0  0  0  0  0  0  0  0
   -0.7498   -0.2458    0.0000 H   0  0  0  0  0  0  0  0  0  0  0  0
   -0.3183    1.0724   -1.3671 H   0  0  0  0  0  0  0  0  0  0  0  0
    0.5215   -0.2894   -2.1479 H   0  0  0  0  0  0  0  0  0  0  0  0
   -1.4947   -1.5251   -1.1411 H   0  0  0  0  0  0  0  0  0  0  0  0
   -1.3513   -2.0726    0.5001 H   0  0  0  0  0  0  0  0  0  0  0  0
    1.8906   -1.3835    0.2472 H   0  0  0  0  0  0  0  0  0  0  0  0
    0.8217    0.1595    3.0464 H   0  0  0  0  0  0  0  0  0  0  0  0
    3.4751    1.0402   -0.4477 H   0  0  0  0  0  0  0  0  0  0  0  0
   -3.4075    1.1958   -0.1905 H   0  0  0  0  0  0  0  0  0  0  0  0
    0.2799   -1.3663   -1.3384 H   0  0  0  0  0  0  0  0  0  0  0  0
   -0.2800    1.3663    1.3384 H   0  0  0  0  0  0  0  0  0  0  0  0
    1.3020   -0.7279    1.3387 H   0  0  0  0  0  0  0  0  0  0  0  0
    2.2457   -0.9308   -0.1313 H   0  0  0  0  0  0  0  0  0  0  0  0
    1.2373    1.0708   -1.1574 H   0  0  0  0  0  0  0  0  0  0  0  0
    1.8794    1.4876    0.4262 H   0  0  0  0  0  0  0  0  0  0  0  0
   -1.8795   -1.4878   -0.4265 H   0  0  0  0  0  0  0  0  0  0  0  0
   -1.2374   -1.0704    1.1572 H   0  0  0  0  0  0  0  0  0  0  0  0
   -1.3014    0.7282   -1.3387 H   0  0  0  0  0  0  0  0  0  0  0  0
   -2.2457    0.9309    0.1322 H   0  0  0  0  0  0  0  0  0  0  0  0
   -0.7940    1.4901   -0.6777 H   0  0  0  0  0  0  0  0  0  0  0  0
   -0.3643    1.4784    1.0620 H   0  0  0  0  0  0  0  0  0  0  0  0
    2.0800   -0.9199   -0.7915 H   0  0  0  0  0  0  0  0  0  0  0  0
    1.3310    0.3822   -1.7045 H   0  0  0  0  0  0  0  0  0  0  0  0
   -0.1893   -1.7086    1.3435 H   0  0  0  0  0  0  0  0  0  0  0  0
   -1.1992   -3.0619   -1.1239 H   0  0  0  0  0  0  0  0  0  0  0  0
   -3.8605    1.2200    0.8337 H   0  0  0  0  0  0  0  0  0  0  0  0
    3.9084    1.3028    0.9052 H   0  0  0  0  0  0  0  0  0  0  0  0
    1.3915    0.8542    1.0013 H   0  0  0  0  0  0  0  0  0  0  0  0
   -1.9288   -1.2806    0.3713 H   0  0  0  0  0  0  0  0  0  0  0  0
    1.2491   -0.6111   -1.5433 H   0  0  0  0  0  0  0  0  0  0  0  0
    2.2271   -1.0316   -0.1432 H   0  0  0  0  0  0  0  0  0  0  0  0
    0.1253   -2.3946   -0.2725 H   0  0  0  0  0  0  0  0  0  0  0  0
    0.2378   -1.4772    1.2291 H   0  0  0  0  0  0  0  0  0  0  0  0
   -0.0526    2.4576    0.0493 H   0  0  0  0  0  0  0  0  0  0  0  0
   -0.1338    1.5041   -1.4268 H   0  0  0  0  0  0  0  0  0  0  0  0
   -1.1901    0.7107    1.3497 H   0  0  0  0  0  0  0  0  0  0  0  0
   -2.1515    1.0910   -0.0793 H   0  0  0  0  0  0  0  0  0  0  0  0
   -0.5290   -0.9090   -1.5201 H   0  0  0  0  0  0  0  0  0  0  0  0
    0.4885    1.2200   -1.3002 H   0  0  0  0  0  0  0  0  0  0  0  0
   -1.3067   -0.6986    1.2975 H   0  0  0  0  0  0  0  0  0  0  0  0
   -2.3780   -0.4579   -0.0759 H   0  0  0  0  0  0  0  0  0  0  0  0
   -1.0363    1.5924    1.1592 H   0  0  0  0  0  0  0  0  0  0  0  0
   -1.5738    1.6591   -0.5143 H   0  0  0  0  0  0  0  0  0  0  0  0
    1.5537   -1.5039   -0.9065 H   0  0  0  0  0  0  0  0  0  0  0  0
    1.0630   -1.8021    0.7557 H   0  0  0  0  0  0  0  0  0  0  0  0
    2.3754    0.4709   -0.0453 H   0  0  0  0  0  0  0  0  0  0  0  0
    1.3476    0.4040    1.3801 H   0  0  0  0  0  0  0  0  0  0  0  0
  3  2  1  0
  4  2  1  0
  5  2  1  0
  6  4  1  0
  7  3  1  0
  8  5  2  0
  9  7  2  0
 10  6  2  0
 11  2  1  0
 12  5  1  0
 13  7  1  0
 14  6  1  0
 16 20  1  0
 17 15  1  0
 18 17  1  0
 19 15  1  0
 20 19  1  0
 16 18  1  0
 22 21  1  0
 23 21  1  0
 24 21  1  0
 25 23  1  0
 26 22  1  0
 27 24  2  0
 28 26  2  0
 29 25  2  0
 30 21  1  0
 31 24  1  0
 32 26  1  0
 33 25  1  0
 35 39  1  0
 36 34  1  0
 37 36  1  0
 38 34  1  0
 39 38  1  0
 35 37  1  0
 41 45  1  0
 42 40  1  0
 43 42  1  0
 44 40  1  0
 45 44  1  0
 41 43  1  0
  1 46  1  0
  1 47  1  0
  3 48  1  0
  3 49  1  0
  4 50  1  0
  4 51  1  0
 11 52  1  0
 12 53  1  0
 13 54  1  0
 14 55  1  0
 15 56  1  0
 16 57  1  0
 17 58  1  0
 17 59  1  0
 18 60  1  0
 18 61  1  0
 19 62  1  0
 19 63  1  0
 20 64  1  0
 20 65  1  0
 22 66  1  0
 22 67  1  0
 23 68  1  0
 23 69  1  0
 30 70  1  0
 31 71  1  0
 32 72  1  0
 33 73  1  0
 34 74  1  0
 35 75  1  0
 36 76  1  0
 36 77  1  0
 37 78  1  0
 37 79  1  0
 38 80  1  0
 38 81  1  0
 39 82  1  0
 39 83  1  0
 40 84  1  0
 41 85  1  0
 42 86  1  0
 42 87  1  0
 43 88  1  0
 43 89  1  0
 44 90  1  0
 44 91  1  0
 45 92  1  0
 45 93  1  0
M  END
$$$$
