
     RDKit          3D

 93 90  0  0  0  0  0  0  0  0999 V2000
    0.0429    0.3958    0.0000 O   0  0  0  0  0  0  0  0  0  0  0  0
   -0.4326   -0.4242   -0.1465 C   0  0  0  0  0  0  0  0  0  0  0  0
    0.1767    0.6156   -1.0889 C   0  0  0  0  0  0  0  0  0  0  0  0
   -0.4625   -0.0324    1.3331 C   0  0  0  0  0  0  0  0  0  0  0  0
    0.3468   -1.7469   -0.2649 C   0  0  0  0  0  0  0  0  0  0  0  0
   -1.4393    1.0577    1.6533 C   0  0  0  0  0  0  0  0  0  0  0  0
    1.6750    0.5973   -1.0982 C   0  0  0  0  0  0  0  0  0  0  0  0
    1.2821   -2.1207    0.4233 O   0  0  0  0  0  0  0  0  0  0  0  0
    2.3724    0.1031   -1.9675 O   0  0  0  0  0  0  0  0  0  0  0  0
   -2.5218    0.9253    2.2008 O   0  0  0  0  0  0  0  0  0  0  0  0
   -1.7855   -0.6759   -0.5734 O   0  0  0  0  0  0  0  0  0  0  0  0
   -0.0981   -2.5027   -1.2968 O   0  0  0  0  0  0  0  0  0  0  0  0
    2.2197    1.1736   -0.0151 O   0  0  0  0  0  0  0  0  0  0  0  0
   -0.9936    2.2841    1.3275 O   0  0  0  0  0  0  0  0  0  0  0  0
   -0.8009   -1.1875   -0.3945 N   0  0  0  0  0  0  0  0  0  0  0  0
    0.8018    1.1864    0.3968 N   0  0  0  0  0  0  0  0  0  0  0  0
    0.5979   -1.2977    0.0578 C   0  0  0  0  0  0  0  0  0  0  0  0
    1.4143   -0.0129   -0.2002 C   0  0  0  0  0  0  0  0  0  0  0  0
   -1.4160    0.0134    0.1978 C   0  0  0  0  0  0  0  0  0  0  0  0
   -0.5966    1.2968   -0.0543 C   0  0  0  0  0  0  0  0  0  0  0  0
   -0.3393   -0.2560   -0.3676 C   0  0  0  0  0  0  0  0  0  0  0  0
   -1.5661   -0.2828    0.5531 C   0  0  0  0  0  0  0  0  0  0  0  0
    0.7875    0.6557    0.1345 C   0  0  0  0  0  0  0  0  0  0  0  0
    0.1572   -1.7113   -0.4701 C   0  0  0  0  0  0  0  0  0  0  0  0
    2.0591    0.4288   -0.6333 C   0  0  0  0  0  0  0  0  0  0  0  0
   -2.2082    1.0561    0.7696 C   0  0  0  0  0  0  0  0  0  0  0  0
    0.1537   -2.4136   -1.4684 O   0  0  0  0  0  0  0  0  0  0  0  0
   -3.3027    1.4122    0.3695 O   0  0  0  0  0  0  0  0  0  0  0  0
    2.1413    0.1807   -1.8249 O   0  0  0  0  0  0  0  0  0  0  0  0
   -0.7782    0.1976   -1.6561 O   0  0  0  0  0  0  0  0  0  0  0  0
    0.6445   -2.1948    0.6936 O   0  0  0  0  0  0  0  0  0  0  0  0
   -1.4838    1.8648    1.5666 O   0  0  0  0  0  0  0  0  0  0  0  0
    3.1586    0.5524    0.1293 O   0  0  0  0  0  0  0  0  0  0  0  0
    0.0279    1.3877   -0.3843 N   0  0  0  0  0  0  0  0  0  0  0  0
   -0.0498   -1.5084    0.2569 N   0  0  0  0  0  0  0  0  0  0  0  0
   -1.1491    0.7530    0.2242 C   0  0  0  0  0  0  0  0  0  0  0  0
   -1.2622   -0.7508   -0.1039 C   0  0  0  0  0  0  0  0  0  0  0  0
    1.2437    0.6246   -0.0688 C   0  0  0  0  0  0  0  0  0  0  0  0
    1.1131   -0.8785   -0.3982 C   0  0  0  0  0  0  0  0  0  0  0  0
   -0.7297    0.7527   -0.9758 N   0  0  0  0  0  0  0  0  0  0  0  0
    0.8292   -1.3046    0.0074 N   0  0  0  0  0  0  0  0  0  0  0  0
   -1.3561   -0.0012    0.1179 C   0  0  0  0  0  0  0  0  0  0  0  0
   -0.5621   -1.2733    0.5076 C   0  0  0  0  0  0  0  0  0  0  0  0
    0.6488    1.1279   -0.6135 C   0  0  0  0  0  0  0  0  0  0  0  0
    1.4189    0.0358    0.1710 C   0  0  0  0  0  0  0  0  0  0  0  0
   -0.7798   -0.1150    0.0000 H   0  0  0  0  0  0  0  0  0  0  0  0
    0.7369   -0.2808    0.0000 H   0  0  0  0  0  0  0  0  0  0  0  0
   -0.1449    0.4128   -2.1191 H   0  0  0  0  0  0  0  0  0  0  0  0
   -0.1751    1.6337   -0.8954 H   0  0  0  0  0  0  0  0  0  0  0  0
   -0.7723   -0.8953    1.9383 H   0  0  0  0  0  0  0  0  0  0  0  0
    0.5243    0.2500    1.7155 H   0  0  0  0  0  0  0  0  0  0  0  0
   -1.7293   -1.3023   -1.3237 H   0  0  0  0  0  0  0  0  0  0  0  0
    0.4919   -3.2882   -1.2851 H   0  0  0  0  0  0  0  0  0  0  0  0
    3.1844    1.0576   -0.1348 H   0  0  0  0  0  0  0  0  0  0  0  0
   -1.7183    2.8779    1.6176 H   0  0  0  0  0  0  0  0  0  0  0  0
   -0.7883   -1.0630   -1.4079 H   0  0  0  0  0  0  0  0  0  0  0  0
    0.7929    1.0573    1.4093 H   0  0  0  0  0  0  0  0  0  0  0  0
    1.0696   -2.1390   -0.4636 H   0  0  0  0  0  0  0  0  0  0  0  0
    0.6124   -1.5393    1.1282 H   0  0  0  0  0  0  0  0  0  0  0  0
    1.5318    0.1437   -1.2795 H   0  0  0  0  0  0  0  0  0  0  0  0
    2.4232   -0.1346    0.2093 H   0  0  0  0  0  0  0  0  0  0  0  0
   -1.5413   -0.1418    1.2768 H   0  0  0  0  0  0  0  0  0  0  0  0
   -2.4209    0.1385   -0.2209 H   0  0  0  0  0  0  0  0  0  0  0  0
   -1.0699    2.1350    0.4678 H   0  0  0  0  0  0  0  0  0  0  0  0
   -0.6099    1.5447   -1.1228 H   0  0  0  0  0  0  0  0  0  0  0  0
   -1.3314   -0.7024    1.5409 H   0  0  0  0  0  0  0  0  0  0  0  0
   -2.3389   -0.9350    0.1219 H   0  0  0  0  0  0  0  0  0  0  0  0
    0.9890    0.4586    1.1955 H   0  0  0  0  0  0  0  0  0  0  0  0
    0.5379    1.7149    0.0077 H   0  0  0  0  0  0  0  0  0  0  0  0
   -0.0637   -0.0068   -2.2961 H   0  0  0  0  0  0  0  0  0  0  0  0
    0.9148   -3.1133    0.4749 H   0  0  0  0  0  0  0  0  0  0  0  0
   -2.0421    2.6666    1.6494 H   0  0  0  0  0  0  0  0  0  0  0  0
    3.9108    0.4274   -0.4900 H   0  0  0  0  0  0  0  0  0  0  0  0
    0.1216    2.3406   -0.0370 H   0  0  0  0  0  0  0  0  0  0  0  0
    0.0776   -1.4296    1.2648 H   0  0  0  0  0  0  0  0  0  0  0  0
   -2.0485    1.2671   -0.1321 H   0  0  0  0  0  0  0  0  0  0  0  0
   -1.1094    0.8863    1.3126 H   0  0  0  0  0  0  0  0  0  0  0  0
   -1.4725   -0.8897   -1.1709 H   0  0  0  0  0  0  0  0  0  0  0  0
   -2.1150   -1.1754    0.4377 H   0  0  0  0  0  0  0  0  0  0  0  0
    1.4845    0.7484    0.9945 H   0  0  0  0  0  0  0  0  0  0  0  0
    2.0792    1.0460   -0.6385 H   0  0  0  0  0  0  0  0  0  0  0  0
    2.0211   -1.3998   -0.0736 H   0  0  0  0  0  0  0  0  0  0  0  0
    1.0379   -1.0213   -1.4834 H   0  0  0  0  0  0  0  0  0  0  0  0
   -1.2691    1.5896   -1.1864 H   0  0  0  0  0  0  0  0  0  0  0  0
    0.7540   -1.4534   -1.0040 H   0  0  0  0  0  0  0  0  0  0  0  0
   -1.4520    0.6519    0.9950 H   0  0  0  0  0  0  0  0  0  0  0  0
   -2.3716   -0.2864   -0.1798 H   0  0  0  0  0  0  0  0  0  0  0  0
   -1.0760   -2.1560    0.1096 H   0  0  0  0  0  0  0  0  0  0  0  0
   -0.5583   -1.3794    1.5991 H   0  0  0  0  0  0  0  0  0  0  0  0
    0.6405    2.0506   -0.0232 H   0  0  0  0  0  0  0  0  0  0  0  0
    1.1827    1.3454   -1.5446 H   0  0  0  0  0  0  0  0  0  0  0  0
    1.4398    0.2877    1.2388 H   0  0  0  0  0  0  0  0  0  0  0  0
    2.4610    0.0127   -0.1683 H   0  0  0  0  0  0  0  0  0  0  0  0
  3  2  1  0
  4  2  1  0
  5  2  1  0
  6  4  1  0
  7  3  1  0
  8  5  2  0
  9  7  2  0
 10  6  2  0
 11  2  1  0
 12  5  1  0
 13  7  1  0
 14  6  1  0
 16 20  1  0
 17 15  1  0
 18 17  1  0
 19 15  1  0
 20 19  1  0
 16 18  1  0
 22 21  1  0
 23 21  1  0
 24 21  1  0
 25 23  1  0
 26 22  1  0
 27 24  2  0
 28 26  2  0
 29 25  2  0
 30 21  1  0
 31 24  1  0
 32 26  1  0
 33 25  1  0
 35 39  1  0
 36 34  1  0
 37 36  1  0
 38 34  1  0
 39 38  1  0
 35 37  1  0
 41 45  1  0
 42 40  1  0
 43 42  1  0
 44 40  1  0
 45 44  1  0
 41 43  1  0
  1 46  1  0
  1 47  1  0
  3 48  1  0
  3 49  1  0
  4 50  1  0
  4 51  1  0
 11 52  1  0
 12 53  1  0
 13 54  1  0
 14 55  1  0
 15 56  1  0
 16 57  1  0
 17 58  1  0
 17 59  1  0
 18 60  1  0
 18 61  1  0
 19 62  1  0
 19 63  1  0
 20 64  1  0
 20 65  1  0
 22 66  1  0
 22 67  1  0
 23 68  1  0
 23 69  1  0
 30 70  1  0
 31 71  1  0
 32 72  1  0
 33 73  1  0
 34 74  1  0
 35 75  1  0
 36 76  1  0
 36 77  1  0
 37 78  1  0
 37 79  1  0
 38 80  1  0
 38 81  1  0
 39 82  1  0
 39 83  1  0
 40 84  1  0
 41 85  1  0
 42 86  1  0
 42 87  1  0
 43 88  1  0
 43 89  1  0
 44 90  1  0
 44 91  1  0
 45 92  1  0
 45 93  1  0
M  END
$$$$
