
     RDKit          3D

 93 90  0  0  0  0  0  0  0  0999 V2000
   -0.0350    0.3962    0.0000 O   0  0  0  0  0  0  0  0  0  0  0  0
   -0.0719    0.0918   -0.7884 C   0  0  0  0  0  0  0  0  0  0  0  0
    1.2808    0.4474   -0.1635 C   0  0  0  0  0  0  0  0  0  0  0  0
   -0.9939   -0.8876   -0.0554 C   0  0  0  0  0  0  0  0  0  0  0  0
   -0.8626    1.3823   -1.0428 C   0  0  0  0  0  0  0  0  0  0  0  0
   -1.2055   -0.5632    1.3964 C   0  0  0  0  0  0  0  0  0  0  0  0
    2.1053   -0.7401    0.2472 C   0  0  0  0  0  0  0  0  0  0  0  0
   -1.3242    1.7152   -2.1256 O   0  0  0  0  0  0  0  0  0  0  0  0
    1.7498   -1.8961    0.3896 O   0  0  0  0  0  0  0  0  0  0  0  0
   -0.3798   -0.1569    2.1941 O   0  0  0  0  0  0  0  0  0  0  0  0
    0.2077   -0.4764   -2.0932 O   0  0  0  0  0  0  0  0  0  0  0  0
   -1.0748    2.1387    0.0469 O   0  0  0  0  0  0  0  0  0  0  0  0
    3.3835   -0.3904    0.5061 O   0  0  0  0  0  0  0  0  0  0  0  0
   -2.4708   -0.8052    1.7920 O   0  0  0  0  0  0  0  0  0  0  0  0
    0.4935   -1.3080    0.5028 N   0  0  0  0  0  0  0  0  0  0  0  0
   -0.4932    1.3079   -0.5045 N   0  0  0  0  0  0  0  0  0  0  0  0
   -0.7905   -1.1723   -0.2074 C   0  0  0  0  0  0  0  0  0  0  0  0
   -1.4078    0.2363   -0.0721 C   0  0  0  0  0  0  0  0  0  0  0  0
    1.4078   -0.2355    0.0725 C   0  0  0  0  0  0  0  0  0  0  0  0
    0.7901    1.1729    0.2074 C   0  0  0  0  0  0  0  0  0  0  0  0
   -0.1046    0.4576   -0.3101 C   0  0  0  0  0  0  0  0  0  0  0  0
   -1.5180    0.2888    0.2861 C   0  0  0  0  0  0  0  0  0  0  0  0
    0.8632   -0.6296    0.1792 C   0  0  0  0  0  0  0  0  0  0  0  0
    0.3417    1.8630    0.1398 C   0  0  0  0  0  0  0  0  0  0  0  0
    2.2983   -0.3636   -0.1946 C   0  0  0  0  0  0  0  0  0  0  0  0
   -2.1525   -1.0171   -0.0859 C   0  0  0  0  0  0  0  0  0  0  0  0
    0.3286    2.8922   -0.5160 O   0  0  0  0  0  0  0  0  0  0  0  0
   -1.8926   -1.6865   -1.0727 O   0  0  0  0  0  0  0  0  0  0  0  0
    2.8500    0.7107   -0.3502 O   0  0  0  0  0  0  0  0  0  0  0  0
   -0.1907    0.4023   -1.7407 O   0  0  0  0  0  0  0  0  0  0  0  0
    0.7101    1.9071    1.4408 O   0  0  0  0  0  0  0  0  0  0  0  0
   -3.1063   -1.3980    0.7816 O   0  0  0  0  0  0  0  0  0  0  0  0
    3.0080   -1.5074   -0.2916 O   0  0  0  0  0  0  0  0  0  0  0  0
   -0.0167   -1.5139   -0.1557 N   0  0  0  0  0  0  0  0  0  0  0  0
   -0.0470    1.5130    0.1682 N   0  0  0  0  0  0  0  0  0  0  0  0
   -1.2255   -0.6775   -0.2610 C   0  0  0  0  0  0  0  0  0  0  0  0
   -1.1519    0.6217    0.5644 C   0  0  0  0  0  0  0  0  0  0  0  0
    1.1841   -0.7022    0.0987 C   0  0  0  0  0  0  0  0  0  0  0  0
    1.0856    0.7576   -0.3903 C   0  0  0  0  0  0  0  0  0  0  0  0
   -0.2515    1.4927   -0.2347 N   0  0  0  0  0  0  0  0  0  0  0  0
    0.2242   -1.3748    0.3645 N   0  0  0  0  0  0  0  0  0  0  0  0
    1.0235    1.0066    0.3252 C   0  0  0  0  0  0  0  0  0  0  0  0
    1.3116   -0.4684   -0.0298 C   0  0  0  0  0  0  0  0  0  0  0  0
   -1.3322    0.5909    0.2059 C   0  0  0  0  0  0  0  0  0  0  0  0
   -1.0632   -0.8875   -0.1498 C   0  0  0  0  0  0  0  0  0  0  0  0
   -0.7431   -0.2653    0.0000 H   0  0  0  0  0  0  0  0  0  0  0  0
    0.7781   -0.1309    0.0000 H   0  0  0  0  0  0  0  0  0  0  0  0
    1.1702    1.0927    0.7143 H   0  0  0  0  0  0  0  0  0  0  0  0
    1.8710    1.0048   -0.9038 H   0  0  0  0  0  0  0  0  0  0  0  0
   -0.6342   -1.9191   -0.1284 H   0  0  0  0  0  0  0  0  0  0  0  0
   -1.9727   -0.8916   -0.5552 H   0  0  0  0  0  0  0  0  0  0  0  0
   -0.5310   -0.2275   -2.6851 H   0  0  0  0  0  0  0  0  0  0  0  0
   -1.5848    2.9119   -0.2776 H   0  0  0  0  0  0  0  0  0  0  0  0
    3.8044   -1.2315    0.7814 H   0  0  0  0  0  0  0  0  0  0  0  0
   -2.4665   -0.5993    2.7511 H   0  0  0  0  0  0  0  0  0  0  0  0
    0.3118   -1.1795    1.4992 H   0  0  0  0  0  0  0  0  0  0  0  0
   -0.3102    1.1754   -1.4999 H   0  0  0  0  0  0  0  0  0  0  0  0
   -0.6427   -1.4137   -1.2674 H   0  0  0  0  0  0  0  0  0  0  0  0
   -1.4916   -1.9148    0.1893 H   0  0  0  0  0  0  0  0  0  0  0  0
   -1.7041    0.4144    0.9691 H   0  0  0  0  0  0  0  0  0  0  0  0
   -2.3219    0.2904   -0.6737 H   0  0  0  0  0  0  0  0  0  0  0  0
    2.3214   -0.2898    0.6748 H   0  0  0  0  0  0  0  0  0  0  0  0
    1.7053   -0.4132   -0.9684 H   0  0  0  0  0  0  0  0  0  0  0  0
    1.4915    1.9155   -0.1889 H   0  0  0  0  0  0  0  0  0  0  0  0
    0.6406    1.4140    1.2672 H   0  0  0  0  0  0  0  0  0  0  0  0
   -2.1846    1.0788   -0.0819 H   0  0  0  0  0  0  0  0  0  0  0  0
   -1.4772    0.3568    1.3802 H   0  0  0  0  0  0  0  0  0  0  0  0
    0.8276   -0.7346    1.2697 H   0  0  0  0  0  0  0  0  0  0  0  0
    0.5894   -1.5931   -0.2669 H   0  0  0  0  0  0  0  0  0  0  0  0
   -0.6510   -0.4228   -1.9967 H   0  0  0  0  0  0  0  0  0  0  0  0
    1.0179    2.8341    1.5458 H   0  0  0  0  0  0  0  0  0  0  0  0
   -3.4674   -2.2332    0.4152 H   0  0  0  0  0  0  0  0  0  0  0  0
    3.9100   -1.2055   -0.5309 H   0  0  0  0  0  0  0  0  0  0  0  0
    0.0944   -2.0230   -1.0318 H   0  0  0  0  0  0  0  0  0  0  0  0
    0.2593    2.0239    0.9953 H   0  0  0  0  0  0  0  0  0  0  0  0
   -2.0868   -1.2710    0.0638 H   0  0  0  0  0  0  0  0  0  0  0  0
   -1.3940   -0.4229   -1.3153 H   0  0  0  0  0  0  0  0  0  0  0  0
   -2.0936    1.1728    0.4676 H   0  0  0  0  0  0  0  0  0  0  0  0
   -1.0410    0.3649    1.6258 H   0  0  0  0  0  0  0  0  0  0  0  0
    1.3755   -0.7049    1.1789 H   0  0  0  0  0  0  0  0  0  0  0  0
    2.0476   -1.1884   -0.3692 H   0  0  0  0  0  0  0  0  0  0  0  0
    0.9938    0.7630   -1.4835 H   0  0  0  0  0  0  0  0  0  0  0  0
    2.0164    1.2869   -0.1561 H   0  0  0  0  0  0  0  0  0  0  0  0
   -0.1902    1.4354   -1.2507 H   0  0  0  0  0  0  0  0  0  0  0  0
    0.4074   -2.3089    0.0022 H   0  0  0  0  0  0  0  0  0  0  0  0
    1.0133    1.1344    1.4149 H   0  0  0  0  0  0  0  0  0  0  0  0
    1.8354    1.6349   -0.0576 H   0  0  0  0  0  0  0  0  0  0  0  0
    2.2328   -0.7845    0.4713 H   0  0  0  0  0  0  0  0  0  0  0  0
    1.4849   -0.5576   -1.1097 H   0  0  0  0  0  0  0  0  0  0  0  0
   -1.4728    0.6957    1.2889 H   0  0  0  0  0  0  0  0  0  0  0  0
   -2.2682    0.9108   -0.2651 H   0  0  0  0  0  0  0  0  0  0  0  0
   -1.0894   -1.0120   -1.2397 H   0  0  0  0  0  0  0  0  0  0  0  0
   -1.8656   -1.5076    0.2643 H   0  0  0  0  0  0  0  0  0  0  0  0
  3  2  1  0
  4  2  1  0
  5  2  1  0
  6  4  1  0
  7  3  1  0
  8  5  2  0
  9  7  2  0
 10  6  2  0
 11  2  1  0
 12  5  1  0
 13  7  1  0
 14  6  1  0
 16 20  1  0
 17 15  1  0
 18 17  1  0
 19 15  1  0
 20 19  1  0
 16 18  1  0
 22 21  1  0
 23 21  1  0
 24 21  1  0
 25 23  1  0
 26 22  1  0
 27 24  2  0
 28 26  2  0
 29 25  2  0
 30 21  1  0
 31 24  1  0
 32 26  1  0
 33 25  1  0
 35 39  1  0
 36 34  1  0
 37 36  1  0
 38 34  1  0
 39 38  1  0
 35 37  1  0
 41 45  1  0
 42 40  1  0
 43 42  1  0
 44 40  1  0
 45 44  1  0
 41 43  1  0
  1 46  1  0
  1 47  1  0
  3 48  1  0
  3 49  1  0
  4 50  1  0
  4 51  1  0
 11 52  1  0
 12 53  1  0
 13 54  1  0
 14 55  1  0
 15 56  1  0
 16 57  1  0
 17 58  1  0
 17 59  1  0
 18 60  1  0
 18 61  1  0
 19 62  1  0
 19 63  1  0
 20 64  1  0
 20 65  1  0
 22 66  1  0
 22 67  1  0
 23 68  1  0
 23 69  1  0
 30 70  1  0
 31 71  1  0
 32 72  1  0
 33 73  1  0
 34 74  1  0
 35 75  1  0
 36 76  1  0
 36 77  1  0
 37 78  1  0
 37 79  1  0
 38 80  1  0
 38 81  1  0
 39 82  1  0
 39 83  1  0
 40 84  1  0
 41 85  1  0
 42 86  1  0
 42 87  1  0
 43 88  1  0
 43 89  1  0
 44 90  1  0
 44 91  1  0
 45 92  1  0
 45 93  1  0
M  END
$$$$
