
     RDKit          2D

 34 37  0  0  0  0  0  0  0  0999 V2000
    2.2901   -8.5932    0.0000 O   0  0  0  0  0  0  0  0  0  0  0  0
    0.7360   -6.0299    0.0000 C   0  0  0  0  0  0  0  0  0  0  0  0
    0.0207   -6.4429    0.0000 C   0  0  0  0  0  0  0  0  0  0  0  0
    0.0224   -7.2679    0.0000 C   0  0  0  0  0  0  0  0  0  0  0  0
   -0.6929   -7.6809    0.0000 C   0  0  0  0  0  0  0  0  0  0  0  0
   -1.4065   -7.2668    0.0000 C   0  0  0  0  0  0  0  0  0  0  0  0
   -1.4083   -6.4419    0.0000 C   0  0  0  0  0  0  0  0  0  0  0  0
   -0.6929   -6.0289    0.0000 C   0  0  0  0  0  0  0  0  0  0  0  0
    0.7342   -5.2050    0.0000 O   0  0  0  0  0  0  0  0  0  0  0  0
    1.4496   -6.4440    0.0000 N   0  0  0  0  0  0  0  0  0  0  0  0
    2.9185   -6.3650    0.0000 C   0  0  0  0  0  0  0  0  0  0  0  0
    2.1650   -6.0309    0.0000 N   0  0  0  0  0  0  0  0  0  0  0  0
    2.2503   -5.2078    0.0000 C   0  0  0  0  0  0  0  0  0  0  0  0
    3.0556   -5.0375    0.0000 C   0  0  0  0  0  0  0  0  0  0  0  0
    3.4697   -4.3239    0.0000 C   0  0  0  0  0  0  0  0  0  0  0  0
    4.2947   -4.3221    0.0000 C   0  0  0  0  0  0  0  0  0  0  0  0
    4.7077   -5.0375    0.0000 C   0  0  0  0  0  0  0  0  0  0  0  0
    4.2936   -5.7510    0.0000 C   0  0  0  0  0  0  0  0  0  0  0  0
    3.4686   -5.7529    0.0000 C   0  0  0  0  0  0  0  0  0  0  0  0
    5.1217   -4.3239    0.0000 C   0  0  0  0  0  0  0  0  0  0  0  0
    3.4311   -4.9414    0.0000 C   0  0  0  0  0  0  0  0  0  0  0  0
    3.7403   -5.4769    0.0000 C   0  0  0  0  0  0  0  0  0  0  0  0
    1.6382   -4.6577    0.0000 O   0  0  0  0  0  0  0  0  0  0  0  0
    3.0888   -7.1703    0.0000 O   0  0  0  0  0  0  0  0  0  0  0  0
    2.5707   -4.3714    0.0000 H   0  0  0  0  0  0  0  0  0  0  0  0
    4.2949   -3.5007    0.0000 H   0  0  0  0  0  0  0  0  0  0  0  0
    5.4212   -5.4515    0.0000 H   0  0  0  0  0  0  0  0  0  0  0  0
    3.8030   -6.5059    0.0000 H   0  0  0  0  0  0  0  0  0  0  0  0
   -2.1041   -7.6696    0.0000 C   0  0  0  0  0  0  0  0  0  0  0  0
   -2.8018   -7.2669    0.0000 F   0  0  0  0  0  0  0  0  0  0  0  0
   -2.1041   -8.4754    0.0000 F   0  0  0  0  0  0  0  0  0  0  0  0
   -2.7992   -8.0746    0.0000 F   0  0  0  0  0  0  0  0  0  0  0  0
    4.7061   -6.4655    0.0000 H   0  0  0  0  0  0  0  0  0  0  0  0
    3.0572   -3.6094    0.0000 H   0  0  0  0  0  0  0  0  0  0  0  0
  5  6  1  0
  6  7  2  0
  7  8  1  0
  3  8  2  0
  2  9  2  0
  2 10  1  0
 11 12  1  0
 12 13  1  0
 14 13  1  0
 15 14  1  0
 15 16  1  0
 17 16  1  0
 18 17  1  0
 18 19  1  0
 19 11  1  0
 19 14  1  0
 16 20  1  0
 17 20  1  0
 21 22  2  0
 15 21  1  0
 18 22  1  0
 13 23  2  0
 11 24  2  0
 10 12  1  0
 14 25  1  1
 16 26  1  1
 17 27  1  1
 19 28  1  1
  6 29  1  0
  2  3  1  0
 29 30  1  0
  3  4  1  0
 29 31  1  0
  4  5  2  0
 29 32  1  0
 18 33  1  6
 15 34  1  6
M  END
> <chembl_id>
CHEMBL5315121

> <chembl_pref_name>
TECOVIRIMAT MONOHYDRATE
