
     RDKit          3D

 42 46  0  0  0  0  0  0  0  0999 V2000
    1.8729    0.6597   -1.1940 C   0  0  0  0  0  0  0  0  0  0  0  0
    3.2230    0.1993   -0.7879 C   0  0  0  0  0  0  0  0  0  0  0  0
    4.2977    0.2773   -1.6908 C   0  0  0  0  0  0  0  0  0  0  0  0
    5.5723   -0.1597   -1.3190 C   0  0  0  0  0  0  0  0  0  0  0  0
    5.7947   -0.7080   -0.0453 C   0  0  0  0  0  0  0  0  0  0  0  0
    4.7258   -0.7714    0.8637 C   0  0  0  0  0  0  0  0  0  0  0  0
    3.4509   -0.3337    0.4931 C   0  0  0  0  0  0  0  0  0  0  0  0
    1.6063    0.8026   -2.4185 O   0  0  0  0  0  0  0  0  0  0  0  0
    0.8775    0.9851   -0.2128 N   0  0  0  0  0  0  0  0  0  0  0  0
   -1.2242    0.1539   -1.3185 C   0  0  0  0  0  0  0  0  0  0  0  0
   -0.4866    1.0877   -0.5417 N   0  0  0  0  0  0  0  0  0  0  0  0
   -1.4307    1.8378    0.2035 C   0  0  0  0  0  0  0  0  0  0  0  0
   -2.8508    1.4823   -0.1196 C   0  0  2  0  0  0  0  0  0  0  0  0
   -3.6512    0.9702    1.1195 C   0  0  1  0  0  0  0  0  0  0  0  0
   -5.0635    0.5804    0.5621 C   0  0  1  0  0  0  0  0  0  0  0  0
   -4.9247   -0.5652   -0.4781 C   0  0  1  0  0  0  0  0  0  0  0  0
   -3.4171   -0.9646   -0.6361 C   0  0  1  0  0  0  0  0  0  0  0  0
   -2.7083    0.3184   -1.1751 C   0  0  2  0  0  0  0  0  0  0  0  0
   -5.6938   -0.7901    0.8271 C   0  0  0  0  0  0  0  0  0  0  0  0
   -2.9395   -0.2754    1.6318 C   0  0  0  0  0  0  0  0  0  0  0  0
   -2.8199   -1.2671    0.7324 C   0  0  0  0  0  0  0  0  0  0  0  0
   -1.0990    2.7158    1.0438 O   0  0  0  0  0  0  0  0  0  0  0  0
   -0.6854   -0.7476   -2.0141 O   0  0  0  0  0  0  0  0  0  0  0  0
    7.1797   -1.1339    0.3726 C   0  0  0  0  0  0  0  0  0  0  0  0
    7.1169   -2.1565    1.3033 F   0  0  0  0  0  0  0  0  0  0  0  0
    7.8378   -0.0550    0.9326 F   0  0  0  0  0  0  0  0  0  0  0  0
    7.9022   -1.5862   -0.7181 F   0  0  0  0  0  0  0  0  0  0  0  0
    4.1569    0.6903   -2.6820 H   0  0  0  0  0  0  0  0  0  0  0  0
    6.3852   -0.0665   -2.0282 H   0  0  0  0  0  0  0  0  0  0  0  0
    4.8748   -1.1632    1.8622 H   0  0  0  0  0  0  0  0  0  0  0  0
    2.6448   -0.4286    1.2085 H   0  0  0  0  0  0  0  0  0  0  0  0
    1.1895    1.2993    0.7332 H   0  0  0  0  0  0  0  0  0  0  0  0
   -3.3548    2.3636   -0.5746 H   0  0  0  0  0  0  0  0  0  0  0  0
   -3.7328    1.7462    1.9097 H   0  0  0  0  0  0  0  0  0  0  0  0
   -5.7405    1.3882    0.2099 H   0  0  0  0  0  0  0  0  0  0  0  0
   -5.5265   -0.3774   -1.3932 H   0  0  0  0  0  0  0  0  0  0  0  0
   -3.3014   -1.8244   -1.3294 H   0  0  0  0  0  0  0  0  0  0  0  0
   -3.1397    0.6221   -2.1545 H   0  0  0  0  0  0  0  0  0  0  0  0
   -6.7955   -0.8013    0.6925 H   0  0  0  0  0  0  0  0  0  0  0  0
   -5.2256   -1.4332    1.5982 H   0  0  0  0  0  0  0  0  0  0  0  0
   -2.5601   -0.3617    2.6445 H   0  0  0  0  0  0  0  0  0  0  0  0
   -2.3370   -2.2095    0.9683 H   0  0  0  0  0  0  0  0  0  0  0  0
  4  5  2  0
  5  6  1  0
  6  7  2  0
  2  7  1  0
  1  8  2  0
  1  9  1  0
 10 11  1  0
 11 12  1  0
 13 12  1  0
 14 13  1  0
 14 15  1  0
 16 15  1  0
 17 16  1  0
 17 18  1  0
 18 10  1  0
 18 13  1  0
 15 19  1  0
 16 19  1  0
 20 21  2  0
 14 20  1  0
 17 21  1  0
 12 22  2  0
 10 23  2  0
  9 11  1  0
  5 24  1  0
  1  2  1  0
 24 25  1  0
  2  3  2  0
 24 26  1  0
  3  4  1  0
 24 27  1  0
  3 28  1  0
  4 29  1  0
  6 30  1  0
  7 31  1  0
  9 32  1  0
 13 33  1  6
 14 34  1  1
 15 35  1  6
 16 36  1  6
 17 37  1  6
 18 38  1  6
 19 39  1  0
 19 40  1  0
 20 41  1  0
 21 42  1  0
M  END
$$$$
