
     RDKit          3D

 42 46  0  0  0  0  0  0  0  0999 V2000
    1.8673   -1.2946    0.3760 C   0  0  0  0  0  0  0  0  0  0  0  0
    3.2267   -0.7016    0.3648 C   0  0  0  0  0  0  0  0  0  0  0  0
    3.4198    0.6704    0.6039 C   0  0  0  0  0  0  0  0  0  0  0  0
    4.7046    1.2209    0.5842 C   0  0  0  0  0  0  0  0  0  0  0  0
    5.8214    0.4173    0.3018 C   0  0  0  0  0  0  0  0  0  0  0  0
    5.6317   -0.9566    0.0800 C   0  0  0  0  0  0  0  0  0  0  0  0
    4.3473   -1.5076    0.0985 C   0  0  0  0  0  0  0  0  0  0  0  0
    1.6725   -2.4151   -0.1693 O   0  0  0  0  0  0  0  0  0  0  0  0
    0.7780   -0.6317    1.0344 N   0  0  0  0  0  0  0  0  0  0  0  0
   -1.6297   -0.7322    1.6834 C   0  0  0  0  0  0  0  0  0  0  0  0
   -0.5634   -0.9724    0.7809 N   0  0  0  0  0  0  0  0  0  0  0  0
   -1.1443   -1.1516   -0.5036 C   0  0  0  0  0  0  0  0  0  0  0  0
   -2.6438   -1.1222   -0.4755 C   0  0  2  0  0  0  0  0  0  0  0  0
   -3.2507    0.0034   -1.3720 C   0  0  1  0  0  0  0  0  0  0  0  0
   -4.7991   -0.0773   -1.1404 C   0  0  1  0  0  0  0  0  0  0  0  0
   -5.1280    0.2122    0.3501 C   0  0  1  0  0  0  0  0  0  0  0  0
   -3.8059    0.4912    1.1448 C   0  0  1  0  0  0  0  0  0  0  0  0
   -2.9794   -0.8292    1.0379 C   0  0  2  0  0  0  0  0  0  0  0  0
   -5.6290    1.1500   -0.7522 C   0  0  0  0  0  0  0  0  0  0  0  0
   -2.7214    1.3316   -0.8462 C   0  0  0  0  0  0  0  0  0  0  0  0
   -3.0056    1.5814    0.4436 C   0  0  0  0  0  0  0  0  0  0  0  0
   -0.4677   -1.2725   -1.5593 O   0  0  0  0  0  0  0  0  0  0  0  0
   -1.4501   -0.4714    2.9027 O   0  0  0  0  0  0  0  0  0  0  0  0
    7.2110    1.0024    0.3303 C   0  0  0  0  0  0  0  0  0  0  0  0
    7.7125    0.9211    1.6158 F   0  0  0  0  0  0  0  0  0  0  0  0
    8.0506    0.3108   -0.5259 F   0  0  0  0  0  0  0  0  0  0  0  0
    7.1909    2.3295   -0.0630 F   0  0  0  0  0  0  0  0  0  0  0  0
    2.5804    1.3266    0.7925 H   0  0  0  0  0  0  0  0  0  0  0  0
    4.8243    2.2779    0.7870 H   0  0  0  0  0  0  0  0  0  0  0  0
    6.4776   -1.6065   -0.1059 H   0  0  0  0  0  0  0  0  0  0  0  0
    4.2331   -2.5695   -0.0815 H   0  0  0  0  0  0  0  0  0  0  0  0
    0.9893    0.0131    1.8285 H   0  0  0  0  0  0  0  0  0  0  0  0
   -3.0357   -2.1183   -0.7784 H   0  0  0  0  0  0  0  0  0  0  0  0
   -2.9985   -0.1393   -2.4440 H   0  0  0  0  0  0  0  0  0  0  0  0
   -5.3523   -0.9590   -1.5295 H   0  0  0  0  0  0  0  0  0  0  0  0
   -5.8593   -0.5128    0.7677 H   0  0  0  0  0  0  0  0  0  0  0  0
   -4.0222    0.7605    2.2002 H   0  0  0  0  0  0  0  0  0  0  0  0
   -3.5396   -1.6794    1.4861 H   0  0  0  0  0  0  0  0  0  0  0  0
   -6.7116    1.0356   -0.9688 H   0  0  0  0  0  0  0  0  0  0  0  0
   -5.1508    2.1455   -0.8398 H   0  0  0  0  0  0  0  0  0  0  0  0
   -2.1606    2.0267   -1.4621 H   0  0  0  0  0  0  0  0  0  0  0  0
   -2.6902    2.4923    0.9414 H   0  0  0  0  0  0  0  0  0  0  0  0
  4  5  2  0
  5  6  1  0
  6  7  2  0
  2  7  1  0
  1  8  2  0
  1  9  1  0
 10 11  1  0
 11 12  1  0
 13 12  1  0
 14 13  1  0
 14 15  1  0
 16 15  1  0
 17 16  1  0
 17 18  1  0
 18 10  1  0
 18 13  1  0
 15 19  1  0
 16 19  1  0
 20 21  2  0
 14 20  1  0
 17 21  1  0
 12 22  2  0
 10 23  2  0
  9 11  1  0
  5 24  1  0
  1  2  1  0
 24 25  1  0
  2  3  2  0
 24 26  1  0
  3  4  1  0
 24 27  1  0
  3 28  1  0
  4 29  1  0
  6 30  1  0
  7 31  1  0
  9 32  1  0
 13 33  1  6
 14 34  1  6
 15 35  1  6
 16 36  1  1
 17 37  1  1
 18 38  1  1
 19 39  1  0
 19 40  1  0
 20 41  1  0
 21 42  1  0
M  END
$$$$
