
     RDKit          3D

 42 46  0  0  0  0  0  0  0  0999 V2000
    1.8876    0.6386   -1.0539 C   0  0  0  0  0  0  0  0  0  0  0  0
    3.2398    0.3831   -0.5009 C   0  0  0  0  0  0  0  0  0  0  0  0
    3.4383   -0.5722    0.5115 C   0  0  0  0  0  0  0  0  0  0  0  0
    4.7156   -0.8013    1.0315 C   0  0  0  0  0  0  0  0  0  0  0  0
    5.8237   -0.0907    0.5417 C   0  0  0  0  0  0  0  0  0  0  0  0
    5.6210    0.8900   -0.4431 C   0  0  0  0  0  0  0  0  0  0  0  0
    4.3441    1.1203   -0.9629 C   0  0  0  0  0  0  0  0  0  0  0  0
    1.6646    1.7077   -1.6848 O   0  0  0  0  0  0  0  0  0  0  0  0
    0.8394   -0.3322   -0.9183 N   0  0  0  0  0  0  0  0  0  0  0  0
   -1.5193   -0.9350   -1.4667 C   0  0  0  0  0  0  0  0  0  0  0  0
   -0.5133    0.0000   -1.1163 N   0  0  0  0  0  0  0  0  0  0  0  0
   -1.1766    1.1330   -0.5721 C   0  0  0  0  0  0  0  0  0  0  0  0
   -2.6711    1.0169   -0.6273 C   0  0  2  0  0  0  0  0  0  0  0  0
   -3.3436    1.0969    0.7800 C   0  0  1  0  0  0  0  0  0  0  0  0
   -4.8726    0.8717    0.5179 C   0  0  1  0  0  0  0  0  0  0  0  0
   -5.1043   -0.5397   -0.0887 C   0  0  1  0  0  0  0  0  0  0  0  0
   -3.7345   -1.2857   -0.2450 C   0  0  1  0  0  0  0  0  0  0  0  0
   -2.9080   -0.4157   -1.2441 C   0  0  2  0  0  0  0  0  0  0  0  0
   -5.6834   -0.1788    1.2825 C   0  0  0  0  0  0  0  0  0  0  0  0
   -2.7897   -0.0547    1.6093 C   0  0  0  0  0  0  0  0  0  0  0  0
   -2.9897   -1.2756    1.0838 C   0  0  0  0  0  0  0  0  0  0  0  0
   -0.5704    2.1080   -0.0537 O   0  0  0  0  0  0  0  0  0  0  0  0
   -1.2614   -2.0802   -1.9240 O   0  0  0  0  0  0  0  0  0  0  0  0
    7.1923   -0.3035    1.1380 C   0  0  0  0  0  0  0  0  0  0  0  0
    7.3569    0.5474    2.2149 F   0  0  0  0  0  0  0  0  0  0  0  0
    7.3397   -1.6106    1.5692 F   0  0  0  0  0  0  0  0  0  0  0  0
    8.1789   -0.0432    0.2026 F   0  0  0  0  0  0  0  0  0  0  0  0
    2.6063   -1.1279    0.9235 H   0  0  0  0  0  0  0  0  0  0  0  0
    4.8355   -1.5304    1.8231 H   0  0  0  0  0  0  0  0  0  0  0  0
    6.4505    1.4810   -0.8106 H   0  0  0  0  0  0  0  0  0  0  0  0
    4.2223    1.8746   -1.7305 H   0  0  0  0  0  0  0  0  0  0  0  0
    1.0981   -1.3391   -0.8171 H   0  0  0  0  0  0  0  0  0  0  0  0
   -3.0754    1.8053   -1.3000 H   0  0  0  0  0  0  0  0  0  0  0  0
   -3.1617    2.0761    1.2712 H   0  0  0  0  0  0  0  0  0  0  0  0
   -5.4444    1.6590   -0.0189 H   0  0  0  0  0  0  0  0  0  0  0  0
   -5.8016   -0.5162   -0.9537 H   0  0  0  0  0  0  0  0  0  0  0  0
   -3.8825   -2.3202   -0.6207 H   0  0  0  0  0  0  0  0  0  0  0  0
   -3.4317   -0.3387   -2.2226 H   0  0  0  0  0  0  0  0  0  0  0  0
   -6.7771    0.0092    1.2626 H   0  0  0  0  0  0  0  0  0  0  0  0
   -5.2188   -0.6396    2.1765 H   0  0  0  0  0  0  0  0  0  0  0  0
   -2.2755    0.0938    2.5529 H   0  0  0  0  0  0  0  0  0  0  0  0
   -2.6483   -2.1813    1.5738 H   0  0  0  0  0  0  0  0  0  0  0  0
  4  5  2  0
  5  6  1  0
  6  7  2  0
  2  7  1  0
  1  8  2  0
  1  9  1  0
 10 11  1  0
 11 12  1  0
 13 12  1  0
 14 13  1  0
 14 15  1  0
 16 15  1  0
 17 16  1  0
 17 18  1  0
 18 10  1  0
 18 13  1  0
 15 19  1  0
 16 19  1  0
 20 21  2  0
 14 20  1  0
 17 21  1  0
 12 22  2  0
 10 23  2  0
  9 11  1  0
  5 24  1  0
  1  2  1  0
 24 25  1  0
  2  3  2  0
 24 26  1  0
  3  4  1  0
 24 27  1  0
  3 28  1  0
  4 29  1  0
  6 30  1  0
  7 31  1  0
  9 32  1  0
 13 33  1  6
 14 34  1  1
 15 35  1  6
 16 36  1  6
 17 37  1  6
 18 38  1  6
 19 39  1  0
 19 40  1  0
 20 41  1  0
 21 42  1  0
M  END
$$$$
