
     RDKit          3D

 42 46  0  0  0  0  0  0  0  0999 V2000
    1.8211   -0.3528   -0.0561 C   0  0  0  0  0  0  0  0  0  0  0  0
    3.2583   -0.0198    0.0966 C   0  0  0  0  0  0  0  0  0  0  0  0
    4.2137   -1.0453    0.2043 C   0  0  0  0  0  0  0  0  0  0  0  0
    5.5698   -0.7415    0.3541 C   0  0  0  0  0  0  0  0  0  0  0  0
    5.9975    0.5944    0.4253 C   0  0  0  0  0  0  0  0  0  0  0  0
    5.0463    1.6203    0.3014 C   0  0  0  0  0  0  0  0  0  0  0  0
    3.6900    1.3173    0.1505 C   0  0  0  0  0  0  0  0  0  0  0  0
    1.4156   -1.5095    0.2414 O   0  0  0  0  0  0  0  0  0  0  0  0
    0.8911    0.6080   -0.5776 N   0  0  0  0  0  0  0  0  0  0  0  0
   -1.4651    1.0197   -1.3017 C   0  0  0  0  0  0  0  0  0  0  0  0
   -0.4995    0.4491   -0.4354 N   0  0  0  0  0  0  0  0  0  0  0  0
   -1.1796    0.0814    0.7566 C   0  0  0  0  0  0  0  0  0  0  0  0
   -2.6599    0.3061    0.6746 C   0  0  2  0  0  0  0  0  0  0  0  0
   -3.4841   -1.0166    0.7640 C   0  0  1  0  0  0  0  0  0  0  0  0
   -4.9787   -0.5809    0.5793 C   0  0  1  0  0  0  0  0  0  0  0  0
   -5.1742    0.0612   -0.8220 C   0  0  1  0  0  0  0  0  0  0  0  0
   -3.8145    0.0668   -1.6023 C   0  0  1  0  0  0  0  0  0  0  0  0
   -2.8575    0.9577   -0.7488 C   0  0  2  0  0  0  0  0  0  0  0  0
   -5.8969   -1.2383   -0.4552 C   0  0  0  0  0  0  0  0  0  0  0  0
   -3.0570   -1.8936   -0.4062 C   0  0  0  0  0  0  0  0  0  0  0  0
   -3.2266   -1.3386   -1.6187 C   0  0  0  0  0  0  0  0  0  0  0  0
   -0.5908   -0.3202    1.7951 O   0  0  0  0  0  0  0  0  0  0  0  0
   -1.1715    1.5342   -2.4134 O   0  0  0  0  0  0  0  0  0  0  0  0
    7.4653    0.9222    0.5375 C   0  0  0  0  0  0  0  0  0  0  0  0
    7.6485    2.1253    1.1971 F   0  0  0  0  0  0  0  0  0  0  0  0
    8.0085    1.0163   -0.7301 F   0  0  0  0  0  0  0  0  0  0  0  0
    8.1341   -0.0634    1.2427 F   0  0  0  0  0  0  0  0  0  0  0  0
    3.9147   -2.0852    0.1580 H   0  0  0  0  0  0  0  0  0  0  0  0
    6.2848   -1.5526    0.4120 H   0  0  0  0  0  0  0  0  0  0  0  0
    5.3511    2.6592    0.3242 H   0  0  0  0  0  0  0  0  0  0  0  0
    2.9827    2.1340    0.0913 H   0  0  0  0  0  0  0  0  0  0  0  0
    1.2468    1.3564   -1.2135 H   0  0  0  0  0  0  0  0  0  0  0  0
   -2.9688    1.0152    1.4744 H   0  0  0  0  0  0  0  0  0  0  0  0
   -3.3341   -1.5332    1.7355 H   0  0  0  0  0  0  0  0  0  0  0  0
   -5.4661    0.0102    1.3842 H   0  0  0  0  0  0  0  0  0  0  0  0
   -5.7673    0.9998   -0.7753 H   0  0  0  0  0  0  0  0  0  0  0  0
   -3.9441    0.4656   -2.6306 H   0  0  0  0  0  0  0  0  0  0  0  0
   -3.2621    1.9897   -0.6543 H   0  0  0  0  0  0  0  0  0  0  0  0
   -5.5489   -2.1754   -0.9329 H   0  0  0  0  0  0  0  0  0  0  0  0
   -6.9763   -1.0957   -0.2392 H   0  0  0  0  0  0  0  0  0  0  0  0
   -2.6500   -2.8908   -0.2762 H   0  0  0  0  0  0  0  0  0  0  0  0
   -2.9662   -1.8567   -2.5356 H   0  0  0  0  0  0  0  0  0  0  0  0
  4  5  2  0
  5  6  1  0
  6  7  2  0
  2  7  1  0
  1  8  2  0
  1  9  1  0
 10 11  1  0
 11 12  1  0
 13 12  1  0
 14 13  1  0
 14 15  1  0
 16 15  1  0
 17 16  1  0
 17 18  1  0
 18 10  1  0
 18 13  1  0
 15 19  1  0
 16 19  1  0
 20 21  2  0
 14 20  1  0
 17 21  1  0
 12 22  2  0
 10 23  2  0
  9 11  1  0
  5 24  1  0
  1  2  1  0
 24 25  1  0
  2  3  2  0
 24 26  1  0
  3  4  1  0
 24 27  1  0
  3 28  1  0
  4 29  1  0
  6 30  1  0
  7 31  1  0
  9 32  1  0
 13 33  1  1
 14 34  1  1
 15 35  1  1
 16 36  1  1
 17 37  1  6
 18 38  1  1
 19 39  1  0
 19 40  1  0
 20 41  1  0
 21 42  1  0
M  END
$$$$
