
     RDKit          3D

 42 46  0  0  0  0  0  0  0  0999 V2000
   -1.7676    0.2827   -0.5248 C   0  0  0  0  0  0  0  0  0  0  0  0
   -3.2268    0.4286   -0.3028 C   0  0  0  0  0  0  0  0  0  0  0  0
   -3.8009    0.1431    0.9486 C   0  0  0  0  0  0  0  0  0  0  0  0
   -5.1766    0.2903    1.1492 C   0  0  0  0  0  0  0  0  0  0  0  0
   -6.0044    0.7484    0.1111 C   0  0  0  0  0  0  0  0  0  0  0  0
   -5.4349    1.0172   -1.1443 C   0  0  0  0  0  0  0  0  0  0  0  0
   -4.0594    0.8713   -1.3454 C   0  0  0  0  0  0  0  0  0  0  0  0
   -1.2275    0.8581   -1.5087 O   0  0  0  0  0  0  0  0  0  0  0  0
   -0.9671   -0.5381    0.3387 N   0  0  0  0  0  0  0  0  0  0  0  0
    1.3039   -1.4932    0.7584 C   0  0  0  0  0  0  0  0  0  0  0  0
    0.4365   -0.4454    0.3604 N   0  0  0  0  0  0  0  0  0  0  0  0
    1.1927    0.7566    0.4055 C   0  0  0  0  0  0  0  0  0  0  0  0
    2.6357    0.5239    0.7403 C   0  0  2  0  0  0  0  0  0  0  0  0
    3.6029    0.9185   -0.4198 C   0  0  1  0  0  0  0  0  0  0  0  0
    5.0334    0.5289    0.0897 C   0  0  1  0  0  0  0  0  0  0  0  0
    5.1099   -1.0038    0.3332 C   0  0  1  0  0  0  0  0  0  0  0  0
    3.7324   -1.6693   -0.0092 C   0  0  1  0  0  0  0  0  0  0  0  0
    2.7124   -1.0326    0.9870 C   0  0  2  0  0  0  0  0  0  0  0  0
    5.9831   -0.3428   -0.7373 C   0  0  0  0  0  0  0  0  0  0  0  0
    3.2357    0.0608   -1.6240 C   0  0  0  0  0  0  0  0  0  0  0  0
    3.3024   -1.2652   -1.4138 C   0  0  0  0  0  0  0  0  0  0  0  0
    0.6869    1.9001    0.2531 O   0  0  0  0  0  0  0  0  0  0  0  0
    0.9182   -2.6823    0.9133 O   0  0  0  0  0  0  0  0  0  0  0  0
   -7.4947    0.8587    0.3139 C   0  0  0  0  0  0  0  0  0  0  0  0
   -7.7870    1.1759    1.6292 F   0  0  0  0  0  0  0  0  0  0  0  0
   -8.0872   -0.3500   -0.0002 F   0  0  0  0  0  0  0  0  0  0  0  0
   -8.0269    1.8462   -0.4971 F   0  0  0  0  0  0  0  0  0  0  0  0
   -3.1902   -0.1806    1.7810 H   0  0  0  0  0  0  0  0  0  0  0  0
   -5.5929    0.0483    2.1191 H   0  0  0  0  0  0  0  0  0  0  0  0
   -6.0539    1.3386   -1.9725 H   0  0  0  0  0  0  0  0  0  0  0  0
   -3.6495    1.0914   -2.3234 H   0  0  0  0  0  0  0  0  0  0  0  0
   -1.4241   -1.3303    0.8432 H   0  0  0  0  0  0  0  0  0  0  0  0
    2.8914    1.0791    1.6699 H   0  0  0  0  0  0  0  0  0  0  0  0
    3.5434    2.0015   -0.6582 H   0  0  0  0  0  0  0  0  0  0  0  0
    5.4796    1.1100    0.9252 H   0  0  0  0  0  0  0  0  0  0  0  0
    5.5974   -1.2519    1.3005 H   0  0  0  0  0  0  0  0  0  0  0  0
    3.7827   -2.7734    0.0990 H   0  0  0  0  0  0  0  0  0  0  0  0
    3.0040   -1.2485    2.0387 H   0  0  0  0  0  0  0  0  0  0  0  0
    7.0469   -0.2419   -0.4369 H   0  0  0  0  0  0  0  0  0  0  0  0
    5.7245   -0.5242   -1.7992 H   0  0  0  0  0  0  0  0  0  0  0  0
    2.9455    0.4829   -2.5803 H   0  0  0  0  0  0  0  0  0  0  0  0
    3.0700   -1.9880   -2.1887 H   0  0  0  0  0  0  0  0  0  0  0  0
  4  5  2  0
  5  6  1  0
  6  7  2  0
  2  7  1  0
  1  8  2  0
  1  9  1  0
 10 11  1  0
 11 12  1  0
 13 12  1  0
 14 13  1  0
 14 15  1  0
 16 15  1  0
 17 16  1  0
 17 18  1  0
 18 10  1  0
 18 13  1  0
 15 19  1  0
 16 19  1  0
 20 21  2  0
 14 20  1  0
 17 21  1  0
 12 22  2  0
 10 23  2  0
  9 11  1  0
  5 24  1  0
  1  2  1  0
 24 25  1  0
  2  3  2  0
 24 26  1  0
  3  4  1  0
 24 27  1  0
  3 28  1  0
  4 29  1  0
  6 30  1  0
  7 31  1  0
  9 32  1  0
 13 33  1  1
 14 34  1  6
 15 35  1  1
 16 36  1  1
 17 37  1  6
 18 38  1  1
 19 39  1  0
 19 40  1  0
 20 41  1  0
 21 42  1  0
M  END
$$$$
