
     RDKit          3D

 28 31  0  0  0  0  0  0  0  0999 V2000
    0.0000    0.0000    0.0000 O   0  0  0  0  0  0  0  0  0  0  0  0
    0.8968   -0.2447    0.2230 C   0  0  0  0  0  0  0  0  0  0  0  0
    2.3371    0.0336    0.2395 C   0  0  0  0  0  0  0  0  0  0  0  0
    3.2140   -0.8412    0.8473 C   0  0  0  0  0  0  0  0  0  0  0  0
    4.5895   -0.5869    0.8696 C   0  0  0  0  0  0  0  0  0  0  0  0
    5.0896    0.5543    0.2772 C   0  0  0  0  0  0  0  0  0  0  0  0
    4.2184    1.4521   -0.3430 C   0  0  0  0  0  0  0  0  0  0  0  0
    2.8497    1.1689   -0.3479 C   0  0  0  0  0  0  0  0  0  0  0  0
    0.4921   -1.3000    0.7776 O   0  0  0  0  0  0  0  0  0  0  0  0
    0.0323    0.6866   -0.4156 N   0  0  0  0  0  0  0  0  0  0  0  0
   -1.9927   -0.3429   -1.4388 C   0  0  0  0  0  0  0  0  0  0  0  0
   -1.3344    0.4020   -0.4196 N   0  0  0  0  0  0  0  0  0  0  0  0
   -2.3167    0.7683    0.5329 C   0  0  0  0  0  0  0  0  0  0  0  0
   -3.6133    0.8825   -0.1854 C   0  0  2  0  0  0  0  0  0  0  0  0
   -4.7291    0.4024    0.7406 C   0  0  1  0  0  0  0  0  0  0  0  0
   -5.9438   -0.0185   -0.0962 C   0  0  1  0  0  0  0  0  0  0  0  0
   -5.6134   -1.2283   -0.9496 C   0  0  1  0  0  0  0  0  0  0  0  0
   -4.1254   -1.4696   -0.8436 C   0  0  1  0  0  0  0  0  0  0  0  0
   -3.4570   -0.1744   -1.2582 C   0  0  2  0  0  0  0  0  0  0  0  0
   -6.5080   -1.4223    0.2102 C   0  0  0  0  0  0  0  0  0  0  0  0
   -4.1925   -0.8060    1.4335 C   0  0  0  0  0  0  0  0  0  0  0  0
   -3.8166   -1.7864    0.6008 C   0  0  0  0  0  0  0  0  0  0  0  0
   -2.0747    0.9526    1.7674 O   0  0  0  0  0  0  0  0  0  0  0  0
   -1.5029   -1.0434   -2.3628 O   0  0  0  0  0  0  0  0  0  0  0  0
    6.5368    0.8948    0.2588 C   0  0  0  0  0  0  0  0  0  0  0  0
    6.9533    0.9765   -1.0685 F   0  0  0  0  0  0  0  0  0  0  0  0
    6.7430    2.1386    0.8194 F   0  0  0  0  0  0  0  0  0  0  0  0
    7.2680   -0.0484    0.9340 F   0  0  0  0  0  0  0  0  0  0  0  0
  5  6  2  0
  6  7  1  0
  7  8  2  0
  3  8  1  0
  2  9  2  0
  2 10  1  0
 11 12  1  0
 12 13  1  0
 14 13  1  1
 15 14  1  0
 15 16  1  0
 17 16  1  0
 18 17  1  0
 18 19  1  0
 19 11  1  1
 19 14  1  0
 16 20  1  1
 17 20  1  1
 21 22  2  0
 15 21  1  6
 18 22  1  1
 13 23  2  0
 11 24  2  0
 10 12  1  0
  6 25  1  0
  2  3  1  0
 25 26  1  0
  3  4  2  0
 25 27  1  0
  4  5  1  0
 25 28  1  0
M  END
