
     RDKit          3D

 42 46  0  0  0  0  0  0  0  0999 V2000
    1.9608   -1.1562    0.1040 C   0  0  0  0  0  0  0  0  0  0  0  0
    3.2734   -0.4704    0.0254 C   0  0  0  0  0  0  0  0  0  0  0  0
    3.3836    0.8215   -0.5188 C   0  0  0  0  0  0  0  0  0  0  0  0
    4.6244    1.4622   -0.5819 C   0  0  0  0  0  0  0  0  0  0  0  0
    5.7776    0.8359   -0.0812 C   0  0  0  0  0  0  0  0  0  0  0  0
    5.6719   -0.4614    0.4466 C   0  0  0  0  0  0  0  0  0  0  0  0
    4.4314   -1.1023    0.5110 C   0  0  0  0  0  0  0  0  0  0  0  0
    1.8155   -2.1341    0.8873 O   0  0  0  0  0  0  0  0  0  0  0  0
    0.8645   -0.7503   -0.7283 N   0  0  0  0  0  0  0  0  0  0  0  0
   -1.0956   -1.0554    0.8195 C   0  0  0  0  0  0  0  0  0  0  0  0
   -0.4616   -1.1293   -0.4503 N   0  0  0  0  0  0  0  0  0  0  0  0
   -1.4929   -1.1874   -1.4209 C   0  0  0  0  0  0  0  0  0  0  0  0
   -2.8648   -1.2410   -0.8186 C   0  0  2  0  0  0  0  0  0  0  0  0
   -3.7737   -0.0498   -1.2582 C   0  0  1  0  0  0  0  0  0  0  0  0
   -5.1134   -0.2437   -0.4677 C   0  0  1  0  0  0  0  0  0  0  0  0
   -4.8443   -0.1574    1.0600 C   0  0  1  0  0  0  0  0  0  0  0  0
   -3.3196    0.0968    1.3211 C   0  0  1  0  0  0  0  0  0  0  0  0
   -2.5900   -1.1523    0.7323 C   0  0  2  0  0  0  0  0  0  0  0  0
   -5.7354    0.8787    0.3685 C   0  0  0  0  0  0  0  0  0  0  0  0
   -3.0887    1.2318   -0.8014 C   0  0  0  0  0  0  0  0  0  0  0  0
   -2.8563    1.3071    0.5204 C   0  0  0  0  0  0  0  0  0  0  0  0
   -1.2678   -1.1991   -2.6603 O   0  0  0  0  0  0  0  0  0  0  0  0
   -0.4688   -0.8773    1.8976 O   0  0  0  0  0  0  0  0  0  0  0  0
    7.1230    1.5075   -0.1955 C   0  0  0  0  0  0  0  0  0  0  0  0
    6.9905    2.8834   -0.1227 F   0  0  0  0  0  0  0  0  0  0  0  0
    7.9617    1.0995    0.8274 F   0  0  0  0  0  0  0  0  0  0  0  0
    7.6964    1.1738   -1.4082 F   0  0  0  0  0  0  0  0  0  0  0  0
    2.5120    1.3482   -0.8843 H   0  0  0  0  0  0  0  0  0  0  0  0
    4.6812    2.4507   -1.0203 H   0  0  0  0  0  0  0  0  0  0  0  0
    6.5497   -0.9821    0.8082 H   0  0  0  0  0  0  0  0  0  0  0  0
    4.3816   -2.1004    0.9285 H   0  0  0  0  0  0  0  0  0  0  0  0
    1.0724   -0.2897   -1.6425 H   0  0  0  0  0  0  0  0  0  0  0  0
   -3.3406   -2.2129   -1.0767 H   0  0  0  0  0  0  0  0  0  0  0  0
   -3.9523   -0.0473   -2.3543 H   0  0  0  0  0  0  0  0  0  0  0  0
   -5.7699   -1.1007   -0.7311 H   0  0  0  0  0  0  0  0  0  0  0  0
   -5.3550   -0.9677    1.6233 H   0  0  0  0  0  0  0  0  0  0  0  0
   -3.1149    0.2236    2.4052 H   0  0  0  0  0  0  0  0  0  0  0  0
   -2.9275   -2.0805    1.2442 H   0  0  0  0  0  0  0  0  0  0  0  0
   -6.8174    0.7313    0.5674 H   0  0  0  0  0  0  0  0  0  0  0  0
   -5.3324    1.9026    0.2394 H   0  0  0  0  0  0  0  0  0  0  0  0
   -2.8112    2.0267   -1.4855 H   0  0  0  0  0  0  0  0  0  0  0  0
   -2.3781    2.1670    0.9775 H   0  0  0  0  0  0  0  0  0  0  0  0
  4  5  2  0
  5  6  1  0
  6  7  2  0
  2  7  1  0
  1  8  2  0
  1  9  1  0
 10 11  1  0
 11 12  1  0
 13 12  1  0
 14 13  1  0
 14 15  1  0
 16 15  1  0
 17 16  1  0
 17 18  1  0
 18 10  1  0
 18 13  1  0
 15 19  1  0
 16 19  1  0
 20 21  2  0
 14 20  1  0
 17 21  1  0
 12 22  2  0
 10 23  2  0
  9 11  1  0
  5 24  1  0
  1  2  1  0
 24 25  1  0
  2  3  2  0
 24 26  1  0
  3  4  1  0
 24 27  1  0
  3 28  1  0
  4 29  1  0
  6 30  1  0
  7 31  1  0
  9 32  1  0
 13 33  1  1
 14 34  1  6
 15 35  1  1
 16 36  1  1
 17 37  1  1
 18 38  1  1
 19 39  1  0
 19 40  1  0
 20 41  1  0
 21 42  1  0
M  END
$$$$
