
     RDKit          3D

 25 26  0  0  0  0  0  0  0  0999 V2000
   45.7422    2.8208    8.5456 K   0  0  0  0  0 15  0  0  0  0  0  0
   46.2228    3.3926    7.9523 N   0  0  0  0  0  0  0  0  0  0  0  0
   44.6260    3.7728    9.7559 C   0  0  0  0  0  0  0  0  0  0  0  0
   45.4903    4.3347    8.6908 C   0  0  0  0  0  0  0  0  0  0  0  0
   46.0404    2.0280    8.1600 C   0  0  0  0  0  0  0  0  0  0  0  0
   45.2321    1.5397    9.0497 N   0  0  0  0  0  0  0  0  0  0  0  0
   43.8303    4.6937   10.7450 C   0  0  0  0  0  0  0  0  0  0  0  0
   44.5559    2.4363    9.8319 C   0  0  0  0  0  0  0  0  0  0  0  0
   42.7211    4.2687   11.4042 N   0  0  0  0  0  0  0  0  0  0  0  0
   42.3848    5.2998   12.2117 N   0  0  0  0  0  0  0  0  0  0  0  0
   43.2743    6.3011   12.0490 N   0  0  0  0  0  0  0  0  0  0  0  0
   44.2003    5.9352   11.1314 N   0  0  0  0  0  0  0  0  0  0  0  0
   46.8344    1.0885    7.2908 C   0  0  0  0  0  0  0  0  0  0  0  0
   47.0982    3.8527    6.9732 C   0  0  0  0  0  0  0  0  0  0  0  0
   45.5382    5.5392    8.4380 O   0  0  0  0  0  0  0  0  0  0  0  0
   47.8051    3.0190    6.2036 C   0  0  0  0  0  0  0  0  0  0  0  0
   47.6671    1.5993    6.3706 C   0  0  0  0  0  0  0  0  0  0  0  0
   46.6468   -0.3795    7.5095 C   0  0  0  0  0  0  0  0  0  0  0  0
   43.9238    1.9865   10.5967 H   0  0  0  0  0  0  0  0  0  0  0  0
   47.1859    4.9306    6.8590 H   0  0  0  0  0  0  0  0  0  0  0  0
   48.4834    3.3968    5.4463 H   0  0  0  0  0  0  0  0  0  0  0  0
   48.2573    0.9565    5.7255 H   0  0  0  0  0  0  0  0  0  0  0  0
   46.9210   -0.6552    8.5330 H   0  0  0  0  0  0  0  0  0  0  0  0
   45.6041   -0.6652    7.3358 H   0  0  0  0  0  0  0  0  0  0  0  0
   47.2684   -0.9732    6.8307 H   0  0  0  0  0  0  0  0  0  0  0  0
  3  4  1  0
  4  2  1  0
  5  2  1  0
  6  5  2  0
  7  3  1  0
  8  6  1  0
  9  7  1  0
 10  9  1  0
 11 12  1  0
 12  7  2  0
 13  5  1  0
 14  2  1  0
 15  4  2  0
 16 14  2  0
 17 16  1  0
 18 13  1  0
 17 13  2  0
  8  3  2  0
 10 11  2  0
  8 19  1  0
 14 20  1  0
 16 21  1  0
 17 22  1  0
 18 23  1  0
 18 24  1  0
 18 25  1  0
M  CHG  2   1   1   9  -1
M  END
> <Uni-Dock RESULT> 
ENERGY=   -6.047  LOWER_BOUND=    0.000  UPPER_BOUND=    0.000
INTER + INTRA:          -6.047
INTER:                  -6.047
INTRA:                   0.000
UNBOUND:                 0.000

$$$$

     RDKit          3D

 25 26  0  0  0  0  0  0  0  0999 V2000
   44.7911    7.2137   12.1763 K   0  0  0  0  0 15  0  0  0  0  0  0
   44.0076    6.8215   11.7991 N   0  0  0  0  0  0  0  0  0  0  0  0
   44.9291    9.0791   11.8327 C   0  0  0  0  0  0  0  0  0  0  0  0
   43.8406    8.1620   11.4189 C   0  0  0  0  0  0  0  0  0  0  0  0
   45.0775    6.4379   12.6033 C   0  0  0  0  0  0  0  0  0  0  0  0
   45.9929    7.2584   13.0185 N   0  0  0  0  0  0  0  0  0  0  0  0
   44.9533   10.5838   11.3915 C   0  0  0  0  0  0  0  0  0  0  0  0
   45.8932    8.5593   12.6056 C   0  0  0  0  0  0  0  0  0  0  0  0
   45.6345   11.5351   12.0818 N   0  0  0  0  0  0  0  0  0  0  0  0
   45.4880   12.6624   11.3498 N   0  0  0  0  0  0  0  0  0  0  0  0
   44.7551   12.3875   10.2509 N   0  0  0  0  0  0  0  0  0  0  0  0
   44.4132   11.0773   10.2547 N   0  0  0  0  0  0  0  0  0  0  0  0
   45.1529    4.9871   13.0008 C   0  0  0  0  0  0  0  0  0  0  0  0
   43.0521    5.8936   11.3957 C   0  0  0  0  0  0  0  0  0  0  0  0
   42.8370    8.5476   10.8180 O   0  0  0  0  0  0  0  0  0  0  0  0
   43.1204    4.6054   11.7461 C   0  0  0  0  0  0  0  0  0  0  0  0
   44.2019    4.1436   12.5704 C   0  0  0  0  0  0  0  0  0  0  0  0
   46.3010    4.5658   13.8623 C   0  0  0  0  0  0  0  0  0  0  0  0
   46.7056    9.2052   12.9370 H   0  0  0  0  0  0  0  0  0  0  0  0
   42.2386    6.2631   10.7757 H   0  0  0  0  0  0  0  0  0  0  0  0
   42.3663    3.8969   11.4209 H   0  0  0  0  0  0  0  0  0  0  0  0
   44.2206    3.0910   12.8337 H   0  0  0  0  0  0  0  0  0  0  0  0
   47.2533    4.7619   13.3589 H   0  0  0  0  0  0  0  0  0  0  0  0
   46.2883    5.1073   14.8139 H   0  0  0  0  0  0  0  0  0  0  0  0
   46.2642    3.4955   14.0920 H   0  0  0  0  0  0  0  0  0  0  0  0
  3  4  1  0
  4  2  1  0
  5  2  1  0
  6  5  2  0
  7  3  1  0
  8  6  1  0
  9  7  1  0
 10  9  1  0
 11 12  1  0
 12  7  2  0
 13  5  1  0
 14  2  1  0
 15  4  2  0
 16 14  2  0
 17 16  1  0
 18 13  1  0
 17 13  2  0
  8  3  2  0
 10 11  2  0
  8 19  1  0
 14 20  1  0
 16 21  1  0
 17 22  1  0
 18 23  1  0
 18 24  1  0
 18 25  1  0
M  CHG  2   1   1   9  -1
M  END
> <Uni-Dock RESULT> 
ENERGY=   -3.799  LOWER_BOUND=    4.987  UPPER_BOUND=    6.585
INTER + INTRA:          -3.799
INTER:                  -3.799
INTRA:                   0.000
UNBOUND:                 0.000

$$$$

     RDKit          3D

 25 26  0  0  0  0  0  0  0  0999 V2000
   45.7010    5.5955   12.8941 K   0  0  0  0  0 15  0  0  0  0  0  0
   45.1945    6.2930   12.4856 N   0  0  0  0  0  0  0  0  0  0  0  0
   47.2920    6.2209   13.7274 C   0  0  0  0  0  0  0  0  0  0  0  0
   46.2655    7.0243   13.0218 C   0  0  0  0  0  0  0  0  0  0  0  0
   45.0811    4.9245   12.7160 C   0  0  0  0  0  0  0  0  0  0  0  0
   45.9493    4.2367   13.3915 N   0  0  0  0  0  0  0  0  0  0  0  0
   48.6074    6.8679   14.2847 C   0  0  0  0  0  0  0  0  0  0  0  0
   47.0404    4.9117   13.8678 C   0  0  0  0  0  0  0  0  0  0  0  0
   49.3265    6.3061   15.2912 N   0  0  0  0  0  0  0  0  0  0  0  0
   50.4144    7.0985   15.4204 N   0  0  0  0  0  0  0  0  0  0  0  0
   50.3521    8.0920   14.5098 N   0  0  0  0  0  0  0  0  0  0  0  0
   49.2211    7.9602   13.7771 N   0  0  0  0  0  0  0  0  0  0  0  0
   43.8754    4.2285   12.1412 C   0  0  0  0  0  0  0  0  0  0  0  0
   44.2220    6.9756   11.7609 C   0  0  0  0  0  0  0  0  0  0  0  0
   46.3198    8.2521   12.9414 O   0  0  0  0  0  0  0  0  0  0  0  0
   43.1533    6.3575   11.2483 C   0  0  0  0  0  0  0  0  0  0  0  0
   42.9794    4.9456   11.4455 C   0  0  0  0  0  0  0  0  0  0  0  0
   43.7473    2.7575   12.3814 C   0  0  0  0  0  0  0  0  0  0  0  0
   47.7679    4.2902   14.3887 H   0  0  0  0  0  0  0  0  0  0  0  0
   44.3691    8.0446   11.6259 H   0  0  0  0  0  0  0  0  0  0  0  0
   42.4065    6.9066   10.6853 H   0  0  0  0  0  0  0  0  0  0  0  0
   42.0981    4.4817   11.0145 H   0  0  0  0  0  0  0  0  0  0  0  0
   44.6020    2.2213   11.9562 H   0  0  0  0  0  0  0  0  0  0  0  0
   43.6974    2.5448   13.4544 H   0  0  0  0  0  0  0  0  0  0  0  0
   42.8407    2.3491   11.9222 H   0  0  0  0  0  0  0  0  0  0  0  0
  3  4  1  0
  4  2  1  0
  5  2  1  0
  6  5  2  0
  7  3  1  0
  8  6  1  0
  9  7  1  0
 10  9  1  0
 11 12  1  0
 12  7  2  0
 13  5  1  0
 14  2  1  0
 15  4  2  0
 16 14  2  0
 17 16  1  0
 18 13  1  0
 17 13  2  0
  8  3  2  0
 10 11  2  0
  8 19  1  0
 14 20  1  0
 16 21  1  0
 17 22  1  0
 18 23  1  0
 18 24  1  0
 18 25  1  0
M  CHG  2   1   1   9  -1
M  END
> <Uni-Dock RESULT> 
ENERGY=   -3.576  LOWER_BOUND=    4.796  UPPER_BOUND=    6.431
INTER + INTRA:          -3.576
INTER:                  -3.576
INTRA:                   0.000
UNBOUND:                 0.000

$$$$

     RDKit          3D

 25 26  0  0  0  0  0  0  0  0999 V2000
   45.7263    6.6365   12.8927 K   0  0  0  0  0 15  0  0  0  0  0  0
   46.1741    5.8143   13.0755 N   0  0  0  0  0  0  0  0  0  0  0  0
   46.8317    8.1612   13.1581 C   0  0  0  0  0  0  0  0  0  0  0  0
   47.2024    6.7358   13.3260 C   0  0  0  0  0  0  0  0  0  0  0  0
   44.9378    6.2402   12.5971 C   0  0  0  0  0  0  0  0  0  0  0  0
   44.6399    7.4856   12.3884 N   0  0  0  0  0  0  0  0  0  0  0  0
   47.8286    9.3202   13.5079 C   0  0  0  0  0  0  0  0  0  0  0  0
   45.6009    8.4121   12.6900 C   0  0  0  0  0  0  0  0  0  0  0  0
   47.7223   10.5615   12.9662 N   0  0  0  0  0  0  0  0  0  0  0  0
   48.6898   11.2854   13.5730 N   0  0  0  0  0  0  0  0  0  0  0  0
   49.3416   10.5036   14.4585 N   0  0  0  0  0  0  0  0  0  0  0  0
   48.8078    9.2594   14.4380 N   0  0  0  0  0  0  0  0  0  0  0  0
   43.9083    5.1783   12.3122 C   0  0  0  0  0  0  0  0  0  0  0  0
   46.4347    4.4609   13.2682 C   0  0  0  0  0  0  0  0  0  0  0  0
   48.3412    6.3745   13.6252 O   0  0  0  0  0  0  0  0  0  0  0  0
   45.5201    3.5186   13.0181 C   0  0  0  0  0  0  0  0  0  0  0  0
   44.2229    3.8916   12.5277 C   0  0  0  0  0  0  0  0  0  0  0  0
   42.5761    5.6275   11.8009 C   0  0  0  0  0  0  0  0  0  0  0  0
   45.2955    9.4478   12.5451 H   0  0  0  0  0  0  0  0  0  0  0  0
   47.4238    4.1980   13.6360 H   0  0  0  0  0  0  0  0  0  0  0  0
   45.7418    2.4686   13.1756 H   0  0  0  0  0  0  0  0  0  0  0  0
   43.5093    3.0968   12.3359 H   0  0  0  0  0  0  0  0  0  0  0  0
   42.0907    6.2935   12.5218 H   0  0  0  0  0  0  0  0  0  0  0  0
   42.6872    6.1594   10.8503 H   0  0  0  0  0  0  0  0  0  0  0  0
   41.9019    4.7818   11.6282 H   0  0  0  0  0  0  0  0  0  0  0  0
  3  4  1  0
  4  2  1  0
  5  2  1  0
  6  5  2  0
  7  3  1  0
  8  6  1  0
  9  7  1  0
 10  9  1  0
 11 12  1  0
 12  7  2  0
 13  5  1  0
 14  2  1  0
 15  4  2  0
 16 14  2  0
 17 16  1  0
 18 13  1  0
 17 13  2  0
  8  3  2  0
 10 11  2  0
  8 19  1  0
 14 20  1  0
 16 21  1  0
 17 22  1  0
 18 23  1  0
 18 24  1  0
 18 25  1  0
M  CHG  2   1   1   9  -1
M  END
> <Uni-Dock RESULT> 
ENERGY=   -3.562  LOWER_BOUND=    5.065  UPPER_BOUND=    6.909
INTER + INTRA:          -3.562
INTER:                  -3.562
INTRA:                   0.000
UNBOUND:                 0.000

$$$$

     RDKit          3D

 25 26  0  0  0  0  0  0  0  0999 V2000
   47.1847    7.8617   12.3882 K   0  0  0  0  0 15  0  0  0  0  0  0
   48.0476    7.4838   12.5390 N   0  0  0  0  0  0  0  0  0  0  0  0
   45.7694    6.6255   12.6808 C   0  0  0  0  0  0  0  0  0  0  0  0
   47.2238    6.3885   12.8409 C   0  0  0  0  0  0  0  0  0  0  0  0
   47.4966    8.7227   12.2221 C   0  0  0  0  0  0  0  0  0  0  0  0
   46.2200    8.9419   12.1480 N   0  0  0  0  0  0  0  0  0  0  0  0
   44.7200    5.4750   12.8671 C   0  0  0  0  0  0  0  0  0  0  0  0
   45.3934    7.8740   12.3698 C   0  0  0  0  0  0  0  0  0  0  0  0
   43.4195    5.7175   13.1758 N   0  0  0  0  0  0  0  0  0  0  0  0
   42.8300    4.5008   13.1614 N   0  0  0  0  0  0  0  0  0  0  0  0
   43.7475    3.5654   12.8398 N   0  0  0  0  0  0  0  0  0  0  0  0
   44.9472    4.1614   12.6427 N   0  0  0  0  0  0  0  0  0  0  0  0
   48.4554    9.8537   11.9573 C   0  0  0  0  0  0  0  0  0  0  0  0
   49.4272    7.3165   12.6128 C   0  0  0  0  0  0  0  0  0  0  0  0
   47.6840    5.3211   13.2480 O   0  0  0  0  0  0  0  0  0  0  0  0
   50.2783    8.3195   12.3751 C   0  0  0  0  0  0  0  0  0  0  0  0
   49.7747    9.6215   12.0378 C   0  0  0  0  0  0  0  0  0  0  0  0
   47.8718   11.1874   11.6131 C   0  0  0  0  0  0  0  0  0  0  0  0
   44.3317    8.0887   12.2525 H   0  0  0  0  0  0  0  0  0  0  0  0
   49.7891    6.3247   12.8736 H   0  0  0  0  0  0  0  0  0  0  0  0
   51.3506    8.1692   12.4365 H   0  0  0  0  0  0  0  0  0  0  0  0
   50.4982   10.4091   11.8534 H   0  0  0  0  0  0  0  0  0  0  0  0
   47.2681   11.1208   10.7020 H   0  0  0  0  0  0  0  0  0  0  0  0
   47.2391   11.5536   12.4282 H   0  0  0  0  0  0  0  0  0  0  0  0
   48.6504   11.9377   11.4381 H   0  0  0  0  0  0  0  0  0  0  0  0
  3  4  1  0
  4  2  1  0
  5  2  1  0
  6  5  2  0
  7  3  1  0
  8  6  1  0
  9  7  1  0
 10  9  1  0
 11 12  1  0
 12  7  2  0
 13  5  1  0
 14  2  1  0
 15  4  2  0
 16 14  2  0
 17 16  1  0
 18 13  1  0
 17 13  2  0
  8  3  2  0
 10 11  2  0
  8 19  1  0
 14 20  1  0
 16 21  1  0
 17 22  1  0
 18 23  1  0
 18 24  1  0
 18 25  1  0
M  CHG  2   1   1   9  -1
M  END
> <Uni-Dock RESULT> 
ENERGY=   -3.555  LOWER_BOUND=    5.274  UPPER_BOUND=    6.760
INTER + INTRA:          -3.555
INTER:                  -3.555
INTRA:                   0.000
UNBOUND:                 0.000

$$$$

     RDKit          3D

 25 26  0  0  0  0  0  0  0  0999 V2000
   45.0509    9.2109   11.9270 K   0  0  0  0  0 15  0  0  0  0  0  0
   44.2558    9.1344   11.4055 N   0  0  0  0  0  0  0  0  0  0  0  0
   45.7154    7.5311   12.5217 C   0  0  0  0  0  0  0  0  0  0  0  0
   44.5220    7.7841   11.6798 C   0  0  0  0  0  0  0  0  0  0  0  0
   45.1355   10.1314   11.8189 C   0  0  0  0  0  0  0  0  0  0  0  0
   46.2150    9.8981   12.4997 N   0  0  0  0  0  0  0  0  0  0  0  0
   46.0876    6.0895   13.0144 C   0  0  0  0  0  0  0  0  0  0  0  0
   46.4638    8.5964   12.8411 C   0  0  0  0  0  0  0  0  0  0  0  0
   47.3512    5.7464   13.3763 N   0  0  0  0  0  0  0  0  0  0  0  0
   47.2486    4.4724   13.8175 N   0  0  0  0  0  0  0  0  0  0  0  0
   45.9620    4.0748   13.7346 N   0  0  0  0  0  0  0  0  0  0  0  0
   45.2106    5.0849   13.2361 N   0  0  0  0  0  0  0  0  0  0  0  0
   44.7942   11.5489   11.4411 C   0  0  0  0  0  0  0  0  0  0  0  0
   43.1188    9.4498   10.6676 C   0  0  0  0  0  0  0  0  0  0  0  0
   43.8296    6.8773   11.2158 O   0  0  0  0  0  0  0  0  0  0  0  0
   42.8143   10.7081   10.3346 C   0  0  0  0  0  0  0  0  0  0  0  0
   43.6775   11.7839   10.7347 C   0  0  0  0  0  0  0  0  0  0  0  0
   45.7324   12.6266   11.8840 C   0  0  0  0  0  0  0  0  0  0  0  0
   47.3540    8.4485   13.4515 H   0  0  0  0  0  0  0  0  0  0  0  0
   42.4799    8.6215   10.3703 H   0  0  0  0  0  0  0  0  0  0  0  0
   41.9228   10.9342    9.7598 H   0  0  0  0  0  0  0  0  0  0  0  0
   43.3957   12.7906   10.4436 H   0  0  0  0  0  0  0  0  0  0  0  0
   45.8107   12.6452   12.9759 H   0  0  0  0  0  0  0  0  0  0  0  0
   46.7302   12.4665   11.4626 H   0  0  0  0  0  0  0  0  0  0  0  0
   45.3937   13.6170   11.5612 H   0  0  0  0  0  0  0  0  0  0  0  0
  3  4  1  0
  4  2  1  0
  5  2  1  0
  6  5  2  0
  7  3  1  0
  8  6  1  0
  9  7  1  0
 10  9  1  0
 11 12  1  0
 12  7  2  0
 13  5  1  0
 14  2  1  0
 15  4  2  0
 16 14  2  0
 17 16  1  0
 18 13  1  0
 17 13  2  0
  8  3  2  0
 10 11  2  0
  8 19  1  0
 14 20  1  0
 16 21  1  0
 17 22  1  0
 18 23  1  0
 18 24  1  0
 18 25  1  0
M  CHG  2   1   1   9  -1
M  END
> <Uni-Dock RESULT> 
ENERGY=   -3.529  LOWER_BOUND=    5.645  UPPER_BOUND=    7.747
INTER + INTRA:          -3.529
INTER:                  -3.529
INTRA:                   0.000
UNBOUND:                 0.000

$$$$

     RDKit          3D

 25 26  0  0  0  0  0  0  0  0999 V2000
   51.9808    2.3583   18.0233 K   0  0  0  0  0 15  0  0  0  0  0  0
   52.4943    2.9919   18.5181 N   0  0  0  0  0  0  0  0  0  0  0  0
   50.2446    2.9935   17.5769 C   0  0  0  0  0  0  0  0  0  0  0  0
   51.3083    3.7143   18.3158 C   0  0  0  0  0  0  0  0  0  0  0  0
   52.6642    1.7304   17.9539 C   0  0  0  0  0  0  0  0  0  0  0  0
   51.7533    1.1305   17.2512 N   0  0  0  0  0  0  0  0  0  0  0  0
   48.8201    3.6145   17.3656 C   0  0  0  0  0  0  0  0  0  0  0  0
   50.5603    1.7829   17.0956 C   0  0  0  0  0  0  0  0  0  0  0  0
   47.9985    3.2271   16.3554 N   0  0  0  0  0  0  0  0  0  0  0  0
   46.8525    3.9144   16.5614 N   0  0  0  0  0  0  0  0  0  0  0  0
   46.9827    4.6756   17.6677 N   0  0  0  0  0  0  0  0  0  0  0  0
   48.2167    4.4950   18.1951 N   0  0  0  0  0  0  0  0  0  0  0  0
   53.9863    1.0469   18.1844 C   0  0  0  0  0  0  0  0  0  0  0  0
   53.5157    3.5859   19.2534 C   0  0  0  0  0  0  0  0  0  0  0  0
   51.1838    4.8797   18.6944 O   0  0  0  0  0  0  0  0  0  0  0  0
   54.6882    2.9782   19.4605 C   0  0  0  0  0  0  0  0  0  0  0  0
   54.9256    1.6732   18.9100 C   0  0  0  0  0  0  0  0  0  0  0  0
   54.1761   -0.3103   17.5842 C   0  0  0  0  0  0  0  0  0  0  0  0
   49.8068    1.2263   16.5394 H   0  0  0  0  0  0  0  0  0  0  0  0
   53.3185    4.5757   19.6585 H   0  0  0  0  0  0  0  0  0  0  0  0
   55.4719    3.4571   20.0374 H   0  0  0  0  0  0  0  0  0  0  0  0
   55.8907    1.2145   19.0997 H   0  0  0  0  0  0  0  0  0  0  0  0
   53.4327   -1.0125   17.9753 H   0  0  0  0  0  0  0  0  0  0  0  0
   54.0797   -0.2669   16.4944 H   0  0  0  0  0  0  0  0  0  0  0  0
   55.1666   -0.7191   17.8111 H   0  0  0  0  0  0  0  0  0  0  0  0
  3  4  1  0
  4  2  1  0
  5  2  1  0
  6  5  2  0
  7  3  1  0
  8  6  1  0
  9  7  1  0
 10  9  1  0
 11 12  1  0
 12  7  2  0
 13  5  1  0
 14  2  1  0
 15  4  2  0
 16 14  2  0
 17 16  1  0
 18 13  1  0
 17 13  2  0
  8  3  2  0
 10 11  2  0
  8 19  1  0
 14 20  1  0
 16 21  1  0
 17 22  1  0
 18 23  1  0
 18 24  1  0
 18 25  1  0
M  CHG  2   1   1   9  -1
M  END
> <Uni-Dock RESULT> 
ENERGY=   -3.478  LOWER_BOUND=   10.746  UPPER_BOUND=   11.081
INTER + INTRA:          -3.478
INTER:                  -3.478
INTRA:                   0.000
UNBOUND:                 0.000

$$$$

     RDKit          3D

 25 26  0  0  0  0  0  0  0  0999 V2000
   47.0414    6.2851   13.9327 K   0  0  0  0  0 15  0  0  0  0  0  0
   46.9751    7.1734   13.5915 N   0  0  0  0  0  0  0  0  0  0  0  0
   45.8088    5.0834   13.1242 C   0  0  0  0  0  0  0  0  0  0  0  0
   45.9965    6.5229   12.8245 C   0  0  0  0  0  0  0  0  0  0  0  0
   47.7708    6.4597   14.4837 C   0  0  0  0  0  0  0  0  0  0  0  0
   47.6466    5.1854   14.6942 N   0  0  0  0  0  0  0  0  0  0  0  0
   44.6799    4.2377   12.4387 C   0  0  0  0  0  0  0  0  0  0  0  0
   46.6536    4.5378   14.0105 C   0  0  0  0  0  0  0  0  0  0  0  0
   44.7486    2.8856   12.3259 N   0  0  0  0  0  0  0  0  0  0  0  0
   43.5696    2.5266   11.7699 N   0  0  0  0  0  0  0  0  0  0  0  0
   42.8170    3.6287   11.5715 N   0  0  0  0  0  0  0  0  0  0  0  0
   43.4979    4.7201   11.9943 N   0  0  0  0  0  0  0  0  0  0  0  0
   48.8267    7.2308   15.2314 C   0  0  0  0  0  0  0  0  0  0  0  0
   47.1661    8.5391   13.4033 C   0  0  0  0  0  0  0  0  0  0  0  0
   45.3701    7.1060   11.9387 O   0  0  0  0  0  0  0  0  0  0  0  0
   48.1014    9.2241   14.0688 C   0  0  0  0  0  0  0  0  0  0  0  0
   48.9521    8.5481   15.0078 C   0  0  0  0  0  0  0  0  0  0  0  0
   49.6840    6.4720   16.1944 C   0  0  0  0  0  0  0  0  0  0  0  0
   46.5522    3.4798   14.2498 H   0  0  0  0  0  0  0  0  0  0  0  0
   46.5152    9.0323   12.6852 H   0  0  0  0  0  0  0  0  0  0  0  0
   48.2343   10.2886   13.9091 H   0  0  0  0  0  0  0  0  0  0  0  0
   49.6995    9.1395   15.5267 H   0  0  0  0  0  0  0  0  0  0  0  0
   49.0717    6.0148   16.9785 H   0  0  0  0  0  0  0  0  0  0  0  0
   50.2396    5.6830   15.6772 H   0  0  0  0  0  0  0  0  0  0  0  0
   50.4158    7.1226   16.6853 H   0  0  0  0  0  0  0  0  0  0  0  0
  3  4  1  0
  4  2  1  0
  5  2  1  0
  6  5  2  0
  7  3  1  0
  8  6  1  0
  9  7  1  0
 10  9  1  0
 11 12  1  0
 12  7  2  0
 13  5  1  0
 14  2  1  0
 15  4  2  0
 16 14  2  0
 17 16  1  0
 18 13  1  0
 17 13  2  0
  8  3  2  0
 10 11  2  0
  8 19  1  0
 14 20  1  0
 16 21  1  0
 17 22  1  0
 18 23  1  0
 18 24  1  0
 18 25  1  0
M  CHG  2   1   1   9  -1
M  END
> <Uni-Dock RESULT> 
ENERGY=   -3.439  LOWER_BOUND=    4.989  UPPER_BOUND=    6.813
INTER + INTRA:          -3.439
INTER:                  -3.439
INTRA:                   0.000
UNBOUND:                 0.000

$$$$

     RDKit          3D

 25 26  0  0  0  0  0  0  0  0999 V2000
   45.7449    9.1547   12.1640 K   0  0  0  0  0 15  0  0  0  0  0  0
   45.1385    9.6714   11.6393 N   0  0  0  0  0  0  0  0  0  0  0  0
   45.1495    7.3710   12.4487 C   0  0  0  0  0  0  0  0  0  0  0  0
   44.4747    8.4353   11.6684 C   0  0  0  0  0  0  0  0  0  0  0  0
   46.3950    9.8182   12.2211 C   0  0  0  0  0  0  0  0  0  0  0  0
   47.0116    8.8634   12.8467 N   0  0  0  0  0  0  0  0  0  0  0  0
   44.4870    5.9679   12.6762 C   0  0  0  0  0  0  0  0  0  0  0  0
   46.3571    7.6660   12.9505 C   0  0  0  0  0  0  0  0  0  0  0  0
   45.2132    4.8575   12.9680 N   0  0  0  0  0  0  0  0  0  0  0  0
   44.2926    3.8893   13.1758 N   0  0  0  0  0  0  0  0  0  0  0  0
   43.0571    4.4105   13.0269 N   0  0  0  0  0  0  0  0  0  0  0  0
   43.1578    5.7249   12.7180 N   0  0  0  0  0  0  0  0  0  0  0  0
   47.0537   11.1674   12.1023 C   0  0  0  0  0  0  0  0  0  0  0  0
   44.5347   10.7331   10.9722 C   0  0  0  0  0  0  0  0  0  0  0  0
   43.4251    8.2459   11.0524 O   0  0  0  0  0  0  0  0  0  0  0  0
   45.1181   11.9314   10.8692 C   0  0  0  0  0  0  0  0  0  0  0  0
   46.4123   12.1506   11.4520 C   0  0  0  0  0  0  0  0  0  0  0  0
   48.4026   11.3348   12.7274 C   0  0  0  0  0  0  0  0  0  0  0  0
   46.8878    6.9057   13.5225 H   0  0  0  0  0  0  0  0  0  0  0  0
   43.5571   10.5465   10.5340 H   0  0  0  0  0  0  0  0  0  0  0  0
   44.6310   12.7472   10.3460 H   0  0  0  0  0  0  0  0  0  0  0  0
   46.8521   13.1369   11.3453 H   0  0  0  0  0  0  0  0  0  0  0  0
   48.3543   11.1472   13.8050 H   0  0  0  0  0  0  0  0  0  0  0  0
   49.1230   10.6411   12.2816 H   0  0  0  0  0  0  0  0  0  0  0  0
   48.7916   12.3490   12.5867 H   0  0  0  0  0  0  0  0  0  0  0  0
  3  4  1  0
  4  2  1  0
  5  2  1  0
  6  5  2  0
  7  3  1  0
  8  6  1  0
  9  7  1  0
 10  9  1  0
 11 12  1  0
 12  7  2  0
 13  5  1  0
 14  2  1  0
 15  4  2  0
 16 14  2  0
 17 16  1  0
 18 13  1  0
 17 13  2  0
  8  3  2  0
 10 11  2  0
  8 19  1  0
 14 20  1  0
 16 21  1  0
 17 22  1  0
 18 23  1  0
 18 24  1  0
 18 25  1  0
M  CHG  2   1   1   9  -1
M  END
> <Uni-Dock RESULT> 
ENERGY=   -3.400  LOWER_BOUND=    5.446  UPPER_BOUND=    7.457
INTER + INTRA:          -3.400
INTER:                  -3.400
INTRA:                   0.000
UNBOUND:                 0.000

$$$$
