
     RDKit          3D

 25 26  0  0  0  0  0  0  0  0999 V2000
   45.7420    2.8216    8.5458 K   0  0  0  0  0 15  0  0  0  0  0  0
   46.2226    3.3935    7.9525 N   0  0  0  0  0  0  0  0  0  0  0  0
   44.6258    3.7737    9.7560 C   0  0  0  0  0  0  0  0  0  0  0  0
   45.4901    4.3355    8.6909 C   0  0  0  0  0  0  0  0  0  0  0  0
   46.0403    2.0288    8.1602 C   0  0  0  0  0  0  0  0  0  0  0  0
   45.2319    1.5405    9.0498 N   0  0  0  0  0  0  0  0  0  0  0  0
   43.8301    4.6945   10.7451 C   0  0  0  0  0  0  0  0  0  0  0  0
   44.5558    2.4370    9.8321 C   0  0  0  0  0  0  0  0  0  0  0  0
   42.7210    4.2695   11.4044 N   0  0  0  0  0  0  0  0  0  0  0  0
   42.3846    5.3006   12.2119 N   0  0  0  0  0  0  0  0  0  0  0  0
   43.2741    6.3019   12.0492 N   0  0  0  0  0  0  0  0  0  0  0  0
   44.2001    5.9360   11.1316 N   0  0  0  0  0  0  0  0  0  0  0  0
   46.8342    1.0893    7.2911 C   0  0  0  0  0  0  0  0  0  0  0  0
   47.0982    3.8535    6.9734 C   0  0  0  0  0  0  0  0  0  0  0  0
   45.5380    5.5400    8.4382 O   0  0  0  0  0  0  0  0  0  0  0  0
   47.8050    3.0197    6.2039 C   0  0  0  0  0  0  0  0  0  0  0  0
   47.6669    1.6000    6.3709 C   0  0  0  0  0  0  0  0  0  0  0  0
   46.6467   -0.3786    7.5098 C   0  0  0  0  0  0  0  0  0  0  0  0
   43.9237    1.9873   10.5970 H   0  0  0  0  0  0  0  0  0  0  0  0
   47.1858    4.9314    6.8592 H   0  0  0  0  0  0  0  0  0  0  0  0
   48.4833    3.3976    5.4466 H   0  0  0  0  0  0  0  0  0  0  0  0
   48.2573    0.9573    5.7258 H   0  0  0  0  0  0  0  0  0  0  0  0
   45.6041   -0.6644    7.3360 H   0  0  0  0  0  0  0  0  0  0  0  0
   46.9209   -0.6544    8.5333 H   0  0  0  0  0  0  0  0  0  0  0  0
   47.2683   -0.9724    6.8310 H   0  0  0  0  0  0  0  0  0  0  0  0
  3  4  1  0
  4  2  1  0
  5  2  1  0
  6  5  2  0
  7  3  1  0
  8  6  1  0
  9  7  1  0
 10  9  1  0
 11 12  1  0
 12  7  2  0
 13  5  1  0
 14  2  1  0
 15  4  2  0
 16 14  2  0
 17 16  1  0
 18 13  1  0
 17 13  2  0
  8  3  2  0
 10 11  2  0
  8 19  1  0
 14 20  1  0
 16 21  1  0
 17 22  1  0
 18 23  1  0
 18 24  1  0
 18 25  1  0
M  CHG  2   1   1   9  -1
M  END
> <Uni-Dock RESULT> 
ENERGY=   -6.045  LOWER_BOUND=    0.000  UPPER_BOUND=    0.000
INTER + INTRA:          -6.045
INTER:                  -6.045
INTRA:                   0.000
UNBOUND:                 0.000

$$$$

     RDKit          3D

 25 26  0  0  0  0  0  0  0  0999 V2000
   45.7362    3.1748    8.3904 K   0  0  0  0  0 15  0  0  0  0  0  0
   45.6701    2.2418    8.5779 N   0  0  0  0  0  0  0  0  0  0  0  0
   44.7497    4.2506    9.6095 C   0  0  0  0  0  0  0  0  0  0  0  0
   44.8880    2.7749    9.6140 C   0  0  0  0  0  0  0  0  0  0  0  0
   46.3440    3.0786    7.6922 C   0  0  0  0  0  0  0  0  0  0  0  0
   46.2725    4.3734    7.7337 N   0  0  0  0  0  0  0  0  0  0  0  0
   43.8191    4.9958   10.6285 C   0  0  0  0  0  0  0  0  0  0  0  0
   45.4615    4.9194    8.6912 C   0  0  0  0  0  0  0  0  0  0  0  0
   43.9988    6.3007   10.9604 N   0  0  0  0  0  0  0  0  0  0  0  0
   42.9629    6.5933   11.7787 N   0  0  0  0  0  0  0  0  0  0  0  0
   42.1831    5.5011   11.9176 N   0  0  0  0  0  0  0  0  0  0  0  0
   42.7030    4.4824   11.1927 N   0  0  0  0  0  0  0  0  0  0  0  0
   47.1973    2.4209    6.6397 C   0  0  0  0  0  0  0  0  0  0  0  0
   45.7971    0.8589    8.4867 C   0  0  0  0  0  0  0  0  0  0  0  0
   44.3881    2.0616   10.4847 O   0  0  0  0  0  0  0  0  0  0  0  0
   46.5522    0.2750    7.5507 C   0  0  0  0  0  0  0  0  0  0  0  0
   47.2694    1.0813    6.6032 C   0  0  0  0  0  0  0  0  0  0  0  0
   47.9224    3.3125    5.6820 C   0  0  0  0  0  0  0  0  0  0  0  0
   45.3922    6.0063    8.6629 H   0  0  0  0  0  0  0  0  0  0  0  0
   45.2500    0.2657    9.2156 H   0  0  0  0  0  0  0  0  0  0  0  0
   46.6378   -0.8048    7.4952 H   0  0  0  0  0  0  0  0  0  0  0  0
   47.8720    0.5689    5.8601 H   0  0  0  0  0  0  0  0  0  0  0  0
   48.6128    3.9727    6.2171 H   0  0  0  0  0  0  0  0  0  0  0  0
   47.2149    3.9276    5.1163 H   0  0  0  0  0  0  0  0  0  0  0  0
   48.5106    2.7376    4.9587 H   0  0  0  0  0  0  0  0  0  0  0  0
  3  4  1  0
  4  2  1  0
  5  2  1  0
  6  5  2  0
  7  3  1  0
  8  6  1  0
  9  7  1  0
 10  9  1  0
 11 12  1  0
 12  7  2  0
 13  5  1  0
 14  2  1  0
 15  4  2  0
 16 14  2  0
 17 16  1  0
 18 13  1  0
 17 13  2  0
  8  3  2  0
 10 11  2  0
  8 19  1  0
 14 20  1  0
 16 21  1  0
 17 22  1  0
 18 23  1  0
 18 24  1  0
 18 25  1  0
M  CHG  2   1   1   9  -1
M  END
> <Uni-Dock RESULT> 
ENERGY=   -4.712  LOWER_BOUND=    1.214  UPPER_BOUND=    2.403
INTER + INTRA:          -4.712
INTER:                  -4.712
INTRA:                   0.000
UNBOUND:                 0.000

$$$$

     RDKit          3D

 25 26  0  0  0  0  0  0  0  0999 V2000
   45.0201    6.3932   12.2433 K   0  0  0  0  0 15  0  0  0  0  0  0
   44.2738    5.9217   11.8816 N   0  0  0  0  0  0  0  0  0  0  0  0
   44.9310    8.2693   11.9447 C   0  0  0  0  0  0  0  0  0  0  0  0
   43.9409    7.2422   11.5425 C   0  0  0  0  0  0  0  0  0  0  0  0
   45.4085    5.6463   12.6401 C   0  0  0  0  0  0  0  0  0  0  0  0
   46.2378    6.5574   13.0468 N   0  0  0  0  0  0  0  0  0  0  0  0
   44.7671    9.7763   11.5426 C   0  0  0  0  0  0  0  0  0  0  0  0
   45.9752    7.8470   12.6718 C   0  0  0  0  0  0  0  0  0  0  0  0
   45.3588   10.7841   12.2352 N   0  0  0  0  0  0  0  0  0  0  0  0
   45.0581   11.9031   11.5382 N   0  0  0  0  0  0  0  0  0  0  0  0
   44.3232   11.5701   10.4570 N   0  0  0  0  0  0  0  0  0  0  0  0
   44.1341   10.2294   10.4374 N   0  0  0  0  0  0  0  0  0  0  0  0
   45.6636    4.2054   12.9967 C   0  0  0  0  0  0  0  0  0  0  0  0
   43.4173    4.8990   11.4852 C   0  0  0  0  0  0  0  0  0  0  0  0
   42.8792    7.5227   10.9849 O   0  0  0  0  0  0  0  0  0  0  0  0
   43.6452    3.6197   11.7992 C   0  0  0  0  0  0  0  0  0  0  0  0
   44.8010    3.2676   12.5754 C   0  0  0  0  0  0  0  0  0  0  0  0
   46.8822    3.9002   13.8089 C   0  0  0  0  0  0  0  0  0  0  0  0
   46.7194    8.5748   12.9934 H   0  0  0  0  0  0  0  0  0  0  0  0
   42.5455    5.1859   10.9019 H   0  0  0  0  0  0  0  0  0  0  0  0
   42.9662    2.8364   11.4801 H   0  0  0  0  0  0  0  0  0  0  0  0
   44.9495    2.2184   12.8101 H   0  0  0  0  0  0  0  0  0  0  0  0
   46.8411    4.4152   14.7743 H   0  0  0  0  0  0  0  0  0  0  0  0
   47.7874    4.2161   13.2801 H   0  0  0  0  0  0  0  0  0  0  0  0
   46.9765    2.8279   14.0115 H   0  0  0  0  0  0  0  0  0  0  0  0
  3  4  1  0
  4  2  1  0
  5  2  1  0
  6  5  2  0
  7  3  1  0
  8  6  1  0
  9  7  1  0
 10  9  1  0
 11 12  1  0
 12  7  2  0
 13  5  1  0
 14  2  1  0
 15  4  2  0
 16 14  2  0
 17 16  1  0
 18 13  1  0
 17 13  2  0
  8  3  2  0
 10 11  2  0
  8 19  1  0
 14 20  1  0
 16 21  1  0
 17 22  1  0
 18 23  1  0
 18 24  1  0
 18 25  1  0
M  CHG  2   1   1   9  -1
M  END
> <Uni-Dock RESULT> 
ENERGY=   -3.848  LOWER_BOUND=    4.521  UPPER_BOUND=    5.978
INTER + INTRA:          -3.848
INTER:                  -3.848
INTRA:                   0.000
UNBOUND:                 0.000

$$$$

     RDKit          3D

 25 26  0  0  0  0  0  0  0  0999 V2000
   45.7002    5.5935   12.8941 K   0  0  0  0  0 15  0  0  0  0  0  0
   45.1936    6.2910   12.4856 N   0  0  0  0  0  0  0  0  0  0  0  0
   47.2910    6.2190   13.7276 C   0  0  0  0  0  0  0  0  0  0  0  0
   46.2645    7.0224   13.0221 C   0  0  0  0  0  0  0  0  0  0  0  0
   45.0804    4.9224   12.7158 C   0  0  0  0  0  0  0  0  0  0  0  0
   45.9487    4.2347   13.3914 N   0  0  0  0  0  0  0  0  0  0  0  0
   48.6064    6.8661   14.2852 C   0  0  0  0  0  0  0  0  0  0  0  0
   47.0396    4.9097   13.8678 C   0  0  0  0  0  0  0  0  0  0  0  0
   49.3254    6.3043   15.2915 N   0  0  0  0  0  0  0  0  0  0  0  0
   50.4133    7.0968   15.4210 N   0  0  0  0  0  0  0  0  0  0  0  0
   50.3509    8.0905   14.5105 N   0  0  0  0  0  0  0  0  0  0  0  0
   49.2200    7.9586   13.7777 N   0  0  0  0  0  0  0  0  0  0  0  0
   43.8749    4.2263   12.1409 C   0  0  0  0  0  0  0  0  0  0  0  0
   44.2211    6.9736   11.7609 C   0  0  0  0  0  0  0  0  0  0  0  0
   46.3187    8.2502   12.9418 O   0  0  0  0  0  0  0  0  0  0  0  0
   43.1526    6.3552   11.2482 C   0  0  0  0  0  0  0  0  0  0  0  0
   42.9788    4.9434   11.4452 C   0  0  0  0  0  0  0  0  0  0  0  0
   43.7470    2.7553   12.3809 C   0  0  0  0  0  0  0  0  0  0  0  0
   47.7672    4.2883   14.3886 H   0  0  0  0  0  0  0  0  0  0  0  0
   44.3681    8.0426   11.6261 H   0  0  0  0  0  0  0  0  0  0  0  0
   42.4057    6.9045   10.6852 H   0  0  0  0  0  0  0  0  0  0  0  0
   42.0976    4.4794   11.0140 H   0  0  0  0  0  0  0  0  0  0  0  0
   43.6970    2.5425   13.4538 H   0  0  0  0  0  0  0  0  0  0  0  0
   44.6018    2.2193   11.9556 H   0  0  0  0  0  0  0  0  0  0  0  0
   42.8404    2.3468   11.9215 H   0  0  0  0  0  0  0  0  0  0  0  0
  3  4  1  0
  4  2  1  0
  5  2  1  0
  6  5  2  0
  7  3  1  0
  8  6  1  0
  9  7  1  0
 10  9  1  0
 11 12  1  0
 12  7  2  0
 13  5  1  0
 14  2  1  0
 15  4  2  0
 16 14  2  0
 17 16  1  0
 18 13  1  0
 17 13  2  0
  8  3  2  0
 10 11  2  0
  8 19  1  0
 14 20  1  0
 16 21  1  0
 17 22  1  0
 18 23  1  0
 18 24  1  0
 18 25  1  0
M  CHG  2   1   1   9  -1
M  END
> <Uni-Dock RESULT> 
ENERGY=   -3.576  LOWER_BOUND=    4.795  UPPER_BOUND=    6.430
INTER + INTRA:          -3.576
INTER:                  -3.576
INTRA:                   0.000
UNBOUND:                 0.000

$$$$

     RDKit          3D

 25 26  0  0  0  0  0  0  0  0999 V2000
   45.7250    6.6359   12.8919 K   0  0  0  0  0 15  0  0  0  0  0  0
   46.1731    5.8138   13.0747 N   0  0  0  0  0  0  0  0  0  0  0  0
   46.8301    8.1608   13.1569 C   0  0  0  0  0  0  0  0  0  0  0  0
   47.2012    6.7357   13.3249 C   0  0  0  0  0  0  0  0  0  0  0  0
   44.9365    6.2394   12.5965 C   0  0  0  0  0  0  0  0  0  0  0  0
   44.6383    7.4846   12.3877 N   0  0  0  0  0  0  0  0  0  0  0  0
   47.8267    9.3203   13.5065 C   0  0  0  0  0  0  0  0  0  0  0  0
   45.5990    8.4115   12.6891 C   0  0  0  0  0  0  0  0  0  0  0  0
   47.7200   10.5614   12.9648 N   0  0  0  0  0  0  0  0  0  0  0  0
   48.6873   11.2857   13.5713 N   0  0  0  0  0  0  0  0  0  0  0  0
   49.3395   10.5042   14.4568 N   0  0  0  0  0  0  0  0  0  0  0  0
   48.8061    9.2598   14.4364 N   0  0  0  0  0  0  0  0  0  0  0  0
   43.9073    5.1772   12.3119 C   0  0  0  0  0  0  0  0  0  0  0  0
   46.4341    4.4605   13.2675 C   0  0  0  0  0  0  0  0  0  0  0  0
   48.3400    6.3746   13.6240 O   0  0  0  0  0  0  0  0  0  0  0  0
   45.5196    3.5180   13.0176 C   0  0  0  0  0  0  0  0  0  0  0  0
   44.2223    3.8906   12.5274 C   0  0  0  0  0  0  0  0  0  0  0  0
   42.5749    5.6260   11.8007 C   0  0  0  0  0  0  0  0  0  0  0  0
   45.2934    9.4471   12.5441 H   0  0  0  0  0  0  0  0  0  0  0  0
   47.4233    4.1979   13.6351 H   0  0  0  0  0  0  0  0  0  0  0  0
   45.7417    2.4681   13.1752 H   0  0  0  0  0  0  0  0  0  0  0  0
   43.5088    3.0956   12.3359 H   0  0  0  0  0  0  0  0  0  0  0  0
   42.6857    6.1578   10.8501 H   0  0  0  0  0  0  0  0  0  0  0  0
   42.0894    6.2919   12.5217 H   0  0  0  0  0  0  0  0  0  0  0  0
   41.9009    4.7800   11.6282 H   0  0  0  0  0  0  0  0  0  0  0  0
  3  4  1  0
  4  2  1  0
  5  2  1  0
  6  5  2  0
  7  3  1  0
  8  6  1  0
  9  7  1  0
 10  9  1  0
 11 12  1  0
 12  7  2  0
 13  5  1  0
 14  2  1  0
 15  4  2  0
 16 14  2  0
 17 16  1  0
 18 13  1  0
 17 13  2  0
  8  3  2  0
 10 11  2  0
  8 19  1  0
 14 20  1  0
 16 21  1  0
 17 22  1  0
 18 23  1  0
 18 24  1  0
 18 25  1  0
M  CHG  2   1   1   9  -1
M  END
> <Uni-Dock RESULT> 
ENERGY=   -3.560  LOWER_BOUND=    5.064  UPPER_BOUND=    6.908
INTER + INTRA:          -3.560
INTER:                  -3.560
INTRA:                   0.000
UNBOUND:                 0.000

$$$$

     RDKit          3D

 25 26  0  0  0  0  0  0  0  0999 V2000
   45.7005    7.2799   12.6184 K   0  0  0  0  0 15  0  0  0  0  0  0
   45.2697    6.4480   12.4383 N   0  0  0  0  0  0  0  0  0  0  0  0
   44.7867    8.7691   11.8673 C   0  0  0  0  0  0  0  0  0  0  0  0
   44.3930    7.3415   11.8039 C   0  0  0  0  0  0  0  0  0  0  0  0
   46.3634    6.9168   13.1614 C   0  0  0  0  0  0  0  0  0  0  0  0
   46.6663    8.1737   13.2692 N   0  0  0  0  0  0  0  0  0  0  0  0
   43.9791    9.8825   11.1138 C   0  0  0  0  0  0  0  0  0  0  0  0
   45.8681    9.0635   12.6030 C   0  0  0  0  0  0  0  0  0  0  0  0
   44.0114   11.1874   11.4900 N   0  0  0  0  0  0  0  0  0  0  0  0
   43.2740   11.8324   10.5581 N   0  0  0  0  0  0  0  0  0  0  0  0
   42.8292   10.9416    9.6477 N   0  0  0  0  0  0  0  0  0  0  0  0
   43.2698    9.7043    9.9768 N   0  0  0  0  0  0  0  0  0  0  0  0
   47.2245    5.8895   13.8481 C   0  0  0  0  0  0  0  0  0  0  0  0
   44.9926    5.0858   12.3702 C   0  0  0  0  0  0  0  0  0  0  0  0
   43.3512    6.9609   11.2686 O   0  0  0  0  0  0  0  0  0  0  0  0
   45.7585    4.1738   12.9774 C   0  0  0  0  0  0  0  0  0  0  0  0
   46.9049    4.5910   13.7352 C   0  0  0  0  0  0  0  0  0  0  0  0
   48.4034    6.3844   14.6247 C   0  0  0  0  0  0  0  0  0  0  0  0
   46.1830   10.1035   12.6803 H   0  0  0  0  0  0  0  0  0  0  0  0
   44.1181    4.7900   11.7954 H   0  0  0  0  0  0  0  0  0  0  0  0
   45.5267    3.1163   12.9117 H   0  0  0  0  0  0  0  0  0  0  0  0
   47.5001    3.8199   14.2137 H   0  0  0  0  0  0  0  0  0  0  0  0
   48.0816    7.0512   15.4313 H   0  0  0  0  0  0  0  0  0  0  0  0
   49.0940    6.9291   13.9725 H   0  0  0  0  0  0  0  0  0  0  0  0
   48.9626    5.5608   15.0817 H   0  0  0  0  0  0  0  0  0  0  0  0
  3  4  1  0
  4  2  1  0
  5  2  1  0
  6  5  2  0
  7  3  1  0
  8  6  1  0
  9  7  1  0
 10  9  1  0
 11 12  1  0
 12  7  2  0
 13  5  1  0
 14  2  1  0
 15  4  2  0
 16 14  2  0
 17 16  1  0
 18 13  1  0
 17 13  2  0
  8  3  2  0
 10 11  2  0
  8 19  1  0
 14 20  1  0
 16 21  1  0
 17 22  1  0
 18 23  1  0
 18 24  1  0
 18 25  1  0
M  CHG  2   1   1   9  -1
M  END
> <Uni-Dock RESULT> 
ENERGY=   -3.435  LOWER_BOUND=    4.993  UPPER_BOUND=    6.582
INTER + INTRA:          -3.435
INTER:                  -3.435
INTRA:                   0.000
UNBOUND:                 0.000

$$$$

     RDKit          3D

 25 26  0  0  0  0  0  0  0  0999 V2000
   50.1303    3.6874   18.1408 K   0  0  0  0  0 15  0  0  0  0  0  0
   49.4243    3.2875   17.6392 N   0  0  0  0  0  0  0  0  0  0  0  0
   51.7819    2.7598   17.9710 C   0  0  0  0  0  0  0  0  0  0  0  0
   50.4912    2.4340   17.3191 C   0  0  0  0  0  0  0  0  0  0  0  0
   49.6279    4.4158   18.4293 C   0  0  0  0  0  0  0  0  0  0  0  0
   50.7759    4.7332   18.9438 N   0  0  0  0  0  0  0  0  0  0  0  0
   53.0431    1.8415   17.8103 C   0  0  0  0  0  0  0  0  0  0  0  0
   51.8196    3.8808   18.7053 C   0  0  0  0  0  0  0  0  0  0  0  0
   54.3082    2.3029   17.9886 N   0  0  0  0  0  0  0  0  0  0  0  0
   55.0947    1.2113   17.8538 N   0  0  0  0  0  0  0  0  0  0  0  0
   54.3208    0.1317   17.6174 N   0  0  0  0  0  0  0  0  0  0  0  0
   53.0202    0.5074   17.5932 N   0  0  0  0  0  0  0  0  0  0  0  0
   48.4361    5.3006   18.6840 C   0  0  0  0  0  0  0  0  0  0  0  0
   48.1688    3.0082   17.1075 C   0  0  0  0  0  0  0  0  0  0  0  0
   50.3642    1.5052   16.5202 O   0  0  0  0  0  0  0  0  0  0  0  0
   47.1103    3.7921   17.3360 C   0  0  0  0  0  0  0  0  0  0  0  0
   47.2518    4.9686   18.1472 C   0  0  0  0  0  0  0  0  0  0  0  0
   48.6454    6.5133   19.5346 C   0  0  0  0  0  0  0  0  0  0  0  0
   52.7536    4.1577   19.1928 H   0  0  0  0  0  0  0  0  0  0  0  0
   48.0826    2.1155   16.4926 H   0  0  0  0  0  0  0  0  0  0  0  0
   46.1393    3.5570   16.9135 H   0  0  0  0  0  0  0  0  0  0  0  0
   46.3688    5.5789   18.3077 H   0  0  0  0  0  0  0  0  0  0  0  0
   49.3857    7.1799   19.0802 H   0  0  0  0  0  0  0  0  0  0  0  0
   48.9940    6.2290   20.5328 H   0  0  0  0  0  0  0  0  0  0  0  0
   47.7198    7.0856   19.6596 H   0  0  0  0  0  0  0  0  0  0  0  0
  3  4  1  0
  4  2  1  0
  5  2  1  0
  6  5  2  0
  7  3  1  0
  8  6  1  0
  9  7  1  0
 10  9  1  0
 11 12  1  0
 12  7  2  0
 13  5  1  0
 14  2  1  0
 15  4  2  0
 16 14  2  0
 17 16  1  0
 18 13  1  0
 17 13  2  0
  8  3  2  0
 10 11  2  0
  8 19  1  0
 14 20  1  0
 16 21  1  0
 17 22  1  0
 18 23  1  0
 18 24  1  0
 18 25  1  0
M  CHG  2   1   1   9  -1
M  END
> <Uni-Dock RESULT> 
ENERGY=   -3.385  LOWER_BOUND=   10.456  UPPER_BOUND=   11.881
INTER + INTRA:          -3.385
INTER:                  -3.385
INTRA:                   0.000
UNBOUND:                 0.000

$$$$

     RDKit          3D

 25 26  0  0  0  0  0  0  0  0999 V2000
   47.2991    6.4213   12.9085 K   0  0  0  0  0 15  0  0  0  0  0  0
   47.6627    6.2290   13.7693 N   0  0  0  0  0  0  0  0  0  0  0  0
   45.8210    5.3118   12.4602 C   0  0  0  0  0  0  0  0  0  0  0  0
   46.6083    5.3044   13.7160 C   0  0  0  0  0  0  0  0  0  0  0  0
   47.8558    7.1481   12.7413 C   0  0  0  0  0  0  0  0  0  0  0  0
   47.1214    7.1937   11.6728 N   0  0  0  0  0  0  0  0  0  0  0  0
   44.6827    4.2664   12.1932 C   0  0  0  0  0  0  0  0  0  0  0  0
   46.1285    6.2584   11.5622 C   0  0  0  0  0  0  0  0  0  0  0  0
   43.6717    4.4976   11.3159 N   0  0  0  0  0  0  0  0  0  0  0  0
   42.9602    3.3479   11.3002 N   0  0  0  0  0  0  0  0  0  0  0  0
   43.5381    2.4555   12.1308 N   0  0  0  0  0  0  0  0  0  0  0  0
   44.6326    3.0140   12.6997 N   0  0  0  0  0  0  0  0  0  0  0  0
   48.9833    8.1334   12.9033 C   0  0  0  0  0  0  0  0  0  0  0  0
   48.4797    6.2393   14.8959 C   0  0  0  0  0  0  0  0  0  0  0  0
   46.3387    4.5697   14.6670 O   0  0  0  0  0  0  0  0  0  0  0  0
   49.4823    7.1120   15.0384 C   0  0  0  0  0  0  0  0  0  0  0  0
   49.7381    8.0831   14.0118 C   0  0  0  0  0  0  0  0  0  0  0  0
   49.1998    9.1224   11.8020 C   0  0  0  0  0  0  0  0  0  0  0  0
   45.5654    6.3008   10.6305 H   0  0  0  0  0  0  0  0  0  0  0  0
   48.2676    5.4993   15.6640 H   0  0  0  0  0  0  0  0  0  0  0  0
   50.1089    7.1036   15.9236 H   0  0  0  0  0  0  0  0  0  0  0  0
   50.5604    8.7744   14.1662 H   0  0  0  0  0  0  0  0  0  0  0  0
   48.3113    9.7474   11.6648 H   0  0  0  0  0  0  0  0  0  0  0  0
   49.4176    8.6091   10.8597 H   0  0  0  0  0  0  0  0  0  0  0  0
   50.0418    9.7896   12.0159 H   0  0  0  0  0  0  0  0  0  0  0  0
  3  4  1  0
  4  2  1  0
  5  2  1  0
  6  5  2  0
  7  3  1  0
  8  6  1  0
  9  7  1  0
 10  9  1  0
 11 12  1  0
 12  7  2  0
 13  5  1  0
 14  2  1  0
 15  4  2  0
 16 14  2  0
 17 16  1  0
 18 13  1  0
 17 13  2  0
  8  3  2  0
 10 11  2  0
  8 19  1  0
 14 20  1  0
 16 21  1  0
 17 22  1  0
 18 23  1  0
 18 24  1  0
 18 25  1  0
M  CHG  2   1   1   9  -1
M  END
> <Uni-Dock RESULT> 
ENERGY=   -3.304  LOWER_BOUND=    4.849  UPPER_BOUND=    6.578
INTER + INTRA:          -3.304
INTER:                  -3.304
INTRA:                   0.000
UNBOUND:                 0.000

$$$$

     RDKit          3D

 25 26  0  0  0  0  0  0  0  0999 V2000
   47.6451    7.4220   20.7596 K   0  0  0  0  0 15  0  0  0  0  0  0
   47.6993    7.1129   21.6605 N   0  0  0  0  0  0  0  0  0  0  0  0
   47.5764    6.0074   19.4903 C   0  0  0  0  0  0  0  0  0  0  0  0
   47.6423    5.8944   20.9668 C   0  0  0  0  0  0  0  0  0  0  0  0
   47.5874    8.3238   20.9822 C   0  0  0  0  0  0  0  0  0  0  0  0
   47.4629    8.4154   19.6941 N   0  0  0  0  0  0  0  0  0  0  0  0
   47.6220    4.7437   18.5626 C   0  0  0  0  0  0  0  0  0  0  0  0
   47.4740    7.2449   18.9851 C   0  0  0  0  0  0  0  0  0  0  0  0
   47.1241    4.7488   17.2987 N   0  0  0  0  0  0  0  0  0  0  0  0
   47.4274    3.5272   16.8047 N   0  0  0  0  0  0  0  0  0  0  0  0
   48.0977    2.8227   17.7398 N   0  0  0  0  0  0  0  0  0  0  0  0
   48.2375    3.5763   18.8561 N   0  0  0  0  0  0  0  0  0  0  0  0
   47.6126    9.5808   21.8115 C   0  0  0  0  0  0  0  0  0  0  0  0
   47.8197    7.0821   23.0466 C   0  0  0  0  0  0  0  0  0  0  0  0
   47.6097    4.8123   21.5541 O   0  0  0  0  0  0  0  0  0  0  0  0
   47.8450    8.1980   23.7824 C   0  0  0  0  0  0  0  0  0  0  0  0
   47.7390    9.4798   23.1437 C   0  0  0  0  0  0  0  0  0  0  0  0
   47.4960   10.8863   21.0905 C   0  0  0  0  0  0  0  0  0  0  0  0
   47.4144    7.3672   17.9042 H   0  0  0  0  0  0  0  0  0  0  0  0
   47.8944    6.1022   23.5121 H   0  0  0  0  0  0  0  0  0  0  0  0
   47.9406    8.1535   24.8619 H   0  0  0  0  0  0  0  0  0  0  0  0
   47.7625   10.3612   23.7765 H   0  0  0  0  0  0  0  0  0  0  0  0
   46.5492   10.9415   20.5433 H   0  0  0  0  0  0  0  0  0  0  0  0
   48.3202   11.0099   20.3804 H   0  0  0  0  0  0  0  0  0  0  0  0
   47.5268   11.7355   21.7817 H   0  0  0  0  0  0  0  0  0  0  0  0
  3  4  1  0
  4  2  1  0
  5  2  1  0
  6  5  2  0
  7  3  1  0
  8  6  1  0
  9  7  1  0
 10  9  1  0
 11 12  1  0
 12  7  2  0
 13  5  1  0
 14  2  1  0
 15  4  2  0
 16 14  2  0
 17 16  1  0
 18 13  1  0
 17 13  2  0
  8  3  2  0
 10 11  2  0
  8 19  1  0
 14 20  1  0
 16 21  1  0
 17 22  1  0
 18 23  1  0
 18 24  1  0
 18 25  1  0
M  CHG  2   1   1   9  -1
M  END
> <Uni-Dock RESULT> 
ENERGY=   -3.219  LOWER_BOUND=   10.987  UPPER_BOUND=   13.294
INTER + INTRA:          -3.219
INTER:                  -3.219
INTRA:                   0.000
UNBOUND:                 0.000

$$$$
