
     RDKit          3D

 25 26  0  0  0  0  0  0  0  0999 V2000
   44.9849    6.7305   12.4255 K   0  0  0  0  0 15  0  0  0  0  0  0
   44.2306    6.3570   11.9744 N   0  0  0  0  0  0  0  0  0  0  0  0
   45.1645    8.6035   12.1413 C   0  0  0  0  0  0  0  0  0  0  0  0
   44.1093    7.7072   11.6120 C   0  0  0  0  0  0  0  0  0  0  0  0
   45.3383    5.9088   12.6891 C   0  0  0  0  0  0  0  0  0  0  0  0
   46.2939    6.6877   13.0936 N   0  0  0  0  0  0  0  0  0  0  0  0
   45.1142   10.1560   11.9251 C   0  0  0  0  0  0  0  0  0  0  0  0
   46.1674    8.0213   12.8140 C   0  0  0  0  0  0  0  0  0  0  0  0
   43.9900   10.8918   11.7765 N   0  0  0  0  0  0  0  0  0  0  0  0
   44.4222   12.1735   11.7145 N   0  0  0  0  0  0  0  0  0  0  0  0
   45.7657   12.1993   11.8344 N   0  0  0  0  0  0  0  0  0  0  0  0
   46.2253   10.9358   11.9782 N   0  0  0  0  0  0  0  0  0  0  0  0
   45.4087    4.4357   12.9950 C   0  0  0  0  0  0  0  0  0  0  0  0
   43.2438    5.4676   11.5598 C   0  0  0  0  0  0  0  0  0  0  0  0
   43.2077    8.1039   10.8726 O   0  0  0  0  0  0  0  0  0  0  0  0
   43.3048    4.1606   11.8337 C   0  0  0  0  0  0  0  0  0  0  0  0
   44.4187    3.6346   12.5720 C   0  0  0  0  0  0  0  0  0  0  0  0
   46.5940    3.9462   13.7652 C   0  0  0  0  0  0  0  0  0  0  0  0
   46.9662    8.6470   13.2107 H   0  0  0  0  0  0  0  0  0  0  0  0
   42.4108    5.8840   10.9984 H   0  0  0  0  0  0  0  0  0  0  0  0
   42.5251    3.4831   11.5026 H   0  0  0  0  0  0  0  0  0  0  0  0
   44.4313    2.5681   12.7727 H   0  0  0  0  0  0  0  0  0  0  0  0
   47.5208    4.1546   13.2207 H   0  0  0  0  0  0  0  0  0  0  0  0
   46.6450    4.4323   14.7450 H   0  0  0  0  0  0  0  0  0  0  0  0
   46.5485    2.8652   13.9359 H   0  0  0  0  0  0  0  0  0  0  0  0
  3  4  1  0
  4  2  1  0
  5  2  1  0
  6  5  2  0
  7  3  1  0
  8  6  1  0
  9  7  1  0
 10  9  1  0
 11 12  1  0
 12  7  2  0
 13  5  1  0
 14  2  1  0
 15  4  2  0
 16 14  2  0
 17 16  1  0
 18 13  1  0
 17 13  2  0
  8  3  2  0
 10 11  2  0
  8 19  1  0
 14 20  1  0
 16 21  1  0
 17 22  1  0
 18 23  1  0
 18 24  1  0
 18 25  1  0
M  CHG  2   1   1   9  -1
M  END
> <Uni-Dock RESULT> 
ENERGY=   -4.088  LOWER_BOUND=    0.000  UPPER_BOUND=    0.000
INTER + INTRA:          -4.088
INTER:                  -4.088
INTRA:                   0.000
UNBOUND:                 0.000

$$$$

     RDKit          3D

 25 26  0  0  0  0  0  0  0  0999 V2000
   45.1950    7.6805   12.0520 K   0  0  0  0  0 15  0  0  0  0  0  0
   44.5555    8.2650   11.6504 N   0  0  0  0  0  0  0  0  0  0  0  0
   44.5789    5.8847   12.1794 C   0  0  0  0  0  0  0  0  0  0  0  0
   43.8621    7.0460   11.6012 C   0  0  0  0  0  0  0  0  0  0  0  0
   45.7814    8.3606   12.3036 C   0  0  0  0  0  0  0  0  0  0  0  0
   46.3744    7.3532   12.8667 N   0  0  0  0  0  0  0  0  0  0  0  0
   43.9940    4.4315   12.1026 C   0  0  0  0  0  0  0  0  0  0  0  0
   45.7535    6.1372   12.7741 C   0  0  0  0  0  0  0  0  0  0  0  0
   43.1755    3.9651   11.1332 N   0  0  0  0  0  0  0  0  0  0  0  0
   43.0084    2.6533   11.4244 N   0  0  0  0  0  0  0  0  0  0  0  0
   43.7174    2.3462   12.5303 N   0  0  0  0  0  0  0  0  0  0  0  0
   44.3568    3.4527   12.9719 N   0  0  0  0  0  0  0  0  0  0  0  0
   46.4329    9.7178   12.3470 C   0  0  0  0  0  0  0  0  0  0  0  0
   43.9663    9.3869   11.0750 C   0  0  0  0  0  0  0  0  0  0  0  0
   42.7216    6.9642   11.1436 O   0  0  0  0  0  0  0  0  0  0  0  0
   44.5459   10.5910   11.1110 C   0  0  0  0  0  0  0  0  0  0  0  0
   45.8138   10.7565   11.7651 C   0  0  0  0  0  0  0  0  0  0  0  0
   47.7518    9.8287   13.0443 C   0  0  0  0  0  0  0  0  0  0  0  0
   46.3056    5.3097   13.2184 H   0  0  0  0  0  0  0  0  0  0  0  0
   43.0047    9.2425   10.5883 H   0  0  0  0  0  0  0  0  0  0  0  0
   44.0714   11.4536   10.6559 H   0  0  0  0  0  0  0  0  0  0  0  0
   46.2503   11.7501   11.7734 H   0  0  0  0  0  0  0  0  0  0  0  0
   47.6575    9.5395   14.0961 H   0  0  0  0  0  0  0  0  0  0  0  0
   48.4960    9.1826   12.5673 H   0  0  0  0  0  0  0  0  0  0  0  0
   48.1396   10.8528   13.0180 H   0  0  0  0  0  0  0  0  0  0  0  0
  3  4  1  0
  4  2  1  0
  5  2  1  0
  6  5  2  0
  7  3  1  0
  8  6  1  0
  9  7  1  0
 10  9  1  0
 11 12  1  0
 12  7  2  0
 13  5  1  0
 14  2  1  0
 15  4  2  0
 16 14  2  0
 17 16  1  0
 18 13  1  0
 17 13  2  0
  8  3  2  0
 10 11  2  0
  8 19  1  0
 14 20  1  0
 16 21  1  0
 17 22  1  0
 18 23  1  0
 18 24  1  0
 18 25  1  0
M  CHG  2   1   1   9  -1
M  END
> <Uni-Dock RESULT> 
ENERGY=   -3.887  LOWER_BOUND=    2.001  UPPER_BOUND=    5.488
INTER + INTRA:          -3.887
INTER:                  -3.887
INTRA:                   0.000
UNBOUND:                 0.000

$$$$

     RDKit          3D

 25 26  0  0  0  0  0  0  0  0999 V2000
   45.3517    6.4776   12.3289 K   0  0  0  0  0 15  0  0  0  0  0  0
   46.0211    6.2176   12.9583 N   0  0  0  0  0  0  0  0  0  0  0  0
   45.1959    8.3657   12.1515 C   0  0  0  0  0  0  0  0  0  0  0  0
   46.1345    7.6150   13.0189 C   0  0  0  0  0  0  0  0  0  0  0  0
   45.0123    5.6172   12.2096 C   0  0  0  0  0  0  0  0  0  0  0  0
   44.1506    6.2824   11.5037 N   0  0  0  0  0  0  0  0  0  0  0  0
   45.2666    9.9265   12.0150 C   0  0  0  0  0  0  0  0  0  0  0  0
   44.2803    7.6447   11.4890 C   0  0  0  0  0  0  0  0  0  0  0  0
   46.3820   10.6771   12.1558 N   0  0  0  0  0  0  0  0  0  0  0  0
   45.9882   11.9388   11.8617 N   0  0  0  0  0  0  0  0  0  0  0  0
   44.6771   11.9361   11.5437 N   0  0  0  0  0  0  0  0  0  0  0  0
   44.2010   10.6731   11.6245 N   0  0  0  0  0  0  0  0  0  0  0  0
   44.9373    4.1132   12.2388 C   0  0  0  0  0  0  0  0  0  0  0  0
   46.9087    5.4472   13.7037 C   0  0  0  0  0  0  0  0  0  0  0  0
   46.9342    8.1708   13.7728 O   0  0  0  0  0  0  0  0  0  0  0  0
   46.8439    4.1121   13.7274 C   0  0  0  0  0  0  0  0  0  0  0  0
   45.8297    3.4306   12.9726 C   0  0  0  0  0  0  0  0  0  0  0  0
   43.8582    3.4599   11.4347 C   0  0  0  0  0  0  0  0  0  0  0  0
   43.5675    8.1626   10.8483 H   0  0  0  0  0  0  0  0  0  0  0  0
   47.6666    5.9814   14.2717 H   0  0  0  0  0  0  0  0  0  0  0  0
   47.5455    3.5288   14.3138 H   0  0  0  0  0  0  0  0  0  0  0  0
   45.8103    2.3465   13.0194 H   0  0  0  0  0  0  0  0  0  0  0  0
   42.8708    3.7873   11.7761 H   0  0  0  0  0  0  0  0  0  0  0  0
   43.9636    3.7085   10.3735 H   0  0  0  0  0  0  0  0  0  0  0  0
   43.8916    2.3685   11.5221 H   0  0  0  0  0  0  0  0  0  0  0  0
  3  4  1  0
  4  2  1  0
  5  2  1  0
  6  5  2  0
  7  3  1  0
  8  6  1  0
  9  7  1  0
 10  9  1  0
 11 12  1  0
 12  7  2  0
 13  5  1  0
 14  2  1  0
 15  4  2  0
 16 14  2  0
 17 16  1  0
 18 13  1  0
 17 13  2  0
  8  3  2  0
 10 11  2  0
  8 19  1  0
 14 20  1  0
 16 21  1  0
 17 22  1  0
 18 23  1  0
 18 24  1  0
 18 25  1  0
M  CHG  2   1   1   9  -1
M  END
> <Uni-Dock RESULT> 
ENERGY=   -3.784  LOWER_BOUND=    1.302  UPPER_BOUND=    2.478
INTER + INTRA:          -3.784
INTER:                  -3.784
INTRA:                   0.000
UNBOUND:                 0.000

$$$$

     RDKit          3D

 25 26  0  0  0  0  0  0  0  0999 V2000
   44.9615    4.1547    9.6246 K   0  0  0  0  0 15  0  0  0  0  0  0
   44.5815    3.4404   10.1318 N   0  0  0  0  0  0  0  0  0  0  0  0
   46.0160    3.5452    8.1626 C   0  0  0  0  0  0  0  0  0  0  0  0
   45.2703    2.7211    9.1432 C   0  0  0  0  0  0  0  0  0  0  0  0
   44.7039    4.8246   10.2200 C   0  0  0  0  0  0  0  0  0  0  0  0
   45.4123    5.5357    9.3980 N   0  0  0  0  0  0  0  0  0  0  0  0
   46.7440    2.9048    6.9299 C   0  0  0  0  0  0  0  0  0  0  0  0
   46.0396    4.8675    8.3816 C   0  0  0  0  0  0  0  0  0  0  0  0
   46.3766    1.7623    6.3078 N   0  0  0  0  0  0  0  0  0  0  0  0
   47.2246    1.6531    5.2579 N   0  0  0  0  0  0  0  0  0  0  0  0
   48.0656    2.7080    5.2498 N   0  0  0  0  0  0  0  0  0  0  0  0
   47.7749    3.5183    6.2925 N   0  0  0  0  0  0  0  0  0  0  0  0
   43.9661    5.5097   11.3402 C   0  0  0  0  0  0  0  0  0  0  0  0
   43.8137    2.7337   11.0526 C   0  0  0  0  0  0  0  0  0  0  0  0
   45.2811    1.4897    9.1232 O   0  0  0  0  0  0  0  0  0  0  0  0
   43.1565    3.3421   12.0452 C   0  0  0  0  0  0  0  0  0  0  0  0
   43.2369    4.7688   12.1889 C   0  0  0  0  0  0  0  0  0  0  0  0
   44.0897    6.9971   11.4405 C   0  0  0  0  0  0  0  0  0  0  0  0
   46.5853    5.5051    7.6869 H   0  0  0  0  0  0  0  0  0  0  0  0
   43.7685    1.6542   10.9299 H   0  0  0  0  0  0  0  0  0  0  0  0
   42.5622    2.7740   12.7526 H   0  0  0  0  0  0  0  0  0  0  0  0
   42.6898    5.2240   13.0083 H   0  0  0  0  0  0  0  0  0  0  0  0
   45.1350    7.2884   11.5863 H   0  0  0  0  0  0  0  0  0  0  0  0
   43.7145    7.4776   10.5309 H   0  0  0  0  0  0  0  0  0  0  0  0
   43.5161    7.3958   12.2842 H   0  0  0  0  0  0  0  0  0  0  0  0
  3  4  1  0
  4  2  1  0
  5  2  1  0
  6  5  2  0
  7  3  1  0
  8  6  1  0
  9  7  1  0
 10  9  1  0
 11 12  1  0
 12  7  2  0
 13  5  1  0
 14  2  1  0
 15  4  2  0
 16 14  2  0
 17 16  1  0
 18 13  1  0
 17 13  2  0
  8  3  2  0
 10 11  2  0
  8 19  1  0
 14 20  1  0
 16 21  1  0
 17 22  1  0
 18 23  1  0
 18 24  1  0
 18 25  1  0
M  CHG  2   1   1   9  -1
M  END
> <Uni-Dock RESULT> 
ENERGY=   -3.693  LOWER_BOUND=    4.979  UPPER_BOUND=    6.797
INTER + INTRA:          -3.693
INTER:                  -3.693
INTRA:                   0.000
UNBOUND:                 0.000

$$$$

     RDKit          3D

 25 26  0  0  0  0  0  0  0  0999 V2000
   47.0176    8.1381   12.6485 K   0  0  0  0  0 15  0  0  0  0  0  0
   47.7735    7.5922   12.8548 N   0  0  0  0  0  0  0  0  0  0  0  0
   45.4243    7.1298   12.3922 C   0  0  0  0  0  0  0  0  0  0  0  0
   46.7713    6.6170   12.7380 C   0  0  0  0  0  0  0  0  0  0  0  0
   47.5085    8.9249   12.5509 C   0  0  0  0  0  0  0  0  0  0  0  0
   46.3420    9.3585   12.1839 N   0  0  0  0  0  0  0  0  0  0  0  0
   44.1717    6.1878   12.3351 C   0  0  0  0  0  0  0  0  0  0  0  0
   45.3285    8.4406   12.1283 C   0  0  0  0  0  0  0  0  0  0  0  0
   44.0054    5.0582   13.0587 N   0  0  0  0  0  0  0  0  0  0  0  0
   42.7552    4.6355   12.7560 N   0  0  0  0  0  0  0  0  0  0  0  0
   42.1898    5.4968   11.8850 N   0  0  0  0  0  0  0  0  0  0  0  0
   43.0633    6.4920   11.6110 N   0  0  0  0  0  0  0  0  0  0  0  0
   48.6550    9.8956   12.6596 C   0  0  0  0  0  0  0  0  0  0  0  0
   49.0507    7.1888   13.2327 C   0  0  0  0  0  0  0  0  0  0  0  0
   47.0119    5.4170   12.8760 O   0  0  0  0  0  0  0  0  0  0  0  0
   50.0677    8.0509   13.3320 C   0  0  0  0  0  0  0  0  0  0  0  0
   49.8598    9.4410   13.0373 C   0  0  0  0  0  0  0  0  0  0  0  0
   48.3782   11.3301   12.3378 C   0  0  0  0  0  0  0  0  0  0  0  0
   44.3558    8.8527   11.8617 H   0  0  0  0  0  0  0  0  0  0  0  0
   49.1894    6.1319   13.4475 H   0  0  0  0  0  0  0  0  0  0  0  0
   51.0561    7.7174   13.6291 H   0  0  0  0  0  0  0  0  0  0  0  0
   50.7111   10.1080   13.1287 H   0  0  0  0  0  0  0  0  0  0  0  0
   48.0323   11.4337   11.3042 H   0  0  0  0  0  0  0  0  0  0  0  0
   47.6120   11.7348   13.0072 H   0  0  0  0  0  0  0  0  0  0  0  0
   49.2738   11.9508   12.4491 H   0  0  0  0  0  0  0  0  0  0  0  0
  3  4  1  0
  4  2  1  0
  5  2  1  0
  6  5  2  0
  7  3  1  0
  8  6  1  0
  9  7  1  0
 10  9  1  0
 11 12  1  0
 12  7  2  0
 13  5  1  0
 14  2  1  0
 15  4  2  0
 16 14  2  0
 17 16  1  0
 18 13  1  0
 17 13  2  0
  8  3  2  0
 10 11  2  0
  8 19  1  0
 14 20  1  0
 16 21  1  0
 17 22  1  0
 18 23  1  0
 18 24  1  0
 18 25  1  0
M  CHG  2   1   1   9  -1
M  END
> <Uni-Dock RESULT> 
ENERGY=   -3.474  LOWER_BOUND=    2.614  UPPER_BOUND=    5.522
INTER + INTRA:          -3.474
INTER:                  -3.474
INTRA:                   0.000
UNBOUND:                 0.000

$$$$

     RDKit          3D

 25 26  0  0  0  0  0  0  0  0999 V2000
   45.6197    7.2740   12.5190 K   0  0  0  0  0 15  0  0  0  0  0  0
   46.1879    6.6562   12.9744 N   0  0  0  0  0  0  0  0  0  0  0  0
   46.3618    9.0230   12.4135 C   0  0  0  0  0  0  0  0  0  0  0  0
   46.9695    7.8202   13.0309 C   0  0  0  0  0  0  0  0  0  0  0  0
   44.8922    6.6930   12.4659 C   0  0  0  0  0  0  0  0  0  0  0  0
   44.3400    7.7649   11.9868 N   0  0  0  0  0  0  0  0  0  0  0  0
   47.1478   10.3746   12.2907 C   0  0  0  0  0  0  0  0  0  0  0  0
   45.1043    8.8999   11.9657 C   0  0  0  0  0  0  0  0  0  0  0  0
   48.4900   10.4954   12.1856 N   0  0  0  0  0  0  0  0  0  0  0  0
   48.7045   11.8207   12.0103 N   0  0  0  0  0  0  0  0  0  0  0  0
   47.5211   12.4685   12.0002 N   0  0  0  0  0  0  0  0  0  0  0  0
   46.5212   11.5735   12.1664 N   0  0  0  0  0  0  0  0  0  0  0  0
   44.1092    5.4065   12.4863 C   0  0  0  0  0  0  0  0  0  0  0  0
   46.7190    5.4752   13.4843 C   0  0  0  0  0  0  0  0  0  0  0  0
   48.0660    7.8411   13.5914 O   0  0  0  0  0  0  0  0  0  0  0  0
   46.0251    4.3326   13.4998 C   0  0  0  0  0  0  0  0  0  0  0  0
   44.6845    4.3016   12.9853 C   0  0  0  0  0  0  0  0  0  0  0  0
   42.7172    5.4365   11.9391 C   0  0  0  0  0  0  0  0  0  0  0  0
   44.6210    9.7653   11.5135 H   0  0  0  0  0  0  0  0  0  0  0  0
   47.7335    5.5197   13.8731 H   0  0  0  0  0  0  0  0  0  0  0  0
   46.4567    3.4219   13.9007 H   0  0  0  0  0  0  0  0  0  0  0  0
   44.1547    3.3550   13.0171 H   0  0  0  0  0  0  0  0  0  0  0  0
   42.0964    6.1408   12.5025 H   0  0  0  0  0  0  0  0  0  0  0  0
   42.7230    5.7373   10.8862 H   0  0  0  0  0  0  0  0  0  0  0  0
   42.2369    4.4539   11.9982 H   0  0  0  0  0  0  0  0  0  0  0  0
  3  4  1  0
  4  2  1  0
  5  2  1  0
  6  5  2  0
  7  3  1  0
  8  6  1  0
  9  7  1  0
 10  9  1  0
 11 12  1  0
 12  7  2  0
 13  5  1  0
 14  2  1  0
 15  4  2  0
 16 14  2  0
 17 16  1  0
 18 13  1  0
 17 13  2  0
  8  3  2  0
 10 11  2  0
  8 19  1  0
 14 20  1  0
 16 21  1  0
 17 22  1  0
 18 23  1  0
 18 24  1  0
 18 25  1  0
M  CHG  2   1   1   9  -1
M  END
> <Uni-Dock RESULT> 
ENERGY=   -3.458  LOWER_BOUND=    1.865  UPPER_BOUND=    2.940
INTER + INTRA:          -3.458
INTER:                  -3.458
INTRA:                   0.000
UNBOUND:                 0.000

$$$$

     RDKit          3D

 25 26  0  0  0  0  0  0  0  0999 V2000
   45.4962    7.5810   12.2703 K   0  0  0  0  0 15  0  0  0  0  0  0
   46.3616    7.5534   12.6732 N   0  0  0  0  0  0  0  0  0  0  0  0
   44.7379    5.8529   12.0262 C   0  0  0  0  0  0  0  0  0  0  0  0
   46.0495    6.1859   12.6311 C   0  0  0  0  0  0  0  0  0  0  0  0
   45.5237    8.4932   12.0786 C   0  0  0  0  0  0  0  0  0  0  0  0
   44.4076    8.1890   11.4913 N   0  0  0  0  0  0  0  0  0  0  0  0
   44.1877    4.3844   12.0046 C   0  0  0  0  0  0  0  0  0  0  0  0
   44.0438    6.8696   11.4958 C   0  0  0  0  0  0  0  0  0  0  0  0
   44.4737    3.4255   12.9134 N   0  0  0  0  0  0  0  0  0  0  0  0
   43.7118    2.3670   12.5494 N   0  0  0  0  0  0  0  0  0  0  0  0
   42.9843    2.6920   11.4608 N   0  0  0  0  0  0  0  0  0  0  0  0
   43.2613    3.9663   11.1032 N   0  0  0  0  0  0  0  0  0  0  0  0
   45.9600    9.9338   12.1316 C   0  0  0  0  0  0  0  0  0  0  0  0
   47.5522    7.9437   13.2788 C   0  0  0  0  0  0  0  0  0  0  0  0
   46.8341    5.3268   13.0350 O   0  0  0  0  0  0  0  0  0  0  0  0
   47.9382    9.2227   13.3284 C   0  0  0  0  0  0  0  0  0  0  0  0
   47.1166   10.2422   12.7383 C   0  0  0  0  0  0  0  0  0  0  0  0
   45.0642   10.9504   11.4978 C   0  0  0  0  0  0  0  0  0  0  0  0
   43.0790    6.6623   11.0342 H   0  0  0  0  0  0  0  0  0  0  0  0
   48.1626    7.1571   13.7161 H   0  0  0  0  0  0  0  0  0  0  0  0
   48.8695    9.5074   13.8058 H   0  0  0  0  0  0  0  0  0  0  0  0
   47.4659   11.2680   12.7988 H   0  0  0  0  0  0  0  0  0  0  0  0
   44.9410   10.7435   10.4297 H   0  0  0  0  0  0  0  0  0  0  0  0
   44.0777   10.9451   11.9729 H   0  0  0  0  0  0  0  0  0  0  0  0
   45.4697   11.9635   11.5923 H   0  0  0  0  0  0  0  0  0  0  0  0
  3  4  1  0
  4  2  1  0
  5  2  1  0
  6  5  2  0
  7  3  1  0
  8  6  1  0
  9  7  1  0
 10  9  1  0
 11 12  1  0
 12  7  2  0
 13  5  1  0
 14  2  1  0
 15  4  2  0
 16 14  2  0
 17 16  1  0
 18 13  1  0
 17 13  2  0
  8  3  2  0
 10 11  2  0
  8 19  1  0
 14 20  1  0
 16 21  1  0
 17 22  1  0
 18 23  1  0
 18 24  1  0
 18 25  1  0
M  CHG  2   1   1   9  -1
M  END
> <Uni-Dock RESULT> 
ENERGY=   -3.431  LOWER_BOUND=    2.360  UPPER_BOUND=    5.925
INTER + INTRA:          -3.431
INTER:                  -3.431
INTRA:                   0.000
UNBOUND:                 0.000

$$$$

     RDKit          3D

 25 26  0  0  0  0  0  0  0  0999 V2000
   52.1337    2.7427   18.3050 K   0  0  0  0  0 15  0  0  0  0  0  0
   52.3284    1.9019   17.8962 N   0  0  0  0  0  0  0  0  0  0  0  0
   50.3919    3.3839   17.8857 C   0  0  0  0  0  0  0  0  0  0  0  0
   51.0181    2.1159   17.4417 C   0  0  0  0  0  0  0  0  0  0  0  0
   53.0003    2.8841   18.6191 C   0  0  0  0  0  0  0  0  0  0  0  0
   52.4695    4.0212   18.9487 N   0  0  0  0  0  0  0  0  0  0  0  0
   48.8955    3.7236   17.5613 C   0  0  0  0  0  0  0  0  0  0  0  0
   51.1686    4.2290   18.5781 C   0  0  0  0  0  0  0  0  0  0  0  0
   47.9063    2.8198   17.3830 N   0  0  0  0  0  0  0  0  0  0  0  0
   46.7855    3.5624   17.2221 N   0  0  0  0  0  0  0  0  0  0  0  0
   47.0986    4.8714   17.3136 N   0  0  0  0  0  0  0  0  0  0  0  0
   48.4260    4.9981   17.5374 N   0  0  0  0  0  0  0  0  0  0  0  0
   54.4194    2.5873   19.0269 C   0  0  0  0  0  0  0  0  0  0  0  0
   52.9584    0.7060   17.5649 C   0  0  0  0  0  0  0  0  0  0  0  0
   50.4505    1.3188   16.6939 O   0  0  0  0  0  0  0  0  0  0  0  0
   54.2171    0.4413   17.9293 C   0  0  0  0  0  0  0  0  0  0  0  0
   54.9641    1.4106   18.6811 C   0  0  0  0  0  0  0  0  0  0  0  0
   55.1477    3.6360   19.8066 C   0  0  0  0  0  0  0  0  0  0  0  0
   50.7456    5.1752   18.9139 H   0  0  0  0  0  0  0  0  0  0  0  0
   52.3781   -0.0133   16.9918 H   0  0  0  0  0  0  0  0  0  0  0  0
   54.6907   -0.4972   17.6623 H   0  0  0  0  0  0  0  0  0  0  0  0
   55.9830    1.1580   18.9564 H   0  0  0  0  0  0  0  0  0  0  0  0
   55.2195    4.5644   19.2307 H   0  0  0  0  0  0  0  0  0  0  0  0
   54.6300    3.8457   20.7484 H   0  0  0  0  0  0  0  0  0  0  0  0
   56.1675    3.3224   20.0541 H   0  0  0  0  0  0  0  0  0  0  0  0
  3  4  1  0
  4  2  1  0
  5  2  1  0
  6  5  2  0
  7  3  1  0
  8  6  1  0
  9  7  1  0
 10  9  1  0
 11 12  1  0
 12  7  2  0
 13  5  1  0
 14  2  1  0
 15  4  2  0
 16 14  2  0
 17 16  1  0
 18 13  1  0
 17 13  2  0
  8  3  2  0
 10 11  2  0
  8 19  1  0
 14 20  1  0
 16 21  1  0
 17 22  1  0
 18 23  1  0
 18 24  1  0
 18 25  1  0
M  CHG  2   1   1   9  -1
M  END
> <Uni-Dock RESULT> 
ENERGY=   -3.290  LOWER_BOUND=    8.050  UPPER_BOUND=   10.497
INTER + INTRA:          -3.290
INTER:                  -3.290
INTRA:                   0.000
UNBOUND:                 0.000

$$$$

     RDKit          3D

 25 26  0  0  0  0  0  0  0  0999 V2000
   45.9080    7.4401   12.6311 K   0  0  0  0  0 15  0  0  0  0  0  0
   46.5879    7.9264   13.0929 N   0  0  0  0  0  0  0  0  0  0  0  0
   44.6919    8.5700   11.7008 C   0  0  0  0  0  0  0  0  0  0  0  0
   45.8693    8.9779   12.5035 C   0  0  0  0  0  0  0  0  0  0  0  0
   46.1328    6.6138   13.0002 C   0  0  0  0  0  0  0  0  0  0  0  0
   45.0635    6.2696   12.3510 N   0  0  0  0  0  0  0  0  0  0  0  0
   43.8490    9.6102   10.8840 C   0  0  0  0  0  0  0  0  0  0  0  0
   44.3805    7.2662   11.7081 C   0  0  0  0  0  0  0  0  0  0  0  0
   44.3194   10.7648   10.3616 N   0  0  0  0  0  0  0  0  0  0  0  0
   43.2754   11.2820    9.6719 N   0  0  0  0  0  0  0  0  0  0  0  0
   42.2168   10.4517    9.7723 N   0  0  0  0  0  0  0  0  0  0  0  0
   42.5583    9.3826   10.5265 N   0  0  0  0  0  0  0  0  0  0  0  0
   46.9420    5.5549   13.7018 C   0  0  0  0  0  0  0  0  0  0  0  0
   47.7382    8.2316   13.8143 C   0  0  0  0  0  0  0  0  0  0  0  0
   46.1796   10.1567   12.6792 O   0  0  0  0  0  0  0  0  0  0  0  0
   48.4580    7.2914   14.4347 C   0  0  0  0  0  0  0  0  0  0  0  0
   48.0457    5.9170   14.3738 C   0  0  0  0  0  0  0  0  0  0  0  0
   46.4618    4.1414   13.6048 C   0  0  0  0  0  0  0  0  0  0  0  0
   43.5162    6.9297   11.1366 H   0  0  0  0  0  0  0  0  0  0  0  0
   48.0317    9.2780   13.8524 H   0  0  0  0  0  0  0  0  0  0  0  0
   49.3525    7.5489   14.9915 H   0  0  0  0  0  0  0  0  0  0  0  0
   48.6567    5.1846   14.8917 H   0  0  0  0  0  0  0  0  0  0  0  0
   45.4589    4.0445   14.0332 H   0  0  0  0  0  0  0  0  0  0  0  0
   46.4309    3.8153   12.5600 H   0  0  0  0  0  0  0  0  0  0  0  0
   47.1189    3.4518   14.1457 H   0  0  0  0  0  0  0  0  0  0  0  0
  3  4  1  0
  4  2  1  0
  5  2  1  0
  6  5  2  0
  7  3  1  0
  8  6  1  0
  9  7  1  0
 10  9  1  0
 11 12  1  0
 12  7  2  0
 13  5  1  0
 14  2  1  0
 15  4  2  0
 16 14  2  0
 17 16  1  0
 18 13  1  0
 17 13  2  0
  8  3  2  0
 10 11  2  0
  8 19  1  0
 14 20  1  0
 16 21  1  0
 17 22  1  0
 18 23  1  0
 18 24  1  0
 18 25  1  0
M  CHG  2   1   1   9  -1
M  END
> <Uni-Dock RESULT> 
ENERGY=   -3.277  LOWER_BOUND=    1.935  UPPER_BOUND=    3.270
INTER + INTRA:          -3.277
INTER:                  -3.277
INTRA:                   0.000
UNBOUND:                 0.000

$$$$
