
     RDKit          3D

 25 26  0  0  0  0  0  0  0  0999 V2000
   45.6107    3.1169    8.5062 K   0  0  0  0  0 15  0  0  0  0  0  0
   45.5960    2.1683    8.6060 N   0  0  0  0  0  0  0  0  0  0  0  0
   44.4945    4.0142    9.7575 C   0  0  0  0  0  0  0  0  0  0  0  0
   44.6958    2.5531    9.6115 C   0  0  0  0  0  0  0  0  0  0  0  0
   46.1565    3.1148    7.7524 C   0  0  0  0  0  0  0  0  0  0  0  0
   45.9250    4.3882    7.8426 N   0  0  0  0  0  0  0  0  0  0  0  0
   43.6107    4.6153   10.9052 C   0  0  0  0  0  0  0  0  0  0  0  0
   45.1046    4.7990    8.8581 C   0  0  0  0  0  0  0  0  0  0  0  0
   43.0410    5.8454   10.8183 N   0  0  0  0  0  0  0  0  0  0  0  0
   42.4468    6.0348   12.0181 N   0  0  0  0  0  0  0  0  0  0  0  0
   42.6684    4.9575   12.7995 N   0  0  0  0  0  0  0  0  0  0  0  0
   43.4085    4.0518   12.1172 N   0  0  0  0  0  0  0  0  0  0  0  0
   47.0763    2.6075    6.6729 C   0  0  0  0  0  0  0  0  0  0  0  0
   45.8767    0.8142    8.4496 C   0  0  0  0  0  0  0  0  0  0  0  0
   44.0897    1.7257   10.2934 O   0  0  0  0  0  0  0  0  0  0  0  0
   46.6953    0.3642    7.4933 C   0  0  0  0  0  0  0  0  0  0  0  0
   47.3101    1.2892    6.5829 C   0  0  0  0  0  0  0  0  0  0  0  0
   47.6852    3.6182    5.7533 C   0  0  0  0  0  0  0  0  0  0  0  0
   44.9730    5.8782    8.9280 H   0  0  0  0  0  0  0  0  0  0  0  0
   45.3984    0.1291    9.1457 H   0  0  0  0  0  0  0  0  0  0  0  0
   46.9025   -0.6953    7.3879 H   0  0  0  0  0  0  0  0  0  0  0  0
   47.9671    0.8836    5.8202 H   0  0  0  0  0  0  0  0  0  0  0  0
   46.9066    4.1650    5.2113 H   0  0  0  0  0  0  0  0  0  0  0  0
   48.3367    3.1482    5.0086 H   0  0  0  0  0  0  0  0  0  0  0  0
   48.2919    4.3354    6.3156 H   0  0  0  0  0  0  0  0  0  0  0  0
  3  4  1  0
  4  2  1  0
  5  2  1  0
  6  5  2  0
  7  3  1  0
  8  6  1  0
  9  7  1  0
 10  9  1  0
 11 12  1  0
 12  7  2  0
 13  5  1  0
 14  2  1  0
 15  4  2  0
 16 14  2  0
 17 16  1  0
 18 13  1  0
 17 13  2  0
  8  3  2  0
 10 11  2  0
  8 19  1  0
 14 20  1  0
 16 21  1  0
 17 22  1  0
 18 23  1  0
 18 24  1  0
 18 25  1  0
M  CHG  2   1   1   9  -1
M  END
> <Uni-Dock RESULT> 
ENERGY=   -5.198  LOWER_BOUND=    0.000  UPPER_BOUND=    0.000
INTER + INTRA:          -5.198
INTER:                  -5.198
INTRA:                   0.000
UNBOUND:                 0.000

$$$$

     RDKit          3D

 25 26  0  0  0  0  0  0  0  0999 V2000
   44.9373    6.9435   12.3786 K   0  0  0  0  0 15  0  0  0  0  0  0
   44.1593    6.5888   11.9558 N   0  0  0  0  0  0  0  0  0  0  0  0
   45.1434    8.8147   12.1085 C   0  0  0  0  0  0  0  0  0  0  0  0
   44.0697    7.9386   11.5827 C   0  0  0  0  0  0  0  0  0  0  0  0
   45.2541    6.1211   12.6777 C   0  0  0  0  0  0  0  0  0  0  0  0
   46.2259    6.8811   13.0794 N   0  0  0  0  0  0  0  0  0  0  0  0
   45.1290   10.3663   11.8803 C   0  0  0  0  0  0  0  0  0  0  0  0
   46.1305    8.2152   12.7892 C   0  0  0  0  0  0  0  0  0  0  0  0
   46.2574   11.1210   11.9311 N   0  0  0  0  0  0  0  0  0  0  0  0
   45.8272   12.3935   11.7761 N   0  0  0  0  0  0  0  0  0  0  0  0
   44.4838   12.3972   11.6517 N   0  0  0  0  0  0  0  0  0  0  0  0
   44.0223   11.1262   11.7221 N   0  0  0  0  0  0  0  0  0  0  0  0
   45.2900    4.6492   12.9952 C   0  0  0  0  0  0  0  0  0  0  0  0
   43.1537    5.7188   11.5447 C   0  0  0  0  0  0  0  0  0  0  0  0
   43.1798    8.3498   10.8371 O   0  0  0  0  0  0  0  0  0  0  0  0
   43.1841    4.4129   11.8289 C   0  0  0  0  0  0  0  0  0  0  0  0
   44.2834    3.8676   12.5751 C   0  0  0  0  0  0  0  0  0  0  0  0
   46.4614    4.1389   13.7732 C   0  0  0  0  0  0  0  0  0  0  0  0
   46.9422    8.8255   13.1837 H   0  0  0  0  0  0  0  0  0  0  0  0
   42.3322    6.1497   10.9773 H   0  0  0  0  0  0  0  0  0  0  0  0
   42.3903    3.7508   11.5005 H   0  0  0  0  0  0  0  0  0  0  0  0
   44.2712    2.8026   12.7840 H   0  0  0  0  0  0  0  0  0  0  0  0
   47.3944    4.3221   13.2302 H   0  0  0  0  0  0  0  0  0  0  0  0
   46.3907    3.0606   13.9521 H   0  0  0  0  0  0  0  0  0  0  0  0
   46.5203    4.6313   14.7494 H   0  0  0  0  0  0  0  0  0  0  0  0
  3  4  1  0
  4  2  1  0
  5  2  1  0
  6  5  2  0
  7  3  1  0
  8  6  1  0
  9  7  1  0
 10  9  1  0
 11 12  1  0
 12  7  2  0
 13  5  1  0
 14  2  1  0
 15  4  2  0
 16 14  2  0
 17 16  1  0
 18 13  1  0
 17 13  2  0
  8  3  2  0
 10 11  2  0
  8 19  1  0
 14 20  1  0
 16 21  1  0
 17 22  1  0
 18 23  1  0
 18 24  1  0
 18 25  1  0
M  CHG  2   1   1   9  -1
M  END
> <Uni-Dock RESULT> 
ENERGY=   -4.095  LOWER_BOUND=    4.917  UPPER_BOUND=    6.490
INTER + INTRA:          -4.095
INTER:                  -4.095
INTRA:                   0.000
UNBOUND:                 0.000

$$$$

     RDKit          3D

 25 26  0  0  0  0  0  0  0  0999 V2000
   45.1766    7.7539   12.0670 K   0  0  0  0  0 15  0  0  0  0  0  0
   44.5509    8.3291   11.6338 N   0  0  0  0  0  0  0  0  0  0  0  0
   44.5794    5.9516   12.1755 C   0  0  0  0  0  0  0  0  0  0  0  0
   43.8600    7.1083   11.5914 C   0  0  0  0  0  0  0  0  0  0  0  0
   45.7769    8.4306   12.2859 C   0  0  0  0  0  0  0  0  0  0  0  0
   46.3722    7.4275   12.8540 N   0  0  0  0  0  0  0  0  0  0  0  0
   43.9974    4.4969   12.1066 C   0  0  0  0  0  0  0  0  0  0  0  0
   45.7538    6.2097   12.7682 C   0  0  0  0  0  0  0  0  0  0  0  0
   44.3627    3.5235   12.9810 N   0  0  0  0  0  0  0  0  0  0  0  0
   43.7254    2.4133   12.5455 N   0  0  0  0  0  0  0  0  0  0  0  0
   43.0151    2.7131   11.4384 N   0  0  0  0  0  0  0  0  0  0  0  0
   43.1794    4.0236   11.1400 N   0  0  0  0  0  0  0  0  0  0  0  0
   46.4257    9.7894   12.3218 C   0  0  0  0  0  0  0  0  0  0  0  0
   43.9592    9.4467   11.0527 C   0  0  0  0  0  0  0  0  0  0  0  0
   42.7194    7.0219   11.1347 O   0  0  0  0  0  0  0  0  0  0  0  0
   44.5364   10.6521   11.0820 C   0  0  0  0  0  0  0  0  0  0  0  0
   45.8042   10.8236   11.7346 C   0  0  0  0  0  0  0  0  0  0  0  0
   47.7447    9.9067   13.0179 C   0  0  0  0  0  0  0  0  0  0  0  0
   46.3078    5.3858   13.2168 H   0  0  0  0  0  0  0  0  0  0  0  0
   42.9976    9.2977   10.5672 H   0  0  0  0  0  0  0  0  0  0  0  0
   44.0599   11.5113   10.6224 H   0  0  0  0  0  0  0  0  0  0  0  0
   46.2386   11.8182   11.7374 H   0  0  0  0  0  0  0  0  0  0  0  0
   47.6514    9.6228   14.0712 H   0  0  0  0  0  0  0  0  0  0  0  0
   48.1303   10.9314   12.9858 H   0  0  0  0  0  0  0  0  0  0  0  0
   48.4899    9.2595   12.5440 H   0  0  0  0  0  0  0  0  0  0  0  0
  3  4  1  0
  4  2  1  0
  5  2  1  0
  6  5  2  0
  7  3  1  0
  8  6  1  0
  9  7  1  0
 10  9  1  0
 11 12  1  0
 12  7  2  0
 13  5  1  0
 14  2  1  0
 15  4  2  0
 16 14  2  0
 17 16  1  0
 18 13  1  0
 17 13  2  0
  8  3  2  0
 10 11  2  0
  8 19  1  0
 14 20  1  0
 16 21  1  0
 17 22  1  0
 18 23  1  0
 18 24  1  0
 18 25  1  0
M  CHG  2   1   1   9  -1
M  END
> <Uni-Dock RESULT> 
ENERGY=   -3.896  LOWER_BOUND=    4.672  UPPER_BOUND=    6.626
INTER + INTRA:          -3.896
INTER:                  -3.896
INTRA:                   0.000
UNBOUND:                 0.000

$$$$

     RDKit          3D

 25 26  0  0  0  0  0  0  0  0999 V2000
   45.3158    8.5856   12.0818 K   0  0  0  0  0 15  0  0  0  0  0  0
   44.4832    8.5607   11.6169 N   0  0  0  0  0  0  0  0  0  0  0  0
   45.8255    6.8943   12.7866 C   0  0  0  0  0  0  0  0  0  0  0  0
   44.5928    7.2249   12.0328 C   0  0  0  0  0  0  0  0  0  0  0  0
   45.4318    9.5053   11.9995 C   0  0  0  0  0  0  0  0  0  0  0  0
   46.4759    9.2235   12.7163 N   0  0  0  0  0  0  0  0  0  0  0  0
   46.1567    5.4252   13.2244 C   0  0  0  0  0  0  0  0  0  0  0  0
   46.6449    7.9145   13.0781 C   0  0  0  0  0  0  0  0  0  0  0  0
   46.9881    5.1434   14.2610 N   0  0  0  0  0  0  0  0  0  0  0  0
   47.0874    3.7949   14.2654 N   0  0  0  0  0  0  0  0  0  0  0  0
   46.3500    3.2909   13.2542 N   0  0  0  0  0  0  0  0  0  0  0  0
   45.7594    4.3055   12.5794 N   0  0  0  0  0  0  0  0  0  0  0  0
   45.2102   10.9244   11.5461 C   0  0  0  0  0  0  0  0  0  0  0  0
   43.3783    8.9297   10.8554 C   0  0  0  0  0  0  0  0  0  0  0  0
   43.7032    6.4011   11.8165 O   0  0  0  0  0  0  0  0  0  0  0  0
   43.1830   10.1887   10.4505 C   0  0  0  0  0  0  0  0  0  0  0  0
   44.1272   11.2104   10.8070 C   0  0  0  0  0  0  0  0  0  0  0  0
   46.2263   11.9452   11.9503 C   0  0  0  0  0  0  0  0  0  0  0  0
   47.5567    7.7118   13.6388 H   0  0  0  0  0  0  0  0  0  0  0  0
   42.6725    8.1431   10.5992 H   0  0  0  0  0  0  0  0  0  0  0  0
   42.3159   10.4567    9.8565 H   0  0  0  0  0  0  0  0  0  0  0  0
   43.9318   12.2200   10.4598 H   0  0  0  0  0  0  0  0  0  0  0  0
   46.2893   12.0158   13.0411 H   0  0  0  0  0  0  0  0  0  0  0  0
   45.9743   12.9410   11.5698 H   0  0  0  0  0  0  0  0  0  0  0  0
   47.2140   11.6830   11.5573 H   0  0  0  0  0  0  0  0  0  0  0  0
  3  4  1  0
  4  2  1  0
  5  2  1  0
  6  5  2  0
  7  3  1  0
  8  6  1  0
  9  7  1  0
 10  9  1  0
 11 12  1  0
 12  7  2  0
 13  5  1  0
 14  2  1  0
 15  4  2  0
 16 14  2  0
 17 16  1  0
 18 13  1  0
 17 13  2  0
  8  3  2  0
 10 11  2  0
  8 19  1  0
 14 20  1  0
 16 21  1  0
 17 22  1  0
 18 23  1  0
 18 24  1  0
 18 25  1  0
M  CHG  2   1   1   9  -1
M  END
> <Uni-Dock RESULT> 
ENERGY=   -3.633  LOWER_BOUND=    5.399  UPPER_BOUND=    7.167
INTER + INTRA:          -3.633
INTER:                  -3.633
INTRA:                   0.000
UNBOUND:                 0.000

$$$$

     RDKit          3D

 25 26  0  0  0  0  0  0  0  0999 V2000
   45.5541    7.1830   12.5155 K   0  0  0  0  0 15  0  0  0  0  0  0
   45.1854    6.3090   12.4144 N   0  0  0  0  0  0  0  0  0  0  0  0
   44.5499    8.5232   11.6142 C   0  0  0  0  0  0  0  0  0  0  0  0
   44.2817    7.0660   11.6530 C   0  0  0  0  0  0  0  0  0  0  0  0
   46.3063    6.9040   12.9873 C   0  0  0  0  0  0  0  0  0  0  0  0
   46.5722    8.1705   12.8945 N   0  0  0  0  0  0  0  0  0  0  0  0
   43.5734    9.5239   10.9040 C   0  0  0  0  0  0  0  0  0  0  0  0
   45.6711    8.9454   12.2158 C   0  0  0  0  0  0  0  0  0  0  0  0
   43.9763   10.7412   10.4556 N   0  0  0  0  0  0  0  0  0  0  0  0
   42.8487   11.3287    9.9954 N   0  0  0  0  0  0  0  0  0  0  0  0
   41.8052   10.4931   10.1776 N   0  0  0  0  0  0  0  0  0  0  0  0
   42.2408    9.3496   10.7573 N   0  0  0  0  0  0  0  0  0  0  0  0
   47.2467    6.0073   13.7490 C   0  0  0  0  0  0  0  0  0  0  0  0
   44.9625    4.9412   12.5417 C   0  0  0  0  0  0  0  0  0  0  0  0
   43.3565    6.5422   11.0314 O   0  0  0  0  0  0  0  0  0  0  0  0
   45.7956    4.1457   13.2201 C   0  0  0  0  0  0  0  0  0  0  0  0
   46.9678    4.6978   13.8395 C   0  0  0  0  0  0  0  0  0  0  0  0
   48.4519    6.6391   14.3703 C   0  0  0  0  0  0  0  0  0  0  0  0
   45.9065   10.0090   12.2006 H   0  0  0  0  0  0  0  0  0  0  0  0
   44.0721    4.5412   12.0622 H   0  0  0  0  0  0  0  0  0  0  0  0
   45.6042    3.0818   13.3090 H   0  0  0  0  0  0  0  0  0  0  0  0
   47.6192    4.0184   14.3799 H   0  0  0  0  0  0  0  0  0  0  0  0
   49.0814    7.1044   13.6047 H   0  0  0  0  0  0  0  0  0  0  0  0
   49.0672    5.9041   14.9004 H   0  0  0  0  0  0  0  0  0  0  0  0
   48.1560    7.4046   15.0950 H   0  0  0  0  0  0  0  0  0  0  0  0
  3  4  1  0
  4  2  1  0
  5  2  1  0
  6  5  2  0
  7  3  1  0
  8  6  1  0
  9  7  1  0
 10  9  1  0
 11 12  1  0
 12  7  2  0
 13  5  1  0
 14  2  1  0
 15  4  2  0
 16 14  2  0
 17 16  1  0
 18 13  1  0
 17 13  2  0
  8  3  2  0
 10 11  2  0
  8 19  1  0
 14 20  1  0
 16 21  1  0
 17 22  1  0
 18 23  1  0
 18 24  1  0
 18 25  1  0
M  CHG  2   1   1   9  -1
M  END
> <Uni-Dock RESULT> 
ENERGY=   -3.620  LOWER_BOUND=    5.002  UPPER_BOUND=    6.198
INTER + INTRA:          -3.620
INTER:                  -3.620
INTRA:                   0.000
UNBOUND:                 0.000

$$$$

     RDKit          3D

 25 26  0  0  0  0  0  0  0  0999 V2000
   47.0094    8.0758   12.9526 K   0  0  0  0  0 15  0  0  0  0  0  0
   47.7432    7.5234   13.2102 N   0  0  0  0  0  0  0  0  0  0  0  0
   45.4287    7.0869   12.5783 C   0  0  0  0  0  0  0  0  0  0  0  0
   46.7523    6.5561   12.9822 C   0  0  0  0  0  0  0  0  0  0  0  0
   47.4949    8.8698   12.9572 C   0  0  0  0  0  0  0  0  0  0  0  0
   46.3529    9.3224   12.5397 N   0  0  0  0  0  0  0  0  0  0  0  0
   44.1842    6.1501   12.3957 C   0  0  0  0  0  0  0  0  0  0  0  0
   45.3468    8.4093   12.3748 C   0  0  0  0  0  0  0  0  0  0  0  0
   43.1229    6.4911   11.6195 N   0  0  0  0  0  0  0  0  0  0  0  0
   42.2360    5.4844   11.7880 N   0  0  0  0  0  0  0  0  0  0  0  0
   42.7474    4.5801   12.6487 N   0  0  0  0  0  0  0  0  0  0  0  0
   43.9753    4.9859   13.0502 N   0  0  0  0  0  0  0  0  0  0  0  0
   48.6301    9.8328   13.1861 C   0  0  0  0  0  0  0  0  0  0  0  0
   48.9950    7.1004   13.6471 C   0  0  0  0  0  0  0  0  0  0  0  0
   46.9866    5.3505   13.0750 O   0  0  0  0  0  0  0  0  0  0  0  0
   50.0018    7.9554   13.8531 C   0  0  0  0  0  0  0  0  0  0  0  0
   49.8098    9.3587   13.6156 C   0  0  0  0  0  0  0  0  0  0  0  0
   48.3710   11.2818   12.9195 C   0  0  0  0  0  0  0  0  0  0  0  0
   44.3920    8.8352   12.0684 H   0  0  0  0  0  0  0  0  0  0  0  0
   49.1222    6.0339   13.8172 H   0  0  0  0  0  0  0  0  0  0  0  0
   50.9704    7.6066   14.1948 H   0  0  0  0  0  0  0  0  0  0  0  0
   50.6522   10.0195   13.7935 H   0  0  0  0  0  0  0  0  0  0  0  0
   48.0905   11.4373   11.8726 H   0  0  0  0  0  0  0  0  0  0  0  0
   49.2565   11.8953   13.1178 H   0  0  0  0  0  0  0  0  0  0  0  0
   47.5634   11.6533   13.5587 H   0  0  0  0  0  0  0  0  0  0  0  0
  3  4  1  0
  4  2  1  0
  5  2  1  0
  6  5  2  0
  7  3  1  0
  8  6  1  0
  9  7  1  0
 10  9  1  0
 11 12  1  0
 12  7  2  0
 13  5  1  0
 14  2  1  0
 15  4  2  0
 16 14  2  0
 17 16  1  0
 18 13  1  0
 17 13  2  0
  8  3  2  0
 10 11  2  0
  8 19  1  0
 14 20  1  0
 16 21  1  0
 17 22  1  0
 18 23  1  0
 18 24  1  0
 18 25  1  0
M  CHG  2   1   1   9  -1
M  END
> <Uni-Dock RESULT> 
ENERGY=   -3.483  LOWER_BOUND=    5.376  UPPER_BOUND=    6.816
INTER + INTRA:          -3.483
INTER:                  -3.483
INTRA:                   0.000
UNBOUND:                 0.000

$$$$

     RDKit          3D

 25 26  0  0  0  0  0  0  0  0999 V2000
   45.5841    5.8031   12.8663 K   0  0  0  0  0 15  0  0  0  0  0  0
   45.0169    6.4349   12.4314 N   0  0  0  0  0  0  0  0  0  0  0  0
   47.1546    6.5905   13.5945 C   0  0  0  0  0  0  0  0  0  0  0  0
   46.0722    7.2652   12.8395 C   0  0  0  0  0  0  0  0  0  0  0  0
   45.0711    5.0597   12.6422 C   0  0  0  0  0  0  0  0  0  0  0  0
   46.0534    4.4648   13.2458 N   0  0  0  0  0  0  0  0  0  0  0  0
   48.3487    7.3922   14.2199 C   0  0  0  0  0  0  0  0  0  0  0  0
   47.0643    5.2585   13.7160 C   0  0  0  0  0  0  0  0  0  0  0  0
   49.5447    6.8145   14.5048 N   0  0  0  0  0  0  0  0  0  0  0  0
   50.2647    7.7909   15.1020 N   0  0  0  0  0  0  0  0  0  0  0  0
   49.5155    8.9101   15.1833 N   0  0  0  0  0  0  0  0  0  0  0  0
   48.2983    8.6768   14.6378 N   0  0  0  0  0  0  0  0  0  0  0  0
   43.9156    4.2401   12.1305 C   0  0  0  0  0  0  0  0  0  0  0  0
   43.9385    7.0112   11.7667 C   0  0  0  0  0  0  0  0  0  0  0  0
   46.1071    8.4620   12.5512 O   0  0  0  0  0  0  0  0  0  0  0  0
   42.9116    6.2841   11.3151 C   0  0  0  0  0  0  0  0  0  0  0  0
   42.9036    4.8605   11.5048 C   0  0  0  0  0  0  0  0  0  0  0  0
   43.9643    2.7619   12.3555 C   0  0  0  0  0  0  0  0  0  0  0  0
   47.8461    4.7264   14.2570 H   0  0  0  0  0  0  0  0  0  0  0  0
   43.9648    8.0895   11.6289 H   0  0  0  0  0  0  0  0  0  0  0  0
   42.0794    6.7517   10.8001 H   0  0  0  0  0  0  0  0  0  0  0  0
   42.0523    4.3064   11.1223 H   0  0  0  0  0  0  0  0  0  0  0  0
   44.8427    2.3263   11.8680 H   0  0  0  0  0  0  0  0  0  0  0  0
   43.0794    2.2605   11.9488 H   0  0  0  0  0  0  0  0  0  0  0  0
   44.0080    2.5358   13.4259 H   0  0  0  0  0  0  0  0  0  0  0  0
  3  4  1  0
  4  2  1  0
  5  2  1  0
  6  5  2  0
  7  3  1  0
  8  6  1  0
  9  7  1  0
 10  9  1  0
 11 12  1  0
 12  7  2  0
 13  5  1  0
 14  2  1  0
 15  4  2  0
 16 14  2  0
 17 16  1  0
 18 13  1  0
 17 13  2  0
  8  3  2  0
 10 11  2  0
  8 19  1  0
 14 20  1  0
 16 21  1  0
 17 22  1  0
 18 23  1  0
 18 24  1  0
 18 25  1  0
M  CHG  2   1   1   9  -1
M  END
> <Uni-Dock RESULT> 
ENERGY=   -3.340  LOWER_BOUND=    5.049  UPPER_BOUND=    6.784
INTER + INTRA:          -3.340
INTER:                  -3.340
INTRA:                   0.000
UNBOUND:                 0.000

$$$$

     RDKit          3D

 25 26  0  0  0  0  0  0  0  0999 V2000
   46.8881    6.2921   13.6605 K   0  0  0  0  0 15  0  0  0  0  0  0
   46.7308    7.1847   13.3630 N   0  0  0  0  0  0  0  0  0  0  0  0
   45.6327    5.0439   12.9658 C   0  0  0  0  0  0  0  0  0  0  0  0
   45.6763    6.5068   12.7321 C   0  0  0  0  0  0  0  0  0  0  0  0
   47.5904    6.5144   14.2293 C   0  0  0  0  0  0  0  0  0  0  0  0
   47.5070    5.2447   14.4823 N   0  0  0  0  0  0  0  0  0  0  0  0
   44.5881    4.1232   12.2441 C   0  0  0  0  0  0  0  0  0  0  0  0
   46.5304    4.5446   13.8271 C   0  0  0  0  0  0  0  0  0  0  0  0
   44.2147    2.9155   12.7412 N   0  0  0  0  0  0  0  0  0  0  0  0
   43.3850    2.4002   11.8060 N   0  0  0  0  0  0  0  0  0  0  0  0
   43.2797    3.2676   10.7780 N   0  0  0  0  0  0  0  0  0  0  0  0
   44.0384    4.3600   11.0320 N   0  0  0  0  0  0  0  0  0  0  0  0
   48.6655    7.3302   14.8981 C   0  0  0  0  0  0  0  0  0  0  0  0
   46.8668    8.5520   13.1421 C   0  0  0  0  0  0  0  0  0  0  0  0
   44.8280    7.1005   12.0652 O   0  0  0  0  0  0  0  0  0  0  0  0
   47.8228    9.2755   13.7334 C   0  0  0  0  0  0  0  0  0  0  0  0
   48.7454    8.6435   14.6345 C   0  0  0  0  0  0  0  0  0  0  0  0
   49.5954    6.6172   15.8281 C   0  0  0  0  0  0  0  0  0  0  0  0
   46.5235    3.4744   14.0311 H   0  0  0  0  0  0  0  0  0  0  0  0
   46.1563    9.0132   12.4601 H   0  0  0  0  0  0  0  0  0  0  0  0
   47.9135   10.3403   13.5477 H   0  0  0  0  0  0  0  0  0  0  0  0
   49.5060    9.2660   15.0949 H   0  0  0  0  0  0  0  0  0  0  0  0
   49.0408    6.1671   16.6580 H   0  0  0  0  0  0  0  0  0  0  0  0
   50.3383    7.2972   16.2588 H   0  0  0  0  0  0  0  0  0  0  0  0
   50.1393    5.8276   15.2995 H   0  0  0  0  0  0  0  0  0  0  0  0
  3  4  1  0
  4  2  1  0
  5  2  1  0
  6  5  2  0
  7  3  1  0
  8  6  1  0
  9  7  1  0
 10  9  1  0
 11 12  1  0
 12  7  2  0
 13  5  1  0
 14  2  1  0
 15  4  2  0
 16 14  2  0
 17 16  1  0
 18 13  1  0
 17 13  2  0
  8  3  2  0
 10 11  2  0
  8 19  1  0
 14 20  1  0
 16 21  1  0
 17 22  1  0
 18 23  1  0
 18 24  1  0
 18 25  1  0
M  CHG  2   1   1   9  -1
M  END
> <Uni-Dock RESULT> 
ENERGY=   -3.324  LOWER_BOUND=    4.965  UPPER_BOUND=    6.906
INTER + INTRA:          -3.324
INTER:                  -3.324
INTRA:                   0.000
UNBOUND:                 0.000

$$$$

     RDKit          3D

 25 26  0  0  0  0  0  0  0  0999 V2000
   52.1445    2.7573   18.2773 K   0  0  0  0  0 15  0  0  0  0  0  0
   52.3288    1.9023   17.8967 N   0  0  0  0  0  0  0  0  0  0  0  0
   50.3921    3.3842   17.8858 C   0  0  0  0  0  0  0  0  0  0  0  0
   51.0184    2.1162   17.4421 C   0  0  0  0  0  0  0  0  0  0  0  0
   53.0006    2.8846   18.6194 C   0  0  0  0  0  0  0  0  0  0  0  0
   52.4697    4.0216   18.9490 N   0  0  0  0  0  0  0  0  0  0  0  0
   48.8958    3.7238   17.5613 C   0  0  0  0  0  0  0  0  0  0  0  0
   51.1688    4.2294   18.5783 C   0  0  0  0  0  0  0  0  0  0  0  0
   48.4263    4.9982   17.5374 N   0  0  0  0  0  0  0  0  0  0  0  0
   47.0988    4.8715   17.3136 N   0  0  0  0  0  0  0  0  0  0  0  0
   46.7858    3.5624   17.2220 N   0  0  0  0  0  0  0  0  0  0  0  0
   47.9066    2.8198   17.3831 N   0  0  0  0  0  0  0  0  0  0  0  0
   54.4198    2.5879   19.0274 C   0  0  0  0  0  0  0  0  0  0  0  0
   52.9589    0.7064   17.5654 C   0  0  0  0  0  0  0  0  0  0  0  0
   50.4510    1.3189   16.6943 O   0  0  0  0  0  0  0  0  0  0  0  0
   54.2175    0.4418   17.9299 C   0  0  0  0  0  0  0  0  0  0  0  0
   54.9644    1.4112   18.6816 C   0  0  0  0  0  0  0  0  0  0  0  0
   55.1478    3.6368   19.8069 C   0  0  0  0  0  0  0  0  0  0  0  0
   50.7459    5.1757   18.9140 H   0  0  0  0  0  0  0  0  0  0  0  0
   52.3786   -0.0130   16.9924 H   0  0  0  0  0  0  0  0  0  0  0  0
   54.6912   -0.4967   17.6630 H   0  0  0  0  0  0  0  0  0  0  0  0
   55.9834    1.1587   18.9570 H   0  0  0  0  0  0  0  0  0  0  0  0
   55.2197    4.5652   19.2309 H   0  0  0  0  0  0  0  0  0  0  0  0
   56.1677    3.3231   20.0546 H   0  0  0  0  0  0  0  0  0  0  0  0
   54.6301    3.8465   20.7486 H   0  0  0  0  0  0  0  0  0  0  0  0
  3  4  1  0
  4  2  1  0
  5  2  1  0
  6  5  2  0
  7  3  1  0
  8  6  1  0
  9  7  1  0
 10  9  1  0
 11 12  1  0
 12  7  2  0
 13  5  1  0
 14  2  1  0
 15  4  2  0
 16 14  2  0
 17 16  1  0
 18 13  1  0
 17 13  2  0
  8  3  2  0
 10 11  2  0
  8 19  1  0
 14 20  1  0
 16 21  1  0
 17 22  1  0
 18 23  1  0
 18 24  1  0
 18 25  1  0
M  CHG  2   1   1   9  -1
M  END
> <Uni-Dock RESULT> 
ENERGY=   -3.293  LOWER_BOUND=   10.706  UPPER_BOUND=   11.224
INTER + INTRA:          -3.293
INTER:                  -3.293
INTRA:                   0.000
UNBOUND:                 0.000

$$$$
