
     RDKit          3D

 25 26  0  0  0  0  0  0  0  0999 V2000
   45.6999    2.8099    8.5124 K   0  0  0  0  0 15  0  0  0  0  0  0
   46.2227    3.3931    7.9528 N   0  0  0  0  0  0  0  0  0  0  0  0
   44.6258    3.7732    9.7561 C   0  0  0  0  0  0  0  0  0  0  0  0
   45.4902    4.3351    8.6912 C   0  0  0  0  0  0  0  0  0  0  0  0
   46.0403    2.0284    8.1603 C   0  0  0  0  0  0  0  0  0  0  0  0
   45.2318    1.5401    9.0498 N   0  0  0  0  0  0  0  0  0  0  0  0
   43.8300    4.6940   10.7453 C   0  0  0  0  0  0  0  0  0  0  0  0
   44.5556    2.4367    9.8320 C   0  0  0  0  0  0  0  0  0  0  0  0
   42.7208    4.2690   11.4042 N   0  0  0  0  0  0  0  0  0  0  0  0
   42.3844    5.3000   12.2118 N   0  0  0  0  0  0  0  0  0  0  0  0
   43.2739    6.3013   12.0494 N   0  0  0  0  0  0  0  0  0  0  0  0
   44.2001    5.9353   11.1319 N   0  0  0  0  0  0  0  0  0  0  0  0
   46.8344    1.0889    7.2912 C   0  0  0  0  0  0  0  0  0  0  0  0
   47.0984    3.8532    6.9738 C   0  0  0  0  0  0  0  0  0  0  0  0
   45.5382    5.5396    8.4386 O   0  0  0  0  0  0  0  0  0  0  0  0
   47.8053    3.0194    6.2042 C   0  0  0  0  0  0  0  0  0  0  0  0
   47.6671    1.5997    6.3711 C   0  0  0  0  0  0  0  0  0  0  0  0
   46.6465   -0.3790    7.5096 C   0  0  0  0  0  0  0  0  0  0  0  0
   43.9234    1.9867   10.5967 H   0  0  0  0  0  0  0  0  0  0  0  0
   47.1861    4.9311    6.8598 H   0  0  0  0  0  0  0  0  0  0  0  0
   48.4837    3.3973    5.4471 H   0  0  0  0  0  0  0  0  0  0  0  0
   48.2576    0.9571    5.7259 H   0  0  0  0  0  0  0  0  0  0  0  0
   46.9207   -0.6549    8.5332 H   0  0  0  0  0  0  0  0  0  0  0  0
   45.6040   -0.6646    7.3357 H   0  0  0  0  0  0  0  0  0  0  0  0
   47.2683   -0.9728    6.8309 H   0  0  0  0  0  0  0  0  0  0  0  0
  3  4  1  0
  4  2  1  0
  5  2  1  0
  6  5  2  0
  7  3  1  0
  8  6  1  0
  9  7  1  0
 10  9  1  0
 11 12  1  0
 12  7  2  0
 13  5  1  0
 14  2  1  0
 15  4  2  0
 16 14  2  0
 17 16  1  0
 18 13  1  0
 17 13  2  0
  8  3  2  0
 10 11  2  0
  8 19  1  0
 14 20  1  0
 16 21  1  0
 17 22  1  0
 18 23  1  0
 18 24  1  0
 18 25  1  0
M  CHG  2   1   1   9  -1
M  END
> <Uni-Dock RESULT> 
ENERGY=   -6.048  LOWER_BOUND=    0.000  UPPER_BOUND=    0.000
INTER + INTRA:          -6.048
INTER:                  -6.048
INTRA:                   0.000
UNBOUND:                 0.000

$$$$

     RDKit          3D

 25 26  0  0  0  0  0  0  0  0999 V2000
   45.7837    3.1842    8.4169 K   0  0  0  0  0 15  0  0  0  0  0  0
   45.6702    2.2419    8.5778 N   0  0  0  0  0  0  0  0  0  0  0  0
   44.7498    4.2507    9.6094 C   0  0  0  0  0  0  0  0  0  0  0  0
   44.8881    2.7750    9.6138 C   0  0  0  0  0  0  0  0  0  0  0  0
   46.3442    3.0786    7.6922 C   0  0  0  0  0  0  0  0  0  0  0  0
   46.2727    4.3734    7.7335 N   0  0  0  0  0  0  0  0  0  0  0  0
   43.8191    4.9959   10.6283 C   0  0  0  0  0  0  0  0  0  0  0  0
   45.4616    4.9194    8.6912 C   0  0  0  0  0  0  0  0  0  0  0  0
   43.9990    6.3008   10.9602 N   0  0  0  0  0  0  0  0  0  0  0  0
   42.9631    6.5934   11.7785 N   0  0  0  0  0  0  0  0  0  0  0  0
   42.1833    5.5013   11.9174 N   0  0  0  0  0  0  0  0  0  0  0  0
   42.7031    4.4826   11.1924 N   0  0  0  0  0  0  0  0  0  0  0  0
   47.1974    2.4209    6.6395 C   0  0  0  0  0  0  0  0  0  0  0  0
   45.7972    0.8590    8.4866 C   0  0  0  0  0  0  0  0  0  0  0  0
   44.3882    2.0618   10.4846 O   0  0  0  0  0  0  0  0  0  0  0  0
   46.5522    0.2750    7.5507 C   0  0  0  0  0  0  0  0  0  0  0  0
   47.2695    1.0813    6.6031 C   0  0  0  0  0  0  0  0  0  0  0  0
   47.9226    3.3125    5.6820 C   0  0  0  0  0  0  0  0  0  0  0  0
   45.3925    6.0064    8.6627 H   0  0  0  0  0  0  0  0  0  0  0  0
   45.2499    0.2658    9.2155 H   0  0  0  0  0  0  0  0  0  0  0  0
   46.6378   -0.8047    7.4951 H   0  0  0  0  0  0  0  0  0  0  0  0
   47.8721    0.5688    5.8601 H   0  0  0  0  0  0  0  0  0  0  0  0
   47.2151    3.9276    5.1163 H   0  0  0  0  0  0  0  0  0  0  0  0
   48.6130    3.9727    6.2171 H   0  0  0  0  0  0  0  0  0  0  0  0
   48.5108    2.7376    4.9586 H   0  0  0  0  0  0  0  0  0  0  0  0
  3  4  1  0
  4  2  1  0
  5  2  1  0
  6  5  2  0
  7  3  1  0
  8  6  1  0
  9  7  1  0
 10  9  1  0
 11 12  1  0
 12  7  2  0
 13  5  1  0
 14  2  1  0
 15  4  2  0
 16 14  2  0
 17 16  1  0
 18 13  1  0
 17 13  2  0
  8  3  2  0
 10 11  2  0
  8 19  1  0
 14 20  1  0
 16 21  1  0
 17 22  1  0
 18 23  1  0
 18 24  1  0
 18 25  1  0
M  CHG  2   1   1   9  -1
M  END
> <Uni-Dock RESULT> 
ENERGY=   -4.711  LOWER_BOUND=    1.214  UPPER_BOUND=    2.403
INTER + INTRA:          -4.711
INTER:                  -4.711
INTRA:                   0.000
UNBOUND:                 0.000

$$$$

     RDKit          3D

 25 26  0  0  0  0  0  0  0  0999 V2000
   44.9585    3.3382    9.5833 K   0  0  0  0  0 15  0  0  0  0  0  0
   44.8324    4.2857    9.6970 N   0  0  0  0  0  0  0  0  0  0  0  0
   46.0438    2.9298    8.0720 C   0  0  0  0  0  0  0  0  0  0  0  0
   45.7066    4.2734    8.5994 C   0  0  0  0  0  0  0  0  0  0  0  0
   44.4197    3.0963   10.2915 C   0  0  0  0  0  0  0  0  0  0  0  0
   44.7714    1.9221    9.8660 N   0  0  0  0  0  0  0  0  0  0  0  0
   46.9149    2.7443    6.7811 C   0  0  0  0  0  0  0  0  0  0  0  0
   45.5683    1.8784    8.7542 C   0  0  0  0  0  0  0  0  0  0  0  0
   47.6086    1.6041    6.5276 N   0  0  0  0  0  0  0  0  0  0  0  0
   48.1480    1.7950    5.3025 N   0  0  0  0  0  0  0  0  0  0  0  0
   47.7750    3.0046    4.8355 N   0  0  0  0  0  0  0  0  0  0  0  0
   46.9892    3.6176    5.7520 N   0  0  0  0  0  0  0  0  0  0  0  0
   43.5180    3.2051   11.4931 C   0  0  0  0  0  0  0  0  0  0  0  0
   44.4277    5.5150   10.2090 C   0  0  0  0  0  0  0  0  0  0  0  0
   46.1865    5.3097    8.1382 O   0  0  0  0  0  0  0  0  0  0  0  0
   43.6252    5.6117   11.2738 C   0  0  0  0  0  0  0  0  0  0  0  0
   43.1596    4.4223   11.9302 C   0  0  0  0  0  0  0  0  0  0  0  0
   43.0675    1.9318   12.1361 C   0  0  0  0  0  0  0  0  0  0  0  0
   45.8026    0.8745    8.4019 H   0  0  0  0  0  0  0  0  0  0  0  0
   44.7940    6.4040    9.7009 H   0  0  0  0  0  0  0  0  0  0  0  0
   43.3198    6.5791   11.6574 H   0  0  0  0  0  0  0  0  0  0  0  0
   42.5108    4.5438   12.7918 H   0  0  0  0  0  0  0  0  0  0  0  0
   42.5036    1.3191   11.4251 H   0  0  0  0  0  0  0  0  0  0  0  0
   43.9268    1.3550   12.4932 H   0  0  0  0  0  0  0  0  0  0  0  0
   42.4167    2.1203   12.9968 H   0  0  0  0  0  0  0  0  0  0  0  0
  3  4  1  0
  4  2  1  0
  5  2  1  0
  6  5  2  0
  7  3  1  0
  8  6  1  0
  9  7  1  0
 10  9  1  0
 11 12  1  0
 12  7  2  0
 13  5  1  0
 14  2  1  0
 15  4  2  0
 16 14  2  0
 17 16  1  0
 18 13  1  0
 17 13  2  0
  8  3  2  0
 10 11  2  0
  8 19  1  0
 14 20  1  0
 16 21  1  0
 17 22  1  0
 18 23  1  0
 18 24  1  0
 18 25  1  0
M  CHG  2   1   1   9  -1
M  END
> <Uni-Dock RESULT> 
ENERGY=   -4.012  LOWER_BOUND=    1.909  UPPER_BOUND=    5.427
INTER + INTRA:          -4.012
INTER:                  -4.012
INTRA:                   0.000
UNBOUND:                 0.000

$$$$

     RDKit          3D

 25 26  0  0  0  0  0  0  0  0999 V2000
   45.6828    5.5993   12.9482 K   0  0  0  0  0 15  0  0  0  0  0  0
   45.2078    6.3000   12.4899 N   0  0  0  0  0  0  0  0  0  0  0  0
   47.3001    6.2203   13.7401 C   0  0  0  0  0  0  0  0  0  0  0  0
   46.2792    7.0274   13.0305 C   0  0  0  0  0  0  0  0  0  0  0  0
   45.0886    4.9320   12.7197 C   0  0  0  0  0  0  0  0  0  0  0  0
   45.9517    4.2409   13.3986 N   0  0  0  0  0  0  0  0  0  0  0  0
   48.6156    6.8626   14.3027 C   0  0  0  0  0  0  0  0  0  0  0  0
   47.0433    4.9121   13.8793 C   0  0  0  0  0  0  0  0  0  0  0  0
   49.3285    6.2981   15.3119 N   0  0  0  0  0  0  0  0  0  0  0  0
   50.4188    7.0867   15.4456 N   0  0  0  0  0  0  0  0  0  0  0  0
   50.3637    8.0805   14.5349 N   0  0  0  0  0  0  0  0  0  0  0  0
   49.2352    7.9527   13.7976 N   0  0  0  0  0  0  0  0  0  0  0  0
   43.8828    4.2402   12.1400 C   0  0  0  0  0  0  0  0  0  0  0  0
   44.2407    6.9862   11.7614 C   0  0  0  0  0  0  0  0  0  0  0  0
   46.3383    8.2550   12.9504 O   0  0  0  0  0  0  0  0  0  0  0  0
   43.1718    6.3718   11.2445 C   0  0  0  0  0  0  0  0  0  0  0  0
   42.9922    4.9605   11.4408 C   0  0  0  0  0  0  0  0  0  0  0  0
   43.7485    2.7697   12.3797 C   0  0  0  0  0  0  0  0  0  0  0  0
   47.7665    4.2879   14.4031 H   0  0  0  0  0  0  0  0  0  0  0  0
   44.3922    8.0546   11.6271 H   0  0  0  0  0  0  0  0  0  0  0  0
   42.4293    6.9237   10.6785 H   0  0  0  0  0  0  0  0  0  0  0  0
   42.1108    4.4999   11.0061 H   0  0  0  0  0  0  0  0  0  0  0  0
   44.6030    2.2305   11.9577 H   0  0  0  0  0  0  0  0  0  0  0  0
   43.6935    2.5572   13.4523 H   0  0  0  0  0  0  0  0  0  0  0  0
   42.8423    2.3645   11.9167 H   0  0  0  0  0  0  0  0  0  0  0  0
  3  4  1  0
  4  2  1  0
  5  2  1  0
  6  5  2  0
  7  3  1  0
  8  6  1  0
  9  7  1  0
 10  9  1  0
 11 12  1  0
 12  7  2  0
 13  5  1  0
 14  2  1  0
 15  4  2  0
 16 14  2  0
 17 16  1  0
 18 13  1  0
 17 13  2  0
  8  3  2  0
 10 11  2  0
  8 19  1  0
 14 20  1  0
 16 21  1  0
 17 22  1  0
 18 23  1  0
 18 24  1  0
 18 25  1  0
M  CHG  2   1   1   9  -1
M  END
> <Uni-Dock RESULT> 
ENERGY=   -3.579  LOWER_BOUND=    4.803  UPPER_BOUND=    6.441
INTER + INTRA:          -3.579
INTER:                  -3.579
INTRA:                   0.000
UNBOUND:                 0.000

$$$$

     RDKit          3D

 25 26  0  0  0  0  0  0  0  0999 V2000
   44.9065    6.3114   12.1439 K   0  0  0  0  0 15  0  0  0  0  0  0
   45.7093    6.3280   12.6748 N   0  0  0  0  0  0  0  0  0  0  0  0
   44.3823    8.0509   11.5714 C   0  0  0  0  0  0  0  0  0  0  0  0
   45.6016    7.6840   12.3301 C   0  0  0  0  0  0  0  0  0  0  0  0
   44.7726    5.4023   12.2228 C   0  0  0  0  0  0  0  0  0  0  0  0
   43.7413    5.7191   11.5022 N   0  0  0  0  0  0  0  0  0  0  0  0
   44.0530    9.5405   11.2079 C   0  0  0  0  0  0  0  0  0  0  0  0
   43.5734    7.0453   11.2089 C   0  0  0  0  0  0  0  0  0  0  0  0
   43.2406    9.8755   10.1720 N   0  0  0  0  0  0  0  0  0  0  0  0
   43.1353   11.2219   10.2390 N   0  0  0  0  0  0  0  0  0  0  0  0
   43.8505   11.6725   11.2904 N   0  0  0  0  0  0  0  0  0  0  0  0
   44.4325   10.6247   11.9204 N   0  0  0  0  0  0  0  0  0  0  0  0
   44.9918    3.9614   12.6027 C   0  0  0  0  0  0  0  0  0  0  0  0
   46.8010    5.9218   13.4365 C   0  0  0  0  0  0  0  0  0  0  0  0
   46.4832    8.4980   12.6082 O   0  0  0  0  0  0  0  0  0  0  0  0
   46.9941    4.6433   13.7761 C   0  0  0  0  0  0  0  0  0  0  0  0
   46.0616    3.6393   13.3461 C   0  0  0  0  0  0  0  0  0  0  0  0
   43.9884    2.9606   12.1236 C   0  0  0  0  0  0  0  0  0  0  0  0
   42.6717    7.2751   10.6423 H   0  0  0  0  0  0  0  0  0  0  0  0
   47.4980    6.6959   13.7489 H   0  0  0  0  0  0  0  0  0  0  0  0
   47.8506    4.3464   14.3714 H   0  0  0  0  0  0  0  0  0  0  0  0
   46.2548    2.6130   13.6417 H   0  0  0  0  0  0  0  0  0  0  0  0
   42.9920    3.1976   12.5110 H   0  0  0  0  0  0  0  0  0  0  0  0
   43.9469    2.9493   11.0296 H   0  0  0  0  0  0  0  0  0  0  0  0
   44.2375    1.9465   12.4542 H   0  0  0  0  0  0  0  0  0  0  0  0
  3  4  1  0
  4  2  1  0
  5  2  1  0
  6  5  2  0
  7  3  1  0
  8  6  1  0
  9  7  1  0
 10  9  1  0
 11 12  1  0
 12  7  2  0
 13  5  1  0
 14  2  1  0
 15  4  2  0
 16 14  2  0
 17 16  1  0
 18 13  1  0
 17 13  2  0
  8  3  2  0
 10 11  2  0
  8 19  1  0
 14 20  1  0
 16 21  1  0
 17 22  1  0
 18 23  1  0
 18 24  1  0
 18 25  1  0
M  CHG  2   1   1   9  -1
M  END
> <Uni-Dock RESULT> 
ENERGY=   -3.482  LOWER_BOUND=    4.527  UPPER_BOUND=    5.774
INTER + INTRA:          -3.482
INTER:                  -3.482
INTRA:                   0.000
UNBOUND:                 0.000

$$$$

     RDKit          3D

 25 26  0  0  0  0  0  0  0  0999 V2000
   47.0812    6.2733   13.8883 K   0  0  0  0  0 15  0  0  0  0  0  0
   46.9695    7.1787   13.5808 N   0  0  0  0  0  0  0  0  0  0  0  0
   45.8078    5.0855   13.1164 C   0  0  0  0  0  0  0  0  0  0  0  0
   45.9896    6.5258   12.8174 C   0  0  0  0  0  0  0  0  0  0  0  0
   47.7713    6.4665   14.4688 C   0  0  0  0  0  0  0  0  0  0  0  0
   47.6522    5.1916   14.6784 N   0  0  0  0  0  0  0  0  0  0  0  0
   44.6786    4.2369   12.4349 C   0  0  0  0  0  0  0  0  0  0  0  0
   46.6582    4.5416   13.9984 C   0  0  0  0  0  0  0  0  0  0  0  0
   44.7511    2.8852   12.3205 N   0  0  0  0  0  0  0  0  0  0  0  0
   43.5708    2.5230   11.7692 N   0  0  0  0  0  0  0  0  0  0  0  0
   42.8139    3.6229   11.5752 N   0  0  0  0  0  0  0  0  0  0  0  0
   43.4931    4.7159   11.9963 N   0  0  0  0  0  0  0  0  0  0  0  0
   48.8281    7.2401   15.2127 C   0  0  0  0  0  0  0  0  0  0  0  0
   47.1553    8.5451   13.3932 C   0  0  0  0  0  0  0  0  0  0  0  0
   45.3575    7.1079   11.9350 O   0  0  0  0  0  0  0  0  0  0  0  0
   48.0914    9.2324   14.0554 C   0  0  0  0  0  0  0  0  0  0  0  0
   48.9483    8.5580   14.9900 C   0  0  0  0  0  0  0  0  0  0  0  0
   49.6920    6.4831   16.1710 C   0  0  0  0  0  0  0  0  0  0  0  0
   46.5612    3.4830   14.2370 H   0  0  0  0  0  0  0  0  0  0  0  0
   46.4997    9.0370   12.6785 H   0  0  0  0  0  0  0  0  0  0  0  0
   48.2202   10.2974   13.8963 H   0  0  0  0  0  0  0  0  0  0  0  0
   49.6962    9.1515   15.5062 H   0  0  0  0  0  0  0  0  0  0  0  0
   49.0846    6.0232   16.9574 H   0  0  0  0  0  0  0  0  0  0  0  0
   50.2478    5.6964   15.6505 H   0  0  0  0  0  0  0  0  0  0  0  0
   50.4239    7.1354   16.6595 H   0  0  0  0  0  0  0  0  0  0  0  0
  3  4  1  0
  4  2  1  0
  5  2  1  0
  6  5  2  0
  7  3  1  0
  8  6  1  0
  9  7  1  0
 10  9  1  0
 11 12  1  0
 12  7  2  0
 13  5  1  0
 14  2  1  0
 15  4  2  0
 16 14  2  0
 17 16  1  0
 18 13  1  0
 17 13  2  0
  8  3  2  0
 10 11  2  0
  8 19  1  0
 14 20  1  0
 16 21  1  0
 17 22  1  0
 18 23  1  0
 18 24  1  0
 18 25  1  0
M  CHG  2   1   1   9  -1
M  END
> <Uni-Dock RESULT> 
ENERGY=   -3.437  LOWER_BOUND=    4.985  UPPER_BOUND=    6.808
INTER + INTRA:          -3.437
INTER:                  -3.437
INTRA:                   0.000
UNBOUND:                 0.000

$$$$

     RDKit          3D

 25 26  0  0  0  0  0  0  0  0999 V2000
   45.6760    7.2872   12.6664 K   0  0  0  0  0 15  0  0  0  0  0  0
   45.2667    6.4469   12.4363 N   0  0  0  0  0  0  0  0  0  0  0  0
   44.7848    8.7685   11.8665 C   0  0  0  0  0  0  0  0  0  0  0  0
   44.3904    7.3411   11.8025 C   0  0  0  0  0  0  0  0  0  0  0  0
   46.3607    6.9147   13.1594 C   0  0  0  0  0  0  0  0  0  0  0  0
   46.6644    8.1714   13.2678 N   0  0  0  0  0  0  0  0  0  0  0  0
   43.9777    9.8827   11.1136 C   0  0  0  0  0  0  0  0  0  0  0  0
   45.8664    9.0619   12.6020 C   0  0  0  0  0  0  0  0  0  0  0  0
   44.0108   11.1873   11.4905 N   0  0  0  0  0  0  0  0  0  0  0  0
   43.2735   11.8332   10.5590 N   0  0  0  0  0  0  0  0  0  0  0  0
   42.8280   10.9430    9.6483 N   0  0  0  0  0  0  0  0  0  0  0  0
   43.2682    9.7054    9.9767 N   0  0  0  0  0  0  0  0  0  0  0  0
   47.2215    5.8866   13.8455 C   0  0  0  0  0  0  0  0  0  0  0  0
   44.9888    5.0849   12.3677 C   0  0  0  0  0  0  0  0  0  0  0  0
   43.3481    6.9614   11.2673 O   0  0  0  0  0  0  0  0  0  0  0  0
   45.7543    4.1721   12.9742 C   0  0  0  0  0  0  0  0  0  0  0  0
   46.9011    4.5884   13.7320 C   0  0  0  0  0  0  0  0  0  0  0  0
   48.4008    6.3805   14.6221 C   0  0  0  0  0  0  0  0  0  0  0  0
   46.1819   10.1018   12.6799 H   0  0  0  0  0  0  0  0  0  0  0  0
   44.1140    4.7898   11.7929 H   0  0  0  0  0  0  0  0  0  0  0  0
   45.5220    3.1149   12.9082 H   0  0  0  0  0  0  0  0  0  0  0  0
   47.4959    3.8167   14.2101 H   0  0  0  0  0  0  0  0  0  0  0  0
   49.0915    6.9252   13.9700 H   0  0  0  0  0  0  0  0  0  0  0  0
   48.0794    7.0472   15.4290 H   0  0  0  0  0  0  0  0  0  0  0  0
   48.9597    5.5565   15.0786 H   0  0  0  0  0  0  0  0  0  0  0  0
  3  4  1  0
  4  2  1  0
  5  2  1  0
  6  5  2  0
  7  3  1  0
  8  6  1  0
  9  7  1  0
 10  9  1  0
 11 12  1  0
 12  7  2  0
 13  5  1  0
 14  2  1  0
 15  4  2  0
 16 14  2  0
 17 16  1  0
 18 13  1  0
 17 13  2  0
  8  3  2  0
 10 11  2  0
  8 19  1  0
 14 20  1  0
 16 21  1  0
 17 22  1  0
 18 23  1  0
 18 24  1  0
 18 25  1  0
M  CHG  2   1   1   9  -1
M  END
> <Uni-Dock RESULT> 
ENERGY=   -3.435  LOWER_BOUND=    4.996  UPPER_BOUND=    6.584
INTER + INTRA:          -3.435
INTER:                  -3.435
INTRA:                   0.000
UNBOUND:                 0.000

$$$$

     RDKit          3D

 25 26  0  0  0  0  0  0  0  0999 V2000
   45.4017    7.6970   12.2499 K   0  0  0  0  0 15  0  0  0  0  0  0
   46.2169    7.7177   12.7615 N   0  0  0  0  0  0  0  0  0  0  0  0
   44.6778    5.9403   12.1142 C   0  0  0  0  0  0  0  0  0  0  0  0
   45.8694    6.3639   12.8873 C   0  0  0  0  0  0  0  0  0  0  0  0
   45.4110    8.5953   12.0411 C   0  0  0  0  0  0  0  0  0  0  0  0
   44.3313    8.2319   11.4202 N   0  0  0  0  0  0  0  0  0  0  0  0
   44.2226    4.4407   12.0544 C   0  0  0  0  0  0  0  0  0  0  0  0
   44.0055    6.9035   11.4683 C   0  0  0  0  0  0  0  0  0  0  0  0
   42.9464    4.0774   11.7637 N   0  0  0  0  0  0  0  0  0  0  0  0
   42.9747    2.7262   11.7211 N   0  0  0  0  0  0  0  0  0  0  0  0
   44.2313    2.2994   11.9643 N   0  0  0  0  0  0  0  0  0  0  0  0
   45.0370    3.3680   12.1704 N   0  0  0  0  0  0  0  0  0  0  0  0
   45.8359   10.0396   11.9970 C   0  0  0  0  0  0  0  0  0  0  0  0
   47.3582    8.1731   13.4149 C   0  0  0  0  0  0  0  0  0  0  0  0
   46.4933    5.5977   13.6225 O   0  0  0  0  0  0  0  0  0  0  0  0
   47.7370    9.4545   13.3735 C   0  0  0  0  0  0  0  0  0  0  0  0
   46.9522   10.4101   12.6432 C   0  0  0  0  0  0  0  0  0  0  0  0
   44.9772   10.9888   11.2227 C   0  0  0  0  0  0  0  0  0  0  0  0
   43.1189    6.6318   10.8964 H   0  0  0  0  0  0  0  0  0  0  0  0
   47.9368    7.4354   13.9659 H   0  0  0  0  0  0  0  0  0  0  0  0
   48.6305    9.7901   13.8884 H   0  0  0  0  0  0  0  0  0  0  0  0
   47.2930   11.4405   12.6351 H   0  0  0  0  0  0  0  0  0  0  0  0
   44.9203   10.6877   10.1715 H   0  0  0  0  0  0  0  0  0  0  0  0
   43.9637   11.0168   11.6358 H   0  0  0  0  0  0  0  0  0  0  0  0
   45.3730   12.0097   11.2517 H   0  0  0  0  0  0  0  0  0  0  0  0
  3  4  1  0
  4  2  1  0
  5  2  1  0
  6  5  2  0
  7  3  1  0
  8  6  1  0
  9  7  1  0
 10  9  1  0
 11 12  1  0
 12  7  2  0
 13  5  1  0
 14  2  1  0
 15  4  2  0
 16 14  2  0
 17 16  1  0
 18 13  1  0
 17 13  2  0
  8  3  2  0
 10 11  2  0
  8 19  1  0
 14 20  1  0
 16 21  1  0
 17 22  1  0
 18 23  1  0
 18 24  1  0
 18 25  1  0
M  CHG  2   1   1   9  -1
M  END
> <Uni-Dock RESULT> 
ENERGY=   -3.323  LOWER_BOUND=    4.643  UPPER_BOUND=    6.777
INTER + INTRA:          -3.323
INTER:                  -3.323
INTRA:                   0.000
UNBOUND:                 0.000

$$$$

     RDKit          3D

 25 26  0  0  0  0  0  0  0  0999 V2000
   47.8124    6.2226   20.3899 K   0  0  0  0  0 15  0  0  0  0  0  0
   48.1145    5.7823   21.1908 N   0  0  0  0  0  0  0  0  0  0  0  0
   47.8801    5.0798   18.8674 C   0  0  0  0  0  0  0  0  0  0  0  0
   48.1881    4.7236   20.2727 C   0  0  0  0  0  0  0  0  0  0  0  0
   47.6718    7.0406   20.7918 C   0  0  0  0  0  0  0  0  0  0  0  0
   47.3395    7.3304   19.5715 N   0  0  0  0  0  0  0  0  0  0  0  0
   48.0266    4.0415   17.7012 C   0  0  0  0  0  0  0  0  0  0  0  0
   47.4676    6.3350   18.6410 C   0  0  0  0  0  0  0  0  0  0  0  0
   47.3522    4.1627   16.5282 N   0  0  0  0  0  0  0  0  0  0  0  0
   47.8059    3.1438   15.7638 N   0  0  0  0  0  0  0  0  0  0  0  0
   48.7318    2.4470   16.4547 N   0  0  0  0  0  0  0  0  0  0  0  0
   48.8913    3.0027   17.6792 N   0  0  0  0  0  0  0  0  0  0  0  0
   47.5806    8.1055   21.8531 C   0  0  0  0  0  0  0  0  0  0  0  0
   48.4461    5.5328   22.5193 C   0  0  0  0  0  0  0  0  0  0  0  0
   48.4522    3.5735   20.6258 O   0  0  0  0  0  0  0  0  0  0  0  0
   48.3678    6.4786   23.4607 C   0  0  0  0  0  0  0  0  0  0  0  0
   47.9232    7.7994   23.1140 C   0  0  0  0  0  0  0  0  0  0  0  0
   47.1086    9.4613   21.4324 C   0  0  0  0  0  0  0  0  0  0  0  0
   47.2233    6.6316   17.6215 H   0  0  0  0  0  0  0  0  0  0  0  0
   48.7764    4.5257   22.7628 H   0  0  0  0  0  0  0  0  0  0  0  0
   48.6317    6.2650   24.4908 H   0  0  0  0  0  0  0  0  0  0  0  0
   47.8725    8.5382   23.9075 H   0  0  0  0  0  0  0  0  0  0  0  0
   47.7773    9.8849   20.6759 H   0  0  0  0  0  0  0  0  0  0  0  0
   46.0974    9.4057   21.0163 H   0  0  0  0  0  0  0  0  0  0  0  0
   47.0801   10.1603   22.2751 H   0  0  0  0  0  0  0  0  0  0  0  0
  3  4  1  0
  4  2  1  0
  5  2  1  0
  6  5  2  0
  7  3  1  0
  8  6  1  0
  9  7  1  0
 10  9  1  0
 11 12  1  0
 12  7  2  0
 13  5  1  0
 14  2  1  0
 15  4  2  0
 16 14  2  0
 17 16  1  0
 18 13  1  0
 17 13  2  0
  8  3  2  0
 10 11  2  0
  8 19  1  0
 14 20  1  0
 16 21  1  0
 17 22  1  0
 18 23  1  0
 18 24  1  0
 18 25  1  0
M  CHG  2   1   1   9  -1
M  END
> <Uni-Dock RESULT> 
ENERGY=   -3.311  LOWER_BOUND=   10.536  UPPER_BOUND=   12.700
INTER + INTRA:          -3.311
INTER:                  -3.311
INTRA:                   0.000
UNBOUND:                 0.000

$$$$
