
     RDKit          3D

 25 26  0  0  0  0  0  0  0  0999 V2000
   45.6110    3.1165    8.5059 K   0  0  0  0  0 15  0  0  0  0  0  0
   45.5961    2.1680    8.6057 N   0  0  0  0  0  0  0  0  0  0  0  0
   44.4947    4.0140    9.7570 C   0  0  0  0  0  0  0  0  0  0  0  0
   44.6958    2.5528    9.6110 C   0  0  0  0  0  0  0  0  0  0  0  0
   46.1569    3.1143    7.7522 C   0  0  0  0  0  0  0  0  0  0  0  0
   45.9255    4.3877    7.8423 N   0  0  0  0  0  0  0  0  0  0  0  0
   43.6108    4.6153   10.9046 C   0  0  0  0  0  0  0  0  0  0  0  0
   45.1051    4.7988    8.8577 C   0  0  0  0  0  0  0  0  0  0  0  0
   43.4084    4.0518   12.1165 N   0  0  0  0  0  0  0  0  0  0  0  0
   42.6685    4.9576   12.7988 N   0  0  0  0  0  0  0  0  0  0  0  0
   42.4471    6.0349   12.0174 N   0  0  0  0  0  0  0  0  0  0  0  0
   43.0414    5.8456   10.8177 N   0  0  0  0  0  0  0  0  0  0  0  0
   47.0768    2.6069    6.6729 C   0  0  0  0  0  0  0  0  0  0  0  0
   45.8765    0.8138    8.4493 C   0  0  0  0  0  0  0  0  0  0  0  0
   44.0894    1.7256   10.2929 O   0  0  0  0  0  0  0  0  0  0  0  0
   46.6951    0.3636    7.4932 C   0  0  0  0  0  0  0  0  0  0  0  0
   47.3104    1.2885    6.5829 C   0  0  0  0  0  0  0  0  0  0  0  0
   47.6860    3.6174    5.7533 C   0  0  0  0  0  0  0  0  0  0  0  0
   44.9737    5.8780    8.9276 H   0  0  0  0  0  0  0  0  0  0  0  0
   45.3979    0.1288    9.1453 H   0  0  0  0  0  0  0  0  0  0  0  0
   46.9022   -0.6958    7.3878 H   0  0  0  0  0  0  0  0  0  0  0  0
   47.9674    0.8828    5.8203 H   0  0  0  0  0  0  0  0  0  0  0  0
   48.2928    4.3345    6.3158 H   0  0  0  0  0  0  0  0  0  0  0  0
   48.3375    3.1473    5.0087 H   0  0  0  0  0  0  0  0  0  0  0  0
   46.9076    4.1643    5.2112 H   0  0  0  0  0  0  0  0  0  0  0  0
  3  4  1  0
  4  2  1  0
  5  2  1  0
  6  5  2  0
  7  3  1  0
  8  6  1  0
  9  7  1  0
 10  9  1  0
 11 12  1  0
 12  7  2  0
 13  5  1  0
 14  2  1  0
 15  4  2  0
 16 14  2  0
 17 16  1  0
 18 13  1  0
 17 13  2  0
  8  3  2  0
 10 11  2  0
  8 19  1  0
 14 20  1  0
 16 21  1  0
 17 22  1  0
 18 23  1  0
 18 24  1  0
 18 25  1  0
M  CHG  2   1   1   9  -1
M  END
> <Uni-Dock RESULT> 
ENERGY=   -5.195  LOWER_BOUND=    0.000  UPPER_BOUND=    0.000
INTER + INTRA:          -5.195
INTER:                  -5.195
INTRA:                   0.000
UNBOUND:                 0.000

$$$$

     RDKit          3D

 25 26  0  0  0  0  0  0  0  0999 V2000
   44.8781    7.0414   12.3395 K   0  0  0  0  0 15  0  0  0  0  0  0
   44.0987    6.6978   11.9101 N   0  0  0  0  0  0  0  0  0  0  0  0
   45.1070    8.9116   12.0807 C   0  0  0  0  0  0  0  0  0  0  0  0
   44.0267    8.0505   11.5435 C   0  0  0  0  0  0  0  0  0  0  0  0
   45.1836    6.2140   12.6362 C   0  0  0  0  0  0  0  0  0  0  0  0
   46.1615    6.9608   13.0477 N   0  0  0  0  0  0  0  0  0  0  0  0
   45.1116   10.4644   11.8605 C   0  0  0  0  0  0  0  0  0  0  0  0
   46.0831    8.2973   12.7641 C   0  0  0  0  0  0  0  0  0  0  0  0
   44.0145   11.2376   11.6997 N   0  0  0  0  0  0  0  0  0  0  0  0
   44.4908   12.5036   11.6389 N   0  0  0  0  0  0  0  0  0  0  0  0
   45.8332   12.4841   11.7714 N   0  0  0  0  0  0  0  0  0  0  0  0
   46.2481   11.2060   11.9223 N   0  0  0  0  0  0  0  0  0  0  0  0
   45.2010    4.7401   12.9461 C   0  0  0  0  0  0  0  0  0  0  0  0
   43.0859    5.8415   11.4883 C   0  0  0  0  0  0  0  0  0  0  0  0
   43.1461    8.4757   10.7948 O   0  0  0  0  0  0  0  0  0  0  0  0
   43.0997    4.5338   11.7656 C   0  0  0  0  0  0  0  0  0  0  0  0
   44.1881    3.9721   12.5156 C   0  0  0  0  0  0  0  0  0  0  0  0
   46.3617    4.2125   13.7284 C   0  0  0  0  0  0  0  0  0  0  0  0
   46.8990    8.8963   13.1668 H   0  0  0  0  0  0  0  0  0  0  0  0
   42.2728    6.2846   10.9181 H   0  0  0  0  0  0  0  0  0  0  0  0
   42.3005    3.8826   11.4289 H   0  0  0  0  0  0  0  0  0  0  0  0
   44.1625    2.9063   12.7188 H   0  0  0  0  0  0  0  0  0  0  0  0
   46.4201    4.6991   14.7075 H   0  0  0  0  0  0  0  0  0  0  0  0
   46.2776    3.1341   13.9011 H   0  0  0  0  0  0  0  0  0  0  0  0
   47.3000    4.3877   13.1920 H   0  0  0  0  0  0  0  0  0  0  0  0
  3  4  1  0
  4  2  1  0
  5  2  1  0
  6  5  2  0
  7  3  1  0
  8  6  1  0
  9  7  1  0
 10  9  1  0
 11 12  1  0
 12  7  2  0
 13  5  1  0
 14  2  1  0
 15  4  2  0
 16 14  2  0
 17 16  1  0
 18 13  1  0
 17 13  2  0
  8  3  2  0
 10 11  2  0
  8 19  1  0
 14 20  1  0
 16 21  1  0
 17 22  1  0
 18 23  1  0
 18 24  1  0
 18 25  1  0
M  CHG  2   1   1   9  -1
M  END
> <Uni-Dock RESULT> 
ENERGY=   -4.094  LOWER_BOUND=    4.953  UPPER_BOUND=    6.551
INTER + INTRA:          -4.094
INTER:                  -4.094
INTRA:                   0.000
UNBOUND:                 0.000

$$$$

     RDKit          3D

 25 26  0  0  0  0  0  0  0  0999 V2000
   45.3309    6.4804   12.3542 K   0  0  0  0  0 15  0  0  0  0  0  0
   46.0214    6.2183   12.9579 N   0  0  0  0  0  0  0  0  0  0  0  0
   45.1962    8.3665   12.1511 C   0  0  0  0  0  0  0  0  0  0  0  0
   46.1350    7.6157   13.0183 C   0  0  0  0  0  0  0  0  0  0  0  0
   45.0124    5.6180   12.2096 C   0  0  0  0  0  0  0  0  0  0  0  0
   44.1505    6.2832   11.5039 N   0  0  0  0  0  0  0  0  0  0  0  0
   45.2670    9.9273   12.0144 C   0  0  0  0  0  0  0  0  0  0  0  0
   44.2804    7.6455   11.4889 C   0  0  0  0  0  0  0  0  0  0  0  0
   46.3826   10.6776   12.1548 N   0  0  0  0  0  0  0  0  0  0  0  0
   45.9889   11.9394   11.8606 N   0  0  0  0  0  0  0  0  0  0  0  0
   44.6777   11.9368   11.5429 N   0  0  0  0  0  0  0  0  0  0  0  0
   44.2014   10.6740   11.6240 N   0  0  0  0  0  0  0  0  0  0  0  0
   44.9371    4.1140   12.2389 C   0  0  0  0  0  0  0  0  0  0  0  0
   46.9091    5.4479   13.7031 C   0  0  0  0  0  0  0  0  0  0  0  0
   46.9350    8.1716   13.7720 O   0  0  0  0  0  0  0  0  0  0  0  0
   46.8441    4.1128   13.7270 C   0  0  0  0  0  0  0  0  0  0  0  0
   45.8296    3.4314   12.9726 C   0  0  0  0  0  0  0  0  0  0  0  0
   43.8577    3.4607   11.4352 C   0  0  0  0  0  0  0  0  0  0  0  0
   43.5674    8.1633   10.8483 H   0  0  0  0  0  0  0  0  0  0  0  0
   47.6672    5.9821   14.2710 H   0  0  0  0  0  0  0  0  0  0  0  0
   47.5457    3.5296   14.3133 H   0  0  0  0  0  0  0  0  0  0  0  0
   45.8102    2.3473   13.0195 H   0  0  0  0  0  0  0  0  0  0  0  0
   43.9629    3.7092   10.3741 H   0  0  0  0  0  0  0  0  0  0  0  0
   43.8911    2.3694   11.5228 H   0  0  0  0  0  0  0  0  0  0  0  0
   42.8704    3.7883   11.7769 H   0  0  0  0  0  0  0  0  0  0  0  0
  3  4  1  0
  4  2  1  0
  5  2  1  0
  6  5  2  0
  7  3  1  0
  8  6  1  0
  9  7  1  0
 10  9  1  0
 11 12  1  0
 12  7  2  0
 13  5  1  0
 14  2  1  0
 15  4  2  0
 16 14  2  0
 17 16  1  0
 18 13  1  0
 17 13  2  0
  8  3  2  0
 10 11  2  0
  8 19  1  0
 14 20  1  0
 16 21  1  0
 17 22  1  0
 18 23  1  0
 18 24  1  0
 18 25  1  0
M  CHG  2   1   1   9  -1
M  END
> <Uni-Dock RESULT> 
ENERGY=   -3.783  LOWER_BOUND=    4.649  UPPER_BOUND=    6.226
INTER + INTRA:          -3.783
INTER:                  -3.783
INTRA:                   0.000
UNBOUND:                 0.000

$$$$

     RDKit          3D

 25 26  0  0  0  0  0  0  0  0999 V2000
   47.3159    8.0465   12.2279 K   0  0  0  0  0 15  0  0  0  0  0  0
   47.0521    8.9623   12.1863 N   0  0  0  0  0  0  0  0  0  0  0  0
   45.8577    6.8652   12.5365 C   0  0  0  0  0  0  0  0  0  0  0  0
   45.8176    8.3435   12.4363 C   0  0  0  0  0  0  0  0  0  0  0  0
   48.2276    8.2170   12.1518 C   0  0  0  0  0  0  0  0  0  0  0  0
   48.2652    6.9294   12.3064 N   0  0  0  0  0  0  0  0  0  0  0  0
   44.5513    6.0129   12.6992 C   0  0  0  0  0  0  0  0  0  0  0  0
   47.0678    6.2906   12.4828 C   0  0  0  0  0  0  0  0  0  0  0  0
   43.3268    6.3584   12.2426 N   0  0  0  0  0  0  0  0  0  0  0  0
   42.5404    5.2927   12.5242 N   0  0  0  0  0  0  0  0  0  0  0  0
   43.2801    4.3355   13.1215 N   0  0  0  0  0  0  0  0  0  0  0  0
   44.5575    4.7644   13.2346 N   0  0  0  0  0  0  0  0  0  0  0  0
   49.5121    8.9697   11.9232 C   0  0  0  0  0  0  0  0  0  0  0  0
   47.0805   10.3442   12.0239 C   0  0  0  0  0  0  0  0  0  0  0  0
   44.7847    8.9943   12.5991 O   0  0  0  0  0  0  0  0  0  0  0  0
   48.2202   11.0120   11.8182 C   0  0  0  0  0  0  0  0  0  0  0  0
   49.4673   10.3017   11.7664 C   0  0  0  0  0  0  0  0  0  0  0  0
   50.7795    8.1762   11.8816 C   0  0  0  0  0  0  0  0  0  0  0  0
   47.1380    5.2064   12.5619 H   0  0  0  0  0  0  0  0  0  0  0  0
   46.1268   10.8647   12.0705 H   0  0  0  0  0  0  0  0  0  0  0  0
   48.2218   12.0893   11.6928 H   0  0  0  0  0  0  0  0  0  0  0  0
   50.3699   10.8806   11.5987 H   0  0  0  0  0  0  0  0  0  0  0  0
   50.7464    7.4386   11.0731 H   0  0  0  0  0  0  0  0  0  0  0  0
   51.6524    8.8151   11.7091 H   0  0  0  0  0  0  0  0  0  0  0  0
   50.9376    7.6519   12.8297 H   0  0  0  0  0  0  0  0  0  0  0  0
  3  4  1  0
  4  2  1  0
  5  2  1  0
  6  5  2  0
  7  3  1  0
  8  6  1  0
  9  7  1  0
 10  9  1  0
 11 12  1  0
 12  7  2  0
 13  5  1  0
 14  2  1  0
 15  4  2  0
 16 14  2  0
 17 16  1  0
 18 13  1  0
 17 13  2  0
  8  3  2  0
 10 11  2  0
  8 19  1  0
 14 20  1  0
 16 21  1  0
 17 22  1  0
 18 23  1  0
 18 24  1  0
 18 25  1  0
M  CHG  2   1   1   9  -1
M  END
> <Uni-Dock RESULT> 
ENERGY=   -3.709  LOWER_BOUND=    5.378  UPPER_BOUND=    6.839
INTER + INTRA:          -3.709
INTER:                  -3.709
INTRA:                   0.000
UNBOUND:                 0.000

$$$$

     RDKit          3D

 25 26  0  0  0  0  0  0  0  0999 V2000
   44.9911    4.1682    9.6521 K   0  0  0  0  0 15  0  0  0  0  0  0
   44.5794    3.4600   10.1409 N   0  0  0  0  0  0  0  0  0  0  0  0
   46.0131    3.5539    8.1704 C   0  0  0  0  0  0  0  0  0  0  0  0
   45.2623    2.7354    9.1519 C   0  0  0  0  0  0  0  0  0  0  0  0
   44.7117    4.8432   10.2286 C   0  0  0  0  0  0  0  0  0  0  0  0
   45.4246    5.5490    9.4058 N   0  0  0  0  0  0  0  0  0  0  0  0
   46.7355    2.9080    6.9374 C   0  0  0  0  0  0  0  0  0  0  0  0
   46.0463    4.8762    8.3891 C   0  0  0  0  0  0  0  0  0  0  0  0
   46.3593    1.7680    6.3159 N   0  0  0  0  0  0  0  0  0  0  0  0
   47.2057    1.6525    5.2653 N   0  0  0  0  0  0  0  0  0  0  0  0
   48.0542    2.7013    5.2562 N   0  0  0  0  0  0  0  0  0  0  0  0
   47.7702    3.5140    6.2989 N   0  0  0  0  0  0  0  0  0  0  0  0
   43.9797    5.5339   11.3492 C   0  0  0  0  0  0  0  0  0  0  0  0
   43.8073    2.7591   11.0624 C   0  0  0  0  0  0  0  0  0  0  0  0
   45.2643    1.5039    9.1323 O   0  0  0  0  0  0  0  0  0  0  0  0
   43.1553    3.3723   12.0554 C   0  0  0  0  0  0  0  0  0  0  0  0
   43.2460    4.7984   12.1986 C   0  0  0  0  0  0  0  0  0  0  0  0
   44.1141    7.0205   11.4489 C   0  0  0  0  0  0  0  0  0  0  0  0
   46.5959    5.5096    7.6938 H   0  0  0  0  0  0  0  0  0  0  0  0
   43.7543    1.6798   10.9401 H   0  0  0  0  0  0  0  0  0  0  0  0
   42.5575    2.8087   12.7634 H   0  0  0  0  0  0  0  0  0  0  0  0
   42.7028    5.2577   13.0183 H   0  0  0  0  0  0  0  0  0  0  0  0
   43.7416    7.5033   10.5396 H   0  0  0  0  0  0  0  0  0  0  0  0
   43.5439    7.4234   12.2930 H   0  0  0  0  0  0  0  0  0  0  0  0
   45.1616    7.3042   11.5939 H   0  0  0  0  0  0  0  0  0  0  0  0
  3  4  1  0
  4  2  1  0
  5  2  1  0
  6  5  2  0
  7  3  1  0
  8  6  1  0
  9  7  1  0
 10  9  1  0
 11 12  1  0
 12  7  2  0
 13  5  1  0
 14  2  1  0
 15  4  2  0
 16 14  2  0
 17 16  1  0
 18 13  1  0
 17 13  2  0
  8  3  2  0
 10 11  2  0
  8 19  1  0
 14 20  1  0
 16 21  1  0
 17 22  1  0
 18 23  1  0
 18 24  1  0
 18 25  1  0
M  CHG  2   1   1   9  -1
M  END
> <Uni-Dock RESULT> 
ENERGY=   -3.699  LOWER_BOUND=    2.074  UPPER_BOUND=    5.517
INTER + INTRA:          -3.699
INTER:                  -3.699
INTRA:                   0.000
UNBOUND:                 0.000

$$$$

     RDKit          3D

 25 26  0  0  0  0  0  0  0  0999 V2000
   45.1227    8.3733   11.9049 K   0  0  0  0  0 15  0  0  0  0  0  0
   45.8026    9.0218   12.0694 N   0  0  0  0  0  0  0  0  0  0  0  0
   45.6333    6.6138   12.4150 C   0  0  0  0  0  0  0  0  0  0  0  0
   46.4426    7.8521   12.5072 C   0  0  0  0  0  0  0  0  0  0  0  0
   44.5370    8.9670   11.4919 C   0  0  0  0  0  0  0  0  0  0  0  0
   43.8591    7.8696   11.3528 N   0  0  0  0  0  0  0  0  0  0  0  0
   46.1568    5.2423   12.9670 C   0  0  0  0  0  0  0  0  0  0  0  0
   44.4300    6.7226   11.8341 C   0  0  0  0  0  0  0  0  0  0  0  0
   47.0237    5.0885   13.9927 N   0  0  0  0  0  0  0  0  0  0  0  0
   47.1097    3.7493   14.1737 N   0  0  0  0  0  0  0  0  0  0  0  0
   46.3069    3.1250   13.2871 N   0  0  0  0  0  0  0  0  0  0  0  0
   45.6865    4.0490   12.5192 N   0  0  0  0  0  0  0  0  0  0  0  0
   43.9453   10.2650   11.0085 C   0  0  0  0  0  0  0  0  0  0  0  0
   46.4828   10.2310   12.1798 C   0  0  0  0  0  0  0  0  0  0  0  0
   47.6094    7.8575   12.9017 O   0  0  0  0  0  0  0  0  0  0  0  0
   45.9566   11.3836   11.7533 C   0  0  0  0  0  0  0  0  0  0  0  0
   44.6521   11.3966   11.1527 C   0  0  0  0  0  0  0  0  0  0  0  0
   42.5844   10.2155   10.3895 C   0  0  0  0  0  0  0  0  0  0  0  0
   43.8098    5.8319   11.7404 H   0  0  0  0  0  0  0  0  0  0  0  0
   47.4707   10.2001   12.6332 H   0  0  0  0  0  0  0  0  0  0  0  0
   46.5019   12.3162   11.8490 H   0  0  0  0  0  0  0  0  0  0  0  0
   44.2612   12.3524   10.8186 H   0  0  0  0  0  0  0  0  0  0  0  0
   41.8498    9.8285   11.1032 H   0  0  0  0  0  0  0  0  0  0  0  0
   42.2459   11.2085   10.0744 H   0  0  0  0  0  0  0  0  0  0  0  0
   42.5868    9.5722    9.5035 H   0  0  0  0  0  0  0  0  0  0  0  0
  3  4  1  0
  4  2  1  0
  5  2  1  0
  6  5  2  0
  7  3  1  0
  8  6  1  0
  9  7  1  0
 10  9  1  0
 11 12  1  0
 12  7  2  0
 13  5  1  0
 14  2  1  0
 15  4  2  0
 16 14  2  0
 17 16  1  0
 18 13  1  0
 17 13  2  0
  8  3  2  0
 10 11  2  0
  8 19  1  0
 14 20  1  0
 16 21  1  0
 17 22  1  0
 18 23  1  0
 18 24  1  0
 18 25  1  0
M  CHG  2   1   1   9  -1
M  END
> <Uni-Dock RESULT> 
ENERGY=   -3.550  LOWER_BOUND=    5.284  UPPER_BOUND=    7.242
INTER + INTRA:          -3.550
INTER:                  -3.550
INTRA:                   0.000
UNBOUND:                 0.000

$$$$

     RDKit          3D

 25 26  0  0  0  0  0  0  0  0999 V2000
   46.9924    8.0879   13.0094 K   0  0  0  0  0 15  0  0  0  0  0  0
   47.7029    7.5217   13.3001 N   0  0  0  0  0  0  0  0  0  0  0  0
   45.4038    7.1315   12.5870 C   0  0  0  0  0  0  0  0  0  0  0  0
   46.6988    6.5750   13.0456 C   0  0  0  0  0  0  0  0  0  0  0  0
   47.4960    8.8704   13.0235 C   0  0  0  0  0  0  0  0  0  0  0  0
   46.3812    9.3444   12.5588 N   0  0  0  0  0  0  0  0  0  0  0  0
   44.1453    6.2216   12.3680 C   0  0  0  0  0  0  0  0  0  0  0  0
   45.3606    8.4531   12.3662 C   0  0  0  0  0  0  0  0  0  0  0  0
   43.8849    5.0703   13.0268 N   0  0  0  0  0  0  0  0  0  0  0  0
   42.6636    4.6884   12.5843 N   0  0  0  0  0  0  0  0  0  0  0  0
   42.2058    5.5941   11.6953 N   0  0  0  0  0  0  0  0  0  0  0  0
   43.1216    6.5781   11.5491 N   0  0  0  0  0  0  0  0  0  0  0  0
   48.6443    9.8096   13.2843 C   0  0  0  0  0  0  0  0  0  0  0  0
   48.9274    7.0750   13.7879 C   0  0  0  0  0  0  0  0  0  0  0  0
   46.9009    5.3654   13.1601 O   0  0  0  0  0  0  0  0  0  0  0  0
   49.9458    7.9088   14.0221 C   0  0  0  0  0  0  0  0  0  0  0  0
   49.7957    9.3134   13.7626 C   0  0  0  0  0  0  0  0  0  0  0  0
   48.4293   11.2610   12.9926 C   0  0  0  0  0  0  0  0  0  0  0  0
   44.4282    8.8972   12.0199 H   0  0  0  0  0  0  0  0  0  0  0  0
   49.0230    6.0079   13.9741 H   0  0  0  0  0  0  0  0  0  0  0  0
   50.8924    7.5417   14.4034 H   0  0  0  0  0  0  0  0  0  0  0  0
   50.6463    9.9564   13.9648 H   0  0  0  0  0  0  0  0  0  0  0  0
   47.6076   11.6583   13.5972 H   0  0  0  0  0  0  0  0  0  0  0  0
   49.3211   11.8561   13.2172 H   0  0  0  0  0  0  0  0  0  0  0  0
   48.1917   11.4107   11.9343 H   0  0  0  0  0  0  0  0  0  0  0  0
  3  4  1  0
  4  2  1  0
  5  2  1  0
  6  5  2  0
  7  3  1  0
  8  6  1  0
  9  7  1  0
 10  9  1  0
 11 12  1  0
 12  7  2  0
 13  5  1  0
 14  2  1  0
 15  4  2  0
 16 14  2  0
 17 16  1  0
 18 13  1  0
 17 13  2  0
  8  3  2  0
 10 11  2  0
  8 19  1  0
 14 20  1  0
 16 21  1  0
 17 22  1  0
 18 23  1  0
 18 24  1  0
 18 25  1  0
M  CHG  2   1   1   9  -1
M  END
> <Uni-Dock RESULT> 
ENERGY=   -3.477  LOWER_BOUND=    5.402  UPPER_BOUND=    6.851
INTER + INTRA:          -3.477
INTER:                  -3.477
INTRA:                   0.000
UNBOUND:                 0.000

$$$$

     RDKit          3D

 25 26  0  0  0  0  0  0  0  0999 V2000
   45.6071    7.3387   12.5424 K   0  0  0  0  0 15  0  0  0  0  0  0
   46.1960    6.7266   12.9764 N   0  0  0  0  0  0  0  0  0  0  0  0
   46.3303    9.0917   12.3974 C   0  0  0  0  0  0  0  0  0  0  0  0
   46.9562    7.9051   13.0277 C   0  0  0  0  0  0  0  0  0  0  0  0
   44.9029    6.7358   12.4605 C   0  0  0  0  0  0  0  0  0  0  0  0
   44.3341    7.7935   11.9697 N   0  0  0  0  0  0  0  0  0  0  0  0
   47.0923   10.4563   12.2679 C   0  0  0  0  0  0  0  0  0  0  0  0
   45.0777    8.9421   11.9435 C   0  0  0  0  0  0  0  0  0  0  0  0
   48.4327   10.6005   12.1692 N   0  0  0  0  0  0  0  0  0  0  0  0
   48.6241   11.9282   11.9844 N   0  0  0  0  0  0  0  0  0  0  0  0
   47.4292   12.5542   11.9624 N   0  0  0  0  0  0  0  0  0  0  0  0
   46.4448   11.6426   12.1304 N   0  0  0  0  0  0  0  0  0  0  0  0
   44.1432    5.4355   12.4870 C   0  0  0  0  0  0  0  0  0  0  0  0
   46.7456    5.5596   13.4988 C   0  0  0  0  0  0  0  0  0  0  0  0
   48.0489    7.9504   13.5942 O   0  0  0  0  0  0  0  0  0  0  0  0
   46.0725    4.4048   13.5198 C   0  0  0  0  0  0  0  0  0  0  0  0
   44.7357    4.3453   12.9981 C   0  0  0  0  0  0  0  0  0  0  0  0
   42.7541    5.4358   11.9318 C   0  0  0  0  0  0  0  0  0  0  0  0
   44.5814    9.7948   11.4817 H   0  0  0  0  0  0  0  0  0  0  0  0
   47.7570    5.6257   13.8929 H   0  0  0  0  0  0  0  0  0  0  0  0
   46.5183    3.5054   13.9303 H   0  0  0  0  0  0  0  0  0  0  0  0
   44.2231    3.3894   13.0346 H   0  0  0  0  0  0  0  0  0  0  0  0
   42.7605    5.7281   10.8767 H   0  0  0  0  0  0  0  0  0  0  0  0
   42.2914    4.4450   11.9964 H   0  0  0  0  0  0  0  0  0  0  0  0
   42.1174    6.1331   12.4861 H   0  0  0  0  0  0  0  0  0  0  0  0
  3  4  1  0
  4  2  1  0
  5  2  1  0
  6  5  2  0
  7  3  1  0
  8  6  1  0
  9  7  1  0
 10  9  1  0
 11 12  1  0
 12  7  2  0
 13  5  1  0
 14  2  1  0
 15  4  2  0
 16 14  2  0
 17 16  1  0
 18 13  1  0
 17 13  2  0
  8  3  2  0
 10 11  2  0
  8 19  1  0
 14 20  1  0
 16 21  1  0
 17 22  1  0
 18 23  1  0
 18 24  1  0
 18 25  1  0
M  CHG  2   1   1   9  -1
M  END
> <Uni-Dock RESULT> 
ENERGY=   -3.460  LOWER_BOUND=    5.448  UPPER_BOUND=    7.096
INTER + INTRA:          -3.460
INTER:                  -3.460
INTRA:                   0.000
UNBOUND:                 0.000

$$$$

     RDKit          3D

 25 26  0  0  0  0  0  0  0  0999 V2000
   45.7331    6.3807   12.8057 K   0  0  0  0  0 15  0  0  0  0  0  0
   46.0556    5.5022   12.9906 N   0  0  0  0  0  0  0  0  0  0  0  0
   47.0017    7.7392   13.2079 C   0  0  0  0  0  0  0  0  0  0  0  0
   47.1559    6.2763   13.3897 C   0  0  0  0  0  0  0  0  0  0  0  0
   44.8772    6.1078   12.5627 C   0  0  0  0  0  0  0  0  0  0  0  0
   44.7245    7.3927   12.4683 N   0  0  0  0  0  0  0  0  0  0  0  0
   48.1779    8.7357   13.4968 C   0  0  0  0  0  0  0  0  0  0  0  0
   45.8049    8.1707   12.7852 C   0  0  0  0  0  0  0  0  0  0  0  0
   49.4944    8.4475   13.3921 N   0  0  0  0  0  0  0  0  0  0  0  0
   50.1249    9.6196   13.6415 N   0  0  0  0  0  0  0  0  0  0  0  0
   49.2076   10.5805   13.8766 N   0  0  0  0  0  0  0  0  0  0  0  0
   47.9686   10.0475   13.7814 N   0  0  0  0  0  0  0  0  0  0  0  0
   43.7317    5.2007   12.1974 C   0  0  0  0  0  0  0  0  0  0  0  0
   46.1520    4.1167   13.0800 C   0  0  0  0  0  0  0  0  0  0  0  0
   48.1600    5.7697   13.8919 O   0  0  0  0  0  0  0  0  0  0  0  0
   45.1362    3.3114   12.7532 C   0  0  0  0  0  0  0  0  0  0  0  0
   43.8945    3.8725   12.2994 C   0  0  0  0  0  0  0  0  0  0  0  0
   42.4628    5.8431   11.7337 C   0  0  0  0  0  0  0  0  0  0  0  0
   45.6509    9.2404   12.6482 H   0  0  0  0  0  0  0  0  0  0  0  0
   47.0984    3.7110   13.4297 H   0  0  0  0  0  0  0  0  0  0  0  0
   45.2309    2.2336   12.8287 H   0  0  0  0  0  0  0  0  0  0  0  0
   43.0944    3.1849   12.0450 H   0  0  0  0  0  0  0  0  0  0  0  0
   42.6390    6.4386   10.8320 H   0  0  0  0  0  0  0  0  0  0  0  0
   41.6962    5.0988   11.4922 H   0  0  0  0  0  0  0  0  0  0  0  0
   42.0541    6.4958   12.5120 H   0  0  0  0  0  0  0  0  0  0  0  0
  3  4  1  0
  4  2  1  0
  5  2  1  0
  6  5  2  0
  7  3  1  0
  8  6  1  0
  9  7  1  0
 10  9  1  0
 11 12  1  0
 12  7  2  0
 13  5  1  0
 14  2  1  0
 15  4  2  0
 16 14  2  0
 17 16  1  0
 18 13  1  0
 17 13  2  0
  8  3  2  0
 10 11  2  0
  8 19  1  0
 14 20  1  0
 16 21  1  0
 17 22  1  0
 18 23  1  0
 18 24  1  0
 18 25  1  0
M  CHG  2   1   1   9  -1
M  END
> <Uni-Dock RESULT> 
ENERGY=   -3.323  LOWER_BOUND=    5.198  UPPER_BOUND=    6.686
INTER + INTRA:          -3.323
INTER:                  -3.323
INTRA:                   0.000
UNBOUND:                 0.000

$$$$
