
     RDKit          3D

 25 26  0  0  0  0  0  0  0  0999 V2000
   45.6136    2.8722    8.6014 K   0  0  0  0  0 15  0  0  0  0  0  0
   46.0830    3.4782    8.0336 N   0  0  0  0  0  0  0  0  0  0  0  0
   44.5550    3.7508    9.9145 C   0  0  0  0  0  0  0  0  0  0  0  0
   45.4246    4.3748    8.8891 C   0  0  0  0  0  0  0  0  0  0  0  0
   45.9892    2.1036    8.2347 C   0  0  0  0  0  0  0  0  0  0  0  0
   45.2787    1.5635    9.1763 N   0  0  0  0  0  0  0  0  0  0  0  0
   43.6618    4.6114   10.8742 C   0  0  0  0  0  0  0  0  0  0  0  0
   44.5703    2.4121    9.9831 C   0  0  0  0  0  0  0  0  0  0  0  0
   43.2250    4.1482   12.0742 N   0  0  0  0  0  0  0  0  0  0  0  0
   42.4265    5.1295   12.5517 N   0  0  0  0  0  0  0  0  0  0  0  0
   42.3781    6.1386   11.6575 N   0  0  0  0  0  0  0  0  0  0  0  0
   43.1465    5.8276   10.5867 N   0  0  0  0  0  0  0  0  0  0  0  0
   46.7658    1.2173    7.2967 C   0  0  0  0  0  0  0  0  0  0  0  0
   46.8719    3.9956    7.0104 C   0  0  0  0  0  0  0  0  0  0  0  0
   45.5946    5.5921    8.8112 O   0  0  0  0  0  0  0  0  0  0  0  0
   47.5589    3.2088    6.1761 C   0  0  0  0  0  0  0  0  0  0  0  0
   47.5010    1.7818    6.3262 C   0  0  0  0  0  0  0  0  0  0  0  0
   46.6683   -0.2610    7.5040 C   0  0  0  0  0  0  0  0  0  0  0  0
   43.9505    1.9178   10.7304 H   0  0  0  0  0  0  0  0  0  0  0  0
   46.9064    5.0783    6.9155 H   0  0  0  0  0  0  0  0  0  0  0  0
   48.1677    3.6309    5.3839 H   0  0  0  0  0  0  0  0  0  0  0  0
   48.0741    1.1784    5.6294 H   0  0  0  0  0  0  0  0  0  0  0  0
   45.6312   -0.5971    7.4030 H   0  0  0  0  0  0  0  0  0  0  0  0
   47.0317   -0.5356    8.4996 H   0  0  0  0  0  0  0  0  0  0  0  0
   47.2663   -0.8136    6.7712 H   0  0  0  0  0  0  0  0  0  0  0  0
  3  4  1  0
  4  2  1  0
  5  2  1  0
  6  5  2  0
  7  3  1  0
  8  6  1  0
  9  7  1  0
 10  9  1  0
 11 12  1  0
 12  7  2  0
 13  5  1  0
 14  2  1  0
 15  4  2  0
 16 14  2  0
 17 16  1  0
 18 13  1  0
 17 13  2  0
  8  3  2  0
 10 11  2  0
  8 19  1  0
 14 20  1  0
 16 21  1  0
 17 22  1  0
 18 23  1  0
 18 24  1  0
 18 25  1  0
M  CHG  2   1   1   9  -1
M  END
> <Uni-Dock RESULT> 
ENERGY=   -6.599  LOWER_BOUND=    0.000  UPPER_BOUND=    0.000
INTER + INTRA:          -6.599
INTER:                  -6.599
INTRA:                   0.000
UNBOUND:                 0.000

$$$$

     RDKit          3D

 25 26  0  0  0  0  0  0  0  0999 V2000
   45.6107    3.1168    8.5062 K   0  0  0  0  0 15  0  0  0  0  0  0
   45.5960    2.1683    8.6060 N   0  0  0  0  0  0  0  0  0  0  0  0
   44.4946    4.0142    9.7575 C   0  0  0  0  0  0  0  0  0  0  0  0
   44.6958    2.5530    9.6114 C   0  0  0  0  0  0  0  0  0  0  0  0
   46.1566    3.1147    7.7524 C   0  0  0  0  0  0  0  0  0  0  0  0
   45.9250    4.3881    7.8426 N   0  0  0  0  0  0  0  0  0  0  0  0
   43.6108    4.6153   10.9052 C   0  0  0  0  0  0  0  0  0  0  0  0
   45.1047    4.7990    8.8580 C   0  0  0  0  0  0  0  0  0  0  0  0
   43.0410    5.8453   10.8183 N   0  0  0  0  0  0  0  0  0  0  0  0
   42.4468    6.0347   12.0182 N   0  0  0  0  0  0  0  0  0  0  0  0
   42.6685    4.9574   12.7996 N   0  0  0  0  0  0  0  0  0  0  0  0
   43.4086    4.0517   12.1172 N   0  0  0  0  0  0  0  0  0  0  0  0
   47.0763    2.6075    6.6729 C   0  0  0  0  0  0  0  0  0  0  0  0
   45.8767    0.8141    8.4496 C   0  0  0  0  0  0  0  0  0  0  0  0
   44.0898    1.7256   10.2933 O   0  0  0  0  0  0  0  0  0  0  0  0
   46.6953    0.3641    7.4933 C   0  0  0  0  0  0  0  0  0  0  0  0
   47.3101    1.2891    6.5829 C   0  0  0  0  0  0  0  0  0  0  0  0
   47.6852    3.6181    5.7532 C   0  0  0  0  0  0  0  0  0  0  0  0
   44.9730    5.8782    8.9281 H   0  0  0  0  0  0  0  0  0  0  0  0
   45.3984    0.1291    9.1456 H   0  0  0  0  0  0  0  0  0  0  0  0
   46.9025   -0.6952    7.3879 H   0  0  0  0  0  0  0  0  0  0  0  0
   47.9671    0.8835    5.8202 H   0  0  0  0  0  0  0  0  0  0  0  0
   48.2920    4.3353    6.3156 H   0  0  0  0  0  0  0  0  0  0  0  0
   46.9066    4.1649    5.2113 H   0  0  0  0  0  0  0  0  0  0  0  0
   48.3367    3.1482    5.0085 H   0  0  0  0  0  0  0  0  0  0  0  0
  3  4  1  0
  4  2  1  0
  5  2  1  0
  6  5  2  0
  7  3  1  0
  8  6  1  0
  9  7  1  0
 10  9  1  0
 11 12  1  0
 12  7  2  0
 13  5  1  0
 14  2  1  0
 15  4  2  0
 16 14  2  0
 17 16  1  0
 18 13  1  0
 17 13  2  0
  8  3  2  0
 10 11  2  0
  8 19  1  0
 14 20  1  0
 16 21  1  0
 17 22  1  0
 18 23  1  0
 18 24  1  0
 18 25  1  0
M  CHG  2   1   1   9  -1
M  END
> <Uni-Dock RESULT> 
ENERGY=   -5.194  LOWER_BOUND=    1.227  UPPER_BOUND=    2.410
INTER + INTRA:          -5.194
INTER:                  -5.194
INTRA:                   0.000
UNBOUND:                 0.000

$$$$

     RDKit          3D

 25 26  0  0  0  0  0  0  0  0999 V2000
   45.0464    6.4692   12.3972 K   0  0  0  0  0 15  0  0  0  0  0  0
   44.2900    6.0652   11.9794 N   0  0  0  0  0  0  0  0  0  0  0  0
   45.1149    8.3537   12.1505 C   0  0  0  0  0  0  0  0  0  0  0  0
   44.0995    7.4099   11.6260 C   0  0  0  0  0  0  0  0  0  0  0  0
   45.4249    5.6677   12.6811 C   0  0  0  0  0  0  0  0  0  0  0  0
   46.3454    6.4900   13.0809 N   0  0  0  0  0  0  0  0  0  0  0  0
   44.9869    9.9030   11.9438 C   0  0  0  0  0  0  0  0  0  0  0  0
   46.1514    7.8174   12.8103 C   0  0  0  0  0  0  0  0  0  0  0  0
   46.0592   10.7357   11.9908 N   0  0  0  0  0  0  0  0  0  0  0  0
   45.5373   11.9761   11.8588 N   0  0  0  0  0  0  0  0  0  0  0  0
   44.1955   11.8855   11.7513 N   0  0  0  0  0  0  0  0  0  0  0  0
   43.8268   10.5838   11.8100 N   0  0  0  0  0  0  0  0  0  0  0  0
   45.5700    4.1982   12.9777 C   0  0  0  0  0  0  0  0  0  0  0  0
   43.3435    5.1310   11.5689 C   0  0  0  0  0  0  0  0  0  0  0  0
   43.1725    7.7660   10.8974 O   0  0  0  0  0  0  0  0  0  0  0  0
   43.4708    3.8271   11.8347 C   0  0  0  0  0  0  0  0  0  0  0  0
   44.6160    3.3521   12.5595 C   0  0  0  0  0  0  0  0  0  0  0  0
   46.7851    3.7630   13.7338 C   0  0  0  0  0  0  0  0  0  0  0  0
   46.9226    8.4792   13.2031 H   0  0  0  0  0  0  0  0  0  0  0  0
   42.4858    5.5093   11.0178 H   0  0  0  0  0  0  0  0  0  0  0  0
   42.7218    3.1142   11.5072 H   0  0  0  0  0  0  0  0  0  0  0  0
   44.6825    2.2864   12.7538 H   0  0  0  0  0  0  0  0  0  0  0  0
   46.8219    4.2457   14.7159 H   0  0  0  0  0  0  0  0  0  0  0  0
   47.6953    4.0192   13.1817 H   0  0  0  0  0  0  0  0  0  0  0  0
   46.7939    2.6801   13.8988 H   0  0  0  0  0  0  0  0  0  0  0  0
  3  4  1  0
  4  2  1  0
  5  2  1  0
  6  5  2  0
  7  3  1  0
  8  6  1  0
  9  7  1  0
 10  9  1  0
 11 12  1  0
 12  7  2  0
 13  5  1  0
 14  2  1  0
 15  4  2  0
 16 14  2  0
 17 16  1  0
 18 13  1  0
 17 13  2  0
  8  3  2  0
 10 11  2  0
  8 19  1  0
 14 20  1  0
 16 21  1  0
 17 22  1  0
 18 23  1  0
 18 24  1  0
 18 25  1  0
M  CHG  2   1   1   9  -1
M  END
> <Uni-Dock RESULT> 
ENERGY=   -4.104  LOWER_BOUND=    4.554  UPPER_BOUND=    6.043
INTER + INTRA:          -4.104
INTER:                  -4.104
INTRA:                   0.000
UNBOUND:                 0.000

$$$$

     RDKit          3D

 25 26  0  0  0  0  0  0  0  0999 V2000
   45.3351    6.4777   12.3611 K   0  0  0  0  0 15  0  0  0  0  0  0
   46.0268    6.2178   12.9644 N   0  0  0  0  0  0  0  0  0  0  0  0
   45.1972    8.3633   12.1549 C   0  0  0  0  0  0  0  0  0  0  0  0
   46.1382    7.6155   13.0222 C   0  0  0  0  0  0  0  0  0  0  0  0
   45.0178    5.6145   12.2183 C   0  0  0  0  0  0  0  0  0  0  0  0
   44.1540    6.2771   11.5126 N   0  0  0  0  0  0  0  0  0  0  0  0
   45.2654    9.9239   12.0154 C   0  0  0  0  0  0  0  0  0  0  0  0
   44.2817    7.6396   11.4951 C   0  0  0  0  0  0  0  0  0  0  0  0
   44.1981   10.6682   11.6251 N   0  0  0  0  0  0  0  0  0  0  0  0
   44.6723   11.9317   11.5412 N   0  0  0  0  0  0  0  0  0  0  0  0
   45.9839   11.9369   11.8572 N   0  0  0  0  0  0  0  0  0  0  0  0
   46.3799   10.6763   12.1531 N   0  0  0  0  0  0  0  0  0  0  0  0
   44.9449    4.1105   12.2505 C   0  0  0  0  0  0  0  0  0  0  0  0
   46.9167    5.4500   13.7099 C   0  0  0  0  0  0  0  0  0  0  0  0
   46.9382    8.1738   13.7739 O   0  0  0  0  0  0  0  0  0  0  0  0
   46.8538    4.1150   13.7361 C   0  0  0  0  0  0  0  0  0  0  0  0
   45.8396    3.4306   12.9842 C   0  0  0  0  0  0  0  0  0  0  0  0
   43.8656    3.4541   11.4492 C   0  0  0  0  0  0  0  0  0  0  0  0
   43.5672    8.1552   10.8545 H   0  0  0  0  0  0  0  0  0  0  0  0
   47.6746    5.9864   14.2758 H   0  0  0  0  0  0  0  0  0  0  0  0
   47.5571    3.5337   14.3226 H   0  0  0  0  0  0  0  0  0  0  0  0
   45.8218    2.3465   13.0330 H   0  0  0  0  0  0  0  0  0  0  0  0
   43.9690    3.7008   10.3875 H   0  0  0  0  0  0  0  0  0  0  0  0
   42.8783    3.7807   11.7916 H   0  0  0  0  0  0  0  0  0  0  0  0
   43.9008    2.3629   11.5385 H   0  0  0  0  0  0  0  0  0  0  0  0
  3  4  1  0
  4  2  1  0
  5  2  1  0
  6  5  2  0
  7  3  1  0
  8  6  1  0
  9  7  1  0
 10  9  1  0
 11 12  1  0
 12  7  2  0
 13  5  1  0
 14  2  1  0
 15  4  2  0
 16 14  2  0
 17 16  1  0
 18 13  1  0
 17 13  2  0
  8  3  2  0
 10 11  2  0
  8 19  1  0
 14 20  1  0
 16 21  1  0
 17 22  1  0
 18 23  1  0
 18 24  1  0
 18 25  1  0
M  CHG  2   1   1   9  -1
M  END
> <Uni-Dock RESULT> 
ENERGY=   -3.783  LOWER_BOUND=    4.470  UPPER_BOUND=    6.122
INTER + INTRA:          -3.783
INTER:                  -3.783
INTRA:                   0.000
UNBOUND:                 0.000

$$$$
