
     RDKit          3D

 25 26  0  0  0  0  0  0  0  0999 V2000
   44.9851    4.0051    9.6743 K   0  0  0  0  0 15  0  0  0  0  0  0
   44.5863    3.2848   10.1561 N   0  0  0  0  0  0  0  0  0  0  0  0
   45.9406    3.4312    8.1333 C   0  0  0  0  0  0  0  0  0  0  0  0
   45.1863    2.5912    9.0938 C   0  0  0  0  0  0  0  0  0  0  0  0
   44.6248    4.6755   10.2099 C   0  0  0  0  0  0  0  0  0  0  0  0
   45.2310    5.4108    9.3293 N   0  0  0  0  0  0  0  0  0  0  0  0
   46.7636    2.8024    6.9557 C   0  0  0  0  0  0  0  0  0  0  0  0
   45.8838    4.7575    8.3194 C   0  0  0  0  0  0  0  0  0  0  0  0
   47.3351    1.5774    6.9638 N   0  0  0  0  0  0  0  0  0  0  0  0
   48.0091    1.5035    5.7918 N   0  0  0  0  0  0  0  0  0  0  0  0
   47.8517    2.6575    5.1110 N   0  0  0  0  0  0  0  0  0  0  0  0
   47.0754    3.4982    5.8313 N   0  0  0  0  0  0  0  0  0  0  0  0
   43.9153    5.3386   11.3611 C   0  0  0  0  0  0  0  0  0  0  0  0
   43.9092    2.5535   11.1275 C   0  0  0  0  0  0  0  0  0  0  0  0
   45.0562    1.3743    8.9555 O   0  0  0  0  0  0  0  0  0  0  0  0
   43.2818    3.1418   12.1508 C   0  0  0  0  0  0  0  0  0  0  0  0
   43.2879    4.5732   12.2675 C   0  0  0  0  0  0  0  0  0  0  0  0
   43.9542    6.8326   11.4282 C   0  0  0  0  0  0  0  0  0  0  0  0
   46.4186    5.4079    7.6281 H   0  0  0  0  0  0  0  0  0  0  0  0
   43.9121    1.4713   11.0195 H   0  0  0  0  0  0  0  0  0  0  0  0
   42.7601    2.5545   12.8987 H   0  0  0  0  0  0  0  0  0  0  0  0
   42.7661    5.0118   13.1119 H   0  0  0  0  0  0  0  0  0  0  0  0
   43.4934    7.2708   10.5369 H   0  0  0  0  0  0  0  0  0  0  0  0
   44.9871    7.1886   11.5012 H   0  0  0  0  0  0  0  0  0  0  0  0
   43.4122    7.2135   12.3005 H   0  0  0  0  0  0  0  0  0  0  0  0
  3  4  1  0
  4  2  1  0
  5  2  1  0
  6  5  2  0
  7  3  1  0
  8  6  1  0
  9  7  1  0
 10  9  1  0
 11 12  1  0
 12  7  2  0
 13  5  1  0
 14  2  1  0
 15  4  2  0
 16 14  2  0
 17 16  1  0
 18 13  1  0
 17 13  2  0
  8  3  2  0
 10 11  2  0
  8 19  1  0
 14 20  1  0
 16 21  1  0
 17 22  1  0
 18 23  1  0
 18 24  1  0
 18 25  1  0
M  CHG  2   1   1   9  -1
M  END
> <Uni-Dock RESULT> 
ENERGY=   -5.579  LOWER_BOUND=    0.000  UPPER_BOUND=    0.000
INTER + INTRA:          -5.579
INTER:                  -5.579
INTRA:                   0.000
UNBOUND:                 0.000

$$$$

     RDKit          3D

 25 26  0  0  0  0  0  0  0  0999 V2000
   45.7014    5.5971   12.8944 K   0  0  0  0  0 15  0  0  0  0  0  0
   45.1949    6.2947   12.4858 N   0  0  0  0  0  0  0  0  0  0  0  0
   47.2926    6.2225   13.7274 C   0  0  0  0  0  0  0  0  0  0  0  0
   46.2661    7.0259   13.0217 C   0  0  0  0  0  0  0  0  0  0  0  0
   45.0813    4.9263   12.7164 C   0  0  0  0  0  0  0  0  0  0  0  0
   45.9495    4.2384   13.3921 N   0  0  0  0  0  0  0  0  0  0  0  0
   48.6081    6.8694   14.2845 C   0  0  0  0  0  0  0  0  0  0  0  0
   47.0406    4.9134   13.8681 C   0  0  0  0  0  0  0  0  0  0  0  0
   49.2220    7.9614   13.7766 N   0  0  0  0  0  0  0  0  0  0  0  0
   50.3531    8.0933   14.5092 N   0  0  0  0  0  0  0  0  0  0  0  0
   50.4152    7.1000   15.4200 N   0  0  0  0  0  0  0  0  0  0  0  0
   49.3271    6.3076   15.2910 N   0  0  0  0  0  0  0  0  0  0  0  0
   43.8755    4.2303   12.1419 C   0  0  0  0  0  0  0  0  0  0  0  0
   44.2226    6.9773   11.7608 C   0  0  0  0  0  0  0  0  0  0  0  0
   46.3207    8.2537   12.9409 O   0  0  0  0  0  0  0  0  0  0  0  0
   43.1537    6.3591   11.2485 C   0  0  0  0  0  0  0  0  0  0  0  0
   42.9796    4.9473   11.4461 C   0  0  0  0  0  0  0  0  0  0  0  0
   43.7471    2.7594   12.3826 C   0  0  0  0  0  0  0  0  0  0  0  0
   47.7682    4.2919   14.3891 H   0  0  0  0  0  0  0  0  0  0  0  0
   44.3699    8.0463   11.6257 H   0  0  0  0  0  0  0  0  0  0  0  0
   42.4070    6.9084   10.6855 H   0  0  0  0  0  0  0  0  0  0  0  0
   42.0981    4.4836   11.0152 H   0  0  0  0  0  0  0  0  0  0  0  0
   43.6973    2.5471   13.4556 H   0  0  0  0  0  0  0  0  0  0  0  0
   44.6017    2.2230   11.9574 H   0  0  0  0  0  0  0  0  0  0  0  0
   42.8404    2.3510   11.9235 H   0  0  0  0  0  0  0  0  0  0  0  0
  3  4  1  0
  4  2  1  0
  5  2  1  0
  6  5  2  0
  7  3  1  0
  8  6  1  0
  9  7  1  0
 10  9  1  0
 11 12  1  0
 12  7  2  0
 13  5  1  0
 14  2  1  0
 15  4  2  0
 16 14  2  0
 17 16  1  0
 18 13  1  0
 17 13  2  0
  8  3  2  0
 10 11  2  0
  8 19  1  0
 14 20  1  0
 16 21  1  0
 17 22  1  0
 18 23  1  0
 18 24  1  0
 18 25  1  0
M  CHG  2   1   1   9  -1
M  END
> <Uni-Dock RESULT> 
ENERGY=   -3.581  LOWER_BOUND=    4.999  UPPER_BOUND=    6.680
INTER + INTRA:          -3.581
INTER:                  -3.581
INTRA:                   0.000
UNBOUND:                 0.000

$$$$

     RDKit          3D

 25 26  0  0  0  0  0  0  0  0999 V2000
   47.1895    7.8449   12.3954 K   0  0  0  0  0 15  0  0  0  0  0  0
   48.0507    7.4657   12.5517 N   0  0  0  0  0  0  0  0  0  0  0  0
   45.7699    6.6135   12.6877 C   0  0  0  0  0  0  0  0  0  0  0  0
   47.2230    6.3738   12.8551 C   0  0  0  0  0  0  0  0  0  0  0  0
   47.5042    8.7043   12.2267 C   0  0  0  0  0  0  0  0  0  0  0  0
   46.2283    8.9263   12.1461 N   0  0  0  0  0  0  0  0  0  0  0  0
   44.7170    5.4663   12.8749 C   0  0  0  0  0  0  0  0  0  0  0  0
   45.3982    7.8615   12.3694 C   0  0  0  0  0  0  0  0  0  0  0  0
   44.9419    4.1512   12.6575 N   0  0  0  0  0  0  0  0  0  0  0  0
   43.7400    3.5589   12.8522 N   0  0  0  0  0  0  0  0  0  0  0  0
   42.8234    4.4980   13.1655 N   0  0  0  0  0  0  0  0  0  0  0  0
   43.4157    5.7134   13.1768 N   0  0  0  0  0  0  0  0  0  0  0  0
   48.4667    9.8318   11.9608 C   0  0  0  0  0  0  0  0  0  0  0  0
   49.4297    7.2953   12.6321 C   0  0  0  0  0  0  0  0  0  0  0  0
   47.6789    5.3072   13.2691 O   0  0  0  0  0  0  0  0  0  0  0  0
   50.2841    8.2953   12.3934 C   0  0  0  0  0  0  0  0  0  0  0  0
   49.7851    9.5970   12.0480 C   0  0  0  0  0  0  0  0  0  0  0  0
   47.8879   11.1654   11.6080 C   0  0  0  0  0  0  0  0  0  0  0  0
   44.3376    8.0780   12.2464 H   0  0  0  0  0  0  0  0  0  0  0  0
   49.7880    6.3039   12.8992 H   0  0  0  0  0  0  0  0  0  0  0  0
   51.3558    8.1426   12.4602 H   0  0  0  0  0  0  0  0  0  0  0  0
   50.5114   10.3819   11.8631 H   0  0  0  0  0  0  0  0  0  0  0  0
   47.2525   11.5367   12.4187 H   0  0  0  0  0  0  0  0  0  0  0  0
   47.2880   11.0960   10.6947 H   0  0  0  0  0  0  0  0  0  0  0  0
   48.6690   11.9130   11.4328 H   0  0  0  0  0  0  0  0  0  0  0  0
  3  4  1  0
  4  2  1  0
  5  2  1  0
  6  5  2  0
  7  3  1  0
  8  6  1  0
  9  7  1  0
 10  9  1  0
 11 12  1  0
 12  7  2  0
 13  5  1  0
 14  2  1  0
 15  4  2  0
 16 14  2  0
 17 16  1  0
 18 13  1  0
 17 13  2  0
  8  3  2  0
 10 11  2  0
  8 19  1  0
 14 20  1  0
 16 21  1  0
 17 22  1  0
 18 23  1  0
 18 24  1  0
 18 25  1  0
M  CHG  2   1   1   9  -1
M  END
> <Uni-Dock RESULT> 
ENERGY=   -3.558  LOWER_BOUND=    5.128  UPPER_BOUND=    6.855
INTER + INTRA:          -3.558
INTER:                  -3.558
INTRA:                   0.000
UNBOUND:                 0.000

$$$$

     RDKit          3D

 25 26  0  0  0  0  0  0  0  0999 V2000
   45.0508    9.2109   11.9271 K   0  0  0  0  0 15  0  0  0  0  0  0
   44.2558    9.1344   11.4055 N   0  0  0  0  0  0  0  0  0  0  0  0
   45.7153    7.5311   12.5219 C   0  0  0  0  0  0  0  0  0  0  0  0
   44.5219    7.7841   11.6799 C   0  0  0  0  0  0  0  0  0  0  0  0
   45.1353   10.1314   11.8190 C   0  0  0  0  0  0  0  0  0  0  0  0
   46.2149    9.8981   12.4999 N   0  0  0  0  0  0  0  0  0  0  0  0
   46.0875    6.0895   13.0145 C   0  0  0  0  0  0  0  0  0  0  0  0
   46.4637    8.5965   12.8412 C   0  0  0  0  0  0  0  0  0  0  0  0
   45.2105    5.0849   13.2363 N   0  0  0  0  0  0  0  0  0  0  0  0
   45.9620    4.0749   13.7348 N   0  0  0  0  0  0  0  0  0  0  0  0
   47.2485    4.4725   13.8177 N   0  0  0  0  0  0  0  0  0  0  0  0
   47.3511    5.7465   13.3766 N   0  0  0  0  0  0  0  0  0  0  0  0
   44.7940   11.5489   11.4412 C   0  0  0  0  0  0  0  0  0  0  0  0
   43.1187    9.4498   10.6676 C   0  0  0  0  0  0  0  0  0  0  0  0
   43.8296    6.8773   11.2159 O   0  0  0  0  0  0  0  0  0  0  0  0
   42.8142   10.7082   10.3347 C   0  0  0  0  0  0  0  0  0  0  0  0
   43.6775   11.7839   10.7348 C   0  0  0  0  0  0  0  0  0  0  0  0
   45.7323   12.6267   11.8840 C   0  0  0  0  0  0  0  0  0  0  0  0
   47.3538    8.4485   13.4518 H   0  0  0  0  0  0  0  0  0  0  0  0
   42.4799    8.6214   10.3702 H   0  0  0  0  0  0  0  0  0  0  0  0
   41.9227   10.9340    9.7597 H   0  0  0  0  0  0  0  0  0  0  0  0
   43.3956   12.7906   10.4436 H   0  0  0  0  0  0  0  0  0  0  0  0
   46.7301   12.4664   11.4627 H   0  0  0  0  0  0  0  0  0  0  0  0
   45.8105   12.6453   12.9760 H   0  0  0  0  0  0  0  0  0  0  0  0
   45.3935   13.6170   11.5612 H   0  0  0  0  0  0  0  0  0  0  0  0
  3  4  1  0
  4  2  1  0
  5  2  1  0
  6  5  2  0
  7  3  1  0
  8  6  1  0
  9  7  1  0
 10  9  1  0
 11 12  1  0
 12  7  2  0
 13  5  1  0
 14  2  1  0
 15  4  2  0
 16 14  2  0
 17 16  1  0
 18 13  1  0
 17 13  2  0
  8  3  2  0
 10 11  2  0
  8 19  1  0
 14 20  1  0
 16 21  1  0
 17 22  1  0
 18 23  1  0
 18 24  1  0
 18 25  1  0
M  CHG  2   1   1   9  -1
M  END
> <Uni-Dock RESULT> 
ENERGY=   -3.530  LOWER_BOUND=    5.589  UPPER_BOUND=    6.807
INTER + INTRA:          -3.530
INTER:                  -3.530
INTRA:                   0.000
UNBOUND:                 0.000

$$$$

     RDKit          3D

 25 26  0  0  0  0  0  0  0  0999 V2000
   45.9402    6.9531   12.7299 K   0  0  0  0  0 15  0  0  0  0  0  0
   45.0474    6.8226   12.4203 N   0  0  0  0  0  0  0  0  0  0  0  0
   46.5316    8.7526   12.5592 C   0  0  0  0  0  0  0  0  0  0  0  0
   45.2039    8.1998   12.2007 C   0  0  0  0  0  0  0  0  0  0  0  0
   46.0523    6.0816   13.0365 C   0  0  0  0  0  0  0  0  0  0  0  0
   47.1886    6.5849   13.4091 N   0  0  0  0  0  0  0  0  0  0  0  0
   46.9089   10.2473   12.2709 C   0  0  0  0  0  0  0  0  0  0  0  0
   47.3959    7.9115   13.1446 C   0  0  0  0  0  0  0  0  0  0  0  0
   46.4082   11.0040   11.2688 N   0  0  0  0  0  0  0  0  0  0  0  0
   47.0822   12.1755   11.3514 N   0  0  0  0  0  0  0  0  0  0  0  0
   47.9672   12.1124   12.3678 N   0  0  0  0  0  0  0  0  0  0  0  0
   47.8826   10.8990   12.9584 N   0  0  0  0  0  0  0  0  0  0  0  0
   45.7805    4.6193   13.2740 C   0  0  0  0  0  0  0  0  0  0  0  0
   43.8453    6.2248   12.0537 C   0  0  0  0  0  0  0  0  0  0  0  0
   44.2833    8.8996   11.7767 O   0  0  0  0  0  0  0  0  0  0  0  0
   43.6051    4.9263   12.2620 C   0  0  0  0  0  0  0  0  0  0  0  0
   44.6025    4.1048   12.8888 C   0  0  0  0  0  0  0  0  0  0  0  0
   46.8562    3.8150   13.9329 C   0  0  0  0  0  0  0  0  0  0  0  0
   48.3790    8.2841   13.4304 H   0  0  0  0  0  0  0  0  0  0  0  0
   43.1010    6.8640   11.5847 H   0  0  0  0  0  0  0  0  0  0  0  0
   42.6620    4.4783   11.9684 H   0  0  0  0  0  0  0  0  0  0  0  0
   44.3681    3.0561   13.0409 H   0  0  0  0  0  0  0  0  0  0  0  0
   47.0818    4.2140   14.9272 H   0  0  0  0  0  0  0  0  0  0  0  0
   47.7715    3.8296   13.3322 H   0  0  0  0  0  0  0  0  0  0  0  0
   46.5607    2.7677   14.0574 H   0  0  0  0  0  0  0  0  0  0  0  0
  3  4  1  0
  4  2  1  0
  5  2  1  0
  6  5  2  0
  7  3  1  0
  8  6  1  0
  9  7  1  0
 10  9  1  0
 11 12  1  0
 12  7  2  0
 13  5  1  0
 14  2  1  0
 15  4  2  0
 16 14  2  0
 17 16  1  0
 18 13  1  0
 17 13  2  0
  8  3  2  0
 10 11  2  0
  8 19  1  0
 14 20  1  0
 16 21  1  0
 17 22  1  0
 18 23  1  0
 18 24  1  0
 18 25  1  0
M  CHG  2   1   1   9  -1
M  END
> <Uni-Dock RESULT> 
ENERGY=   -3.371  LOWER_BOUND=    5.346  UPPER_BOUND=    7.063
INTER + INTRA:          -3.371
INTER:                  -3.371
INTRA:                   0.000
UNBOUND:                 0.000

$$$$

     RDKit          3D

 25 26  0  0  0  0  0  0  0  0999 V2000
   47.2975    6.4197   12.9060 K   0  0  0  0  0 15  0  0  0  0  0  0
   47.6612    6.2277   13.7667 N   0  0  0  0  0  0  0  0  0  0  0  0
   45.8198    5.3095   12.4579 C   0  0  0  0  0  0  0  0  0  0  0  0
   46.6073    5.3027   13.7137 C   0  0  0  0  0  0  0  0  0  0  0  0
   47.8540    7.1467   12.7387 C   0  0  0  0  0  0  0  0  0  0  0  0
   47.1194    7.1918   11.6700 N   0  0  0  0  0  0  0  0  0  0  0  0
   44.6820    4.2636   12.1912 C   0  0  0  0  0  0  0  0  0  0  0  0
   46.1269    6.2561   11.5598 C   0  0  0  0  0  0  0  0  0  0  0  0
   44.6324    3.0113   12.6978 N   0  0  0  0  0  0  0  0  0  0  0  0
   43.5381    2.4523   12.1292 N   0  0  0  0  0  0  0  0  0  0  0  0
   42.9598    3.3443   11.2985 N   0  0  0  0  0  0  0  0  0  0  0  0
   43.6708    4.4944   11.3139 N   0  0  0  0  0  0  0  0  0  0  0  0
   48.9812    8.1324   12.9004 C   0  0  0  0  0  0  0  0  0  0  0  0
   48.4784    6.2384   14.8932 C   0  0  0  0  0  0  0  0  0  0  0  0
   46.3381    4.5680   14.6648 O   0  0  0  0  0  0  0  0  0  0  0  0
   49.4806    7.1116   15.0356 C   0  0  0  0  0  0  0  0  0  0  0  0
   49.7360    8.0827   14.0088 C   0  0  0  0  0  0  0  0  0  0  0  0
   49.1971    9.1215   11.7989 C   0  0  0  0  0  0  0  0  0  0  0  0
   45.5637    6.2980   10.6281 H   0  0  0  0  0  0  0  0  0  0  0  0
   48.2666    5.4985   15.6616 H   0  0  0  0  0  0  0  0  0  0  0  0
   50.1073    7.1036   15.9208 H   0  0  0  0  0  0  0  0  0  0  0  0
   50.5580    8.7742   14.1630 H   0  0  0  0  0  0  0  0  0  0  0  0
   48.3083    9.7459   11.6616 H   0  0  0  0  0  0  0  0  0  0  0  0
   49.4150    8.6081   10.8567 H   0  0  0  0  0  0  0  0  0  0  0  0
   50.0388    9.7889   12.0126 H   0  0  0  0  0  0  0  0  0  0  0  0
  3  4  1  0
  4  2  1  0
  5  2  1  0
  6  5  2  0
  7  3  1  0
  8  6  1  0
  9  7  1  0
 10  9  1  0
 11 12  1  0
 12  7  2  0
 13  5  1  0
 14  2  1  0
 15  4  2  0
 16 14  2  0
 17 16  1  0
 18 13  1  0
 17 13  2  0
  8  3  2  0
 10 11  2  0
  8 19  1  0
 14 20  1  0
 16 21  1  0
 17 22  1  0
 18 23  1  0
 18 24  1  0
 18 25  1  0
M  CHG  2   1   1   9  -1
M  END
> <Uni-Dock RESULT> 
ENERGY=   -3.304  LOWER_BOUND=    4.578  UPPER_BOUND=    6.135
INTER + INTRA:          -3.304
INTER:                  -3.304
INTRA:                   0.000
UNBOUND:                 0.000

$$$$

     RDKit          3D

 25 26  0  0  0  0  0  0  0  0999 V2000
   47.4997    8.7448   20.8827 K   0  0  0  0  0 15  0  0  0  0  0  0
   47.5824    7.9250   20.4020 N   0  0  0  0  0  0  0  0  0  0  0  0
   47.4006   10.2670   19.7469 C   0  0  0  0  0  0  0  0  0  0  0  0
   47.5111    8.8447   19.3444 C   0  0  0  0  0  0  0  0  0  0  0  0
   47.4440    8.3462   21.7218 C   0  0  0  0  0  0  0  0  0  0  0  0
   47.2808    9.5867   22.0654 N   0  0  0  0  0  0  0  0  0  0  0  0
   47.4251   11.4277   18.6925 C   0  0  0  0  0  0  0  0  0  0  0  0
   47.2768   10.5136   21.0587 C   0  0  0  0  0  0  0  0  0  0  0  0
   48.0551   11.3891   17.4970 N   0  0  0  0  0  0  0  0  0  0  0  0
   47.8860   12.6281   16.9779 N   0  0  0  0  0  0  0  0  0  0  0  0
   47.1845   13.3857   17.8463 N   0  0  0  0  0  0  0  0  0  0  0  0
   46.8897   12.6509   18.9424 N   0  0  0  0  0  0  0  0  0  0  0  0
   47.4875    7.2852   22.7899 C   0  0  0  0  0  0  0  0  0  0  0  0
   47.7443    6.5765   20.0986 C   0  0  0  0  0  0  0  0  0  0  0  0
   47.5016    8.4828   18.1671 O   0  0  0  0  0  0  0  0  0  0  0  0
   47.7857    5.6350   21.0467 C   0  0  0  0  0  0  0  0  0  0  0  0
   47.6541    6.0036   22.4285 C   0  0  0  0  0  0  0  0  0  0  0  0
   47.3426    7.7294   24.2111 C   0  0  0  0  0  0  0  0  0  0  0  0
   47.1843   11.5468   21.3920 H   0  0  0  0  0  0  0  0  0  0  0  0
   47.8378    6.3168   19.0467 H   0  0  0  0  0  0  0  0  0  0  0  0
   47.9135    4.5889   20.7903 H   0  0  0  0  0  0  0  0  0  0  0  0
   47.6918    5.2094   23.1672 H   0  0  0  0  0  0  0  0  0  0  0  0
   46.3797    8.2279   24.3630 H   0  0  0  0  0  0  0  0  0  0  0  0
   48.1446    8.4239   24.4818 H   0  0  0  0  0  0  0  0  0  0  0  0
   47.3896    6.8847   24.9067 H   0  0  0  0  0  0  0  0  0  0  0  0
  3  4  1  0
  4  2  1  0
  5  2  1  0
  6  5  2  0
  7  3  1  0
  8  6  1  0
  9  7  1  0
 10  9  1  0
 11 12  1  0
 12  7  2  0
 13  5  1  0
 14  2  1  0
 15  4  2  0
 16 14  2  0
 17 16  1  0
 18 13  1  0
 17 13  2  0
  8  3  2  0
 10 11  2  0
  8 19  1  0
 14 20  1  0
 16 21  1  0
 17 22  1  0
 18 23  1  0
 18 24  1  0
 18 25  1  0
M  CHG  2   1   1   9  -1
M  END
> <Uni-Dock RESULT> 
ENERGY=   -3.297  LOWER_BOUND=   12.034  UPPER_BOUND=   13.264
INTER + INTRA:          -3.297
INTER:                  -3.297
INTRA:                   0.000
UNBOUND:                 0.000

$$$$

     RDKit          3D

 25 26  0  0  0  0  0  0  0  0999 V2000
   45.7685    7.6319   12.6449 K   0  0  0  0  0 15  0  0  0  0  0  0
   46.5194    8.0400   13.0687 N   0  0  0  0  0  0  0  0  0  0  0  0
   44.6724    8.8762   11.7136 C   0  0  0  0  0  0  0  0  0  0  0  0
   45.9216    9.1549   12.4611 C   0  0  0  0  0  0  0  0  0  0  0  0
   46.0074    6.7608   12.8689 C   0  0  0  0  0  0  0  0  0  0  0  0
   44.9502    6.5144   12.1582 N   0  0  0  0  0  0  0  0  0  0  0  0
   43.8197   10.0259   11.0728 C   0  0  0  0  0  0  0  0  0  0  0  0
   44.3066    7.5906   11.6103 C   0  0  0  0  0  0  0  0  0  0  0  0
   43.7495   11.2974   11.5264 N   0  0  0  0  0  0  0  0  0  0  0  0
   42.8339   11.8977   10.7297 N   0  0  0  0  0  0  0  0  0  0  0  0
   42.3645   11.0041    9.8345 N   0  0  0  0  0  0  0  0  0  0  0  0
   42.9664    9.8105   10.0379 N   0  0  0  0  0  0  0  0  0  0  0  0
   46.7394    5.6178   13.5219 C   0  0  0  0  0  0  0  0  0  0  0  0
   47.6648    8.2365   13.8345 C   0  0  0  0  0  0  0  0  0  0  0  0
   46.4285   10.2760   12.5170 O   0  0  0  0  0  0  0  0  0  0  0  0
   48.3129    7.2224   14.4164 C   0  0  0  0  0  0  0  0  0  0  0  0
   47.8336    5.8784   14.2538 C   0  0  0  0  0  0  0  0  0  0  0  0
   46.1942    4.2402   13.3147 C   0  0  0  0  0  0  0  0  0  0  0  0
   43.3983    7.3460   11.0606 H   0  0  0  0  0  0  0  0  0  0  0  0
   48.0146    9.2606   13.9423 H   0  0  0  0  0  0  0  0  0  0  0  0
   49.2037    7.3959   15.0104 H   0  0  0  0  0  0  0  0  0  0  0  0
   48.3887    5.0834   14.7413 H   0  0  0  0  0  0  0  0  0  0  0  0
   46.1866    3.9845   12.2501 H   0  0  0  0  0  0  0  0  0  0  0  0
   45.1723    4.1677   13.7011 H   0  0  0  0  0  0  0  0  0  0  0  0
   46.7958    3.4843   13.8308 H   0  0  0  0  0  0  0  0  0  0  0  0
  3  4  1  0
  4  2  1  0
  5  2  1  0
  6  5  2  0
  7  3  1  0
  8  6  1  0
  9  7  1  0
 10  9  1  0
 11 12  1  0
 12  7  2  0
 13  5  1  0
 14  2  1  0
 15  4  2  0
 16 14  2  0
 17 16  1  0
 18 13  1  0
 17 13  2  0
  8  3  2  0
 10 11  2  0
  8 19  1  0
 14 20  1  0
 16 21  1  0
 17 22  1  0
 18 23  1  0
 18 24  1  0
 18 25  1  0
M  CHG  2   1   1   9  -1
M  END
> <Uni-Dock RESULT> 
ENERGY=   -3.262  LOWER_BOUND=    5.589  UPPER_BOUND=    7.495
INTER + INTRA:          -3.262
INTER:                  -3.262
INTRA:                   0.000
UNBOUND:                 0.000

$$$$

     RDKit          3D

 25 26  0  0  0  0  0  0  0  0999 V2000
   52.1128    2.8569   18.2128 K   0  0  0  0  0 15  0  0  0  0  0  0
   52.3148    1.9956   17.8561 N   0  0  0  0  0  0  0  0  0  0  0  0
   50.3216    3.4005   17.8763 C   0  0  0  0  0  0  0  0  0  0  0  0
   50.9664    2.1234   17.4887 C   0  0  0  0  0  0  0  0  0  0  0  0
   52.9382    2.9734   18.6268 C   0  0  0  0  0  0  0  0  0  0  0  0
   52.3487    4.0603   19.0202 N   0  0  0  0  0  0  0  0  0  0  0  0
   48.8553    3.7498   17.4434 C   0  0  0  0  0  0  0  0  0  0  0  0
   51.0536    4.2438   18.6180 C   0  0  0  0  0  0  0  0  0  0  0  0
   48.2396    3.3039   16.3256 N   0  0  0  0  0  0  0  0  0  0  0  0
   47.0394    3.9307   16.3196 N   0  0  0  0  0  0  0  0  0  0  0  0
   46.9490    4.7357   17.3984 N   0  0  0  0  0  0  0  0  0  0  0  0
   48.0894    4.6453   18.1193 N   0  0  0  0  0  0  0  0  0  0  0  0
   54.3737    2.7320   19.0134 C   0  0  0  0  0  0  0  0  0  0  0  0
   53.0001    0.8458   17.4749 C   0  0  0  0  0  0  0  0  0  0  0  0
   50.3585    1.2161   16.9194 O   0  0  0  0  0  0  0  0  0  0  0  0
   54.2751    0.6328   17.8158 C   0  0  0  0  0  0  0  0  0  0  0  0
   54.9774    1.6050   18.6058 C   0  0  0  0  0  0  0  0  0  0  0  0
   55.0520    3.7791   19.8390 C   0  0  0  0  0  0  0  0  0  0  0  0
   50.6102    5.1890   18.9295 H   0  0  0  0  0  0  0  0  0  0  0  0
   52.4501    0.1196   16.8810 H   0  0  0  0  0  0  0  0  0  0  0  0
   54.7925   -0.2694   17.5083 H   0  0  0  0  0  0  0  0  0  0  0  0
   56.0106    1.3940   18.8622 H   0  0  0  0  0  0  0  0  0  0  0  0
   54.5329    3.9137   20.7936 H   0  0  0  0  0  0  0  0  0  0  0  0
   55.0681    4.7373   19.3094 H   0  0  0  0  0  0  0  0  0  0  0  0
   56.0896    3.5093   20.0634 H   0  0  0  0  0  0  0  0  0  0  0  0
  3  4  1  0
  4  2  1  0
  5  2  1  0
  6  5  2  0
  7  3  1  0
  8  6  1  0
  9  7  1  0
 10  9  1  0
 11 12  1  0
 12  7  2  0
 13  5  1  0
 14  2  1  0
 15  4  2  0
 16 14  2  0
 17 16  1  0
 18 13  1  0
 17 13  2  0
  8  3  2  0
 10 11  2  0
  8 19  1  0
 14 20  1  0
 16 21  1  0
 17 22  1  0
 18 23  1  0
 18 24  1  0
 18 25  1  0
M  CHG  2   1   1   9  -1
M  END
> <Uni-Dock RESULT> 
ENERGY=   -3.047  LOWER_BOUND=   10.549  UPPER_BOUND=   11.691
INTER + INTRA:          -3.047
INTER:                  -3.047
INTRA:                   0.000
UNBOUND:                 0.000

$$$$
