
     RDKit          3D

 25 26  0  0  0  0  0  0  0  0999 V2000
   45.6148    2.8714    8.5998 K   0  0  0  0  0 15  0  0  0  0  0  0
   46.0844    3.4773    8.0322 N   0  0  0  0  0  0  0  0  0  0  0  0
   44.5561    3.7502    9.9126 C   0  0  0  0  0  0  0  0  0  0  0  0
   45.4261    4.3741    8.8876 C   0  0  0  0  0  0  0  0  0  0  0  0
   45.9904    2.1028    8.2331 C   0  0  0  0  0  0  0  0  0  0  0  0
   45.2793    1.5627    9.1745 N   0  0  0  0  0  0  0  0  0  0  0  0
   43.6628    4.6109   10.8722 C   0  0  0  0  0  0  0  0  0  0  0  0
   44.5710    2.4115    9.9812 C   0  0  0  0  0  0  0  0  0  0  0  0
   43.1478    5.8272   10.5846 N   0  0  0  0  0  0  0  0  0  0  0  0
   42.3793    6.1382   11.6552 N   0  0  0  0  0  0  0  0  0  0  0  0
   42.4272    5.1291   12.5493 N   0  0  0  0  0  0  0  0  0  0  0  0
   43.2254    4.1476   12.0720 N   0  0  0  0  0  0  0  0  0  0  0  0
   46.7670    1.2164    7.2953 C   0  0  0  0  0  0  0  0  0  0  0  0
   46.8739    3.9946    7.0094 C   0  0  0  0  0  0  0  0  0  0  0  0
   45.5964    5.5914    8.8098 O   0  0  0  0  0  0  0  0  0  0  0  0
   47.5610    3.2077    6.1751 C   0  0  0  0  0  0  0  0  0  0  0  0
   47.5027    1.7806    6.3251 C   0  0  0  0  0  0  0  0  0  0  0  0
   46.6691   -0.2619    7.5024 C   0  0  0  0  0  0  0  0  0  0  0  0
   43.9509    1.9172   10.7282 H   0  0  0  0  0  0  0  0  0  0  0  0
   46.9087    5.0774    6.9145 H   0  0  0  0  0  0  0  0  0  0  0  0
   48.1702    3.6298    5.3831 H   0  0  0  0  0  0  0  0  0  0  0  0
   48.0758    1.1773    5.6285 H   0  0  0  0  0  0  0  0  0  0  0  0
   47.0319   -0.5368    8.4982 H   0  0  0  0  0  0  0  0  0  0  0  0
   47.2671   -0.8146    6.7697 H   0  0  0  0  0  0  0  0  0  0  0  0
   45.6319   -0.5977    7.4011 H   0  0  0  0  0  0  0  0  0  0  0  0
  3  4  1  0
  4  2  1  0
  5  2  1  0
  6  5  2  0
  7  3  1  0
  8  6  1  0
  9  7  1  0
 10  9  1  0
 11 12  1  0
 12  7  2  0
 13  5  1  0
 14  2  1  0
 15  4  2  0
 16 14  2  0
 17 16  1  0
 18 13  1  0
 17 13  2  0
  8  3  2  0
 10 11  2  0
  8 19  1  0
 14 20  1  0
 16 21  1  0
 17 22  1  0
 18 23  1  0
 18 24  1  0
 18 25  1  0
M  CHG  2   1   1   9  -1
M  END
> <Uni-Dock RESULT> 
ENERGY=   -6.594  LOWER_BOUND=    0.000  UPPER_BOUND=    0.000
INTER + INTRA:          -6.594
INTER:                  -6.594
INTRA:                   0.000
UNBOUND:                 0.000

$$$$

     RDKit          3D

 25 26  0  0  0  0  0  0  0  0999 V2000
   45.6109    3.1166    8.5059 K   0  0  0  0  0 15  0  0  0  0  0  0
   45.5960    2.1680    8.6058 N   0  0  0  0  0  0  0  0  0  0  0  0
   44.4947    4.0141    9.7569 C   0  0  0  0  0  0  0  0  0  0  0  0
   44.6956    2.5529    9.6109 C   0  0  0  0  0  0  0  0  0  0  0  0
   46.1569    3.1143    7.7522 C   0  0  0  0  0  0  0  0  0  0  0  0
   45.9256    4.3878    7.8423 N   0  0  0  0  0  0  0  0  0  0  0  0
   43.6108    4.6155   10.9045 C   0  0  0  0  0  0  0  0  0  0  0  0
   45.1051    4.7988    8.8577 C   0  0  0  0  0  0  0  0  0  0  0  0
   43.4083    4.0520   12.1165 N   0  0  0  0  0  0  0  0  0  0  0  0
   42.6683    4.9579   12.7986 N   0  0  0  0  0  0  0  0  0  0  0  0
   42.4471    6.0351   12.0172 N   0  0  0  0  0  0  0  0  0  0  0  0
   43.0414    5.8458   10.8175 N   0  0  0  0  0  0  0  0  0  0  0  0
   47.0767    2.6069    6.6730 C   0  0  0  0  0  0  0  0  0  0  0  0
   45.8763    0.8138    8.4494 C   0  0  0  0  0  0  0  0  0  0  0  0
   44.0892    1.7257   10.2928 O   0  0  0  0  0  0  0  0  0  0  0  0
   46.6950    0.3636    7.4932 C   0  0  0  0  0  0  0  0  0  0  0  0
   47.3103    1.2884    6.5829 C   0  0  0  0  0  0  0  0  0  0  0  0
   47.6860    3.6173    5.7534 C   0  0  0  0  0  0  0  0  0  0  0  0
   44.9738    5.8780    8.9276 H   0  0  0  0  0  0  0  0  0  0  0  0
   45.3977    0.1288    9.1454 H   0  0  0  0  0  0  0  0  0  0  0  0
   46.9020   -0.6959    7.3879 H   0  0  0  0  0  0  0  0  0  0  0  0
   47.9673    0.8827    5.8203 H   0  0  0  0  0  0  0  0  0  0  0  0
   46.9078    4.1643    5.2113 H   0  0  0  0  0  0  0  0  0  0  0  0
   48.3376    3.1472    5.0089 H   0  0  0  0  0  0  0  0  0  0  0  0
   48.2929    4.3343    6.3159 H   0  0  0  0  0  0  0  0  0  0  0  0
  3  4  1  0
  4  2  1  0
  5  2  1  0
  6  5  2  0
  7  3  1  0
  8  6  1  0
  9  7  1  0
 10  9  1  0
 11 12  1  0
 12  7  2  0
 13  5  1  0
 14  2  1  0
 15  4  2  0
 16 14  2  0
 17 16  1  0
 18 13  1  0
 17 13  2  0
  8  3  2  0
 10 11  2  0
  8 19  1  0
 14 20  1  0
 16 21  1  0
 17 22  1  0
 18 23  1  0
 18 24  1  0
 18 25  1  0
M  CHG  2   1   1   9  -1
M  END
> <Uni-Dock RESULT> 
ENERGY=   -5.195  LOWER_BOUND=    1.227  UPPER_BOUND=    2.410
INTER + INTRA:          -5.195
INTER:                  -5.195
INTRA:                   0.000
UNBOUND:                 0.000

$$$$

     RDKit          3D

 25 26  0  0  0  0  0  0  0  0999 V2000
   45.1769    7.7579   12.0661 K   0  0  0  0  0 15  0  0  0  0  0  0
   44.5507    8.3330   11.6337 N   0  0  0  0  0  0  0  0  0  0  0  0
   44.5801    5.9555   12.1746 C   0  0  0  0  0  0  0  0  0  0  0  0
   43.8598    7.1123   11.5918 C   0  0  0  0  0  0  0  0  0  0  0  0
   45.7774    8.4346   12.2845 C   0  0  0  0  0  0  0  0  0  0  0  0
   46.3735    7.4314   12.8516 N   0  0  0  0  0  0  0  0  0  0  0  0
   43.9982    4.5007   12.1061 C   0  0  0  0  0  0  0  0  0  0  0  0
   45.7551    6.2135   12.7661 C   0  0  0  0  0  0  0  0  0  0  0  0
   43.1792    4.0277   11.1402 N   0  0  0  0  0  0  0  0  0  0  0  0
   43.0153    2.7171   11.4384 N   0  0  0  0  0  0  0  0  0  0  0  0
   43.7268    2.4170   12.5445 N   0  0  0  0  0  0  0  0  0  0  0  0
   44.3645    3.5271   12.9798 N   0  0  0  0  0  0  0  0  0  0  0  0
   46.4261    9.7933   12.3200 C   0  0  0  0  0  0  0  0  0  0  0  0
   43.9582    9.4508   11.0537 C   0  0  0  0  0  0  0  0  0  0  0  0
   42.7188    7.0259   11.1364 O   0  0  0  0  0  0  0  0  0  0  0  0
   44.5353   10.6564   11.0827 C   0  0  0  0  0  0  0  0  0  0  0  0
   45.8038   10.8278   11.7339 C   0  0  0  0  0  0  0  0  0  0  0  0
   47.7458    9.9106   13.0147 C   0  0  0  0  0  0  0  0  0  0  0  0
   46.3096    5.3895   13.2137 H   0  0  0  0  0  0  0  0  0  0  0  0
   42.9960    9.3019   10.5692 H   0  0  0  0  0  0  0  0  0  0  0  0
   44.0582   11.5156   10.6240 H   0  0  0  0  0  0  0  0  0  0  0  0
   46.2381   11.8224   11.7366 H   0  0  0  0  0  0  0  0  0  0  0  0
   47.6539    9.6264   14.0680 H   0  0  0  0  0  0  0  0  0  0  0  0
   48.1314   10.9354   12.9825 H   0  0  0  0  0  0  0  0  0  0  0  0
   48.4906    9.2637   12.5397 H   0  0  0  0  0  0  0  0  0  0  0  0
  3  4  1  0
  4  2  1  0
  5  2  1  0
  6  5  2  0
  7  3  1  0
  8  6  1  0
  9  7  1  0
 10  9  1  0
 11 12  1  0
 12  7  2  0
 13  5  1  0
 14  2  1  0
 15  4  2  0
 16 14  2  0
 17 16  1  0
 18 13  1  0
 17 13  2  0
  8  3  2  0
 10 11  2  0
  8 19  1  0
 14 20  1  0
 16 21  1  0
 17 22  1  0
 18 23  1  0
 18 24  1  0
 18 25  1  0
M  CHG  2   1   1   9  -1
M  END
> <Uni-Dock RESULT> 
ENERGY=   -3.892  LOWER_BOUND=    4.587  UPPER_BOUND=    6.530
INTER + INTRA:          -3.892
INTER:                  -3.892
INTRA:                   0.000
UNBOUND:                 0.000

$$$$

     RDKit          3D

 25 26  0  0  0  0  0  0  0  0999 V2000
   45.3054    6.4667   12.3428 K   0  0  0  0  0 15  0  0  0  0  0  0
   45.9976    6.2036   12.9441 N   0  0  0  0  0  0  0  0  0  0  0  0
   45.1696    8.3531   12.1442 C   0  0  0  0  0  0  0  0  0  0  0  0
   46.1108    7.6009   13.0073 C   0  0  0  0  0  0  0  0  0  0  0  0
   44.9868    5.6044   12.1971 C   0  0  0  0  0  0  0  0  0  0  0  0
   44.1229    6.2709   11.4951 N   0  0  0  0  0  0  0  0  0  0  0  0
   45.2395    9.9142   12.0106 C   0  0  0  0  0  0  0  0  0  0  0  0
   44.2523    7.6333   11.4828 C   0  0  0  0  0  0  0  0  0  0  0  0
   46.3552   10.6647   12.1497 N   0  0  0  0  0  0  0  0  0  0  0  0
   45.9603   11.9269   11.8593 N   0  0  0  0  0  0  0  0  0  0  0  0
   44.6483   11.9246   11.5450 N   0  0  0  0  0  0  0  0  0  0  0  0
   44.1726   10.6614   11.6247 N   0  0  0  0  0  0  0  0  0  0  0  0
   44.9121    4.1004   12.2235 C   0  0  0  0  0  0  0  0  0  0  0  0
   46.8874    5.4318   13.6854 C   0  0  0  0  0  0  0  0  0  0  0  0
   46.9126    8.1553   13.7601 O   0  0  0  0  0  0  0  0  0  0  0  0
   46.8229    4.0966   13.7066 C   0  0  0  0  0  0  0  0  0  0  0  0
   45.8067    3.4165   12.9534 C   0  0  0  0  0  0  0  0  0  0  0  0
   43.8308    3.4485   11.4211 C   0  0  0  0  0  0  0  0  0  0  0  0
   43.5375    8.1522   10.8452 H   0  0  0  0  0  0  0  0  0  0  0  0
   47.6469    5.9650   14.2525 H   0  0  0  0  0  0  0  0  0  0  0  0
   47.5263    3.5123   14.2899 H   0  0  0  0  0  0  0  0  0  0  0  0
   45.7877    2.3323   12.9980 H   0  0  0  0  0  0  0  0  0  0  0  0
   42.8443    3.7750   11.7660 H   0  0  0  0  0  0  0  0  0  0  0  0
   43.8648    2.3570   11.5062 H   0  0  0  0  0  0  0  0  0  0  0  0
   43.9332    3.6993   10.3603 H   0  0  0  0  0  0  0  0  0  0  0  0
  3  4  1  0
  4  2  1  0
  5  2  1  0
  6  5  2  0
  7  3  1  0
  8  6  1  0
  9  7  1  0
 10  9  1  0
 11 12  1  0
 12  7  2  0
 13  5  1  0
 14  2  1  0
 15  4  2  0
 16 14  2  0
 17 16  1  0
 18 13  1  0
 17 13  2  0
  8  3  2  0
 10 11  2  0
  8 19  1  0
 14 20  1  0
 16 21  1  0
 17 22  1  0
 18 23  1  0
 18 24  1  0
 18 25  1  0
M  CHG  2   1   1   9  -1
M  END
> <Uni-Dock RESULT> 
ENERGY=   -3.782  LOWER_BOUND=    4.447  UPPER_BOUND=    6.105
INTER + INTRA:          -3.782
INTER:                  -3.782
INTRA:                   0.000
UNBOUND:                 0.000

$$$$

     RDKit          3D

 25 26  0  0  0  0  0  0  0  0999 V2000
   47.3144    8.0453   12.2287 K   0  0  0  0  0 15  0  0  0  0  0  0
   47.0500    8.9609   12.1884 N   0  0  0  0  0  0  0  0  0  0  0  0
   45.8572    6.8630   12.5377 C   0  0  0  0  0  0  0  0  0  0  0  0
   45.8162    8.3413   12.4392 C   0  0  0  0  0  0  0  0  0  0  0  0
   48.2260    8.2163   12.1515 C   0  0  0  0  0  0  0  0  0  0  0  0
   48.2643    6.9285   12.3047 N   0  0  0  0  0  0  0  0  0  0  0  0
   44.5514    6.0098   12.7011 C   0  0  0  0  0  0  0  0  0  0  0  0
   47.0674    6.2890   12.4820 C   0  0  0  0  0  0  0  0  0  0  0  0
   43.3261    6.3551   12.2464 N   0  0  0  0  0  0  0  0  0  0  0  0
   42.5406    5.2888   12.5279 N   0  0  0  0  0  0  0  0  0  0  0  0
   43.2815    4.3314   13.1233 N   0  0  0  0  0  0  0  0  0  0  0  0
   44.5588    4.7607   13.2353 N   0  0  0  0  0  0  0  0  0  0  0  0
   49.5097    8.9698   11.9222 C   0  0  0  0  0  0  0  0  0  0  0  0
   47.0776   10.3430   12.0274 C   0  0  0  0  0  0  0  0  0  0  0  0
   44.7832    8.9915   12.6039 O   0  0  0  0  0  0  0  0  0  0  0  0
   48.2168   11.0116   11.8210 C   0  0  0  0  0  0  0  0  0  0  0  0
   49.4642   10.3020   11.7670 C   0  0  0  0  0  0  0  0  0  0  0  0
   50.7775    8.1769   11.8783 C   0  0  0  0  0  0  0  0  0  0  0  0
   47.1383    5.2047   12.5598 H   0  0  0  0  0  0  0  0  0  0  0  0
   46.1237   10.8630   12.0757 H   0  0  0  0  0  0  0  0  0  0  0  0
   48.2178   12.0891   11.6968 H   0  0  0  0  0  0  0  0  0  0  0  0
   50.3663   10.8815   11.5988 H   0  0  0  0  0  0  0  0  0  0  0  0
   50.9370    7.6516   12.8255 H   0  0  0  0  0  0  0  0  0  0  0  0
   51.6499    8.8164   11.7053 H   0  0  0  0  0  0  0  0  0  0  0  0
   50.7438    7.4402   11.0690 H   0  0  0  0  0  0  0  0  0  0  0  0
  3  4  1  0
  4  2  1  0
  5  2  1  0
  6  5  2  0
  7  3  1  0
  8  6  1  0
  9  7  1  0
 10  9  1  0
 11 12  1  0
 12  7  2  0
 13  5  1  0
 14  2  1  0
 15  4  2  0
 16 14  2  0
 17 16  1  0
 18 13  1  0
 17 13  2  0
  8  3  2  0
 10 11  2  0
  8 19  1  0
 14 20  1  0
 16 21  1  0
 17 22  1  0
 18 23  1  0
 18 24  1  0
 18 25  1  0
M  CHG  2   1   1   9  -1
M  END
> <Uni-Dock RESULT> 
ENERGY=   -3.712  LOWER_BOUND=    5.223  UPPER_BOUND=    6.558
INTER + INTRA:          -3.712
INTER:                  -3.712
INTRA:                   0.000
UNBOUND:                 0.000

$$$$

     RDKit          3D

 25 26  0  0  0  0  0  0  0  0999 V2000
   45.2836    8.5629   12.0683 K   0  0  0  0  0 15  0  0  0  0  0  0
   44.4515    8.5306   11.6030 N   0  0  0  0  0  0  0  0  0  0  0  0
   45.8054    6.8771   12.7774 C   0  0  0  0  0  0  0  0  0  0  0  0
   44.5707    7.1967   12.0222 C   0  0  0  0  0  0  0  0  0  0  0  0
   45.3929    9.4833   11.9839 C   0  0  0  0  0  0  0  0  0  0  0  0
   46.4386    9.2108   12.7019 N   0  0  0  0  0  0  0  0  0  0  0  0
   46.1471    5.4116   13.2189 C   0  0  0  0  0  0  0  0  0  0  0  0
   46.6170    7.9040   13.0670 C   0  0  0  0  0  0  0  0  0  0  0  0
   45.7587    4.2874   12.5763 N   0  0  0  0  0  0  0  0  0  0  0  0
   46.3563    3.2789   13.2538 N   0  0  0  0  0  0  0  0  0  0  0  0
   47.0892    3.7906   14.2643 N   0  0  0  0  0  0  0  0  0  0  0  0
   46.9800    5.1383   14.2567 N   0  0  0  0  0  0  0  0  0  0  0  0
   45.1611   10.8995   11.5270 C   0  0  0  0  0  0  0  0  0  0  0  0
   43.3443    8.8898   10.8400 C   0  0  0  0  0  0  0  0  0  0  0  0
   43.6874    6.3658   11.8072 O   0  0  0  0  0  0  0  0  0  0  0  0
   43.1400   10.1464   10.4320 C   0  0  0  0  0  0  0  0  0  0  0  0
   44.0764   11.1759   10.7867 C   0  0  0  0  0  0  0  0  0  0  0  0
   46.1693   11.9288   11.9294 C   0  0  0  0  0  0  0  0  0  0  0  0
   47.5300    7.7093   13.6286 H   0  0  0  0  0  0  0  0  0  0  0  0
   42.6445    8.0973   10.5852 H   0  0  0  0  0  0  0  0  0  0  0  0
   42.2713   10.4065    9.8370 H   0  0  0  0  0  0  0  0  0  0  0  0
   43.8738   12.1831   10.4369 H   0  0  0  0  0  0  0  0  0  0  0  0
   46.2312   12.0024   13.0201 H   0  0  0  0  0  0  0  0  0  0  0  0
   45.9102   12.9218   11.5464 H   0  0  0  0  0  0  0  0  0  0  0  0
   47.1592   11.6729   11.5376 H   0  0  0  0  0  0  0  0  0  0  0  0
  3  4  1  0
  4  2  1  0
  5  2  1  0
  6  5  2  0
  7  3  1  0
  8  6  1  0
  9  7  1  0
 10  9  1  0
 11 12  1  0
 12  7  2  0
 13  5  1  0
 14  2  1  0
 15  4  2  0
 16 14  2  0
 17 16  1  0
 18 13  1  0
 17 13  2  0
  8  3  2  0
 10 11  2  0
  8 19  1  0
 14 20  1  0
 16 21  1  0
 17 22  1  0
 18 23  1  0
 18 24  1  0
 18 25  1  0
M  CHG  2   1   1   9  -1
M  END
> <Uni-Dock RESULT> 
ENERGY=   -3.634  LOWER_BOUND=    5.355  UPPER_BOUND=    7.302
INTER + INTRA:          -3.634
INTER:                  -3.634
INTRA:                   0.000
UNBOUND:                 0.000

$$$$

     RDKit          3D

 25 26  0  0  0  0  0  0  0  0999 V2000
   45.5868    7.2118   12.5280 K   0  0  0  0  0 15  0  0  0  0  0  0
   45.2213    6.3360   12.4314 N   0  0  0  0  0  0  0  0  0  0  0  0
   44.5776    8.5434   11.6197 C   0  0  0  0  0  0  0  0  0  0  0  0
   44.3149    7.0855   11.6659 C   0  0  0  0  0  0  0  0  0  0  0  0
   46.3399    6.9381   13.0013 C   0  0  0  0  0  0  0  0  0  0  0  0
   46.6010    8.2052   12.9020 N   0  0  0  0  0  0  0  0  0  0  0  0
   43.5973    9.5368   10.9041 C   0  0  0  0  0  0  0  0  0  0  0  0
   45.6970    8.9730   12.2192 C   0  0  0  0  0  0  0  0  0  0  0  0
   42.2655    9.3567   10.7583 N   0  0  0  0  0  0  0  0  0  0  0  0
   41.8256   10.4955   10.1728 N   0  0  0  0  0  0  0  0  0  0  0  0
   42.8658   11.3340    9.9863 N   0  0  0  0  0  0  0  0  0  0  0  0
   43.9956   10.7534   10.4495 N   0  0  0  0  0  0  0  0  0  0  0  0
   47.2836    6.0490   13.7676 C   0  0  0  0  0  0  0  0  0  0  0  0
   45.0037    4.9679   12.5656 C   0  0  0  0  0  0  0  0  0  0  0  0
   43.3918    6.5550   11.0469 O   0  0  0  0  0  0  0  0  0  0  0  0
   45.8398    4.1791   13.2483 C   0  0  0  0  0  0  0  0  0  0  0  0
   47.0098    4.7389   13.8649 C   0  0  0  0  0  0  0  0  0  0  0  0
   48.4864    6.6886   14.3857 C   0  0  0  0  0  0  0  0  0  0  0  0
   45.9283   10.0374   12.1985 H   0  0  0  0  0  0  0  0  0  0  0  0
   44.1149    4.5621   12.0881 H   0  0  0  0  0  0  0  0  0  0  0  0
   45.6525    3.1150   13.3426 H   0  0  0  0  0  0  0  0  0  0  0  0
   47.6637    4.0648   14.4088 H   0  0  0  0  0  0  0  0  0  0  0  0
   49.1142    7.1523   13.6179 H   0  0  0  0  0  0  0  0  0  0  0  0
   49.1044    5.9587   14.9198 H   0  0  0  0  0  0  0  0  0  0  0  0
   48.1874    7.4566   15.1065 H   0  0  0  0  0  0  0  0  0  0  0  0
  3  4  1  0
  4  2  1  0
  5  2  1  0
  6  5  2  0
  7  3  1  0
  8  6  1  0
  9  7  1  0
 10  9  1  0
 11 12  1  0
 12  7  2  0
 13  5  1  0
 14  2  1  0
 15  4  2  0
 16 14  2  0
 17 16  1  0
 18 13  1  0
 17 13  2  0
  8  3  2  0
 10 11  2  0
  8 19  1  0
 14 20  1  0
 16 21  1  0
 17 22  1  0
 18 23  1  0
 18 24  1  0
 18 25  1  0
M  CHG  2   1   1   9  -1
M  END
> <Uni-Dock RESULT> 
ENERGY=   -3.619  LOWER_BOUND=    5.000  UPPER_BOUND=    6.419
INTER + INTRA:          -3.619
INTER:                  -3.619
INTRA:                   0.000
UNBOUND:                 0.000

$$$$
