
     RDKit          3D

 25 26  0  0  0  0  0  0  0  0999 V2000
   45.7421    2.8210    8.5456 K   0  0  0  0  0 15  0  0  0  0  0  0
   46.2227    3.3929    7.9524 N   0  0  0  0  0  0  0  0  0  0  0  0
   44.6260    3.7731    9.7558 C   0  0  0  0  0  0  0  0  0  0  0  0
   45.4901    4.3349    8.6906 C   0  0  0  0  0  0  0  0  0  0  0  0
   46.0404    2.0282    8.1601 C   0  0  0  0  0  0  0  0  0  0  0  0
   45.2321    1.5400    9.0498 N   0  0  0  0  0  0  0  0  0  0  0  0
   43.8303    4.6940   10.7449 C   0  0  0  0  0  0  0  0  0  0  0  0
   44.5560    2.4365    9.8319 C   0  0  0  0  0  0  0  0  0  0  0  0
   42.7211    4.2690   11.4042 N   0  0  0  0  0  0  0  0  0  0  0  0
   42.3849    5.3001   12.2117 N   0  0  0  0  0  0  0  0  0  0  0  0
   43.2742    6.3014   12.0490 N   0  0  0  0  0  0  0  0  0  0  0  0
   44.2003    5.9354   11.1313 N   0  0  0  0  0  0  0  0  0  0  0  0
   46.8343    1.0887    7.2909 C   0  0  0  0  0  0  0  0  0  0  0  0
   47.0982    3.8530    6.9731 C   0  0  0  0  0  0  0  0  0  0  0  0
   45.5381    5.5394    8.4379 O   0  0  0  0  0  0  0  0  0  0  0  0
   47.8050    3.0192    6.2036 C   0  0  0  0  0  0  0  0  0  0  0  0
   47.6670    1.5994    6.3707 C   0  0  0  0  0  0  0  0  0  0  0  0
   46.6467   -0.3792    7.5096 C   0  0  0  0  0  0  0  0  0  0  0  0
   43.9238    1.9867   10.5968 H   0  0  0  0  0  0  0  0  0  0  0  0
   47.1858    4.9308    6.8589 H   0  0  0  0  0  0  0  0  0  0  0  0
   48.4833    3.3970    5.4463 H   0  0  0  0  0  0  0  0  0  0  0  0
   48.2574    0.9567    5.7255 H   0  0  0  0  0  0  0  0  0  0  0  0
   47.2684   -0.9730    6.8308 H   0  0  0  0  0  0  0  0  0  0  0  0
   46.9211   -0.6550    8.5331 H   0  0  0  0  0  0  0  0  0  0  0  0
   45.6042   -0.6649    7.3358 H   0  0  0  0  0  0  0  0  0  0  0  0
  3  4  1  0
  4  2  1  0
  5  2  1  0
  6  5  2  0
  7  3  1  0
  8  6  1  0
  9  7  1  0
 10  9  1  0
 11 12  1  0
 12  7  2  0
 13  5  1  0
 14  2  1  0
 15  4  2  0
 16 14  2  0
 17 16  1  0
 18 13  1  0
 17 13  2  0
  8  3  2  0
 10 11  2  0
  8 19  1  0
 14 20  1  0
 16 21  1  0
 17 22  1  0
 18 23  1  0
 18 24  1  0
 18 25  1  0
M  CHG  2   1   1   9  -1
M  END
> <Uni-Dock RESULT> 
ENERGY=   -6.041  LOWER_BOUND=    0.000  UPPER_BOUND=    0.000
INTER + INTRA:          -6.041
INTER:                  -6.041
INTRA:                   0.000
UNBOUND:                 0.000

$$$$

     RDKit          3D

 25 26  0  0  0  0  0  0  0  0999 V2000
   44.9850    4.0050    9.6743 K   0  0  0  0  0 15  0  0  0  0  0  0
   44.5864    3.2846   10.1561 N   0  0  0  0  0  0  0  0  0  0  0  0
   45.9405    3.4311    8.1334 C   0  0  0  0  0  0  0  0  0  0  0  0
   45.1862    2.5911    9.0938 C   0  0  0  0  0  0  0  0  0  0  0  0
   44.6248    4.6754   10.2099 C   0  0  0  0  0  0  0  0  0  0  0  0
   45.2309    5.4107    9.3294 N   0  0  0  0  0  0  0  0  0  0  0  0
   46.7635    2.8024    6.9556 C   0  0  0  0  0  0  0  0  0  0  0  0
   45.8837    4.7575    8.3194 C   0  0  0  0  0  0  0  0  0  0  0  0
   47.0753    3.4982    5.8313 N   0  0  0  0  0  0  0  0  0  0  0  0
   47.8517    2.6576    5.1110 N   0  0  0  0  0  0  0  0  0  0  0  0
   48.0092    1.5036    5.7917 N   0  0  0  0  0  0  0  0  0  0  0  0
   47.3351    1.5774    6.9638 N   0  0  0  0  0  0  0  0  0  0  0  0
   43.9152    5.3385   11.3612 C   0  0  0  0  0  0  0  0  0  0  0  0
   43.9093    2.5532   11.1274 C   0  0  0  0  0  0  0  0  0  0  0  0
   45.0564    1.3742    8.9555 O   0  0  0  0  0  0  0  0  0  0  0  0
   43.2819    3.1415   12.1508 C   0  0  0  0  0  0  0  0  0  0  0  0
   43.2880    4.5729   12.2676 C   0  0  0  0  0  0  0  0  0  0  0  0
   43.9541    6.8323   11.4283 C   0  0  0  0  0  0  0  0  0  0  0  0
   46.4184    5.4079    7.6281 H   0  0  0  0  0  0  0  0  0  0  0  0
   43.9123    1.4712   11.0196 H   0  0  0  0  0  0  0  0  0  0  0  0
   42.7603    2.5543   12.8987 H   0  0  0  0  0  0  0  0  0  0  0  0
   42.7661    5.0115   13.1120 H   0  0  0  0  0  0  0  0  0  0  0  0
   43.4121    7.2133   12.3005 H   0  0  0  0  0  0  0  0  0  0  0  0
   44.9869    7.1885   11.5013 H   0  0  0  0  0  0  0  0  0  0  0  0
   43.4931    7.2706   10.5371 H   0  0  0  0  0  0  0  0  0  0  0  0
  3  4  1  0
  4  2  1  0
  5  2  1  0
  6  5  2  0
  7  3  1  0
  8  6  1  0
  9  7  1  0
 10  9  1  0
 11 12  1  0
 12  7  2  0
 13  5  1  0
 14  2  1  0
 15  4  2  0
 16 14  2  0
 17 16  1  0
 18 13  1  0
 17 13  2  0
  8  3  2  0
 10 11  2  0
  8 19  1  0
 14 20  1  0
 16 21  1  0
 17 22  1  0
 18 23  1  0
 18 24  1  0
 18 25  1  0
M  CHG  2   1   1   9  -1
M  END
> <Uni-Dock RESULT> 
ENERGY=   -5.580  LOWER_BOUND=    2.248  UPPER_BOUND=    5.939
INTER + INTRA:          -5.580
INTER:                  -5.580
INTRA:                   0.000
UNBOUND:                 0.000

$$$$

     RDKit          3D

 25 26  0  0  0  0  0  0  0  0999 V2000
   45.7364    3.1748    8.3902 K   0  0  0  0  0 15  0  0  0  0  0  0
   45.6702    2.2418    8.5777 N   0  0  0  0  0  0  0  0  0  0  0  0
   44.7499    4.2506    9.6093 C   0  0  0  0  0  0  0  0  0  0  0  0
   44.8882    2.7749    9.6137 C   0  0  0  0  0  0  0  0  0  0  0  0
   46.3442    3.0785    7.6921 C   0  0  0  0  0  0  0  0  0  0  0  0
   46.2728    4.3733    7.7335 N   0  0  0  0  0  0  0  0  0  0  0  0
   43.8193    4.9958   10.6283 C   0  0  0  0  0  0  0  0  0  0  0  0
   45.4618    4.9194    8.6910 C   0  0  0  0  0  0  0  0  0  0  0  0
   43.9991    6.3008   10.9602 N   0  0  0  0  0  0  0  0  0  0  0  0
   42.9632    6.5934   11.7784 N   0  0  0  0  0  0  0  0  0  0  0  0
   42.1833    5.5013   11.9172 N   0  0  0  0  0  0  0  0  0  0  0  0
   42.7032    4.4825   11.1924 N   0  0  0  0  0  0  0  0  0  0  0  0
   47.1975    2.4207    6.6395 C   0  0  0  0  0  0  0  0  0  0  0  0
   45.7972    0.8589    8.4866 C   0  0  0  0  0  0  0  0  0  0  0  0
   44.3882    2.0616   10.4845 O   0  0  0  0  0  0  0  0  0  0  0  0
   46.5522    0.2749    7.5507 C   0  0  0  0  0  0  0  0  0  0  0  0
   47.2695    1.0812    6.6031 C   0  0  0  0  0  0  0  0  0  0  0  0
   47.9227    3.3123    5.6820 C   0  0  0  0  0  0  0  0  0  0  0  0
   45.3927    6.0063    8.6627 H   0  0  0  0  0  0  0  0  0  0  0  0
   45.2500    0.2657    9.2154 H   0  0  0  0  0  0  0  0  0  0  0  0
   46.6378   -0.8048    7.4951 H   0  0  0  0  0  0  0  0  0  0  0  0
   47.8722    0.5687    5.8600 H   0  0  0  0  0  0  0  0  0  0  0  0
   48.5109    2.7374    4.9586 H   0  0  0  0  0  0  0  0  0  0  0  0
   47.2153    3.9274    5.1163 H   0  0  0  0  0  0  0  0  0  0  0  0
   48.6132    3.9725    6.2171 H   0  0  0  0  0  0  0  0  0  0  0  0
  3  4  1  0
  4  2  1  0
  5  2  1  0
  6  5  2  0
  7  3  1  0
  8  6  1  0
  9  7  1  0
 10  9  1  0
 11 12  1  0
 12  7  2  0
 13  5  1  0
 14  2  1  0
 15  4  2  0
 16 14  2  0
 17 16  1  0
 18 13  1  0
 17 13  2  0
  8  3  2  0
 10 11  2  0
  8 19  1  0
 14 20  1  0
 16 21  1  0
 17 22  1  0
 18 23  1  0
 18 24  1  0
 18 25  1  0
M  CHG  2   1   1   9  -1
M  END
> <Uni-Dock RESULT> 
ENERGY=   -4.711  LOWER_BOUND=    1.214  UPPER_BOUND=    2.403
INTER + INTRA:          -4.711
INTER:                  -4.711
INTRA:                   0.000
UNBOUND:                 0.000

$$$$

     RDKit          3D

 25 26  0  0  0  0  0  0  0  0999 V2000
   44.7911    7.2138   12.1760 K   0  0  0  0  0 15  0  0  0  0  0  0
   44.0078    6.8212   11.7988 N   0  0  0  0  0  0  0  0  0  0  0  0
   44.9278    9.0792   11.8322 C   0  0  0  0  0  0  0  0  0  0  0  0
   43.8398    8.1615   11.4187 C   0  0  0  0  0  0  0  0  0  0  0  0
   45.0780    6.4383   12.6029 C   0  0  0  0  0  0  0  0  0  0  0  0
   45.9929    7.2593   13.0179 N   0  0  0  0  0  0  0  0  0  0  0  0
   44.9511   10.5840   11.3908 C   0  0  0  0  0  0  0  0  0  0  0  0
   45.8924    8.5601   12.6049 C   0  0  0  0  0  0  0  0  0  0  0  0
   45.6318   11.5357   12.0809 N   0  0  0  0  0  0  0  0  0  0  0  0
   45.4845   12.6628   11.3488 N   0  0  0  0  0  0  0  0  0  0  0  0
   44.7517   12.3875   10.2501 N   0  0  0  0  0  0  0  0  0  0  0  0
   44.4106   11.0770   10.2541 N   0  0  0  0  0  0  0  0  0  0  0  0
   45.1543    4.9875   13.0006 C   0  0  0  0  0  0  0  0  0  0  0  0
   43.0526    5.8927   11.3957 C   0  0  0  0  0  0  0  0  0  0  0  0
   42.8360    8.5464   10.8178 O   0  0  0  0  0  0  0  0  0  0  0  0
   43.1218    4.6045   11.7462 C   0  0  0  0  0  0  0  0  0  0  0  0
   44.2038    4.1434   12.5704 C   0  0  0  0  0  0  0  0  0  0  0  0
   46.3027    4.5670   13.8619 C   0  0  0  0  0  0  0  0  0  0  0  0
   46.7044    9.2065   12.9362 H   0  0  0  0  0  0  0  0  0  0  0  0
   42.2389    6.2616   10.7758 H   0  0  0  0  0  0  0  0  0  0  0  0
   42.3681    3.8955   11.4211 H   0  0  0  0  0  0  0  0  0  0  0  0
   44.2231    3.0907   12.8337 H   0  0  0  0  0  0  0  0  0  0  0  0
   46.2667    3.4967   14.0917 H   0  0  0  0  0  0  0  0  0  0  0  0
   47.2549    4.7635   13.3583 H   0  0  0  0  0  0  0  0  0  0  0  0
   46.2898    5.1086   14.8134 H   0  0  0  0  0  0  0  0  0  0  0  0
  3  4  1  0
  4  2  1  0
  5  2  1  0
  6  5  2  0
  7  3  1  0
  8  6  1  0
  9  7  1  0
 10  9  1  0
 11 12  1  0
 12  7  2  0
 13  5  1  0
 14  2  1  0
 15  4  2  0
 16 14  2  0
 17 16  1  0
 18 13  1  0
 17 13  2  0
  8  3  2  0
 10 11  2  0
  8 19  1  0
 14 20  1  0
 16 21  1  0
 17 22  1  0
 18 23  1  0
 18 24  1  0
 18 25  1  0
M  CHG  2   1   1   9  -1
M  END
> <Uni-Dock RESULT> 
ENERGY=   -3.799  LOWER_BOUND=    4.986  UPPER_BOUND=    6.585
INTER + INTRA:          -3.799
INTER:                  -3.799
INTRA:                   0.000
UNBOUND:                 0.000

$$$$

     RDKit          3D

 25 26  0  0  0  0  0  0  0  0999 V2000
   44.3177    8.0768   11.5870 K   0  0  0  0  0 15  0  0  0  0  0  0
   45.0841    8.4962   11.9701 N   0  0  0  0  0  0  0  0  0  0  0  0
   44.2280    6.2129   11.9539 C   0  0  0  0  0  0  0  0  0  0  0  0
   45.2614    7.1743   12.4064 C   0  0  0  0  0  0  0  0  0  0  0  0
   43.9462    8.8636   11.2568 C   0  0  0  0  0  0  0  0  0  0  0  0
   43.0108    8.0300   10.9199 N   0  0  0  0  0  0  0  0  0  0  0  0
   44.3385    4.6783   12.2575 C   0  0  0  0  0  0  0  0  0  0  0  0
   43.1909    6.7201   11.2724 C   0  0  0  0  0  0  0  0  0  0  0  0
   43.2552    3.8587   12.2749 N   0  0  0  0  0  0  0  0  0  0  0  0
   43.7627    2.6223   12.4800 N   0  0  0  0  0  0  0  0  0  0  0  0
   45.1066    2.7015   12.5672 N   0  0  0  0  0  0  0  0  0  0  0  0
   45.4913    3.9917   12.4219 N   0  0  0  0  0  0  0  0  0  0  0  0
   43.8166   10.3132   10.8688 C   0  0  0  0  0  0  0  0  0  0  0  0
   46.0470    9.4417   12.3102 C   0  0  0  0  0  0  0  0  0  0  0  0
   46.1921    6.8527   13.1462 O   0  0  0  0  0  0  0  0  0  0  0  0
   45.9334   10.7278   11.9634 C   0  0  0  0  0  0  0  0  0  0  0  0
   44.7861   11.1712   11.2221 C   0  0  0  0  0  0  0  0  0  0  0  0
   42.5985   10.7159   10.0995 C   0  0  0  0  0  0  0  0  0  0  0  0
   42.4068    6.0452   10.9309 H   0  0  0  0  0  0  0  0  0  0  0  0
   46.9061    9.0877   12.8750 H   0  0  0  0  0  0  0  0  0  0  0  0
   46.6951   11.4498   12.2368 H   0  0  0  0  0  0  0  0  0  0  0  0
   44.7309   12.2232   10.9610 H   0  0  0  0  0  0  0  0  0  0  0  0
   42.6017   11.7861    9.8661 H   0  0  0  0  0  0  0  0  0  0  0  0
   42.5442   10.1723    9.1506 H   0  0  0  0  0  0  0  0  0  0  0  0
   41.6916   10.5076   10.6765 H   0  0  0  0  0  0  0  0  0  0  0  0
  3  4  1  0
  4  2  1  0
  5  2  1  0
  6  5  2  0
  7  3  1  0
  8  6  1  0
  9  7  1  0
 10  9  1  0
 11 12  1  0
 12  7  2  0
 13  5  1  0
 14  2  1  0
 15  4  2  0
 16 14  2  0
 17 16  1  0
 18 13  1  0
 17 13  2  0
  8  3  2  0
 10 11  2  0
  8 19  1  0
 14 20  1  0
 16 21  1  0
 17 22  1  0
 18 23  1  0
 18 24  1  0
 18 25  1  0
M  CHG  2   1   1   9  -1
M  END
> <Uni-Dock RESULT> 
ENERGY=   -3.649  LOWER_BOUND=    4.794  UPPER_BOUND=    6.845
INTER + INTRA:          -3.649
INTER:                  -3.649
INTRA:                   0.000
UNBOUND:                 0.000

$$$$

     RDKit          3D

 25 26  0  0  0  0  0  0  0  0999 V2000
   45.7010    5.5923   12.8959 K   0  0  0  0  0 15  0  0  0  0  0  0
   45.1953    6.2901   12.4870 N   0  0  0  0  0  0  0  0  0  0  0  0
   47.2915    6.2169   13.7307 C   0  0  0  0  0  0  0  0  0  0  0  0
   46.2660    7.0209   13.0244 C   0  0  0  0  0  0  0  0  0  0  0  0
   45.0810    4.9217   12.7171 C   0  0  0  0  0  0  0  0  0  0  0  0
   45.9483    4.2334   13.3934 N   0  0  0  0  0  0  0  0  0  0  0  0
   48.6067    6.8632   14.2894 C   0  0  0  0  0  0  0  0  0  0  0  0
   47.0391    4.9078   13.8707 C   0  0  0  0  0  0  0  0  0  0  0  0
   49.3246    6.3009   15.2964 N   0  0  0  0  0  0  0  0  0  0  0  0
   50.4127    7.0928   15.4267 N   0  0  0  0  0  0  0  0  0  0  0  0
   50.3519    8.0865   14.5163 N   0  0  0  0  0  0  0  0  0  0  0  0
   49.2214    7.9553   13.7825 N   0  0  0  0  0  0  0  0  0  0  0  0
   43.8754    4.2263   12.1412 C   0  0  0  0  0  0  0  0  0  0  0  0
   44.2238    6.9734   11.7615 C   0  0  0  0  0  0  0  0  0  0  0  0
   46.3211    8.2486   12.9441 O   0  0  0  0  0  0  0  0  0  0  0  0
   43.1553    6.3557   11.2478 C   0  0  0  0  0  0  0  0  0  0  0  0
   42.9805    4.9439   11.4446 C   0  0  0  0  0  0  0  0  0  0  0  0
   43.7465    2.7554   12.3811 C   0  0  0  0  0  0  0  0  0  0  0  0
   47.7659    4.2859   14.3923 H   0  0  0  0  0  0  0  0  0  0  0  0
   44.3715    8.0423   11.6268 H   0  0  0  0  0  0  0  0  0  0  0  0
   42.4092    6.9053   10.6842 H   0  0  0  0  0  0  0  0  0  0  0  0
   42.0993    4.4805   11.0127 H   0  0  0  0  0  0  0  0  0  0  0  0
   42.8401    2.3474   11.9209 H   0  0  0  0  0  0  0  0  0  0  0  0
   44.6012    2.2188   11.9565 H   0  0  0  0  0  0  0  0  0  0  0  0
   43.6953    2.5426   13.4539 H   0  0  0  0  0  0  0  0  0  0  0  0
  3  4  1  0
  4  2  1  0
  5  2  1  0
  6  5  2  0
  7  3  1  0
  8  6  1  0
  9  7  1  0
 10  9  1  0
 11 12  1  0
 12  7  2  0
 13  5  1  0
 14  2  1  0
 15  4  2  0
 16 14  2  0
 17 16  1  0
 18 13  1  0
 17 13  2  0
  8  3  2  0
 10 11  2  0
  8 19  1  0
 14 20  1  0
 16 21  1  0
 17 22  1  0
 18 23  1  0
 18 24  1  0
 18 25  1  0
M  CHG  2   1   1   9  -1
M  END
> <Uni-Dock RESULT> 
ENERGY=   -3.577  LOWER_BOUND=    4.795  UPPER_BOUND=    6.431
INTER + INTRA:          -3.577
INTER:                  -3.577
INTRA:                   0.000
UNBOUND:                 0.000

$$$$

     RDKit          3D

 25 26  0  0  0  0  0  0  0  0999 V2000
   45.7258    6.6372   12.8921 K   0  0  0  0  0 15  0  0  0  0  0  0
   46.1740    5.8153   13.0751 N   0  0  0  0  0  0  0  0  0  0  0  0
   46.8308    8.1623   13.1567 C   0  0  0  0  0  0  0  0  0  0  0  0
   47.2020    6.7372   13.3249 C   0  0  0  0  0  0  0  0  0  0  0  0
   44.9374    6.2405   12.5969 C   0  0  0  0  0  0  0  0  0  0  0  0
   44.6390    7.4857   12.3879 N   0  0  0  0  0  0  0  0  0  0  0  0
   47.8273    9.3219   13.5060 C   0  0  0  0  0  0  0  0  0  0  0  0
   45.5997    8.4127   12.6889 C   0  0  0  0  0  0  0  0  0  0  0  0
   47.7204   10.5629   12.9640 N   0  0  0  0  0  0  0  0  0  0  0  0
   48.6877   11.2874   13.5703 N   0  0  0  0  0  0  0  0  0  0  0  0
   49.3400   10.5063   14.4559 N   0  0  0  0  0  0  0  0  0  0  0  0
   48.8067    9.2618   14.4358 N   0  0  0  0  0  0  0  0  0  0  0  0
   43.9083    5.1782   12.3126 C   0  0  0  0  0  0  0  0  0  0  0  0
   46.4353    4.4620   13.2682 C   0  0  0  0  0  0  0  0  0  0  0  0
   48.3410    6.3764   13.6242 O   0  0  0  0  0  0  0  0  0  0  0  0
   45.5209    3.5193   13.0186 C   0  0  0  0  0  0  0  0  0  0  0  0
   44.2234    3.8917   12.5284 C   0  0  0  0  0  0  0  0  0  0  0  0
   42.5759    5.6267   11.8014 C   0  0  0  0  0  0  0  0  0  0  0  0
   45.2939    9.4482   12.5437 H   0  0  0  0  0  0  0  0  0  0  0  0
   47.4245    4.1996   13.6358 H   0  0  0  0  0  0  0  0  0  0  0  0
   45.7431    2.4695   13.1764 H   0  0  0  0  0  0  0  0  0  0  0  0
   43.5101    3.0964   12.3370 H   0  0  0  0  0  0  0  0  0  0  0  0
   41.9019    4.7806   11.6291 H   0  0  0  0  0  0  0  0  0  0  0  0
   42.0903    6.2926   12.5222 H   0  0  0  0  0  0  0  0  0  0  0  0
   42.6865    6.1582   10.8506 H   0  0  0  0  0  0  0  0  0  0  0  0
  3  4  1  0
  4  2  1  0
  5  2  1  0
  6  5  2  0
  7  3  1  0
  8  6  1  0
  9  7  1  0
 10  9  1  0
 11 12  1  0
 12  7  2  0
 13  5  1  0
 14  2  1  0
 15  4  2  0
 16 14  2  0
 17 16  1  0
 18 13  1  0
 17 13  2  0
  8  3  2  0
 10 11  2  0
  8 19  1  0
 14 20  1  0
 16 21  1  0
 17 22  1  0
 18 23  1  0
 18 24  1  0
 18 25  1  0
M  CHG  2   1   1   9  -1
M  END
> <Uni-Dock RESULT> 
ENERGY=   -3.559  LOWER_BOUND=    5.065  UPPER_BOUND=    6.909
INTER + INTRA:          -3.559
INTER:                  -3.559
INTRA:                   0.000
UNBOUND:                 0.000

$$$$

     RDKit          3D

 25 26  0  0  0  0  0  0  0  0999 V2000
   44.8824    6.3142   12.1907 K   0  0  0  0  0 15  0  0  0  0  0  0
   45.7052    6.3146   12.6733 N   0  0  0  0  0  0  0  0  0  0  0  0
   44.3815    8.0415   11.5724 C   0  0  0  0  0  0  0  0  0  0  0  0
   45.5996    7.6715   12.3315 C   0  0  0  0  0  0  0  0  0  0  0  0
   44.7679    5.3911   12.2183 C   0  0  0  0  0  0  0  0  0  0  0  0
   43.7377    5.7108   11.4973 N   0  0  0  0  0  0  0  0  0  0  0  0
   44.0544    9.5323   11.2118 C   0  0  0  0  0  0  0  0  0  0  0  0
   43.5717    7.0377   11.2068 C   0  0  0  0  0  0  0  0  0  0  0  0
   43.2434    9.8707   10.1758 N   0  0  0  0  0  0  0  0  0  0  0  0
   43.1397   11.2170   10.2458 N   0  0  0  0  0  0  0  0  0  0  0  0
   43.8544   11.6644   11.2989 N   0  0  0  0  0  0  0  0  0  0  0  0
   44.4346   10.6145   11.9271 N   0  0  0  0  0  0  0  0  0  0  0  0
   44.9849    3.9490   12.5951 C   0  0  0  0  0  0  0  0  0  0  0  0
   46.7956    5.9054   13.4353 C   0  0  0  0  0  0  0  0  0  0  0  0
   46.4818    8.4838   12.6125 O   0  0  0  0  0  0  0  0  0  0  0  0
   46.9868    4.6260   13.7722 C   0  0  0  0  0  0  0  0  0  0  0  0
   46.0536    3.6240   13.3390 C   0  0  0  0  0  0  0  0  0  0  0  0
   43.9808    2.9506   12.1129 C   0  0  0  0  0  0  0  0  0  0  0  0
   42.6709    7.2699   10.6397 H   0  0  0  0  0  0  0  0  0  0  0  0
   47.4932    6.6779   13.7502 H   0  0  0  0  0  0  0  0  0  0  0  0
   47.8424    4.3266   14.3677 H   0  0  0  0  0  0  0  0  0  0  0  0
   46.2452    2.5968   13.6325 H   0  0  0  0  0  0  0  0  0  0  0  0
   44.2283    1.9354   12.4415 H   0  0  0  0  0  0  0  0  0  0  0  0
   42.9844    3.1878   12.4997 H   0  0  0  0  0  0  0  0  0  0  0  0
   43.9405    2.9417   11.0188 H   0  0  0  0  0  0  0  0  0  0  0  0
  3  4  1  0
  4  2  1  0
  5  2  1  0
  6  5  2  0
  7  3  1  0
  8  6  1  0
  9  7  1  0
 10  9  1  0
 11 12  1  0
 12  7  2  0
 13  5  1  0
 14  2  1  0
 15  4  2  0
 16 14  2  0
 17 16  1  0
 18 13  1  0
 17 13  2  0
  8  3  2  0
 10 11  2  0
  8 19  1  0
 14 20  1  0
 16 21  1  0
 17 22  1  0
 18 23  1  0
 18 24  1  0
 18 25  1  0
M  CHG  2   1   1   9  -1
M  END
> <Uni-Dock RESULT> 
ENERGY=   -3.479  LOWER_BOUND=    4.522  UPPER_BOUND=    5.768
INTER + INTRA:          -3.479
INTER:                  -3.479
INTRA:                   0.000
UNBOUND:                 0.000

$$$$

     RDKit          3D

 25 26  0  0  0  0  0  0  0  0999 V2000
   45.8452    9.0913   12.2225 K   0  0  0  0  0 15  0  0  0  0  0  0
   45.2544    9.6372   11.7097 N   0  0  0  0  0  0  0  0  0  0  0  0
   45.1946    7.3218   12.4725 C   0  0  0  0  0  0  0  0  0  0  0  0
   44.5523    8.4223   11.7153 C   0  0  0  0  0  0  0  0  0  0  0  0
   46.5158    9.7329   12.2914 C   0  0  0  0  0  0  0  0  0  0  0  0
   47.1032    8.7467   12.8962 N   0  0  0  0  0  0  0  0  0  0  0  0
   44.4888    5.9358   12.6731 C   0  0  0  0  0  0  0  0  0  0  0  0
   46.4118    7.5686   12.9773 C   0  0  0  0  0  0  0  0  0  0  0  0
   45.1803    4.7975   12.9408 N   0  0  0  0  0  0  0  0  0  0  0  0
   44.2301    3.8546   13.1313 N   0  0  0  0  0  0  0  0  0  0  0  0
   43.0114    4.4170   12.9958 N   0  0  0  0  0  0  0  0  0  0  0  0
   43.1528    5.7338   12.7132 N   0  0  0  0  0  0  0  0  0  0  0  0
   47.2164   11.0629   12.1983 C   0  0  0  0  0  0  0  0  0  0  0  0
   44.6830   10.7306   11.0655 C   0  0  0  0  0  0  0  0  0  0  0  0
   43.4962    8.2783   11.0982 O   0  0  0  0  0  0  0  0  0  0  0  0
   45.3036   11.9119   10.9854 C   0  0  0  0  0  0  0  0  0  0  0  0
   46.6050   12.0786   11.5695 C   0  0  0  0  0  0  0  0  0  0  0  0
   48.5708   11.1752   12.8234 C   0  0  0  0  0  0  0  0  0  0  0  0
   46.9193    6.7806   13.5327 H   0  0  0  0  0  0  0  0  0  0  0  0
   43.6993   10.5836   10.6260 H   0  0  0  0  0  0  0  0  0  0  0  0
   44.8414   12.7529   10.4800 H   0  0  0  0  0  0  0  0  0  0  0  0
   47.0753   13.0527   11.4817 H   0  0  0  0  0  0  0  0  0  0  0  0
   48.9913   12.1794   12.7024 H   0  0  0  0  0  0  0  0  0  0  0  0
   48.5186   10.9676   13.8972 H   0  0  0  0  0  0  0  0  0  0  0  0
   49.2684   10.4686   12.3620 H   0  0  0  0  0  0  0  0  0  0  0  0
  3  4  1  0
  4  2  1  0
  5  2  1  0
  6  5  2  0
  7  3  1  0
  8  6  1  0
  9  7  1  0
 10  9  1  0
 11 12  1  0
 12  7  2  0
 13  5  1  0
 14  2  1  0
 15  4  2  0
 16 14  2  0
 17 16  1  0
 18 13  1  0
 17 13  2  0
  8  3  2  0
 10 11  2  0
  8 19  1  0
 14 20  1  0
 16 21  1  0
 17 22  1  0
 18 23  1  0
 18 24  1  0
 18 25  1  0
M  CHG  2   1   1   9  -1
M  END
> <Uni-Dock RESULT> 
ENERGY=   -3.408  LOWER_BOUND=    5.427  UPPER_BOUND=    7.429
INTER + INTRA:          -3.408
INTER:                  -3.408
INTRA:                   0.000
UNBOUND:                 0.000

$$$$
