
     RDKit          3D

 69 74  0  0  0  0  0  0  0  0999 V2000
   24.8241   10.5482   19.0457 C   0  0  0  0  0  0  0  0  0  0  0  0
   26.8589   14.3193   21.6397 N   0  0  0  0  0  0  0  0  0  0  0  0
   27.3079   15.5345   19.8393 N   0  0  0  0  0  0  0  0  0  0  0  0
   23.8207   10.1383   19.8023 N   0  0  0  0  0  0  0  0  0  0  0  0
   25.1970    9.5450   18.1692 N   0  0  0  0  0  0  0  0  0  0  0  0
   26.4093   13.5791   20.5661 C   0  0  0  0  0  0  0  0  0  0  0  0
   27.3939   15.4968   21.1544 C   0  0  0  0  0  0  0  0  0  0  0  0
   26.6994   14.3663   19.4576 C   0  0  0  0  0  0  0  0  0  0  0  0
   25.4679   11.8602   19.1743 C   0  0  0  0  0  0  0  0  0  0  0  0
   24.3286    8.4872   18.3223 C   0  0  0  0  0  0  0  0  0  0  0  0
   23.4890    8.8867   19.3555 C   0  0  0  0  0  0  0  0  0  0  0  0
   25.7897   12.3270   20.4582 C   0  0  0  0  0  0  0  0  0  0  0  0
   31.8472   11.1561   26.3475 C   0  0  0  0  0  0  0  0  0  0  0  0
   26.3582   13.9219   18.1652 C   0  0  0  0  0  0  0  0  0  0  0  0
   31.7524   12.1197   25.3235 C   0  0  0  0  0  0  0  0  0  0  0  0
   30.6350   10.5912   26.9882 C   0  0  0  0  0  0  0  0  0  0  0  0
   25.7312   12.6620   18.0541 C   0  0  0  0  0  0  0  0  0  0  0  0
   26.7339   13.9390   23.0404 C   0  0  0  0  0  0  0  0  0  0  0  0
   30.4771   12.5744   24.7569 C   0  0  0  0  0  0  0  0  0  0  0  0
   29.6135   11.1763   27.2884 O   0  0  0  0  0  0  0  0  0  0  0  0
   29.8875   11.8852   23.6881 C   0  0  0  0  0  0  0  0  0  0  0  0
   29.8336   13.7154   25.2532 C   0  0  0  0  0  0  0  0  0  0  0  0
   28.0421   13.4673   23.6260 C   0  0  0  0  0  0  0  0  0  0  0  0
   26.3388    9.5573   17.2862 C   0  0  0  0  0  0  0  0  0  0  0  0
   30.7784    9.2729   27.2235 O   0  0  0  0  0  0  0  0  0  0  0  0
   28.0040   16.5554   22.0206 C   0  0  0  0  0  0  0  0  0  0  0  0
   28.6264   14.1529   24.7001 C   0  0  0  0  0  0  0  0  0  0  0  0
   28.6832   12.3232   23.1309 C   0  0  0  0  0  0  0  0  0  0  0  0
   24.2021    7.2456   17.6858 C   0  0  0  0  0  0  0  0  0  0  0  0
   22.4730    8.0252   19.7943 C   0  0  0  0  0  0  0  0  0  0  0  0
   33.1056   10.7280   26.8063 C   0  0  0  0  0  0  0  0  0  0  0  0
   32.9482   12.6365   24.7871 C   0  0  0  0  0  0  0  0  0  0  0  0
   26.6172   14.7314   16.9290 C   0  0  0  0  0  0  0  0  0  0  0  0
   28.2403   17.8653   21.2660 C   0  0  0  0  0  0  0  0  0  0  0  0
   23.1804    6.4001   18.1340 C   0  0  0  0  0  0  0  0  0  0  0  0
   34.2744   11.2543   26.2574 C   0  0  0  0  0  0  0  0  0  0  0  0
   34.1955   12.2103   25.2498 C   0  0  0  0  0  0  0  0  0  0  0  0
   22.3283    6.7803   19.1717 C   0  0  0  0  0  0  0  0  0  0  0  0
   28.8661   18.9195   22.1661 C   0  0  0  0  0  0  0  0  0  0  0  0
   25.5608   11.7240   21.3322 H   0  0  0  0  0  0  0  0  0  0  0  0
   25.4272   12.3230   17.0655 H   0  0  0  0  0  0  0  0  0  0  0  0
   25.9818   13.1482   23.1319 H   0  0  0  0  0  0  0  0  0  0  0  0
   26.3373   14.8074   23.5785 H   0  0  0  0  0  0  0  0  0  0  0  0
   30.3664   10.9970   23.2798 H   0  0  0  0  0  0  0  0  0  0  0  0
   30.2643   14.2618   26.0898 H   0  0  0  0  0  0  0  0  0  0  0  0
   26.0450   10.0377   16.3502 H   0  0  0  0  0  0  0  0  0  0  0  0
   26.6651    8.5325   17.0925 H   0  0  0  0  0  0  0  0  0  0  0  0
   27.1625   10.0960   17.7599 H   0  0  0  0  0  0  0  0  0  0  0  0
   29.9183    9.0158   27.6176 H   0  0  0  0  0  0  0  0  0  0  0  0
   28.9596   16.1852   22.4100 H   0  0  0  0  0  0  0  0  0  0  0  0
   27.3501   16.7555   22.8773 H   0  0  0  0  0  0  0  0  0  0  0  0
   28.1480   15.0345   25.1218 H   0  0  0  0  0  0  0  0  0  0  0  0
   28.2540   11.7604   22.3045 H   0  0  0  0  0  0  0  0  0  0  0  0
   24.8594    6.9413   16.8789 H   0  0  0  0  0  0  0  0  0  0  0  0
   21.8148    8.3292   20.6003 H   0  0  0  0  0  0  0  0  0  0  0  0
   33.1770    9.9860   27.5990 H   0  0  0  0  0  0  0  0  0  0  0  0
   32.9075   13.3769   23.9890 H   0  0  0  0  0  0  0  0  0  0  0  0
   25.6711   14.9866   16.4412 H   0  0  0  0  0  0  0  0  0  0  0  0
   27.2376   14.1623   16.2292 H   0  0  0  0  0  0  0  0  0  0  0  0
   27.1416   15.6630   17.1624 H   0  0  0  0  0  0  0  0  0  0  0  0
   28.8979   17.6937   20.4052 H   0  0  0  0  0  0  0  0  0  0  0  0
   27.2912   18.2475   20.8711 H   0  0  0  0  0  0  0  0  0  0  0  0
   23.0479    5.4275   17.6645 H   0  0  0  0  0  0  0  0  0  0  0  0
   35.2441   10.9189   26.6170 H   0  0  0  0  0  0  0  0  0  0  0  0
   35.1041   12.6228   24.8173 H   0  0  0  0  0  0  0  0  0  0  0  0
   21.5424    6.1054   19.5021 H   0  0  0  0  0  0  0  0  0  0  0  0
   28.2173   19.1434   23.0186 H   0  0  0  0  0  0  0  0  0  0  0  0
   29.0258   19.8478   21.6084 H   0  0  0  0  0  0  0  0  0  0  0  0
   29.8342   18.5831   22.5499 H   0  0  0  0  0  0  0  0  0  0  0  0
  2  6  1  0
  3  8  1  0
  4  1  2  0
  5  1  1  0
  6 12  2  0
  7  2  1  0
  8 14  2  0
  9  1  1  0
 10  5  1  0
 11  4  1  0
 12  9  1  0
 13 15  2  0
 14 17  1  0
 15 19  1  0
 16 13  1  0
 17  9  2  0
 18  2  1  0
 19 21  2  0
 20 16  2  0
 21 28  1  0
 22 27  2  0
 23 18  1  0
 24  5  1  0
 25 16  1  0
 26  7  1  0
 27 23  1  0
 28 23  2  0
 29 10  2  0
 30 11  2  0
 31 13  1  0
 32 15  1  0
 33 14  1  0
 34 26  1  0
 35 29  1  0
 36 37  1  0
 37 32  2  0
 38 30  1  0
 39 34  1  0
 10 11  1  0
  8  6  1  0
 35 38  2  0
  3  7  2  0
 19 22  1  0
 36 31  2  0
 12 40  1  0
 17 41  1  0
 18 42  1  0
 18 43  1  0
 21 44  1  0
 22 45  1  0
 24 46  1  0
 24 47  1  0
 24 48  1  0
 25 49  1  0
 26 50  1  0
 26 51  1  0
 27 52  1  0
 28 53  1  0
 29 54  1  0
 30 55  1  0
 31 56  1  0
 32 57  1  0
 33 58  1  0
 33 59  1  0
 33 60  1  0
 34 61  1  0
 34 62  1  0
 35 63  1  0
 36 64  1  0
 37 65  1  0
 38 66  1  0
 39 67  1  0
 39 68  1  0
 39 69  1  0
M  END
> <Uni-Dock RESULT> 
ENERGY=   -4.490  LOWER_BOUND=    0.000  UPPER_BOUND=    0.000
INTER + INTRA:          -4.490
INTER:                  -4.490
INTRA:                   0.000
UNBOUND:                 0.000

$$$$

     RDKit          3D

 69 74  0  0  0  0  0  0  0  0999 V2000
   29.8013   12.0568   24.4477 C   0  0  0  0  0  0  0  0  0  0  0  0
   29.1136   10.8810   29.2679 N   0  0  0  0  0  0  0  0  0  0  0  0
   30.3760   12.5406   30.0242 N   0  0  0  0  0  0  0  0  0  0  0  0
   28.6313   11.8114   23.8838 N   0  0  0  0  0  0  0  0  0  0  0  0
   30.7993   12.0515   23.4896 N   0  0  0  0  0  0  0  0  0  0  0  0
   29.5618   11.5512   28.1487 C   0  0  0  0  0  0  0  0  0  0  0  0
   29.6288   11.5148   30.3820 C   0  0  0  0  0  0  0  0  0  0  0  0
   30.3430   12.5842   28.6539 C   0  0  0  0  0  0  0  0  0  0  0  0
   29.9951   12.2478   25.8893 C   0  0  0  0  0  0  0  0  0  0  0  0
   30.2161   11.8828   22.2536 C   0  0  0  0  0  0  0  0  0  0  0  0
   28.8643   11.7265   22.5367 C   0  0  0  0  0  0  0  0  0  0  0  0
   29.3637   11.3606   26.7748 C   0  0  0  0  0  0  0  0  0  0  0  0
   30.5210    3.4811   29.8282 C   0  0  0  0  0  0  0  0  0  0  0  0
   30.9611   13.4977   27.7777 C   0  0  0  0  0  0  0  0  0  0  0  0
   30.9260    4.7251   30.3522 C   0  0  0  0  0  0  0  0  0  0  0  0
   29.2893    3.3532   29.0124 C   0  0  0  0  0  0  0  0  0  0  0  0
   30.7606   13.3095   26.3931 C   0  0  0  0  0  0  0  0  0  0  0  0
   28.2089    9.7392   29.2638 C   0  0  0  0  0  0  0  0  0  0  0  0
   30.2283    5.9858   30.0726 C   0  0  0  0  0  0  0  0  0  0  0  0
   28.2241    3.9113   29.1847 O   0  0  0  0  0  0  0  0  0  0  0  0
   30.5581    6.7457   28.9419 C   0  0  0  0  0  0  0  0  0  0  0  0
   29.2374    6.4685   30.9371 C   0  0  0  0  0  0  0  0  0  0  0  0
   28.9227    8.4403   29.5472 C   0  0  0  0  0  0  0  0  0  0  0  0
   32.2201   12.1372   23.7297 C   0  0  0  0  0  0  0  0  0  0  0  0
   29.4717    2.5003   27.9862 O   0  0  0  0  0  0  0  0  0  0  0  0
   29.3796   11.0641   31.7883 C   0  0  0  0  0  0  0  0  0  0  0  0
   28.5863    7.6775   30.6742 C   0  0  0  0  0  0  0  0  0  0  0  0
   29.9116    7.9565   28.6794 C   0  0  0  0  0  0  0  0  0  0  0  0
   30.7224   11.8397   20.9480 C   0  0  0  0  0  0  0  0  0  0  0  0
   27.9577   11.5122   21.4883 C   0  0  0  0  0  0  0  0  0  0  0  0
   31.2685    2.3203   30.0949 C   0  0  0  0  0  0  0  0  0  0  0  0
   32.0882    4.7625   31.1476 C   0  0  0  0  0  0  0  0  0  0  0  0
   31.7943   14.6502   28.2551 C   0  0  0  0  0  0  0  0  0  0  0  0
   29.8122   12.1054   32.8225 C   0  0  0  0  0  0  0  0  0  0  0  0
   29.8030   11.6287   19.9137 C   0  0  0  0  0  0  0  0  0  0  0  0
   32.4162    2.3846   30.8841 C   0  0  0  0  0  0  0  0  0  0  0  0
   32.8244    3.6052   31.4124 C   0  0  0  0  0  0  0  0  0  0  0  0
   28.4420   11.4664   20.1762 C   0  0  0  0  0  0  0  0  0  0  0  0
   29.5545   11.6199   34.2406 C   0  0  0  0  0  0  0  0  0  0  0  0
   28.7447   10.5543   26.3917 H   0  0  0  0  0  0  0  0  0  0  0  0
   31.2004   14.0301   25.7061 H   0  0  0  0  0  0  0  0  0  0  0  0
   27.7086    9.6811   28.2913 H   0  0  0  0  0  0  0  0  0  0  0  0
   27.4260    9.9425   30.0033 H   0  0  0  0  0  0  0  0  0  0  0  0
   31.3262    6.3970   28.2539 H   0  0  0  0  0  0  0  0  0  0  0  0
   28.9547    5.8924   31.8157 H   0  0  0  0  0  0  0  0  0  0  0  0
   32.4985   13.1925   23.7750 H   0  0  0  0  0  0  0  0  0  0  0  0
   32.7607   11.6438   22.9182 H   0  0  0  0  0  0  0  0  0  0  0  0
   32.4650   11.6282   24.6646 H   0  0  0  0  0  0  0  0  0  0  0  0
   28.6116    2.5203   27.5162 H   0  0  0  0  0  0  0  0  0  0  0  0
   29.9292   10.1316   31.9626 H   0  0  0  0  0  0  0  0  0  0  0  0
   28.3128   10.8529   31.9261 H   0  0  0  0  0  0  0  0  0  0  0  0
   27.8112    8.0131   31.3601 H   0  0  0  0  0  0  0  0  0  0  0  0
   30.1918    8.5169   27.7899 H   0  0  0  0  0  0  0  0  0  0  0  0
   31.7782   11.9645   20.7342 H   0  0  0  0  0  0  0  0  0  0  0  0
   26.9019   11.3883   21.7011 H   0  0  0  0  0  0  0  0  0  0  0  0
   30.9528    1.3601   29.6918 H   0  0  0  0  0  0  0  0  0  0  0  0
   32.4310    5.7106   31.5604 H   0  0  0  0  0  0  0  0  0  0  0  0
   31.3324   15.5971   27.9580 H   0  0  0  0  0  0  0  0  0  0  0  0
   32.7991   14.5925   27.8245 H   0  0  0  0  0  0  0  0  0  0  0  0
   31.8948   14.6481   29.3448 H   0  0  0  0  0  0  0  0  0  0  0  0
   30.8796   12.3309   32.7099 H   0  0  0  0  0  0  0  0  0  0  0  0
   29.2690   13.0441   32.6599 H   0  0  0  0  0  0  0  0  0  0  0  0
   30.1560   11.5902   18.8852 H   0  0  0  0  0  0  0  0  0  0  0  0
   32.9894    1.4832   31.0864 H   0  0  0  0  0  0  0  0  0  0  0  0
   33.7197    3.6610   32.0274 H   0  0  0  0  0  0  0  0  0  0  0  0
   27.7478   11.3033   19.3554 H   0  0  0  0  0  0  0  0  0  0  0  0
   28.4903   11.4202   34.4001 H   0  0  0  0  0  0  0  0  0  0  0  0
   29.8696   12.3785   34.9642 H   0  0  0  0  0  0  0  0  0  0  0  0
   30.1115   10.7008   34.4479 H   0  0  0  0  0  0  0  0  0  0  0  0
  2  6  1  0
  3  8  1  0
  4  1  2  0
  5  1  1  0
  6 12  2  0
  7  2  1  0
  8 14  2  0
  9  1  1  0
 10  5  1  0
 11  4  1  0
 12  9  1  0
 13 15  2  0
 14 17  1  0
 15 19  1  0
 16 13  1  0
 17  9  2  0
 18  2  1  0
 19 21  2  0
 20 16  2  0
 21 28  1  0
 22 27  2  0
 23 18  1  0
 24  5  1  0
 25 16  1  0
 26  7  1  0
 27 23  1  0
 28 23  2  0
 29 10  2  0
 30 11  2  0
 31 13  1  0
 32 15  1  0
 33 14  1  0
 34 26  1  0
 35 29  1  0
 36 37  1  0
 37 32  2  0
 38 30  1  0
 39 34  1  0
 10 11  1  0
  8  6  1  0
 35 38  2  0
  3  7  2  0
 19 22  1  0
 36 31  2  0
 12 40  1  0
 17 41  1  0
 18 42  1  0
 18 43  1  0
 21 44  1  0
 22 45  1  0
 24 46  1  0
 24 47  1  0
 24 48  1  0
 25 49  1  0
 26 50  1  0
 26 51  1  0
 27 52  1  0
 28 53  1  0
 29 54  1  0
 30 55  1  0
 31 56  1  0
 32 57  1  0
 33 58  1  0
 33 59  1  0
 33 60  1  0
 34 61  1  0
 34 62  1  0
 35 63  1  0
 36 64  1  0
 37 65  1  0
 38 66  1  0
 39 67  1  0
 39 68  1  0
 39 69  1  0
M  END
> <Uni-Dock RESULT> 
ENERGY=   -4.274  LOWER_BOUND=    5.289  UPPER_BOUND=    9.128
INTER + INTRA:          -4.274
INTER:                  -4.274
INTRA:                   0.000
UNBOUND:                 0.000

$$$$

     RDKit          3D

 69 74  0  0  0  0  0  0  0  0999 V2000
   28.6075   11.6834   22.4809 C   0  0  0  0  0  0  0  0  0  0  0  0
   26.3955   11.8858   26.9705 N   0  0  0  0  0  0  0  0  0  0  0  0
   26.3087   14.1018   27.0118 N   0  0  0  0  0  0  0  0  0  0  0  0
   28.0620   10.6301   21.8977 N   0  0  0  0  0  0  0  0  0  0  0  0
   29.8204   11.9797   21.8850 N   0  0  0  0  0  0  0  0  0  0  0  0
   26.9600   12.3053   25.7839 C   0  0  0  0  0  0  0  0  0  0  0  0
   26.0131   13.0060   27.6827 C   0  0  0  0  0  0  0  0  0  0  0  0
   26.8867   13.6925   25.8375 C   0  0  0  0  0  0  0  0  0  0  0  0
   28.0196   12.3845   23.6277 C   0  0  0  0  0  0  0  0  0  0  0  0
   30.0027   11.1262   20.8198 C   0  0  0  0  0  0  0  0  0  0  0  0
   28.8922   10.2914   20.8622 C   0  0  0  0  0  0  0  0  0  0  0  0
   27.5137   11.6229   24.6926 C   0  0  0  0  0  0  0  0  0  0  0  0
   30.4609    7.4118   31.4991 C   0  0  0  0  0  0  0  0  0  0  0  0
   27.3667   14.4686   24.7643 C   0  0  0  0  0  0  0  0  0  0  0  0
   29.9949    8.7369   31.3846 C   0  0  0  0  0  0  0  0  0  0  0  0
   29.9307    6.3313   30.6329 C   0  0  0  0  0  0  0  0  0  0  0  0
   27.9223   13.7832   23.6624 C   0  0  0  0  0  0  0  0  0  0  0  0
   26.1926   10.4986   27.3662 C   0  0  0  0  0  0  0  0  0  0  0  0
   29.0303    9.1694   30.3663 C   0  0  0  0  0  0  0  0  0  0  0  0
   28.7817    6.1629   30.2763 O   0  0  0  0  0  0  0  0  0  0  0  0
   29.4689    9.5812   29.1003 C   0  0  0  0  0  0  0  0  0  0  0  0
   27.6572    9.2025   30.6419 C   0  0  0  0  0  0  0  0  0  0  0  0
   27.1846   10.0486   28.4104 C   0  0  0  0  0  0  0  0  0  0  0  0
   30.7775   12.9644   22.3299 C   0  0  0  0  0  0  0  0  0  0  0  0
   30.9107    5.4919   30.2472 O   0  0  0  0  0  0  0  0  0  0  0  0
   25.3769   12.9562   29.0377 C   0  0  0  0  0  0  0  0  0  0  0  0
   26.7438    9.6295   29.6734 C   0  0  0  0  0  0  0  0  0  0  0  0
   28.5581   10.0125   28.1322 C   0  0  0  0  0  0  0  0  0  0  0  0
   31.0081   10.9943   19.8531 C   0  0  0  0  0  0  0  0  0  0  0  0
   28.7579    9.2691   19.9115 C   0  0  0  0  0  0  0  0  0  0  0  0
   31.4265    7.0791   32.4658 C   0  0  0  0  0  0  0  0  0  0  0  0
   30.5198    9.7026   32.2659 C   0  0  0  0  0  0  0  0  0  0  0  0
   27.2944   15.9668   24.7442 C   0  0  0  0  0  0  0  0  0  0  0  0
   24.7889   14.3046   29.4586 C   0  0  0  0  0  0  0  0  0  0  0  0
   30.8560    9.9711   18.9099 C   0  0  0  0  0  0  0  0  0  0  0  0
   31.9313    8.0543   33.3252 C   0  0  0  0  0  0  0  0  0  0  0  0
   31.4760    9.3652   33.2268 C   0  0  0  0  0  0  0  0  0  0  0  0
   29.7503    9.1200   18.9363 C   0  0  0  0  0  0  0  0  0  0  0  0
   24.1560   14.2276   30.8394 C   0  0  0  0  0  0  0  0  0  0  0  0
   27.5585   10.5381   24.6583 H   0  0  0  0  0  0  0  0  0  0  0  0
   28.2619   14.3681   22.8096 H   0  0  0  0  0  0  0  0  0  0  0  0
   26.2712    9.8578   26.4816 H   0  0  0  0  0  0  0  0  0  0  0  0
   25.1598   10.4102   27.7220 H   0  0  0  0  0  0  0  0  0  0  0  0
   30.5303    9.5689   28.8588 H   0  0  0  0  0  0  0  0  0  0  0  0
   27.2896    8.8773   31.6129 H   0  0  0  0  0  0  0  0  0  0  0  0
   30.5130   13.9266   21.8858 H   0  0  0  0  0  0  0  0  0  0  0  0
   31.7813   12.6711   22.0128 H   0  0  0  0  0  0  0  0  0  0  0  0
   30.7648   13.0210   23.4206 H   0  0  0  0  0  0  0  0  0  0  0  0
   30.4475    4.8490   29.6699 H   0  0  0  0  0  0  0  0  0  0  0  0
   26.1312   12.6463   29.7704 H   0  0  0  0  0  0  0  0  0  0  0  0
   24.5778   12.2059   29.0444 H   0  0  0  0  0  0  0  0  0  0  0  0
   25.6837    9.6272   29.9185 H   0  0  0  0  0  0  0  0  0  0  0  0
   28.9356   10.3211   27.1596 H   0  0  0  0  0  0  0  0  0  0  0  0
   31.8709   11.6505   19.8246 H   0  0  0  0  0  0  0  0  0  0  0  0
   27.8951    8.6132   19.9387 H   0  0  0  0  0  0  0  0  0  0  0  0
   31.7832    6.0550   32.5547 H   0  0  0  0  0  0  0  0  0  0  0  0
   30.1851   10.7370   32.1966 H   0  0  0  0  0  0  0  0  0  0  0  0
   26.6577   16.3019   23.9192 H   0  0  0  0  0  0  0  0  0  0  0  0
   28.2957   16.3907   24.6173 H   0  0  0  0  0  0  0  0  0  0  0  0
   26.8781   16.3607   25.6765 H   0  0  0  0  0  0  0  0  0  0  0  0
   25.5708   15.0736   29.4657 H   0  0  0  0  0  0  0  0  0  0  0  0
   24.0315   14.6265   28.7336 H   0  0  0  0  0  0  0  0  0  0  0  0
   31.6143    9.8364   18.1413 H   0  0  0  0  0  0  0  0  0  0  0  0
   32.6776    7.7901   34.0703 H   0  0  0  0  0  0  0  0  0  0  0  0
   31.8676   10.1298   33.8937 H   0  0  0  0  0  0  0  0  0  0  0  0
   29.6552    8.3323   18.1927 H   0  0  0  0  0  0  0  0  0  0  0  0
   23.3439   13.4941   30.8590 H   0  0  0  0  0  0  0  0  0  0  0  0
   23.7411   15.2007   31.1210 H   0  0  0  0  0  0  0  0  0  0  0  0
   24.8952   13.9423   31.5944 H   0  0  0  0  0  0  0  0  0  0  0  0
  2  6  1  0
  3  8  1  0
  4  1  2  0
  5  1  1  0
  6 12  2  0
  7  2  1  0
  8 14  2  0
  9  1  1  0
 10  5  1  0
 11  4  1  0
 12  9  1  0
 13 15  2  0
 14 17  1  0
 15 19  1  0
 16 13  1  0
 17  9  2  0
 18  2  1  0
 19 21  2  0
 20 16  2  0
 21 28  1  0
 22 27  2  0
 23 18  1  0
 24  5  1  0
 25 16  1  0
 26  7  1  0
 27 23  1  0
 28 23  2  0
 29 10  2  0
 30 11  2  0
 31 13  1  0
 32 15  1  0
 33 14  1  0
 34 26  1  0
 35 29  1  0
 36 37  1  0
 37 32  2  0
 38 30  1  0
 39 34  1  0
 10 11  1  0
  8  6  1  0
 35 38  2  0
  3  7  2  0
 19 22  1  0
 36 31  2  0
 12 40  1  0
 17 41  1  0
 18 42  1  0
 18 43  1  0
 21 44  1  0
 22 45  1  0
 24 46  1  0
 24 47  1  0
 24 48  1  0
 25 49  1  0
 26 50  1  0
 26 51  1  0
 27 52  1  0
 28 53  1  0
 29 54  1  0
 30 55  1  0
 31 56  1  0
 32 57  1  0
 33 58  1  0
 33 59  1  0
 33 60  1  0
 34 61  1  0
 34 62  1  0
 35 63  1  0
 36 64  1  0
 37 65  1  0
 38 66  1  0
 39 67  1  0
 39 68  1  0
 39 69  1  0
M  END
> <Uni-Dock RESULT> 
ENERGY=   -4.216  LOWER_BOUND=    4.394  UPPER_BOUND=    6.936
INTER + INTRA:          -4.216
INTER:                  -4.216
INTRA:                   0.000
UNBOUND:                 0.000

$$$$

     RDKit          3D

 69 74  0  0  0  0  0  0  0  0999 V2000
   29.3631   11.5502   21.2648 C   0  0  0  0  0  0  0  0  0  0  0  0
   28.4366   11.9815   26.1685 N   0  0  0  0  0  0  0  0  0  0  0  0
   26.7272   13.3676   25.8920 N   0  0  0  0  0  0  0  0  0  0  0  0
   29.7140   10.2852   21.1110 N   0  0  0  0  0  0  0  0  0  0  0  0
   29.8384   12.3055   20.2077 N   0  0  0  0  0  0  0  0  0  0  0  0
   28.3143   12.1589   24.8060 C   0  0  0  0  0  0  0  0  0  0  0  0
   27.4545   12.7299   26.7879 C   0  0  0  0  0  0  0  0  0  0  0  0
   27.2360   13.0250   24.6655 C   0  0  0  0  0  0  0  0  0  0  0  0
   28.6254   12.0635   22.4244 C   0  0  0  0  0  0  0  0  0  0  0  0
   30.4399   11.4593   19.3030 C   0  0  0  0  0  0  0  0  0  0  0  0
   30.3532   10.2080   19.9021 C   0  0  0  0  0  0  0  0  0  0  0  0
   29.0240   11.6568   23.7072 C   0  0  0  0  0  0  0  0  0  0  0  0
   35.0761   13.5446   29.4130 C   0  0  0  0  0  0  0  0  0  0  0  0
   26.8086   13.4207   23.3829 C   0  0  0  0  0  0  0  0  0  0  0  0
   33.7659   14.0467   29.2813 C   0  0  0  0  0  0  0  0  0  0  0  0
   35.4160   12.1614   29.0004 C   0  0  0  0  0  0  0  0  0  0  0  0
   27.5202   12.9138   22.2741 C   0  0  0  0  0  0  0  0  0  0  0  0
   29.4020   11.1095   26.8241 C   0  0  0  0  0  0  0  0  0  0  0  0
   32.6698   13.2927   28.6613 C   0  0  0  0  0  0  0  0  0  0  0  0
   34.7472   11.1579   29.1472 O   0  0  0  0  0  0  0  0  0  0  0  0
   32.4602   13.3513   27.2766 C   0  0  0  0  0  0  0  0  0  0  0  0
   31.7975   12.5189   29.4376 C   0  0  0  0  0  0  0  0  0  0  0  0
   30.5327   11.8804   27.4598 C   0  0  0  0  0  0  0  0  0  0  0  0
   29.7848   13.7430   20.0873 C   0  0  0  0  0  0  0  0  0  0  0  0
   36.6219   12.1144   28.4025 O   0  0  0  0  0  0  0  0  0  0  0  0
   27.2783   12.8094   28.2731 C   0  0  0  0  0  0  0  0  0  0  0  0
   30.7458   11.8145   28.8438 C   0  0  0  0  0  0  0  0  0  0  0  0
   31.4071   12.6515   26.6815 C   0  0  0  0  0  0  0  0  0  0  0  0
   31.0476   11.6574   18.0564 C   0  0  0  0  0  0  0  0  0  0  0  0
   30.8931    9.0896   19.2504 C   0  0  0  0  0  0  0  0  0  0  0  0
   36.0906   14.3433   29.9701 C   0  0  0  0  0  0  0  0  0  0  0  0
   33.5108   15.3583   29.7277 C   0  0  0  0  0  0  0  0  0  0  0  0
   25.6370   14.3301   23.1577 C   0  0  0  0  0  0  0  0  0  0  0  0
   25.9498   13.4556   28.6715 C   0  0  0  0  0  0  0  0  0  0  0  0
   31.5778   10.5296   17.4186 C   0  0  0  0  0  0  0  0  0  0  0  0
   35.8122   15.6392   30.4029 C   0  0  0  0  0  0  0  0  0  0  0  0
   34.5219   16.1456   30.2840 C   0  0  0  0  0  0  0  0  0  0  0  0
   31.5041    9.2649   18.0037 C   0  0  0  0  0  0  0  0  0  0  0  0
   25.7998   13.5298   30.1832 C   0  0  0  0  0  0  0  0  0  0  0  0
   29.8603   10.9742   23.8288 H   0  0  0  0  0  0  0  0  0  0  0  0
   27.1772   13.1803   21.2761 H   0  0  0  0  0  0  0  0  0  0  0  0
   29.8035   10.4027   26.0904 H   0  0  0  0  0  0  0  0  0  0  0  0
   28.8524   10.5126   27.5608 H   0  0  0  0  0  0  0  0  0  0  0  0
   33.1204   13.9468   26.6486 H   0  0  0  0  0  0  0  0  0  0  0  0
   31.9450   12.4474   30.5132 H   0  0  0  0  0  0  0  0  0  0  0  0
   28.8284   14.0150   19.6351 H   0  0  0  0  0  0  0  0  0  0  0  0
   30.6071   14.0902   19.4569 H   0  0  0  0  0  0  0  0  0  0  0  0
   29.8934   14.1976   21.0745 H   0  0  0  0  0  0  0  0  0  0  0  0
   36.7195   11.1701   28.1579 H   0  0  0  0  0  0  0  0  0  0  0  0
   28.1050   13.3924   28.6958 H   0  0  0  0  0  0  0  0  0  0  0  0
   27.3244   11.8034   28.7060 H   0  0  0  0  0  0  0  0  0  0  0  0
   30.0979   11.2118   29.4770 H   0  0  0  0  0  0  0  0  0  0  0  0
   31.2781   12.7182   25.6032 H   0  0  0  0  0  0  0  0  0  0  0  0
   31.1099   12.6362   17.5939 H   0  0  0  0  0  0  0  0  0  0  0  0
   30.8304    8.1105   19.7117 H   0  0  0  0  0  0  0  0  0  0  0  0
   37.1011   13.9531   30.0736 H   0  0  0  0  0  0  0  0  0  0  0  0
   32.5097   15.7773   29.6320 H   0  0  0  0  0  0  0  0  0  0  0  0
   24.8541   13.8046   22.6016 H   0  0  0  0  0  0  0  0  0  0  0  0
   25.9485   15.2119   22.5885 H   0  0  0  0  0  0  0  0  0  0  0  0
   25.2090   14.6746   24.1040 H   0  0  0  0  0  0  0  0  0  0  0  0
   25.8806   14.4678   28.2550 H   0  0  0  0  0  0  0  0  0  0  0  0
   25.1133   12.8815   28.2552 H   0  0  0  0  0  0  0  0  0  0  0  0
   32.0567   10.6410   16.4480 H   0  0  0  0  0  0  0  0  0  0  0  0
   36.6013   16.2512   30.8328 H   0  0  0  0  0  0  0  0  0  0  0  0
   34.2998   17.1562   30.6187 H   0  0  0  0  0  0  0  0  0  0  0  0
   31.9239    8.4043   17.4883 H   0  0  0  0  0  0  0  0  0  0  0  0
   25.8270   12.5312   30.6301 H   0  0  0  0  0  0  0  0  0  0  0  0
   24.8440   13.9937   30.4470 H   0  0  0  0  0  0  0  0  0  0  0  0
   26.6016   14.1274   30.6281 H   0  0  0  0  0  0  0  0  0  0  0  0
  2  6  1  0
  3  8  1  0
  4  1  2  0
  5  1  1  0
  6 12  2  0
  7  2  1  0
  8 14  2  0
  9  1  1  0
 10  5  1  0
 11  4  1  0
 12  9  1  0
 13 15  2  0
 14 17  1  0
 15 19  1  0
 16 13  1  0
 17  9  2  0
 18  2  1  0
 19 21  2  0
 20 16  2  0
 21 28  1  0
 22 27  2  0
 23 18  1  0
 24  5  1  0
 25 16  1  0
 26  7  1  0
 27 23  1  0
 28 23  2  0
 29 10  2  0
 30 11  2  0
 31 13  1  0
 32 15  1  0
 33 14  1  0
 34 26  1  0
 35 29  1  0
 36 37  1  0
 37 32  2  0
 38 30  1  0
 39 34  1  0
 10 11  1  0
  8  6  1  0
 35 38  2  0
  3  7  2  0
 19 22  1  0
 36 31  2  0
 12 40  1  0
 17 41  1  0
 18 42  1  0
 18 43  1  0
 21 44  1  0
 22 45  1  0
 24 46  1  0
 24 47  1  0
 24 48  1  0
 25 49  1  0
 26 50  1  0
 26 51  1  0
 27 52  1  0
 28 53  1  0
 29 54  1  0
 30 55  1  0
 31 56  1  0
 32 57  1  0
 33 58  1  0
 33 59  1  0
 33 60  1  0
 34 61  1  0
 34 62  1  0
 35 63  1  0
 36 64  1  0
 37 65  1  0
 38 66  1  0
 39 67  1  0
 39 68  1  0
 39 69  1  0
M  END
> <Uni-Dock RESULT> 
ENERGY=   -4.203  LOWER_BOUND=    4.376  UPPER_BOUND=    6.280
INTER + INTRA:          -4.203
INTER:                  -4.203
INTRA:                   0.000
UNBOUND:                 0.000

$$$$

     RDKit          3D

 69 74  0  0  0  0  0  0  0  0999 V2000
   30.4994   12.5978   25.5010 C   0  0  0  0  0  0  0  0  0  0  0  0
   26.6478   14.2057   22.7314 N   0  0  0  0  0  0  0  0  0  0  0  0
   25.2628   14.3720   24.4559 N   0  0  0  0  0  0  0  0  0  0  0  0
   31.5554   13.1742   24.9536 N   0  0  0  0  0  0  0  0  0  0  0  0
   30.8891   11.4864   26.2266 N   0  0  0  0  0  0  0  0  0  0  0  0
   27.3770   13.8190   23.8366 C   0  0  0  0  0  0  0  0  0  0  0  0
   25.3736   14.5341   23.1521 C   0  0  0  0  0  0  0  0  0  0  0  0
   26.4865   13.9382   24.8974 C   0  0  0  0  0  0  0  0  0  0  0  0
   29.1194   13.0564   25.3063 C   0  0  0  0  0  0  0  0  0  0  0  0
   32.2641   11.4130   26.2067 C   0  0  0  0  0  0  0  0  0  0  0  0
   32.6471   12.4751   25.3960 C   0  0  0  0  0  0  0  0  0  0  0  0
   28.6989   13.3878   24.0089 C   0  0  0  0  0  0  0  0  0  0  0  0
   26.1150    9.4093   16.9207 C   0  0  0  0  0  0  0  0  0  0  0  0
   26.9026   13.6342   26.2084 C   0  0  0  0  0  0  0  0  0  0  0  0
   25.3632    9.9373   17.9895 C   0  0  0  0  0  0  0  0  0  0  0  0
   27.4126   10.0067   16.5227 C   0  0  0  0  0  0  0  0  0  0  0  0
   28.2350   13.2023   26.3850 C   0  0  0  0  0  0  0  0  0  0  0  0
   27.1607   14.3009   21.3712 C   0  0  0  0  0  0  0  0  0  0  0  0
   25.8270   11.0436   18.8352 C   0  0  0  0  0  0  0  0  0  0  0  0
   27.7032   11.1853   16.4754 O   0  0  0  0  0  0  0  0  0  0  0  0
   26.6134   10.7917   19.9679 C   0  0  0  0  0  0  0  0  0  0  0  0
   25.4774   12.3687   18.5449 C   0  0  0  0  0  0  0  0  0  0  0  0
   26.6892   13.1634   20.4991 C   0  0  0  0  0  0  0  0  0  0  0  0
   30.0176   10.5179   26.8478 C   0  0  0  0  0  0  0  0  0  0  0  0
   28.3068    9.0543   16.1955 O   0  0  0  0  0  0  0  0  0  0  0  0
   24.2811   14.9839   22.2317 C   0  0  0  0  0  0  0  0  0  0  0  0
   25.9095   13.4175   19.3622 C   0  0  0  0  0  0  0  0  0  0  0  0
   27.0427   11.8381   20.7886 C   0  0  0  0  0  0  0  0  0  0  0  0
   33.1902   10.5393   26.7914 C   0  0  0  0  0  0  0  0  0  0  0  0
   34.0083   12.6937   25.1384 C   0  0  0  0  0  0  0  0  0  0  0  0
   25.6315    8.3127   16.1851 C   0  0  0  0  0  0  0  0  0  0  0  0
   24.1230    9.3387   18.2867 C   0  0  0  0  0  0  0  0  0  0  0  0
   26.0030   13.7664   27.4015 C   0  0  0  0  0  0  0  0  0  0  0  0
   23.0820   15.5632   22.9851 C   0  0  0  0  0  0  0  0  0  0  0  0
   34.5445   10.7746   26.5267 C   0  0  0  0  0  0  0  0  0  0  0  0
   24.4012    7.7373   16.5008 C   0  0  0  0  0  0  0  0  0  0  0  0
   23.6460    8.2520   17.5498 C   0  0  0  0  0  0  0  0  0  0  0  0
   34.9504   11.8333   25.7132 C   0  0  0  0  0  0  0  0  0  0  0  0
   21.9858   16.0053   22.0280 C   0  0  0  0  0  0  0  0  0  0  0  0
   29.3883   13.3060   23.1734 H   0  0  0  0  0  0  0  0  0  0  0  0
   28.5815   13.0009   27.3969 H   0  0  0  0  0  0  0  0  0  0  0  0
   28.2553   14.3146   21.4005 H   0  0  0  0  0  0  0  0  0  0  0  0
   26.8491   15.2736   20.9740 H   0  0  0  0  0  0  0  0  0  0  0  0
   26.8981    9.7718   20.2199 H   0  0  0  0  0  0  0  0  0  0  0  0
   24.8774   12.5924   17.6652 H   0  0  0  0  0  0  0  0  0  0  0  0
   29.7629   10.8756   27.8480 H   0  0  0  0  0  0  0  0  0  0  0  0
   30.5278    9.5540   26.9157 H   0  0  0  0  0  0  0  0  0  0  0  0
   29.1200   10.3890   26.2389 H   0  0  0  0  0  0  0  0  0  0  0  0
   29.1157    9.5642   15.9795 H   0  0  0  0  0  0  0  0  0  0  0  0
   23.9514   14.1283   21.6308 H   0  0  0  0  0  0  0  0  0  0  0  0
   24.6663   15.7456   21.5438 H   0  0  0  0  0  0  0  0  0  0  0  0
   25.6309   14.4352   19.0966 H   0  0  0  0  0  0  0  0  0  0  0  0
   27.6548   11.6041   21.6571 H   0  0  0  0  0  0  0  0  0  0  0  0
   32.8844    9.7138   27.4246 H   0  0  0  0  0  0  0  0  0  0  0  0
   34.3148   13.5194   24.5063 H   0  0  0  0  0  0  0  0  0  0  0  0
   26.2119    7.9080   15.3585 H   0  0  0  0  0  0  0  0  0  0  0  0
   23.5225    9.7194   19.1121 H   0  0  0  0  0  0  0  0  0  0  0  0
   26.4000   14.5187   28.0906 H   0  0  0  0  0  0  0  0  0  0  0  0
   25.9275   12.8077   27.9245 H   0  0  0  0  0  0  0  0  0  0  0  0
   24.9932   14.0712   27.1104 H   0  0  0  0  0  0  0  0  0  0  0  0
   22.6731   14.8175   23.6776 H   0  0  0  0  0  0  0  0  0  0  0  0
   23.3979   16.4213   23.5906 H   0  0  0  0  0  0  0  0  0  0  0  0
   35.2954   10.1193   26.9634 H   0  0  0  0  0  0  0  0  0  0  0  0
   24.0333    6.8897   15.9279 H   0  0  0  0  0  0  0  0  0  0  0  0
   22.6865    7.8059   17.8009 H   0  0  0  0  0  0  0  0  0  0  0  0
   36.0086   11.9949   25.5224 H   0  0  0  0  0  0  0  0  0  0  0  0
   22.3496   16.7787   21.3444 H   0  0  0  0  0  0  0  0  0  0  0  0
   21.1387   16.4169   22.5860 H   0  0  0  0  0  0  0  0  0  0  0  0
   21.6223   15.1627   21.4316 H   0  0  0  0  0  0  0  0  0  0  0  0
  2  6  1  0
  3  8  1  0
  4  1  2  0
  5  1  1  0
  6 12  2  0
  7  2  1  0
  8 14  2  0
  9  1  1  0
 10  5  1  0
 11  4  1  0
 12  9  1  0
 13 15  2  0
 14 17  1  0
 15 19  1  0
 16 13  1  0
 17  9  2  0
 18  2  1  0
 19 21  2  0
 20 16  2  0
 21 28  1  0
 22 27  2  0
 23 18  1  0
 24  5  1  0
 25 16  1  0
 26  7  1  0
 27 23  1  0
 28 23  2  0
 29 10  2  0
 30 11  2  0
 31 13  1  0
 32 15  1  0
 33 14  1  0
 34 26  1  0
 35 29  1  0
 36 37  1  0
 37 32  2  0
 38 30  1  0
 39 34  1  0
 10 11  1  0
  8  6  1  0
 35 38  2  0
  3  7  2  0
 19 22  1  0
 36 31  2  0
 12 40  1  0
 17 41  1  0
 18 42  1  0
 18 43  1  0
 21 44  1  0
 22 45  1  0
 24 46  1  0
 24 47  1  0
 24 48  1  0
 25 49  1  0
 26 50  1  0
 26 51  1  0
 27 52  1  0
 28 53  1  0
 29 54  1  0
 30 55  1  0
 31 56  1  0
 32 57  1  0
 33 58  1  0
 33 59  1  0
 33 60  1  0
 34 61  1  0
 34 62  1  0
 35 63  1  0
 36 64  1  0
 37 65  1  0
 38 66  1  0
 39 67  1  0
 39 68  1  0
 39 69  1  0
M  END
> <Uni-Dock RESULT> 
ENERGY=   -4.151  LOWER_BOUND=    3.382  UPPER_BOUND=    9.424
INTER + INTRA:          -4.151
INTER:                  -4.151
INTRA:                   0.000
UNBOUND:                 0.000

$$$$

     RDKit          3D

 69 74  0  0  0  0  0  0  0  0999 V2000
   29.1288   11.6020   21.3781 C   0  0  0  0  0  0  0  0  0  0  0  0
   27.5373   11.9640   26.1137 N   0  0  0  0  0  0  0  0  0  0  0  0
   26.0980   13.5949   25.6798 N   0  0  0  0  0  0  0  0  0  0  0  0
   29.3206   10.3066   21.1984 N   0  0  0  0  0  0  0  0  0  0  0  0
   29.8589   12.3222   20.4496 N   0  0  0  0  0  0  0  0  0  0  0  0
   27.6490   12.2126   24.7615 C   0  0  0  0  0  0  0  0  0  0  0  0
   26.5856   12.8219   26.6301 C   0  0  0  0  0  0  0  0  0  0  0  0
   26.7348   13.2318   24.5207 C   0  0  0  0  0  0  0  0  0  0  0  0
   28.3018   12.1699   22.4485 C   0  0  0  0  0  0  0  0  0  0  0  0
   30.4679   11.4348   19.5905 C   0  0  0  0  0  0  0  0  0  0  0  0
   30.1191   10.1863   20.0920 C   0  0  0  0  0  0  0  0  0  0  0  0
   28.4409   11.6574   23.7478 C   0  0  0  0  0  0  0  0  0  0  0  0
   33.7589   12.4074   30.3738 C   0  0  0  0  0  0  0  0  0  0  0  0
   26.5659   13.7376   23.2169 C   0  0  0  0  0  0  0  0  0  0  0  0
   32.5660   13.1004   30.0856 C   0  0  0  0  0  0  0  0  0  0  0  0
   33.9629   11.0074   29.9297 C   0  0  0  0  0  0  0  0  0  0  0  0
   27.3606   13.1778   22.1932 C   0  0  0  0  0  0  0  0  0  0  0  0
   28.2620   10.9344   26.8466 C   0  0  0  0  0  0  0  0  0  0  0  0
   31.4831   12.5404   29.2683 C   0  0  0  0  0  0  0  0  0  0  0  0
   33.1472   10.1072   29.9158 O   0  0  0  0  0  0  0  0  0  0  0  0
   31.4964   12.6853   27.8741 C   0  0  0  0  0  0  0  0  0  0  0  0
   30.4046   11.8713   29.8610 C   0  0  0  0  0  0  0  0  0  0  0  0
   29.3786   11.5054   27.6855 C   0  0  0  0  0  0  0  0  0  0  0  0
   30.0236   13.7558   20.4121 C   0  0  0  0  0  0  0  0  0  0  0  0
   35.2273   10.8093   29.5104 O   0  0  0  0  0  0  0  0  0  0  0  0
   26.1987   12.8657   28.0763 C   0  0  0  0  0  0  0  0  0  0  0  0
   29.3681   11.3528   29.0790 C   0  0  0  0  0  0  0  0  0  0  0  0
   30.4593   12.1716   27.0910 C   0  0  0  0  0  0  0  0  0  0  0  0
   31.2793   11.5926   18.4594 C   0  0  0  0  0  0  0  0  0  0  0  0
   30.5917    9.0285   19.4571 C   0  0  0  0  0  0  0  0  0  0  0  0
   34.7777   13.0261   31.1200 C   0  0  0  0  0  0  0  0  0  0  0  0
   32.4300   14.4160   30.5710 C   0  0  0  0  0  0  0  0  0  0  0  0
   25.5793   14.8167   22.8816 C   0  0  0  0  0  0  0  0  0  0  0  0
   24.9274   13.6822   28.3179 C   0  0  0  0  0  0  0  0  0  0  0  0
   31.7390   10.4265   17.8362 C   0  0  0  0  0  0  0  0  0  0  0  0
   34.6187   14.3301   31.5876 C   0  0  0  0  0  0  0  0  0  0  0  0
   33.4440   15.0239   31.3152 C   0  0  0  0  0  0  0  0  0  0  0  0
   31.4032    9.1633   18.3250 C   0  0  0  0  0  0  0  0  0  0  0  0
   24.5614   13.7159   29.7937 C   0  0  0  0  0  0  0  0  0  0  0  0
   29.1465   10.8557   23.9463 H   0  0  0  0  0  0  0  0  0  0  0  0
   27.2133   13.5319   21.1746 H   0  0  0  0  0  0  0  0  0  0  0  0
   28.6686   10.2070   26.1361 H   0  0  0  0  0  0  0  0  0  0  0  0
   27.5297   10.3946   27.4577 H   0  0  0  0  0  0  0  0  0  0  0  0
   32.3202   13.2032   27.3862 H   0  0  0  0  0  0  0  0  0  0  0  0
   30.3758   11.7353   30.9401 H   0  0  0  0  0  0  0  0  0  0  0  0
   29.1938   14.1828   19.8443 H   0  0  0  0  0  0  0  0  0  0  0  0
   30.9720   14.0047   19.9298 H   0  0  0  0  0  0  0  0  0  0  0  0
   30.0429   14.1491   21.4309 H   0  0  0  0  0  0  0  0  0  0  0  0
   35.2294    9.8716   29.2244 H   0  0  0  0  0  0  0  0  0  0  0  0
   27.0242   13.3040   28.6492 H   0  0  0  0  0  0  0  0  0  0  0  0
   26.0390   11.8469   28.4480 H   0  0  0  0  0  0  0  0  0  0  0  0
   28.5545   10.8258   29.5733 H   0  0  0  0  0  0  0  0  0  0  0  0
   30.5060   12.3003   26.0116 H   0  0  0  0  0  0  0  0  0  0  0  0
   31.5459   12.5699   18.0724 H   0  0  0  0  0  0  0  0  0  0  0  0
   30.3249    8.0511   19.8429 H   0  0  0  0  0  0  0  0  0  0  0  0
   35.6969   12.4887   31.3440 H   0  0  0  0  0  0  0  0  0  0  0  0
   31.5227   14.9801   30.3579 H   0  0  0  0  0  0  0  0  0  0  0  0
   24.8248   14.4343   22.1868 H   0  0  0  0  0  0  0  0  0  0  0  0
   26.0925   15.6660   22.4193 H   0  0  0  0  0  0  0  0  0  0  0  0
   25.0644   15.1812   23.7758 H   0  0  0  0  0  0  0  0  0  0  0  0
   25.0629   14.7097   27.9593 H   0  0  0  0  0  0  0  0  0  0  0  0
   24.0925   13.2537   27.7504 H   0  0  0  0  0  0  0  0  0  0  0  0
   32.3706   10.5062   16.9538 H   0  0  0  0  0  0  0  0  0  0  0  0
   35.4104   14.8023   32.1640 H   0  0  0  0  0  0  0  0  0  0  0  0
   33.3156   16.0416   31.6763 H   0  0  0  0  0  0  0  0  0  0  0  0
   31.7733    8.2724   17.8233 H   0  0  0  0  0  0  0  0  0  0  0  0
   24.3820   12.7065   30.1771 H   0  0  0  0  0  0  0  0  0  0  0  0
   23.6501   14.3032   29.9450 H   0  0  0  0  0  0  0  0  0  0  0  0
   25.3611   14.1714   30.3860 H   0  0  0  0  0  0  0  0  0  0  0  0
  2  6  1  0
  3  8  1  0
  4  1  2  0
  5  1  1  0
  6 12  2  0
  7  2  1  0
  8 14  2  0
  9  1  1  0
 10  5  1  0
 11  4  1  0
 12  9  1  0
 13 15  2  0
 14 17  1  0
 15 19  1  0
 16 13  1  0
 17  9  2  0
 18  2  1  0
 19 21  2  0
 20 16  2  0
 21 28  1  0
 22 27  2  0
 23 18  1  0
 24  5  1  0
 25 16  1  0
 26  7  1  0
 27 23  1  0
 28 23  2  0
 29 10  2  0
 30 11  2  0
 31 13  1  0
 32 15  1  0
 33 14  1  0
 34 26  1  0
 35 29  1  0
 36 37  1  0
 37 32  2  0
 38 30  1  0
 39 34  1  0
 10 11  1  0
  8  6  1  0
 35 38  2  0
  3  7  2  0
 19 22  1  0
 36 31  2  0
 12 40  1  0
 17 41  1  0
 18 42  1  0
 18 43  1  0
 21 44  1  0
 22 45  1  0
 24 46  1  0
 24 47  1  0
 24 48  1  0
 25 49  1  0
 26 50  1  0
 26 51  1  0
 27 52  1  0
 28 53  1  0
 29 54  1  0
 30 55  1  0
 31 56  1  0
 32 57  1  0
 33 58  1  0
 33 59  1  0
 33 60  1  0
 34 61  1  0
 34 62  1  0
 35 63  1  0
 36 64  1  0
 37 65  1  0
 38 66  1  0
 39 67  1  0
 39 68  1  0
 39 69  1  0
M  END
> <Uni-Dock RESULT> 
ENERGY=   -4.142  LOWER_BOUND=    4.325  UPPER_BOUND=    6.139
INTER + INTRA:          -4.142
INTER:                  -4.142
INTRA:                   0.000
UNBOUND:                 0.000

$$$$

     RDKit          3D

 69 74  0  0  0  0  0  0  0  0999 V2000
   30.6271    6.5951   28.6953 C   0  0  0  0  0  0  0  0  0  0  0  0
   29.4579   11.0643   26.7588 N   0  0  0  0  0  0  0  0  0  0  0  0
   31.4899   11.9055   27.0468 N   0  0  0  0  0  0  0  0  0  0  0  0
   29.9515    5.7338   27.9545 N   0  0  0  0  0  0  0  0  0  0  0  0
   30.9514    6.0216   29.9117 N   0  0  0  0  0  0  0  0  0  0  0  0
   30.2041   10.0546   27.3302 C   0  0  0  0  0  0  0  0  0  0  0  0
   30.2761   12.1663   26.6030 C   0  0  0  0  0  0  0  0  0  0  0  0
   31.4685   10.6089   27.4930 C   0  0  0  0  0  0  0  0  0  0  0  0
   30.9280    7.9717   28.2870 C   0  0  0  0  0  0  0  0  0  0  0  0
   30.5367    4.7085   29.8989 C   0  0  0  0  0  0  0  0  0  0  0  0
   29.9085    4.5649   28.6673 C   0  0  0  0  0  0  0  0  0  0  0  0
   29.9045    8.7398   27.7104 C   0  0  0  0  0  0  0  0  0  0  0  0
   23.1069   13.2377   30.2221 C   0  0  0  0  0  0  0  0  0  0  0  0
   32.5120    9.8411   28.0460 C   0  0  0  0  0  0  0  0  0  0  0  0
   24.4311   13.6549   29.9800 C   0  0  0  0  0  0  0  0  0  0  0  0
   22.5088   12.1025   29.4787 C   0  0  0  0  0  0  0  0  0  0  0  0
   32.2134    8.5151   28.4273 C   0  0  0  0  0  0  0  0  0  0  0  0
   28.0653   10.9557   26.3448 C   0  0  0  0  0  0  0  0  0  0  0  0
   25.3393   12.9661   29.0554 C   0  0  0  0  0  0  0  0  0  0  0  0
   22.6459   11.8316   28.3025 O   0  0  0  0  0  0  0  0  0  0  0  0
   26.1255   11.8931   29.4978 C   0  0  0  0  0  0  0  0  0  0  0  0
   25.4585   13.3772   27.7216 C   0  0  0  0  0  0  0  0  0  0  0  0
   27.1276   11.6594   27.2947 C   0  0  0  0  0  0  0  0  0  0  0  0
   31.5581    6.6869   31.0400 C   0  0  0  0  0  0  0  0  0  0  0  0
   21.7445   11.3414   30.2852 O   0  0  0  0  0  0  0  0  0  0  0  0
   29.8169   13.4722   26.0310 C   0  0  0  0  0  0  0  0  0  0  0  0
   26.3362   12.7272   26.8489 C   0  0  0  0  0  0  0  0  0  0  0  0
   27.0066   11.2448   28.6283 C   0  0  0  0  0  0  0  0  0  0  0  0
   30.6338    3.6591   30.8220 C   0  0  0  0  0  0  0  0  0  0  0  0
   29.3402    3.3308   28.3196 C   0  0  0  0  0  0  0  0  0  0  0  0
   22.3092   13.9143   31.1620 C   0  0  0  0  0  0  0  0  0  0  0  0
   24.9187   14.7635   30.6997 C   0  0  0  0  0  0  0  0  0  0  0  0
   33.9056   10.3667   28.2250 C   0  0  0  0  0  0  0  0  0  0  0  0
   30.9812   14.4072   25.6974 C   0  0  0  0  0  0  0  0  0  0  0  0
   30.0644    2.4334   30.4570 C   0  0  0  0  0  0  0  0  0  0  0  0
   22.8165   15.0081   31.8623 C   0  0  0  0  0  0  0  0  0  0  0  0
   24.1202   15.4341   31.6292 C   0  0  0  0  0  0  0  0  0  0  0  0
   29.4266    2.2687   29.2268 C   0  0  0  0  0  0  0  0  0  0  0  0
   30.4872   15.7268   25.1252 C   0  0  0  0  0  0  0  0  0  0  0  0
   28.9146    8.3146   27.5711 H   0  0  0  0  0  0  0  0  0  0  0  0
   33.0192    7.8980   28.8202 H   0  0  0  0  0  0  0  0  0  0  0  0
   27.7934    9.8972   26.2739 H   0  0  0  0  0  0  0  0  0  0  0  0
   27.9959   11.3622   25.3294 H   0  0  0  0  0  0  0  0  0  0  0  0
   26.0561   11.5537   30.5297 H   0  0  0  0  0  0  0  0  0  0  0  0
   24.8512   14.2001   27.3500 H   0  0  0  0  0  0  0  0  0  0  0  0
   32.6431    6.6472   30.9202 H   0  0  0  0  0  0  0  0  0  0  0  0
   31.2667    6.1827   31.9646 H   0  0  0  0  0  0  0  0  0  0  0  0
   31.2080    7.7204   31.0875 H   0  0  0  0  0  0  0  0  0  0  0  0
   21.4322   10.6240   29.6946 H   0  0  0  0  0  0  0  0  0  0  0  0
   29.1562   13.9620   26.7558 H   0  0  0  0  0  0  0  0  0  0  0  0
   29.2363   13.2932   25.1186 H   0  0  0  0  0  0  0  0  0  0  0  0
   26.3906   13.0647   25.8159 H   0  0  0  0  0  0  0  0  0  0  0  0
   27.5978   10.4135   29.0068 H   0  0  0  0  0  0  0  0  0  0  0  0
   31.1272    3.7776   31.7804 H   0  0  0  0  0  0  0  0  0  0  0  0
   28.8476    3.2113   27.3613 H   0  0  0  0  0  0  0  0  0  0  0  0
   21.2861   13.5927   31.3457 H   0  0  0  0  0  0  0  0  0  0  0  0
   25.9410   15.1049   30.5402 H   0  0  0  0  0  0  0  0  0  0  0  0
   34.6073    9.7879   27.6160 H   0  0  0  0  0  0  0  0  0  0  0  0
   34.2028   10.2961   29.2763 H   0  0  0  0  0  0  0  0  0  0  0  0
   33.9800   11.4163   27.9243 H   0  0  0  0  0  0  0  0  0  0  0  0
   31.5763   14.6074   26.5967 H   0  0  0  0  0  0  0  0  0  0  0  0
   31.6506   13.9291   24.9720 H   0  0  0  0  0  0  0  0  0  0  0  0
   30.1199    1.5929   31.1457 H   0  0  0  0  0  0  0  0  0  0  0  0
   22.1942   15.5267   32.5876 H   0  0  0  0  0  0  0  0  0  0  0  0
   24.5211   16.2858   32.1739 H   0  0  0  0  0  0  0  0  0  0  0  0
   28.9917    1.3067   28.9667 H   0  0  0  0  0  0  0  0  0  0  0  0
   29.9190   15.5672   24.2035 H   0  0  0  0  0  0  0  0  0  0  0  0
   31.3342   16.3801   24.8928 H   0  0  0  0  0  0  0  0  0  0  0  0
   29.8428   16.2478   25.8403 H   0  0  0  0  0  0  0  0  0  0  0  0
  2  6  1  0
  3  8  1  0
  4  1  2  0
  5  1  1  0
  6 12  2  0
  7  2  1  0
  8 14  2  0
  9  1  1  0
 10  5  1  0
 11  4  1  0
 12  9  1  0
 13 15  2  0
 14 17  1  0
 15 19  1  0
 16 13  1  0
 17  9  2  0
 18  2  1  0
 19 21  2  0
 20 16  2  0
 21 28  1  0
 22 27  2  0
 23 18  1  0
 24  5  1  0
 25 16  1  0
 26  7  1  0
 27 23  1  0
 28 23  2  0
 29 10  2  0
 30 11  2  0
 31 13  1  0
 32 15  1  0
 33 14  1  0
 34 26  1  0
 35 29  1  0
 36 37  1  0
 37 32  2  0
 38 30  1  0
 39 34  1  0
 10 11  1  0
  8  6  1  0
 35 38  2  0
  3  7  2  0
 19 22  1  0
 36 31  2  0
 12 40  1  0
 17 41  1  0
 18 42  1  0
 18 43  1  0
 21 44  1  0
 22 45  1  0
 24 46  1  0
 24 47  1  0
 24 48  1  0
 25 49  1  0
 26 50  1  0
 26 51  1  0
 27 52  1  0
 28 53  1  0
 29 54  1  0
 30 55  1  0
 31 56  1  0
 32 57  1  0
 33 58  1  0
 33 59  1  0
 33 60  1  0
 34 61  1  0
 34 62  1  0
 35 63  1  0
 36 64  1  0
 37 65  1  0
 38 66  1  0
 39 67  1  0
 39 68  1  0
 39 69  1  0
M  END
> <Uni-Dock RESULT> 
ENERGY=   -4.052  LOWER_BOUND=    6.633  UPPER_BOUND=   10.261
INTER + INTRA:          -4.052
INTER:                  -4.052
INTRA:                   0.000
UNBOUND:                 0.000

$$$$

     RDKit          3D

 69 74  0  0  0  0  0  0  0  0999 V2000
   28.2358    7.4897   30.9647 C   0  0  0  0  0  0  0  0  0  0  0  0
   29.6748   11.9561   29.2122 N   0  0  0  0  0  0  0  0  0  0  0  0
   28.8247   13.0855   30.9215 N   0  0  0  0  0  0  0  0  0  0  0  0
   29.2290    6.6794   30.6421 N   0  0  0  0  0  0  0  0  0  0  0  0
   27.0803    6.7603   31.1801 N   0  0  0  0  0  0  0  0  0  0  0  0
   29.1153   11.0100   30.0457 C   0  0  0  0  0  0  0  0  0  0  0  0
   29.4778   13.1992   29.7818 C   0  0  0  0  0  0  0  0  0  0  0  0
   28.5975   11.7457   31.1054 C   0  0  0  0  0  0  0  0  0  0  0  0
   28.3533    8.9509   31.0241 C   0  0  0  0  0  0  0  0  0  0  0  0
   27.3839    5.4213   31.0745 C   0  0  0  0  0  0  0  0  0  0  0  0
   28.7301    5.4067   30.7286 C   0  0  0  0  0  0  0  0  0  0  0  0
   29.0153    9.6141   29.9791 C   0  0  0  0  0  0  0  0  0  0  0  0
   27.3923   12.2039   22.0162 C   0  0  0  0  0  0  0  0  0  0  0  0
   27.9538   11.0910   32.1738 C   0  0  0  0  0  0  0  0  0  0  0  0
   27.2725   12.8973   23.2373 C   0  0  0  0  0  0  0  0  0  0  0  0
   28.4129   11.1445   21.8289 C   0  0  0  0  0  0  0  0  0  0  0  0
   27.8542    9.6843   32.1104 C   0  0  0  0  0  0  0  0  0  0  0  0
   30.3946   11.6751   27.9773 C   0  0  0  0  0  0  0  0  0  0  0  0
   28.0705   12.5812   24.4280 C   0  0  0  0  0  0  0  0  0  0  0  0
   29.5580   11.1377   22.2343 O   0  0  0  0  0  0  0  0  0  0  0  0
   27.6364   11.6066   25.3371 C   0  0  0  0  0  0  0  0  0  0  0  0
   29.2672   13.2588   24.6947 C   0  0  0  0  0  0  0  0  0  0  0  0
   29.5765   11.9951   26.7505 C   0  0  0  0  0  0  0  0  0  0  0  0
   25.7587    7.2937   31.4092 C   0  0  0  0  0  0  0  0  0  0  0  0
   27.9189   10.1133   21.1173 O   0  0  0  0  0  0  0  0  0  0  0  0
   29.9298   14.4837   29.1583 C   0  0  0  0  0  0  0  0  0  0  0  0
   30.0159   12.9644   25.8381 C   0  0  0  0  0  0  0  0  0  0  0  0
   28.3809   11.3138   26.4828 C   0  0  0  0  0  0  0  0  0  0  0  0
   26.6333    4.2487   31.2305 C   0  0  0  0  0  0  0  0  0  0  0  0
   29.3779    4.1805   30.5195 C   0  0  0  0  0  0  0  0  0  0  0  0
   26.5573   12.5255   20.9315 C   0  0  0  0  0  0  0  0  0  0  0  0
   26.3030   13.9153   23.3291 C   0  0  0  0  0  0  0  0  0  0  0  0
   27.3965   11.8198   33.3607 C   0  0  0  0  0  0  0  0  0  0  0  0
   29.8541   15.6642   30.1287 C   0  0  0  0  0  0  0  0  0  0  0  0
   27.2968    3.0338   31.0216 C   0  0  0  0  0  0  0  0  0  0  0  0
   25.6043   13.5367   21.0488 C   0  0  0  0  0  0  0  0  0  0  0  0
   25.4791   14.2330   22.2467 C   0  0  0  0  0  0  0  0  0  0  0  0
   28.6470    2.9968   30.6709 C   0  0  0  0  0  0  0  0  0  0  0  0
   30.3118   16.9557   29.4687 C   0  0  0  0  0  0  0  0  0  0  0  0
   29.4307    9.0489   29.1496 H   0  0  0  0  0  0  0  0  0  0  0  0
   27.3938    9.1620   32.9470 H   0  0  0  0  0  0  0  0  0  0  0  0
   30.6841   10.6190   27.9630 H   0  0  0  0  0  0  0  0  0  0  0  0
   31.3263   12.2514   28.0062 H   0  0  0  0  0  0  0  0  0  0  0  0
   26.7088   11.0660   25.1574 H   0  0  0  0  0  0  0  0  0  0  0  0
   29.6322   14.0117   23.9992 H   0  0  0  0  0  0  0  0  0  0  0  0
   25.6431    7.4791   32.4795 H   0  0  0  0  0  0  0  0  0  0  0  0
   25.0082    6.5743   31.0726 H   0  0  0  0  0  0  0  0  0  0  0  0
   25.6314    8.2155   30.8372 H   0  0  0  0  0  0  0  0  0  0  0  0
   28.6660    9.4795   21.0838 H   0  0  0  0  0  0  0  0  0  0  0  0
   29.3008   14.6926   28.2851 H   0  0  0  0  0  0  0  0  0  0  0  0
   30.9634   14.3817   28.8077 H   0  0  0  0  0  0  0  0  0  0  0  0
   30.9480   13.5006   26.0041 H   0  0  0  0  0  0  0  0  0  0  0  0
   28.0140   10.5485   27.1636 H   0  0  0  0  0  0  0  0  0  0  0  0
   25.5837    4.2674   31.5025 H   0  0  0  0  0  0  0  0  0  0  0  0
   30.4274    4.1610   30.2485 H   0  0  0  0  0  0  0  0  0  0  0  0
   26.6529   11.9911   19.9885 H   0  0  0  0  0  0  0  0  0  0  0  0
   26.1812   14.4638   24.2625 H   0  0  0  0  0  0  0  0  0  0  0  0
   27.9186   11.5102   34.2716 H   0  0  0  0  0  0  0  0  0  0  0  0
   26.3292   11.6020   33.4694 H   0  0  0  0  0  0  0  0  0  0  0  0
   27.5097   12.9031   33.2554 H   0  0  0  0  0  0  0  0  0  0  0  0
   28.8268   15.7920   30.4908 H   0  0  0  0  0  0  0  0  0  0  0  0
   30.4801   15.4684   31.0076 H   0  0  0  0  0  0  0  0  0  0  0  0
   26.7494    2.1003   31.1346 H   0  0  0  0  0  0  0  0  0  0  0  0
   24.9621   13.7803   20.2061 H   0  0  0  0  0  0  0  0  0  0  0  0
   24.7364   15.0215   22.3438 H   0  0  0  0  0  0  0  0  0  0  0  0
   29.1397    2.0404   30.5137 H   0  0  0  0  0  0  0  0  0  0  0  0
   31.3487   16.8764   29.1274 H   0  0  0  0  0  0  0  0  0  0  0  0
   30.2510   17.7866   30.1787 H   0  0  0  0  0  0  0  0  0  0  0  0
   29.6838   17.1995   28.6061 H   0  0  0  0  0  0  0  0  0  0  0  0
  2  6  1  0
  3  8  1  0
  4  1  2  0
  5  1  1  0
  6 12  2  0
  7  2  1  0
  8 14  2  0
  9  1  1  0
 10  5  1  0
 11  4  1  0
 12  9  1  0
 13 15  2  0
 14 17  1  0
 15 19  1  0
 16 13  1  0
 17  9  2  0
 18  2  1  0
 19 21  2  0
 20 16  2  0
 21 28  1  0
 22 27  2  0
 23 18  1  0
 24  5  1  0
 25 16  1  0
 26  7  1  0
 27 23  1  0
 28 23  2  0
 29 10  2  0
 30 11  2  0
 31 13  1  0
 32 15  1  0
 33 14  1  0
 34 26  1  0
 35 29  1  0
 36 37  1  0
 37 32  2  0
 38 30  1  0
 39 34  1  0
 10 11  1  0
  8  6  1  0
 35 38  2  0
  3  7  2  0
 19 22  1  0
 36 31  2  0
 12 40  1  0
 17 41  1  0
 18 42  1  0
 18 43  1  0
 21 44  1  0
 22 45  1  0
 24 46  1  0
 24 47  1  0
 24 48  1  0
 25 49  1  0
 26 50  1  0
 26 51  1  0
 27 52  1  0
 28 53  1  0
 29 54  1  0
 30 55  1  0
 31 56  1  0
 32 57  1  0
 33 58  1  0
 33 59  1  0
 33 60  1  0
 34 61  1  0
 34 62  1  0
 35 63  1  0
 36 64  1  0
 37 65  1  0
 38 66  1  0
 39 67  1  0
 39 68  1  0
 39 69  1  0
M  END
> <Uni-Dock RESULT> 
ENERGY=   -4.026  LOWER_BOUND=    5.794  UPPER_BOUND=   10.252
INTER + INTRA:          -4.026
INTER:                  -4.026
INTRA:                   0.000
UNBOUND:                 0.000

$$$$

     RDKit          3D

 69 74  0  0  0  0  0  0  0  0999 V2000
   26.5305   13.7433   24.4387 C   0  0  0  0  0  0  0  0  0  0  0  0
   26.8640   12.7695   29.3408 N   0  0  0  0  0  0  0  0  0  0  0  0
   29.0814   12.8122   29.3669 N   0  0  0  0  0  0  0  0  0  0  0  0
   25.4745   14.5315   24.3356 N   0  0  0  0  0  0  0  0  0  0  0  0
   26.7939   13.1425   23.2207 N   0  0  0  0  0  0  0  0  0  0  0  0
   27.2490   13.0426   28.0447 C   0  0  0  0  0  0  0  0  0  0  0  0
   28.0051   12.6395   30.1085 C   0  0  0  0  0  0  0  0  0  0  0  0
   28.6380   13.0675   28.0946 C   0  0  0  0  0  0  0  0  0  0  0  0
   27.2652   13.5124   25.6874 C   0  0  0  0  0  0  0  0  0  0  0  0
   25.9154   13.6459   22.2873 C   0  0  0  0  0  0  0  0  0  0  0  0
   25.1003   14.5022   23.0183 C   0  0  0  0  0  0  0  0  0  0  0  0
   26.5347   13.2669   26.8604 C   0  0  0  0  0  0  0  0  0  0  0  0
   22.4186    6.7906   30.5839 C   0  0  0  0  0  0  0  0  0  0  0  0
   29.3833   13.3386   26.9304 C   0  0  0  0  0  0  0  0  0  0  0  0
   23.7486    7.2296   30.7406 C   0  0  0  0  0  0  0  0  0  0  0  0
   21.3292    7.7388   30.2477 C   0  0  0  0  0  0  0  0  0  0  0  0
   28.6657   13.5678   25.7365 C   0  0  0  0  0  0  0  0  0  0  0  0
   25.4889   12.6907   29.8154 C   0  0  0  0  0  0  0  0  0  0  0  0
   24.1757    8.6143   30.5073 C   0  0  0  0  0  0  0  0  0  0  0  0
   21.1726    8.8680   30.6675 O   0  0  0  0  0  0  0  0  0  0  0  0
   24.5535    9.0357   29.2249 C   0  0  0  0  0  0  0  0  0  0  0  0
   24.2375    9.5368   31.5596 C   0  0  0  0  0  0  0  0  0  0  0  0
   25.0444   11.2684   30.0532 C   0  0  0  0  0  0  0  0  0  0  0  0
   27.7716   12.1117   22.9656 C   0  0  0  0  0  0  0  0  0  0  0  0
   20.4656    7.1957   29.3684 O   0  0  0  0  0  0  0  0  0  0  0  0
   27.9943   12.3207   31.5718 C   0  0  0  0  0  0  0  0  0  0  0  0
   24.6593   10.8507   31.3347 C   0  0  0  0  0  0  0  0  0  0  0  0
   24.9795   10.3472   28.9986 C   0  0  0  0  0  0  0  0  0  0  0  0
   25.7464   13.4356   20.9126 C   0  0  0  0  0  0  0  0  0  0  0  0
   24.0607   15.1874   22.3729 C   0  0  0  0  0  0  0  0  0  0  0  0
   22.0902    5.4365   30.7730 C   0  0  0  0  0  0  0  0  0  0  0  0
   24.7236    6.2765   31.0952 C   0  0  0  0  0  0  0  0  0  0  0  0
   30.8818   13.4074   26.9183 C   0  0  0  0  0  0  0  0  0  0  0  0
   29.3609   12.5309   32.2271 C   0  0  0  0  0  0  0  0  0  0  0  0
   24.7063   14.1304   20.2839 C   0  0  0  0  0  0  0  0  0  0  0  0
   23.0746    4.5127   31.1221 C   0  0  0  0  0  0  0  0  0  0  0  0
   24.3906    4.9332   31.2856 C   0  0  0  0  0  0  0  0  0  0  0  0
   23.8746   14.9926   20.9997 C   0  0  0  0  0  0  0  0  0  0  0  0
   29.3235   12.1938   33.7097 C   0  0  0  0  0  0  0  0  0  0  0  0
   25.4488   13.2528   26.8350 H   0  0  0  0  0  0  0  0  0  0  0  0
   29.2269   13.8165   24.8377 H   0  0  0  0  0  0  0  0  0  0  0  0
   24.8285   13.1664   29.0827 H   0  0  0  0  0  0  0  0  0  0  0  0
   25.4252   13.2943   30.7279 H   0  0  0  0  0  0  0  0  0  0  0  0
   24.5184    8.3399   28.3885 H   0  0  0  0  0  0  0  0  0  0  0  0
   23.9389    9.2384   32.5624 H   0  0  0  0  0  0  0  0  0  0  0  0
   28.7286   12.5912   22.7481 H   0  0  0  0  0  0  0  0  0  0  0  0
   27.4550   11.5077   22.1117 H   0  0  0  0  0  0  0  0  0  0  0  0
   27.8513   11.4585   23.8374 H   0  0  0  0  0  0  0  0  0  0  0  0
   19.8186    7.9148   29.2090 H   0  0  0  0  0  0  0  0  0  0  0  0
   27.6873   11.2764   31.7032 H   0  0  0  0  0  0  0  0  0  0  0  0
   27.2578   12.9514   32.0830 H   0  0  0  0  0  0  0  0  0  0  0  0
   24.6799   11.5433   32.1736 H   0  0  0  0  0  0  0  0  0  0  0  0
   25.2614   10.6386   27.9890 H   0  0  0  0  0  0  0  0  0  0  0  0
   26.3874   12.7676   20.3480 H   0  0  0  0  0  0  0  0  0  0  0  0
   23.4200   15.8562   22.9364 H   0  0  0  0  0  0  0  0  0  0  0  0
   21.0623    5.0997   30.6543 H   0  0  0  0  0  0  0  0  0  0  0  0
   25.7618    6.5838   31.2159 H   0  0  0  0  0  0  0  0  0  0  0  0
   31.2100   14.4143   26.6414 H   0  0  0  0  0  0  0  0  0  0  0  0
   31.2861   12.6894   26.1976 H   0  0  0  0  0  0  0  0  0  0  0  0
   31.3020   13.1708   27.9005 H   0  0  0  0  0  0  0  0  0  0  0  0
   30.1167   11.9054   31.7369 H   0  0  0  0  0  0  0  0  0  0  0  0
   29.6802   13.5728   32.1035 H   0  0  0  0  0  0  0  0  0  0  0  0
   24.5429   13.9957   19.2166 H   0  0  0  0  0  0  0  0  0  0  0  0
   22.8136    3.4672   31.2669 H   0  0  0  0  0  0  0  0  0  0  0  0
   25.1623    4.2165   31.5564 H   0  0  0  0  0  0  0  0  0  0  0  0
   23.0732   15.5206   20.4885 H   0  0  0  0  0  0  0  0  0  0  0  0
   28.6042   12.8270   34.2385 H   0  0  0  0  0  0  0  0  0  0  0  0
   30.3090   12.3515   34.1593 H   0  0  0  0  0  0  0  0  0  0  0  0
   29.0417   11.1481   33.8673 H   0  0  0  0  0  0  0  0  0  0  0  0
  2  6  1  0
  3  8  1  0
  4  1  2  0
  5  1  1  0
  6 12  2  0
  7  2  1  0
  8 14  2  0
  9  1  1  0
 10  5  1  0
 11  4  1  0
 12  9  1  0
 13 15  2  0
 14 17  1  0
 15 19  1  0
 16 13  1  0
 17  9  2  0
 18  2  1  0
 19 21  2  0
 20 16  2  0
 21 28  1  0
 22 27  2  0
 23 18  1  0
 24  5  1  0
 25 16  1  0
 26  7  1  0
 27 23  1  0
 28 23  2  0
 29 10  2  0
 30 11  2  0
 31 13  1  0
 32 15  1  0
 33 14  1  0
 34 26  1  0
 35 29  1  0
 36 37  1  0
 37 32  2  0
 38 30  1  0
 39 34  1  0
 10 11  1  0
  8  6  1  0
 35 38  2  0
  3  7  2  0
 19 22  1  0
 36 31  2  0
 12 40  1  0
 17 41  1  0
 18 42  1  0
 18 43  1  0
 21 44  1  0
 22 45  1  0
 24 46  1  0
 24 47  1  0
 24 48  1  0
 25 49  1  0
 26 50  1  0
 26 51  1  0
 27 52  1  0
 28 53  1  0
 29 54  1  0
 30 55  1  0
 31 56  1  0
 32 57  1  0
 33 58  1  0
 33 59  1  0
 33 60  1  0
 34 61  1  0
 34 62  1  0
 35 63  1  0
 36 64  1  0
 37 65  1  0
 38 66  1  0
 39 67  1  0
 39 68  1  0
 39 69  1  0
M  END
> <Uni-Dock RESULT> 
ENERGY=   -3.998  LOWER_BOUND=    6.275  UPPER_BOUND=    9.362
INTER + INTRA:          -3.998
INTER:                  -3.998
INTRA:                   0.000
UNBOUND:                 0.000

$$$$
