
     RDKit          3D

 69 74  0  0  0  0  0  0  0  0999 V2000
   27.2215   12.3195   22.0155 C   0  0  0  0  0  0  0  0  0  0  0  0
   27.6367   12.8315   26.9814 N   0  0  0  0  0  0  0  0  0  0  0  0
   29.8518   12.7201   26.9717 N   0  0  0  0  0  0  0  0  0  0  0  0
   26.2313   13.1247   21.6718 N   0  0  0  0  0  0  0  0  0  0  0  0
   27.3971   11.3448   21.0499 N   0  0  0  0  0  0  0  0  0  0  0  0
   27.9992   12.6851   25.6582 C   0  0  0  0  0  0  0  0  0  0  0  0
   28.7891   12.8429   27.7430 C   0  0  0  0  0  0  0  0  0  0  0  0
   29.3879   12.6260   25.6852 C   0  0  0  0  0  0  0  0  0  0  0  0
   27.9752   12.4289   23.2690 C   0  0  0  0  0  0  0  0  0  0  0  0
   26.5337   11.6021   20.0088 C   0  0  0  0  0  0  0  0  0  0  0  0
   25.8148   12.7135   20.4332 C   0  0  0  0  0  0  0  0  0  0  0  0
   27.2651   12.5982   24.4676 C   0  0  0  0  0  0  0  0  0  0  0  0
   25.1101    7.4664   31.0622 C   0  0  0  0  0  0  0  0  0  0  0  0
   30.1141   12.4904   24.4855 C   0  0  0  0  0  0  0  0  0  0  0  0
   24.3070    8.2832   30.2393 C   0  0  0  0  0  0  0  0  0  0  0  0
   26.5687    7.7119   31.2099 C   0  0  0  0  0  0  0  0  0  0  0  0
   29.3772   12.3978   23.2850 C   0  0  0  0  0  0  0  0  0  0  0  0
   26.2735   12.9924   27.4692 C   0  0  0  0  0  0  0  0  0  0  0  0
   24.8092    9.4704   29.5366 C   0  0  0  0  0  0  0  0  0  0  0  0
   27.3333    8.1629   30.3821 O   0  0  0  0  0  0  0  0  0  0  0  0
   24.8635   10.7130   30.1827 C   0  0  0  0  0  0  0  0  0  0  0  0
   25.2210    9.3934   28.1996 C   0  0  0  0  0  0  0  0  0  0  0  0
   25.7643   11.7640   28.1830 C   0  0  0  0  0  0  0  0  0  0  0  0
   28.2819   10.2067   21.1316 C   0  0  0  0  0  0  0  0  0  0  0  0
   27.0119    7.3541   32.4325 O   0  0  0  0  0  0  0  0  0  0  0  0
   28.8103   12.9370   29.2377 C   0  0  0  0  0  0  0  0  0  0  0  0
   25.6928   10.5256   27.5300 C   0  0  0  0  0  0  0  0  0  0  0  0
   25.3305   11.8477   29.5134 C   0  0  0  0  0  0  0  0  0  0  0  0
   26.3050   10.9838   18.7725 C   0  0  0  0  0  0  0  0  0  0  0  0
   24.8150   13.2482   19.6071 C   0  0  0  0  0  0  0  0  0  0  0  0
   24.5426    6.3685   31.7353 C   0  0  0  0  0  0  0  0  0  0  0  0
   22.9409    7.9608   30.1126 C   0  0  0  0  0  0  0  0  0  0  0  0
   31.6125   12.4310   24.4420 C   0  0  0  0  0  0  0  0  0  0  0  0
   30.1039   13.5411   29.7898 C   0  0  0  0  0  0  0  0  0  0  0  0
   25.3058   11.5324   17.9598 C   0  0  0  0  0  0  0  0  0  0  0  0
   23.1868    6.0725   31.5948 C   0  0  0  0  0  0  0  0  0  0  0  0
   22.3869    6.8670   30.7808 C   0  0  0  0  0  0  0  0  0  0  0  0
   24.5700   12.6459   18.3678 C   0  0  0  0  0  0  0  0  0  0  0  0
   30.2446   15.0243   29.4776 C   0  0  0  0  0  0  0  0  0  0  0  0
   26.1803   12.6516   24.4576 H   0  0  0  0  0  0  0  0  0  0  0  0
   29.9244   12.3195   22.3473 H   0  0  0  0  0  0  0  0  0  0  0  0
   25.6149   13.2251   26.6262 H   0  0  0  0  0  0  0  0  0  0  0  0
   26.2679   13.8745   28.1198 H   0  0  0  0  0  0  0  0  0  0  0  0
   24.5415   10.8029   31.2183 H   0  0  0  0  0  0  0  0  0  0  0  0
   25.1940    8.4407   27.6751 H   0  0  0  0  0  0  0  0  0  0  0  0
   29.2663   10.5100   20.7687 H   0  0  0  0  0  0  0  0  0  0  0  0
   27.8927    9.3923   20.5162 H   0  0  0  0  0  0  0  0  0  0  0  0
   28.3375    9.8598   22.1658 H   0  0  0  0  0  0  0  0  0  0  0  0
   27.9681    7.5674   32.3965 H   0  0  0  0  0  0  0  0  0  0  0  0
   27.9651   13.5255   29.6074 H   0  0  0  0  0  0  0  0  0  0  0  0
   28.7003   11.9234   29.6407 H   0  0  0  0  0  0  0  0  0  0  0  0
   26.0179   10.4237   26.4966 H   0  0  0  0  0  0  0  0  0  0  0  0
   25.3594   12.7951   30.0474 H   0  0  0  0  0  0  0  0  0  0  0  0
   26.8714   10.1185   18.4472 H   0  0  0  0  0  0  0  0  0  0  0  0
   24.2500   14.1148   19.9322 H   0  0  0  0  0  0  0  0  0  0  0  0
   25.1591    5.7312   32.3666 H   0  0  0  0  0  0  0  0  0  0  0  0
   22.2960    8.5765   29.4866 H   0  0  0  0  0  0  0  0  0  0  0  0
   32.0500   12.6228   25.4267 H   0  0  0  0  0  0  0  0  0  0  0  0
   32.0023   13.1835   23.7494 H   0  0  0  0  0  0  0  0  0  0  0  0
   31.9372   11.4395   24.1121 H   0  0  0  0  0  0  0  0  0  0  0  0
   30.9778   13.0021   29.4071 H   0  0  0  0  0  0  0  0  0  0  0  0
   30.1085   13.4157   30.8789 H   0  0  0  0  0  0  0  0  0  0  0  0
   25.0991   11.0813   16.9917 H   0  0  0  0  0  0  0  0  0  0  0  0
   22.7587    5.2203   32.1171 H   0  0  0  0  0  0  0  0  0  0  0  0
   21.3296    6.6397   30.6657 H   0  0  0  0  0  0  0  0  0  0  0  0
   23.7989   13.0521   17.7180 H   0  0  0  0  0  0  0  0  0  0  0  0
   31.1581   15.4195   29.9345 H   0  0  0  0  0  0  0  0  0  0  0  0
   30.3059   15.2049   28.4000 H   0  0  0  0  0  0  0  0  0  0  0  0
   29.3951   15.5894   29.8741 H   0  0  0  0  0  0  0  0  0  0  0  0
  2  6  1  0
  3  8  1  0
  4  1  2  0
  5  1  1  0
  6 12  2  0
  7  2  1  0
  8 14  2  0
  9  1  1  0
 10  5  1  0
 11  4  1  0
 12  9  1  0
 13 15  2  0
 14 17  1  0
 15 19  1  0
 16 13  1  0
 17  9  2  0
 18  2  1  0
 19 21  2  0
 20 16  2  0
 21 28  1  0
 22 27  2  0
 23 18  1  0
 24  5  1  0
 25 16  1  0
 26  7  1  0
 27 23  1  0
 28 23  2  0
 29 10  2  0
 30 11  2  0
 31 13  1  0
 32 15  1  0
 33 14  1  0
 34 26  1  0
 35 29  1  0
 36 37  1  0
 37 32  2  0
 38 30  1  0
 39 34  1  0
 10 11  1  0
  8  6  1  0
 35 38  2  0
  3  7  2  0
 19 22  1  0
 36 31  2  0
 12 40  1  0
 17 41  1  0
 18 42  1  0
 18 43  1  0
 21 44  1  0
 22 45  1  0
 24 46  1  0
 24 47  1  0
 24 48  1  0
 25 49  1  0
 26 50  1  0
 26 51  1  0
 27 52  1  0
 28 53  1  0
 29 54  1  0
 30 55  1  0
 31 56  1  0
 32 57  1  0
 33 58  1  0
 33 59  1  0
 33 60  1  0
 34 61  1  0
 34 62  1  0
 35 63  1  0
 36 64  1  0
 37 65  1  0
 38 66  1  0
 39 67  1  0
 39 68  1  0
 39 69  1  0
M  END
> <Uni-Dock RESULT> 
ENERGY=   -4.554  LOWER_BOUND=    0.000  UPPER_BOUND=    0.000
INTER + INTRA:          -4.554
INTER:                  -4.554
INTRA:                   0.000
UNBOUND:                 0.000

$$$$

     RDKit          3D

 69 74  0  0  0  0  0  0  0  0999 V2000
   31.0869    7.1265   29.9222 C   0  0  0  0  0  0  0  0  0  0  0  0
   26.9957    4.9657   31.8426 N   0  0  0  0  0  0  0  0  0  0  0  0
   27.1537    3.1572   30.5686 N   0  0  0  0  0  0  0  0  0  0  0  0
   31.6751    7.7149   30.9492 N   0  0  0  0  0  0  0  0  0  0  0  0
   31.4971    7.7151   28.7396 N   0  0  0  0  0  0  0  0  0  0  0  0
   28.1241    5.1485   31.0701 C   0  0  0  0  0  0  0  0  0  0  0  0
   26.4359    3.7494   31.5031 C   0  0  0  0  0  0  0  0  0  0  0  0
   28.1992    3.9994   30.2912 C   0  0  0  0  0  0  0  0  0  0  0  0
   30.1040    6.0448   30.0445 C   0  0  0  0  0  0  0  0  0  0  0  0
   32.4545    8.6603   29.0323 C   0  0  0  0  0  0  0  0  0  0  0  0
   32.5346    8.6411   30.4199 C   0  0  0  0  0  0  0  0  0  0  0  0
   29.0640    6.1838   30.9767 C   0  0  0  0  0  0  0  0  0  0  0  0
   20.6712    8.1363   30.5119 C   0  0  0  0  0  0  0  0  0  0  0  0
   29.2573    3.8324   29.3760 C   0  0  0  0  0  0  0  0  0  0  0  0
   21.7033    8.7156   31.2789 C   0  0  0  0  0  0  0  0  0  0  0  0
   20.7886    6.7562   29.9722 C   0  0  0  0  0  0  0  0  0  0  0  0
   30.2030    4.8757   29.2763 C   0  0  0  0  0  0  0  0  0  0  0  0
   26.5177    5.8843   32.8673 C   0  0  0  0  0  0  0  0  0  0  0  0
   22.9214    7.9979   31.6744 C   0  0  0  0  0  0  0  0  0  0  0  0
   21.7969    6.1808   29.6178 O   0  0  0  0  0  0  0  0  0  0  0  0
   22.9382    7.2008   32.8271 C   0  0  0  0  0  0  0  0  0  0  0  0
   24.0990    8.1131   30.9240 C   0  0  0  0  0  0  0  0  0  0  0  0
   25.2699    6.6225   32.4478 C   0  0  0  0  0  0  0  0  0  0  0  0
   30.9744    7.4449   27.4211 C   0  0  0  0  0  0  0  0  0  0  0  0
   19.5865    6.1501   29.8909 O   0  0  0  0  0  0  0  0  0  0  0  0
   25.1670    3.2125   32.0906 C   0  0  0  0  0  0  0  0  0  0  0  0
   25.2596    7.4344   31.3051 C   0  0  0  0  0  0  0  0  0  0  0  0
   24.0993    6.5249   33.2128 C   0  0  0  0  0  0  0  0  0  0  0  0
   33.2325    9.5188   28.2444 C   0  0  0  0  0  0  0  0  0  0  0  0
   33.4200    9.5104   31.0744 C   0  0  0  0  0  0  0  0  0  0  0  0
   19.5149    8.8792   30.2095 C   0  0  0  0  0  0  0  0  0  0  0  0
   21.5399   10.0450   31.7176 C   0  0  0  0  0  0  0  0  0  0  0  0
   29.4041    2.6138   28.5134 C   0  0  0  0  0  0  0  0  0  0  0  0
   25.0811    1.6845   32.0569 C   0  0  0  0  0  0  0  0  0  0  0  0
   34.1125   10.3773   28.9140 C   0  0  0  0  0  0  0  0  0  0  0  0
   19.3769   10.1927   30.6580 C   0  0  0  0  0  0  0  0  0  0  0  0
   20.3911   10.7764   31.4094 C   0  0  0  0  0  0  0  0  0  0  0  0
   34.2066   10.3766   30.3064 C   0  0  0  0  0  0  0  0  0  0  0  0
   26.0611    1.0157   33.0105 C   0  0  0  0  0  0  0  0  0  0  0  0
   28.9991    7.0748   31.5945 H   0  0  0  0  0  0  0  0  0  0  0  0
   31.0410    4.7502   28.5930 H   0  0  0  0  0  0  0  0  0  0  0  0
   27.3079    6.6050   33.1013 H   0  0  0  0  0  0  0  0  0  0  0  0
   26.3568    5.2942   33.7768 H   0  0  0  0  0  0  0  0  0  0  0  0
   22.0400    7.1007   33.4332 H   0  0  0  0  0  0  0  0  0  0  0  0
   24.1131    8.7212   30.0220 H   0  0  0  0  0  0  0  0  0  0  0  0
   31.5248    6.6011   26.9995 H   0  0  0  0  0  0  0  0  0  0  0  0
   31.1001    8.3257   26.7871 H   0  0  0  0  0  0  0  0  0  0  0  0
   29.9078    7.2198   27.4892 H   0  0  0  0  0  0  0  0  0  0  0  0
   19.8048    5.2648   29.5305 H   0  0  0  0  0  0  0  0  0  0  0  0
   25.0397    3.5462   33.1249 H   0  0  0  0  0  0  0  0  0  0  0  0
   24.3293    3.6205   31.5130 H   0  0  0  0  0  0  0  0  0  0  0  0
   26.1506    7.5364   30.6889 H   0  0  0  0  0  0  0  0  0  0  0  0
   24.0746    5.9144   34.1130 H   0  0  0  0  0  0  0  0  0  0  0  0
   33.1661    9.5265   27.1623 H   0  0  0  0  0  0  0  0  0  0  0  0
   33.4872    9.5011   32.1566 H   0  0  0  0  0  0  0  0  0  0  0  0
   18.7182    8.4391   29.6127 H   0  0  0  0  0  0  0  0  0  0  0  0
   22.3194   10.5167   32.3148 H   0  0  0  0  0  0  0  0  0  0  0  0
   28.6673    1.8474   28.7735 H   0  0  0  0  0  0  0  0  0  0  0  0
   30.4001    2.1778   28.6388 H   0  0  0  0  0  0  0  0  0  0  0  0
   29.2609    2.8813   27.4621 H   0  0  0  0  0  0  0  0  0  0  0  0
   25.2457    1.3092   31.0406 H   0  0  0  0  0  0  0  0  0  0  0  0
   24.0651    1.3875   32.3417 H   0  0  0  0  0  0  0  0  0  0  0  0
   34.7346   11.0581   28.3371 H   0  0  0  0  0  0  0  0  0  0  0  0
   18.4807   10.7590   30.4167 H   0  0  0  0  0  0  0  0  0  0  0  0
   20.2900   11.8009   31.7600 H   0  0  0  0  0  0  0  0  0  0  0  0
   34.8977   11.0538   30.8020 H   0  0  0  0  0  0  0  0  0  0  0  0
   25.9269   -0.0709   32.9863 H   0  0  0  0  0  0  0  0  0  0  0  0
   27.0988    1.2296   32.7368 H   0  0  0  0  0  0  0  0  0  0  0  0
   25.8989    1.3547   34.0387 H   0  0  0  0  0  0  0  0  0  0  0  0
  2  6  1  0
  3  8  1  0
  4  1  2  0
  5  1  1  0
  6 12  2  0
  7  2  1  0
  8 14  2  0
  9  1  1  0
 10  5  1  0
 11  4  1  0
 12  9  1  0
 13 15  2  0
 14 17  1  0
 15 19  1  0
 16 13  1  0
 17  9  2  0
 18  2  1  0
 19 21  2  0
 20 16  2  0
 21 28  1  0
 22 27  2  0
 23 18  1  0
 24  5  1  0
 25 16  1  0
 26  7  1  0
 27 23  1  0
 28 23  2  0
 29 10  2  0
 30 11  2  0
 31 13  1  0
 32 15  1  0
 33 14  1  0
 34 26  1  0
 35 29  1  0
 36 37  1  0
 37 32  2  0
 38 30  1  0
 39 34  1  0
 10 11  1  0
  8  6  1  0
 35 38  2  0
  3  7  2  0
 19 22  1  0
 36 31  2  0
 12 40  1  0
 17 41  1  0
 18 42  1  0
 18 43  1  0
 21 44  1  0
 22 45  1  0
 24 46  1  0
 24 47  1  0
 24 48  1  0
 25 49  1  0
 26 50  1  0
 26 51  1  0
 27 52  1  0
 28 53  1  0
 29 54  1  0
 30 55  1  0
 31 56  1  0
 32 57  1  0
 33 58  1  0
 33 59  1  0
 33 60  1  0
 34 61  1  0
 34 62  1  0
 35 63  1  0
 36 64  1  0
 37 65  1  0
 38 66  1  0
 39 67  1  0
 39 68  1  0
 39 69  1  0
M  END
> <Uni-Dock RESULT> 
ENERGY=   -4.521  LOWER_BOUND=    6.648  UPPER_BOUND=    9.414
INTER + INTRA:          -4.521
INTER:                  -4.521
INTRA:                   0.000
UNBOUND:                 0.000

$$$$

     RDKit          3D

 69 74  0  0  0  0  0  0  0  0999 V2000
   26.0910   14.0890   23.8790 C   0  0  0  0  0  0  0  0  0  0  0  0
   26.3047   13.2880   28.8194 N   0  0  0  0  0  0  0  0  0  0  0  0
   28.4898   13.6451   28.9477 N   0  0  0  0  0  0  0  0  0  0  0  0
   24.9535   14.7344   23.6877 N   0  0  0  0  0  0  0  0  0  0  0  0
   26.4920   13.4765   22.7056 N   0  0  0  0  0  0  0  0  0  0  0  0
   26.7114   13.5901   27.5361 C   0  0  0  0  0  0  0  0  0  0  0  0
   27.4141   13.3277   29.6414 C   0  0  0  0  0  0  0  0  0  0  0  0
   28.0785   13.8150   27.6511 C   0  0  0  0  0  0  0  0  0  0  0  0
   26.7822   14.0027   25.1698 C   0  0  0  0  0  0  0  0  0  0  0  0
   25.6098   13.8258   21.7079 C   0  0  0  0  0  0  0  0  0  0  0  0
   24.6574   14.6032   22.3566 C   0  0  0  0  0  0  0  0  0  0  0  0
   26.0333   13.6843   26.3133 C   0  0  0  0  0  0  0  0  0  0  0  0
   24.9557    6.6041   31.1275 C   0  0  0  0  0  0  0  0  0  0  0  0
   28.8356   14.1686   26.5168 C   0  0  0  0  0  0  0  0  0  0  0  0
   24.0058    7.4311   30.4927 C   0  0  0  0  0  0  0  0  0  0  0  0
   26.3220    7.0961   31.4447 C   0  0  0  0  0  0  0  0  0  0  0  0
   28.1563   14.2597   25.2827 C   0  0  0  0  0  0  0  0  0  0  0  0
   24.9318   13.0221   29.2281 C   0  0  0  0  0  0  0  0  0  0  0  0
   24.2456    8.8431   30.1702 C   0  0  0  0  0  0  0  0  0  0  0  0
   26.9817    7.9060   30.8264 O   0  0  0  0  0  0  0  0  0  0  0  0
   24.0149    9.8428   31.1250 C   0  0  0  0  0  0  0  0  0  0  0  0
   24.6853    9.2245   28.8957 C   0  0  0  0  0  0  0  0  0  0  0  0
   24.6941   11.5669   29.5498 C   0  0  0  0  0  0  0  0  0  0  0  0
   27.6040   12.5689   22.5488 C   0  0  0  0  0  0  0  0  0  0  0  0
   26.8136    6.5153   32.5583 O   0  0  0  0  0  0  0  0  0  0  0  0
   27.3904   13.0088   31.1048 C   0  0  0  0  0  0  0  0  0  0  0  0
   24.9071   10.5695   28.5881 C   0  0  0  0  0  0  0  0  0  0  0  0
   24.2315   11.1891   30.8181 C   0  0  0  0  0  0  0  0  0  0  0  0
   25.5422   13.5385   20.3383 C   0  0  0  0  0  0  0  0  0  0  0  0
   23.5777   15.1255   21.6290 C   0  0  0  0  0  0  0  0  0  0  0  0
   24.6330    5.2705   31.4403 C   0  0  0  0  0  0  0  0  0  0  0  0
   22.7462    6.8803   30.1823 C   0  0  0  0  0  0  0  0  0  0  0  0
   30.3109   14.4353   26.5723 C   0  0  0  0  0  0  0  0  0  0  0  0
   28.5105   13.6918   31.8934 C   0  0  0  0  0  0  0  0  0  0  0  0
   24.4598   14.0703   19.6274 C   0  0  0  0  0  0  0  0  0  0  0  0
   23.3779    4.7503   31.1243 C   0  0  0  0  0  0  0  0  0  0  0  0
   22.4358    5.5546   30.4924 C   0  0  0  0  0  0  0  0  0  0  0  0
   23.4908   14.8506   20.2594 C   0  0  0  0  0  0  0  0  0  0  0  0
   28.3265   15.1993   31.9974 C   0  0  0  0  0  0  0  0  0  0  0  0
   24.9636   13.5124   26.2359 H   0  0  0  0  0  0  0  0  0  0  0  0
   28.7221   14.5578   24.4019 H   0  0  0  0  0  0  0  0  0  0  0  0
   24.2517   13.3363   28.4298 H   0  0  0  0  0  0  0  0  0  0  0  0
   24.7221   13.6699   30.0871 H   0  0  0  0  0  0  0  0  0  0  0  0
   23.6647    9.5754   32.1200 H   0  0  0  0  0  0  0  0  0  0  0  0
   24.8769    8.4690   28.1367 H   0  0  0  0  0  0  0  0  0  0  0  0
   28.5032   13.1576   22.3547 H   0  0  0  0  0  0  0  0  0  0  0  0
   27.4133   11.8933   21.7118 H   0  0  0  0  0  0  0  0  0  0  0  0
   27.7182   11.9699   23.4550 H   0  0  0  0  0  0  0  0  0  0  0  0
   27.6999    6.9237   32.6525 H   0  0  0  0  0  0  0  0  0  0  0  0
   26.4307   13.2842   31.5525 H   0  0  0  0  0  0  0  0  0  0  0  0
   27.4997   11.9235   31.2148 H   0  0  0  0  0  0  0  0  0  0  0  0
   25.2630   10.8258   27.5923 H   0  0  0  0  0  0  0  0  0  0  0  0
   24.0429   11.9375   31.5849 H   0  0  0  0  0  0  0  0  0  0  0  0
   26.2903   12.9332   19.8387 H   0  0  0  0  0  0  0  0  0  0  0  0
   22.8308   15.7324   22.1287 H   0  0  0  0  0  0  0  0  0  0  0  0
   25.3645    4.6262   31.9245 H   0  0  0  0  0  0  0  0  0  0  0  0
   21.9917    7.4970   29.6953 H   0  0  0  0  0  0  0  0  0  0  0  0
   30.6798   14.4348   27.6027 H   0  0  0  0  0  0  0  0  0  0  0  0
   30.5365   15.4132   26.1357 H   0  0  0  0  0  0  0  0  0  0  0  0
   30.8510   13.6627   26.0166 H   0  0  0  0  0  0  0  0  0  0  0  0
   29.4875   13.4724   31.4484 H   0  0  0  0  0  0  0  0  0  0  0  0
   28.5253   13.2751   32.9072 H   0  0  0  0  0  0  0  0  0  0  0  0
   24.3729   13.8706   18.5615 H   0  0  0  0  0  0  0  0  0  0  0  0
   23.1396    3.7178   31.3679 H   0  0  0  0  0  0  0  0  0  0  0  0
   21.4563    5.1539   30.2417 H   0  0  0  0  0  0  0  0  0  0  0  0
   22.6597   15.2513   19.6844 H   0  0  0  0  0  0  0  0  0  0  0  0
   29.1232   15.6338   32.6104 H   0  0  0  0  0  0  0  0  0  0  0  0
   28.3635   15.6783   31.0142 H   0  0  0  0  0  0  0  0  0  0  0  0
   27.3672   15.4445   32.4644 H   0  0  0  0  0  0  0  0  0  0  0  0
  2  6  1  0
  3  8  1  0
  4  1  2  0
  5  1  1  0
  6 12  2  0
  7  2  1  0
  8 14  2  0
  9  1  1  0
 10  5  1  0
 11  4  1  0
 12  9  1  0
 13 15  2  0
 14 17  1  0
 15 19  1  0
 16 13  1  0
 17  9  2  0
 18  2  1  0
 19 21  2  0
 20 16  2  0
 21 28  1  0
 22 27  2  0
 23 18  1  0
 24  5  1  0
 25 16  1  0
 26  7  1  0
 27 23  1  0
 28 23  2  0
 29 10  2  0
 30 11  2  0
 31 13  1  0
 32 15  1  0
 33 14  1  0
 34 26  1  0
 35 29  1  0
 36 37  1  0
 37 32  2  0
 38 30  1  0
 39 34  1  0
 10 11  1  0
  8  6  1  0
 35 38  2  0
  3  7  2  0
 19 22  1  0
 36 31  2  0
 12 40  1  0
 17 41  1  0
 18 42  1  0
 18 43  1  0
 21 44  1  0
 22 45  1  0
 24 46  1  0
 24 47  1  0
 24 48  1  0
 25 49  1  0
 26 50  1  0
 26 51  1  0
 27 52  1  0
 28 53  1  0
 29 54  1  0
 30 55  1  0
 31 56  1  0
 32 57  1  0
 33 58  1  0
 33 59  1  0
 33 60  1  0
 34 61  1  0
 34 62  1  0
 35 63  1  0
 36 64  1  0
 37 65  1  0
 38 66  1  0
 39 67  1  0
 39 68  1  0
 39 69  1  0
M  END
> <Uni-Dock RESULT> 
ENERGY=   -4.383  LOWER_BOUND=    1.783  UPPER_BOUND=    2.317
INTER + INTRA:          -4.383
INTER:                  -4.383
INTRA:                   0.000
UNBOUND:                 0.000

$$$$

     RDKit          3D

 69 74  0  0  0  0  0  0  0  0999 V2000
   26.0284   14.2156   23.9725 C   0  0  0  0  0  0  0  0  0  0  0  0
   26.2354   13.3202   28.8969 N   0  0  0  0  0  0  0  0  0  0  0  0
   28.4230   13.6596   29.0321 N   0  0  0  0  0  0  0  0  0  0  0  0
   24.8954   14.8723   23.7932 N   0  0  0  0  0  0  0  0  0  0  0  0
   26.4254   13.6224   22.7877 N   0  0  0  0  0  0  0  0  0  0  0  0
   26.6445   13.6435   27.6196 C   0  0  0  0  0  0  0  0  0  0  0  0
   27.3449   13.3367   29.7196 C   0  0  0  0  0  0  0  0  0  0  0  0
   28.0131   13.8567   27.7389 C   0  0  0  0  0  0  0  0  0  0  0  0
   26.7187   14.1001   25.2614 C   0  0  0  0  0  0  0  0  0  0  0  0
   25.5458   13.9966   21.7967 C   0  0  0  0  0  0  0  0  0  0  0  0
   24.5986   14.7682   22.4599 C   0  0  0  0  0  0  0  0  0  0  0  0
   25.9674   13.7655   26.3987 C   0  0  0  0  0  0  0  0  0  0  0  0
   24.8397    6.6035   31.0786 C   0  0  0  0  0  0  0  0  0  0  0  0
   28.7729   14.2264   26.6115 C   0  0  0  0  0  0  0  0  0  0  0  0
   23.8957    7.4488   30.4594 C   0  0  0  0  0  0  0  0  0  0  0  0
   26.2094    7.0800   31.4051 C   0  0  0  0  0  0  0  0  0  0  0  0
   28.0945   14.3454   25.3793 C   0  0  0  0  0  0  0  0  0  0  0  0
   24.8607   13.0562   29.3004 C   0  0  0  0  0  0  0  0  0  0  0  0
   24.1453    8.8650   30.1636 C   0  0  0  0  0  0  0  0  0  0  0  0
   26.8748    7.8967   30.8023 O   0  0  0  0  0  0  0  0  0  0  0  0
   23.9214    9.8481   31.1371 C   0  0  0  0  0  0  0  0  0  0  0  0
   24.5880    9.2672   28.8965 C   0  0  0  0  0  0  0  0  0  0  0  0
   24.6128   11.5968   29.5946 C   0  0  0  0  0  0  0  0  0  0  0  0
   27.5311   12.7103   22.6140 C   0  0  0  0  0  0  0  0  0  0  0  0
   26.6967    6.4749   32.5076 O   0  0  0  0  0  0  0  0  0  0  0  0
   27.3187   12.9904   31.1767 C   0  0  0  0  0  0  0  0  0  0  0  0
   24.8192   10.6162   28.6143 C   0  0  0  0  0  0  0  0  0  0  0  0
   24.1474   11.1984   30.8555 C   0  0  0  0  0  0  0  0  0  0  0  0
   25.4765   13.7357   20.4219 C   0  0  0  0  0  0  0  0  0  0  0  0
   23.5227   15.3116   21.7421 C   0  0  0  0  0  0  0  0  0  0  0  0
   24.5078    5.2665   31.3662 C   0  0  0  0  0  0  0  0  0  0  0  0
   22.6324    6.9127   30.1386 C   0  0  0  0  0  0  0  0  0  0  0  0
   30.2500   14.4818   26.6722 C   0  0  0  0  0  0  0  0  0  0  0  0
   28.4434   13.6507   31.9781 C   0  0  0  0  0  0  0  0  0  0  0  0
   24.3980   14.2882   19.7211 C   0  0  0  0  0  0  0  0  0  0  0  0
   23.2492    4.7611   31.0404 C   0  0  0  0  0  0  0  0  0  0  0  0
   22.3128    5.5836   30.4237 C   0  0  0  0  0  0  0  0  0  0  0  0
   23.4342   15.0632   20.3676 C   0  0  0  0  0  0  0  0  0  0  0  0
   28.2698   15.1572   32.1105 C   0  0  0  0  0  0  0  0  0  0  0  0
   24.8965   13.6025   26.3180 H   0  0  0  0  0  0  0  0  0  0  0  0
   28.6625   14.6561   24.5043 H   0  0  0  0  0  0  0  0  0  0  0  0
   24.1829   13.3900   28.5082 H   0  0  0  0  0  0  0  0  0  0  0  0
   24.6553   13.6891   30.1715 H   0  0  0  0  0  0  0  0  0  0  0  0
   23.5692    9.5644   32.1268 H   0  0  0  0  0  0  0  0  0  0  0  0
   24.7745    8.5249   28.1235 H   0  0  0  0  0  0  0  0  0  0  0  0
   28.4344   13.2963   22.4311 H   0  0  0  0  0  0  0  0  0  0  0  0
   27.3359   12.0519   21.7644 H   0  0  0  0  0  0  0  0  0  0  0  0
   27.6409   12.0936   23.5087 H   0  0  0  0  0  0  0  0  0  0  0  0
   27.5858    6.8753   32.6096 H   0  0  0  0  0  0  0  0  0  0  0  0
   26.3608   13.2640   31.6294 H   0  0  0  0  0  0  0  0  0  0  0  0
   27.4205   11.9025   31.2663 H   0  0  0  0  0  0  0  0  0  0  0  0
   25.1770   10.8888   27.6236 H   0  0  0  0  0  0  0  0  0  0  0  0
   23.9638   11.9335   31.6363 H   0  0  0  0  0  0  0  0  0  0  0  0
   26.2205   13.1347   19.9111 H   0  0  0  0  0  0  0  0  0  0  0  0
   22.7800   15.9141   22.2532 H   0  0  0  0  0  0  0  0  0  0  0  0
   25.2347    4.6081   31.8382 H   0  0  0  0  0  0  0  0  0  0  0  0
   21.8823    7.5437   29.6632 H   0  0  0  0  0  0  0  0  0  0  0  0
   30.6187   14.4593   27.7024 H   0  0  0  0  0  0  0  0  0  0  0  0
   30.4825   15.4662   26.2541 H   0  0  0  0  0  0  0  0  0  0  0  0
   30.7848   13.7161   26.1020 H   0  0  0  0  0  0  0  0  0  0  0  0
   29.4190   13.4330   31.5291 H   0  0  0  0  0  0  0  0  0  0  0  0
   28.4551   13.2149   32.9839 H   0  0  0  0  0  0  0  0  0  0  0  0
   24.3099   14.1092   18.6516 H   0  0  0  0  0  0  0  0  0  0  0  0
   23.0036    3.7259   31.2645 H   0  0  0  0  0  0  0  0  0  0  0  0
   21.3306    5.1945   30.1654 H   0  0  0  0  0  0  0  0  0  0  0  0
   22.6060   15.4803   19.8003 H   0  0  0  0  0  0  0  0  0  0  0  0
   29.0694   15.5745   32.7316 H   0  0  0  0  0  0  0  0  0  0  0  0
   28.3104   15.6544   31.1365 H   0  0  0  0  0  0  0  0  0  0  0  0
   27.3121   15.4002   32.5819 H   0  0  0  0  0  0  0  0  0  0  0  0
  2  6  1  0
  3  8  1  0
  4  1  2  0
  5  1  1  0
  6 12  2  0
  7  2  1  0
  8 14  2  0
  9  1  1  0
 10  5  1  0
 11  4  1  0
 12  9  1  0
 13 15  2  0
 14 17  1  0
 15 19  1  0
 16 13  1  0
 17  9  2  0
 18  2  1  0
 19 21  2  0
 20 16  2  0
 21 28  1  0
 22 27  2  0
 23 18  1  0
 24  5  1  0
 25 16  1  0
 26  7  1  0
 27 23  1  0
 28 23  2  0
 29 10  2  0
 30 11  2  0
 31 13  1  0
 32 15  1  0
 33 14  1  0
 34 26  1  0
 35 29  1  0
 36 37  1  0
 37 32  2  0
 38 30  1  0
 39 34  1  0
 10 11  1  0
  8  6  1  0
 35 38  2  0
  3  7  2  0
 19 22  1  0
 36 31  2  0
 12 40  1  0
 17 41  1  0
 18 42  1  0
 18 43  1  0
 21 44  1  0
 22 45  1  0
 24 46  1  0
 24 47  1  0
 24 48  1  0
 25 49  1  0
 26 50  1  0
 26 51  1  0
 27 52  1  0
 28 53  1  0
 29 54  1  0
 30 55  1  0
 31 56  1  0
 32 57  1  0
 33 58  1  0
 33 59  1  0
 33 60  1  0
 34 61  1  0
 34 62  1  0
 35 63  1  0
 36 64  1  0
 37 65  1  0
 38 66  1  0
 39 67  1  0
 39 68  1  0
 39 69  1  0
M  END
> <Uni-Dock RESULT> 
ENERGY=   -4.339  LOWER_BOUND=    1.874  UPPER_BOUND=    2.441
INTER + INTRA:          -4.339
INTER:                  -4.339
INTRA:                   0.000
UNBOUND:                 0.000

$$$$

     RDKit          3D

 69 74  0  0  0  0  0  0  0  0999 V2000
   24.9609   10.5645   19.0295 C   0  0  0  0  0  0  0  0  0  0  0  0
   27.1203   14.2664   21.6231 N   0  0  0  0  0  0  0  0  0  0  0  0
   27.5394   15.4997   19.8280 N   0  0  0  0  0  0  0  0  0  0  0  0
   23.9561   10.1595   19.7866 N   0  0  0  0  0  0  0  0  0  0  0  0
   25.3207    9.5646   18.1441 N   0  0  0  0  0  0  0  0  0  0  0  0
   26.6238   13.5516   20.5526 C   0  0  0  0  0  0  0  0  0  0  0  0
   27.6704   15.4373   21.1388 C   0  0  0  0  0  0  0  0  0  0  0  0
   26.8943   14.3514   19.4481 C   0  0  0  0  0  0  0  0  0  0  0  0
   25.6193   11.8683   19.1625 C   0  0  0  0  0  0  0  0  0  0  0  0
   24.4435    8.5139   18.2932 C   0  0  0  0  0  0  0  0  0  0  0  0
   23.6111    8.9140   19.3322 C   0  0  0  0  0  0  0  0  0  0  0  0
   25.9813   12.3108   20.4443 C   0  0  0  0  0  0  0  0  0  0  0  0
   33.3709   12.7907   24.8751 C   0  0  0  0  0  0  0  0  0  0  0  0
   26.5056   13.9341   18.1598 C   0  0  0  0  0  0  0  0  0  0  0  0
   32.1398   12.1911   25.2129 C   0  0  0  0  0  0  0  0  0  0  0  0
   33.4551   13.8590   23.8449 C   0  0  0  0  0  0  0  0  0  0  0  0
   25.8624   12.6826   18.0469 C   0  0  0  0  0  0  0  0  0  0  0  0
   27.0299   13.8640   23.0203 C   0  0  0  0  0  0  0  0  0  0  0  0
   30.8503   12.6138   24.6526 C   0  0  0  0  0  0  0  0  0  0  0  0
   32.7647   13.9926   22.8555 O   0  0  0  0  0  0  0  0  0  0  0  0
   30.1349   13.6733   25.2271 C   0  0  0  0  0  0  0  0  0  0  0  0
   30.2952   11.9529   23.5489 C   0  0  0  0  0  0  0  0  0  0  0  0
   28.3589   13.4241   23.5843 C   0  0  0  0  0  0  0  0  0  0  0  0
   26.4583    9.5752   17.2550 C   0  0  0  0  0  0  0  0  0  0  0  0
   34.4475   14.7319   24.1137 O   0  0  0  0  0  0  0  0  0  0  0  0
   28.3558   16.4615   21.9902 C   0  0  0  0  0  0  0  0  0  0  0  0
   29.0647   12.3522   23.0204 C   0  0  0  0  0  0  0  0  0  0  0  0
   28.9017   14.0712   24.7031 C   0  0  0  0  0  0  0  0  0  0  0  0
   24.3031    7.2779   17.6486 C   0  0  0  0  0  0  0  0  0  0  0  0
   22.5882    8.0588   19.7683 C   0  0  0  0  0  0  0  0  0  0  0  0
   34.5599   12.3546   25.4887 C   0  0  0  0  0  0  0  0  0  0  0  0
   32.1451   11.1527   26.1658 C   0  0  0  0  0  0  0  0  0  0  0  0
   26.7567   14.7524   16.9277 C   0  0  0  0  0  0  0  0  0  0  0  0
   28.3179   17.8708   21.3938 C   0  0  0  0  0  0  0  0  0  0  0  0
   23.2753    6.4386   18.0947 C   0  0  0  0  0  0  0  0  0  0  0  0
   34.5373   11.3262   26.4307 C   0  0  0  0  0  0  0  0  0  0  0  0
   33.3301   10.7233   26.7667 C   0  0  0  0  0  0  0  0  0  0  0  0
   22.4303    6.8192   19.1381 C   0  0  0  0  0  0  0  0  0  0  0  0
   26.9228   18.4799   21.4033 C   0  0  0  0  0  0  0  0  0  0  0  0
   25.7695   11.6968   21.3148 H   0  0  0  0  0  0  0  0  0  0  0  0
   25.5322   12.3581   17.0617 H   0  0  0  0  0  0  0  0  0  0  0  0
   26.3050   13.0489   23.1137 H   0  0  0  0  0  0  0  0  0  0  0  0
   26.6132   14.7144   23.5724 H   0  0  0  0  0  0  0  0  0  0  0  0
   30.5387   14.1983   26.0905 H   0  0  0  0  0  0  0  0  0  0  0  0
   30.8311   11.1304   23.0801 H   0  0  0  0  0  0  0  0  0  0  0  0
   26.1628   10.0650   16.3247 H   0  0  0  0  0  0  0  0  0  0  0  0
   26.7768    8.5502   17.0515 H   0  0  0  0  0  0  0  0  0  0  0  0
   27.2877   10.1053   17.7283 H   0  0  0  0  0  0  0  0  0  0  0  0
   34.3907   15.3722   23.3735 H   0  0  0  0  0  0  0  0  0  0  0  0
   27.9199   16.4955   22.9933 H   0  0  0  0  0  0  0  0  0  0  0  0
   29.4037   16.1596   22.1024 H   0  0  0  0  0  0  0  0  0  0  0  0
   28.6725   11.8246   22.1533 H   0  0  0  0  0  0  0  0  0  0  0  0
   28.3754   14.8985   25.1746 H   0  0  0  0  0  0  0  0  0  0  0  0
   24.9547    6.9737   16.8372 H   0  0  0  0  0  0  0  0  0  0  0  0
   21.9356    8.3643   20.5786 H   0  0  0  0  0  0  0  0  0  0  0  0
   35.5133   12.8095   25.2270 H   0  0  0  0  0  0  0  0  0  0  0  0
   31.2083   10.6740   26.4487 H   0  0  0  0  0  0  0  0  0  0  0  0
   27.1613   15.7383   17.1769 H   0  0  0  0  0  0  0  0  0  0  0  0
   25.8240   14.9024   16.3751 H   0  0  0  0  0  0  0  0  0  0  0  0
   27.4770   14.2419   16.2811 H   0  0  0  0  0  0  0  0  0  0  0  0
   28.7095   17.8694   20.3704 H   0  0  0  0  0  0  0  0  0  0  0  0
   28.9800   18.5154   21.9836 H   0  0  0  0  0  0  0  0  0  0  0  0
   23.1333    5.4709   17.6184 H   0  0  0  0  0  0  0  0  0  0  0  0
   35.4620   10.9948   26.8971 H   0  0  0  0  0  0  0  0  0  0  0  0
   33.3067    9.9195   27.4990 H   0  0  0  0  0  0  0  0  0  0  0  0
   21.6401    6.1485   19.4660 H   0  0  0  0  0  0  0  0  0  0  0  0
   26.9567   19.5029   21.0140 H   0  0  0  0  0  0  0  0  0  0  0  0
   26.2296   17.9083   20.7787 H   0  0  0  0  0  0  0  0  0  0  0  0
   26.5198   18.5172   22.4204 H   0  0  0  0  0  0  0  0  0  0  0  0
  2  6  1  0
  3  8  1  0
  4  1  2  0
  5  1  1  0
  6 12  2  0
  7  2  1  0
  8 14  2  0
  9  1  1  0
 10  5  1  0
 11  4  1  0
 12  9  1  0
 13 15  2  0
 14 17  1  0
 15 19  1  0
 16 13  1  0
 17  9  2  0
 18  2  1  0
 19 21  2  0
 20 16  2  0
 21 28  1  0
 22 27  2  0
 23 18  1  0
 24  5  1  0
 25 16  1  0
 26  7  1  0
 27 23  1  0
 28 23  2  0
 29 10  2  0
 30 11  2  0
 31 13  1  0
 32 15  1  0
 33 14  1  0
 34 26  1  0
 35 29  1  0
 36 37  1  0
 37 32  2  0
 38 30  1  0
 39 34  1  0
 10 11  1  0
  8  6  1  0
 35 38  2  0
  3  7  2  0
 19 22  1  0
 36 31  2  0
 12 40  1  0
 17 41  1  0
 18 42  1  0
 18 43  1  0
 21 44  1  0
 22 45  1  0
 24 46  1  0
 24 47  1  0
 24 48  1  0
 25 49  1  0
 26 50  1  0
 26 51  1  0
 27 52  1  0
 28 53  1  0
 29 54  1  0
 30 55  1  0
 31 56  1  0
 32 57  1  0
 33 58  1  0
 33 59  1  0
 33 60  1  0
 34 61  1  0
 34 62  1  0
 35 63  1  0
 36 64  1  0
 37 65  1  0
 38 66  1  0
 39 67  1  0
 39 68  1  0
 39 69  1  0
M  END
> <Uni-Dock RESULT> 
ENERGY=   -4.286  LOWER_BOUND=    6.124  UPPER_BOUND=    8.046
INTER + INTRA:          -4.286
INTER:                  -4.286
INTRA:                   0.000
UNBOUND:                 0.000

$$$$

     RDKit          3D

 69 74  0  0  0  0  0  0  0  0999 V2000
   34.8709   15.9209   21.2359 C   0  0  0  0  0  0  0  0  0  0  0  0
   31.1655   12.5500   21.1997 N   0  0  0  0  0  0  0  0  0  0  0  0
   31.3056   12.1778   19.0178 N   0  0  0  0  0  0  0  0  0  0  0  0
   35.5260   15.6947   22.3614 N   0  0  0  0  0  0  0  0  0  0  0  0
   35.1105   17.2111   20.7988 N   0  0  0  0  0  0  0  0  0  0  0  0
   32.1890   13.3566   20.7466 C   0  0  0  0  0  0  0  0  0  0  0  0
   30.6550   11.8571   20.1193 C   0  0  0  0  0  0  0  0  0  0  0  0
   32.2562   13.0956   19.3827 C   0  0  0  0  0  0  0  0  0  0  0  0
   33.9817   14.9493   20.5906 C   0  0  0  0  0  0  0  0  0  0  0  0
   36.0284   17.7941   21.6433 C   0  0  0  0  0  0  0  0  0  0  0  0
   36.2593   16.8243   22.6121 C   0  0  0  0  0  0  0  0  0  0  0  0
   33.0418   14.2699   21.3810 C   0  0  0  0  0  0  0  0  0  0  0  0
   24.5361   14.9359   22.6762 C   0  0  0  0  0  0  0  0  0  0  0  0
   33.2178   13.7456   18.5841 C   0  0  0  0  0  0  0  0  0  0  0  0
   25.6040   14.9393   23.5975 C   0  0  0  0  0  0  0  0  0  0  0  0
   24.6866   14.3505   21.3182 C   0  0  0  0  0  0  0  0  0  0  0  0
   34.0751   14.6698   19.2195 C   0  0  0  0  0  0  0  0  0  0  0  0
   30.7407   12.4270   22.5878 C   0  0  0  0  0  0  0  0  0  0  0  0
   26.9031   14.3071   23.3365 C   0  0  0  0  0  0  0  0  0  0  0  0
   25.6869   14.3150   20.6315 O   0  0  0  0  0  0  0  0  0  0  0  0
   27.0978   12.9430   23.5929 C   0  0  0  0  0  0  0  0  0  0  0  0
   27.9822   15.0567   22.8500 C   0  0  0  0  0  0  0  0  0  0  0  0
   29.4083   13.0866   22.8471 C   0  0  0  0  0  0  0  0  0  0  0  0
   34.4674   17.8735   19.6886 C   0  0  0  0  0  0  0  0  0  0  0  0
   23.5261   13.8297   20.8697 O   0  0  0  0  0  0  0  0  0  0  0  0
   29.4960   10.9114   20.1961 C   0  0  0  0  0  0  0  0  0  0  0  0
   29.2200   14.4550   22.6079 C   0  0  0  0  0  0  0  0  0  0  0  0
   28.3364   12.3401   23.3561 C   0  0  0  0  0  0  0  0  0  0  0  0
   36.6573   19.0459   21.6653 C   0  0  0  0  0  0  0  0  0  0  0  0
   37.1500   17.0929   23.6621 C   0  0  0  0  0  0  0  0  0  0  0  0
   23.3067   15.5288   23.0191 C   0  0  0  0  0  0  0  0  0  0  0  0
   25.4003   15.5536   24.8495 C   0  0  0  0  0  0  0  0  0  0  0  0
   33.3517   13.5027   17.1097 C   0  0  0  0  0  0  0  0  0  0  0  0
   29.5095    9.8439   19.0991 C   0  0  0  0  0  0  0  0  0  0  0  0
   37.5451   19.2956   22.7185 C   0  0  0  0  0  0  0  0  0  0  0  0
   23.1304   16.1282   24.2662 C   0  0  0  0  0  0  0  0  0  0  0  0
   24.1785   16.1433   25.1799 C   0  0  0  0  0  0  0  0  0  0  0  0
   37.7891   18.3374   23.7033 C   0  0  0  0  0  0  0  0  0  0  0  0
   30.6295    8.8282   19.2758 C   0  0  0  0  0  0  0  0  0  0  0  0
   32.9845   14.4617   22.4486 H   0  0  0  0  0  0  0  0  0  0  0  0
   34.8408   15.1604   18.6212 H   0  0  0  0  0  0  0  0  0  0  0  0
   31.5015   12.8713   23.2376 H   0  0  0  0  0  0  0  0  0  0  0  0
   30.7190   11.3565   22.8226 H   0  0  0  0  0  0  0  0  0  0  0  0
   26.2792   12.3392   23.9794 H   0  0  0  0  0  0  0  0  0  0  0  0
   27.8578   16.1164   22.6376 H   0  0  0  0  0  0  0  0  0  0  0  0
   35.0243   17.6384   18.7790 H   0  0  0  0  0  0  0  0  0  0  0  0
   34.4645   18.9532   19.8550 H   0  0  0  0  0  0  0  0  0  0  0  0
   33.4320   17.5349   19.6103 H   0  0  0  0  0  0  0  0  0  0  0  0
   23.7629   13.4817   19.9843 H   0  0  0  0  0  0  0  0  0  0  0  0
   29.4592   10.4115   21.1688 H   0  0  0  0  0  0  0  0  0  0  0  0
   28.5753   11.4985   20.0985 H   0  0  0  0  0  0  0  0  0  0  0  0
   30.0303   15.0663   22.2159 H   0  0  0  0  0  0  0  0  0  0  0  0
   28.4502   11.2787   23.5659 H   0  0  0  0  0  0  0  0  0  0  0  0
   36.4739   19.7966   20.9048 H   0  0  0  0  0  0  0  0  0  0  0  0
   37.3344   16.3411   24.4214 H   0  0  0  0  0  0  0  0  0  0  0  0
   22.4814   15.5345   22.3096 H   0  0  0  0  0  0  0  0  0  0  0  0
   26.2065   15.5677   25.5821 H   0  0  0  0  0  0  0  0  0  0  0  0
   32.7004   12.6886   16.7768 H   0  0  0  0  0  0  0  0  0  0  0  0
   34.3824   13.2303   16.8620 H   0  0  0  0  0  0  0  0  0  0  0  0
   33.0780   14.4061   16.5563 H   0  0  0  0  0  0  0  0  0  0  0  0
   29.5879   10.3064   18.1088 H   0  0  0  0  0  0  0  0  0  0  0  0
   28.5524    9.3098   19.1225 H   0  0  0  0  0  0  0  0  0  0  0  0
   38.0542   20.2557   22.7699 H   0  0  0  0  0  0  0  0  0  0  0  0
   22.1774   16.5858   24.5203 H   0  0  0  0  0  0  0  0  0  0  0  0
   24.0475   16.6110   26.1530 H   0  0  0  0  0  0  0  0  0  0  0  0
   38.4828   18.5566   24.5111 H   0  0  0  0  0  0  0  0  0  0  0  0
   30.5665    8.0601   18.4977 H   0  0  0  0  0  0  0  0  0  0  0  0
   31.6149    9.2983   19.2011 H   0  0  0  0  0  0  0  0  0  0  0  0
   30.5571    8.3321   20.2489 H   0  0  0  0  0  0  0  0  0  0  0  0
  2  6  1  0
  3  8  1  0
  4  1  2  0
  5  1  1  0
  6 12  2  0
  7  2  1  0
  8 14  2  0
  9  1  1  0
 10  5  1  0
 11  4  1  0
 12  9  1  0
 13 15  2  0
 14 17  1  0
 15 19  1  0
 16 13  1  0
 17  9  2  0
 18  2  1  0
 19 21  2  0
 20 16  2  0
 21 28  1  0
 22 27  2  0
 23 18  1  0
 24  5  1  0
 25 16  1  0
 26  7  1  0
 27 23  1  0
 28 23  2  0
 29 10  2  0
 30 11  2  0
 31 13  1  0
 32 15  1  0
 33 14  1  0
 34 26  1  0
 35 29  1  0
 36 37  1  0
 37 32  2  0
 38 30  1  0
 39 34  1  0
 10 11  1  0
  8  6  1  0
 35 38  2  0
  3  7  2  0
 19 22  1  0
 36 31  2  0
 12 40  1  0
 17 41  1  0
 18 42  1  0
 18 43  1  0
 21 44  1  0
 22 45  1  0
 24 46  1  0
 24 47  1  0
 24 48  1  0
 25 49  1  0
 26 50  1  0
 26 51  1  0
 27 52  1  0
 28 53  1  0
 29 54  1  0
 30 55  1  0
 31 56  1  0
 32 57  1  0
 33 58  1  0
 33 59  1  0
 33 60  1  0
 34 61  1  0
 34 62  1  0
 35 63  1  0
 36 64  1  0
 37 65  1  0
 38 66  1  0
 39 67  1  0
 39 68  1  0
 39 69  1  0
M  END
> <Uni-Dock RESULT> 
ENERGY=   -4.280  LOWER_BOUND=    6.415  UPPER_BOUND=   10.008
INTER + INTRA:          -4.280
INTER:                  -4.280
INTRA:                   0.000
UNBOUND:                 0.000

$$$$

     RDKit          3D

 69 74  0  0  0  0  0  0  0  0999 V2000
   30.2984   11.9210   21.5606 C   0  0  0  0  0  0  0  0  0  0  0  0
   30.1424   12.5338   26.5300 N   0  0  0  0  0  0  0  0  0  0  0  0
   28.9729   14.4154   26.4251 N   0  0  0  0  0  0  0  0  0  0  0  0
   30.1694   10.6189   21.3739 N   0  0  0  0  0  0  0  0  0  0  0  0
   30.8974   12.5013   20.4572 N   0  0  0  0  0  0  0  0  0  0  0  0
   29.9231   12.7649   25.1876 C   0  0  0  0  0  0  0  0  0  0  0  0
   29.5543   13.5601   27.2435 C   0  0  0  0  0  0  0  0  0  0  0  0
   29.1844   13.9423   25.1561 C   0  0  0  0  0  0  0  0  0  0  0  0
   29.9063   12.6200   22.7889 C   0  0  0  0  0  0  0  0  0  0  0  0
   31.0739   11.5312   19.4963 C   0  0  0  0  0  0  0  0  0  0  0  0
   30.6178   10.3672   20.1041 C   0  0  0  0  0  0  0  0  0  0  0  0
   30.2920   12.0765   24.0240 C   0  0  0  0  0  0  0  0  0  0  0  0
   36.3689   13.9121   29.8695 C   0  0  0  0  0  0  0  0  0  0  0  0
   28.7619   14.4801   23.9243 C   0  0  0  0  0  0  0  0  0  0  0  0
   36.0761   12.7035   29.2041 C   0  0  0  0  0  0  0  0  0  0  0  0
   35.3539   14.9903   29.9995 C   0  0  0  0  0  0  0  0  0  0  0  0
   29.1360   13.7914   22.7502 C   0  0  0  0  0  0  0  0  0  0  0  0
   30.8351   11.3784   27.0843 C   0  0  0  0  0  0  0  0  0  0  0  0
   34.7507   12.3742   28.6652 C   0  0  0  0  0  0  0  0  0  0  0  0
   34.4678   15.2739   29.2198 O   0  0  0  0  0  0  0  0  0  0  0  0
   33.7701   11.7973   29.4837 C   0  0  0  0  0  0  0  0  0  0  0  0
   34.4453   12.6055   27.3174 C   0  0  0  0  0  0  0  0  0  0  0  0
   32.1992   11.7261   27.6284 C   0  0  0  0  0  0  0  0  0  0  0  0
   31.3318   13.8733   20.3399 C   0  0  0  0  0  0  0  0  0  0  0  0
   35.5167   15.6917   31.1399 O   0  0  0  0  0  0  0  0  0  0  0  0
   29.6153   13.6927   28.7342 C   0  0  0  0  0  0  0  0  0  0  0  0
   33.1854   12.2857   26.8043 C   0  0  0  0  0  0  0  0  0  0  0  0
   32.5110   11.4723   28.9714 C   0  0  0  0  0  0  0  0  0  0  0  0
   31.5847   11.5496   18.1918 C   0  0  0  0  0  0  0  0  0  0  0  0
   30.6668    9.1541   19.4013 C   0  0  0  0  0  0  0  0  0  0  0  0
   37.6555   14.1345   30.3945 C   0  0  0  0  0  0  0  0  0  0  0  0
   37.1033   11.7465   29.0804 C   0  0  0  0  0  0  0  0  0  0  0  0
   27.9541   15.7399   23.8193 C   0  0  0  0  0  0  0  0  0  0  0  0
   28.4419   14.4805   29.3223 C   0  0  0  0  0  0  0  0  0  0  0  0
   31.6234   10.3308   17.5043 C   0  0  0  0  0  0  0  0  0  0  0  0
   38.6540   13.1698   30.2606 C   0  0  0  0  0  0  0  0  0  0  0  0
   38.3784   11.9772   29.6006 C   0  0  0  0  0  0  0  0  0  0  0  0
   31.1736    9.1500   18.0967 C   0  0  0  0  0  0  0  0  0  0  0  0
   27.1196   13.7327   29.2255 C   0  0  0  0  0  0  0  0  0  0  0  0
   30.8642   11.1540   24.0606 H   0  0  0  0  0  0  0  0  0  0  0  0
   28.7948   14.1796   21.7922 H   0  0  0  0  0  0  0  0  0  0  0  0
   30.9350   10.6125   26.3084 H   0  0  0  0  0  0  0  0  0  0  0  0
   30.1832   10.9541   27.8567 H   0  0  0  0  0  0  0  0  0  0  0  0
   33.9836   11.5988   30.5321 H   0  0  0  0  0  0  0  0  0  0  0  0
   35.1859   13.0566   26.6606 H   0  0  0  0  0  0  0  0  0  0  0  0
   30.4881   14.4722   19.9904 H   0  0  0  0  0  0  0  0  0  0  0  0
   32.1563   13.9392   19.6262 H   0  0  0  0  0  0  0  0  0  0  0  0
   31.6872   14.2289   21.3095 H   0  0  0  0  0  0  0  0  0  0  0  0
   34.7952   16.3543   31.1015 H   0  0  0  0  0  0  0  0  0  0  0  0
   29.6525   12.7109   29.2159 H   0  0  0  0  0  0  0  0  0  0  0  0
   30.5459   14.2138   28.9882 H   0  0  0  0  0  0  0  0  0  0  0  0
   32.9801   12.4938   25.7561 H   0  0  0  0  0  0  0  0  0  0  0  0
   31.7745   11.0268   29.6368 H   0  0  0  0  0  0  0  0  0  0  0  0
   31.9365   12.4620   17.7234 H   0  0  0  0  0  0  0  0  0  0  0  0
   30.3131    8.2423   19.8695 H   0  0  0  0  0  0  0  0  0  0  0  0
   37.8886   15.0680   30.9034 H   0  0  0  0  0  0  0  0  0  0  0  0
   36.9045   10.8024   28.5745 H   0  0  0  0  0  0  0  0  0  0  0  0
   27.6475   16.1029   24.8052 H   0  0  0  0  0  0  0  0  0  0  0  0
   27.0486   15.5622   23.2308 H   0  0  0  0  0  0  0  0  0  0  0  0
   28.5459   16.5235   23.3365 H   0  0  0  0  0  0  0  0  0  0  0  0
   28.3467   15.4568   28.8339 H   0  0  0  0  0  0  0  0  0  0  0  0
   28.6509   14.6766   30.3804 H   0  0  0  0  0  0  0  0  0  0  0  0
   32.0121   10.3043   16.4886 H   0  0  0  0  0  0  0  0  0  0  0  0
   39.6455   13.3526   30.6676 H   0  0  0  0  0  0  0  0  0  0  0  0
   39.1536   11.2223   29.4913 H   0  0  0  0  0  0  0  0  0  0  0  0
   31.2151    8.2165   17.5412 H   0  0  0  0  0  0  0  0  0  0  0  0
   26.3233   14.3139   29.7025 H   0  0  0  0  0  0  0  0  0  0  0  0
   26.8293   13.5611   28.1845 H   0  0  0  0  0  0  0  0  0  0  0  0
   27.1810   12.7634   29.7304 H   0  0  0  0  0  0  0  0  0  0  0  0
  2  6  1  0
  3  8  1  0
  4  1  2  0
  5  1  1  0
  6 12  2  0
  7  2  1  0
  8 14  2  0
  9  1  1  0
 10  5  1  0
 11  4  1  0
 12  9  1  0
 13 15  2  0
 14 17  1  0
 15 19  1  0
 16 13  1  0
 17  9  2  0
 18  2  1  0
 19 21  2  0
 20 16  2  0
 21 28  1  0
 22 27  2  0
 23 18  1  0
 24  5  1  0
 25 16  1  0
 26  7  1  0
 27 23  1  0
 28 23  2  0
 29 10  2  0
 30 11  2  0
 31 13  1  0
 32 15  1  0
 33 14  1  0
 34 26  1  0
 35 29  1  0
 36 37  1  0
 37 32  2  0
 38 30  1  0
 39 34  1  0
 10 11  1  0
  8  6  1  0
 35 38  2  0
  3  7  2  0
 19 22  1  0
 36 31  2  0
 12 40  1  0
 17 41  1  0
 18 42  1  0
 18 43  1  0
 21 44  1  0
 22 45  1  0
 24 46  1  0
 24 47  1  0
 24 48  1  0
 25 49  1  0
 26 50  1  0
 26 51  1  0
 27 52  1  0
 28 53  1  0
 29 54  1  0
 30 55  1  0
 31 56  1  0
 32 57  1  0
 33 58  1  0
 33 59  1  0
 33 60  1  0
 34 61  1  0
 34 62  1  0
 35 63  1  0
 36 64  1  0
 37 65  1  0
 38 66  1  0
 39 67  1  0
 39 68  1  0
 39 69  1  0
M  END
> <Uni-Dock RESULT> 
ENERGY=   -4.133  LOWER_BOUND=    4.945  UPPER_BOUND=    8.119
INTER + INTRA:          -4.133
INTER:                  -4.133
INTRA:                   0.000
UNBOUND:                 0.000

$$$$

     RDKit          3D

 69 74  0  0  0  0  0  0  0  0999 V2000
   31.2806   10.0472   28.1753 C   0  0  0  0  0  0  0  0  0  0  0  0
   28.8954   12.7506   24.6972 N   0  0  0  0  0  0  0  0  0  0  0  0
   26.8785   12.3269   25.5169 N   0  0  0  0  0  0  0  0  0  0  0  0
   32.3772   10.7333   28.4469 N   0  0  0  0  0  0  0  0  0  0  0  0
   31.4514    8.7208   28.5284 N   0  0  0  0  0  0  0  0  0  0  0  0
   29.1003   11.9528   25.8041 C   0  0  0  0  0  0  0  0  0  0  0  0
   27.5355   12.9483   24.5569 C   0  0  0  0  0  0  0  0  0  0  0  0
   27.8229   11.7119   26.2973 C   0  0  0  0  0  0  0  0  0  0  0  0
   30.0875   10.6179   27.5415 C   0  0  0  0  0  0  0  0  0  0  0  0
   32.6821    8.5849   29.1305 C   0  0  0  0  0  0  0  0  0  0  0  0
   33.2371    9.8571   29.0549 C   0  0  0  0  0  0  0  0  0  0  0  0
   30.2513   11.4282   26.4072 C   0  0  0  0  0  0  0  0  0  0  0  0
   29.1449   10.3412   17.9183 C   0  0  0  0  0  0  0  0  0  0  0  0
   27.6472   10.9283   27.4549 C   0  0  0  0  0  0  0  0  0  0  0  0
   30.2693   10.7865   18.6439 C   0  0  0  0  0  0  0  0  0  0  0  0
   27.7753   10.4123   18.4917 C   0  0  0  0  0  0  0  0  0  0  0  0
   28.8045   10.3945   28.0620 C   0  0  0  0  0  0  0  0  0  0  0  0
   29.9448   13.3167   23.8602 C   0  0  0  0  0  0  0  0  0  0  0  0
   30.1835   11.4214   19.9649 C   0  0  0  0  0  0  0  0  0  0  0  0
   27.4518   10.3084   19.6570 O   0  0  0  0  0  0  0  0  0  0  0  0
   29.9536   12.7991   20.0814 C   0  0  0  0  0  0  0  0  0  0  0  0
   30.3540   10.6706   21.1354 C   0  0  0  0  0  0  0  0  0  0  0  0
   30.0296   12.6521   22.5079 C   0  0  0  0  0  0  0  0  0  0  0  0
   30.5356    7.6373   28.2596 C   0  0  0  0  0  0  0  0  0  0  0  0
   26.8450   10.6061   17.5345 O   0  0  0  0  0  0  0  0  0  0  0  0
   26.9077   13.7249   23.4404 C   0  0  0  0  0  0  0  0  0  0  0  0
   30.2783   11.2773   22.3920 C   0  0  0  0  0  0  0  0  0  0  0  0
   29.8822   13.4089   21.3371 C   0  0  0  0  0  0  0  0  0  0  0  0
   33.3562    7.5020   29.7099 C   0  0  0  0  0  0  0  0  0  0  0  0
   34.5223   10.0835   29.5696 C   0  0  0  0  0  0  0  0  0  0  0  0
   29.3085    9.7798   16.6382 C   0  0  0  0  0  0  0  0  0  0  0  0
   31.5410   10.6448   18.0530 C   0  0  0  0  0  0  0  0  0  0  0  0
   26.2992   10.6384   28.0459 C   0  0  0  0  0  0  0  0  0  0  0  0
   25.5463   14.3214   23.8062 C   0  0  0  0  0  0  0  0  0  0  0  0
   34.6363    7.7466   30.2210 C   0  0  0  0  0  0  0  0  0  0  0  0
   30.5782    9.6531   16.0750 C   0  0  0  0  0  0  0  0  0  0  0  0
   31.6946   10.0827   16.7841 C   0  0  0  0  0  0  0  0  0  0  0  0
   35.2136    9.0154   30.1527 C   0  0  0  0  0  0  0  0  0  0  0  0
   25.6486   15.4493   24.8234 C   0  0  0  0  0  0  0  0  0  0  0  0
   31.2450   11.6278   26.0168 H   0  0  0  0  0  0  0  0  0  0  0  0
   28.6875    9.8091   28.9722 H   0  0  0  0  0  0  0  0  0  0  0  0
   30.9061   13.2221   24.3754 H   0  0  0  0  0  0  0  0  0  0  0  0
   29.7426   14.3907   23.7755 H   0  0  0  0  0  0  0  0  0  0  0  0
   29.8263   13.4076   19.1883 H   0  0  0  0  0  0  0  0  0  0  0  0
   30.5289    9.5986   21.0746 H   0  0  0  0  0  0  0  0  0  0  0  0
   29.8110    7.5895   29.0753 H   0  0  0  0  0  0  0  0  0  0  0  0
   31.0866    6.6962   28.1952 H   0  0  0  0  0  0  0  0  0  0  0  0
   30.0358    7.8091   27.3037 H   0  0  0  0  0  0  0  0  0  0  0  0
   26.0053   10.6365   18.0397 H   0  0  0  0  0  0  0  0  0  0  0  0
   27.5642   14.5336   23.1053 H   0  0  0  0  0  0  0  0  0  0  0  0
   26.7724   13.0445   22.5915 H   0  0  0  0  0  0  0  0  0  0  0  0
   30.4010   10.6590   23.2789 H   0  0  0  0  0  0  0  0  0  0  0  0
   29.7013   14.4804   21.3888 H   0  0  0  0  0  0  0  0  0  0  0  0
   32.9158    6.5129   29.7673 H   0  0  0  0  0  0  0  0  0  0  0  0
   34.9615   11.0733   29.5135 H   0  0  0  0  0  0  0  0  0  0  0  0
   28.4447    9.4288   16.0766 H   0  0  0  0  0  0  0  0  0  0  0  0
   32.4268   10.9836   18.5890 H   0  0  0  0  0  0  0  0  0  0  0  0
   25.5096   11.2016   27.5388 H   0  0  0  0  0  0  0  0  0  0  0  0
   26.2814   10.9151   29.1047 H   0  0  0  0  0  0  0  0  0  0  0  0
   26.0717    9.5722   27.9514 H   0  0  0  0  0  0  0  0  0  0  0  0
   24.8725   13.5456   24.1867 H   0  0  0  0  0  0  0  0  0  0  0  0
   25.0855   14.7195   22.8946 H   0  0  0  0  0  0  0  0  0  0  0  0
   35.1914    6.9313   30.6800 H   0  0  0  0  0  0  0  0  0  0  0  0
   30.6939    9.2155   15.0864 H   0  0  0  0  0  0  0  0  0  0  0  0
   32.6873    9.9845   16.3508 H   0  0  0  0  0  0  0  0  0  0  0  0
   36.2095    9.1787   30.5567 H   0  0  0  0  0  0  0  0  0  0  0  0
   24.6575   15.8745   25.0139 H   0  0  0  0  0  0  0  0  0  0  0  0
   26.0486   15.0951   25.7783 H   0  0  0  0  0  0  0  0  0  0  0  0
   26.2964   16.2508   24.4542 H   0  0  0  0  0  0  0  0  0  0  0  0
  2  6  1  0
  3  8  1  0
  4  1  2  0
  5  1  1  0
  6 12  2  0
  7  2  1  0
  8 14  2  0
  9  1  1  0
 10  5  1  0
 11  4  1  0
 12  9  1  0
 13 15  2  0
 14 17  1  0
 15 19  1  0
 16 13  1  0
 17  9  2  0
 18  2  1  0
 19 21  2  0
 20 16  2  0
 21 28  1  0
 22 27  2  0
 23 18  1  0
 24  5  1  0
 25 16  1  0
 26  7  1  0
 27 23  1  0
 28 23  2  0
 29 10  2  0
 30 11  2  0
 31 13  1  0
 32 15  1  0
 33 14  1  0
 34 26  1  0
 35 29  1  0
 36 37  1  0
 37 32  2  0
 38 30  1  0
 39 34  1  0
 10 11  1  0
  8  6  1  0
 35 38  2  0
  3  7  2  0
 19 22  1  0
 36 31  2  0
 12 40  1  0
 17 41  1  0
 18 42  1  0
 18 43  1  0
 21 44  1  0
 22 45  1  0
 24 46  1  0
 24 47  1  0
 24 48  1  0
 25 49  1  0
 26 50  1  0
 26 51  1  0
 27 52  1  0
 28 53  1  0
 29 54  1  0
 30 55  1  0
 31 56  1  0
 32 57  1  0
 33 58  1  0
 33 59  1  0
 33 60  1  0
 34 61  1  0
 34 62  1  0
 35 63  1  0
 36 64  1  0
 37 65  1  0
 38 66  1  0
 39 67  1  0
 39 68  1  0
 39 69  1  0
M  END
> <Uni-Dock RESULT> 
ENERGY=   -4.076  LOWER_BOUND=    4.519  UPPER_BOUND=   10.499
INTER + INTRA:          -4.076
INTER:                  -4.076
INTRA:                   0.000
UNBOUND:                 0.000

$$$$
