
     RDKit          3D

 69 74  0  0  0  0  0  0  0  0999 V2000
   27.7261   12.0462   21.6120 C   0  0  0  0  0  0  0  0  0  0  0  0
   26.0915   14.5573   25.6526 N   0  0  0  0  0  0  0  0  0  0  0  0
   24.4500   15.5483   24.5414 N   0  0  0  0  0  0  0  0  0  0  0  0
   27.3035   10.9598   20.9921 N   0  0  0  0  0  0  0  0  0  0  0  0
   29.0892   12.1941   21.4417 N   0  0  0  0  0  0  0  0  0  0  0  0
   26.1978   14.1092   24.3511 C   0  0  0  0  0  0  0  0  0  0  0  0
   25.0232   15.4305   25.7219 C   0  0  0  0  0  0  0  0  0  0  0  0
   25.1395   14.7244   23.6898 C   0  0  0  0  0  0  0  0  0  0  0  0
   26.8600   12.9701   22.3454 C   0  0  0  0  0  0  0  0  0  0  0  0
   29.5587   11.1139   20.7292 C   0  0  0  0  0  0  0  0  0  0  0  0
   28.4178   10.3655   20.4612 C   0  0  0  0  0  0  0  0  0  0  0  0
   27.0813   13.2305   23.7069 C   0  0  0  0  0  0  0  0  0  0  0  0
   25.4828    9.1115   30.8345 C   0  0  0  0  0  0  0  0  0  0  0  0
   24.9023   14.4578   22.3274 C   0  0  0  0  0  0  0  0  0  0  0  0
   24.7773   10.2322   30.3525 C   0  0  0  0  0  0  0  0  0  0  0  0
   26.9082    8.8604   30.5335 C   0  0  0  0  0  0  0  0  0  0  0  0
   25.7786   13.5627   21.6803 C   0  0  0  0  0  0  0  0  0  0  0  0
   26.9936   14.2131   26.7440 C   0  0  0  0  0  0  0  0  0  0  0  0
   25.3587   11.2280   29.4426 C   0  0  0  0  0  0  0  0  0  0  0  0
   27.3930    7.7846   30.2313 O   0  0  0  0  0  0  0  0  0  0  0  0
   25.4980   10.9531   28.0754 C   0  0  0  0  0  0  0  0  0  0  0  0
   25.7636   12.4842   29.9144 C   0  0  0  0  0  0  0  0  0  0  0  0
   26.4173   13.1706   27.6722 C   0  0  0  0  0  0  0  0  0  0  0  0
   29.8898   13.3071   21.8963 C   0  0  0  0  0  0  0  0  0  0  0  0
   27.6754    9.9411   30.7546 O   0  0  0  0  0  0  0  0  0  0  0  0
   24.6075   16.1454   26.9712 C   0  0  0  0  0  0  0  0  0  0  0  0
   26.2947   13.4402   29.0432 C   0  0  0  0  0  0  0  0  0  0  0  0
   26.0224   11.9103   27.2012 C   0  0  0  0  0  0  0  0  0  0  0  0
   30.8334   10.7249   20.2962 C   0  0  0  0  0  0  0  0  0  0  0  0
   28.5274    9.1735   19.7302 C   0  0  0  0  0  0  0  0  0  0  0  0
   24.8414    8.1522   31.6358 C   0  0  0  0  0  0  0  0  0  0  0  0
   23.4276   10.3721   30.7314 C   0  0  0  0  0  0  0  0  0  0  0  0
   23.7616   15.0589   21.5609 C   0  0  0  0  0  0  0  0  0  0  0  0
   23.2561   16.8555   26.8559 C   0  0  0  0  0  0  0  0  0  0  0  0
   30.9243    9.5314   19.5693 C   0  0  0  0  0  0  0  0  0  0  0  0
   23.5042    8.3137   31.9945 C   0  0  0  0  0  0  0  0  0  0  0  0
   22.7990    9.4268   31.5464 C   0  0  0  0  0  0  0  0  0  0  0  0
   29.7919    8.7654   19.2888 C   0  0  0  0  0  0  0  0  0  0  0  0
   22.0772   15.8909   26.8036 C   0  0  0  0  0  0  0  0  0  0  0  0
   27.8854   12.7392   24.2436 H   0  0  0  0  0  0  0  0  0  0  0  0
   25.6076   13.3191   20.6313 H   0  0  0  0  0  0  0  0  0  0  0  0
   27.2223   15.1437   27.2761 H   0  0  0  0  0  0  0  0  0  0  0  0
   27.9384   13.8533   26.3233 H   0  0  0  0  0  0  0  0  0  0  0  0
   25.1856    9.9891   27.6768 H   0  0  0  0  0  0  0  0  0  0  0  0
   25.6745   12.7209   30.9734 H   0  0  0  0  0  0  0  0  0  0  0  0
   30.1953   13.1097   22.9271 H   0  0  0  0  0  0  0  0  0  0  0  0
   30.7700   13.4117   21.2576 H   0  0  0  0  0  0  0  0  0  0  0  0
   29.3056   14.2295   21.8365 H   0  0  0  0  0  0  0  0  0  0  0  0
   28.5836    9.6340   30.5552 H   0  0  0  0  0  0  0  0  0  0  0  0
   25.3740   16.8948   27.2057 H   0  0  0  0  0  0  0  0  0  0  0  0
   24.5669   15.4467   27.8128 H   0  0  0  0  0  0  0  0  0  0  0  0
   26.6029   14.4010   29.4511 H   0  0  0  0  0  0  0  0  0  0  0  0
   26.1047   11.6573   26.1455 H   0  0  0  0  0  0  0  0  0  0  0  0
   31.7189   11.3137   20.5088 H   0  0  0  0  0  0  0  0  0  0  0  0
   27.6416    8.5859   19.5191 H   0  0  0  0  0  0  0  0  0  0  0  0
   25.3922    7.2816   31.9871 H   0  0  0  0  0  0  0  0  0  0  0  0
   22.8489   11.2229   30.3738 H   0  0  0  0  0  0  0  0  0  0  0  0
   23.1920   15.7623   22.1763 H   0  0  0  0  0  0  0  0  0  0  0  0
   23.0781   14.2728   21.2251 H   0  0  0  0  0  0  0  0  0  0  0  0
   24.1374   15.6017   20.6881 H   0  0  0  0  0  0  0  0  0  0  0  0
   23.2361   17.5086   25.9754 H   0  0  0  0  0  0  0  0  0  0  0  0
   23.1291   17.5016   27.7330 H   0  0  0  0  0  0  0  0  0  0  0  0
   31.8978    9.1941   19.2163 H   0  0  0  0  0  0  0  0  0  0  0  0
   23.0136    7.5715   32.6193 H   0  0  0  0  0  0  0  0  0  0  0  0
   21.7547    9.5587   31.8190 H   0  0  0  0  0  0  0  0  0  0  0  0
   29.8876    7.8427   18.7220 H   0  0  0  0  0  0  0  0  0  0  0  0
   22.1110   15.2561   25.9134 H   0  0  0  0  0  0  0  0  0  0  0  0
   21.1358   16.4493   26.7788 H   0  0  0  0  0  0  0  0  0  0  0  0
   22.0623   15.2428   27.6863 H   0  0  0  0  0  0  0  0  0  0  0  0
  2  6  1  0
  3  8  1  0
  4  1  2  0
  5  1  1  0
  6 12  2  0
  7  2  1  0
  8 14  2  0
  9  1  1  0
 10  5  1  0
 11  4  1  0
 12  9  1  0
 13 15  2  0
 14 17  1  0
 15 19  1  0
 16 13  1  0
 17  9  2  0
 18  2  1  0
 19 21  2  0
 20 16  2  0
 21 28  1  0
 22 27  2  0
 23 18  1  0
 24  5  1  0
 25 16  1  0
 26  7  1  0
 27 23  1  0
 28 23  2  0
 29 10  2  0
 30 11  2  0
 31 13  1  0
 32 15  1  0
 33 14  1  0
 34 26  1  0
 35 29  1  0
 36 37  1  0
 37 32  2  0
 38 30  1  0
 39 34  1  0
 10 11  1  0
  8  6  1  0
 35 38  2  0
  3  7  2  0
 19 22  1  0
 36 31  2  0
 12 40  1  0
 17 41  1  0
 18 42  1  0
 18 43  1  0
 21 44  1  0
 22 45  1  0
 24 46  1  0
 24 47  1  0
 24 48  1  0
 25 49  1  0
 26 50  1  0
 26 51  1  0
 27 52  1  0
 28 53  1  0
 29 54  1  0
 30 55  1  0
 31 56  1  0
 32 57  1  0
 33 58  1  0
 33 59  1  0
 33 60  1  0
 34 61  1  0
 34 62  1  0
 35 63  1  0
 36 64  1  0
 37 65  1  0
 38 66  1  0
 39 67  1  0
 39 68  1  0
 39 69  1  0
M  END
> <Uni-Dock RESULT> 
ENERGY=   -4.465  LOWER_BOUND=    0.000  UPPER_BOUND=    0.000
INTER + INTRA:          -4.465
INTER:                  -4.465
INTRA:                   0.000
UNBOUND:                 0.000

$$$$

     RDKit          3D

 69 74  0  0  0  0  0  0  0  0999 V2000
   27.7255   12.0455   21.6077 C   0  0  0  0  0  0  0  0  0  0  0  0
   26.0897   14.5576   25.6472 N   0  0  0  0  0  0  0  0  0  0  0  0
   24.4465   15.5458   24.5360 N   0  0  0  0  0  0  0  0  0  0  0  0
   27.3040   10.9582   20.9887 N   0  0  0  0  0  0  0  0  0  0  0  0
   29.0883   12.1950   21.4366 N   0  0  0  0  0  0  0  0  0  0  0  0
   26.1960   14.1087   24.3459 C   0  0  0  0  0  0  0  0  0  0  0  0
   25.0204   15.4296   25.7163 C   0  0  0  0  0  0  0  0  0  0  0  0
   25.1366   14.7221   23.6847 C   0  0  0  0  0  0  0  0  0  0  0  0
   26.8586   12.9690   22.3407 C   0  0  0  0  0  0  0  0  0  0  0  0
   29.5588   11.1149   20.7247 C   0  0  0  0  0  0  0  0  0  0  0  0
   28.4187   10.3649   20.4577 C   0  0  0  0  0  0  0  0  0  0  0  0
   27.0803   13.2306   23.7020 C   0  0  0  0  0  0  0  0  0  0  0  0
   25.4899    9.1148   30.8333 C   0  0  0  0  0  0  0  0  0  0  0  0
   24.8991   14.4543   22.3226 C   0  0  0  0  0  0  0  0  0  0  0  0
   24.7828   10.2343   30.3508 C   0  0  0  0  0  0  0  0  0  0  0  0
   26.9155    8.8652   30.5319 C   0  0  0  0  0  0  0  0  0  0  0  0
   25.7762   13.5597   21.6758 C   0  0  0  0  0  0  0  0  0  0  0  0
   26.9927   14.2152   26.7384 C   0  0  0  0  0  0  0  0  0  0  0  0
   25.3627   11.2302   29.4399 C   0  0  0  0  0  0  0  0  0  0  0  0
   27.4015    7.7897   30.2302 O   0  0  0  0  0  0  0  0  0  0  0  0
   25.5017   10.9544   28.0728 C   0  0  0  0  0  0  0  0  0  0  0  0
   25.7663   12.4871   29.9106 C   0  0  0  0  0  0  0  0  0  0  0  0
   26.4181   13.1728   27.6677 C   0  0  0  0  0  0  0  0  0  0  0  0
   29.8878   13.3093   21.8900 C   0  0  0  0  0  0  0  0  0  0  0  0
   27.6814    9.9470   30.7518 O   0  0  0  0  0  0  0  0  0  0  0  0
   24.6044   16.1448   26.9653 C   0  0  0  0  0  0  0  0  0  0  0  0
   26.2957   13.4432   29.0385 C   0  0  0  0  0  0  0  0  0  0  0  0
   26.0245   11.9116   27.1977 C   0  0  0  0  0  0  0  0  0  0  0  0
   30.8338   10.7271   20.2914 C   0  0  0  0  0  0  0  0  0  0  0  0
   28.5294    9.1725   19.7276 C   0  0  0  0  0  0  0  0  0  0  0  0
   24.8500    8.1553   31.6356 C   0  0  0  0  0  0  0  0  0  0  0  0
   23.4331   10.3728   30.7302 C   0  0  0  0  0  0  0  0  0  0  0  0
   23.7574   15.0534   21.5562 C   0  0  0  0  0  0  0  0  0  0  0  0
   23.2520   16.8532   26.8501 C   0  0  0  0  0  0  0  0  0  0  0  0
   30.9258    9.5331   19.5653 C   0  0  0  0  0  0  0  0  0  0  0  0
   23.5128    8.3154   31.9948 C   0  0  0  0  0  0  0  0  0  0  0  0
   22.8061    9.4274   31.5462 C   0  0  0  0  0  0  0  0  0  0  0  0
   29.7942    8.7655   19.2859 C   0  0  0  0  0  0  0  0  0  0  0  0
   22.0743   15.8871   26.7991 C   0  0  0  0  0  0  0  0  0  0  0  0
   27.8852   12.7406   24.2387 H   0  0  0  0  0  0  0  0  0  0  0  0
   25.6050   13.3152   20.6270 H   0  0  0  0  0  0  0  0  0  0  0  0
   27.2205   15.1465   27.2697 H   0  0  0  0  0  0  0  0  0  0  0  0
   27.9378   13.8563   26.3176 H   0  0  0  0  0  0  0  0  0  0  0  0
   25.1902    9.9897   27.6750 H   0  0  0  0  0  0  0  0  0  0  0  0
   25.6773   12.7245   30.9695 H   0  0  0  0  0  0  0  0  0  0  0  0
   30.1940   13.1130   22.9209 H   0  0  0  0  0  0  0  0  0  0  0  0
   30.7676   13.4144   21.2509 H   0  0  0  0  0  0  0  0  0  0  0  0
   29.3024   14.2309   21.8298 H   0  0  0  0  0  0  0  0  0  0  0  0
   28.5899    9.6408   30.5522 H   0  0  0  0  0  0  0  0  0  0  0  0
   25.3701   16.8953   27.1989 H   0  0  0  0  0  0  0  0  0  0  0  0
   24.5650   15.4467   27.8074 H   0  0  0  0  0  0  0  0  0  0  0  0
   26.6030   14.4046   29.4455 H   0  0  0  0  0  0  0  0  0  0  0  0
   26.1066   11.6580   26.1421 H   0  0  0  0  0  0  0  0  0  0  0  0
   31.7187   11.3171   20.5032 H   0  0  0  0  0  0  0  0  0  0  0  0
   27.6443    8.5836   19.5172 H   0  0  0  0  0  0  0  0  0  0  0  0
   25.4020    7.2856   31.9872 H   0  0  0  0  0  0  0  0  0  0  0  0
   22.8532   11.2227   30.3723 H   0  0  0  0  0  0  0  0  0  0  0  0
   23.1872   15.7566   22.1714 H   0  0  0  0  0  0  0  0  0  0  0  0
   23.0746   14.2663   21.2213 H   0  0  0  0  0  0  0  0  0  0  0  0
   24.1321   15.5961   20.6828 H   0  0  0  0  0  0  0  0  0  0  0  0
   23.2309   17.5057   25.9692 H   0  0  0  0  0  0  0  0  0  0  0  0
   23.1246   17.4998   27.7268 H   0  0  0  0  0  0  0  0  0  0  0  0
   31.8996    9.1968   19.2122 H   0  0  0  0  0  0  0  0  0  0  0  0
   23.0233    7.5731   32.6203 H   0  0  0  0  0  0  0  0  0  0  0  0
   21.7617    9.5582   31.8192 H   0  0  0  0  0  0  0  0  0  0  0  0
   29.8907    7.8425   18.7197 H   0  0  0  0  0  0  0  0  0  0  0  0
   22.1084   15.2518   25.9093 H   0  0  0  0  0  0  0  0  0  0  0  0
   21.1323   16.4445   26.7743 H   0  0  0  0  0  0  0  0  0  0  0  0
   22.0605   15.2397   27.6822 H   0  0  0  0  0  0  0  0  0  0  0  0
  2  6  1  0
  3  8  1  0
  4  1  2  0
  5  1  1  0
  6 12  2  0
  7  2  1  0
  8 14  2  0
  9  1  1  0
 10  5  1  0
 11  4  1  0
 12  9  1  0
 13 15  2  0
 14 17  1  0
 15 19  1  0
 16 13  1  0
 17  9  2  0
 18  2  1  0
 19 21  2  0
 20 16  2  0
 21 28  1  0
 22 27  2  0
 23 18  1  0
 24  5  1  0
 25 16  1  0
 26  7  1  0
 27 23  1  0
 28 23  2  0
 29 10  2  0
 30 11  2  0
 31 13  1  0
 32 15  1  0
 33 14  1  0
 34 26  1  0
 35 29  1  0
 36 37  1  0
 37 32  2  0
 38 30  1  0
 39 34  1  0
 10 11  1  0
  8  6  1  0
 35 38  2  0
  3  7  2  0
 19 22  1  0
 36 31  2  0
 12 40  1  0
 17 41  1  0
 18 42  1  0
 18 43  1  0
 21 44  1  0
 22 45  1  0
 24 46  1  0
 24 47  1  0
 24 48  1  0
 25 49  1  0
 26 50  1  0
 26 51  1  0
 27 52  1  0
 28 53  1  0
 29 54  1  0
 30 55  1  0
 31 56  1  0
 32 57  1  0
 33 58  1  0
 33 59  1  0
 33 60  1  0
 34 61  1  0
 34 62  1  0
 35 63  1  0
 36 64  1  0
 37 65  1  0
 38 66  1  0
 39 67  1  0
 39 68  1  0
 39 69  1  0
M  END
> <Uni-Dock RESULT> 
ENERGY=   -4.464  LOWER_BOUND=    0.006  UPPER_BOUND=    0.006
INTER + INTRA:          -4.464
INTER:                  -4.464
INTRA:                   0.000
UNBOUND:                 0.000

$$$$

     RDKit          3D

 69 74  0  0  0  0  0  0  0  0999 V2000
   27.2017   13.0666   23.0197 C   0  0  0  0  0  0  0  0  0  0  0  0
   25.2657   14.8600   27.3021 N   0  0  0  0  0  0  0  0  0  0  0  0
   24.0965   16.4362   26.2726 N   0  0  0  0  0  0  0  0  0  0  0  0
   26.7225   12.2848   22.0697 N   0  0  0  0  0  0  0  0  0  0  0  0
   28.5743   12.9323   23.1022 N   0  0  0  0  0  0  0  0  0  0  0  0
   25.5516   14.7198   25.9587 C   0  0  0  0  0  0  0  0  0  0  0  0
   24.3848   15.9143   27.4475 C   0  0  0  0  0  0  0  0  0  0  0  0
   24.7820   15.7005   25.3408 C   0  0  0  0  0  0  0  0  0  0  0  0
   26.3889   13.9653   23.8401 C   0  0  0  0  0  0  0  0  0  0  0  0
   28.9730   11.9725   22.1995 C   0  0  0  0  0  0  0  0  0  0  0  0
   27.7933   11.5923   21.5691 C   0  0  0  0  0  0  0  0  0  0  0  0
   26.3713   13.8387   25.2380 C   0  0  0  0  0  0  0  0  0  0  0  0
   22.6214    8.6362   30.6413 C   0  0  0  0  0  0  0  0  0  0  0  0
   24.7834   15.8252   23.9380 C   0  0  0  0  0  0  0  0  0  0  0  0
   22.2473    9.9706   30.3852 C   0  0  0  0  0  0  0  0  0  0  0  0
   24.0072    8.1417   30.4998 C   0  0  0  0  0  0  0  0  0  0  0  0
   25.5938   14.9310   23.2090 C   0  0  0  0  0  0  0  0  0  0  0  0
   25.8468   14.0695   28.3795 C   0  0  0  0  0  0  0  0  0  0  0  0
   23.1752   10.9914   29.8806 C   0  0  0  0  0  0  0  0  0  0  0  0
   24.3376    7.0856   29.9902 O   0  0  0  0  0  0  0  0  0  0  0  0
   23.5380   11.0225   28.5272 C   0  0  0  0  0  0  0  0  0  0  0  0
   23.6989   11.9725   30.7336 C   0  0  0  0  0  0  0  0  0  0  0  0
   24.9116   12.9991   28.8894 C   0  0  0  0  0  0  0  0  0  0  0  0
   29.4557   13.6911   23.9588 C   0  0  0  0  0  0  0  0  0  0  0  0
   24.8982    8.9328   31.1207 O   0  0  0  0  0  0  0  0  0  0  0  0
   23.8611   16.3900   28.7681 C   0  0  0  0  0  0  0  0  0  0  0  0
   24.5631   12.9582   30.2474 C   0  0  0  0  0  0  0  0  0  0  0  0
   24.3966   12.0116   28.0374 C   0  0  0  0  0  0  0  0  0  0  0  0
   30.2157   11.4137   21.8721 C   0  0  0  0  0  0  0  0  0  0  0  0
   27.8290   10.6144   20.5644 C   0  0  0  0  0  0  0  0  0  0  0  0
   21.6647    7.6893   31.0438 C   0  0  0  0  0  0  0  0  0  0  0  0
   20.8978   10.3243   30.5816 C   0  0  0  0  0  0  0  0  0  0  0  0
   23.9537   16.8365   23.2040 C   0  0  0  0  0  0  0  0  0  0  0  0
   22.7156   17.3990   28.6512 C   0  0  0  0  0  0  0  0  0  0  0  0
   30.2323   10.4377   20.8679 C   0  0  0  0  0  0  0  0  0  0  0  0
   20.3353    8.0653   31.2289 C   0  0  0  0  0  0  0  0  0  0  0  0
   19.9533    9.3844   31.0028 C   0  0  0  0  0  0  0  0  0  0  0  0
   29.0601   10.0418   20.2222 C   0  0  0  0  0  0  0  0  0  0  0  0
   21.4157   16.7725   28.1609 C   0  0  0  0  0  0  0  0  0  0  0  0
   26.9445   13.0628   25.7334 H   0  0  0  0  0  0  0  0  0  0  0  0
   25.5990   14.9881   22.1201 H   0  0  0  0  0  0  0  0  0  0  0  0
   26.1290   14.7697   29.1742 H   0  0  0  0  0  0  0  0  0  0  0  0
   26.7752   13.6114   28.0225 H   0  0  0  0  0  0  0  0  0  0  0  0
   23.1420   10.2786   27.8375 H   0  0  0  0  0  0  0  0  0  0  0  0
   23.4403   11.9665   31.7913 H   0  0  0  0  0  0  0  0  0  0  0  0
   29.5026   13.1909   24.9297 H   0  0  0  0  0  0  0  0  0  0  0  0
   30.4517   13.7377   23.5124 H   0  0  0  0  0  0  0  0  0  0  0  0
   29.0756   14.7106   24.0674 H   0  0  0  0  0  0  0  0  0  0  0  0
   25.7558    8.4806   30.9829 H   0  0  0  0  0  0  0  0  0  0  0  0
   24.6878   16.8654   29.3109 H   0  0  0  0  0  0  0  0  0  0  0  0
   23.5218   15.5411   29.3701 H   0  0  0  0  0  0  0  0  0  0  0  0
   24.9526   13.6979   30.9443 H   0  0  0  0  0  0  0  0  0  0  0  0
   24.6450   12.0031   26.9774 H   0  0  0  0  0  0  0  0  0  0  0  0
   31.1318   11.7152   22.3678 H   0  0  0  0  0  0  0  0  0  0  0  0
   26.9126   10.3136   20.0703 H   0  0  0  0  0  0  0  0  0  0  0  0
   21.9626    6.6576   31.2212 H   0  0  0  0  0  0  0  0  0  0  0  0
   20.5707   11.3453   30.3886 H   0  0  0  0  0  0  0  0  0  0  0  0
   23.4095   17.4865   23.8963 H   0  0  0  0  0  0  0  0  0  0  0  0
   23.2206   16.3313   22.5674 H   0  0  0  0  0  0  0  0  0  0  0  0
   24.5930   17.4684   22.5798 H   0  0  0  0  0  0  0  0  0  0  0  0
   22.9963   18.2280   27.9907 H   0  0  0  0  0  0  0  0  0  0  0  0
   22.5330   17.8312   29.6425 H   0  0  0  0  0  0  0  0  0  0  0  0
   31.1785    9.9782   20.5858 H   0  0  0  0  0  0  0  0  0  0  0  0
   19.5996    7.3303   31.5457 H   0  0  0  0  0  0  0  0  0  0  0  0
   18.9177    9.6853   31.1418 H   0  0  0  0  0  0  0  0  0  0  0  0
   29.0984    9.2825   19.4451 H   0  0  0  0  0  0  0  0  0  0  0  0
   21.5134   16.3757   27.1462 H   0  0  0  0  0  0  0  0  0  0  0  0
   20.6182   17.5225   28.1496 H   0  0  0  0  0  0  0  0  0  0  0  0
   21.1019   15.9558   28.8195 H   0  0  0  0  0  0  0  0  0  0  0  0
  2  6  1  0
  3  8  1  0
  4  1  2  0
  5  1  1  0
  6 12  2  0
  7  2  1  0
  8 14  2  0
  9  1  1  0
 10  5  1  0
 11  4  1  0
 12  9  1  0
 13 15  2  0
 14 17  1  0
 15 19  1  0
 16 13  1  0
 17  9  2  0
 18  2  1  0
 19 21  2  0
 20 16  2  0
 21 28  1  0
 22 27  2  0
 23 18  1  0
 24  5  1  0
 25 16  1  0
 26  7  1  0
 27 23  1  0
 28 23  2  0
 29 10  2  0
 30 11  2  0
 31 13  1  0
 32 15  1  0
 33 14  1  0
 34 26  1  0
 35 29  1  0
 36 37  1  0
 37 32  2  0
 38 30  1  0
 39 34  1  0
 10 11  1  0
  8  6  1  0
 35 38  2  0
  3  7  2  0
 19 22  1  0
 36 31  2  0
 12 40  1  0
 17 41  1  0
 18 42  1  0
 18 43  1  0
 21 44  1  0
 22 45  1  0
 24 46  1  0
 24 47  1  0
 24 48  1  0
 25 49  1  0
 26 50  1  0
 26 51  1  0
 27 52  1  0
 28 53  1  0
 29 54  1  0
 30 55  1  0
 31 56  1  0
 32 57  1  0
 33 58  1  0
 33 59  1  0
 33 60  1  0
 34 61  1  0
 34 62  1  0
 35 63  1  0
 36 64  1  0
 37 65  1  0
 38 66  1  0
 39 67  1  0
 39 68  1  0
 39 69  1  0
M  END
> <Uni-Dock RESULT> 
ENERGY=   -4.189  LOWER_BOUND=    1.686  UPPER_BOUND=    2.223
INTER + INTRA:          -4.189
INTER:                  -4.189
INTRA:                   0.000
UNBOUND:                 0.000

$$$$

     RDKit          3D

 69 74  0  0  0  0  0  0  0  0999 V2000
   31.1523   10.6109   27.9977 C   0  0  0  0  0  0  0  0  0  0  0  0
   28.2623    8.2519   31.3722 N   0  0  0  0  0  0  0  0  0  0  0  0
   26.3788    8.7818   30.3316 N   0  0  0  0  0  0  0  0  0  0  0  0
   31.5695   10.2923   26.7862 N   0  0  0  0  0  0  0  0  0  0  0  0
   32.0605   11.4529   28.6100 N   0  0  0  0  0  0  0  0  0  0  0  0
   28.6396    8.9997   30.2747 C   0  0  0  0  0  0  0  0  0  0  0  0
   26.8847    8.1490   31.3706 C   0  0  0  0  0  0  0  0  0  0  0  0
   27.4413    9.2896   29.6298 C   0  0  0  0  0  0  0  0  0  0  0  0
   29.8915   10.1557   28.5849 C   0  0  0  0  0  0  0  0  0  0  0  0
   33.1331   11.6251   27.7646 C   0  0  0  0  0  0  0  0  0  0  0  0
   32.7924   10.8907   26.6341 C   0  0  0  0  0  0  0  0  0  0  0  0
   29.8830    9.4228   29.7822 C   0  0  0  0  0  0  0  0  0  0  0  0
   31.4889    1.4504   31.8278 C   0  0  0  0  0  0  0  0  0  0  0  0
   27.4422   10.0124   28.4211 C   0  0  0  0  0  0  0  0  0  0  0  0
   30.2117    2.0403   31.7451 C   0  0  0  0  0  0  0  0  0  0  0  0
   32.7115    2.2089   32.1674 C   0  0  0  0  0  0  0  0  0  0  0  0
   28.6914   10.4258   27.9144 C   0  0  0  0  0  0  0  0  0  0  0  0
   29.1637    7.7210   32.3867 C   0  0  0  0  0  0  0  0  0  0  0  0
   29.9696    3.4793   31.9135 C   0  0  0  0  0  0  0  0  0  0  0  0
   33.7935    2.0977   31.6189 O   0  0  0  0  0  0  0  0  0  0  0  0
   30.2546    4.3790   30.8774 C   0  0  0  0  0  0  0  0  0  0  0  0
   29.4247    3.9830   33.1025 C   0  0  0  0  0  0  0  0  0  0  0  0
   29.4411    6.2473   32.2089 C   0  0  0  0  0  0  0  0  0  0  0  0
   31.9046   12.0820   29.9009 C   0  0  0  0  0  0  0  0  0  0  0  0
   32.5521    2.9721   33.2617 O   0  0  0  0  0  0  0  0  0  0  0  0
   26.0989    7.4302   32.4244 C   0  0  0  0  0  0  0  0  0  0  0  0
   29.1720    5.3500   33.2528 C   0  0  0  0  0  0  0  0  0  0  0  0
   29.9962    5.7456   31.0230 C   0  0  0  0  0  0  0  0  0  0  0  0
   34.3368   12.3355   27.8666 C   0  0  0  0  0  0  0  0  0  0  0  0
   33.6740   10.8482   25.5441 C   0  0  0  0  0  0  0  0  0  0  0  0
   31.6619    0.0795   31.5740 C   0  0  0  0  0  0  0  0  0  0  0  0
   29.1202    1.2044   31.4375 C   0  0  0  0  0  0  0  0  0  0  0  0
   26.1923   10.3314   27.6556 C   0  0  0  0  0  0  0  0  0  0  0  0
   24.6212    7.2410   32.0717 C   0  0  0  0  0  0  0  0  0  0  0  0
   35.2056   12.2805   26.7696 C   0  0  0  0  0  0  0  0  0  0  0  0
   30.5651   -0.7250   31.2697 C   0  0  0  0  0  0  0  0  0  0  0  0
   29.2933   -0.1629   31.2068 C   0  0  0  0  0  0  0  0  0  0  0  0
   34.8830   11.5498   25.6252 C   0  0  0  0  0  0  0  0  0  0  0  0
   24.3984    6.2228   30.9597 C   0  0  0  0  0  0  0  0  0  0  0  0
   30.8096    9.1657   30.2834 H   0  0  0  0  0  0  0  0  0  0  0  0
   28.7265   10.9680   26.9690 H   0  0  0  0  0  0  0  0  0  0  0  0
   28.7077    7.9303   33.3613 H   0  0  0  0  0  0  0  0  0  0  0  0
   30.1037    8.2818   32.3546 H   0  0  0  0  0  0  0  0  0  0  0  0
   30.6713    4.0178   29.9384 H   0  0  0  0  0  0  0  0  0  0  0  0
   29.2019    3.3072   33.9266 H   0  0  0  0  0  0  0  0  0  0  0  0
   32.2657   11.3883   30.6647 H   0  0  0  0  0  0  0  0  0  0  0  0
   32.4838   13.0078   29.9309 H   0  0  0  0  0  0  0  0  0  0  0  0
   30.8516   12.3253   30.0670 H   0  0  0  0  0  0  0  0  0  0  0  0
   33.4300    3.3848   33.3949 H   0  0  0  0  0  0  0  0  0  0  0  0
   26.1620    8.0123   33.3525 H   0  0  0  0  0  0  0  0  0  0  0  0
   26.5410    6.4491   32.6247 H   0  0  0  0  0  0  0  0  0  0  0  0
   28.7543    5.7010   34.1944 H   0  0  0  0  0  0  0  0  0  0  0  0
   30.2249    6.4074   30.1893 H   0  0  0  0  0  0  0  0  0  0  0  0
   34.5960   12.9064   28.7514 H   0  0  0  0  0  0  0  0  0  0  0  0
   33.4139   10.2767   24.6608 H   0  0  0  0  0  0  0  0  0  0  0  0
   32.6560   -0.3610   31.6233 H   0  0  0  0  0  0  0  0  0  0  0  0
   28.1187    1.6260   31.3599 H   0  0  0  0  0  0  0  0  0  0  0  0
   25.2990    9.9864   28.1857 H   0  0  0  0  0  0  0  0  0  0  0  0
   26.2151    9.8418   26.6769 H   0  0  0  0  0  0  0  0  0  0  0  0
   26.1030   11.4126   27.5117 H   0  0  0  0  0  0  0  0  0  0  0  0
   24.1649    8.1977   31.7911 H   0  0  0  0  0  0  0  0  0  0  0  0
   24.0944    6.8888   32.9668 H   0  0  0  0  0  0  0  0  0  0  0  0
   36.1518   12.8181   26.8106 H   0  0  0  0  0  0  0  0  0  0  0  0
   30.7031   -1.7864   31.0794 H   0  0  0  0  0  0  0  0  0  0  0  0
   28.4328   -0.7828   30.9670 H   0  0  0  0  0  0  0  0  0  0  0  0
   35.5735   11.5227   24.7859 H   0  0  0  0  0  0  0  0  0  0  0  0
   24.8485    6.5462   30.0166 H   0  0  0  0  0  0  0  0  0  0  0  0
   23.3262    6.0844   30.7866 H   0  0  0  0  0  0  0  0  0  0  0  0
   24.8254    5.2507   31.2277 H   0  0  0  0  0  0  0  0  0  0  0  0
  2  6  1  0
  3  8  1  0
  4  1  2  0
  5  1  1  0
  6 12  2  0
  7  2  1  0
  8 14  2  0
  9  1  1  0
 10  5  1  0
 11  4  1  0
 12  9  1  0
 13 15  2  0
 14 17  1  0
 15 19  1  0
 16 13  1  0
 17  9  2  0
 18  2  1  0
 19 21  2  0
 20 16  2  0
 21 28  1  0
 22 27  2  0
 23 18  1  0
 24  5  1  0
 25 16  1  0
 26  7  1  0
 27 23  1  0
 28 23  2  0
 29 10  2  0
 30 11  2  0
 31 13  1  0
 32 15  1  0
 33 14  1  0
 34 26  1  0
 35 29  1  0
 36 37  1  0
 37 32  2  0
 38 30  1  0
 39 34  1  0
 10 11  1  0
  8  6  1  0
 35 38  2  0
  3  7  2  0
 19 22  1  0
 36 31  2  0
 12 40  1  0
 17 41  1  0
 18 42  1  0
 18 43  1  0
 21 44  1  0
 22 45  1  0
 24 46  1  0
 24 47  1  0
 24 48  1  0
 25 49  1  0
 26 50  1  0
 26 51  1  0
 27 52  1  0
 28 53  1  0
 29 54  1  0
 30 55  1  0
 31 56  1  0
 32 57  1  0
 33 58  1  0
 33 59  1  0
 33 60  1  0
 34 61  1  0
 34 62  1  0
 35 63  1  0
 36 64  1  0
 37 65  1  0
 38 66  1  0
 39 67  1  0
 39 68  1  0
 39 69  1  0
M  END
> <Uni-Dock RESULT> 
ENERGY=   -4.068  LOWER_BOUND=    6.192  UPPER_BOUND=    9.021
INTER + INTRA:          -4.068
INTER:                  -4.068
INTRA:                   0.000
UNBOUND:                 0.000

$$$$

     RDKit          3D

 69 74  0  0  0  0  0  0  0  0999 V2000
   23.1829    7.8577   30.4732 C   0  0  0  0  0  0  0  0  0  0  0  0
   23.2706    3.2271   32.4363 N   0  0  0  0  0  0  0  0  0  0  0  0
   21.7536    2.4506   31.0197 N   0  0  0  0  0  0  0  0  0  0  0  0
   23.7197    8.3899   29.3907 N   0  0  0  0  0  0  0  0  0  0  0  0
   23.0290    8.8197   31.4529 N   0  0  0  0  0  0  0  0  0  0  0  0
   22.9234    4.2979   31.6370 C   0  0  0  0  0  0  0  0  0  0  0  0
   22.5347    2.1304   32.0312 C   0  0  0  0  0  0  0  0  0  0  0  0
   21.9958    3.7714   30.7436 C   0  0  0  0  0  0  0  0  0  0  0  0
   22.7838    6.4551   30.5949 C   0  0  0  0  0  0  0  0  0  0  0  0
   23.5509   10.0046   30.9854 C   0  0  0  0  0  0  0  0  0  0  0  0
   23.9695    9.7022   29.6943 C   0  0  0  0  0  0  0  0  0  0  0  0
   23.3354    5.6381   31.5943 C   0  0  0  0  0  0  0  0  0  0  0  0
   30.6429    1.6439   32.5788 C   0  0  0  0  0  0  0  0  0  0  0  0
   21.4480    4.5807   29.7295 C   0  0  0  0  0  0  0  0  0  0  0  0
   29.4121    1.0434   32.2465 C   0  0  0  0  0  0  0  0  0  0  0  0
   30.7504    2.8851   33.3745 C   0  0  0  0  0  0  0  0  0  0  0  0
   21.8718    5.9243   29.6733 C   0  0  0  0  0  0  0  0  0  0  0  0
   24.2054    3.2712   33.5533 C   0  0  0  0  0  0  0  0  0  0  0  0
   28.1069    1.6234   32.5896 C   0  0  0  0  0  0  0  0  0  0  0  0
   31.4976    3.8183   33.1402 O   0  0  0  0  0  0  0  0  0  0  0  0
   27.5810    2.6907   31.8489 C   0  0  0  0  0  0  0  0  0  0  0  0
   27.3459    1.1076   33.6476 C   0  0  0  0  0  0  0  0  0  0  0  0
   25.5597    2.7011   33.2052 C   0  0  0  0  0  0  0  0  0  0  0  0
   22.3958    8.6350   32.7379 C   0  0  0  0  0  0  0  0  0  0  0  0
   30.0125    2.8386   34.4964 O   0  0  0  0  0  0  0  0  0  0  0  0
   22.6171    0.7825   32.6801 C   0  0  0  0  0  0  0  0  0  0  0  0
   26.0929    1.6446   33.9581 C   0  0  0  0  0  0  0  0  0  0  0  0
   26.3250    3.2248   32.1533 C   0  0  0  0  0  0  0  0  0  0  0  0
   23.6923   11.2825   31.5430 C   0  0  0  0  0  0  0  0  0  0  0  0
   24.5571   10.7015   28.9048 C   0  0  0  0  0  0  0  0  0  0  0  0
   31.8547    1.0785   32.1476 C   0  0  0  0  0  0  0  0  0  0  0  0
   29.4438   -0.1536   31.5042 C   0  0  0  0  0  0  0  0  0  0  0  0
   20.4698    4.0715   28.7129 C   0  0  0  0  0  0  0  0  0  0  0  0
   21.9007   -0.3233   31.9002 C   0  0  0  0  0  0  0  0  0  0  0  0
   24.2825   12.2673   30.7411 C   0  0  0  0  0  0  0  0  0  0  0  0
   31.8579   -0.1057   31.4124 C   0  0  0  0  0  0  0  0  0  0  0  0
   30.6521   -0.7244   31.0955 C   0  0  0  0  0  0  0  0  0  0  0  0
   24.7092   11.9853   29.4426 C   0  0  0  0  0  0  0  0  0  0  0  0
   22.6170   -0.7041   30.6100 C   0  0  0  0  0  0  0  0  0  0  0  0
   24.0791    6.0257   32.2818 H   0  0  0  0  0  0  0  0  0  0  0  0
   21.4823    6.5701   28.8857 H   0  0  0  0  0  0  0  0  0  0  0  0
   23.7398    2.7256   34.3822 H   0  0  0  0  0  0  0  0  0  0  0  0
   24.3140    4.3093   33.8844 H   0  0  0  0  0  0  0  0  0  0  0  0
   28.1445    3.1086   31.0161 H   0  0  0  0  0  0  0  0  0  0  0  0
   27.7345    0.2842   34.2447 H   0  0  0  0  0  0  0  0  0  0  0  0
   23.1472    8.2616   33.4386 H   0  0  0  0  0  0  0  0  0  0  0  0
   21.9949    9.5881   33.0905 H   0  0  0  0  0  0  0  0  0  0  0  0
   21.5700    7.9246   32.6425 H   0  0  0  0  0  0  0  0  0  0  0  0
   30.1989    3.6915   34.9401 H   0  0  0  0  0  0  0  0  0  0  0  0
   22.1615    0.8555   33.6757 H   0  0  0  0  0  0  0  0  0  0  0  0
   23.6630    0.4923   32.8210 H   0  0  0  0  0  0  0  0  0  0  0  0
   25.5370    1.2193   34.7914 H   0  0  0  0  0  0  0  0  0  0  0  0
   25.9515    4.0478   31.5463 H   0  0  0  0  0  0  0  0  0  0  0  0
   23.3634   11.5113   32.5507 H   0  0  0  0  0  0  0  0  0  0  0  0
   24.8859   10.4713   27.8982 H   0  0  0  0  0  0  0  0  0  0  0  0
   32.7981    1.5615   32.3954 H   0  0  0  0  0  0  0  0  0  0  0  0
   28.5119   -0.6435   31.2244 H   0  0  0  0  0  0  0  0  0  0  0  0
   20.2019    3.0274   28.9028 H   0  0  0  0  0  0  0  0  0  0  0  0
   20.9033    4.1324   27.7097 H   0  0  0  0  0  0  0  0  0  0  0  0
   19.5514    4.6660   28.7413 H   0  0  0  0  0  0  0  0  0  0  0  0
   20.8681   -0.0311   31.6752 H   0  0  0  0  0  0  0  0  0  0  0  0
   21.8465   -1.2152   32.5360 H   0  0  0  0  0  0  0  0  0  0  0  0
   24.4115   13.2729   31.1389 H   0  0  0  0  0  0  0  0  0  0  0  0
   32.7983   -0.5423   31.0856 H   0  0  0  0  0  0  0  0  0  0  0  0
   30.6455   -1.6467   30.5197 H   0  0  0  0  0  0  0  0  0  0  0  0
   25.1640   12.7668   28.8390 H   0  0  0  0  0  0  0  0  0  0  0  0
   22.6500    0.1295   29.9025 H   0  0  0  0  0  0  0  0  0  0  0  0
   22.0959   -1.5343   30.1222 H   0  0  0  0  0  0  0  0  0  0  0  0
   23.6450   -1.0229   30.8123 H   0  0  0  0  0  0  0  0  0  0  0  0
  2  6  1  0
  3  8  1  0
  4  1  2  0
  5  1  1  0
  6 12  2  0
  7  2  1  0
  8 14  2  0
  9  1  1  0
 10  5  1  0
 11  4  1  0
 12  9  1  0
 13 15  2  0
 14 17  1  0
 15 19  1  0
 16 13  1  0
 17  9  2  0
 18  2  1  0
 19 21  2  0
 20 16  2  0
 21 28  1  0
 22 27  2  0
 23 18  1  0
 24  5  1  0
 25 16  1  0
 26  7  1  0
 27 23  1  0
 28 23  2  0
 29 10  2  0
 30 11  2  0
 31 13  1  0
 32 15  1  0
 33 14  1  0
 34 26  1  0
 35 29  1  0
 36 37  1  0
 37 32  2  0
 38 30  1  0
 39 34  1  0
 10 11  1  0
  8  6  1  0
 35 38  2  0
  3  7  2  0
 19 22  1  0
 36 31  2  0
 12 40  1  0
 17 41  1  0
 18 42  1  0
 18 43  1  0
 21 44  1  0
 22 45  1  0
 24 46  1  0
 24 47  1  0
 24 48  1  0
 25 49  1  0
 26 50  1  0
 26 51  1  0
 27 52  1  0
 28 53  1  0
 29 54  1  0
 30 55  1  0
 31 56  1  0
 32 57  1  0
 33 58  1  0
 33 59  1  0
 33 60  1  0
 34 61  1  0
 34 62  1  0
 35 63  1  0
 36 64  1  0
 37 65  1  0
 38 66  1  0
 39 67  1  0
 39 68  1  0
 39 69  1  0
M  END
> <Uni-Dock RESULT> 
ENERGY=   -4.030  LOWER_BOUND=    6.937  UPPER_BOUND=   12.225
INTER + INTRA:          -4.030
INTER:                  -4.030
INTRA:                   0.000
UNBOUND:                 0.000

$$$$

     RDKit          3D

 69 74  0  0  0  0  0  0  0  0999 V2000
   24.2348   10.3037   19.3954 C   0  0  0  0  0  0  0  0  0  0  0  0
   28.5334   12.6769   20.4882 N   0  0  0  0  0  0  0  0  0  0  0  0
   27.9493   14.5205   19.4060 N   0  0  0  0  0  0  0  0  0  0  0  0
   23.0133   10.3738   19.8915 N   0  0  0  0  0  0  0  0  0  0  0  0
   24.4696    9.0438   18.8794 N   0  0  0  0  0  0  0  0  0  0  0  0
   27.2828   12.4209   19.9623 C   0  0  0  0  0  0  0  0  0  0  0  0
   28.9007   13.9576   20.1228 C   0  0  0  0  0  0  0  0  0  0  0  0
   26.9341   13.6034   19.3174 C   0  0  0  0  0  0  0  0  0  0  0  0
   25.1841   11.4173   19.3733 C   0  0  0  0  0  0  0  0  0  0  0  0
   23.3613    8.2626   19.1166 C   0  0  0  0  0  0  0  0  0  0  0  0
   22.4700    9.1247   19.7459 C   0  0  0  0  0  0  0  0  0  0  0  0
   26.4331   11.3056   20.0043 C   0  0  0  0  0  0  0  0  0  0  0  0
   29.0846   11.7224   27.9491 C   0  0  0  0  0  0  0  0  0  0  0  0
   25.6775   13.7284   18.6939 C   0  0  0  0  0  0  0  0  0  0  0  0
   29.2521   12.7215   26.9693 C   0  0  0  0  0  0  0  0  0  0  0  0
   28.9894   10.2822   27.6298 C   0  0  0  0  0  0  0  0  0  0  0  0
   24.8141   12.6150   18.7477 C   0  0  0  0  0  0  0  0  0  0  0  0
   29.3454   11.7312   21.2430 C   0  0  0  0  0  0  0  0  0  0  0  0
   29.2754   12.4478   25.5263 C   0  0  0  0  0  0  0  0  0  0  0  0
   28.2019    9.4944   28.1230 O   0  0  0  0  0  0  0  0  0  0  0  0
   28.0861   12.2108   24.8236 C   0  0  0  0  0  0  0  0  0  0  0  0
   30.4825   12.4426   24.8142 C   0  0  0  0  0  0  0  0  0  0  0  0
   29.3090   11.9863   22.7309 C   0  0  0  0  0  0  0  0  0  0  0  0
   25.6567    8.6180   18.1752 C   0  0  0  0  0  0  0  0  0  0  0  0
   29.9707    9.8749   26.8074 O   0  0  0  0  0  0  0  0  0  0  0  0
   30.2105   14.5874   20.4864 C   0  0  0  0  0  0  0  0  0  0  0  0
   30.5012   12.2059   23.4363 C   0  0  0  0  0  0  0  0  0  0  0  0
   28.1018   11.9807   23.4443 C   0  0  0  0  0  0  0  0  0  0  0  0
   23.0504    6.9230   18.8474 C   0  0  0  0  0  0  0  0  0  0  0  0
   21.2068    8.6536   20.1325 C   0  0  0  0  0  0  0  0  0  0  0  0
   28.9880   12.0624   29.3088 C   0  0  0  0  0  0  0  0  0  0  0  0
   29.3550   14.0576   27.4038 C   0  0  0  0  0  0  0  0  0  0  0  0
   25.2228   14.9835   18.0100 C   0  0  0  0  0  0  0  0  0  0  0  0
   30.2797   16.0869   20.1851 C   0  0  0  0  0  0  0  0  0  0  0  0
   21.7854    6.4694   19.2417 C   0  0  0  0  0  0  0  0  0  0  0  0
   29.0910   13.3928   29.7118 C   0  0  0  0  0  0  0  0  0  0  0  0
   29.2800   14.3897   28.7592 C   0  0  0  0  0  0  0  0  0  0  0  0
   20.8756    7.3179   19.8742 C   0  0  0  0  0  0  0  0  0  0  0  0
   29.4153   16.9244   21.1200 C   0  0  0  0  0  0  0  0  0  0  0  0
   26.7098   10.4006   20.5339 H   0  0  0  0  0  0  0  0  0  0  0  0
   23.8256   12.6887   18.2933 H   0  0  0  0  0  0  0  0  0  0  0  0
   30.3656   11.7984   20.8478 H   0  0  0  0  0  0  0  0  0  0  0  0
   28.9949   10.7154   21.0322 H   0  0  0  0  0  0  0  0  0  0  0  0
   27.1312   12.2158   25.3470 H   0  0  0  0  0  0  0  0  0  0  0  0
   31.4219   12.6154   25.3370 H   0  0  0  0  0  0  0  0  0  0  0  0
   26.3907    8.2844   18.9135 H   0  0  0  0  0  0  0  0  0  0  0  0
   25.4077    7.7984   17.4971 H   0  0  0  0  0  0  0  0  0  0  0  0
   26.0527    9.4491   17.5852 H   0  0  0  0  0  0  0  0  0  0  0  0
   29.8147    8.9134   26.7075 H   0  0  0  0  0  0  0  0  0  0  0  0
   31.0009   14.0825   19.9168 H   0  0  0  0  0  0  0  0  0  0  0  0
   30.4247   14.4321   21.5485 H   0  0  0  0  0  0  0  0  0  0  0  0
   31.4603   12.2041   22.9221 H   0  0  0  0  0  0  0  0  0  0  0  0
   27.1537   11.8097   22.9372 H   0  0  0  0  0  0  0  0  0  0  0  0
   23.7504    6.2563   18.3560 H   0  0  0  0  0  0  0  0  0  0  0  0
   20.5084    9.3209   20.6239 H   0  0  0  0  0  0  0  0  0  0  0  0
   28.8406   11.2834   30.0545 H   0  0  0  0  0  0  0  0  0  0  0  0
   29.4799   14.8574   26.6747 H   0  0  0  0  0  0  0  0  0  0  0  0
   26.0075   15.7465   18.0102 H   0  0  0  0  0  0  0  0  0  0  0  0
   24.3491   15.3967   18.5238 H   0  0  0  0  0  0  0  0  0  0  0  0
   24.9578   14.7721   16.9694 H   0  0  0  0  0  0  0  0  0  0  0  0
   29.9958   16.2859   19.1448 H   0  0  0  0  0  0  0  0  0  0  0  0
   31.3202   16.4146   20.2980 H   0  0  0  0  0  0  0  0  0  0  0  0
   21.5064    5.4340   19.0515 H   0  0  0  0  0  0  0  0  0  0  0  0
   29.0211   13.6505   30.7656 H   0  0  0  0  0  0  0  0  0  0  0  0
   29.3583   15.4303   29.0648 H   0  0  0  0  0  0  0  0  0  0  0  0
   19.8992    6.9429   20.1704 H   0  0  0  0  0  0  0  0  0  0  0  0
   28.3526   16.6888   21.0106 H   0  0  0  0  0  0  0  0  0  0  0  0
   29.5448   17.9887   20.8985 H   0  0  0  0  0  0  0  0  0  0  0  0
   29.6968   16.7603   22.1655 H   0  0  0  0  0  0  0  0  0  0  0  0
  2  6  1  0
  3  8  1  0
  4  1  2  0
  5  1  1  0
  6 12  2  0
  7  2  1  0
  8 14  2  0
  9  1  1  0
 10  5  1  0
 11  4  1  0
 12  9  1  0
 13 15  2  0
 14 17  1  0
 15 19  1  0
 16 13  1  0
 17  9  2  0
 18  2  1  0
 19 21  2  0
 20 16  2  0
 21 28  1  0
 22 27  2  0
 23 18  1  0
 24  5  1  0
 25 16  1  0
 26  7  1  0
 27 23  1  0
 28 23  2  0
 29 10  2  0
 30 11  2  0
 31 13  1  0
 32 15  1  0
 33 14  1  0
 34 26  1  0
 35 29  1  0
 36 37  1  0
 37 32  2  0
 38 30  1  0
 39 34  1  0
 10 11  1  0
  8  6  1  0
 35 38  2  0
  3  7  2  0
 19 22  1  0
 36 31  2  0
 12 40  1  0
 17 41  1  0
 18 42  1  0
 18 43  1  0
 21 44  1  0
 22 45  1  0
 24 46  1  0
 24 47  1  0
 24 48  1  0
 25 49  1  0
 26 50  1  0
 26 51  1  0
 27 52  1  0
 28 53  1  0
 29 54  1  0
 30 55  1  0
 31 56  1  0
 32 57  1  0
 33 58  1  0
 33 59  1  0
 33 60  1  0
 34 61  1  0
 34 62  1  0
 35 63  1  0
 36 64  1  0
 37 65  1  0
 38 66  1  0
 39 67  1  0
 39 68  1  0
 39 69  1  0
M  END
> <Uni-Dock RESULT> 
ENERGY=   -4.021  LOWER_BOUND=    4.114  UPPER_BOUND=    6.431
INTER + INTRA:          -4.021
INTER:                  -4.021
INTRA:                   0.000
UNBOUND:                 0.000

$$$$

     RDKit          3D

 69 74  0  0  0  0  0  0  0  0999 V2000
   25.7569    9.8608   29.1370 C   0  0  0  0  0  0  0  0  0  0  0  0
   25.2834    6.6296   32.9631 N   0  0  0  0  0  0  0  0  0  0  0  0
   23.1081    6.3553   32.6405 N   0  0  0  0  0  0  0  0  0  0  0  0
   25.8300    9.7057   27.8279 N   0  0  0  0  0  0  0  0  0  0  0  0
   26.4298   11.0046   29.5211 N   0  0  0  0  0  0  0  0  0  0  0  0
   24.9590    7.4418   31.8949 C   0  0  0  0  0  0  0  0  0  0  0  0
   24.1321    5.9943   33.3868 C   0  0  0  0  0  0  0  0  0  0  0  0
   23.5986    7.2243   31.7004 C   0  0  0  0  0  0  0  0  0  0  0  0
   25.0370    8.9600   30.0380 C   0  0  0  0  0  0  0  0  0  0  0  0
   27.0071   11.5659   28.4046 C   0  0  0  0  0  0  0  0  0  0  0  0
   26.6095   10.7326   27.3649 C   0  0  0  0  0  0  0  0  0  0  0  0
   25.7078    8.3084   31.0850 C   0  0  0  0  0  0  0  0  0  0  0  0
   30.7823    1.6518   31.5981 C   0  0  0  0  0  0  0  0  0  0  0  0
   22.9212    7.8634   30.6439 C   0  0  0  0  0  0  0  0  0  0  0  0
   29.4297    1.6912   31.9919 C   0  0  0  0  0  0  0  0  0  0  0  0
   31.6664    2.8364   31.6163 C   0  0  0  0  0  0  0  0  0  0  0  0
   23.6739    8.7229   29.8177 C   0  0  0  0  0  0  0  0  0  0  0  0
   26.6023    6.5170   33.5725 C   0  0  0  0  0  0  0  0  0  0  0  0
   28.7356    2.9229   32.3905 C   0  0  0  0  0  0  0  0  0  0  0  0
   32.4582    3.1471   30.7442 O   0  0  0  0  0  0  0  0  0  0  0  0
   28.2949    3.8399   31.4265 C   0  0  0  0  0  0  0  0  0  0  0  0
   28.4751    3.1977   33.7399 C   0  0  0  0  0  0  0  0  0  0  0  0
   27.3368    5.2670   33.1501 C   0  0  0  0  0  0  0  0  0  0  0  0
   26.4923   11.5495   30.8574 C   0  0  0  0  0  0  0  0  0  0  0  0
   31.6092    3.4990   32.7838 O   0  0  0  0  0  0  0  0  0  0  0  0
   24.0784    5.0475   34.5466 C   0  0  0  0  0  0  0  0  0  0  0  0
   27.7930    4.3586   34.1165 C   0  0  0  0  0  0  0  0  0  0  0  0
   27.6064    4.9982   31.8005 C   0  0  0  0  0  0  0  0  0  0  0  0
   27.8133   12.6937   28.1996 C   0  0  0  0  0  0  0  0  0  0  0  0
   27.0205   11.0162   26.0542 C   0  0  0  0  0  0  0  0  0  0  0  0
   31.3624    0.4537   31.1488 C   0  0  0  0  0  0  0  0  0  0  0  0
   28.6986    0.4876   31.9536 C   0  0  0  0  0  0  0  0  0  0  0  0
   21.4648    7.6496   30.3556 C   0  0  0  0  0  0  0  0  0  0  0  0
   22.7552    4.2859   34.6614 C   0  0  0  0  0  0  0  0  0  0  0  0
   28.2155   12.9606   26.8850 C   0  0  0  0  0  0  0  0  0  0  0  0
   30.6159   -0.7230   31.1187 C   0  0  0  0  0  0  0  0  0  0  0  0
   29.2852   -0.7067   31.5264 C   0  0  0  0  0  0  0  0  0  0  0  0
   27.8274   12.1377   25.8268 C   0  0  0  0  0  0  0  0  0  0  0  0
   22.5724    3.2384   33.5695 C   0  0  0  0  0  0  0  0  0  0  0  0
   26.7730    8.4463   31.2340 H   0  0  0  0  0  0  0  0  0  0  0  0
   23.1824    9.2150   28.9779 H   0  0  0  0  0  0  0  0  0  0  0  0
   26.4573    6.5513   34.6584 H   0  0  0  0  0  0  0  0  0  0  0  0
   27.1921    7.4009   33.3079 H   0  0  0  0  0  0  0  0  0  0  0  0
   28.4753    3.6512   30.3693 H   0  0  0  0  0  0  0  0  0  0  0  0
   28.8139    2.5064   34.5099 H   0  0  0  0  0  0  0  0  0  0  0  0
   27.3218   11.0698   31.3836 H   0  0  0  0  0  0  0  0  0  0  0  0
   26.6539   12.6288   30.8071 H   0  0  0  0  0  0  0  0  0  0  0  0
   25.5473   11.3635   31.3752 H   0  0  0  0  0  0  0  0  0  0  0  0
   32.2567    4.2260   32.6776 H   0  0  0  0  0  0  0  0  0  0  0  0
   24.2256    5.6273   35.4665 H   0  0  0  0  0  0  0  0  0  0  0  0
   24.8966    4.3231   34.4837 H   0  0  0  0  0  0  0  0  0  0  0  0
   27.6166    4.5376   35.1754 H   0  0  0  0  0  0  0  0  0  0  0  0
   27.2747    5.6786   31.0180 H   0  0  0  0  0  0  0  0  0  0  0  0
   28.1194   13.3393   29.0153 H   0  0  0  0  0  0  0  0  0  0  0  0
   26.7142   10.3698   25.2401 H   0  0  0  0  0  0  0  0  0  0  0  0
   32.4030    0.4399   30.8301 H   0  0  0  0  0  0  0  0  0  0  0  0
   27.6491    0.4805   32.2457 H   0  0  0  0  0  0  0  0  0  0  0  0
   21.0015    6.9932   31.0988 H   0  0  0  0  0  0  0  0  0  0  0  0
   21.3398    7.1875   29.3713 H   0  0  0  0  0  0  0  0  0  0  0  0
   20.9323    8.6056   30.3710 H   0  0  0  0  0  0  0  0  0  0  0  0
   21.9069    4.9805   34.6504 H   0  0  0  0  0  0  0  0  0  0  0  0
   22.7337    3.7744   35.6314 H   0  0  0  0  0  0  0  0  0  0  0  0
   28.8439   13.8273   26.6847 H   0  0  0  0  0  0  0  0  0  0  0  0
   31.0706   -1.6489   30.7754 H   0  0  0  0  0  0  0  0  0  0  0  0
   28.6949   -1.6196   31.5031 H   0  0  0  0  0  0  0  0  0  0  0  0
   28.1518   12.3658   24.8146 H   0  0  0  0  0  0  0  0  0  0  0  0
   22.5225    3.6923   32.5755 H   0  0  0  0  0  0  0  0  0  0  0  0
   21.6406    2.6866   33.7307 H   0  0  0  0  0  0  0  0  0  0  0  0
   23.3971    2.5179   33.5763 H   0  0  0  0  0  0  0  0  0  0  0  0
  2  6  1  0
  3  8  1  0
  4  1  2  0
  5  1  1  0
  6 12  2  0
  7  2  1  0
  8 14  2  0
  9  1  1  0
 10  5  1  0
 11  4  1  0
 12  9  1  0
 13 15  2  0
 14 17  1  0
 15 19  1  0
 16 13  1  0
 17  9  2  0
 18  2  1  0
 19 21  2  0
 20 16  2  0
 21 28  1  0
 22 27  2  0
 23 18  1  0
 24  5  1  0
 25 16  1  0
 26  7  1  0
 27 23  1  0
 28 23  2  0
 29 10  2  0
 30 11  2  0
 31 13  1  0
 32 15  1  0
 33 14  1  0
 34 26  1  0
 35 29  1  0
 36 37  1  0
 37 32  2  0
 38 30  1  0
 39 34  1  0
 10 11  1  0
  8  6  1  0
 35 38  2  0
  3  7  2  0
 19 22  1  0
 36 31  2  0
 12 40  1  0
 17 41  1  0
 18 42  1  0
 18 43  1  0
 21 44  1  0
 22 45  1  0
 24 46  1  0
 24 47  1  0
 24 48  1  0
 25 49  1  0
 26 50  1  0
 26 51  1  0
 27 52  1  0
 28 53  1  0
 29 54  1  0
 30 55  1  0
 31 56  1  0
 32 57  1  0
 33 58  1  0
 33 59  1  0
 33 60  1  0
 34 61  1  0
 34 62  1  0
 35 63  1  0
 36 64  1  0
 37 65  1  0
 38 66  1  0
 39 67  1  0
 39 68  1  0
 39 69  1  0
M  END
> <Uni-Dock RESULT> 
ENERGY=   -3.996  LOWER_BOUND=    5.653  UPPER_BOUND=   10.019
INTER + INTRA:          -3.996
INTER:                  -3.996
INTRA:                   0.000
UNBOUND:                 0.000

$$$$
