
     RDKit          3D

 69 74  0  0  0  0  0  0  0  0999 V2000
   24.4593    8.7132   29.7319 C   0  0  0  0  0  0  0  0  0  0  0  0
   26.6893   11.9724   26.6125 N   0  0  0  0  0  0  0  0  0  0  0  0
   25.4161   13.6683   27.2593 N   0  0  0  0  0  0  0  0  0  0  0  0
   23.3194    8.0472   29.7205 N   0  0  0  0  0  0  0  0  0  0  0  0
   25.4047    8.0304   30.4742 N   0  0  0  0  0  0  0  0  0  0  0  0
   25.8295   11.4552   27.5619 C   0  0  0  0  0  0  0  0  0  0  0  0
   26.3992   13.3137   26.4561 C   0  0  0  0  0  0  0  0  0  0  0  0
   25.0405   12.5377   27.9378 C   0  0  0  0  0  0  0  0  0  0  0  0
   24.6713   10.0120   29.0913 C   0  0  0  0  0  0  0  0  0  0  0  0
   24.8475    6.8501   30.9103 C   0  0  0  0  0  0  0  0  0  0  0  0
   23.5434    6.8949   30.4281 C   0  0  0  0  0  0  0  0  0  0  0  0
   25.6668   10.1768   28.1156 C   0  0  0  0  0  0  0  0  0  0  0  0
   34.2469   11.6303   27.2135 C   0  0  0  0  0  0  0  0  0  0  0  0
   24.0198   12.3743   28.8949 C   0  0  0  0  0  0  0  0  0  0  0  0
   33.0926   12.1620   27.8240 C   0  0  0  0  0  0  0  0  0  0  0  0
   34.1774   10.7185   26.0571 C   0  0  0  0  0  0  0  0  0  0  0  0
   23.8550   11.0907   29.4548 C   0  0  0  0  0  0  0  0  0  0  0  0
   27.6902   11.2115   25.8777 C   0  0  0  0  0  0  0  0  0  0  0  0
   31.7271   11.9147   27.3278 C   0  0  0  0  0  0  0  0  0  0  0  0
   34.7213   10.8859   24.9826 O   0  0  0  0  0  0  0  0  0  0  0  0
   31.3448   12.2991   26.0331 C   0  0  0  0  0  0  0  0  0  0  0  0
   30.7653   11.3015   28.1441 C   0  0  0  0  0  0  0  0  0  0  0  0
   29.0889   11.4611   26.3875 C   0  0  0  0  0  0  0  0  0  0  0  0
   26.7338    8.4980   30.7888 C   0  0  0  0  0  0  0  0  0  0  0  0
   33.4898    9.6026   26.3535 O   0  0  0  0  0  0  0  0  0  0  0  0
   27.1219   14.2423   25.5300 C   0  0  0  0  0  0  0  0  0  0  0  0
   29.4647   11.0763   27.6817 C   0  0  0  0  0  0  0  0  0  0  0  0
   30.0471   12.0685   25.5653 C   0  0  0  0  0  0  0  0  0  0  0  0
   25.3331    5.7766   31.6688 C   0  0  0  0  0  0  0  0  0  0  0  0
   22.6670    5.8347   30.7035 C   0  0  0  0  0  0  0  0  0  0  0  0
   35.5308   11.9526   27.6806 C   0  0  0  0  0  0  0  0  0  0  0  0
   33.2781   12.9979   28.9434 C   0  0  0  0  0  0  0  0  0  0  0  0
   23.1250   13.4937   29.3382 C   0  0  0  0  0  0  0  0  0  0  0  0
   26.2043   15.2905   24.8955 C   0  0  0  0  0  0  0  0  0  0  0  0
   24.4448    4.7265   31.9327 C   0  0  0  0  0  0  0  0  0  0  0  0
   35.6824   12.7841   28.7890 C   0  0  0  0  0  0  0  0  0  0  0  0
   34.5566   13.3015   29.4231 C   0  0  0  0  0  0  0  0  0  0  0  0
   23.1319    4.7521   31.4594 C   0  0  0  0  0  0  0  0  0  0  0  0
   25.1977   14.6881   23.9232 C   0  0  0  0  0  0  0  0  0  0  0  0
   26.2764    9.3380   27.7978 H   0  0  0  0  0  0  0  0  0  0  0  0
   23.0687   10.9312   30.1929 H   0  0  0  0  0  0  0  0  0  0  0  0
   27.5877   11.4700   24.8177 H   0  0  0  0  0  0  0  0  0  0  0  0
   27.4554   10.1449   25.9557 H   0  0  0  0  0  0  0  0  0  0  0  0
   32.0601   12.7892   25.3740 H   0  0  0  0  0  0  0  0  0  0  0  0
   31.0283   10.9857   29.1525 H   0  0  0  0  0  0  0  0  0  0  0  0
   26.7032    9.5713   30.9914 H   0  0  0  0  0  0  0  0  0  0  0  0
   27.1064    7.9867   31.6790 H   0  0  0  0  0  0  0  0  0  0  0  0
   27.3827    8.2829   29.9369 H   0  0  0  0  0  0  0  0  0  0  0  0
   33.5237    9.0715   25.5317 H   0  0  0  0  0  0  0  0  0  0  0  0
   27.8958   14.7585   26.1092 H   0  0  0  0  0  0  0  0  0  0  0  0
   27.6312   13.6986   24.7306 H   0  0  0  0  0  0  0  0  0  0  0  0
   28.7492   10.6006   28.3483 H   0  0  0  0  0  0  0  0  0  0  0  0
   29.7961   12.3751   24.5513 H   0  0  0  0  0  0  0  0  0  0  0  0
   26.3503    5.7476   32.0431 H   0  0  0  0  0  0  0  0  0  0  0  0
   21.6486    5.8647   30.3319 H   0  0  0  0  0  0  0  0  0  0  0  0
   36.4102   11.5468   27.1854 H   0  0  0  0  0  0  0  0  0  0  0  0
   32.4158   13.4376   29.4431 H   0  0  0  0  0  0  0  0  0  0  0  0
   23.3067   14.4045   28.7592 H   0  0  0  0  0  0  0  0  0  0  0  0
   22.0751   13.2148   29.2039 H   0  0  0  0  0  0  0  0  0  0  0  0
   23.3031   13.7193   30.3939 H   0  0  0  0  0  0  0  0  0  0  0  0
   26.8247   16.0116   24.3493 H   0  0  0  0  0  0  0  0  0  0  0  0
   25.6710   15.8556   25.6699 H   0  0  0  0  0  0  0  0  0  0  0  0
   24.7857    3.8767   32.5208 H   0  0  0  0  0  0  0  0  0  0  0  0
   36.6764   13.0284   29.1569 H   0  0  0  0  0  0  0  0  0  0  0  0
   34.6698   13.9521   30.2883 H   0  0  0  0  0  0  0  0  0  0  0  0
   22.4594    3.9259   31.6777 H   0  0  0  0  0  0  0  0  0  0  0  0
   24.5014   14.0131   24.4301 H   0  0  0  0  0  0  0  0  0  0  0  0
   24.6096   15.4814   23.4522 H   0  0  0  0  0  0  0  0  0  0  0  0
   25.7054   14.1272   23.1317 H   0  0  0  0  0  0  0  0  0  0  0  0
  2  6  1  0
  3  8  1  0
  4  1  2  0
  5  1  1  0
  6 12  2  0
  7  2  1  0
  8 14  2  0
  9  1  1  0
 10  5  1  0
 11  4  1  0
 12  9  1  0
 13 15  2  0
 14 17  1  0
 15 19  1  0
 16 13  1  0
 17  9  2  0
 18  2  1  0
 19 21  2  0
 20 16  2  0
 21 28  1  0
 22 27  2  0
 23 18  1  0
 24  5  1  0
 25 16  1  0
 26  7  1  0
 27 23  1  0
 28 23  2  0
 29 10  2  0
 30 11  2  0
 31 13  1  0
 32 15  1  0
 33 14  1  0
 34 26  1  0
 35 29  1  0
 36 37  1  0
 37 32  2  0
 38 30  1  0
 39 34  1  0
 10 11  1  0
  8  6  1  0
 35 38  2  0
  3  7  2  0
 19 22  1  0
 36 31  2  0
 12 40  1  0
 17 41  1  0
 18 42  1  0
 18 43  1  0
 21 44  1  0
 22 45  1  0
 24 46  1  0
 24 47  1  0
 24 48  1  0
 25 49  1  0
 26 50  1  0
 26 51  1  0
 27 52  1  0
 28 53  1  0
 29 54  1  0
 30 55  1  0
 31 56  1  0
 32 57  1  0
 33 58  1  0
 33 59  1  0
 33 60  1  0
 34 61  1  0
 34 62  1  0
 35 63  1  0
 36 64  1  0
 37 65  1  0
 38 66  1  0
 39 67  1  0
 39 68  1  0
 39 69  1  0
M  END
> <Uni-Dock RESULT> 
ENERGY=   -5.422  LOWER_BOUND=    0.000  UPPER_BOUND=    0.000
INTER + INTRA:          -5.422
INTER:                  -5.422
INTRA:                   0.000
UNBOUND:                 0.000

$$$$

     RDKit          3D

 69 74  0  0  0  0  0  0  0  0999 V2000
   20.8512    7.7879   30.3472 C   0  0  0  0  0  0  0  0  0  0  0  0
   22.2595    3.0272   31.1706 N   0  0  0  0  0  0  0  0  0  0  0  0
   21.1370    2.2520   29.4228 N   0  0  0  0  0  0  0  0  0  0  0  0
   19.7501    8.4825   30.5663 N   0  0  0  0  0  0  0  0  0  0  0  0
   21.9519    8.6242   30.3459 N   0  0  0  0  0  0  0  0  0  0  0  0
   21.6464    4.1262   30.6011 C   0  0  0  0  0  0  0  0  0  0  0  0
   21.9184    1.9131   30.4287 C   0  0  0  0  0  0  0  0  0  0  0  0
   20.9446    3.6061   29.5182 C   0  0  0  0  0  0  0  0  0  0  0  0
   20.8901    6.3471   30.0925 C   0  0  0  0  0  0  0  0  0  0  0  0
   21.5285    9.9028   30.6288 C   0  0  0  0  0  0  0  0  0  0  0  0
   20.1485    9.7804   30.7543 C   0  0  0  0  0  0  0  0  0  0  0  0
   21.6355    5.4922   30.9192 C   0  0  0  0  0  0  0  0  0  0  0  0
   29.7614    2.5116   32.1963 C   0  0  0  0  0  0  0  0  0  0  0  0
   20.1703    4.4528   28.7007 C   0  0  0  0  0  0  0  0  0  0  0  0
   28.7665    2.6222   31.2035 C   0  0  0  0  0  0  0  0  0  0  0  0
   29.4472    2.5667   33.6357 C   0  0  0  0  0  0  0  0  0  0  0  0
   20.1590    5.8269   29.0169 C   0  0  0  0  0  0  0  0  0  0  0  0
   23.0808    3.0486   32.3730 C   0  0  0  0  0  0  0  0  0  0  0  0
   27.3285    2.7331   31.5066 C   0  0  0  0  0  0  0  0  0  0  0  0
   29.7304    1.7197   34.4608 O   0  0  0  0  0  0  0  0  0  0  0  0
   26.6561    1.7241   32.2136 C   0  0  0  0  0  0  0  0  0  0  0  0
   26.5875    3.8456   31.0814 C   0  0  0  0  0  0  0  0  0  0  0  0
   24.5541    2.9389   32.0634 C   0  0  0  0  0  0  0  0  0  0  0  0
   23.3095    8.2371   30.0438 C   0  0  0  0  0  0  0  0  0  0  0  0
   28.8641    3.7314   33.9658 O   0  0  0  0  0  0  0  0  0  0  0  0
   22.3962    0.5215   30.7072 C   0  0  0  0  0  0  0  0  0  0  0  0
   25.2201    3.9489   31.3560 C   0  0  0  0  0  0  0  0  0  0  0  0
   25.2903    1.8281   32.4962 C   0  0  0  0  0  0  0  0  0  0  0  0
   22.1919   11.1285   30.7738 C   0  0  0  0  0  0  0  0  0  0  0  0
   19.3757   10.9171   31.0348 C   0  0  0  0  0  0  0  0  0  0  0  0
   31.1119    2.3363   31.8564 C   0  0  0  0  0  0  0  0  0  0  0  0
   29.1865    2.5882   29.8586 C   0  0  0  0  0  0  0  0  0  0  0  0
   19.3802    3.9590   27.5251 C   0  0  0  0  0  0  0  0  0  0  0  0
   21.3407   -0.5460   30.4078 C   0  0  0  0  0  0  0  0  0  0  0  0
   21.4048   12.2522   31.0551 C   0  0  0  0  0  0  0  0  0  0  0  0
   31.4966    2.3044   30.5169 C   0  0  0  0  0  0  0  0  0  0  0  0
   30.5350    2.4360   29.5192 C   0  0  0  0  0  0  0  0  0  0  0  0
   20.0186   12.1518   31.1839 C   0  0  0  0  0  0  0  0  0  0  0  0
   20.1505   -0.4870   31.3571 C   0  0  0  0  0  0  0  0  0  0  0  0
   22.1715    5.8798   31.7786 H   0  0  0  0  0  0  0  0  0  0  0  0
   19.5634    6.5063   28.4069 H   0  0  0  0  0  0  0  0  0  0  0  0
   22.7362    2.2354   33.0217 H   0  0  0  0  0  0  0  0  0  0  0  0
   22.8882    3.9775   32.9197 H   0  0  0  0  0  0  0  0  0  0  0  0
   27.1948    0.8391   32.5496 H   0  0  0  0  0  0  0  0  0  0  0  0
   27.0777    4.6498   30.5348 H   0  0  0  0  0  0  0  0  0  0  0  0
   23.3071    7.5079   29.2300 H   0  0  0  0  0  0  0  0  0  0  0  0
   23.8829    9.1106   29.7262 H   0  0  0  0  0  0  0  0  0  0  0  0
   23.7520    7.8091   30.9461 H   0  0  0  0  0  0  0  0  0  0  0  0
   28.7200    3.6652   34.9319 H   0  0  0  0  0  0  0  0  0  0  0  0
   23.2723    0.3351   30.0758 H   0  0  0  0  0  0  0  0  0  0  0  0
   22.7204    0.4067   31.7444 H   0  0  0  0  0  0  0  0  0  0  0  0
   24.6826    4.8269   31.0055 H   0  0  0  0  0  0  0  0  0  0  0  0
   24.8107    1.0261   33.0548 H   0  0  0  0  0  0  0  0  0  0  0  0
   23.2678   11.2181   30.6737 H   0  0  0  0  0  0  0  0  0  0  0  0
   18.2993   10.8286   31.1320 H   0  0  0  0  0  0  0  0  0  0  0  0
   31.8630    2.2348   32.6365 H   0  0  0  0  0  0  0  0  0  0  0  0
   28.4525    2.6628   29.0571 H   0  0  0  0  0  0  0  0  0  0  0  0
   19.4102    2.8673   27.4529 H   0  0  0  0  0  0  0  0  0  0  0  0
   18.3322    4.2601   27.6202 H   0  0  0  0  0  0  0  0  0  0  0  0
   19.7890    4.3736   26.5988 H   0  0  0  0  0  0  0  0  0  0  0  0
   21.8086   -1.5338   30.4997 H   0  0  0  0  0  0  0  0  0  0  0  0
   20.9872   -0.4592   29.3729 H   0  0  0  0  0  0  0  0  0  0  0  0
   21.8847   13.2218   31.1721 H   0  0  0  0  0  0  0  0  0  0  0  0
   32.5436    2.1765   30.2520 H   0  0  0  0  0  0  0  0  0  0  0  0
   30.8301    2.4107   28.4719 H   0  0  0  0  0  0  0  0  0  0  0  0
   19.4274   13.0382   31.4014 H   0  0  0  0  0  0  0  0  0  0  0  0
   19.5990    0.4526   31.2548 H   0  0  0  0  0  0  0  0  0  0  0  0
   19.4573   -1.3056   31.1415 H   0  0  0  0  0  0  0  0  0  0  0  0
   20.4751   -0.5834   32.3984 H   0  0  0  0  0  0  0  0  0  0  0  0
  2  6  1  0
  3  8  1  0
  4  1  2  0
  5  1  1  0
  6 12  2  0
  7  2  1  0
  8 14  2  0
  9  1  1  0
 10  5  1  0
 11  4  1  0
 12  9  1  0
 13 15  2  0
 14 17  1  0
 15 19  1  0
 16 13  1  0
 17  9  2  0
 18  2  1  0
 19 21  2  0
 20 16  2  0
 21 28  1  0
 22 27  2  0
 23 18  1  0
 24  5  1  0
 25 16  1  0
 26  7  1  0
 27 23  1  0
 28 23  2  0
 29 10  2  0
 30 11  2  0
 31 13  1  0
 32 15  1  0
 33 14  1  0
 34 26  1  0
 35 29  1  0
 36 37  1  0
 37 32  2  0
 38 30  1  0
 39 34  1  0
 10 11  1  0
  8  6  1  0
 35 38  2  0
  3  7  2  0
 19 22  1  0
 36 31  2  0
 12 40  1  0
 17 41  1  0
 18 42  1  0
 18 43  1  0
 21 44  1  0
 22 45  1  0
 24 46  1  0
 24 47  1  0
 24 48  1  0
 25 49  1  0
 26 50  1  0
 26 51  1  0
 27 52  1  0
 28 53  1  0
 29 54  1  0
 30 55  1  0
 31 56  1  0
 32 57  1  0
 33 58  1  0
 33 59  1  0
 33 60  1  0
 34 61  1  0
 34 62  1  0
 35 63  1  0
 36 64  1  0
 37 65  1  0
 38 66  1  0
 39 67  1  0
 39 68  1  0
 39 69  1  0
M  END
> <Uni-Dock RESULT> 
ENERGY=   -4.904  LOWER_BOUND=    7.217  UPPER_BOUND=   10.366
INTER + INTRA:          -4.904
INTER:                  -4.904
INTRA:                   0.000
UNBOUND:                 0.000

$$$$

     RDKit          3D

 69 74  0  0  0  0  0  0  0  0999 V2000
   27.7458    2.5174   31.3382 C   0  0  0  0  0  0  0  0  0  0  0  0
   29.5919    6.9558   29.8490 N   0  0  0  0  0  0  0  0  0  0  0  0
   30.2478    6.1737   27.8808 N   0  0  0  0  0  0  0  0  0  0  0  0
   28.2739    1.3986   31.7990 N   0  0  0  0  0  0  0  0  0  0  0  0
   26.4529    2.6638   31.8052 N   0  0  0  0  0  0  0  0  0  0  0  0
   29.2491    5.6177   29.8439 C   0  0  0  0  0  0  0  0  0  0  0  0
   30.1998    7.2475   28.6435 C   0  0  0  0  0  0  0  0  0  0  0  0
   29.6821    5.1562   28.6049 C   0  0  0  0  0  0  0  0  0  0  0  0
   28.4188    3.4411   30.4240 C   0  0  0  0  0  0  0  0  0  0  0  0
   26.1699    1.6094   32.6432 C   0  0  0  0  0  0  0  0  0  0  0  0
   27.3252    0.8351   32.6121 C   0  0  0  0  0  0  0  0  0  0  0  0
   28.6185    4.7842   30.7794 C   0  0  0  0  0  0  0  0  0  0  0  0
   24.5666   12.5366   30.9429 C   0  0  0  0  0  0  0  0  0  0  0  0
   29.5120    3.8029   28.2520 C   0  0  0  0  0  0  0  0  0  0  0  0
   24.9062   11.4836   30.0690 C   0  0  0  0  0  0  0  0  0  0  0  0
   25.2839   12.7715   32.2093 C   0  0  0  0  0  0  0  0  0  0  0  0
   28.8767    2.9630   29.1895 C   0  0  0  0  0  0  0  0  0  0  0  0
   29.3852    7.8750   30.9594 C   0  0  0  0  0  0  0  0  0  0  0  0
   26.0399   10.5714   30.3021 C   0  0  0  0  0  0  0  0  0  0  0  0
   25.8281   13.8074   32.5397 O   0  0  0  0  0  0  0  0  0  0  0  0
   27.3540   11.0558   30.3944 C   0  0  0  0  0  0  0  0  0  0  0  0
   25.8375    9.1886   30.4221 C   0  0  0  0  0  0  0  0  0  0  0  0
   28.2218    8.8074   30.7234 C   0  0  0  0  0  0  0  0  0  0  0  0
   25.5324    3.7125   31.4353 C   0  0  0  0  0  0  0  0  0  0  0  0
   25.2010   11.7063   33.0243 O   0  0  0  0  0  0  0  0  0  0  0  0
   30.7028    8.6006   28.2451 C   0  0  0  0  0  0  0  0  0  0  0  0
   26.9119    8.3179   30.6308 C   0  0  0  0  0  0  0  0  0  0  0  0
   28.4296   10.1884   30.6105 C   0  0  0  0  0  0  0  0  0  0  0  0
   25.0454    1.2536   33.3998 C   0  0  0  0  0  0  0  0  0  0  0  0
   27.3836   -0.3510   33.3590 C   0  0  0  0  0  0  0  0  0  0  0  0
   23.5214   13.4237   30.6414 C   0  0  0  0  0  0  0  0  0  0  0  0
   24.1307   11.3348   28.9016 C   0  0  0  0  0  0  0  0  0  0  0  0
   29.9645    3.2351   26.9394 C   0  0  0  0  0  0  0  0  0  0  0  0
   31.9821    8.5417   27.4066 C   0  0  0  0  0  0  0  0  0  0  0  0
   25.1220    0.0674   34.1402 C   0  0  0  0  0  0  0  0  0  0  0  0
   22.7734   13.2521   29.4777 C   0  0  0  0  0  0  0  0  0  0  0  0
   23.0745   12.2049   28.6116 C   0  0  0  0  0  0  0  0  0  0  0  0
   26.2711   -0.7249   34.1221 C   0  0  0  0  0  0  0  0  0  0  0  0
   33.1861    8.0405   28.1944 C   0  0  0  0  0  0  0  0  0  0  0  0
   28.3045    5.1540   31.7493 H   0  0  0  0  0  0  0  0  0  0  0  0
   28.7371    1.9091   28.9480 H   0  0  0  0  0  0  0  0  0  0  0  0
   30.3230    8.4202   31.1145 H   0  0  0  0  0  0  0  0  0  0  0  0
   29.2135    7.2970   31.8734 H   0  0  0  0  0  0  0  0  0  0  0  0
   27.5526   12.1220   30.2939 H   0  0  0  0  0  0  0  0  0  0  0  0
   24.8307    8.7782   30.3605 H   0  0  0  0  0  0  0  0  0  0  0  0
   25.6469    3.9386   30.3723 H   0  0  0  0  0  0  0  0  0  0  0  0
   24.5057    3.3850   31.6123 H   0  0  0  0  0  0  0  0  0  0  0  0
   25.7530    4.5919   32.0443 H   0  0  0  0  0  0  0  0  0  0  0  0
   25.6888   11.9779   33.8285 H   0  0  0  0  0  0  0  0  0  0  0  0
   29.9192    9.0894   27.6553 H   0  0  0  0  0  0  0  0  0  0  0  0
   30.8884    9.2340   29.1159 H   0  0  0  0  0  0  0  0  0  0  0  0
   26.7111    7.2525   30.7152 H   0  0  0  0  0  0  0  0  0  0  0  0
   29.4314   10.6082   30.6842 H   0  0  0  0  0  0  0  0  0  0  0  0
   24.1471    1.8606   33.4193 H   0  0  0  0  0  0  0  0  0  0  0  0
   28.2807   -0.9599   33.3374 H   0  0  0  0  0  0  0  0  0  0  0  0
   23.2857   14.2411   31.3192 H   0  0  0  0  0  0  0  0  0  0  0  0
   24.3607   10.5398   28.1932 H   0  0  0  0  0  0  0  0  0  0  0  0
   30.5168    3.9755   26.3522 H   0  0  0  0  0  0  0  0  0  0  0  0
   30.6250    2.3782   27.1053 H   0  0  0  0  0  0  0  0  0  0  0  0
   29.0990    2.9117   26.3533 H   0  0  0  0  0  0  0  0  0  0  0  0
   32.2044    9.5510   27.0390 H   0  0  0  0  0  0  0  0  0  0  0  0
   31.8349    7.9090   26.5225 H   0  0  0  0  0  0  0  0  0  0  0  0
   24.2672   -0.2426   34.7380 H   0  0  0  0  0  0  0  0  0  0  0  0
   21.9582   13.9339   29.2466 H   0  0  0  0  0  0  0  0  0  0  0  0
   22.4942   12.0673   27.7012 H   0  0  0  0  0  0  0  0  0  0  0  0
   26.3075   -1.6427   34.7041 H   0  0  0  0  0  0  0  0  0  0  0  0
   33.0499    7.0062   28.5247 H   0  0  0  0  0  0  0  0  0  0  0  0
   34.0842    8.0756   27.5704 H   0  0  0  0  0  0  0  0  0  0  0  0
   33.3626    8.6629   29.0777 H   0  0  0  0  0  0  0  0  0  0  0  0
  2  6  1  0
  3  8  1  0
  4  1  2  0
  5  1  1  0
  6 12  2  0
  7  2  1  0
  8 14  2  0
  9  1  1  0
 10  5  1  0
 11  4  1  0
 12  9  1  0
 13 15  2  0
 14 17  1  0
 15 19  1  0
 16 13  1  0
 17  9  2  0
 18  2  1  0
 19 21  2  0
 20 16  2  0
 21 28  1  0
 22 27  2  0
 23 18  1  0
 24  5  1  0
 25 16  1  0
 26  7  1  0
 27 23  1  0
 28 23  2  0
 29 10  2  0
 30 11  2  0
 31 13  1  0
 32 15  1  0
 33 14  1  0
 34 26  1  0
 35 29  1  0
 36 37  1  0
 37 32  2  0
 38 30  1  0
 39 34  1  0
 10 11  1  0
  8  6  1  0
 35 38  2  0
  3  7  2  0
 19 22  1  0
 36 31  2  0
 12 40  1  0
 17 41  1  0
 18 42  1  0
 18 43  1  0
 21 44  1  0
 22 45  1  0
 24 46  1  0
 24 47  1  0
 24 48  1  0
 25 49  1  0
 26 50  1  0
 26 51  1  0
 27 52  1  0
 28 53  1  0
 29 54  1  0
 30 55  1  0
 31 56  1  0
 32 57  1  0
 33 58  1  0
 33 59  1  0
 33 60  1  0
 34 61  1  0
 34 62  1  0
 35 63  1  0
 36 64  1  0
 37 65  1  0
 38 66  1  0
 39 67  1  0
 39 68  1  0
 39 69  1  0
M  END
> <Uni-Dock RESULT> 
ENERGY=   -4.862  LOWER_BOUND=    4.662  UPPER_BOUND=    8.479
INTER + INTRA:          -4.862
INTER:                  -4.862
INTRA:                   0.000
UNBOUND:                 0.000

$$$$

     RDKit          3D

 69 74  0  0  0  0  0  0  0  0999 V2000
   28.4570   12.1000   19.9677 C   0  0  0  0  0  0  0  0  0  0  0  0
   26.3352   14.4046   23.9062 N   0  0  0  0  0  0  0  0  0  0  0  0
   24.4846   14.8994   22.7899 N   0  0  0  0  0  0  0  0  0  0  0  0
   29.0604   12.5079   18.8665 N   0  0  0  0  0  0  0  0  0  0  0  0
   28.9200   10.8492   20.3313 N   0  0  0  0  0  0  0  0  0  0  0  0
   26.5219   13.9071   22.6312 C   0  0  0  0  0  0  0  0  0  0  0  0
   25.0912   15.0028   23.9555 C   0  0  0  0  0  0  0  0  0  0  0  0
   25.3523   14.2422   21.9563 C   0  0  0  0  0  0  0  0  0  0  0  0
   27.4124   12.8465   20.6702 C   0  0  0  0  0  0  0  0  0  0  0  0
   29.9010   10.4720   19.4428 C   0  0  0  0  0  0  0  0  0  0  0  0
   29.9592   11.5268   18.5378 C   0  0  0  0  0  0  0  0  0  0  0  0
   27.5743   13.2140   22.0151 C   0  0  0  0  0  0  0  0  0  0  0  0
   26.7233   10.1076   30.1497 C   0  0  0  0  0  0  0  0  0  0  0  0
   25.1938   13.9030   20.5982 C   0  0  0  0  0  0  0  0  0  0  0  0
   25.9990   10.2925   28.9543 C   0  0  0  0  0  0  0  0  0  0  0  0
   27.9330   10.8886   30.4664 C   0  0  0  0  0  0  0  0  0  0  0  0
   26.2492   13.2045   19.9766 C   0  0  0  0  0  0  0  0  0  0  0  0
   27.3101   14.3437   24.9862 C   0  0  0  0  0  0  0  0  0  0  0  0
   26.3384   11.3183   27.9521 C   0  0  0  0  0  0  0  0  0  0  0  0
   28.1072   11.5611   31.4643 O   0  0  0  0  0  0  0  0  0  0  0  0
   26.3412   12.6825   28.2823 C   0  0  0  0  0  0  0  0  0  0  0  0
   26.6528   10.9590   26.6332 C   0  0  0  0  0  0  0  0  0  0  0  0
   26.9656   13.2907   26.0114 C   0  0  0  0  0  0  0  0  0  0  0  0
   28.4227   10.0465   21.4233 C   0  0  0  0  0  0  0  0  0  0  0  0
   28.8895   10.7079   29.5400 O   0  0  0  0  0  0  0  0  0  0  0  0
   24.5004   15.6479   25.1709 C   0  0  0  0  0  0  0  0  0  0  0  0
   26.9632   11.9300   25.6757 C   0  0  0  0  0  0  0  0  0  0  0  0
   26.6583   13.6553   27.3289 C   0  0  0  0  0  0  0  0  0  0  0  0
   30.7177    9.3388   19.3318 C   0  0  0  0  0  0  0  0  0  0  0  0
   30.8628   11.4699   17.4661 C   0  0  0  0  0  0  0  0  0  0  0  0
   26.3183    9.1644   31.1071 C   0  0  0  0  0  0  0  0  0  0  0  0
   24.8764    9.4671   28.7426 C   0  0  0  0  0  0  0  0  0  0  0  0
   23.9658   14.2426   19.8064 C   0  0  0  0  0  0  0  0  0  0  0  0
   23.6576   16.8833   24.8444 C   0  0  0  0  0  0  0  0  0  0  0  0
   31.6146    9.2998   18.2570 C   0  0  0  0  0  0  0  0  0  0  0  0
   25.2021    8.3638   30.8702 C   0  0  0  0  0  0  0  0  0  0  0  0
   24.4853    8.5115   29.6862 C   0  0  0  0  0  0  0  0  0  0  0  0
   31.6883   10.3467   17.3367 C   0  0  0  0  0  0  0  0  0  0  0  0
   24.4879   18.0452   24.3134 C   0  0  0  0  0  0  0  0  0  0  0  0
   28.4883   12.9775   22.5487 H   0  0  0  0  0  0  0  0  0  0  0  0
   26.1590   12.9343   18.9243 H   0  0  0  0  0  0  0  0  0  0  0  0
   27.3728   15.3436   25.4302 H   0  0  0  0  0  0  0  0  0  0  0  0
   28.2983   14.1353   24.5631 H   0  0  0  0  0  0  0  0  0  0  0  0
   26.0901   13.0015   29.2930 H   0  0  0  0  0  0  0  0  0  0  0  0
   26.6652    9.9095   26.3429 H   0  0  0  0  0  0  0  0  0  0  0  0
   27.3369   10.1520   21.4871 H   0  0  0  0  0  0  0  0  0  0  0  0
   28.6601    8.9948   21.2494 H   0  0  0  0  0  0  0  0  0  0  0  0
   28.8998   10.3886   22.3443 H   0  0  0  0  0  0  0  0  0  0  0  0
   29.6401   11.2502   29.8576 H   0  0  0  0  0  0  0  0  0  0  0  0
   23.8610   14.9082   25.6659 H   0  0  0  0  0  0  0  0  0  0  0  0
   25.2715   15.9349   25.8900 H   0  0  0  0  0  0  0  0  0  0  0  0
   27.1982   11.6084   24.6638 H   0  0  0  0  0  0  0  0  0  0  0  0
   26.6567   14.7014   27.6307 H   0  0  0  0  0  0  0  0  0  0  0  0
   30.6671    8.5191   20.0398 H   0  0  0  0  0  0  0  0  0  0  0  0
   30.9116   12.2881   16.7561 H   0  0  0  0  0  0  0  0  0  0  0  0
   26.8796    9.0487   32.0316 H   0  0  0  0  0  0  0  0  0  0  0  0
   24.2818    9.5789   27.8366 H   0  0  0  0  0  0  0  0  0  0  0  0
   23.2725   14.8585   20.3878 H   0  0  0  0  0  0  0  0  0  0  0  0
   24.2386   14.8030   18.9067 H   0  0  0  0  0  0  0  0  0  0  0  0
   23.4445   13.3264   19.5132 H   0  0  0  0  0  0  0  0  0  0  0  0
   23.1496   17.2103   25.7599 H   0  0  0  0  0  0  0  0  0  0  0  0
   22.8726   16.6340   24.1197 H   0  0  0  0  0  0  0  0  0  0  0  0
   32.2635    8.4345   18.1369 H   0  0  0  0  0  0  0  0  0  0  0  0
   24.8916    7.6271   31.6077 H   0  0  0  0  0  0  0  0  0  0  0  0
   23.6124    7.8895   29.4971 H   0  0  0  0  0  0  0  0  0  0  0  0
   32.3917   10.2942   16.5090 H   0  0  0  0  0  0  0  0  0  0  0  0
   24.9610   17.7994   23.3578 H   0  0  0  0  0  0  0  0  0  0  0  0
   23.8507   18.9204   24.1545 H   0  0  0  0  0  0  0  0  0  0  0  0
   25.2730   18.3224   25.0244 H   0  0  0  0  0  0  0  0  0  0  0  0
  2  6  1  0
  3  8  1  0
  4  1  2  0
  5  1  1  0
  6 12  2  0
  7  2  1  0
  8 14  2  0
  9  1  1  0
 10  5  1  0
 11  4  1  0
 12  9  1  0
 13 15  2  0
 14 17  1  0
 15 19  1  0
 16 13  1  0
 17  9  2  0
 18  2  1  0
 19 21  2  0
 20 16  2  0
 21 28  1  0
 22 27  2  0
 23 18  1  0
 24  5  1  0
 25 16  1  0
 26  7  1  0
 27 23  1  0
 28 23  2  0
 29 10  2  0
 30 11  2  0
 31 13  1  0
 32 15  1  0
 33 14  1  0
 34 26  1  0
 35 29  1  0
 36 37  1  0
 37 32  2  0
 38 30  1  0
 39 34  1  0
 10 11  1  0
  8  6  1  0
 35 38  2  0
  3  7  2  0
 19 22  1  0
 36 31  2  0
 12 40  1  0
 17 41  1  0
 18 42  1  0
 18 43  1  0
 21 44  1  0
 22 45  1  0
 24 46  1  0
 24 47  1  0
 24 48  1  0
 25 49  1  0
 26 50  1  0
 26 51  1  0
 27 52  1  0
 28 53  1  0
 29 54  1  0
 30 55  1  0
 31 56  1  0
 32 57  1  0
 33 58  1  0
 33 59  1  0
 33 60  1  0
 34 61  1  0
 34 62  1  0
 35 63  1  0
 36 64  1  0
 37 65  1  0
 38 66  1  0
 39 67  1  0
 39 68  1  0
 39 69  1  0
M  END
> <Uni-Dock RESULT> 
ENERGY=   -4.806  LOWER_BOUND=    4.561  UPPER_BOUND=    9.246
INTER + INTRA:          -4.806
INTER:                  -4.806
INTRA:                   0.000
UNBOUND:                 0.000

$$$$

     RDKit          3D

 69 74  0  0  0  0  0  0  0  0999 V2000
   25.0862   11.9371   33.4244 C   0  0  0  0  0  0  0  0  0  0  0  0
   23.1729    7.6090   31.7121 N   0  0  0  0  0  0  0  0  0  0  0  0
   22.2146    8.5711   29.9595 N   0  0  0  0  0  0  0  0  0  0  0  0
   24.5986   12.9737   34.0806 N   0  0  0  0  0  0  0  0  0  0  0  0
   26.4371   11.7993   33.6837 N   0  0  0  0  0  0  0  0  0  0  0  0
   23.4722    8.9537   31.8121 C   0  0  0  0  0  0  0  0  0  0  0  0
   22.4045    7.4235   30.5794 C   0  0  0  0  0  0  0  0  0  0  0  0
   22.8499    9.5279   30.7081 C   0  0  0  0  0  0  0  0  0  0  0  0
   24.3144   11.0893   32.5147 C   0  0  0  0  0  0  0  0  0  0  0  0
   26.8084   12.7675   34.5886 C   0  0  0  0  0  0  0  0  0  0  0  0
   25.6388   13.4873   34.8104 C   0  0  0  0  0  0  0  0  0  0  0  0
   24.2078    9.7077   32.7383 C   0  0  0  0  0  0  0  0  0  0  0  0
   28.4644    2.1758   31.4359 C   0  0  0  0  0  0  0  0  0  0  0  0
   22.9272   10.9179   30.4923 C   0  0  0  0  0  0  0  0  0  0  0  0
   27.9705    3.3015   30.7455 C   0  0  0  0  0  0  0  0  0  0  0  0
   27.9465    1.7716   32.7557 C   0  0  0  0  0  0  0  0  0  0  0  0
   23.6676   11.6783   31.4206 C   0  0  0  0  0  0  0  0  0  0  0  0
   23.5659    6.5842   32.6692 C   0  0  0  0  0  0  0  0  0  0  0  0
   26.8568    4.1304   31.2399 C   0  0  0  0  0  0  0  0  0  0  0  0
   27.4867    0.6821   33.0388 O   0  0  0  0  0  0  0  0  0  0  0  0
   25.5849    3.5797   31.4611 C   0  0  0  0  0  0  0  0  0  0  0  0
   27.0342    5.4996   31.4880 C   0  0  0  0  0  0  0  0  0  0  0  0
   24.7091    5.7370   32.1655 C   0  0  0  0  0  0  0  0  0  0  0  0
   27.3240   10.8402   33.0693 C   0  0  0  0  0  0  0  0  0  0  0  0
   28.1163    2.7439   33.6676 O   0  0  0  0  0  0  0  0  0  0  0  0
   21.8885    6.1007   30.1037 C   0  0  0  0  0  0  0  0  0  0  0  0
   25.9768    6.2926   31.9451 C   0  0  0  0  0  0  0  0  0  0  0  0
   24.5275    4.3685   31.9254 C   0  0  0  0  0  0  0  0  0  0  0  0
   28.0203   13.0891   35.2141 C   0  0  0  0  0  0  0  0  0  0  0  0
   25.6554   14.5807   35.6892 C   0  0  0  0  0  0  0  0  0  0  0  0
   29.4799    1.3754   30.8897 C   0  0  0  0  0  0  0  0  0  0  0  0
   28.5629    3.6122   29.5050 C   0  0  0  0  0  0  0  0  0  0  0  0
   22.2718   11.6047   29.3309 C   0  0  0  0  0  0  0  0  0  0  0  0
   20.4994    6.1928   29.4670 C   0  0  0  0  0  0  0  0  0  0  0  0
   28.0179   14.1825   36.0891 C   0  0  0  0  0  0  0  0  0  0  0  0
   30.0449    1.7070   29.6593 C   0  0  0  0  0  0  0  0  0  0  0  0
   29.5904    2.8279   28.9705 C   0  0  0  0  0  0  0  0  0  0  0  0
   26.8559   14.9191   36.3249 C   0  0  0  0  0  0  0  0  0  0  0  0
   19.4091    6.5497   30.4696 C   0  0  0  0  0  0  0  0  0  0  0  0
   24.6705    9.2487   33.6051 H   0  0  0  0  0  0  0  0  0  0  0  0
   23.7398   12.7575   31.2843 H   0  0  0  0  0  0  0  0  0  0  0  0
   22.6770    5.9833   32.8919 H   0  0  0  0  0  0  0  0  0  0  0  0
   23.8521    7.0659   33.6099 H   0  0  0  0  0  0  0  0  0  0  0  0
   25.4049    2.5230   31.2681 H   0  0  0  0  0  0  0  0  0  0  0  0
   28.0089    5.9595   31.3320 H   0  0  0  0  0  0  0  0  0  0  0  0
   27.0624   10.7268   32.0145 H   0  0  0  0  0  0  0  0  0  0  0  0
   28.3556   11.1926   33.1356 H   0  0  0  0  0  0  0  0  0  0  0  0
   27.2203    9.8904   33.5985 H   0  0  0  0  0  0  0  0  0  0  0  0
   27.7591    2.3642   34.4962 H   0  0  0  0  0  0  0  0  0  0  0  0
   22.5916    5.7154   29.3567 H   0  0  0  0  0  0  0  0  0  0  0  0
   21.8503    5.3681   30.9135 H   0  0  0  0  0  0  0  0  0  0  0  0
   26.1566    7.3504   32.1220 H   0  0  0  0  0  0  0  0  0  0  0  0
   23.5597    3.8982   32.0915 H   0  0  0  0  0  0  0  0  0  0  0  0
   28.9292   12.5251   35.0365 H   0  0  0  0  0  0  0  0  0  0  0  0
   24.7474   15.1470   35.8648 H   0  0  0  0  0  0  0  0  0  0  0  0
   29.8356    0.5003   31.4291 H   0  0  0  0  0  0  0  0  0  0  0  0
   28.2090    4.4686   28.9322 H   0  0  0  0  0  0  0  0  0  0  0  0
   21.6616   10.9087   28.7468 H   0  0  0  0  0  0  0  0  0  0  0  0
   21.6179   12.4075   29.6859 H   0  0  0  0  0  0  0  0  0  0  0  0
   23.0328   12.0292   28.6693 H   0  0  0  0  0  0  0  0  0  0  0  0
   20.2554    5.2208   29.0212 H   0  0  0  0  0  0  0  0  0  0  0  0
   20.4976    6.9244   28.6495 H   0  0  0  0  0  0  0  0  0  0  0  0
   28.9414   14.4637   36.5915 H   0  0  0  0  0  0  0  0  0  0  0  0
   30.8373    1.0922   29.2385 H   0  0  0  0  0  0  0  0  0  0  0  0
   30.0276    3.0903   28.0090 H   0  0  0  0  0  0  0  0  0  0  0  0
   26.8780   15.7652   37.0077 H   0  0  0  0  0  0  0  0  0  0  0  0
   19.5617    7.5469   30.8937 H   0  0  0  0  0  0  0  0  0  0  0  0
   18.4310    6.5423   29.9791 H   0  0  0  0  0  0  0  0  0  0  0  0
   19.3813    5.8271   31.2916 H   0  0  0  0  0  0  0  0  0  0  0  0
  2  6  1  0
  3  8  1  0
  4  1  2  0
  5  1  1  0
  6 12  2  0
  7  2  1  0
  8 14  2  0
  9  1  1  0
 10  5  1  0
 11  4  1  0
 12  9  1  0
 13 15  2  0
 14 17  1  0
 15 19  1  0
 16 13  1  0
 17  9  2  0
 18  2  1  0
 19 21  2  0
 20 16  2  0
 21 28  1  0
 22 27  2  0
 23 18  1  0
 24  5  1  0
 25 16  1  0
 26  7  1  0
 27 23  1  0
 28 23  2  0
 29 10  2  0
 30 11  2  0
 31 13  1  0
 32 15  1  0
 33 14  1  0
 34 26  1  0
 35 29  1  0
 36 37  1  0
 37 32  2  0
 38 30  1  0
 39 34  1  0
 10 11  1  0
  8  6  1  0
 35 38  2  0
  3  7  2  0
 19 22  1  0
 36 31  2  0
 12 40  1  0
 17 41  1  0
 18 42  1  0
 18 43  1  0
 21 44  1  0
 22 45  1  0
 24 46  1  0
 24 47  1  0
 24 48  1  0
 25 49  1  0
 26 50  1  0
 26 51  1  0
 27 52  1  0
 28 53  1  0
 29 54  1  0
 30 55  1  0
 31 56  1  0
 32 57  1  0
 33 58  1  0
 33 59  1  0
 33 60  1  0
 34 61  1  0
 34 62  1  0
 35 63  1  0
 36 64  1  0
 37 65  1  0
 38 66  1  0
 39 67  1  0
 39 68  1  0
 39 69  1  0
M  END
> <Uni-Dock RESULT> 
ENERGY=   -4.384  LOWER_BOUND=    6.315  UPPER_BOUND=    9.215
INTER + INTRA:          -4.384
INTER:                  -4.384
INTRA:                   0.000
UNBOUND:                 0.000

$$$$

     RDKit          3D

 69 74  0  0  0  0  0  0  0  0999 V2000
   32.5319   12.9871   22.6564 C   0  0  0  0  0  0  0  0  0  0  0  0
   34.2555   11.0721   26.9793 N   0  0  0  0  0  0  0  0  0  0  0  0
   34.8061   13.0588   27.7950 N   0  0  0  0  0  0  0  0  0  0  0  0
   33.0941   13.4429   21.5523 N   0  0  0  0  0  0  0  0  0  0  0  0
   31.2662   12.5028   22.3838 N   0  0  0  0  0  0  0  0  0  0  0  0
   33.9237   11.9856   25.9978 C   0  0  0  0  0  0  0  0  0  0  0  0
   34.7924   11.7651   28.0467 C   0  0  0  0  0  0  0  0  0  0  0  0
   34.2902   13.2158   26.5345 C   0  0  0  0  0  0  0  0  0  0  0  0
   33.1450   13.0362   23.9845 C   0  0  0  0  0  0  0  0  0  0  0  0
   31.0392   12.6127   21.0309 C   0  0  0  0  0  0  0  0  0  0  0  0
   32.1971   13.2092   20.5426 C   0  0  0  0  0  0  0  0  0  0  0  0
   33.3534   11.8606   24.7224 C   0  0  0  0  0  0  0  0  0  0  0  0
   29.2544    6.2587   30.0480 C   0  0  0  0  0  0  0  0  0  0  0  0
   34.1116   14.3977   25.7888 C   0  0  0  0  0  0  0  0  0  0  0  0
   29.5529    7.6287   29.9008 C   0  0  0  0  0  0  0  0  0  0  0  0
   30.0398    5.2053   29.3793 C   0  0  0  0  0  0  0  0  0  0  0  0
   33.5368   14.2754   24.5072 C   0  0  0  0  0  0  0  0  0  0  0  0
   34.1040    9.6276   26.8728 C   0  0  0  0  0  0  0  0  0  0  0  0
   30.7053    8.1283   29.1299 C   0  0  0  0  0  0  0  0  0  0  0  0
   30.5932    4.2715   29.9272 O   0  0  0  0  0  0  0  0  0  0  0  0
   32.0185    7.7738   29.4760 C   0  0  0  0  0  0  0  0  0  0  0  0
   30.5212    8.9870   28.0362 C   0  0  0  0  0  0  0  0  0  0  0  0
   32.9217    9.1153   27.6590 C   0  0  0  0  0  0  0  0  0  0  0  0
   30.3178   12.0158   23.3572 C   0  0  0  0  0  0  0  0  0  0  0  0
   30.0113    5.3462   28.0433 O   0  0  0  0  0  0  0  0  0  0  0  0
   35.2612   11.1389   29.3236 C   0  0  0  0  0  0  0  0  0  0  0  0
   31.6126    9.4736   27.3096 C   0  0  0  0  0  0  0  0  0  0  0  0
   33.1116    8.2528   28.7468 C   0  0  0  0  0  0  0  0  0  0  0  0
   29.9618   12.2706   20.2028 C   0  0  0  0  0  0  0  0  0  0  0  0
   32.3069   13.4878   19.1720 C   0  0  0  0  0  0  0  0  0  0  0  0
   28.1867    5.8291   30.8516 C   0  0  0  0  0  0  0  0  0  0  0  0
   28.7143    8.5492   30.5610 C   0  0  0  0  0  0  0  0  0  0  0  0
   34.4943   15.7550   26.3000 C   0  0  0  0  0  0  0  0  0  0  0  0
   36.4919   11.8315   29.9145 C   0  0  0  0  0  0  0  0  0  0  0  0
   30.0895   12.5546   18.8374 C   0  0  0  0  0  0  0  0  0  0  0  0
   27.3761    6.7635   31.4940 C   0  0  0  0  0  0  0  0  0  0  0  0
   27.6366    8.1225   31.3440 C   0  0  0  0  0  0  0  0  0  0  0  0
   31.2421   13.1539   18.3268 C   0  0  0  0  0  0  0  0  0  0  0  0
   37.7422   11.6487   29.0632 C   0  0  0  0  0  0  0  0  0  0  0  0
   33.0914   10.8926   24.3095 H   0  0  0  0  0  0  0  0  0  0  0  0
   33.3923   15.1714   23.9032 H   0  0  0  0  0  0  0  0  0  0  0  0
   35.0446    9.1726   27.2030 H   0  0  0  0  0  0  0  0  0  0  0  0
   33.9885    9.3582   25.8178 H   0  0  0  0  0  0  0  0  0  0  0  0
   32.2026    7.1190   30.3267 H   0  0  0  0  0  0  0  0  0  0  0  0
   29.5158    9.2790   27.7363 H   0  0  0  0  0  0  0  0  0  0  0  0
   30.3707   12.6335   24.2571 H   0  0  0  0  0  0  0  0  0  0  0  0
   29.3054   12.0772   22.9525 H   0  0  0  0  0  0  0  0  0  0  0  0
   30.5651   10.9768   23.5856 H   0  0  0  0  0  0  0  0  0  0  0  0
   30.5413    4.5941   27.7089 H   0  0  0  0  0  0  0  0  0  0  0  0
   34.4418   11.2017   30.0485 H   0  0  0  0  0  0  0  0  0  0  0  0
   35.4903   10.0786   29.1922 H   0  0  0  0  0  0  0  0  0  0  0  0
   31.4255   10.1395   26.4704 H   0  0  0  0  0  0  0  0  0  0  0  0
   34.1125    7.9454   29.0449 H   0  0  0  0  0  0  0  0  0  0  0  0
   29.0611   11.8068   20.5892 H   0  0  0  0  0  0  0  0  0  0  0  0
   33.2063   13.9544   18.7855 H   0  0  0  0  0  0  0  0  0  0  0  0
   27.9829    4.7669   30.9674 H   0  0  0  0  0  0  0  0  0  0  0  0
   28.9107    9.6178   30.4823 H   0  0  0  0  0  0  0  0  0  0  0  0
   35.0068   15.6894   27.2649 H   0  0  0  0  0  0  0  0  0  0  0  0
   35.1700   16.2485   25.5943 H   0  0  0  0  0  0  0  0  0  0  0  0
   33.6000   16.3717   26.4300 H   0  0  0  0  0  0  0  0  0  0  0  0
   36.6849   11.4100   30.9086 H   0  0  0  0  0  0  0  0  0  0  0  0
   36.3004   12.9022   30.0573 H   0  0  0  0  0  0  0  0  0  0  0  0
   29.2721   12.3054   18.1636 H   0  0  0  0  0  0  0  0  0  0  0  0
   26.5436    6.4324   32.1107 H   0  0  0  0  0  0  0  0  0  0  0  0
   27.0071    8.8560   31.8445 H   0  0  0  0  0  0  0  0  0  0  0  0
   31.3186   13.3662   17.2630 H   0  0  0  0  0  0  0  0  0  0  0  0
   37.6331   12.1175   28.0804 H   0  0  0  0  0  0  0  0  0  0  0  0
   38.6035   12.1078   29.5577 H   0  0  0  0  0  0  0  0  0  0  0  0
   37.9630   10.5867   28.9148 H   0  0  0  0  0  0  0  0  0  0  0  0
  2  6  1  0
  3  8  1  0
  4  1  2  0
  5  1  1  0
  6 12  2  0
  7  2  1  0
  8 14  2  0
  9  1  1  0
 10  5  1  0
 11  4  1  0
 12  9  1  0
 13 15  2  0
 14 17  1  0
 15 19  1  0
 16 13  1  0
 17  9  2  0
 18  2  1  0
 19 21  2  0
 20 16  2  0
 21 28  1  0
 22 27  2  0
 23 18  1  0
 24  5  1  0
 25 16  1  0
 26  7  1  0
 27 23  1  0
 28 23  2  0
 29 10  2  0
 30 11  2  0
 31 13  1  0
 32 15  1  0
 33 14  1  0
 34 26  1  0
 35 29  1  0
 36 37  1  0
 37 32  2  0
 38 30  1  0
 39 34  1  0
 10 11  1  0
  8  6  1  0
 35 38  2  0
  3  7  2  0
 19 22  1  0
 36 31  2  0
 12 40  1  0
 17 41  1  0
 18 42  1  0
 18 43  1  0
 21 44  1  0
 22 45  1  0
 24 46  1  0
 24 47  1  0
 24 48  1  0
 25 49  1  0
 26 50  1  0
 26 51  1  0
 27 52  1  0
 28 53  1  0
 29 54  1  0
 30 55  1  0
 31 56  1  0
 32 57  1  0
 33 58  1  0
 33 59  1  0
 33 60  1  0
 34 61  1  0
 34 62  1  0
 35 63  1  0
 36 64  1  0
 37 65  1  0
 38 66  1  0
 39 67  1  0
 39 68  1  0
 39 69  1  0
M  END
> <Uni-Dock RESULT> 
ENERGY=   -4.360  LOWER_BOUND=    4.870  UPPER_BOUND=   10.265
INTER + INTRA:          -4.360
INTER:                  -4.360
INTRA:                   0.000
UNBOUND:                 0.000

$$$$

     RDKit          3D

 69 74  0  0  0  0  0  0  0  0999 V2000
   30.6838   12.1798   24.4927 C   0  0  0  0  0  0  0  0  0  0  0  0
   26.2830   14.5576   23.9412 N   0  0  0  0  0  0  0  0  0  0  0  0
   25.7703   13.4600   22.0843 N   0  0  0  0  0  0  0  0  0  0  0  0
   31.8742   12.2860   23.9319 N   0  0  0  0  0  0  0  0  0  0  0  0
   30.8020   11.6725   25.7732 N   0  0  0  0  0  0  0  0  0  0  0  0
   27.3479   13.7119   23.6992 C   0  0  0  0  0  0  0  0  0  0  0  0
   25.3540   14.3766   22.9352 C   0  0  0  0  0  0  0  0  0  0  0  0
   27.0009   13.0484   22.5266 C   0  0  0  0  0  0  0  0  0  0  0  0
   29.4196   12.5060   23.8313 C   0  0  0  0  0  0  0  0  0  0  0  0
   32.1384   11.4979   26.0515 C   0  0  0  0  0  0  0  0  0  0  0  0
   32.7797   11.8840   24.8790 C   0  0  0  0  0  0  0  0  0  0  0  0
   28.5533   13.4678   24.3738 C   0  0  0  0  0  0  0  0  0  0  0  0
   22.2763   14.4674   30.3860 C   0  0  0  0  0  0  0  0  0  0  0  0
   27.8778   12.1028   21.9594 C   0  0  0  0  0  0  0  0  0  0  0  0
   22.6190   13.6867   29.2631 C   0  0  0  0  0  0  0  0  0  0  0  0
   22.8577   15.8010   30.6250 C   0  0  0  0  0  0  0  0  0  0  0  0
   29.0894   11.8540   22.6363 C   0  0  0  0  0  0  0  0  0  0  0  0
   26.1920   15.5049   25.0436 C   0  0  0  0  0  0  0  0  0  0  0  0
   23.5270   14.1520   28.1997 C   0  0  0  0  0  0  0  0  0  0  0  0
   22.2348   16.8335   30.7810 O   0  0  0  0  0  0  0  0  0  0  0  0
   23.2317   15.2964   27.4426 C   0  0  0  0  0  0  0  0  0  0  0  0
   24.7063   13.4525   27.9038 C   0  0  0  0  0  0  0  0  0  0  0  0
   25.2652   15.0275   26.1351 C   0  0  0  0  0  0  0  0  0  0  0  0
   29.7096   11.3293   26.6525 C   0  0  0  0  0  0  0  0  0  0  0  0
   24.1954   15.7396   30.7365 O   0  0  0  0  0  0  0  0  0  0  0  0
   24.0435   15.0951   22.8423 C   0  0  0  0  0  0  0  0  0  0  0  0
   25.5646   13.8834   26.8871 C   0  0  0  0  0  0  0  0  0  0  0  0
   24.0917   15.7340   26.4302 C   0  0  0  0  0  0  0  0  0  0  0  0
   32.8377   11.0422   27.1770 C   0  0  0  0  0  0  0  0  0  0  0  0
   34.1790   11.8196   24.8022 C   0  0  0  0  0  0  0  0  0  0  0  0
   21.3509   14.0082   31.3362 C   0  0  0  0  0  0  0  0  0  0  0  0
   22.0251   12.4133   29.1537 C   0  0  0  0  0  0  0  0  0  0  0  0
   27.5736   11.3595   20.6924 C   0  0  0  0  0  0  0  0  0  0  0  0
   23.6348   15.4130   21.4018 C   0  0  0  0  0  0  0  0  0  0  0  0
   34.2338   10.9858   27.0829 C   0  0  0  0  0  0  0  0  0  0  0  0
   20.7784   12.7446   31.1997 C   0  0  0  0  0  0  0  0  0  0  0  0
   21.1198   11.9458   30.1121 C   0  0  0  0  0  0  0  0  0  0  0  0
   34.8972   11.3673   25.9155 C   0  0  0  0  0  0  0  0  0  0  0  0
   24.5415   16.4437   20.7409 C   0  0  0  0  0  0  0  0  0  0  0  0
   28.8188   14.0076   25.2762 H   0  0  0  0  0  0  0  0  0  0  0  0
   29.7918   11.1327   22.2181 H   0  0  0  0  0  0  0  0  0  0  0  0
   25.8732   16.4666   24.6260 H   0  0  0  0  0  0  0  0  0  0  0  0
   27.1928   15.6683   25.4566 H   0  0  0  0  0  0  0  0  0  0  0  0
   22.3190   15.8590   27.6344 H   0  0  0  0  0  0  0  0  0  0  0  0
   24.9696   12.5631   28.4744 H   0  0  0  0  0  0  0  0  0  0  0  0
   28.9026   10.8774   26.0705 H   0  0  0  0  0  0  0  0  0  0  0  0
   30.0466   10.6068   27.3988 H   0  0  0  0  0  0  0  0  0  0  0  0
   29.3676   12.2419   27.1455 H   0  0  0  0  0  0  0  0  0  0  0  0
   24.4670   16.6641   30.9095 H   0  0  0  0  0  0  0  0  0  0  0  0
   23.2767   14.4534   23.2908 H   0  0  0  0  0  0  0  0  0  0  0  0
   24.0534   16.0269   23.4131 H   0  0  0  0  0  0  0  0  0  0  0  0
   26.4671   13.3101   26.6885 H   0  0  0  0  0  0  0  0  0  0  0  0
   23.8278   16.6316   25.8736 H   0  0  0  0  0  0  0  0  0  0  0  0
   32.3323   10.7413   28.0880 H   0  0  0  0  0  0  0  0  0  0  0  0
   34.6847   12.1174   23.8903 H   0  0  0  0  0  0  0  0  0  0  0  0
   21.0855   14.6324   32.1865 H   0  0  0  0  0  0  0  0  0  0  0  0
   22.2542   11.7775   28.2992 H   0  0  0  0  0  0  0  0  0  0  0  0
   26.6468   11.7159   20.2321 H   0  0  0  0  0  0  0  0  0  0  0  0
   28.3827   11.4985   19.9686 H   0  0  0  0  0  0  0  0  0  0  0  0
   27.4612   10.2917   20.9030 H   0  0  0  0  0  0  0  0  0  0  0  0
   22.6108   15.8063   21.4090 H   0  0  0  0  0  0  0  0  0  0  0  0
   23.6176   14.4991   20.7952 H   0  0  0  0  0  0  0  0  0  0  0  0
   34.8106   10.6346   27.9362 H   0  0  0  0  0  0  0  0  0  0  0  0
   20.0671   12.3842   31.9393 H   0  0  0  0  0  0  0  0  0  0  0  0
   20.6746   10.9589   30.0004 H   0  0  0  0  0  0  0  0  0  0  0  0
   35.9821   11.3141   25.8648 H   0  0  0  0  0  0  0  0  0  0  0  0
   25.5662   16.0734   20.6393 H   0  0  0  0  0  0  0  0  0  0  0  0
   24.1720   16.6812   19.7387 H   0  0  0  0  0  0  0  0  0  0  0  0
   24.5673   17.3718   21.3212 H   0  0  0  0  0  0  0  0  0  0  0  0
  2  6  1  0
  3  8  1  0
  4  1  2  0
  5  1  1  0
  6 12  2  0
  7  2  1  0
  8 14  2  0
  9  1  1  0
 10  5  1  0
 11  4  1  0
 12  9  1  0
 13 15  2  0
 14 17  1  0
 15 19  1  0
 16 13  1  0
 17  9  2  0
 18  2  1  0
 19 21  2  0
 20 16  2  0
 21 28  1  0
 22 27  2  0
 23 18  1  0
 24  5  1  0
 25 16  1  0
 26  7  1  0
 27 23  1  0
 28 23  2  0
 29 10  2  0
 30 11  2  0
 31 13  1  0
 32 15  1  0
 33 14  1  0
 34 26  1  0
 35 29  1  0
 36 37  1  0
 37 32  2  0
 38 30  1  0
 39 34  1  0
 10 11  1  0
  8  6  1  0
 35 38  2  0
  3  7  2  0
 19 22  1  0
 36 31  2  0
 12 40  1  0
 17 41  1  0
 18 42  1  0
 18 43  1  0
 21 44  1  0
 22 45  1  0
 24 46  1  0
 24 47  1  0
 24 48  1  0
 25 49  1  0
 26 50  1  0
 26 51  1  0
 27 52  1  0
 28 53  1  0
 29 54  1  0
 30 55  1  0
 31 56  1  0
 32 57  1  0
 33 58  1  0
 33 59  1  0
 33 60  1  0
 34 61  1  0
 34 62  1  0
 35 63  1  0
 36 64  1  0
 37 65  1  0
 38 66  1  0
 39 67  1  0
 39 68  1  0
 39 69  1  0
M  END
> <Uni-Dock RESULT> 
ENERGY=   -4.290  LOWER_BOUND=    4.872  UPPER_BOUND=    9.601
INTER + INTRA:          -4.290
INTER:                  -4.290
INTRA:                   0.000
UNBOUND:                 0.000

$$$$

     RDKit          3D

 69 74  0  0  0  0  0  0  0  0999 V2000
   29.7056   12.6130   20.4842 C   0  0  0  0  0  0  0  0  0  0  0  0
   28.5083   14.6562   24.9246 N   0  0  0  0  0  0  0  0  0  0  0  0
   27.1078   16.1203   24.0243 N   0  0  0  0  0  0  0  0  0  0  0  0
   30.4905   12.9623   19.4818 N   0  0  0  0  0  0  0  0  0  0  0  0
   29.5783   11.2374   20.5351 N   0  0  0  0  0  0  0  0  0  0  0  0
   28.5470   14.4242   23.5635 C   0  0  0  0  0  0  0  0  0  0  0  0
   27.6292   15.6957   25.1579 C   0  0  0  0  0  0  0  0  0  0  0  0
   27.6693   15.3624   23.0294 C   0  0  0  0  0  0  0  0  0  0  0  0
   29.0292   13.5532   21.3790 C   0  0  0  0  0  0  0  0  0  0  0  0
   30.3632   10.6900   19.5460 C   0  0  0  0  0  0  0  0  0  0  0  0
   30.9135   11.7941   18.9031 C   0  0  0  0  0  0  0  0  0  0  0  0
   29.2474   13.5084   22.7647 C   0  0  0  0  0  0  0  0  0  0  0  0
   26.6761    9.3251   30.0058 C   0  0  0  0  0  0  0  0  0  0  0  0
   27.4668   15.4336   21.6370 C   0  0  0  0  0  0  0  0  0  0  0  0
   26.1707   10.0594   28.9135 C   0  0  0  0  0  0  0  0  0  0  0  0
   28.0798    9.4307   30.4439 C   0  0  0  0  0  0  0  0  0  0  0  0
   28.1681   14.5130   20.8316 C   0  0  0  0  0  0  0  0  0  0  0  0
   29.2997   13.9509   25.9231 C   0  0  0  0  0  0  0  0  0  0  0  0
   26.9696   11.0411   28.1585 C   0  0  0  0  0  0  0  0  0  0  0  0
   28.4584    9.7261   31.5610 O   0  0  0  0  0  0  0  0  0  0  0  0
   27.5237   12.1653   28.7902 C   0  0  0  0  0  0  0  0  0  0  0  0
   27.1846   10.8864   26.7810 C   0  0  0  0  0  0  0  0  0  0  0  0
   28.4834   12.9424   26.6944 C   0  0  0  0  0  0  0  0  0  0  0  0
   28.7244   10.4984   21.4345 C   0  0  0  0  0  0  0  0  0  0  0  0
   28.9273    9.0748   29.4637 O   0  0  0  0  0  0  0  0  0  0  0  0
   27.2900   16.2411   26.5107 C   0  0  0  0  0  0  0  0  0  0  0  0
   27.9314   11.8222   26.0582 C   0  0  0  0  0  0  0  0  0  0  0  0
   28.2772   13.0989   28.0715 C   0  0  0  0  0  0  0  0  0  0  0  0
   30.6349    9.3743   19.1478 C   0  0  0  0  0  0  0  0  0  0  0  0
   31.7739   11.6017   17.8118 C   0  0  0  0  0  0  0  0  0  0  0  0
   25.8552    8.4537   30.7387 C   0  0  0  0  0  0  0  0  0  0  0  0
   24.8208    9.8546   28.5640 C   0  0  0  0  0  0  0  0  0  0  0  0
   26.5453   16.4264   20.9926 C   0  0  0  0  0  0  0  0  0  0  0  0
   27.0644   17.7551   26.5074 C   0  0  0  0  0  0  0  0  0  0  0  0
   31.4968    9.2011   18.0577 C   0  0  0  0  0  0  0  0  0  0  0  0
   24.5230    8.2737   30.3701 C   0  0  0  0  0  0  0  0  0  0  0  0
   24.0082    8.9694   29.2801 C   0  0  0  0  0  0  0  0  0  0  0  0
   32.0588   10.2951   17.3976 C   0  0  0  0  0  0  0  0  0  0  0  0
   28.3361   18.5444   26.2225 C   0  0  0  0  0  0  0  0  0  0  0  0
   29.9435   12.7961   23.1939 H   0  0  0  0  0  0  0  0  0  0  0  0
   28.0375   14.5480   19.7499 H   0  0  0  0  0  0  0  0  0  0  0  0
   29.7484   14.7044   26.5801 H   0  0  0  0  0  0  0  0  0  0  0  0
   30.1334   13.4452   25.4249 H   0  0  0  0  0  0  0  0  0  0  0  0
   27.3681   12.3265   29.8560 H   0  0  0  0  0  0  0  0  0  0  0  0
   26.7737   10.0235   26.2592 H   0  0  0  0  0  0  0  0  0  0  0  0
   27.7812   11.0349   21.5634 H   0  0  0  0  0  0  0  0  0  0  0  0
   28.5094    9.5127   21.0165 H   0  0  0  0  0  0  0  0  0  0  0  0
   29.2437   10.3927   22.3895 H   0  0  0  0  0  0  0  0  0  0  0  0
   29.8151    9.1641   29.8665 H   0  0  0  0  0  0  0  0  0  0  0  0
   26.3704   15.7504   26.8492 H   0  0  0  0  0  0  0  0  0  0  0  0
   28.0648   16.0080   27.2451 H   0  0  0  0  0  0  0  0  0  0  0  0
   28.0715   11.6658   24.9912 H   0  0  0  0  0  0  0  0  0  0  0  0
   28.6958   13.9518   28.6032 H   0  0  0  0  0  0  0  0  0  0  0  0
   30.2020    8.5174   19.6519 H   0  0  0  0  0  0  0  0  0  0  0  0
   32.2045   12.4584   17.3053 H   0  0  0  0  0  0  0  0  0  0  0  0
   26.2585    7.9093   31.5896 H   0  0  0  0  0  0  0  0  0  0  0  0
   24.3846   10.4055   27.7315 H   0  0  0  0  0  0  0  0  0  0  0  0
   26.1398   17.1307   21.7258 H   0  0  0  0  0  0  0  0  0  0  0  0
   27.0824   17.0043   20.2339 H   0  0  0  0  0  0  0  0  0  0  0  0
   25.7070   15.9064   20.5193 H   0  0  0  0  0  0  0  0  0  0  0  0
   26.6853   18.0529   27.4927 H   0  0  0  0  0  0  0  0  0  0  0  0
   26.2933   18.0286   25.7767 H   0  0  0  0  0  0  0  0  0  0  0  0
   31.7292    8.1937   17.7182 H   0  0  0  0  0  0  0  0  0  0  0  0
   23.8878    7.5929   30.9322 H   0  0  0  0  0  0  0  0  0  0  0  0
   22.9683    8.8332   28.9890 H   0  0  0  0  0  0  0  0  0  0  0  0
   32.7246   10.1367   16.5526 H   0  0  0  0  0  0  0  0  0  0  0  0
   28.7202   18.3417   25.2181 H   0  0  0  0  0  0  0  0  0  0  0  0
   28.1355   19.6178   26.2923 H   0  0  0  0  0  0  0  0  0  0  0  0
   29.1200   18.2985   26.9463 H   0  0  0  0  0  0  0  0  0  0  0  0
  2  6  1  0
  3  8  1  0
  4  1  2  0
  5  1  1  0
  6 12  2  0
  7  2  1  0
  8 14  2  0
  9  1  1  0
 10  5  1  0
 11  4  1  0
 12  9  1  0
 13 15  2  0
 14 17  1  0
 15 19  1  0
 16 13  1  0
 17  9  2  0
 18  2  1  0
 19 21  2  0
 20 16  2  0
 21 28  1  0
 22 27  2  0
 23 18  1  0
 24  5  1  0
 25 16  1  0
 26  7  1  0
 27 23  1  0
 28 23  2  0
 29 10  2  0
 30 11  2  0
 31 13  1  0
 32 15  1  0
 33 14  1  0
 34 26  1  0
 35 29  1  0
 36 37  1  0
 37 32  2  0
 38 30  1  0
 39 34  1  0
 10 11  1  0
  8  6  1  0
 35 38  2  0
  3  7  2  0
 19 22  1  0
 36 31  2  0
 12 40  1  0
 17 41  1  0
 18 42  1  0
 18 43  1  0
 21 44  1  0
 22 45  1  0
 24 46  1  0
 24 47  1  0
 24 48  1  0
 25 49  1  0
 26 50  1  0
 26 51  1  0
 27 52  1  0
 28 53  1  0
 29 54  1  0
 30 55  1  0
 31 56  1  0
 32 57  1  0
 33 58  1  0
 33 59  1  0
 33 60  1  0
 34 61  1  0
 34 62  1  0
 35 63  1  0
 36 64  1  0
 37 65  1  0
 38 66  1  0
 39 67  1  0
 39 68  1  0
 39 69  1  0
M  END
> <Uni-Dock RESULT> 
ENERGY=   -4.109  LOWER_BOUND=    4.411  UPPER_BOUND=    9.333
INTER + INTRA:          -4.109
INTER:                  -4.109
INTRA:                   0.000
UNBOUND:                 0.000

$$$$

     RDKit          3D

 69 74  0  0  0  0  0  0  0  0999 V2000
   21.8971    9.5273   30.5213 C   0  0  0  0  0  0  0  0  0  0  0  0
   25.5029    6.2617   31.8095 N   0  0  0  0  0  0  0  0  0  0  0  0
   24.4599    4.5389   30.8822 N   0  0  0  0  0  0  0  0  0  0  0  0
   20.6975    9.8193   30.9888 N   0  0  0  0  0  0  0  0  0  0  0  0
   22.4450   10.6279   29.8893 N   0  0  0  0  0  0  0  0  0  0  0  0
   24.3287    6.7700   31.2890 C   0  0  0  0  0  0  0  0  0  0  0  0
   25.5377    4.9063   31.5460 C   0  0  0  0  0  0  0  0  0  0  0  0
   23.6955    5.6663   30.7262 C   0  0  0  0  0  0  0  0  0  0  0  0
   22.5303    8.2112   30.6167 C   0  0  0  0  0  0  0  0  0  0  0  0
   21.5674   11.6812   30.0089 C   0  0  0  0  0  0  0  0  0  0  0  0
   20.4844   11.1409   30.6947 C   0  0  0  0  0  0  0  0  0  0  0  0
   23.7700    8.0562   31.2563 C   0  0  0  0  0  0  0  0  0  0  0  0
   32.3737    8.8398   29.8749 C   0  0  0  0  0  0  0  0  0  0  0  0
   22.4374    5.8078   30.1083 C   0  0  0  0  0  0  0  0  0  0  0  0
   31.2233    8.2073   29.3605 C   0  0  0  0  0  0  0  0  0  0  0  0
   32.4504    9.3256   31.2647 C   0  0  0  0  0  0  0  0  0  0  0  0
   21.8741    7.0999   30.0721 C   0  0  0  0  0  0  0  0  0  0  0  0
   26.4986    7.0262   32.5477 C   0  0  0  0  0  0  0  0  0  0  0  0
   30.0289    7.9140   30.1724 C   0  0  0  0  0  0  0  0  0  0  0  0
   33.2936    9.0149   32.0837 O   0  0  0  0  0  0  0  0  0  0  0  0
   30.1053    7.0848   31.3023 C   0  0  0  0  0  0  0  0  0  0  0  0
   28.7769    8.4441   29.8275 C   0  0  0  0  0  0  0  0  0  0  0  0
   27.7208    7.3305   31.7159 C   0  0  0  0  0  0  0  0  0  0  0  0
   23.6991   10.6571   29.1747 C   0  0  0  0  0  0  0  0  0  0  0  0
   31.5019   10.2437   31.5160 O   0  0  0  0  0  0  0  0  0  0  0  0
   26.6576    3.9893   31.9299 C   0  0  0  0  0  0  0  0  0  0  0  0
   27.6384    8.1581   30.5879 C   0  0  0  0  0  0  0  0  0  0  0  0
   28.9700    6.8031   32.0690 C   0  0  0  0  0  0  0  0  0  0  0  0
   21.6016   13.0176   29.5887 C   0  0  0  0  0  0  0  0  0  0  0  0
   19.3751   11.9497   30.9835 C   0  0  0  0  0  0  0  0  0  0  0  0
   33.5142    9.0333   29.0799 C   0  0  0  0  0  0  0  0  0  0  0  0
   31.2510    7.8127   28.0078 C   0  0  0  0  0  0  0  0  0  0  0  0
   21.6933    4.6603   29.4920 C   0  0  0  0  0  0  0  0  0  0  0  0
   26.1778    2.5921   32.3311 C   0  0  0  0  0  0  0  0  0  0  0  0
   20.4864   13.8104   29.8869 C   0  0  0  0  0  0  0  0  0  0  0  0
   33.5122    8.6301   27.7456 C   0  0  0  0  0  0  0  0  0  0  0  0
   32.3792    8.0255   27.2088 C   0  0  0  0  0  0  0  0  0  0  0  0
   19.3888   13.2880   30.5729 C   0  0  0  0  0  0  0  0  0  0  0  0
   25.3833    2.5876   33.6311 C   0  0  0  0  0  0  0  0  0  0  0  0
   24.2664    8.9032   31.7170 H   0  0  0  0  0  0  0  0  0  0  0  0
   20.8982    7.2399   29.6069 H   0  0  0  0  0  0  0  0  0  0  0  0
   26.7479    6.4571   33.4504 H   0  0  0  0  0  0  0  0  0  0  0  0
   26.0461    7.9619   32.8922 H   0  0  0  0  0  0  0  0  0  0  0  0
   31.0576    6.6445   31.5947 H   0  0  0  0  0  0  0  0  0  0  0  0
   28.6815    9.0954   28.9600 H   0  0  0  0  0  0  0  0  0  0  0  0
   23.8253    9.7221   28.6234 H   0  0  0  0  0  0  0  0  0  0  0  0
   23.7011   11.4842   28.4616 H   0  0  0  0  0  0  0  0  0  0  0  0
   24.5037   10.7900   29.9013 H   0  0  0  0  0  0  0  0  0  0  0  0
   31.6578   10.5048   32.4466 H   0  0  0  0  0  0  0  0  0  0  0  0
   27.3258    3.8960   31.0663 H   0  0  0  0  0  0  0  0  0  0  0  0
   27.2518    4.4000   32.7499 H   0  0  0  0  0  0  0  0  0  0  0  0
   26.6866    8.5873   30.2837 H   0  0  0  0  0  0  0  0  0  0  0  0
   29.0764    6.1619   32.9424 H   0  0  0  0  0  0  0  0  0  0  0  0
   22.4482   13.4330   29.0534 H   0  0  0  0  0  0  0  0  0  0  0  0
   18.5269   11.5338   31.5162 H   0  0  0  0  0  0  0  0  0  0  0  0
   34.3988    9.5071   29.4996 H   0  0  0  0  0  0  0  0  0  0  0  0
   30.3878    7.3137   27.5688 H   0  0  0  0  0  0  0  0  0  0  0  0
   22.2046    3.7093   29.6713 H   0  0  0  0  0  0  0  0  0  0  0  0
   20.6887    4.5870   29.9204 H   0  0  0  0  0  0  0  0  0  0  0  0
   21.6115    4.8050   28.4106 H   0  0  0  0  0  0  0  0  0  0  0  0
   27.0550    1.9460   32.4588 H   0  0  0  0  0  0  0  0  0  0  0  0
   25.5723    2.1479   31.5313 H   0  0  0  0  0  0  0  0  0  0  0  0
   20.4760   14.8527   29.5743 H   0  0  0  0  0  0  0  0  0  0  0  0
   34.3924    8.7865   27.1262 H   0  0  0  0  0  0  0  0  0  0  0  0
   32.3731    7.7078   26.1678 H   0  0  0  0  0  0  0  0  0  0  0  0
   18.5331   13.9221   30.7925 H   0  0  0  0  0  0  0  0  0  0  0  0
   24.4548    3.1591   33.5385 H   0  0  0  0  0  0  0  0  0  0  0  0
   25.1176    1.5621   33.9052 H   0  0  0  0  0  0  0  0  0  0  0  0
   25.9703    3.0158   34.4502 H   0  0  0  0  0  0  0  0  0  0  0  0
  2  6  1  0
  3  8  1  0
  4  1  2  0
  5  1  1  0
  6 12  2  0
  7  2  1  0
  8 14  2  0
  9  1  1  0
 10  5  1  0
 11  4  1  0
 12  9  1  0
 13 15  2  0
 14 17  1  0
 15 19  1  0
 16 13  1  0
 17  9  2  0
 18  2  1  0
 19 21  2  0
 20 16  2  0
 21 28  1  0
 22 27  2  0
 23 18  1  0
 24  5  1  0
 25 16  1  0
 26  7  1  0
 27 23  1  0
 28 23  2  0
 29 10  2  0
 30 11  2  0
 31 13  1  0
 32 15  1  0
 33 14  1  0
 34 26  1  0
 35 29  1  0
 36 37  1  0
 37 32  2  0
 38 30  1  0
 39 34  1  0
 10 11  1  0
  8  6  1  0
 35 38  2  0
  3  7  2  0
 19 22  1  0
 36 31  2  0
 12 40  1  0
 17 41  1  0
 18 42  1  0
 18 43  1  0
 21 44  1  0
 22 45  1  0
 24 46  1  0
 24 47  1  0
 24 48  1  0
 25 49  1  0
 26 50  1  0
 26 51  1  0
 27 52  1  0
 28 53  1  0
 29 54  1  0
 30 55  1  0
 31 56  1  0
 32 57  1  0
 33 58  1  0
 33 59  1  0
 33 60  1  0
 34 61  1  0
 34 62  1  0
 35 63  1  0
 36 64  1  0
 37 65  1  0
 38 66  1  0
 39 67  1  0
 39 68  1  0
 39 69  1  0
M  END
> <Uni-Dock RESULT> 
ENERGY=   -4.101  LOWER_BOUND=    3.813  UPPER_BOUND=    7.372
INTER + INTRA:          -4.101
INTER:                  -4.101
INTRA:                   0.000
UNBOUND:                 0.000

$$$$
