
     RDKit          3D

 69 74  0  0  0  0  0  0  0  0999 V2000
   27.3940   12.1100   21.6511 C   0  0  0  0  0  0  0  0  0  0  0  0
   28.3579   12.2107   26.5867 N   0  0  0  0  0  0  0  0  0  0  0  0
   28.3509   14.4255   26.6829 N   0  0  0  0  0  0  0  0  0  0  0  0
   26.2983   12.2815   20.9343 N   0  0  0  0  0  0  0  0  0  0  0  0
   28.2738   11.2778   20.9860 N   0  0  0  0  0  0  0  0  0  0  0  0
   28.1153   12.6395   25.2975 C   0  0  0  0  0  0  0  0  0  0  0  0
   28.5053   13.3248   27.3903 C   0  0  0  0  0  0  0  0  0  0  0  0
   28.0971   14.0275   25.3952 C   0  0  0  0  0  0  0  0  0  0  0  0
   27.6457   12.7446   22.9462 C   0  0  0  0  0  0  0  0  0  0  0  0
   27.6756   10.8521   19.8217 C   0  0  0  0  0  0  0  0  0  0  0  0
   26.4466   11.5032   19.8165 C   0  0  0  0  0  0  0  0  0  0  0  0
   27.8954   11.9660   24.0874 C   0  0  0  0  0  0  0  0  0  0  0  0
   22.6658    9.8246   30.1790 C   0  0  0  0  0  0  0  0  0  0  0  0
   27.8372   14.8156   24.2569 C   0  0  0  0  0  0  0  0  0  0  0  0
   23.8001    9.0151   29.9571 C   0  0  0  0  0  0  0  0  0  0  0  0
   22.5942   11.2356   29.7507 C   0  0  0  0  0  0  0  0  0  0  0  0
   27.6018   14.1417   23.0411 C   0  0  0  0  0  0  0  0  0  0  0  0
   28.4782   10.8220   27.0098 C   0  0  0  0  0  0  0  0  0  0  0  0
   24.9848    9.4659   29.2069 C   0  0  0  0  0  0  0  0  0  0  0  0
   21.6736   11.7420   29.1361 O   0  0  0  0  0  0  0  0  0  0  0  0
   26.2481    9.5119   29.8140 C   0  0  0  0  0  0  0  0  0  0  0  0
   24.8847    9.8484   27.8606 C   0  0  0  0  0  0  0  0  0  0  0  0
   27.2633   10.3438   27.7658 C   0  0  0  0  0  0  0  0  0  0  0  0
   29.6128   10.9383   21.4045 C   0  0  0  0  0  0  0  0  0  0  0  0
   23.6325   11.9495   30.2131 O   0  0  0  0  0  0  0  0  0  0  0  0
   28.7764   13.2632   28.8620 C   0  0  0  0  0  0  0  0  0  0  0  0
   26.0065   10.2843   27.1495 C   0  0  0  0  0  0  0  0  0  0  0  0
   27.3740    9.9392   29.1031 C   0  0  0  0  0  0  0  0  0  0  0  0
   28.0768    9.9908   18.7921 C   0  0  0  0  0  0  0  0  0  0  0  0
   25.5621   11.3050   18.7459 C   0  0  0  0  0  0  0  0  0  0  0  0
   21.5276    9.3141   30.8243 C   0  0  0  0  0  0  0  0  0  0  0  0
   23.7612    7.6940   30.4459 C   0  0  0  0  0  0  0  0  0  0  0  0
   27.7766   16.3143   24.2948 C   0  0  0  0  0  0  0  0  0  0  0  0
   29.1261   14.6291   29.4527 C   0  0  0  0  0  0  0  0  0  0  0  0
   27.1801    9.8022   17.7333 C   0  0  0  0  0  0  0  0  0  0  0  0
   21.5157    8.0014   31.2899 C   0  0  0  0  0  0  0  0  0  0  0  0
   22.6356    7.1947   31.1083 C   0  0  0  0  0  0  0  0  0  0  0  0
   25.9424   10.4477   17.7069 C   0  0  0  0  0  0  0  0  0  0  0  0
   29.4245   14.5292   30.9417 C   0  0  0  0  0  0  0  0  0  0  0  0
   27.8853   10.8828   24.0341 H   0  0  0  0  0  0  0  0  0  0  0  0
   27.3754   14.7245   22.1479 H   0  0  0  0  0  0  0  0  0  0  0  0
   29.3890   10.7450   27.6139 H   0  0  0  0  0  0  0  0  0  0  0  0
   28.6371   10.1911   26.1292 H   0  0  0  0  0  0  0  0  0  0  0  0
   26.3599    9.2282   30.8591 H   0  0  0  0  0  0  0  0  0  0  0  0
   23.9235    9.8144   27.3503 H   0  0  0  0  0  0  0  0  0  0  0  0
   30.2379   10.7672   20.5248 H   0  0  0  0  0  0  0  0  0  0  0  0
   29.5614   10.0315   22.0113 H   0  0  0  0  0  0  0  0  0  0  0  0
   30.0420   11.7621   21.9783 H   0  0  0  0  0  0  0  0  0  0  0  0
   23.4816   12.8539   29.8685 H   0  0  0  0  0  0  0  0  0  0  0  0
   27.8889   12.8709   29.3698 H   0  0  0  0  0  0  0  0  0  0  0  0
   29.6040   12.5703   29.0542 H   0  0  0  0  0  0  0  0  0  0  0  0
   25.8802   10.5864   26.1106 H   0  0  0  0  0  0  0  0  0  0  0  0
   28.3338    9.9675   29.6149 H   0  0  0  0  0  0  0  0  0  0  0  0
   29.0364    9.4858   18.8027 H   0  0  0  0  0  0  0  0  0  0  0  0
   24.6029   11.8106   18.7355 H   0  0  0  0  0  0  0  0  0  0  0  0
   20.6533    9.9459   30.9695 H   0  0  0  0  0  0  0  0  0  0  0  0
   24.6134    7.0324   30.2932 H   0  0  0  0  0  0  0  0  0  0  0  0
   28.4576   16.7402   23.5514 H   0  0  0  0  0  0  0  0  0  0  0  0
   26.7587   16.6536   24.0808 H   0  0  0  0  0  0  0  0  0  0  0  0
   28.0662   16.7018   25.2762 H   0  0  0  0  0  0  0  0  0  0  0  0
   28.2968   15.3301   29.3002 H   0  0  0  0  0  0  0  0  0  0  0  0
   29.9991   15.0495   28.9391 H   0  0  0  0  0  0  0  0  0  0  0  0
   27.4536    9.1401   16.9141 H   0  0  0  0  0  0  0  0  0  0  0  0
   20.6360    7.6101   31.7940 H   0  0  0  0  0  0  0  0  0  0  0  0
   22.6312    6.1689   31.4699 H   0  0  0  0  0  0  0  0  0  0  0  0
   25.2639   10.2847   16.8728 H   0  0  0  0  0  0  0  0  0  0  0  0
   30.2718   13.8604   31.1270 H   0  0  0  0  0  0  0  0  0  0  0  0
   29.6749   15.5153   31.3461 H   0  0  0  0  0  0  0  0  0  0  0  0
   28.5571   14.1466   31.4898 H   0  0  0  0  0  0  0  0  0  0  0  0
  2  6  1  0
  3  8  1  0
  4  1  2  0
  5  1  1  0
  6 12  2  0
  7  2  1  0
  8 14  2  0
  9  1  1  0
 10  5  1  0
 11  4  1  0
 12  9  1  0
 13 15  2  0
 14 17  1  0
 15 19  1  0
 16 13  1  0
 17  9  2  0
 18  2  1  0
 19 21  2  0
 20 16  2  0
 21 28  1  0
 22 27  2  0
 23 18  1  0
 24  5  1  0
 25 16  1  0
 26  7  1  0
 27 23  1  0
 28 23  2  0
 29 10  2  0
 30 11  2  0
 31 13  1  0
 32 15  1  0
 33 14  1  0
 34 26  1  0
 35 29  1  0
 36 37  1  0
 37 32  2  0
 38 30  1  0
 39 34  1  0
 10 11  1  0
  8  6  1  0
 35 38  2  0
  3  7  2  0
 19 22  1  0
 36 31  2  0
 12 40  1  0
 17 41  1  0
 18 42  1  0
 18 43  1  0
 21 44  1  0
 22 45  1  0
 24 46  1  0
 24 47  1  0
 24 48  1  0
 25 49  1  0
 26 50  1  0
 26 51  1  0
 27 52  1  0
 28 53  1  0
 29 54  1  0
 30 55  1  0
 31 56  1  0
 32 57  1  0
 33 58  1  0
 33 59  1  0
 33 60  1  0
 34 61  1  0
 34 62  1  0
 35 63  1  0
 36 64  1  0
 37 65  1  0
 38 66  1  0
 39 67  1  0
 39 68  1  0
 39 69  1  0
M  END
> <Uni-Dock RESULT> 
ENERGY=   -4.923  LOWER_BOUND=    0.000  UPPER_BOUND=    0.000
INTER + INTRA:          -4.923
INTER:                  -4.923
INTRA:                   0.000
UNBOUND:                 0.000

$$$$

     RDKit          3D

 69 74  0  0  0  0  0  0  0  0999 V2000
   27.3796   12.1103   21.6716 C   0  0  0  0  0  0  0  0  0  0  0  0
   28.3366   12.2113   26.6084 N   0  0  0  0  0  0  0  0  0  0  0  0
   28.3243   14.4261   26.7055 N   0  0  0  0  0  0  0  0  0  0  0  0
   26.2845   12.2795   20.9534 N   0  0  0  0  0  0  0  0  0  0  0  0
   28.2623   11.2804   21.0073 N   0  0  0  0  0  0  0  0  0  0  0  0
   28.0948   12.6401   25.3192 C   0  0  0  0  0  0  0  0  0  0  0  0
   28.4803   13.3255   27.4127 C   0  0  0  0  0  0  0  0  0  0  0  0
   28.0732   14.0280   25.4173 C   0  0  0  0  0  0  0  0  0  0  0  0
   27.6281   12.7449   22.9672 C   0  0  0  0  0  0  0  0  0  0  0  0
   27.6666   10.8537   19.8420 C   0  0  0  0  0  0  0  0  0  0  0  0
   26.4361   11.5020   19.8355 C   0  0  0  0  0  0  0  0  0  0  0  0
   27.8781   11.9665   24.1085 C   0  0  0  0  0  0  0  0  0  0  0  0
   22.6454    9.8105   30.1922 C   0  0  0  0  0  0  0  0  0  0  0  0
   27.8130   14.8160   24.2790 C   0  0  0  0  0  0  0  0  0  0  0  0
   23.7819    9.0038   29.9716 C   0  0  0  0  0  0  0  0  0  0  0  0
   22.5710   11.2215   29.7644 C   0  0  0  0  0  0  0  0  0  0  0  0
   27.5808   14.1420   23.0626 C   0  0  0  0  0  0  0  0  0  0  0  0
   28.4596   10.8228   27.0313 C   0  0  0  0  0  0  0  0  0  0  0  0
   24.9665    9.4576   29.2231 C   0  0  0  0  0  0  0  0  0  0  0  0
   21.6501   11.7260   29.1487 O   0  0  0  0  0  0  0  0  0  0  0  0
   26.2288    9.5064   29.8319 C   0  0  0  0  0  0  0  0  0  0  0  0
   24.8673    9.8404   27.8768 C   0  0  0  0  0  0  0  0  0  0  0  0
   27.2448   10.3414   27.7854 C   0  0  0  0  0  0  0  0  0  0  0  0
   29.6014   10.9439   21.4275 C   0  0  0  0  0  0  0  0  0  0  0  0
   23.6070   11.9376   30.2285 O   0  0  0  0  0  0  0  0  0  0  0  0
   28.7496   13.2640   28.8848 C   0  0  0  0  0  0  0  0  0  0  0  0
   25.9890   10.2792   27.1674 C   0  0  0  0  0  0  0  0  0  0  0  0
   27.3547    9.9366   29.1227 C   0  0  0  0  0  0  0  0  0  0  0  0
   28.0712    9.9938   18.8127 C   0  0  0  0  0  0  0  0  0  0  0  0
   25.5535   11.3021   18.7636 C   0  0  0  0  0  0  0  0  0  0  0  0
   21.5075    9.2971   30.8358 C   0  0  0  0  0  0  0  0  0  0  0  0
   23.7454    7.6824   30.4598 C   0  0  0  0  0  0  0  0  0  0  0  0
   27.7488   16.3144   24.3173 C   0  0  0  0  0  0  0  0  0  0  0  0
   29.0954   14.6304   29.4764 C   0  0  0  0  0  0  0  0  0  0  0  0
   27.1763    9.8035   17.7526 C   0  0  0  0  0  0  0  0  0  0  0  0
   21.4980    7.9842   31.3009 C   0  0  0  0  0  0  0  0  0  0  0  0
   22.6201    7.1802   31.1205 C   0  0  0  0  0  0  0  0  0  0  0  0
   25.9373   10.4461   17.7248 C   0  0  0  0  0  0  0  0  0  0  0  0
   29.3920   14.5307   30.9658 C   0  0  0  0  0  0  0  0  0  0  0  0
   27.8706   10.8833   24.0547 H   0  0  0  0  0  0  0  0  0  0  0  0
   27.3542   14.7246   22.1693 H   0  0  0  0  0  0  0  0  0  0  0  0
   29.3698   10.7477   27.6365 H   0  0  0  0  0  0  0  0  0  0  0  0
   28.6212   10.1926   26.1506 H   0  0  0  0  0  0  0  0  0  0  0  0
   26.3399    9.2226   30.8771 H   0  0  0  0  0  0  0  0  0  0  0  0
   23.9068    9.8044   27.3652 H   0  0  0  0  0  0  0  0  0  0  0  0
   30.2281   10.7746   20.5486 H   0  0  0  0  0  0  0  0  0  0  0  0
   29.5514   10.0367   22.0339 H   0  0  0  0  0  0  0  0  0  0  0  0
   30.0280   11.7685   22.0022 H   0  0  0  0  0  0  0  0  0  0  0  0
   23.4545   12.8419   29.8839 H   0  0  0  0  0  0  0  0  0  0  0  0
   27.8624   12.8694   29.3912 H   0  0  0  0  0  0  0  0  0  0  0  0
   29.5786   12.5729   29.0778 H   0  0  0  0  0  0  0  0  0  0  0  0
   25.8634   10.5814   26.1285 H   0  0  0  0  0  0  0  0  0  0  0  0
   28.3138    9.9669   29.6358 H   0  0  0  0  0  0  0  0  0  0  0  0
   29.0320    9.4911   18.8244 H   0  0  0  0  0  0  0  0  0  0  0  0
   24.5931   11.8055   18.7521 H   0  0  0  0  0  0  0  0  0  0  0  0
   20.6316    9.9268   30.9801 H   0  0  0  0  0  0  0  0  0  0  0  0
   24.5994    7.0229   30.3080 H   0  0  0  0  0  0  0  0  0  0  0  0
   28.4299   16.7423   23.5751 H   0  0  0  0  0  0  0  0  0  0  0  0
   26.7304   16.6514   24.1021 H   0  0  0  0  0  0  0  0  0  0  0  0
   28.0361   16.7022   25.2993 H   0  0  0  0  0  0  0  0  0  0  0  0
   28.2646   15.3296   29.3231 H   0  0  0  0  0  0  0  0  0  0  0  0
   29.9680   15.0531   28.9642 H   0  0  0  0  0  0  0  0  0  0  0  0
   27.4525    9.1423   16.9335 H   0  0  0  0  0  0  0  0  0  0  0  0
   20.6186    7.5906   31.8037 H   0  0  0  0  0  0  0  0  0  0  0  0
   22.6175    6.1542   31.4817 H   0  0  0  0  0  0  0  0  0  0  0  0
   25.2602   10.2818   16.8897 H   0  0  0  0  0  0  0  0  0  0  0  0
   30.2406   13.8638   31.1520 H   0  0  0  0  0  0  0  0  0  0  0  0
   29.6396   15.5172   31.3709 H   0  0  0  0  0  0  0  0  0  0  0  0
   28.5248   14.1458   31.5126 H   0  0  0  0  0  0  0  0  0  0  0  0
  2  6  1  0
  3  8  1  0
  4  1  2  0
  5  1  1  0
  6 12  2  0
  7  2  1  0
  8 14  2  0
  9  1  1  0
 10  5  1  0
 11  4  1  0
 12  9  1  0
 13 15  2  0
 14 17  1  0
 15 19  1  0
 16 13  1  0
 17  9  2  0
 18  2  1  0
 19 21  2  0
 20 16  2  0
 21 28  1  0
 22 27  2  0
 23 18  1  0
 24  5  1  0
 25 16  1  0
 26  7  1  0
 27 23  1  0
 28 23  2  0
 29 10  2  0
 30 11  2  0
 31 13  1  0
 32 15  1  0
 33 14  1  0
 34 26  1  0
 35 29  1  0
 36 37  1  0
 37 32  2  0
 38 30  1  0
 39 34  1  0
 10 11  1  0
  8  6  1  0
 35 38  2  0
  3  7  2  0
 19 22  1  0
 36 31  2  0
 12 40  1  0
 17 41  1  0
 18 42  1  0
 18 43  1  0
 21 44  1  0
 22 45  1  0
 24 46  1  0
 24 47  1  0
 24 48  1  0
 25 49  1  0
 26 50  1  0
 26 51  1  0
 27 52  1  0
 28 53  1  0
 29 54  1  0
 30 55  1  0
 31 56  1  0
 32 57  1  0
 33 58  1  0
 33 59  1  0
 33 60  1  0
 34 61  1  0
 34 62  1  0
 35 63  1  0
 36 64  1  0
 37 65  1  0
 38 66  1  0
 39 67  1  0
 39 68  1  0
 39 69  1  0
M  END
> <Uni-Dock RESULT> 
ENERGY=   -4.919  LOWER_BOUND=    0.028  UPPER_BOUND=    0.028
INTER + INTRA:          -4.919
INTER:                  -4.919
INTRA:                   0.000
UNBOUND:                 0.000

$$$$

     RDKit          3D

 69 74  0  0  0  0  0  0  0  0999 V2000
   27.2330   12.1111   21.4912 C   0  0  0  0  0  0  0  0  0  0  0  0
   28.3149   12.2944   26.3999 N   0  0  0  0  0  0  0  0  0  0  0  0
   28.2600   14.5095   26.4701 N   0  0  0  0  0  0  0  0  0  0  0  0
   26.1165   12.2492   20.7998 N   0  0  0  0  0  0  0  0  0  0  0  0
   28.1150   11.2907   20.8144 N   0  0  0  0  0  0  0  0  0  0  0  0
   28.0312   12.7018   25.1122 C   0  0  0  0  0  0  0  0  0  0  0  0
   28.4566   13.4214   27.1864 C   0  0  0  0  0  0  0  0  0  0  0  0
   27.9838   14.0900   25.1938 C   0  0  0  0  0  0  0  0  0  0  0  0
   27.5019   12.7672   22.7721 C   0  0  0  0  0  0  0  0  0  0  0  0
   27.4982   10.8373   19.6703 C   0  0  0  0  0  0  0  0  0  0  0  0
   26.2551   11.4606   19.6879 C   0  0  0  0  0  0  0  0  0  0  0  0
   27.7971   12.0086   23.9159 C   0  0  0  0  0  0  0  0  0  0  0  0
   22.7681    9.8260   30.1599 C   0  0  0  0  0  0  0  0  0  0  0  0
   27.6784   14.8581   24.0531 C   0  0  0  0  0  0  0  0  0  0  0  0
   23.9148    9.0395   29.9196 C   0  0  0  0  0  0  0  0  0  0  0  0
   22.6541   11.2297   29.7169 C   0  0  0  0  0  0  0  0  0  0  0  0
   27.4286   14.1641   22.8515 C   0  0  0  0  0  0  0  0  0  0  0  0
   28.4770   10.9141   26.8363 C   0  0  0  0  0  0  0  0  0  0  0  0
   25.0702    9.5074   29.1350 C   0  0  0  0  0  0  0  0  0  0  0  0
   21.7075   11.7077   29.1193 O   0  0  0  0  0  0  0  0  0  0  0  0
   26.3465    9.5892   29.7101 C   0  0  0  0  0  0  0  0  0  0  0  0
   24.9285    9.8709   27.7872 C   0  0  0  0  0  0  0  0  0  0  0  0
   27.2922   10.4182   27.6277 C   0  0  0  0  0  0  0  0  0  0  0  0
   29.4711   10.9865   21.2036 C   0  0  0  0  0  0  0  0  0  0  0  0
   23.6868   11.9723   30.1450 O   0  0  0  0  0  0  0  0  0  0  0  0
   28.7650   13.3841   28.6516 C   0  0  0  0  0  0  0  0  0  0  0  0
   26.0223   10.3230   27.0434 C   0  0  0  0  0  0  0  0  0  0  0  0
   27.4447   10.0328   28.9666 C   0  0  0  0  0  0  0  0  0  0  0  0
   27.8935    9.9726   18.6414 C   0  0  0  0  0  0  0  0  0  0  0  0
   25.3493   11.2295   18.6420 C   0  0  0  0  0  0  0  0  0  0  0  0
   21.6580    9.2982   30.8392 C   0  0  0  0  0  0  0  0  0  0  0  0
   23.9178    7.7240   30.4248 C   0  0  0  0  0  0  0  0  0  0  0  0
   27.5847   16.3553   24.0748 C   0  0  0  0  0  0  0  0  0  0  0  0
   29.0980   14.7647   29.2172 C   0  0  0  0  0  0  0  0  0  0  0  0
   26.9757    9.7509   17.6074 C   0  0  0  0  0  0  0  0  0  0  0  0
   21.6872    7.9914   31.3204 C   0  0  0  0  0  0  0  0  0  0  0  0
   22.8204    7.2078   31.1207 C   0  0  0  0  0  0  0  0  0  0  0  0
   25.7235   10.3682   17.6041 C   0  0  0  0  0  0  0  0  0  0  0  0
   29.4349   14.6900   30.6995 C   0  0  0  0  0  0  0  0  0  0  0  0
   27.8103   10.9248   23.8756 H   0  0  0  0  0  0  0  0  0  0  0  0
   27.1673   14.7305   21.9574 H   0  0  0  0  0  0  0  0  0  0  0  0
   29.4039   10.8651   27.4185 H   0  0  0  0  0  0  0  0  0  0  0  0
   28.6287   10.2761   25.9595 H   0  0  0  0  0  0  0  0  0  0  0  0
   26.4903    9.3210   30.7554 H   0  0  0  0  0  0  0  0  0  0  0  0
   23.9561    9.8091   27.3013 H   0  0  0  0  0  0  0  0  0  0  0  0
   30.0782   10.8186   20.3108 H   0  0  0  0  0  0  0  0  0  0  0  0
   29.4552   10.0864   21.8222 H   0  0  0  0  0  0  0  0  0  0  0  0
   29.8955   11.8267   21.7569 H   0  0  0  0  0  0  0  0  0  0  0  0
   23.5071   12.8688   29.7935 H   0  0  0  0  0  0  0  0  0  0  0  0
   27.8993   12.9783   29.1857 H   0  0  0  0  0  0  0  0  0  0  0  0
   29.6126   12.7124   28.8314 H   0  0  0  0  0  0  0  0  0  0  0  0
   25.8638   10.6093   26.0045 H   0  0  0  0  0  0  0  0  0  0  0  0
   28.4159   10.0889   29.4541 H   0  0  0  0  0  0  0  0  0  0  0  0
   28.8643    9.4894   18.6342 H   0  0  0  0  0  0  0  0  0  0  0  0
   24.3789   11.7133   18.6493 H   0  0  0  0  0  0  0  0  0  0  0  0
   20.7734    9.9120   30.9985 H   0  0  0  0  0  0  0  0  0  0  0  0
   24.7808    7.0799   30.2588 H   0  0  0  0  0  0  0  0  0  0  0  0
   28.2375   16.7872   23.3098 H   0  0  0  0  0  0  0  0  0  0  0  0
   26.5544   16.6691   23.8821 H   0  0  0  0  0  0  0  0  0  0  0  0
   27.8894   16.7613   25.0441 H   0  0  0  0  0  0  0  0  0  0  0  0
   28.2495   15.4450   29.0770 H   0  0  0  0  0  0  0  0  0  0  0  0
   29.9483   15.1982   28.6773 H   0  0  0  0  0  0  0  0  0  0  0  0
   27.2440    9.0850   16.7896 H   0  0  0  0  0  0  0  0  0  0  0  0
   20.8292    7.5868   31.8507 H   0  0  0  0  0  0  0  0  0  0  0  0
   22.8481    6.1867   31.4944 H   0  0  0  0  0  0  0  0  0  0  0  0
   25.0286   10.1796   16.7890 H   0  0  0  0  0  0  0  0  0  0  0  0
   30.3015   14.0427   30.8717 H   0  0  0  0  0  0  0  0  0  0  0  0
   29.6728   15.6863   31.0859 H   0  0  0  0  0  0  0  0  0  0  0  0
   28.5901   14.2948   31.2734 H   0  0  0  0  0  0  0  0  0  0  0  0
  2  6  1  0
  3  8  1  0
  4  1  2  0
  5  1  1  0
  6 12  2  0
  7  2  1  0
  8 14  2  0
  9  1  1  0
 10  5  1  0
 11  4  1  0
 12  9  1  0
 13 15  2  0
 14 17  1  0
 15 19  1  0
 16 13  1  0
 17  9  2  0
 18  2  1  0
 19 21  2  0
 20 16  2  0
 21 28  1  0
 22 27  2  0
 23 18  1  0
 24  5  1  0
 25 16  1  0
 26  7  1  0
 27 23  1  0
 28 23  2  0
 29 10  2  0
 30 11  2  0
 31 13  1  0
 32 15  1  0
 33 14  1  0
 34 26  1  0
 35 29  1  0
 36 37  1  0
 37 32  2  0
 38 30  1  0
 39 34  1  0
 10 11  1  0
  8  6  1  0
 35 38  2  0
  3  7  2  0
 19 22  1  0
 36 31  2  0
 12 40  1  0
 17 41  1  0
 18 42  1  0
 18 43  1  0
 21 44  1  0
 22 45  1  0
 24 46  1  0
 24 47  1  0
 24 48  1  0
 25 49  1  0
 26 50  1  0
 26 51  1  0
 27 52  1  0
 28 53  1  0
 29 54  1  0
 30 55  1  0
 31 56  1  0
 32 57  1  0
 33 58  1  0
 33 59  1  0
 33 60  1  0
 34 61  1  0
 34 62  1  0
 35 63  1  0
 36 64  1  0
 37 65  1  0
 38 66  1  0
 39 67  1  0
 39 68  1  0
 39 69  1  0
M  END
> <Uni-Dock RESULT> 
ENERGY=   -4.857  LOWER_BOUND=    0.207  UPPER_BOUND=    0.207
INTER + INTRA:          -4.857
INTER:                  -4.857
INTRA:                   0.000
UNBOUND:                 0.000

$$$$

     RDKit          3D

 69 74  0  0  0  0  0  0  0  0999 V2000
   30.4115   11.7228   21.6675 C   0  0  0  0  0  0  0  0  0  0  0  0
   31.4050   14.2470   25.9030 N   0  0  0  0  0  0  0  0  0  0  0  0
   29.3612   13.9647   26.7140 N   0  0  0  0  0  0  0  0  0  0  0  0
   30.3168   10.4387   21.3745 N   0  0  0  0  0  0  0  0  0  0  0  0
   30.8068   12.4384   20.5536 N   0  0  0  0  0  0  0  0  0  0  0  0
   30.7177   13.5330   24.9426 C   0  0  0  0  0  0  0  0  0  0  0  0
   30.5425   14.4965   26.9531 C   0  0  0  0  0  0  0  0  0  0  0  0
   29.4501   13.3555   25.4883 C   0  0  0  0  0  0  0  0  0  0  0  0
   30.1038   12.2995   22.9774 C   0  0  0  0  0  0  0  0  0  0  0  0
   31.0351   11.5528   19.5249 C   0  0  0  0  0  0  0  0  0  0  0  0
   30.7125   10.3141   20.0686 C   0  0  0  0  0  0  0  0  0  0  0  0
   31.0770   13.0197   23.6881 C   0  0  0  0  0  0  0  0  0  0  0  0
   35.9241   10.4611   29.9332 C   0  0  0  0  0  0  0  0  0  0  0  0
   28.4710   12.6256   24.7863 C   0  0  0  0  0  0  0  0  0  0  0  0
   36.3566   11.5582   29.1583 C   0  0  0  0  0  0  0  0  0  0  0  0
   34.5075   10.0560   30.0252 C   0  0  0  0  0  0  0  0  0  0  0  0
   28.8328   12.0958   23.5307 C   0  0  0  0  0  0  0  0  0  0  0  0
   32.7880   14.6928   25.8004 C   0  0  0  0  0  0  0  0  0  0  0  0
   35.4583   12.3517   28.3022 C   0  0  0  0  0  0  0  0  0  0  0  0
   34.0858    8.9226   29.8858 O   0  0  0  0  0  0  0  0  0  0  0  0
   35.2812   13.7254   28.5211 C   0  0  0  0  0  0  0  0  0  0  0  0
   34.7658   11.7580   27.2360 C   0  0  0  0  0  0  0  0  0  0  0  0
   33.7207   13.8768   26.6610 C   0  0  0  0  0  0  0  0  0  0  0  0
   30.9223   13.8737   20.4554 C   0  0  0  0  0  0  0  0  0  0  0  0
   33.7200   11.0789   30.3923 O   0  0  0  0  0  0  0  0  0  0  0  0
   30.9283   15.2467   28.1907 C   0  0  0  0  0  0  0  0  0  0  0  0
   33.9064   12.5079   26.4277 C   0  0  0  0  0  0  0  0  0  0  0  0
   34.4289   14.4804   27.7091 C   0  0  0  0  0  0  0  0  0  0  0  0
   31.4726   11.7049   18.2027 C   0  0  0  0  0  0  0  0  0  0  0  0
   30.8199    9.1608   19.2772 C   0  0  0  0  0  0  0  0  0  0  0  0
   36.8396    9.6844   30.6621 C   0  0  0  0  0  0  0  0  0  0  0  0
   37.7312   11.8678   29.1807 C   0  0  0  0  0  0  0  0  0  0  0  0
   27.0939   12.3733   25.3256 C   0  0  0  0  0  0  0  0  0  0  0  0
   29.7263   15.5794   29.0748 C   0  0  0  0  0  0  0  0  0  0  0  0
   31.5771   10.5429   17.4283 C   0  0  0  0  0  0  0  0  0  0  0  0
   38.1938   10.0103   30.6588 C   0  0  0  0  0  0  0  0  0  0  0  0
   38.6378   11.1070   29.9252 C   0  0  0  0  0  0  0  0  0  0  0  0
   31.2561    9.2898   17.9534 C   0  0  0  0  0  0  0  0  0  0  0  0
   30.1461   16.3661   30.3081 C   0  0  0  0  0  0  0  0  0  0  0  0
   32.0781   13.1430   23.2895 H   0  0  0  0  0  0  0  0  0  0  0  0
   28.1031   11.5070   22.9743 H   0  0  0  0  0  0  0  0  0  0  0  0
   32.8076   15.7538   26.0729 H   0  0  0  0  0  0  0  0  0  0  0  0
   33.1064   14.6363   24.7544 H   0  0  0  0  0  0  0  0  0  0  0  0
   35.7983   14.2162   29.3438 H   0  0  0  0  0  0  0  0  0  0  0  0
   34.8867   10.6965   27.0261 H   0  0  0  0  0  0  0  0  0  0  0  0
   30.7020   14.1886   19.4326 H   0  0  0  0  0  0  0  0  0  0  0  0
   31.9437   14.1533   20.7231 H   0  0  0  0  0  0  0  0  0  0  0  0
   30.2042   14.3503   21.1259 H   0  0  0  0  0  0  0  0  0  0  0  0
   32.8178   10.6980   30.4164 H   0  0  0  0  0  0  0  0  0  0  0  0
   31.6379   14.6419   28.7651 H   0  0  0  0  0  0  0  0  0  0  0  0
   31.4337   16.1790   27.9124 H   0  0  0  0  0  0  0  0  0  0  0  0
   33.3770   12.0031   25.6206 H   0  0  0  0  0  0  0  0  0  0  0  0
   34.3141   15.5419   27.9188 H   0  0  0  0  0  0  0  0  0  0  0  0
   31.7231   12.6739   17.7852 H   0  0  0  0  0  0  0  0  0  0  0  0
   30.5688    8.1922   19.6949 H   0  0  0  0  0  0  0  0  0  0  0  0
   36.4920    8.8292   31.2386 H   0  0  0  0  0  0  0  0  0  0  0  0
   38.1097   12.7041   28.5937 H   0  0  0  0  0  0  0  0  0  0  0  0
   26.3384   12.7026   24.6054 H   0  0  0  0  0  0  0  0  0  0  0  0
   26.9579   11.3054   25.5210 H   0  0  0  0  0  0  0  0  0  0  0  0
   26.9249   12.9155   26.2608 H   0  0  0  0  0  0  0  0  0  0  0  0
   29.2243   14.6575   29.3921 H   0  0  0  0  0  0  0  0  0  0  0  0
   28.9923   16.1648   28.5083 H   0  0  0  0  0  0  0  0  0  0  0  0
   31.9143   10.6181   16.3963 H   0  0  0  0  0  0  0  0  0  0  0  0
   38.8997    9.4114   31.2281 H   0  0  0  0  0  0  0  0  0  0  0  0
   39.6943   11.3655   29.9193 H   0  0  0  0  0  0  0  0  0  0  0  0
   31.3454    8.4024   17.3310 H   0  0  0  0  0  0  0  0  0  0  0  0
   30.6225   17.3111   30.0260 H   0  0  0  0  0  0  0  0  0  0  0  0
   29.2730   16.5970   30.9270 H   0  0  0  0  0  0  0  0  0  0  0  0
   30.8528   15.7920   30.9167 H   0  0  0  0  0  0  0  0  0  0  0  0
  2  6  1  0
  3  8  1  0
  4  1  2  0
  5  1  1  0
  6 12  2  0
  7  2  1  0
  8 14  2  0
  9  1  1  0
 10  5  1  0
 11  4  1  0
 12  9  1  0
 13 15  2  0
 14 17  1  0
 15 19  1  0
 16 13  1  0
 17  9  2  0
 18  2  1  0
 19 21  2  0
 20 16  2  0
 21 28  1  0
 22 27  2  0
 23 18  1  0
 24  5  1  0
 25 16  1  0
 26  7  1  0
 27 23  1  0
 28 23  2  0
 29 10  2  0
 30 11  2  0
 31 13  1  0
 32 15  1  0
 33 14  1  0
 34 26  1  0
 35 29  1  0
 36 37  1  0
 37 32  2  0
 38 30  1  0
 39 34  1  0
 10 11  1  0
  8  6  1  0
 35 38  2  0
  3  7  2  0
 19 22  1  0
 36 31  2  0
 12 40  1  0
 17 41  1  0
 18 42  1  0
 18 43  1  0
 21 44  1  0
 22 45  1  0
 24 46  1  0
 24 47  1  0
 24 48  1  0
 25 49  1  0
 26 50  1  0
 26 51  1  0
 27 52  1  0
 28 53  1  0
 29 54  1  0
 30 55  1  0
 31 56  1  0
 32 57  1  0
 33 58  1  0
 33 59  1  0
 33 60  1  0
 34 61  1  0
 34 62  1  0
 35 63  1  0
 36 64  1  0
 37 65  1  0
 38 66  1  0
 39 67  1  0
 39 68  1  0
 39 69  1  0
M  END
> <Uni-Dock RESULT> 
ENERGY=   -4.628  LOWER_BOUND=    5.349  UPPER_BOUND=    8.124
INTER + INTRA:          -4.628
INTER:                  -4.628
INTRA:                   0.000
UNBOUND:                 0.000

$$$$

     RDKit          3D

 69 74  0  0  0  0  0  0  0  0999 V2000
   28.4182   11.6484   22.2786 C   0  0  0  0  0  0  0  0  0  0  0  0
   27.8876   13.3776   26.9719 N   0  0  0  0  0  0  0  0  0  0  0  0
   26.2049   14.7176   26.4352 N   0  0  0  0  0  0  0  0  0  0  0  0
   27.7562   10.7647   21.5542 N   0  0  0  0  0  0  0  0  0  0  0  0
   29.7359   11.7109   21.8679 N   0  0  0  0  0  0  0  0  0  0  0  0
   27.6913   13.2059   25.6167 C   0  0  0  0  0  0  0  0  0  0  0  0
   26.9736   14.3097   27.4244 C   0  0  0  0  0  0  0  0  0  0  0  0
   26.6201   14.0418   25.3163 C   0  0  0  0  0  0  0  0  0  0  0  0
   27.8231   12.4657   23.3374 C   0  0  0  0  0  0  0  0  0  0  0  0
   29.9293   10.7733   20.8788 C   0  0  0  0  0  0  0  0  0  0  0  0
   28.6719   10.2058   20.7019 C   0  0  0  0  0  0  0  0  0  0  0  0
   28.3173   12.4059   24.6500 C   0  0  0  0  0  0  0  0  0  0  0  0
   25.3302    8.1845   31.1538 C   0  0  0  0  0  0  0  0  0  0  0  0
   26.1116   14.1000   24.0039 C   0  0  0  0  0  0  0  0  0  0  0  0
   26.6954    8.5412   31.1590 C   0  0  0  0  0  0  0  0  0  0  0  0
   24.3212    8.8947   30.3432 C   0  0  0  0  0  0  0  0  0  0  0  0
   26.7294   13.2866   23.0320 C   0  0  0  0  0  0  0  0  0  0  0  0
   28.9115   12.7178   27.7707 C   0  0  0  0  0  0  0  0  0  0  0  0
   27.2626    9.5941   30.2991 C   0  0  0  0  0  0  0  0  0  0  0  0
   23.4966    8.3671   29.6198 O   0  0  0  0  0  0  0  0  0  0  0  0
   27.8904   10.7181   30.8548 C   0  0  0  0  0  0  0  0  0  0  0  0
   27.2026    9.4948   28.9008 C   0  0  0  0  0  0  0  0  0  0  0  0
   28.3448   11.6260   28.6441 C   0  0  0  0  0  0  0  0  0  0  0  0
   30.7403   12.6277   22.3514 C   0  0  0  0  0  0  0  0  0  0  0  0
   24.3391   10.2169   30.5728 O   0  0  0  0  0  0  0  0  0  0  0  0
   26.8737   14.7578   28.8501 C   0  0  0  0  0  0  0  0  0  0  0  0
   27.7330   10.4971   28.0833 C   0  0  0  0  0  0  0  0  0  0  0  0
   28.4297   11.7185   30.0400 C   0  0  0  0  0  0  0  0  0  0  0  0
   31.0467   10.3778   20.1320 C   0  0  0  0  0  0  0  0  0  0  0  0
   28.4951    9.1991   19.7411 C   0  0  0  0  0  0  0  0  0  0  0  0
   24.8595    7.1124   31.9295 C   0  0  0  0  0  0  0  0  0  0  0  0
   27.5547    7.8100   32.0032 C   0  0  0  0  0  0  0  0  0  0  0  0
   24.9438   14.9580   23.6152 C   0  0  0  0  0  0  0  0  0  0  0  0
   25.9441   15.9586   29.0248 C   0  0  0  0  0  0  0  0  0  0  0  0
   30.8526    9.3696   19.1799 C   0  0  0  0  0  0  0  0  0  0  0  0
   25.7344    6.4030   32.7487 C   0  0  0  0  0  0  0  0  0  0  0  0
   27.0799    6.7576   32.7919 C   0  0  0  0  0  0  0  0  0  0  0  0
   29.5985    8.7881   18.9844 C   0  0  0  0  0  0  0  0  0  0  0  0
   25.8862   16.4081   30.4776 C   0  0  0  0  0  0  0  0  0  0  0  0
   29.1331   11.7389   24.9066 H   0  0  0  0  0  0  0  0  0  0  0  0
   26.3430   13.2934   22.0126 H   0  0  0  0  0  0  0  0  0  0  0  0
   29.4109   13.4932   28.3621 H   0  0  0  0  0  0  0  0  0  0  0  0
   29.6726   12.2996   27.1038 H   0  0  0  0  0  0  0  0  0  0  0  0
   27.9484   10.8297   31.9362 H   0  0  0  0  0  0  0  0  0  0  0  0
   26.7345    8.6312   28.4313 H   0  0  0  0  0  0  0  0  0  0  0  0
   31.4495   12.8481   21.5501 H   0  0  0  0  0  0  0  0  0  0  0  0
   31.2564   12.1572   23.1913 H   0  0  0  0  0  0  0  0  0  0  0  0
   30.2699   13.5625   22.6632 H   0  0  0  0  0  0  0  0  0  0  0  0
   23.6415   10.5775   29.9871 H   0  0  0  0  0  0  0  0  0  0  0  0
   26.5014   13.9261   29.4577 H   0  0  0  0  0  0  0  0  0  0  0  0
   27.8704   15.0226   29.2224 H   0  0  0  0  0  0  0  0  0  0  0  0
   27.6507   10.3865   27.0029 H   0  0  0  0  0  0  0  0  0  0  0  0
   28.9010   12.5780   30.5126 H   0  0  0  0  0  0  0  0  0  0  0  0
   32.0245   10.8243   20.2755 H   0  0  0  0  0  0  0  0  0  0  0  0
   27.5170    8.7534   19.5976 H   0  0  0  0  0  0  0  0  0  0  0  0
   23.8068    6.8374   31.8984 H   0  0  0  0  0  0  0  0  0  0  0  0
   28.6174    8.0486   32.0356 H   0  0  0  0  0  0  0  0  0  0  0  0
   25.2121   15.6053   22.7744 H   0  0  0  0  0  0  0  0  0  0  0  0
   24.0971   14.3291   23.3245 H   0  0  0  0  0  0  0  0  0  0  0  0
   24.6248   15.5984   24.4431 H   0  0  0  0  0  0  0  0  0  0  0  0
   24.9318   15.7047   28.6883 H   0  0  0  0  0  0  0  0  0  0  0  0
   26.2875   16.7946   28.4039 H   0  0  0  0  0  0  0  0  0  0  0  0
   31.6957    9.0333   18.5796 H   0  0  0  0  0  0  0  0  0  0  0  0
   25.3670    5.5774   33.3525 H   0  0  0  0  0  0  0  0  0  0  0  0
   27.7672    6.2067   33.4300 H   0  0  0  0  0  0  0  0  0  0  0  0
   29.4740    8.0068   18.2381 H   0  0  0  0  0  0  0  0  0  0  0  0
   26.8787   16.7015   30.8363 H   0  0  0  0  0  0  0  0  0  0  0  0
   25.2186   17.2694   30.5827 H   0  0  0  0  0  0  0  0  0  0  0  0
   25.5107   15.6055   31.1210 H   0  0  0  0  0  0  0  0  0  0  0  0
  2  6  1  0
  3  8  1  0
  4  1  2  0
  5  1  1  0
  6 12  2  0
  7  2  1  0
  8 14  2  0
  9  1  1  0
 10  5  1  0
 11  4  1  0
 12  9  1  0
 13 15  2  0
 14 17  1  0
 15 19  1  0
 16 13  1  0
 17  9  2  0
 18  2  1  0
 19 21  2  0
 20 16  2  0
 21 28  1  0
 22 27  2  0
 23 18  1  0
 24  5  1  0
 25 16  1  0
 26  7  1  0
 27 23  1  0
 28 23  2  0
 29 10  2  0
 30 11  2  0
 31 13  1  0
 32 15  1  0
 33 14  1  0
 34 26  1  0
 35 29  1  0
 36 37  1  0
 37 32  2  0
 38 30  1  0
 39 34  1  0
 10 11  1  0
  8  6  1  0
 35 38  2  0
  3  7  2  0
 19 22  1  0
 36 31  2  0
 12 40  1  0
 17 41  1  0
 18 42  1  0
 18 43  1  0
 21 44  1  0
 22 45  1  0
 24 46  1  0
 24 47  1  0
 24 48  1  0
 25 49  1  0
 26 50  1  0
 26 51  1  0
 27 52  1  0
 28 53  1  0
 29 54  1  0
 30 55  1  0
 31 56  1  0
 32 57  1  0
 33 58  1  0
 33 59  1  0
 33 60  1  0
 34 61  1  0
 34 62  1  0
 35 63  1  0
 36 64  1  0
 37 65  1  0
 38 66  1  0
 39 67  1  0
 39 68  1  0
 39 69  1  0
M  END
> <Uni-Dock RESULT> 
ENERGY=   -4.220  LOWER_BOUND=    2.064  UPPER_BOUND=    2.830
INTER + INTRA:          -4.220
INTER:                  -4.220
INTRA:                   0.000
UNBOUND:                 0.000

$$$$

     RDKit          3D

 69 74  0  0  0  0  0  0  0  0999 V2000
   28.4706   11.9717   19.4784 C   0  0  0  0  0  0  0  0  0  0  0  0
   26.3988   14.5143   23.2918 N   0  0  0  0  0  0  0  0  0  0  0  0
   24.3822   14.5240   22.3709 N   0  0  0  0  0  0  0  0  0  0  0  0
   28.4678   10.6993   19.1252 N   0  0  0  0  0  0  0  0  0  0  0  0
   29.6250   12.5875   19.0345 N   0  0  0  0  0  0  0  0  0  0  0  0
   26.5355   13.8556   22.0867 C   0  0  0  0  0  0  0  0  0  0  0  0
   25.0816   14.9116   23.4180 C   0  0  0  0  0  0  0  0  0  0  0  0
   25.2538   13.8610   21.5452 C   0  0  0  0  0  0  0  0  0  0  0  0
   27.3847   12.6334   20.2037 C   0  0  0  0  0  0  0  0  0  0  0  0
   30.4187   11.6406   18.4277 C   0  0  0  0  0  0  0  0  0  0  0  0
   29.6633   10.4747   18.4946 C   0  0  0  0  0  0  0  0  0  0  0  0
   27.6242   13.2523   21.4409 C   0  0  0  0  0  0  0  0  0  0  0  0
   26.1616   10.3492   29.0878 C   0  0  0  0  0  0  0  0  0  0  0  0
   25.0029   13.2335   20.3092 C   0  0  0  0  0  0  0  0  0  0  0  0
   27.1420   11.3518   28.9301 C   0  0  0  0  0  0  0  0  0  0  0  0
   25.0776   10.1300   28.1099 C   0  0  0  0  0  0  0  0  0  0  0  0
   26.0922   12.6136   19.6634 C   0  0  0  0  0  0  0  0  0  0  0  0
   27.4721   14.7776   24.2407 C   0  0  0  0  0  0  0  0  0  0  0  0
   27.2334   12.2181   27.7424 C   0  0  0  0  0  0  0  0  0  0  0  0
   24.7577    9.0543   27.6384 O   0  0  0  0  0  0  0  0  0  0  0  0
   27.1135   13.6108   27.8550 C   0  0  0  0  0  0  0  0  0  0  0  0
   27.4565   11.6753   26.4679 C   0  0  0  0  0  0  0  0  0  0  0  0
   27.3985   13.8849   25.4547 C   0  0  0  0  0  0  0  0  0  0  0  0
   29.9408   13.9918   19.1408 C   0  0  0  0  0  0  0  0  0  0  0  0
   24.3922   11.2577   27.8653 O   0  0  0  0  0  0  0  0  0  0  0  0
   24.5431   15.6550   24.6015 C   0  0  0  0  0  0  0  0  0  0  0  0
   27.5352   12.4953   25.3385 C   0  0  0  0  0  0  0  0  0  0  0  0
   27.2003   14.4348   26.7285 C   0  0  0  0  0  0  0  0  0  0  0  0
   31.6866   11.6844   17.8334 C   0  0  0  0  0  0  0  0  0  0  0  0
   30.1725    9.2870   17.9487 C   0  0  0  0  0  0  0  0  0  0  0  0
   26.1753    9.4924   30.2006 C   0  0  0  0  0  0  0  0  0  0  0  0
   28.1040   11.4861   29.9511 C   0  0  0  0  0  0  0  0  0  0  0  0
   23.6421   13.1782   19.6799 C   0  0  0  0  0  0  0  0  0  0  0  0
   23.1222   16.1710   24.3744 C   0  0  0  0  0  0  0  0  0  0  0  0
   32.1805   10.4891   17.2967 C   0  0  0  0  0  0  0  0  0  0  0  0
   27.1437    9.6445   31.1901 C   0  0  0  0  0  0  0  0  0  0  0  0
   28.1022   10.6468   31.0693 C   0  0  0  0  0  0  0  0  0  0  0  0
   31.4380    9.3080   17.3510 C   0  0  0  0  0  0  0  0  0  0  0  0
   22.6143   16.9461   25.5816 C   0  0  0  0  0  0  0  0  0  0  0  0
   28.6113   13.2327   21.8900 H   0  0  0  0  0  0  0  0  0  0  0  0
   25.9239   12.1002   18.7164 H   0  0  0  0  0  0  0  0  0  0  0  0
   27.4124   15.8376   24.5116 H   0  0  0  0  0  0  0  0  0  0  0  0
   28.4358   14.6405   23.7394 H   0  0  0  0  0  0  0  0  0  0  0  0
   26.9334   14.0643   28.8282 H   0  0  0  0  0  0  0  0  0  0  0  0
   27.5675   10.5996   26.3411 H   0  0  0  0  0  0  0  0  0  0  0  0
   30.5614   14.2917   18.2931 H   0  0  0  0  0  0  0  0  0  0  0  0
   30.4809   14.1506   20.0769 H   0  0  0  0  0  0  0  0  0  0  0  0
   29.0217   14.5811   19.1216 H   0  0  0  0  0  0  0  0  0  0  0  0
   23.7124   10.9949   27.2108 H   0  0  0  0  0  0  0  0  0  0  0  0
   24.5467   14.9884   25.4704 H   0  0  0  0  0  0  0  0  0  0  0  0
   25.1975   16.5044   24.8302 H   0  0  0  0  0  0  0  0  0  0  0  0
   27.6941   12.0301   24.3665 H   0  0  0  0  0  0  0  0  0  0  0  0
   27.0936   15.5098   26.8596 H   0  0  0  0  0  0  0  0  0  0  0  0
   32.2705   12.5969   17.7852 H   0  0  0  0  0  0  0  0  0  0  0  0
   29.5881    8.3749   17.9967 H   0  0  0  0  0  0  0  0  0  0  0  0
   25.4237    8.7111   30.2968 H   0  0  0  0  0  0  0  0  0  0  0  0
   28.8821   12.2444   29.8685 H   0  0  0  0  0  0  0  0  0  0  0  0
   23.6800   13.5718   18.6593 H   0  0  0  0  0  0  0  0  0  0  0  0
   23.2848   12.1445   19.6498 H   0  0  0  0  0  0  0  0  0  0  0  0
   22.9166   13.7737   20.2424 H   0  0  0  0  0  0  0  0  0  0  0  0
   22.4433   15.3330   24.1758 H   0  0  0  0  0  0  0  0  0  0  0  0
   23.0939   16.8217   23.4923 H   0  0  0  0  0  0  0  0  0  0  0  0
   33.1622   10.4806   16.8271 H   0  0  0  0  0  0  0  0  0  0  0  0
   27.1491    8.9840   32.0532 H   0  0  0  0  0  0  0  0  0  0  0  0
   28.8605   10.7695   31.8394 H   0  0  0  0  0  0  0  0  0  0  0  0
   31.8441    8.3927   16.9264 H   0  0  0  0  0  0  0  0  0  0  0  0
   23.2530   17.8117   25.7879 H   0  0  0  0  0  0  0  0  0  0  0  0
   21.5977   17.3094   25.3999 H   0  0  0  0  0  0  0  0  0  0  0  0
   22.5949   16.3118   26.4741 H   0  0  0  0  0  0  0  0  0  0  0  0
  2  6  1  0
  3  8  1  0
  4  1  2  0
  5  1  1  0
  6 12  2  0
  7  2  1  0
  8 14  2  0
  9  1  1  0
 10  5  1  0
 11  4  1  0
 12  9  1  0
 13 15  2  0
 14 17  1  0
 15 19  1  0
 16 13  1  0
 17  9  2  0
 18  2  1  0
 19 21  2  0
 20 16  2  0
 21 28  1  0
 22 27  2  0
 23 18  1  0
 24  5  1  0
 25 16  1  0
 26  7  1  0
 27 23  1  0
 28 23  2  0
 29 10  2  0
 30 11  2  0
 31 13  1  0
 32 15  1  0
 33 14  1  0
 34 26  1  0
 35 29  1  0
 36 37  1  0
 37 32  2  0
 38 30  1  0
 39 34  1  0
 10 11  1  0
  8  6  1  0
 35 38  2  0
  3  7  2  0
 19 22  1  0
 36 31  2  0
 12 40  1  0
 17 41  1  0
 18 42  1  0
 18 43  1  0
 21 44  1  0
 22 45  1  0
 24 46  1  0
 24 47  1  0
 24 48  1  0
 25 49  1  0
 26 50  1  0
 26 51  1  0
 27 52  1  0
 28 53  1  0
 29 54  1  0
 30 55  1  0
 31 56  1  0
 32 57  1  0
 33 58  1  0
 33 59  1  0
 33 60  1  0
 34 61  1  0
 34 62  1  0
 35 63  1  0
 36 64  1  0
 37 65  1  0
 38 66  1  0
 39 67  1  0
 39 68  1  0
 39 69  1  0
M  END
> <Uni-Dock RESULT> 
ENERGY=   -4.168  LOWER_BOUND=    2.589  UPPER_BOUND=    4.810
INTER + INTRA:          -4.168
INTER:                  -4.168
INTRA:                   0.000
UNBOUND:                 0.000

$$$$

     RDKit          3D

 69 74  0  0  0  0  0  0  0  0999 V2000
   26.1260    9.9075   29.4638 C   0  0  0  0  0  0  0  0  0  0  0  0
   30.0581   11.6360   26.8467 N   0  0  0  0  0  0  0  0  0  0  0  0
   31.3389    9.9012   27.3610 N   0  0  0  0  0  0  0  0  0  0  0  0
   25.2140    8.9814   29.2306 N   0  0  0  0  0  0  0  0  0  0  0  0
   25.6145   10.8808   30.3006 N   0  0  0  0  0  0  0  0  0  0  0  0
   29.2855   10.8287   27.6566 C   0  0  0  0  0  0  0  0  0  0  0  0
   31.2972   11.0419   26.7033 C   0  0  0  0  0  0  0  0  0  0  0  0
   30.1076    9.7436   27.9443 C   0  0  0  0  0  0  0  0  0  0  0  0
   27.4914    9.8782   28.9366 C   0  0  0  0  0  0  0  0  0  0  0  0
   24.2940   10.5871   30.5550 C   0  0  0  0  0  0  0  0  0  0  0  0
   24.0783    9.3913   29.8783 C   0  0  0  0  0  0  0  0  0  0  0  0
   27.9725   10.9284   28.1387 C   0  0  0  0  0  0  0  0  0  0  0  0
   28.6032   11.3155   19.8626 C   0  0  0  0  0  0  0  0  0  0  0  0
   29.6292    8.6809   28.7357 C   0  0  0  0  0  0  0  0  0  0  0  0
   28.5303   12.5259   20.5842 C   0  0  0  0  0  0  0  0  0  0  0  0
   29.0478   10.0465   20.4722 C   0  0  0  0  0  0  0  0  0  0  0  0
   28.3048    8.7708   29.2107 C   0  0  0  0  0  0  0  0  0  0  0  0
   29.6449   12.9128   26.2802 C   0  0  0  0  0  0  0  0  0  0  0  0
   28.8061   12.6283   22.0275 C   0  0  0  0  0  0  0  0  0  0  0  0
   28.4720    8.9781   20.3801 O   0  0  0  0  0  0  0  0  0  0  0  0
   29.8392   13.4460   22.5078 C   0  0  0  0  0  0  0  0  0  0  0  0
   28.0343   11.9216   22.9623 C   0  0  0  0  0  0  0  0  0  0  0  0
   29.3439   12.8170   24.8049 C   0  0  0  0  0  0  0  0  0  0  0  0
   26.3398   11.9971   30.8583 C   0  0  0  0  0  0  0  0  0  0  0  0
   30.2429   10.1731   21.0696 O   0  0  0  0  0  0  0  0  0  0  0  0
   32.4118   11.6210   25.8874 C   0  0  0  0  0  0  0  0  0  0  0  0
   28.3000   12.0112   24.3317 C   0  0  0  0  0  0  0  0  0  0  0  0
   30.1022   13.5447   23.8777 C   0  0  0  0  0  0  0  0  0  0  0  0
   23.2914   11.2250   31.2969 C   0  0  0  0  0  0  0  0  0  0  0  0
   22.8152    8.7833   29.9314 C   0  0  0  0  0  0  0  0  0  0  0  0
   28.2432   11.2590   18.5062 C   0  0  0  0  0  0  0  0  0  0  0  0
   28.1259   13.6782   19.8811 C   0  0  0  0  0  0  0  0  0  0  0  0
   30.4509    7.4691   29.0632 C   0  0  0  0  0  0  0  0  0  0  0  0
   33.7351   10.8839   26.0935 C   0  0  0  0  0  0  0  0  0  0  0  0
   22.0360   10.6058   31.3362 C   0  0  0  0  0  0  0  0  0  0  0  0
   27.8398   12.4135   17.8396 C   0  0  0  0  0  0  0  0  0  0  0  0
   27.7897   13.6242   18.5250 C   0  0  0  0  0  0  0  0  0  0  0  0
   21.7985    9.4042   30.6663 C   0  0  0  0  0  0  0  0  0  0  0  0
   34.8533   11.5128   25.2748 C   0  0  0  0  0  0  0  0  0  0  0  0
   27.3354   11.7678   27.8820 H   0  0  0  0  0  0  0  0  0  0  0  0
   27.8994    7.9529   29.8067 H   0  0  0  0  0  0  0  0  0  0  0  0
   30.4448   13.6327   26.4858 H   0  0  0  0  0  0  0  0  0  0  0  0
   28.7599   13.2729   26.8150 H   0  0  0  0  0  0  0  0  0  0  0  0
   30.4614   14.0028   21.8093 H   0  0  0  0  0  0  0  0  0  0  0  0
   27.2153   11.2860   22.6295 H   0  0  0  0  0  0  0  0  0  0  0  0
   25.9244   12.2502   31.8366 H   0  0  0  0  0  0  0  0  0  0  0  0
   26.2393   12.8446   30.1765 H   0  0  0  0  0  0  0  0  0  0  0  0
   27.3904   11.7293   30.9878 H   0  0  0  0  0  0  0  0  0  0  0  0
   30.4305    9.2837   21.4347 H   0  0  0  0  0  0  0  0  0  0  0  0
   32.1374   11.5736   24.8283 H   0  0  0  0  0  0  0  0  0  0  0  0
   32.5484   12.6767   26.1495 H   0  0  0  0  0  0  0  0  0  0  0  0
   27.6855   11.4333   25.0209 H   0  0  0  0  0  0  0  0  0  0  0  0
   30.9186   14.1844   24.2069 H   0  0  0  0  0  0  0  0  0  0  0  0
   23.4663   12.1577   31.8218 H   0  0  0  0  0  0  0  0  0  0  0  0
   22.6409    7.8504   29.4069 H   0  0  0  0  0  0  0  0  0  0  0  0
   28.2858   10.3131   17.9694 H   0  0  0  0  0  0  0  0  0  0  0  0
   28.0515   14.6335   20.3999 H   0  0  0  0  0  0  0  0  0  0  0  0
   30.4843    7.3150   30.1463 H   0  0  0  0  0  0  0  0  0  0  0  0
   30.0166    6.5830   28.5907 H   0  0  0  0  0  0  0  0  0  0  0  0
   31.4802    7.5755   28.7075 H   0  0  0  0  0  0  0  0  0  0  0  0
   33.6297    9.8309   25.8058 H   0  0  0  0  0  0  0  0  0  0  0  0
   34.0141   10.8995   27.1538 H   0  0  0  0  0  0  0  0  0  0  0  0
   21.2298   11.0699   31.9009 H   0  0  0  0  0  0  0  0  0  0  0  0
   27.5671   12.3686   16.7885 H   0  0  0  0  0  0  0  0  0  0  0  0
   27.4752   14.5285   18.0089 H   0  0  0  0  0  0  0  0  0  0  0  0
   20.8145    8.9433   30.7127 H   0  0  0  0  0  0  0  0  0  0  0  0
   35.0076   12.5586   25.5615 H   0  0  0  0  0  0  0  0  0  0  0  0
   35.7924   10.9739   25.4369 H   0  0  0  0  0  0  0  0  0  0  0  0
   34.6216   11.4793   24.2051 H   0  0  0  0  0  0  0  0  0  0  0  0
  2  6  1  0
  3  8  1  0
  4  1  2  0
  5  1  1  0
  6 12  2  0
  7  2  1  0
  8 14  2  0
  9  1  1  0
 10  5  1  0
 11  4  1  0
 12  9  1  0
 13 15  2  0
 14 17  1  0
 15 19  1  0
 16 13  1  0
 17  9  2  0
 18  2  1  0
 19 21  2  0
 20 16  2  0
 21 28  1  0
 22 27  2  0
 23 18  1  0
 24  5  1  0
 25 16  1  0
 26  7  1  0
 27 23  1  0
 28 23  2  0
 29 10  2  0
 30 11  2  0
 31 13  1  0
 32 15  1  0
 33 14  1  0
 34 26  1  0
 35 29  1  0
 36 37  1  0
 37 32  2  0
 38 30  1  0
 39 34  1  0
 10 11  1  0
  8  6  1  0
 35 38  2  0
  3  7  2  0
 19 22  1  0
 36 31  2  0
 12 40  1  0
 17 41  1  0
 18 42  1  0
 18 43  1  0
 21 44  1  0
 22 45  1  0
 24 46  1  0
 24 47  1  0
 24 48  1  0
 25 49  1  0
 26 50  1  0
 26 51  1  0
 27 52  1  0
 28 53  1  0
 29 54  1  0
 30 55  1  0
 31 56  1  0
 32 57  1  0
 33 58  1  0
 33 59  1  0
 33 60  1  0
 34 61  1  0
 34 62  1  0
 35 63  1  0
 36 64  1  0
 37 65  1  0
 38 66  1  0
 39 67  1  0
 39 68  1  0
 39 69  1  0
M  END
> <Uni-Dock RESULT> 
ENERGY=   -4.148  LOWER_BOUND=    3.654  UPPER_BOUND=    9.610
INTER + INTRA:          -4.148
INTER:                  -4.148
INTRA:                   0.000
UNBOUND:                 0.000

$$$$

     RDKit          3D

 69 74  0  0  0  0  0  0  0  0999 V2000
   24.9334   10.7367   18.8891 C   0  0  0  0  0  0  0  0  0  0  0  0
   28.8570   13.8521   19.3336 N   0  0  0  0  0  0  0  0  0  0  0  0
   27.5804   15.6538   19.5300 N   0  0  0  0  0  0  0  0  0  0  0  0
   24.0823   10.2161   19.7543 N   0  0  0  0  0  0  0  0  0  0  0  0
   25.0808    9.8978   17.8011 N   0  0  0  0  0  0  0  0  0  0  0  0
   27.5564   13.3997   19.2422 C   0  0  0  0  0  0  0  0  0  0  0  0
   28.8252   15.2238   19.4960 C   0  0  0  0  0  0  0  0  0  0  0  0
   26.7828   14.5470   19.3889 C   0  0  0  0  0  0  0  0  0  0  0  0
   25.5921   12.0339   19.0517 C   0  0  0  0  0  0  0  0  0  0  0  0
   24.3351    8.7621   18.0221 C   0  0  0  0  0  0  0  0  0  0  0  0
   23.7185    8.9966   19.2465 C   0  0  0  0  0  0  0  0  0  0  0  0
   26.9927   12.1274   19.0696 C   0  0  0  0  0  0  0  0  0  0  0  0
   32.0895   12.7396   25.6034 C   0  0  0  0  0  0  0  0  0  0  0  0
   25.3768   14.4606   19.3822 C   0  0  0  0  0  0  0  0  0  0  0  0
   32.6104   12.2292   24.3955 C   0  0  0  0  0  0  0  0  0  0  0  0
   30.8858   13.5927   25.6580 C   0  0  0  0  0  0  0  0  0  0  0  0
   24.8062   13.1811   19.2230 C   0  0  0  0  0  0  0  0  0  0  0  0
   30.0517   13.0247   19.2325 C   0  0  0  0  0  0  0  0  0  0  0  0
   31.9636   12.4230   23.0864 C   0  0  0  0  0  0  0  0  0  0  0  0
   29.9404   13.4342   26.4081 O   0  0  0  0  0  0  0  0  0  0  0  0
   32.6267   13.0904   22.0465 C   0  0  0  0  0  0  0  0  0  0  0  0
   30.6720   11.9335   22.8394 C   0  0  0  0  0  0  0  0  0  0  0  0
   30.7143   12.8056   20.5701 C   0  0  0  0  0  0  0  0  0  0  0  0
   25.8463   10.1702   16.6083 C   0  0  0  0  0  0  0  0  0  0  0  0
   30.9905   14.6539   24.8430 O   0  0  0  0  0  0  0  0  0  0  0  0
   30.0481   16.0768   19.6374 C   0  0  0  0  0  0  0  0  0  0  0  0
   30.0535   12.1238   21.6003 C   0  0  0  0  0  0  0  0  0  0  0  0
   32.0143   13.2751   20.8029 C   0  0  0  0  0  0  0  0  0  0  0  0
   24.1344    7.5845   17.2903 C   0  0  0  0  0  0  0  0  0  0  0  0
   22.8563    8.0296   19.7845 C   0  0  0  0  0  0  0  0  0  0  0  0
   32.6997   12.4491   26.8346 C   0  0  0  0  0  0  0  0  0  0  0  0
   33.7866   11.4567   24.4702 C   0  0  0  0  0  0  0  0  0  0  0  0
   24.4820   15.6515   19.5613 C   0  0  0  0  0  0  0  0  0  0  0  0
   29.7337   17.5711   19.5657 C   0  0  0  0  0  0  0  0  0  0  0  0
   23.2734    6.6290   17.8438 C   0  0  0  0  0  0  0  0  0  0  0  0
   33.8576   11.6761   26.8776 C   0  0  0  0  0  0  0  0  0  0  0  0
   34.4054   11.1876   25.6948 C   0  0  0  0  0  0  0  0  0  0  0  0
   22.6423    6.8450   19.0703 C   0  0  0  0  0  0  0  0  0  0  0  0
   30.9982   18.4099   19.6829 C   0  0  0  0  0  0  0  0  0  0  0  0
   27.6099   11.2396   18.9848 H   0  0  0  0  0  0  0  0  0  0  0  0
   23.7207   13.0800   19.2366 H   0  0  0  0  0  0  0  0  0  0  0  0
   30.7255   13.5140   18.5205 H   0  0  0  0  0  0  0  0  0  0  0  0
   29.7832   12.0595   18.7909 H   0  0  0  0  0  0  0  0  0  0  0  0
   33.6272   13.4886   22.2065 H   0  0  0  0  0  0  0  0  0  0  0  0
   30.1295   11.3989   23.6174 H   0  0  0  0  0  0  0  0  0  0  0  0
   25.3802    9.6733   15.7540 H   0  0  0  0  0  0  0  0  0  0  0  0
   26.8591    9.7894   16.7580 H   0  0  0  0  0  0  0  0  0  0  0  0
   25.8632   11.2448   16.4158 H   0  0  0  0  0  0  0  0  0  0  0  0
   30.1463   15.1371   24.9593 H   0  0  0  0  0  0  0  0  0  0  0  0
   30.5240   15.8574   20.5990 H   0  0  0  0  0  0  0  0  0  0  0  0
   30.7643   15.8258   18.8461 H   0  0  0  0  0  0  0  0  0  0  0  0
   29.0440   11.7405   21.4572 H   0  0  0  0  0  0  0  0  0  0  0  0
   32.5612   13.8057   20.0262 H   0  0  0  0  0  0  0  0  0  0  0  0
   24.6188    7.4078   16.3362 H   0  0  0  0  0  0  0  0  0  0  0  0
   22.3717    8.2069   20.7382 H   0  0  0  0  0  0  0  0  0  0  0  0
   32.2734   12.8340   27.7591 H   0  0  0  0  0  0  0  0  0  0  0  0
   34.2213   11.0391   23.5625 H   0  0  0  0  0  0  0  0  0  0  0  0
   23.7673   15.7164   18.7349 H   0  0  0  0  0  0  0  0  0  0  0  0
   23.9311   15.5681   20.5028 H   0  0  0  0  0  0  0  0  0  0  0  0
   25.0555   16.5831   19.5829 H   0  0  0  0  0  0  0  0  0  0  0  0
   29.0430   17.8507   20.3702 H   0  0  0  0  0  0  0  0  0  0  0  0
   29.2337   17.8060   18.6185 H   0  0  0  0  0  0  0  0  0  0  0  0
   23.0916    5.7000   17.3070 H   0  0  0  0  0  0  0  0  0  0  0  0
   34.3314   11.4572   27.8309 H   0  0  0  0  0  0  0  0  0  0  0  0
   35.3095   10.5834   25.7231 H   0  0  0  0  0  0  0  0  0  0  0  0
   21.9777    6.0871   19.4786 H   0  0  0  0  0  0  0  0  0  0  0  0
   31.6978   18.1785   18.8726 H   0  0  0  0  0  0  0  0  0  0  0  0
   30.7539   19.4756   19.6271 H   0  0  0  0  0  0  0  0  0  0  0  0
   31.5029   18.2257   20.6372 H   0  0  0  0  0  0  0  0  0  0  0  0
  2  6  1  0
  3  8  1  0
  4  1  2  0
  5  1  1  0
  6 12  2  0
  7  2  1  0
  8 14  2  0
  9  1  1  0
 10  5  1  0
 11  4  1  0
 12  9  1  0
 13 15  2  0
 14 17  1  0
 15 19  1  0
 16 13  1  0
 17  9  2  0
 18  2  1  0
 19 21  2  0
 20 16  2  0
 21 28  1  0
 22 27  2  0
 23 18  1  0
 24  5  1  0
 25 16  1  0
 26  7  1  0
 27 23  1  0
 28 23  2  0
 29 10  2  0
 30 11  2  0
 31 13  1  0
 32 15  1  0
 33 14  1  0
 34 26  1  0
 35 29  1  0
 36 37  1  0
 37 32  2  0
 38 30  1  0
 39 34  1  0
 10 11  1  0
  8  6  1  0
 35 38  2  0
  3  7  2  0
 19 22  1  0
 36 31  2  0
 12 40  1  0
 17 41  1  0
 18 42  1  0
 18 43  1  0
 21 44  1  0
 22 45  1  0
 24 46  1  0
 24 47  1  0
 24 48  1  0
 25 49  1  0
 26 50  1  0
 26 51  1  0
 27 52  1  0
 28 53  1  0
 29 54  1  0
 30 55  1  0
 31 56  1  0
 32 57  1  0
 33 58  1  0
 33 59  1  0
 33 60  1  0
 34 61  1  0
 34 62  1  0
 35 63  1  0
 36 64  1  0
 37 65  1  0
 38 66  1  0
 39 67  1  0
 39 68  1  0
 39 69  1  0
M  END
> <Uni-Dock RESULT> 
ENERGY=   -4.059  LOWER_BOUND=    6.224  UPPER_BOUND=    8.275
INTER + INTRA:          -4.059
INTER:                  -4.059
INTRA:                   0.000
UNBOUND:                 0.000

$$$$
