
     RDKit          3D

 69 74  0  0  0  0  0  0  0  0999 V2000
   31.1889   10.3071   27.7333 C   0  0  0  0  0  0  0  0  0  0  0  0
   28.6452   13.0664   24.4095 N   0  0  0  0  0  0  0  0  0  0  0  0
   26.6595   12.3974   25.1403 N   0  0  0  0  0  0  0  0  0  0  0  0
   32.2052   11.0612   28.1147 N   0  0  0  0  0  0  0  0  0  0  0  0
   31.4755    8.9733   27.9616 N   0  0  0  0  0  0  0  0  0  0  0  0
   28.8990   12.2014   25.4563 C   0  0  0  0  0  0  0  0  0  0  0  0
   27.2745   13.1716   24.2679 C   0  0  0  0  0  0  0  0  0  0  0  0
   27.6399   11.8009   25.8885 C   0  0  0  0  0  0  0  0  0  0  0  0
   29.9651   10.8223   27.1115 C   0  0  0  0  0  0  0  0  0  0  0  0
   32.6973    8.8908   28.5911 C   0  0  0  0  0  0  0  0  0  0  0  0
   33.1281   10.2105   28.6658 C   0  0  0  0  0  0  0  0  0  0  0  0
   30.0789   11.7399   26.0556 C   0  0  0  0  0  0  0  0  0  0  0  0
   31.4821   11.7282   17.5161 C   0  0  0  0  0  0  0  0  0  0  0  0
   27.5108   10.9066   26.9693 C   0  0  0  0  0  0  0  0  0  0  0  0
   30.8041   11.1168   18.5904 C   0  0  0  0  0  0  0  0  0  0  0  0
   32.0372   13.0920   17.6027 C   0  0  0  0  0  0  0  0  0  0  0  0
   28.6980   10.4351   27.5688 C   0  0  0  0  0  0  0  0  0  0  0  0
   29.6604   13.7745   23.6419 C   0  0  0  0  0  0  0  0  0  0  0  0
   30.5250   11.7984   19.8664 C   0  0  0  0  0  0  0  0  0  0  0  0
   31.8091   14.0036   16.8306 O   0  0  0  0  0  0  0  0  0  0  0  0
   31.0394   11.3049   21.0747 C   0  0  0  0  0  0  0  0  0  0  0  0
   29.7234   12.9496   19.9113 C   0  0  0  0  0  0  0  0  0  0  0  0
   29.9615   13.0910   22.3295 C   0  0  0  0  0  0  0  0  0  0  0  0
   30.6734    7.8412   27.5602 C   0  0  0  0  0  0  0  0  0  0  0  0
   32.9233   13.2021   18.6072 O   0  0  0  0  0  0  0  0  0  0  0  0
   26.5774   14.0225   23.2524 C   0  0  0  0  0  0  0  0  0  0  0  0
   29.4507   13.5915   21.1240 C   0  0  0  0  0  0  0  0  0  0  0  0
   30.7610   11.9400   22.2896 C   0  0  0  0  0  0  0  0  0  0  0  0
   33.4567    7.8199   29.0819 C   0  0  0  0  0  0  0  0  0  0  0  0
   34.3698   10.5002   29.2511 C   0  0  0  0  0  0  0  0  0  0  0  0
   31.6535   11.0619   16.2922 C   0  0  0  0  0  0  0  0  0  0  0  0
   30.3414    9.7995   18.3994 C   0  0  0  0  0  0  0  0  0  0  0  0
   26.1826   10.4540   27.5009 C   0  0  0  0  0  0  0  0  0  0  0  0
   25.2993   14.6718   23.7925 C   0  0  0  0  0  0  0  0  0  0  0  0
   34.6918    8.1283   29.6663 C   0  0  0  0  0  0  0  0  0  0  0  0
   31.1811    9.7611   16.1316 C   0  0  0  0  0  0  0  0  0  0  0  0
   30.5307    9.1284   17.1869 C   0  0  0  0  0  0  0  0  0  0  0  0
   35.1442    9.4460   29.7512 C   0  0  0  0  0  0  0  0  0  0  0  0
   25.5779   15.7312   24.8519 C   0  0  0  0  0  0  0  0  0  0  0  0
   31.0587   12.0685   25.7222 H   0  0  0  0  0  0  0  0  0  0  0  0
   28.6173    9.7670   28.4246 H   0  0  0  0  0  0  0  0  0  0  0  0
   30.5720   13.8467   24.2458 H   0  0  0  0  0  0  0  0  0  0  0  0
   29.3203   14.8055   23.4947 H   0  0  0  0  0  0  0  0  0  0  0  0
   31.6733   10.4195   21.0762 H   0  0  0  0  0  0  0  0  0  0  0  0
   29.2975   13.3557   18.9943 H   0  0  0  0  0  0  0  0  0  0  0  0
   31.3202    6.9768   27.3902 H   0  0  0  0  0  0  0  0  0  0  0  0
   29.9622    7.6249   28.3611 H   0  0  0  0  0  0  0  0  0  0  0  0
   30.1523    8.0697   26.6272 H   0  0  0  0  0  0  0  0  0  0  0  0
   33.2419   14.1275   18.5489 H   0  0  0  0  0  0  0  0  0  0  0  0
   27.2282   14.8128   22.8711 H   0  0  0  0  0  0  0  0  0  0  0  0
   26.3147   13.3836   22.4010 H   0  0  0  0  0  0  0  0  0  0  0  0
   28.8336   14.4873   21.1096 H   0  0  0  0  0  0  0  0  0  0  0  0
   31.1810   11.5250   23.2038 H   0  0  0  0  0  0  0  0  0  0  0  0
   33.1119    6.7935   29.0202 H   0  0  0  0  0  0  0  0  0  0  0  0
   34.7130   11.5264   29.3145 H   0  0  0  0  0  0  0  0  0  0  0  0
   32.1617   11.5576   15.4677 H   0  0  0  0  0  0  0  0  0  0  0  0
   29.8068    9.2900   19.2001 H   0  0  0  0  0  0  0  0  0  0  0  0
   26.0830   10.7373   28.5550 H   0  0  0  0  0  0  0  0  0  0  0  0
   26.0939    9.3652   27.4117 H   0  0  0  0  0  0  0  0  0  0  0  0
   25.3520   10.9086   26.9486 H   0  0  0  0  0  0  0  0  0  0  0  0
   24.7710   15.1470   22.9569 H   0  0  0  0  0  0  0  0  0  0  0  0
   24.6223   13.9138   24.2048 H   0  0  0  0  0  0  0  0  0  0  0  0
   35.3108    7.3252   30.0635 H   0  0  0  0  0  0  0  0  0  0  0  0
   31.3195    9.2430   15.1859 H   0  0  0  0  0  0  0  0  0  0  0  0
   30.1572    8.1142   17.0664 H   0  0  0  0  0  0  0  0  0  0  0  0
   36.1062    9.6606   30.2118 H   0  0  0  0  0  0  0  0  0  0  0  0
   24.6442   16.2094   25.1603 H   0  0  0  0  0  0  0  0  0  0  0  0
   26.0428   15.2964   25.7430 H   0  0  0  0  0  0  0  0  0  0  0  0
   26.2426   16.5073   24.4616 H   0  0  0  0  0  0  0  0  0  0  0  0
  2  6  1  0
  3  8  1  0
  4  1  2  0
  5  1  1  0
  6 12  2  0
  7  2  1  0
  8 14  2  0
  9  1  1  0
 10  5  1  0
 11  4  1  0
 12  9  1  0
 13 15  2  0
 14 17  1  0
 15 19  1  0
 16 13  1  0
 17  9  2  0
 18  2  1  0
 19 21  2  0
 20 16  2  0
 21 28  1  0
 22 27  2  0
 23 18  1  0
 24  5  1  0
 25 16  1  0
 26  7  1  0
 27 23  1  0
 28 23  2  0
 29 10  2  0
 30 11  2  0
 31 13  1  0
 32 15  1  0
 33 14  1  0
 34 26  1  0
 35 29  1  0
 36 37  1  0
 37 32  2  0
 38 30  1  0
 39 34  1  0
 10 11  1  0
  8  6  1  0
 35 38  2  0
  3  7  2  0
 19 22  1  0
 36 31  2  0
 12 40  1  0
 17 41  1  0
 18 42  1  0
 18 43  1  0
 21 44  1  0
 22 45  1  0
 24 46  1  0
 24 47  1  0
 24 48  1  0
 25 49  1  0
 26 50  1  0
 26 51  1  0
 27 52  1  0
 28 53  1  0
 29 54  1  0
 30 55  1  0
 31 56  1  0
 32 57  1  0
 33 58  1  0
 33 59  1  0
 33 60  1  0
 34 61  1  0
 34 62  1  0
 35 63  1  0
 36 64  1  0
 37 65  1  0
 38 66  1  0
 39 67  1  0
 39 68  1  0
 39 69  1  0
M  END
> <Uni-Dock RESULT> 
ENERGY=   -4.601  LOWER_BOUND=    0.000  UPPER_BOUND=    0.000
INTER + INTRA:          -4.601
INTER:                  -4.601
INTRA:                   0.000
UNBOUND:                 0.000

$$$$

     RDKit          3D

 69 74  0  0  0  0  0  0  0  0999 V2000
   29.2972   11.5224   21.3631 C   0  0  0  0  0  0  0  0  0  0  0  0
   28.1818   11.9037   26.2356 N   0  0  0  0  0  0  0  0  0  0  0  0
   26.5211   13.3374   25.9026 N   0  0  0  0  0  0  0  0  0  0  0  0
   29.5880   10.2483   21.1656 N   0  0  0  0  0  0  0  0  0  0  0  0
   29.8714   12.2993   20.3731 N   0  0  0  0  0  0  0  0  0  0  0  0
   28.1169   12.0967   24.8694 C   0  0  0  0  0  0  0  0  0  0  0  0
   27.1822   12.6585   26.8195 C   0  0  0  0  0  0  0  0  0  0  0  0
   27.0723   12.9972   24.6954 C   0  0  0  0  0  0  0  0  0  0  0  0
   28.5222   12.0266   22.5010 C   0  0  0  0  0  0  0  0  0  0  0  0
   30.4847   11.4658   19.4647 C   0  0  0  0  0  0  0  0  0  0  0  0
   30.2946   10.1937   19.9922 C   0  0  0  0  0  0  0  0  0  0  0  0
   28.8516   11.5840   23.7916 C   0  0  0  0  0  0  0  0  0  0  0  0
   34.5626   13.3619   30.0458 C   0  0  0  0  0  0  0  0  0  0  0  0
   26.7093   13.4235   23.4027 C   0  0  0  0  0  0  0  0  0  0  0  0
   33.6852   13.8927   29.0783 C   0  0  0  0  0  0  0  0  0  0  0  0
   34.4441   11.9809   30.5502 C   0  0  0  0  0  0  0  0  0  0  0  0
   27.4530   12.9141   22.3171 C   0  0  0  0  0  0  0  0  0  0  0  0
   29.1131   11.0121   26.9133 C   0  0  0  0  0  0  0  0  0  0  0  0
   32.5340   13.1516   28.5340 C   0  0  0  0  0  0  0  0  0  0  0  0
   34.3624   11.6546   31.7190 O   0  0  0  0  0  0  0  0  0  0  0  0
   32.4448   12.8637   27.1639 C   0  0  0  0  0  0  0  0  0  0  0  0
   31.4869   12.7282   29.3672 C   0  0  0  0  0  0  0  0  0  0  0  0
   30.3014   11.7530   27.4783 C   0  0  0  0  0  0  0  0  0  0  0  0
   29.8902   13.7424   20.3159 C   0  0  0  0  0  0  0  0  0  0  0  0
   34.5298   11.0820   29.5547 O   0  0  0  0  0  0  0  0  0  0  0  0
   26.8992   12.7228   28.2882 C   0  0  0  0  0  0  0  0  0  0  0  0
   30.3893   12.0326   28.8490 C   0  0  0  0  0  0  0  0  0  0  0  0
   31.3441   12.1759   26.6420 C   0  0  0  0  0  0  0  0  0  0  0  0
   31.1796   11.6909   18.2685 C   0  0  0  0  0  0  0  0  0  0  0  0
   30.8127    9.0799   19.3145 C   0  0  0  0  0  0  0  0  0  0  0  0
   35.5983   14.1378   30.5903 C   0  0  0  0  0  0  0  0  0  0  0  0
   33.9136   15.2165   28.6529 C   0  0  0  0  0  0  0  0  0  0  0  0
   25.5771   14.3734   23.1436 C   0  0  0  0  0  0  0  0  0  0  0  0
   25.4028   12.8057   28.6056 C   0  0  0  0  0  0  0  0  0  0  0  0
   31.6865   10.5670   17.6037 C   0  0  0  0  0  0  0  0  0  0  0  0
   35.7968   15.4456   30.1530 C   0  0  0  0  0  0  0  0  0  0  0  0
   34.9584   15.9823   29.1804 C   0  0  0  0  0  0  0  0  0  0  0  0
   31.5079    9.2808   18.1156 C   0  0  0  0  0  0  0  0  0  0  0  0
   24.6558   11.5213   28.2669 C   0  0  0  0  0  0  0  0  0  0  0  0
   29.6569   10.8695   23.9338 H   0  0  0  0  0  0  0  0  0  0  0  0
   27.1675   13.2088   21.3087 H   0  0  0  0  0  0  0  0  0  0  0  0
   29.4494   10.2484   26.2031 H   0  0  0  0  0  0  0  0  0  0  0  0
   28.5636   10.4713   27.6916 H   0  0  0  0  0  0  0  0  0  0  0  0
   33.2437   13.1684   26.4896 H   0  0  0  0  0  0  0  0  0  0  0  0
   31.5163   12.9433   30.4349 H   0  0  0  0  0  0  0  0  0  0  0  0
   30.7846   14.0755   19.7834 H   0  0  0  0  0  0  0  0  0  0  0  0
   28.9938   14.0753   19.7871 H   0  0  0  0  0  0  0  0  0  0  0  0
   29.9203   14.1521   21.3286 H   0  0  0  0  0  0  0  0  0  0  0  0
   34.4691   10.2139   30.0063 H   0  0  0  0  0  0  0  0  0  0  0  0
   27.3146   11.8627   28.8185 H   0  0  0  0  0  0  0  0  0  0  0  0
   27.3935   13.6162   28.6876 H   0  0  0  0  0  0  0  0  0  0  0  0
   29.6064   11.7142   29.5340 H   0  0  0  0  0  0  0  0  0  0  0  0
   31.3150   11.9718   25.5734 H   0  0  0  0  0  0  0  0  0  0  0  0
   31.3220   12.6871   17.8641 H   0  0  0  0  0  0  0  0  0  0  0  0
   30.6682    8.0843   19.7181 H   0  0  0  0  0  0  0  0  0  0  0  0
   36.2530   13.7175   31.3509 H   0  0  0  0  0  0  0  0  0  0  0  0
   33.2568   15.6699   27.9114 H   0  0  0  0  0  0  0  0  0  0  0  0
   24.8262   13.8977   22.5023 H   0  0  0  0  0  0  0  0  0  0  0  0
   25.9511   15.2772   22.6490 H   0  0  0  0  0  0  0  0  0  0  0  0
   25.0839   14.6754   24.0749 H   0  0  0  0  0  0  0  0  0  0  0  0
   25.2855   13.0029   29.6782 H   0  0  0  0  0  0  0  0  0  0  0  0
   24.9390   13.6470   28.0765 H   0  0  0  0  0  0  0  0  0  0  0  0
   32.2293   10.6984   16.6688 H   0  0  0  0  0  0  0  0  0  0  0  0
   36.6028   16.0443   30.5701 H   0  0  0  0  0  0  0  0  0  0  0  0
   35.1067   17.0036   28.8373 H   0  0  0  0  0  0  0  0  0  0  0  0
   31.9090    8.4232   17.5796 H   0  0  0  0  0  0  0  0  0  0  0  0
   23.6081   11.6049   28.5684 H   0  0  0  0  0  0  0  0  0  0  0  0
   24.6803   11.3133   27.1921 H   0  0  0  0  0  0  0  0  0  0  0  0
   25.0917   10.6668   28.7923 H   0  0  0  0  0  0  0  0  0  0  0  0
  2  6  1  0
  3  8  1  0
  4  1  2  0
  5  1  1  0
  6 12  2  0
  7  2  1  0
  8 14  2  0
  9  1  1  0
 10  5  1  0
 11  4  1  0
 12  9  1  0
 13 15  2  0
 14 17  1  0
 15 19  1  0
 16 13  1  0
 17  9  2  0
 18  2  1  0
 19 21  2  0
 20 16  2  0
 21 28  1  0
 22 27  2  0
 23 18  1  0
 24  5  1  0
 25 16  1  0
 26  7  1  0
 27 23  1  0
 28 23  2  0
 29 10  2  0
 30 11  2  0
 31 13  1  0
 32 15  1  0
 33 14  1  0
 34 26  1  0
 35 29  1  0
 36 37  1  0
 37 32  2  0
 38 30  1  0
 39 34  1  0
 10 11  1  0
  8  6  1  0
 35 38  2  0
  3  7  2  0
 19 22  1  0
 36 31  2  0
 12 40  1  0
 17 41  1  0
 18 42  1  0
 18 43  1  0
 21 44  1  0
 22 45  1  0
 24 46  1  0
 24 47  1  0
 24 48  1  0
 25 49  1  0
 26 50  1  0
 26 51  1  0
 27 52  1  0
 28 53  1  0
 29 54  1  0
 30 55  1  0
 31 56  1  0
 32 57  1  0
 33 58  1  0
 33 59  1  0
 33 60  1  0
 34 61  1  0
 34 62  1  0
 35 63  1  0
 36 64  1  0
 37 65  1  0
 38 66  1  0
 39 67  1  0
 39 68  1  0
 39 69  1  0
M  END
> <Uni-Dock RESULT> 
ENERGY=   -4.392  LOWER_BOUND=    3.738  UPPER_BOUND=    9.105
INTER + INTRA:          -4.392
INTER:                  -4.392
INTRA:                   0.000
UNBOUND:                 0.000

$$$$

     RDKit          3D

 69 74  0  0  0  0  0  0  0  0999 V2000
   24.8681   10.7657   19.0531 C   0  0  0  0  0  0  0  0  0  0  0  0
   26.5534   14.5824   21.8323 N   0  0  0  0  0  0  0  0  0  0  0  0
   26.8705   15.9163   20.0874 N   0  0  0  0  0  0  0  0  0  0  0  0
   23.8812   10.2297   19.7499 N   0  0  0  0  0  0  0  0  0  0  0  0
   25.3735    9.8409   18.1571 N   0  0  0  0  0  0  0  0  0  0  0  0
   26.1606   13.8563   20.7247 C   0  0  0  0  0  0  0  0  0  0  0  0
   26.9557   15.8320   21.4005 C   0  0  0  0  0  0  0  0  0  0  0  0
   26.3726   14.7162   19.6531 C   0  0  0  0  0  0  0  0  0  0  0  0
   25.3757   12.1269   19.2512 C   0  0  0  0  0  0  0  0  0  0  0  0
   24.6147    8.6947   18.2382 C   0  0  0  0  0  0  0  0  0  0  0  0
   23.6966    8.9685   19.2456 C   0  0  0  0  0  0  0  0  0  0  0  0
   25.6515   12.5614   20.5570 C   0  0  0  0  0  0  0  0  0  0  0  0
   31.9787   11.9822   26.4326 C   0  0  0  0  0  0  0  0  0  0  0  0
   26.0680   14.3046   18.3406 C   0  0  0  0  0  0  0  0  0  0  0  0
   31.6592   12.1863   25.0748 C   0  0  0  0  0  0  0  0  0  0  0  0
   30.9942   12.1692   27.5150 C   0  0  0  0  0  0  0  0  0  0  0  0
   25.5625   12.9984   18.1695 C   0  0  0  0  0  0  0  0  0  0  0  0
   26.4916   14.1111   23.2090 C   0  0  0  0  0  0  0  0  0  0  0  0
   30.3455   12.6691   24.6144 C   0  0  0  0  0  0  0  0  0  0  0  0
   31.1391   12.8754   28.4946 O   0  0  0  0  0  0  0  0  0  0  0  0
   29.5487   11.8888   23.7633 C   0  0  0  0  0  0  0  0  0  0  0  0
   29.8621   13.9290   25.0001 C   0  0  0  0  0  0  0  0  0  0  0  0
   27.8292   13.6110   23.7000 C   0  0  0  0  0  0  0  0  0  0  0  0
   26.5358   10.0059   17.3158 C   0  0  0  0  0  0  0  0  0  0  0  0
   29.9188   11.3808   27.3469 O   0  0  0  0  0  0  0  0  0  0  0  0
   27.4456   16.9328   22.2892 C   0  0  0  0  0  0  0  0  0  0  0  0
   28.6189   14.3914   24.5556 C   0  0  0  0  0  0  0  0  0  0  0  0
   28.3091   12.3526   23.3105 C   0  0  0  0  0  0  0  0  0  0  0  0
   24.6442    7.4708   17.5560 C   0  0  0  0  0  0  0  0  0  0  0  0
   22.7560    7.9925   19.6075 C   0  0  0  0  0  0  0  0  0  0  0  0
   33.2704   11.5963   26.8246 C   0  0  0  0  0  0  0  0  0  0  0  0
   32.6751   11.9501   24.1272 C   0  0  0  0  0  0  0  0  0  0  0  0
   26.2496   15.1911   17.1438 C   0  0  0  0  0  0  0  0  0  0  0  0
   26.9820   18.3200   21.8337 C   0  0  0  0  0  0  0  0  0  0  0  0
   23.6955    6.5097   17.9279 C   0  0  0  0  0  0  0  0  0  0  0  0
   34.2557   11.3744   25.8649 C   0  0  0  0  0  0  0  0  0  0  0  0
   33.9561   11.5455   24.5166 C   0  0  0  0  0  0  0  0  0  0  0  0
   22.7649    6.7631   18.9370 C   0  0  0  0  0  0  0  0  0  0  0  0
   25.4803   18.5228   21.9955 C   0  0  0  0  0  0  0  0  0  0  0  0
   25.4746   11.9004   21.4002 H   0  0  0  0  0  0  0  0  0  0  0  0
   25.2931   12.6736   17.1658 H   0  0  0  0  0  0  0  0  0  0  0  0
   25.7447   13.3119   23.2745 H   0  0  0  0  0  0  0  0  0  0  0  0
   26.1086   14.9263   23.8325 H   0  0  0  0  0  0  0  0  0  0  0  0
   29.8878   10.9020   23.4518 H   0  0  0  0  0  0  0  0  0  0  0  0
   30.4581   14.5675   25.6516 H   0  0  0  0  0  0  0  0  0  0  0  0
   26.9938    9.0312   17.1297 H   0  0  0  0  0  0  0  0  0  0  0  0
   26.2143   10.4547   16.3728 H   0  0  0  0  0  0  0  0  0  0  0  0
   27.2695   10.6403   17.8194 H   0  0  0  0  0  0  0  0  0  0  0  0
   29.3574   11.5668   28.1288 H   0  0  0  0  0  0  0  0  0  0  0  0
   27.1283   16.7886   23.3246 H   0  0  0  0  0  0  0  0  0  0  0  0
   28.5417   16.9084   22.2824 H   0  0  0  0  0  0  0  0  0  0  0  0
   28.2797   15.3698   24.8890 H   0  0  0  0  0  0  0  0  0  0  0  0
   27.7219   11.7150   22.6523 H   0  0  0  0  0  0  0  0  0  0  0  0
   25.3636    7.2666   16.7705 H   0  0  0  0  0  0  0  0  0  0  0  0
   22.0358    8.1979   20.3911 H   0  0  0  0  0  0  0  0  0  0  0  0
   33.5037   11.4632   27.8789 H   0  0  0  0  0  0  0  0  0  0  0  0
   32.4750   12.1010   23.0671 H   0  0  0  0  0  0  0  0  0  0  0  0
   25.2896   15.3382   16.6356 H   0  0  0  0  0  0  0  0  0  0  0  0
   26.9603   14.7363   16.4442 H   0  0  0  0  0  0  0  0  0  0  0  0
   26.6363   16.1767   17.4278 H   0  0  0  0  0  0  0  0  0  0  0  0
   27.5012   19.0752   22.4363 H   0  0  0  0  0  0  0  0  0  0  0  0
   27.2633   18.5005   20.7891 H   0  0  0  0  0  0  0  0  0  0  0  0
   23.6821    5.5468   17.4195 H   0  0  0  0  0  0  0  0  0  0  0  0
   35.2542   11.0694   26.1681 H   0  0  0  0  0  0  0  0  0  0  0  0
   34.7220   11.3766   23.7632 H   0  0  0  0  0  0  0  0  0  0  0  0
   22.0362    6.0014   19.2065 H   0  0  0  0  0  0  0  0  0  0  0  0
   25.2068   19.5447   21.7186 H   0  0  0  0  0  0  0  0  0  0  0  0
   24.9110   17.8384   21.3579 H   0  0  0  0  0  0  0  0  0  0  0  0
   25.1747   18.3603   23.0330 H   0  0  0  0  0  0  0  0  0  0  0  0
  2  6  1  0
  3  8  1  0
  4  1  2  0
  5  1  1  0
  6 12  2  0
  7  2  1  0
  8 14  2  0
  9  1  1  0
 10  5  1  0
 11  4  1  0
 12  9  1  0
 13 15  2  0
 14 17  1  0
 15 19  1  0
 16 13  1  0
 17  9  2  0
 18  2  1  0
 19 21  2  0
 20 16  2  0
 21 28  1  0
 22 27  2  0
 23 18  1  0
 24  5  1  0
 25 16  1  0
 26  7  1  0
 27 23  1  0
 28 23  2  0
 29 10  2  0
 30 11  2  0
 31 13  1  0
 32 15  1  0
 33 14  1  0
 34 26  1  0
 35 29  1  0
 36 37  1  0
 37 32  2  0
 38 30  1  0
 39 34  1  0
 10 11  1  0
  8  6  1  0
 35 38  2  0
  3  7  2  0
 19 22  1  0
 36 31  2  0
 12 40  1  0
 17 41  1  0
 18 42  1  0
 18 43  1  0
 21 44  1  0
 22 45  1  0
 24 46  1  0
 24 47  1  0
 24 48  1  0
 25 49  1  0
 26 50  1  0
 26 51  1  0
 27 52  1  0
 28 53  1  0
 29 54  1  0
 30 55  1  0
 31 56  1  0
 32 57  1  0
 33 58  1  0
 33 59  1  0
 33 60  1  0
 34 61  1  0
 34 62  1  0
 35 63  1  0
 36 64  1  0
 37 65  1  0
 38 66  1  0
 39 67  1  0
 39 68  1  0
 39 69  1  0
M  END
> <Uni-Dock RESULT> 
ENERGY=   -4.312  LOWER_BOUND=    4.810  UPPER_BOUND=    9.318
INTER + INTRA:          -4.312
INTER:                  -4.312
INTRA:                   0.000
UNBOUND:                 0.000

$$$$

     RDKit          3D

 69 74  0  0  0  0  0  0  0  0999 V2000
   30.5648    6.6127   28.6815 C   0  0  0  0  0  0  0  0  0  0  0  0
   29.3577   11.0537   26.6936 N   0  0  0  0  0  0  0  0  0  0  0  0
   31.3799   11.9151   26.9995 N   0  0  0  0  0  0  0  0  0  0  0  0
   29.9520    5.7121   27.9330 N   0  0  0  0  0  0  0  0  0  0  0  0
   30.8441    6.0831   29.9284 N   0  0  0  0  0  0  0  0  0  0  0  0
   30.1115   10.0525   27.2747 C   0  0  0  0  0  0  0  0  0  0  0  0
   30.1732   12.1568   26.5260 C   0  0  0  0  0  0  0  0  0  0  0  0
   31.3666   10.6227   27.4538 C   0  0  0  0  0  0  0  0  0  0  0  0
   30.8511    7.9858   28.2544 C   0  0  0  0  0  0  0  0  0  0  0  0
   30.4612    4.7604   29.9367 C   0  0  0  0  0  0  0  0  0  0  0  0
   29.9029    4.5630   28.6790 C   0  0  0  0  0  0  0  0  0  0  0  0
   29.8269    8.7333   27.6526 C   0  0  0  0  0  0  0  0  0  0  0  0
   22.9864   13.4960   29.9799 C   0  0  0  0  0  0  0  0  0  0  0  0
   32.4130    9.8724   28.0256 C   0  0  0  0  0  0  0  0  0  0  0  0
   24.3364   13.1836   30.2396 C   0  0  0  0  0  0  0  0  0  0  0  0
   22.3407   13.2058   28.6858 C   0  0  0  0  0  0  0  0  0  0  0  0
   32.1258    8.5465   28.4137 C   0  0  0  0  0  0  0  0  0  0  0  0
   27.9651   10.9261   26.2867 C   0  0  0  0  0  0  0  0  0  0  0  0
   25.2439   12.6075   29.2320 C   0  0  0  0  0  0  0  0  0  0  0  0
   21.7474   14.0083   27.9907 O   0  0  0  0  0  0  0  0  0  0  0  0
   25.8419   11.3546   29.4331 C   0  0  0  0  0  0  0  0  0  0  0  0
   25.5488   13.3028   28.0515 C   0  0  0  0  0  0  0  0  0  0  0  0
   27.0180   11.5106   27.3073 C   0  0  0  0  0  0  0  0  0  0  0  0
   31.3867    6.7945   31.0622 C   0  0  0  0  0  0  0  0  0  0  0  0
   22.3999   11.8969   28.3864 O   0  0  0  0  0  0  0  0  0  0  0  0
   29.7477   13.4566   25.9170 C   0  0  0  0  0  0  0  0  0  0  0  0
   26.4177   12.7600   27.0989 C   0  0  0  0  0  0  0  0  0  0  0  0
   26.7179   10.8136   28.4860 C   0  0  0  0  0  0  0  0  0  0  0  0
   30.5350    3.7432   30.8980 C   0  0  0  0  0  0  0  0  0  0  0  0
   29.3871    3.3026   28.3417 C   0  0  0  0  0  0  0  0  0  0  0  0
   22.1849   14.1167   30.9512 C   0  0  0  0  0  0  0  0  0  0  0  0
   24.8358   13.4832   31.5228 C   0  0  0  0  0  0  0  0  0  0  0  0
   33.7962   10.4189   28.2240 C   0  0  0  0  0  0  0  0  0  0  0  0
   30.8398   14.0992   25.0559 C   0  0  0  0  0  0  0  0  0  0  0  0
   30.0186    2.4906   30.5426 C   0  0  0  0  0  0  0  0  0  0  0  0
   22.7080   14.4050   32.2099 C   0  0  0  0  0  0  0  0  0  0  0  0
   24.0311   14.0827   32.4971 C   0  0  0  0  0  0  0  0  0  0  0  0
   29.4531    2.2703   29.2856 C   0  0  0  0  0  0  0  0  0  0  0  0
   31.1261   13.3127   23.7824 C   0  0  0  0  0  0  0  0  0  0  0  0
   28.8481    8.2897   27.4961 H   0  0  0  0  0  0  0  0  0  0  0  0
   32.9300    7.9418   28.8295 H   0  0  0  0  0  0  0  0  0  0  0  0
   27.7400    9.8653   26.1294 H   0  0  0  0  0  0  0  0  0  0  0  0
   27.8505   11.4017   25.3064 H   0  0  0  0  0  0  0  0  0  0  0  0
   25.6203   10.7828   30.3330 H   0  0  0  0  0  0  0  0  0  0  0  0
   25.1117   14.2835   27.8658 H   0  0  0  0  0  0  0  0  0  0  0  0
   31.0331    6.3321   31.9873 H   0  0  0  0  0  0  0  0  0  0  0  0
   32.4768    6.7409   31.0097 H   0  0  0  0  0  0  0  0  0  0  0  0
   31.0461    7.8328   31.0446 H   0  0  0  0  0  0  0  0  0  0  0  0
   21.9209   11.8215   27.5342 H   0  0  0  0  0  0  0  0  0  0  0  0
   28.8511   13.3419   25.3036 H   0  0  0  0  0  0  0  0  0  0  0  0
   29.4935   14.1435   26.7329 H   0  0  0  0  0  0  0  0  0  0  0  0
   26.6165   13.3296   26.1936 H   0  0  0  0  0  0  0  0  0  0  0  0
   27.1592    9.8379   28.6806 H   0  0  0  0  0  0  0  0  0  0  0  0
   30.9735    3.9063   31.8765 H   0  0  0  0  0  0  0  0  0  0  0  0
   28.9511    3.1395   27.3629 H   0  0  0  0  0  0  0  0  0  0  0  0
   21.1508   14.3686   30.7255 H   0  0  0  0  0  0  0  0  0  0  0  0
   25.8749   13.2649   31.7660 H   0  0  0  0  0  0  0  0  0  0  0  0
   34.5229    9.8130   27.6709 H   0  0  0  0  0  0  0  0  0  0  0  0
   34.0553   10.4070   29.2890 H   0  0  0  0  0  0  0  0  0  0  0  0
   33.8758   11.4522   27.8668 H   0  0  0  0  0  0  0  0  0  0  0  0
   30.5123   15.1076   24.7749 H   0  0  0  0  0  0  0  0  0  0  0  0
   31.7680   14.2159   25.6283 H   0  0  0  0  0  0  0  0  0  0  0  0
   30.0602    1.6720   31.2596 H   0  0  0  0  0  0  0  0  0  0  0  0
   22.0854   14.8799   32.9641 H   0  0  0  0  0  0  0  0  0  0  0  0
   24.4457   14.3080   33.4770 H   0  0  0  0  0  0  0  0  0  0  0  0
   29.0607    1.2877   29.0321 H   0  0  0  0  0  0  0  0  0  0  0  0
   31.8635   13.8410   23.1719 H   0  0  0  0  0  0  0  0  0  0  0  0
   31.5255   12.3178   24.0054 H   0  0  0  0  0  0  0  0  0  0  0  0
   30.2171   13.1924   23.1861 H   0  0  0  0  0  0  0  0  0  0  0  0
  2  6  1  0
  3  8  1  0
  4  1  2  0
  5  1  1  0
  6 12  2  0
  7  2  1  0
  8 14  2  0
  9  1  1  0
 10  5  1  0
 11  4  1  0
 12  9  1  0
 13 15  2  0
 14 17  1  0
 15 19  1  0
 16 13  1  0
 17  9  2  0
 18  2  1  0
 19 21  2  0
 20 16  2  0
 21 28  1  0
 22 27  2  0
 23 18  1  0
 24  5  1  0
 25 16  1  0
 26  7  1  0
 27 23  1  0
 28 23  2  0
 29 10  2  0
 30 11  2  0
 31 13  1  0
 32 15  1  0
 33 14  1  0
 34 26  1  0
 35 29  1  0
 36 37  1  0
 37 32  2  0
 38 30  1  0
 39 34  1  0
 10 11  1  0
  8  6  1  0
 35 38  2  0
  3  7  2  0
 19 22  1  0
 36 31  2  0
 12 40  1  0
 17 41  1  0
 18 42  1  0
 18 43  1  0
 21 44  1  0
 22 45  1  0
 24 46  1  0
 24 47  1  0
 24 48  1  0
 25 49  1  0
 26 50  1  0
 26 51  1  0
 27 52  1  0
 28 53  1  0
 29 54  1  0
 30 55  1  0
 31 56  1  0
 32 57  1  0
 33 58  1  0
 33 59  1  0
 33 60  1  0
 34 61  1  0
 34 62  1  0
 35 63  1  0
 36 64  1  0
 37 65  1  0
 38 66  1  0
 39 67  1  0
 39 68  1  0
 39 69  1  0
M  END
> <Uni-Dock RESULT> 
ENERGY=   -4.182  LOWER_BOUND=    4.978  UPPER_BOUND=    9.299
INTER + INTRA:          -4.182
INTER:                  -4.182
INTRA:                   0.000
UNBOUND:                 0.000

$$$$

     RDKit          3D

 69 74  0  0  0  0  0  0  0  0999 V2000
   33.2148   11.6711   29.3526 C   0  0  0  0  0  0  0  0  0  0  0  0
   28.6614   11.4932   27.2630 N   0  0  0  0  0  0  0  0  0  0  0  0
   28.0738    9.6382   28.3298 N   0  0  0  0  0  0  0  0  0  0  0  0
   33.4416   12.9499   29.5978 N   0  0  0  0  0  0  0  0  0  0  0  0
   34.4123   10.9830   29.2750 N   0  0  0  0  0  0  0  0  0  0  0  0
   29.7414   11.1538   28.0546 C   0  0  0  0  0  0  0  0  0  0  0  0
   27.6662   10.5589   27.4784 C   0  0  0  0  0  0  0  0  0  0  0  0
   29.3430    9.9918   28.7054 C   0  0  0  0  0  0  0  0  0  0  0  0
   31.8838   11.0930   29.1431 C   0  0  0  0  0  0  0  0  0  0  0  0
   35.4369   11.8557   29.5657 C   0  0  0  0  0  0  0  0  0  0  0  0
   34.7974   13.0754   29.7559 C   0  0  0  0  0  0  0  0  0  0  0  0
   30.9996   11.7352   28.2624 C   0  0  0  0  0  0  0  0  0  0  0  0
   29.4392   12.2031   19.7630 C   0  0  0  0  0  0  0  0  0  0  0  0
   30.2080    9.3558   29.6176 C   0  0  0  0  0  0  0  0  0  0  0  0
   29.7491   11.3608   20.8502 C   0  0  0  0  0  0  0  0  0  0  0  0
   28.8515   13.5442   19.9421 C   0  0  0  0  0  0  0  0  0  0  0  0
   31.4780    9.9358   29.8220 C   0  0  0  0  0  0  0  0  0  0  0  0
   28.5878   12.6665   26.4032 C   0  0  0  0  0  0  0  0  0  0  0  0
   29.4548   11.7048   22.2523 C   0  0  0  0  0  0  0  0  0  0  0  0
   27.8344   13.9517   19.4144 O   0  0  0  0  0  0  0  0  0  0  0  0
   30.4848   11.8190   23.1979 C   0  0  0  0  0  0  0  0  0  0  0  0
   28.1355   11.9109   22.6849 C   0  0  0  0  0  0  0  0  0  0  0  0
   28.8871   12.3349   24.9608 C   0  0  0  0  0  0  0  0  0  0  0  0
   34.5858    9.6005   28.8946 C   0  0  0  0  0  0  0  0  0  0  0  0
   29.6324   14.3282   20.7050 O   0  0  0  0  0  0  0  0  0  0  0  0
   26.3208   10.5681   26.8218 C   0  0  0  0  0  0  0  0  0  0  0  0
   27.8552   12.2283   24.0182 C   0  0  0  0  0  0  0  0  0  0  0  0
   30.2062   12.1278   24.5335 C   0  0  0  0  0  0  0  0  0  0  0  0
   36.8268   11.7080   29.6686 C   0  0  0  0  0  0  0  0  0  0  0  0
   35.5576   14.2140   30.0626 C   0  0  0  0  0  0  0  0  0  0  0  0
   29.6686   11.7947   18.4396 C   0  0  0  0  0  0  0  0  0  0  0  0
   30.3328   10.1122   20.5570 C   0  0  0  0  0  0  0  0  0  0  0  0
   29.8309    8.1143   30.3711 C   0  0  0  0  0  0  0  0  0  0  0  0
   25.1956   10.1162   27.7582 C   0  0  0  0  0  0  0  0  0  0  0  0
   37.5693   12.8545   29.9791 C   0  0  0  0  0  0  0  0  0  0  0  0
   30.2431   10.5521   18.1805 C   0  0  0  0  0  0  0  0  0  0  0  0
   30.5804    9.7141   19.2392 C   0  0  0  0  0  0  0  0  0  0  0  0
   36.9479   14.0892   30.1735 C   0  0  0  0  0  0  0  0  0  0  0  0
   24.9281   11.1102   28.8819 C   0  0  0  0  0  0  0  0  0  0  0  0
   31.2985   12.6512   27.7616 H   0  0  0  0  0  0  0  0  0  0  0  0
   32.1483    9.4753   30.5458 H   0  0  0  0  0  0  0  0  0  0  0  0
   29.2961   13.4176   26.7709 H   0  0  0  0  0  0  0  0  0  0  0  0
   27.5946   13.1140   26.5199 H   0  0  0  0  0  0  0  0  0  0  0  0
   31.5210   11.6755   22.8953 H   0  0  0  0  0  0  0  0  0  0  0  0
   27.3086   11.8199   21.9812 H   0  0  0  0  0  0  0  0  0  0  0  0
   35.5658    9.4698   28.4288 H   0  0  0  0  0  0  0  0  0  0  0  0
   34.5146    8.9865   29.7957 H   0  0  0  0  0  0  0  0  0  0  0  0
   33.8193    9.3179   28.1687 H   0  0  0  0  0  0  0  0  0  0  0  0
   29.1625   15.1884   20.7287 H   0  0  0  0  0  0  0  0  0  0  0  0
   26.0667   11.5572   26.4336 H   0  0  0  0  0  0  0  0  0  0  0  0
   26.3599    9.8862   25.9642 H   0  0  0  0  0  0  0  0  0  0  0  0
   26.8187   12.3903   24.3060 H   0  0  0  0  0  0  0  0  0  0  0  0
   31.0349   12.2082   25.2344 H   0  0  0  0  0  0  0  0  0  0  0  0
   37.3169   10.7520   29.5195 H   0  0  0  0  0  0  0  0  0  0  0  0
   35.0671   15.1687   30.2136 H   0  0  0  0  0  0  0  0  0  0  0  0
   29.4042   12.4504   17.6126 H   0  0  0  0  0  0  0  0  0  0  0  0
   30.5832    9.4262   21.3653 H   0  0  0  0  0  0  0  0  0  0  0  0
   29.8705    8.3027   31.4502 H   0  0  0  0  0  0  0  0  0  0  0  0
   30.5218    7.3003   30.1231 H   0  0  0  0  0  0  0  0  0  0  0  0
   28.8153    7.7853   30.1224 H   0  0  0  0  0  0  0  0  0  0  0  0
   24.2774   10.0032   27.1688 H   0  0  0  0  0  0  0  0  0  0  0  0
   25.4189    9.1322   28.1880 H   0  0  0  0  0  0  0  0  0  0  0  0
   38.6518   12.7817   30.0721 H   0  0  0  0  0  0  0  0  0  0  0  0
   30.4266   10.2385   17.1558 H   0  0  0  0  0  0  0  0  0  0  0  0
   31.0264    8.7419   19.0430 H   0  0  0  0  0  0  0  0  0  0  0  0
   37.5460   14.9651   30.4162 H   0  0  0  0  0  0  0  0  0  0  0  0
   24.0784   10.7773   29.4842 H   0  0  0  0  0  0  0  0  0  0  0  0
   25.7929   11.2083   29.5465 H   0  0  0  0  0  0  0  0  0  0  0  0
   24.6904   12.0990   28.4791 H   0  0  0  0  0  0  0  0  0  0  0  0
  2  6  1  0
  3  8  1  0
  4  1  2  0
  5  1  1  0
  6 12  2  0
  7  2  1  0
  8 14  2  0
  9  1  1  0
 10  5  1  0
 11  4  1  0
 12  9  1  0
 13 15  2  0
 14 17  1  0
 15 19  1  0
 16 13  1  0
 17  9  2  0
 18  2  1  0
 19 21  2  0
 20 16  2  0
 21 28  1  0
 22 27  2  0
 23 18  1  0
 24  5  1  0
 25 16  1  0
 26  7  1  0
 27 23  1  0
 28 23  2  0
 29 10  2  0
 30 11  2  0
 31 13  1  0
 32 15  1  0
 33 14  1  0
 34 26  1  0
 35 29  1  0
 36 37  1  0
 37 32  2  0
 38 30  1  0
 39 34  1  0
 10 11  1  0
  8  6  1  0
 35 38  2  0
  3  7  2  0
 19 22  1  0
 36 31  2  0
 12 40  1  0
 17 41  1  0
 18 42  1  0
 18 43  1  0
 21 44  1  0
 22 45  1  0
 24 46  1  0
 24 47  1  0
 24 48  1  0
 25 49  1  0
 26 50  1  0
 26 51  1  0
 27 52  1  0
 28 53  1  0
 29 54  1  0
 30 55  1  0
 31 56  1  0
 32 57  1  0
 33 58  1  0
 33 59  1  0
 33 60  1  0
 34 61  1  0
 34 62  1  0
 35 63  1  0
 36 64  1  0
 37 65  1  0
 38 66  1  0
 39 67  1  0
 39 68  1  0
 39 69  1  0
M  END
> <Uni-Dock RESULT> 
ENERGY=   -4.179  LOWER_BOUND=    2.273  UPPER_BOUND=    3.833
INTER + INTRA:          -4.179
INTER:                  -4.179
INTRA:                   0.000
UNBOUND:                 0.000

$$$$

     RDKit          3D

 69 74  0  0  0  0  0  0  0  0999 V2000
   29.9735   11.7626   21.6886 C   0  0  0  0  0  0  0  0  0  0  0  0
   29.4352   12.2617   26.6477 N   0  0  0  0  0  0  0  0  0  0  0  0
   28.7222   14.3590   26.5157 N   0  0  0  0  0  0  0  0  0  0  0  0
   29.5657   10.5366   21.4104 N   0  0  0  0  0  0  0  0  0  0  0  0
   30.8165   12.2202   20.6919 N   0  0  0  0  0  0  0  0  0  0  0  0
   29.4143   12.5702   25.3014 C   0  0  0  0  0  0  0  0  0  0  0  0
   28.9874   13.3681   27.3443 C   0  0  0  0  0  0  0  0  0  0  0  0
   28.9667   13.8855   25.2537 C   0  0  0  0  0  0  0  0  0  0  0  0
   29.6169   12.4957   22.9073 C   0  0  0  0  0  0  0  0  0  0  0  0
   30.8772   11.2672   19.6998 C   0  0  0  0  0  0  0  0  0  0  0  0
   30.0907   10.2274   20.1824 C   0  0  0  0  0  0  0  0  0  0  0  0
   29.7347   11.8453   24.1454 C   0  0  0  0  0  0  0  0  0  0  0  0
   35.8388    9.9885   29.9922 C   0  0  0  0  0  0  0  0  0  0  0  0
   28.8116   14.5390   24.0153 C   0  0  0  0  0  0  0  0  0  0  0  0
   35.3099   10.9652   29.1240 C   0  0  0  0  0  0  0  0  0  0  0  0
   35.0574    8.8206   30.4409 C   0  0  0  0  0  0  0  0  0  0  0  0
   29.1411   13.8129   22.8511 C   0  0  0  0  0  0  0  0  0  0  0  0
   29.8133   10.9709   27.2064 C   0  0  0  0  0  0  0  0  0  0  0  0
   33.9179   10.9531   28.6413 C   0  0  0  0  0  0  0  0  0  0  0  0
   34.8753    8.4876   31.5964 O   0  0  0  0  0  0  0  0  0  0  0  0
   33.6310   10.8607   27.2711 C   0  0  0  0  0  0  0  0  0  0  0  0
   32.8411   11.0506   29.5362 C   0  0  0  0  0  0  0  0  0  0  0  0
   31.2380   10.9625   27.7068 C   0  0  0  0  0  0  0  0  0  0  0  0
   31.5646   13.4556   20.6993 C   0  0  0  0  0  0  0  0  0  0  0  0
   34.6272    8.0848   29.4018 O   0  0  0  0  0  0  0  0  0  0  0  0
   28.8452   13.4482   28.8325 C   0  0  0  0  0  0  0  0  0  0  0  0
   31.5196   11.0484   29.0772 C   0  0  0  0  0  0  0  0  0  0  0  0
   32.3106   10.8670   26.8091 C   0  0  0  0  0  0  0  0  0  0  0  0
   31.5334   11.2061   18.4629 C   0  0  0  0  0  0  0  0  0  0  0  0
   29.9376    9.0629   19.4149 C   0  0  0  0  0  0  0  0  0  0  0  0
   37.1492   10.0889   30.4859 C   0  0  0  0  0  0  0  0  0  0  0  0
   36.1603   12.0221   28.7423 C   0  0  0  0  0  0  0  0  0  0  0  0
   28.3100   15.9477   23.8923 C   0  0  0  0  0  0  0  0  0  0  0  0
   27.6159   14.2491   29.2733 C   0  0  0  0  0  0  0  0  0  0  0  0
   31.3661   10.0376   17.7087 C   0  0  0  0  0  0  0  0  0  0  0  0
   37.9652   11.1480   30.0942 C   0  0  0  0  0  0  0  0  0  0  0  0
   37.4726   12.1106   29.2181 C   0  0  0  0  0  0  0  0  0  0  0  0
   30.5816    8.9811   18.1742 C   0  0  0  0  0  0  0  0  0  0  0  0
   26.3044   13.5495   28.9378 C   0  0  0  0  0  0  0  0  0  0  0  0
   30.0697   10.8133   24.1894 H   0  0  0  0  0  0  0  0  0  0  0  0
   28.9989   14.2914   21.8835 H   0  0  0  0  0  0  0  0  0  0  0  0
   29.6806   10.2017   26.4373 H   0  0  0  0  0  0  0  0  0  0  0  0
   29.1018   10.7208   28.0011 H   0  0  0  0  0  0  0  0  0  0  0  0
   34.4415   10.7736   26.5491 H   0  0  0  0  0  0  0  0  0  0  0  0
   33.0255   11.1349   30.6067 H   0  0  0  0  0  0  0  0  0  0  0  0
   32.4781   13.3334   20.1120 H   0  0  0  0  0  0  0  0  0  0  0  0
   30.9390   14.2367   20.2605 H   0  0  0  0  0  0  0  0  0  0  0  0
   31.8459   13.7112   21.7239 H   0  0  0  0  0  0  0  0  0  0  0  0
   34.1541    7.3330   29.8167 H   0  0  0  0  0  0  0  0  0  0  0  0
   28.7890   12.4566   29.2876 H   0  0  0  0  0  0  0  0  0  0  0  0
   29.7433   13.9345   29.2309 H   0  0  0  0  0  0  0  0  0  0  0  0
   30.7164   11.1148   29.8080 H   0  0  0  0  0  0  0  0  0  0  0  0
   32.1320   10.7921   25.7381 H   0  0  0  0  0  0  0  0  0  0  0  0
   32.1441   12.0230   18.0942 H   0  0  0  0  0  0  0  0  0  0  0  0
   29.3253    8.2477   19.7830 H   0  0  0  0  0  0  0  0  0  0  0  0
   37.5332    9.3360   31.1711 H   0  0  0  0  0  0  0  0  0  0  0  0
   35.7921   12.8028   28.0779 H   0  0  0  0  0  0  0  0  0  0  0  0
   27.3927   15.9693   23.2927 H   0  0  0  0  0  0  0  0  0  0  0  0
   29.0686   16.5755   23.4108 H   0  0  0  0  0  0  0  0  0  0  0  0
   28.0831   16.3813   24.8732 H   0  0  0  0  0  0  0  0  0  0  0  0
   27.6653   14.3917   30.3597 H   0  0  0  0  0  0  0  0  0  0  0  0
   27.6210   15.2489   28.8223 H   0  0  0  0  0  0  0  0  0  0  0  0
   31.8560    9.9517   16.7400 H   0  0  0  0  0  0  0  0  0  0  0  0
   38.9821   11.2222   30.4716 H   0  0  0  0  0  0  0  0  0  0  0  0
   38.1040   12.9411   28.9110 H   0  0  0  0  0  0  0  0  0  0  0  0
   30.4650    8.0846   17.5689 H   0  0  0  0  0  0  0  0  0  0  0  0
   25.4604   14.1259   29.3265 H   0  0  0  0  0  0  0  0  0  0  0  0
   26.1696   13.4446   27.8561 H   0  0  0  0  0  0  0  0  0  0  0  0
   26.2685   12.5527   29.3867 H   0  0  0  0  0  0  0  0  0  0  0  0
  2  6  1  0
  3  8  1  0
  4  1  2  0
  5  1  1  0
  6 12  2  0
  7  2  1  0
  8 14  2  0
  9  1  1  0
 10  5  1  0
 11  4  1  0
 12  9  1  0
 13 15  2  0
 14 17  1  0
 15 19  1  0
 16 13  1  0
 17  9  2  0
 18  2  1  0
 19 21  2  0
 20 16  2  0
 21 28  1  0
 22 27  2  0
 23 18  1  0
 24  5  1  0
 25 16  1  0
 26  7  1  0
 27 23  1  0
 28 23  2  0
 29 10  2  0
 30 11  2  0
 31 13  1  0
 32 15  1  0
 33 14  1  0
 34 26  1  0
 35 29  1  0
 36 37  1  0
 37 32  2  0
 38 30  1  0
 39 34  1  0
 10 11  1  0
  8  6  1  0
 35 38  2  0
  3  7  2  0
 19 22  1  0
 36 31  2  0
 12 40  1  0
 17 41  1  0
 18 42  1  0
 18 43  1  0
 21 44  1  0
 22 45  1  0
 24 46  1  0
 24 47  1  0
 24 48  1  0
 25 49  1  0
 26 50  1  0
 26 51  1  0
 27 52  1  0
 28 53  1  0
 29 54  1  0
 30 55  1  0
 31 56  1  0
 32 57  1  0
 33 58  1  0
 33 59  1  0
 33 60  1  0
 34 61  1  0
 34 62  1  0
 35 63  1  0
 36 64  1  0
 37 65  1  0
 38 66  1  0
 39 67  1  0
 39 68  1  0
 39 69  1  0
M  END
> <Uni-Dock RESULT> 
ENERGY=   -4.166  LOWER_BOUND=    3.609  UPPER_BOUND=    9.261
INTER + INTRA:          -4.166
INTER:                  -4.166
INTRA:                   0.000
UNBOUND:                 0.000

$$$$

     RDKit          3D

 69 74  0  0  0  0  0  0  0  0999 V2000
   29.3638   10.4320   31.1643 C   0  0  0  0  0  0  0  0  0  0  0  0
   28.5557    5.4938   30.8607 N   0  0  0  0  0  0  0  0  0  0  0  0
   29.7333    5.2586   28.9946 N   0  0  0  0  0  0  0  0  0  0  0  0
   29.5448   10.6823   32.4494 N   0  0  0  0  0  0  0  0  0  0  0  0
   28.9689   11.5836   30.5075 N   0  0  0  0  0  0  0  0  0  0  0  0
   29.0314    6.7534   30.5523 C   0  0  0  0  0  0  0  0  0  0  0  0
   29.0239    4.6160   29.9014 C   0  0  0  0  0  0  0  0  0  0  0  0
   29.7602    6.5723   29.3824 C   0  0  0  0  0  0  0  0  0  0  0  0
   29.5126    9.1086   30.5510 C   0  0  0  0  0  0  0  0  0  0  0  0
   28.9807   12.6255   31.4076 C   0  0  0  0  0  0  0  0  0  0  0  0
   29.3382   12.0278   32.6108 C   0  0  0  0  0  0  0  0  0  0  0  0
   28.9002    8.0061   31.1670 C   0  0  0  0  0  0  0  0  0  0  0  0
   21.1207    4.2362   31.5656 C   0  0  0  0  0  0  0  0  0  0  0  0
   30.4080    7.6644   28.7723 C   0  0  0  0  0  0  0  0  0  0  0  0
   22.0837    4.8452   30.7353 C   0  0  0  0  0  0  0  0  0  0  0  0
   21.4541    3.6823   32.8914 C   0  0  0  0  0  0  0  0  0  0  0  0
   30.2705    8.9276   29.3859 C   0  0  0  0  0  0  0  0  0  0  0  0
   27.7506    5.1643   32.0288 C   0  0  0  0  0  0  0  0  0  0  0  0
   23.5149    4.9243   31.0761 C   0  0  0  0  0  0  0  0  0  0  0  0
   21.2165    2.5514   33.2705 O   0  0  0  0  0  0  0  0  0  0  0  0
   24.1539    6.1648   31.2204 C   0  0  0  0  0  0  0  0  0  0  0  0
   24.2825    3.7621   31.2492 C   0  0  0  0  0  0  0  0  0  0  0  0
   26.2792    5.0789   31.7003 C   0  0  0  0  0  0  0  0  0  0  0  0
   28.5510   11.6859   29.1288 C   0  0  0  0  0  0  0  0  0  0  0  0
   21.9855    4.6168   33.6981 O   0  0  0  0  0  0  0  0  0  0  0  0
   28.7476    3.1448   29.8734 C   0  0  0  0  0  0  0  0  0  0  0  0
   25.6436    3.8371   31.5637 C   0  0  0  0  0  0  0  0  0  0  0  0
   25.5167    6.2424   31.5263 C   0  0  0  0  0  0  0  0  0  0  0  0
   28.7109   13.9963   31.2966 C   0  0  0  0  0  0  0  0  0  0  0  0
   29.4365   12.8121   33.7699 C   0  0  0  0  0  0  0  0  0  0  0  0
   19.7823    4.1171   31.1588 C   0  0  0  0  0  0  0  0  0  0  0  0
   21.6415    5.3625   29.5014 C   0  0  0  0  0  0  0  0  0  0  0  0
   31.2300    7.5332   27.5239 C   0  0  0  0  0  0  0  0  0  0  0  0
   29.9471    2.3204   29.3954 C   0  0  0  0  0  0  0  0  0  0  0  0
   28.8176   14.7644   32.4631 C   0  0  0  0  0  0  0  0  0  0  0  0
   19.3755    4.6345   29.9308 C   0  0  0  0  0  0  0  0  0  0  0  0
   20.3038    5.2621   29.1055 C   0  0  0  0  0  0  0  0  0  0  0  0
   29.1744   14.1849   33.6818 C   0  0  0  0  0  0  0  0  0  0  0  0
   31.1051    2.3346   30.3859 C   0  0  0  0  0  0  0  0  0  0  0  0
   28.3415    8.1375   32.0888 H   0  0  0  0  0  0  0  0  0  0  0  0
   30.7890    9.7777   28.9455 H   0  0  0  0  0  0  0  0  0  0  0  0
   27.9201    5.9249   32.7993 H   0  0  0  0  0  0  0  0  0  0  0  0
   28.1281    4.2263   32.4506 H   0  0  0  0  0  0  0  0  0  0  0  0
   23.5869    7.0871   31.1029 H   0  0  0  0  0  0  0  0  0  0  0  0
   23.8230    2.7809   31.1343 H   0  0  0  0  0  0  0  0  0  0  0  0
   27.8415   12.5104   29.0221 H   0  0  0  0  0  0  0  0  0  0  0  0
   29.4364   11.8723   28.5160 H   0  0  0  0  0  0  0  0  0  0  0  0
   28.0533   10.7620   28.8238 H   0  0  0  0  0  0  0  0  0  0  0  0
   22.1361    4.1478   34.5458 H   0  0  0  0  0  0  0  0  0  0  0  0
   28.4442    2.7712   30.8541 H   0  0  0  0  0  0  0  0  0  0  0  0
   27.9078    2.9729   29.1898 H   0  0  0  0  0  0  0  0  0  0  0  0
   26.1966    2.9102   31.6995 H   0  0  0  0  0  0  0  0  0  0  0  0
   25.9731    7.2249   31.6306 H   0  0  0  0  0  0  0  0  0  0  0  0
   28.4336   14.4540   30.3532 H   0  0  0  0  0  0  0  0  0  0  0  0
   29.7158   12.3545   34.7120 H   0  0  0  0  0  0  0  0  0  0  0  0
   19.0574    3.6258   31.8046 H   0  0  0  0  0  0  0  0  0  0  0  0
   22.3520    5.8361   28.8249 H   0  0  0  0  0  0  0  0  0  0  0  0
   32.2606    7.8526   27.7168 H   0  0  0  0  0  0  0  0  0  0  0  0
   30.8046    8.1545   26.7274 H   0  0  0  0  0  0  0  0  0  0  0  0
   31.2582    6.4969   27.1677 H   0  0  0  0  0  0  0  0  0  0  0  0
   29.6219    1.2821   29.2565 H   0  0  0  0  0  0  0  0  0  0  0  0
   30.2986    2.6753   28.4190 H   0  0  0  0  0  0  0  0  0  0  0  0
   28.6200   15.8343   32.4188 H   0  0  0  0  0  0  0  0  0  0  0  0
   18.3377    4.5478   29.6187 H   0  0  0  0  0  0  0  0  0  0  0  0
   19.9928    5.6653   28.1445 H   0  0  0  0  0  0  0  0  0  0  0  0
   29.2530   14.8029   34.5738 H   0  0  0  0  0  0  0  0  0  0  0  0
   31.9100    1.6840   30.0329 H   0  0  0  0  0  0  0  0  0  0  0  0
   31.5170    3.3418   30.5087 H   0  0  0  0  0  0  0  0  0  0  0  0
   30.7835    1.9730   31.3667 H   0  0  0  0  0  0  0  0  0  0  0  0
  2  6  1  0
  3  8  1  0
  4  1  2  0
  5  1  1  0
  6 12  2  0
  7  2  1  0
  8 14  2  0
  9  1  1  0
 10  5  1  0
 11  4  1  0
 12  9  1  0
 13 15  2  0
 14 17  1  0
 15 19  1  0
 16 13  1  0
 17  9  2  0
 18  2  1  0
 19 21  2  0
 20 16  2  0
 21 28  1  0
 22 27  2  0
 23 18  1  0
 24  5  1  0
 25 16  1  0
 26  7  1  0
 27 23  1  0
 28 23  2  0
 29 10  2  0
 30 11  2  0
 31 13  1  0
 32 15  1  0
 33 14  1  0
 34 26  1  0
 35 29  1  0
 36 37  1  0
 37 32  2  0
 38 30  1  0
 39 34  1  0
 10 11  1  0
  8  6  1  0
 35 38  2  0
  3  7  2  0
 19 22  1  0
 36 31  2  0
 12 40  1  0
 17 41  1  0
 18 42  1  0
 18 43  1  0
 21 44  1  0
 22 45  1  0
 24 46  1  0
 24 47  1  0
 24 48  1  0
 25 49  1  0
 26 50  1  0
 26 51  1  0
 27 52  1  0
 28 53  1  0
 29 54  1  0
 30 55  1  0
 31 56  1  0
 32 57  1  0
 33 58  1  0
 33 59  1  0
 33 60  1  0
 34 61  1  0
 34 62  1  0
 35 63  1  0
 36 64  1  0
 37 65  1  0
 38 66  1  0
 39 67  1  0
 39 68  1  0
 39 69  1  0
M  END
> <Uni-Dock RESULT> 
ENERGY=   -4.107  LOWER_BOUND=    8.087  UPPER_BOUND=   12.507
INTER + INTRA:          -4.107
INTER:                  -4.107
INTRA:                   0.000
UNBOUND:                 0.000

$$$$

     RDKit          3D

 69 74  0  0  0  0  0  0  0  0999 V2000
   28.5417   11.6983   22.5169 C   0  0  0  0  0  0  0  0  0  0  0  0
   26.4339   11.9012   27.0608 N   0  0  0  0  0  0  0  0  0  0  0  0
   26.2245   14.1103   27.0359 N   0  0  0  0  0  0  0  0  0  0  0  0
   28.0286   10.6274   21.9367 N   0  0  0  0  0  0  0  0  0  0  0  0
   29.7473   12.0277   21.9241 N   0  0  0  0  0  0  0  0  0  0  0  0
   26.9374   12.3152   25.8429 C   0  0  0  0  0  0  0  0  0  0  0  0
   25.9937   13.0205   27.7414 C   0  0  0  0  0  0  0  0  0  0  0  0
   26.7936   13.6978   25.8600 C   0  0  0  0  0  0  0  0  0  0  0  0
   27.9341   12.3919   23.6569 C   0  0  0  0  0  0  0  0  0  0  0  0
   29.9628   11.1711   20.8677 C   0  0  0  0  0  0  0  0  0  0  0  0
   28.8751   10.3063   20.9074 C   0  0  0  0  0  0  0  0  0  0  0  0
   27.4916   11.6329   24.7514 C   0  0  0  0  0  0  0  0  0  0  0  0
   30.7335    7.9383   31.8741 C   0  0  0  0  0  0  0  0  0  0  0  0
   27.2025   14.4685   24.7539 C   0  0  0  0  0  0  0  0  0  0  0  0
   30.7330    9.0788   31.0453 C   0  0  0  0  0  0  0  0  0  0  0  0
   29.6377    6.9509   31.8639 C   0  0  0  0  0  0  0  0  0  0  0  0
   27.7678   13.7836   23.6573 C   0  0  0  0  0  0  0  0  0  0  0  0
   26.3424   10.5167   27.5035 C   0  0  0  0  0  0  0  0  0  0  0  0
   29.6175    9.4295   30.1490 C   0  0  0  0  0  0  0  0  0  0  0  0
   29.0087    6.5758   32.8349 O   0  0  0  0  0  0  0  0  0  0  0  0
   29.8082    9.5186   28.7620 C   0  0  0  0  0  0  0  0  0  0  0  0
   28.3381    9.7007   30.6583 C   0  0  0  0  0  0  0  0  0  0  0  0
   27.4780   10.1370   28.4236 C   0  0  0  0  0  0  0  0  0  0  0  0
   30.6683   13.0510   22.3608 C   0  0  0  0  0  0  0  0  0  0  0  0
   29.4597    6.4226   30.6409 O   0  0  0  0  0  0  0  0  0  0  0  0
   25.3655   13.0094   29.1004 C   0  0  0  0  0  0  0  0  0  0  0  0
   27.2811   10.0427   29.8082 C   0  0  0  0  0  0  0  0  0  0  0  0
   28.7549    9.8689   27.9106 C   0  0  0  0  0  0  0  0  0  0  0  0
   30.9804   11.0608   19.9103 C   0  0  0  0  0  0  0  0  0  0  0  0
   28.7763    9.2760   19.9603 C   0  0  0  0  0  0  0  0  0  0  0  0
   31.7870    7.6911   32.7685 C   0  0  0  0  0  0  0  0  0  0  0  0
   31.8479    9.9370   31.1230 C   0  0  0  0  0  0  0  0  0  0  0  0
   27.0528   15.9604   24.6977 C   0  0  0  0  0  0  0  0  0  0  0  0
   24.2368   14.0349   29.2456 C   0  0  0  0  0  0  0  0  0  0  0  0
   30.8634   10.0288   18.9705 C   0  0  0  0  0  0  0  0  0  0  0  0
   32.8743    8.5603   32.8261 C   0  0  0  0  0  0  0  0  0  0  0  0
   32.9072    9.6793   31.9994 C   0  0  0  0  0  0  0  0  0  0  0  0
   29.7802    9.1487   18.9922 C   0  0  0  0  0  0  0  0  0  0  0  0
   23.0132   13.6886   28.4059 C   0  0  0  0  0  0  0  0  0  0  0  0
   27.5873   10.5513   24.7390 H   0  0  0  0  0  0  0  0  0  0  0  0
   28.0617   14.3595   22.7814 H   0  0  0  0  0  0  0  0  0  0  0  0
   26.3386    9.8648   26.6226 H   0  0  0  0  0  0  0  0  0  0  0  0
   25.3670   10.3744   27.9814 H   0  0  0  0  0  0  0  0  0  0  0  0
   30.7852    9.3052   28.3311 H   0  0  0  0  0  0  0  0  0  0  0  0
   28.1549    9.6520   31.7313 H   0  0  0  0  0  0  0  0  0  0  0  0
   31.6870   12.7686   22.0833 H   0  0  0  0  0  0  0  0  0  0  0  0
   30.3937   13.9892   21.8725 H   0  0  0  0  0  0  0  0  0  0  0  0
   30.6228   13.1496   23.4482 H   0  0  0  0  0  0  0  0  0  0  0  0
   28.7383    5.7697   30.7618 H   0  0  0  0  0  0  0  0  0  0  0  0
   24.9677   12.0241   29.3543 H   0  0  0  0  0  0  0  0  0  0  0  0
   26.1467   13.2398   29.8343 H   0  0  0  0  0  0  0  0  0  0  0  0
   26.3038   10.2337   30.2462 H   0  0  0  0  0  0  0  0  0  0  0  0
   28.9454    9.9254   26.8406 H   0  0  0  0  0  0  0  0  0  0  0  0
   31.8248   11.7410   19.8866 H   0  0  0  0  0  0  0  0  0  0  0  0
   27.9311    8.5978   19.9831 H   0  0  0  0  0  0  0  0  0  0  0  0
   31.7602    6.8162   33.4147 H   0  0  0  0  0  0  0  0  0  0  0  0
   31.8876   10.8335   30.5056 H   0  0  0  0  0  0  0  0  0  0  0  0
   26.4204   16.2433   23.8484 H   0  0  0  0  0  0  0  0  0  0  0  0
   28.0358   16.4323   24.5863 H   0  0  0  0  0  0  0  0  0  0  0  0
   26.5892   16.3531   25.6101 H   0  0  0  0  0  0  0  0  0  0  0  0
   23.9351   14.0728   30.2995 H   0  0  0  0  0  0  0  0  0  0  0  0
   24.5877   15.0396   28.9806 H   0  0  0  0  0  0  0  0  0  0  0  0
   31.6310    9.9111   18.2071 H   0  0  0  0  0  0  0  0  0  0  0  0
   33.6931    8.3654   33.5143 H   0  0  0  0  0  0  0  0  0  0  0  0
   33.7519   10.3629   32.0420 H   0  0  0  0  0  0  0  0  0  0  0  0
   29.7102    8.3564   18.2499 H   0  0  0  0  0  0  0  0  0  0  0  0
   22.2137   14.4113   28.5903 H   0  0  0  0  0  0  0  0  0  0  0  0
   23.2419   13.7067   27.3352 H   0  0  0  0  0  0  0  0  0  0  0  0
   22.6352   12.6940   28.6597 H   0  0  0  0  0  0  0  0  0  0  0  0
  2  6  1  0
  3  8  1  0
  4  1  2  0
  5  1  1  0
  6 12  2  0
  7  2  1  0
  8 14  2  0
  9  1  1  0
 10  5  1  0
 11  4  1  0
 12  9  1  0
 13 15  2  0
 14 17  1  0
 15 19  1  0
 16 13  1  0
 17  9  2  0
 18  2  1  0
 19 21  2  0
 20 16  2  0
 21 28  1  0
 22 27  2  0
 23 18  1  0
 24  5  1  0
 25 16  1  0
 26  7  1  0
 27 23  1  0
 28 23  2  0
 29 10  2  0
 30 11  2  0
 31 13  1  0
 32 15  1  0
 33 14  1  0
 34 26  1  0
 35 29  1  0
 36 37  1  0
 37 32  2  0
 38 30  1  0
 39 34  1  0
 10 11  1  0
  8  6  1  0
 35 38  2  0
  3  7  2  0
 19 22  1  0
 36 31  2  0
 12 40  1  0
 17 41  1  0
 18 42  1  0
 18 43  1  0
 21 44  1  0
 22 45  1  0
 24 46  1  0
 24 47  1  0
 24 48  1  0
 25 49  1  0
 26 50  1  0
 26 51  1  0
 27 52  1  0
 28 53  1  0
 29 54  1  0
 30 55  1  0
 31 56  1  0
 32 57  1  0
 33 58  1  0
 33 59  1  0
 33 60  1  0
 34 61  1  0
 34 62  1  0
 35 63  1  0
 36 64  1  0
 37 65  1  0
 38 66  1  0
 39 67  1  0
 39 68  1  0
 39 69  1  0
M  END
> <Uni-Dock RESULT> 
ENERGY=   -4.095  LOWER_BOUND=    4.264  UPPER_BOUND=    9.762
INTER + INTRA:          -4.095
INTER:                  -4.095
INTRA:                   0.000
UNBOUND:                 0.000

$$$$

     RDKit          3D

 69 74  0  0  0  0  0  0  0  0999 V2000
   27.1445   12.1192   25.6252 C   0  0  0  0  0  0  0  0  0  0  0  0
   30.0732    9.1072   28.3604 N   0  0  0  0  0  0  0  0  0  0  0  0
   28.4512    8.5520   29.7695 N   0  0  0  0  0  0  0  0  0  0  0  0
   27.5059   11.9189   24.3697 N   0  0  0  0  0  0  0  0  0  0  0  0
   26.5300   13.3521   25.7513 N   0  0  0  0  0  0  0  0  0  0  0  0
   28.9475    9.7792   27.9252 C   0  0  0  0  0  0  0  0  0  0  0  0
   29.7202    8.3592   29.4676 C   0  0  0  0  0  0  0  0  0  0  0  0
   27.9545    9.4126   28.8265 C   0  0  0  0  0  0  0  0  0  0  0  0
   27.4119   11.1833   26.7217 C   0  0  0  0  0  0  0  0  0  0  0  0
   26.4276   13.9189   24.5006 C   0  0  0  0  0  0  0  0  0  0  0  0
   27.0516   13.0018   23.6626 C   0  0  0  0  0  0  0  0  0  0  0  0
   28.7039   10.6517   26.8559 C   0  0  0  0  0  0  0  0  0  0  0  0
   36.3765   12.8950   30.1713 C   0  0  0  0  0  0  0  0  0  0  0  0
   26.6451    9.9123   28.6832 C   0  0  0  0  0  0  0  0  0  0  0  0
   34.9796   12.8820   30.3610 C   0  0  0  0  0  0  0  0  0  0  0  0
   37.0545   12.0003   29.2144 C   0  0  0  0  0  0  0  0  0  0  0  0
   26.4002   10.7970   27.6116 C   0  0  0  0  0  0  0  0  0  0  0  0
   31.3781    9.1514   27.7150 C   0  0  0  0  0  0  0  0  0  0  0  0
   34.0776   11.9358   29.6814 C   0  0  0  0  0  0  0  0  0  0  0  0
   37.9784   11.2523   29.4714 O   0  0  0  0  0  0  0  0  0  0  0  0
   33.0620   12.3941   28.8289 C   0  0  0  0  0  0  0  0  0  0  0  0
   34.1978   10.5517   29.8807 C   0  0  0  0  0  0  0  0  0  0  0  0
   32.3180   10.1167   28.3970 C   0  0  0  0  0  0  0  0  0  0  0  0
   26.1153   13.9834   26.9823 C   0  0  0  0  0  0  0  0  0  0  0  0
   36.5890   12.1690   27.9649 O   0  0  0  0  0  0  0  0  0  0  0  0
   30.6482    7.4722   30.2380 C   0  0  0  0  0  0  0  0  0  0  0  0
   33.3354    9.6537   29.2427 C   0  0  0  0  0  0  0  0  0  0  0  0
   32.1930   11.4986   28.1966 C   0  0  0  0  0  0  0  0  0  0  0  0
   25.8750   15.1176   24.0296 C   0  0  0  0  0  0  0  0  0  0  0  0
   27.1418   13.2709   22.2886 C   0  0  0  0  0  0  0  0  0  0  0  0
   37.2005   13.7650   30.9028 C   0  0  0  0  0  0  0  0  0  0  0  0
   34.4421   13.8020   31.2832 C   0  0  0  0  0  0  0  0  0  0  0  0
   25.5224    9.5376   29.6054 C   0  0  0  0  0  0  0  0  0  0  0  0
   29.9754    6.1868   30.7302 C   0  0  0  0  0  0  0  0  0  0  0  0
   25.9710   15.3678   22.6547 C   0  0  0  0  0  0  0  0  0  0  0  0
   36.6405   14.6607   31.8111 C   0  0  0  0  0  0  0  0  0  0  0  0
   35.2614   14.6830   31.9965 C   0  0  0  0  0  0  0  0  0  0  0  0
   26.5937   14.4613   21.7952 C   0  0  0  0  0  0  0  0  0  0  0  0
   29.6141    5.2377   29.5940 C   0  0  0  0  0  0  0  0  0  0  0  0
   29.4809   10.9221   26.1471 H   0  0  0  0  0  0  0  0  0  0  0  0
   25.3874   11.1694   27.4672 H   0  0  0  0  0  0  0  0  0  0  0  0
   31.2425    9.4368   26.6657 H   0  0  0  0  0  0  0  0  0  0  0  0
   31.7842    8.1341   27.6951 H   0  0  0  0  0  0  0  0  0  0  0  0
   32.9459   13.4608   28.6434 H   0  0  0  0  0  0  0  0  0  0  0  0
   34.9678   10.1595   30.5444 H   0  0  0  0  0  0  0  0  0  0  0  0
   26.1560   15.0696   26.8679 H   0  0  0  0  0  0  0  0  0  0  0  0
   25.0921   13.6680   27.2005 H   0  0  0  0  0  0  0  0  0  0  0  0
   26.7923   13.6971   27.7910 H   0  0  0  0  0  0  0  0  0  0  0  0
   37.1254   11.5540   27.4215 H   0  0  0  0  0  0  0  0  0  0  0  0
   31.5257    7.1955   29.6491 H   0  0  0  0  0  0  0  0  0  0  0  0
   31.0085    8.0355   31.1069 H   0  0  0  0  0  0  0  0  0  0  0  0
   33.4728    8.5889   29.4181 H   0  0  0  0  0  0  0  0  0  0  0  0
   31.4195   11.8960   27.5421 H   0  0  0  0  0  0  0  0  0  0  0  0
   25.3891   15.8267   24.6909 H   0  0  0  0  0  0  0  0  0  0  0  0
   27.6256   12.5609   21.6278 H   0  0  0  0  0  0  0  0  0  0  0  0
   38.2786   13.7465   30.7574 H   0  0  0  0  0  0  0  0  0  0  0  0
   33.3684   13.8233   31.4664 H   0  0  0  0  0  0  0  0  0  0  0  0
   24.7150    9.0585   29.0398 H   0  0  0  0  0  0  0  0  0  0  0  0
   25.1306   10.4324   30.1027 H   0  0  0  0  0  0  0  0  0  0  0  0
   25.8546    8.8367   30.3800 H   0  0  0  0  0  0  0  0  0  0  0  0
   30.6664    5.6703   31.4075 H   0  0  0  0  0  0  0  0  0  0  0  0
   29.0749    6.4175   31.3122 H   0  0  0  0  0  0  0  0  0  0  0  0
   25.5506   16.2863   22.2477 H   0  0  0  0  0  0  0  0  0  0  0  0
   37.2781   15.3388   32.3729 H   0  0  0  0  0  0  0  0  0  0  0  0
   34.8188   15.3780   32.7064 H   0  0  0  0  0  0  0  0  0  0  0  0
   26.6536   14.6769   20.7305 H   0  0  0  0  0  0  0  0  0  0  0  0
   29.1964    4.3109   29.9966 H   0  0  0  0  0  0  0  0  0  0  0  0
   28.8690    5.6783   28.9234 H   0  0  0  0  0  0  0  0  0  0  0  0
   30.4987    4.9816   29.0039 H   0  0  0  0  0  0  0  0  0  0  0  0
  2  6  1  0
  3  8  1  0
  4  1  2  0
  5  1  1  0
  6 12  2  0
  7  2  1  0
  8 14  2  0
  9  1  1  0
 10  5  1  0
 11  4  1  0
 12  9  1  0
 13 15  2  0
 14 17  1  0
 15 19  1  0
 16 13  1  0
 17  9  2  0
 18  2  1  0
 19 21  2  0
 20 16  2  0
 21 28  1  0
 22 27  2  0
 23 18  1  0
 24  5  1  0
 25 16  1  0
 26  7  1  0
 27 23  1  0
 28 23  2  0
 29 10  2  0
 30 11  2  0
 31 13  1  0
 32 15  1  0
 33 14  1  0
 34 26  1  0
 35 29  1  0
 36 37  1  0
 37 32  2  0
 38 30  1  0
 39 34  1  0
 10 11  1  0
  8  6  1  0
 35 38  2  0
  3  7  2  0
 19 22  1  0
 36 31  2  0
 12 40  1  0
 17 41  1  0
 18 42  1  0
 18 43  1  0
 21 44  1  0
 22 45  1  0
 24 46  1  0
 24 47  1  0
 24 48  1  0
 25 49  1  0
 26 50  1  0
 26 51  1  0
 27 52  1  0
 28 53  1  0
 29 54  1  0
 30 55  1  0
 31 56  1  0
 32 57  1  0
 33 58  1  0
 33 59  1  0
 33 60  1  0
 34 61  1  0
 34 62  1  0
 35 63  1  0
 36 64  1  0
 37 65  1  0
 38 66  1  0
 39 67  1  0
 39 68  1  0
 39 69  1  0
M  END
> <Uni-Dock RESULT> 
ENERGY=   -3.980  LOWER_BOUND=    4.318  UPPER_BOUND=    9.929
INTER + INTRA:          -3.980
INTER:                  -3.980
INTRA:                   0.000
UNBOUND:                 0.000

$$$$
