
     RDKit          3D

 69 74  0  0  0  0  0  0  0  0999 V2000
   27.2157   12.3449   22.0831 C   0  0  0  0  0  0  0  0  0  0  0  0
   27.7797   12.6515   27.0512 N   0  0  0  0  0  0  0  0  0  0  0  0
   29.9939   12.5269   26.9704 N   0  0  0  0  0  0  0  0  0  0  0  0
   26.2229   13.1737   21.8094 N   0  0  0  0  0  0  0  0  0  0  0  0
   27.3514   11.4155   21.0677 N   0  0  0  0  0  0  0  0  0  0  0  0
   28.1027   12.5440   25.7133 C   0  0  0  0  0  0  0  0  0  0  0  0
   28.9541   12.6105   27.7768 C   0  0  0  0  0  0  0  0  0  0  0  0
   29.4911   12.4771   25.6962 C   0  0  0  0  0  0  0  0  0  0  0  0
   28.0076   12.3894   23.3166 C   0  0  0  0  0  0  0  0  0  0  0  0
   26.4466   11.7181   20.0747 C   0  0  0  0  0  0  0  0  0  0  0  0
   25.7551   12.8170   20.5724 C   0  0  0  0  0  0  0  0  0  0  0  0
   27.3340   12.5087   24.5423 C   0  0  0  0  0  0  0  0  0  0  0  0
   24.9403    7.4014   31.1367 C   0  0  0  0  0  0  0  0  0  0  0  0
   30.1809   12.3842   24.4715 C   0  0  0  0  0  0  0  0  0  0  0  0
   24.2095    8.2233   30.2524 C   0  0  0  0  0  0  0  0  0  0  0  0
   26.3872    7.6322   31.3938 C   0  0  0  0  0  0  0  0  0  0  0  0
   29.4091   12.3499   23.2903 C   0  0  0  0  0  0  0  0  0  0  0  0
   26.4373   12.8700   27.5751 C   0  0  0  0  0  0  0  0  0  0  0  0
   24.7780    9.3945   29.5735 C   0  0  0  0  0  0  0  0  0  0  0  0
   27.2128    8.1056   30.6392 O   0  0  0  0  0  0  0  0  0  0  0  0
   25.2232    9.3094   28.2475 C   0  0  0  0  0  0  0  0  0  0  0  0
   24.8639   10.6301   30.2291 C   0  0  0  0  0  0  0  0  0  0  0  0
   25.8645   11.6551   28.2621 C   0  0  0  0  0  0  0  0  0  0  0  0
   28.2392   10.2770   21.0625 C   0  0  0  0  0  0  0  0  0  0  0  0
   26.7389    7.2448   32.6366 O   0  0  0  0  0  0  0  0  0  0  0  0
   29.0478   12.6668   29.2688 C   0  0  0  0  0  0  0  0  0  0  0  0
   25.3961   11.7483   29.5805 C   0  0  0  0  0  0  0  0  0  0  0  0
   25.7581   10.4254   27.5977 C   0  0  0  0  0  0  0  0  0  0  0  0
   26.1609   11.1506   18.8254 C   0  0  0  0  0  0  0  0  0  0  0  0
   24.7283   13.3926   19.8096 C   0  0  0  0  0  0  0  0  0  0  0  0
   24.3090    6.3160   31.7731 C   0  0  0  0  0  0  0  0  0  0  0  0
   22.8499    7.9214   30.0330 C   0  0  0  0  0  0  0  0  0  0  0  0
   31.6773   12.3307   24.3805 C   0  0  0  0  0  0  0  0  0  0  0  0
   29.1713   11.2822   29.9088 C   0  0  0  0  0  0  0  0  0  0  0  0
   25.1338   11.7385   18.0773 C   0  0  0  0  0  0  0  0  0  0  0  0
   22.9616    6.0399   31.5401 C   0  0  0  0  0  0  0  0  0  0  0  0
   22.2326    6.8420   30.6687 C   0  0  0  0  0  0  0  0  0  0  0  0
   24.4265   12.8413   18.5586 C   0  0  0  0  0  0  0  0  0  0  0  0
   30.5101   10.6084   29.6391 C   0  0  0  0  0  0  0  0  0  0  0  0
   26.2497   12.5682   24.5666 H   0  0  0  0  0  0  0  0  0  0  0  0
   29.9296   12.3139   22.3352 H   0  0  0  0  0  0  0  0  0  0  0  0
   26.4978   13.7294   28.2526 H   0  0  0  0  0  0  0  0  0  0  0  0
   25.7767   13.1693   26.7549 H   0  0  0  0  0  0  0  0  0  0  0  0
   25.1712    8.3622   27.7149 H   0  0  0  0  0  0  0  0  0  0  0  0
   24.5165   10.7275   31.2556 H   0  0  0  0  0  0  0  0  0  0  0  0
   28.3105    9.8656   22.0717 H   0  0  0  0  0  0  0  0  0  0  0  0
   29.2171   10.6067   20.7055 H   0  0  0  0  0  0  0  0  0  0  0  0
   27.8434    9.5028   20.4016 H   0  0  0  0  0  0  0  0  0  0  0  0
   27.6950    7.4579   32.6759 H   0  0  0  0  0  0  0  0  0  0  0  0
   28.1787   13.1812   29.6910 H   0  0  0  0  0  0  0  0  0  0  0  0
   29.9171   13.2774   29.5437 H   0  0  0  0  0  0  0  0  0  0  0  0
   25.4501   12.6903   30.1224 H   0  0  0  0  0  0  0  0  0  0  0  0
   26.1038   10.3157   26.5716 H   0  0  0  0  0  0  0  0  0  0  0  0
   26.7048   10.2940   18.4425 H   0  0  0  0  0  0  0  0  0  0  0  0
   24.1857   14.2500   20.1917 H   0  0  0  0  0  0  0  0  0  0  0  0
   24.8688    5.6728   32.4494 H   0  0  0  0  0  0  0  0  0  0  0  0
   22.2597    8.5425   29.3592 H   0  0  0  0  0  0  0  0  0  0  0  0
   32.1416   12.3818   25.3702 H   0  0  0  0  0  0  0  0  0  0  0  0
   32.0495   13.1732   23.7885 H   0  0  0  0  0  0  0  0  0  0  0  0
   31.9921   11.3947   23.9074 H   0  0  0  0  0  0  0  0  0  0  0  0
   29.0561   11.3914   30.9940 H   0  0  0  0  0  0  0  0  0  0  0  0
   28.3663   10.6230   29.5680 H   0  0  0  0  0  0  0  0  0  0  0  0
   24.8819   11.3270   17.1013 H   0  0  0  0  0  0  0  0  0  0  0  0
   22.4846    5.1983   32.0367 H   0  0  0  0  0  0  0  0  0  0  0  0
   21.1817    6.6320   30.4834 H   0  0  0  0  0  0  0  0  0  0  0  0
   23.6332   13.2798   17.9582 H   0  0  0  0  0  0  0  0  0  0  0  0
   30.6358   10.3755   28.5778 H   0  0  0  0  0  0  0  0  0  0  0  0
   31.3427   11.2455   29.9553 H   0  0  0  0  0  0  0  0  0  0  0  0
   30.5746    9.6668   30.1950 H   0  0  0  0  0  0  0  0  0  0  0  0
  2  6  1  0
  3  8  1  0
  4  1  2  0
  5  1  1  0
  6 12  2  0
  7  2  1  0
  8 14  2  0
  9  1  1  0
 10  5  1  0
 11  4  1  0
 12  9  1  0
 13 15  2  0
 14 17  1  0
 15 19  1  0
 16 13  1  0
 17  9  2  0
 18  2  1  0
 19 21  2  0
 20 16  2  0
 21 28  1  0
 22 27  2  0
 23 18  1  0
 24  5  1  0
 25 16  1  0
 26  7  1  0
 27 23  1  0
 28 23  2  0
 29 10  2  0
 30 11  2  0
 31 13  1  0
 32 15  1  0
 33 14  1  0
 34 26  1  0
 35 29  1  0
 36 37  1  0
 37 32  2  0
 38 30  1  0
 39 34  1  0
 10 11  1  0
  8  6  1  0
 35 38  2  0
  3  7  2  0
 19 22  1  0
 36 31  2  0
 12 40  1  0
 17 41  1  0
 18 42  1  0
 18 43  1  0
 21 44  1  0
 22 45  1  0
 24 46  1  0
 24 47  1  0
 24 48  1  0
 25 49  1  0
 26 50  1  0
 26 51  1  0
 27 52  1  0
 28 53  1  0
 29 54  1  0
 30 55  1  0
 31 56  1  0
 32 57  1  0
 33 58  1  0
 33 59  1  0
 33 60  1  0
 34 61  1  0
 34 62  1  0
 35 63  1  0
 36 64  1  0
 37 65  1  0
 38 66  1  0
 39 67  1  0
 39 68  1  0
 39 69  1  0
M  END
> <Uni-Dock RESULT> 
ENERGY=   -4.512  LOWER_BOUND=    0.000  UPPER_BOUND=    0.000
INTER + INTRA:          -4.512
INTER:                  -4.512
INTRA:                   0.000
UNBOUND:                 0.000

$$$$

     RDKit          3D

 69 74  0  0  0  0  0  0  0  0999 V2000
   27.2223   12.3423   22.0908 C   0  0  0  0  0  0  0  0  0  0  0  0
   27.7794   12.6453   27.0599 N   0  0  0  0  0  0  0  0  0  0  0  0
   29.9937   12.5194   26.9822 N   0  0  0  0  0  0  0  0  0  0  0  0
   26.2304   13.1718   21.8163 N   0  0  0  0  0  0  0  0  0  0  0  0
   27.3589   11.4135   21.0750 N   0  0  0  0  0  0  0  0  0  0  0  0
   28.1043   12.5385   25.7224 C   0  0  0  0  0  0  0  0  0  0  0  0
   28.9527   12.6030   27.7872 C   0  0  0  0  0  0  0  0  0  0  0  0
   29.4927   12.4707   25.7073 C   0  0  0  0  0  0  0  0  0  0  0  0
   28.0125   12.3855   23.3255 C   0  0  0  0  0  0  0  0  0  0  0  0
   26.4557   11.7173   20.0810 C   0  0  0  0  0  0  0  0  0  0  0  0
   25.7642   12.8163   20.5784 C   0  0  0  0  0  0  0  0  0  0  0  0
   27.3372   12.5044   24.5504 C   0  0  0  0  0  0  0  0  0  0  0  0
   24.9312    7.3940   31.1379 C   0  0  0  0  0  0  0  0  0  0  0  0
   30.1841   12.3783   24.4835 C   0  0  0  0  0  0  0  0  0  0  0  0
   24.2021    8.2169   30.2532 C   0  0  0  0  0  0  0  0  0  0  0  0
   26.3779    7.6238   31.3972 C   0  0  0  0  0  0  0  0  0  0  0  0
   29.4141   12.3452   23.3012 C   0  0  0  0  0  0  0  0  0  0  0  0
   26.4364   12.8641   27.5821 C   0  0  0  0  0  0  0  0  0  0  0  0
   24.7723    9.3883   29.5758 C   0  0  0  0  0  0  0  0  0  0  0  0
   27.2049    8.0973   30.6441 O   0  0  0  0  0  0  0  0  0  0  0  0
   25.2194    9.3038   28.2503 C   0  0  0  0  0  0  0  0  0  0  0  0
   24.8579   10.6234   30.2324 C   0  0  0  0  0  0  0  0  0  0  0  0
   25.8619   11.6491   28.2674 C   0  0  0  0  0  0  0  0  0  0  0  0
   28.2461   10.2745   21.0703 C   0  0  0  0  0  0  0  0  0  0  0  0
   26.7276    7.2354   32.6403 O   0  0  0  0  0  0  0  0  0  0  0  0
   29.0444   12.6583   29.2794 C   0  0  0  0  0  0  0  0  0  0  0  0
   25.3917   11.7417   29.5853 C   0  0  0  0  0  0  0  0  0  0  0  0
   25.7558   10.4199   27.6021 C   0  0  0  0  0  0  0  0  0  0  0  0
   26.1714   11.1508   18.8309 C   0  0  0  0  0  0  0  0  0  0  0  0
   24.7388   13.3929   19.8145 C   0  0  0  0  0  0  0  0  0  0  0  0
   24.2983    6.3086   31.7726 C   0  0  0  0  0  0  0  0  0  0  0  0
   22.8427    7.9160   30.0316 C   0  0  0  0  0  0  0  0  0  0  0  0
   31.6807   12.3239   24.3946 C   0  0  0  0  0  0  0  0  0  0  0  0
   29.1662   11.2733   29.9186 C   0  0  0  0  0  0  0  0  0  0  0  0
   25.1457   11.7397   18.0817 C   0  0  0  0  0  0  0  0  0  0  0  0
   22.9512    6.0334   31.5376 C   0  0  0  0  0  0  0  0  0  0  0  0
   22.2238    6.8366   30.6657 C   0  0  0  0  0  0  0  0  0  0  0  0
   24.4384   12.8427   18.5627 C   0  0  0  0  0  0  0  0  0  0  0  0
   30.5050   10.5988   29.6504 C   0  0  0  0  0  0  0  0  0  0  0  0
   26.2529   12.5645   24.5732 H   0  0  0  0  0  0  0  0  0  0  0  0
   29.9359   12.3095   22.3468 H   0  0  0  0  0  0  0  0  0  0  0  0
   26.4965   13.7231   28.2603 H   0  0  0  0  0  0  0  0  0  0  0  0
   25.7772   13.1644   26.7612 H   0  0  0  0  0  0  0  0  0  0  0  0
   25.1675    8.3570   27.7171 H   0  0  0  0  0  0  0  0  0  0  0  0
   24.5091   10.7203   31.2585 H   0  0  0  0  0  0  0  0  0  0  0  0
   28.3157    9.8624   22.0794 H   0  0  0  0  0  0  0  0  0  0  0  0
   29.2247   10.6038   20.7149 H   0  0  0  0  0  0  0  0  0  0  0  0
   27.8508    9.5009   20.4084 H   0  0  0  0  0  0  0  0  0  0  0  0
   27.6837    7.4479   32.6810 H   0  0  0  0  0  0  0  0  0  0  0  0
   28.1749   13.1729   29.7006 H   0  0  0  0  0  0  0  0  0  0  0  0
   29.9137   13.2682   29.5559 H   0  0  0  0  0  0  0  0  0  0  0  0
   25.4455   12.6833   30.1278 H   0  0  0  0  0  0  0  0  0  0  0  0
   26.1029   10.3107   26.5764 H   0  0  0  0  0  0  0  0  0  0  0  0
   26.7155   10.2941   18.4482 H   0  0  0  0  0  0  0  0  0  0  0  0
   24.1961   14.2504   20.1964 H   0  0  0  0  0  0  0  0  0  0  0  0
   24.8568    5.6646   32.4494 H   0  0  0  0  0  0  0  0  0  0  0  0
   22.2538    8.5379   29.3573 H   0  0  0  0  0  0  0  0  0  0  0  0
   32.1435   12.3741   25.3849 H   0  0  0  0  0  0  0  0  0  0  0  0
   32.0542   13.1666   23.8036 H   0  0  0  0  0  0  0  0  0  0  0  0
   31.9956   11.3881   23.9213 H   0  0  0  0  0  0  0  0  0  0  0  0
   29.0495   11.3818   31.0037 H   0  0  0  0  0  0  0  0  0  0  0  0
   28.3613   10.6148   29.5762 H   0  0  0  0  0  0  0  0  0  0  0  0
   24.8950   11.3291   17.1051 H   0  0  0  0  0  0  0  0  0  0  0  0
   22.4729    5.1918   32.0329 H   0  0  0  0  0  0  0  0  0  0  0  0
   21.1731    6.6272   30.4788 H   0  0  0  0  0  0  0  0  0  0  0  0
   23.6463   13.2820   17.9615 H   0  0  0  0  0  0  0  0  0  0  0  0
   30.6321   10.3665   28.5891 H   0  0  0  0  0  0  0  0  0  0  0  0
   31.3375   11.2352   29.9681 H   0  0  0  0  0  0  0  0  0  0  0  0
   30.5682    9.6568   30.2057 H   0  0  0  0  0  0  0  0  0  0  0  0
  2  6  1  0
  3  8  1  0
  4  1  2  0
  5  1  1  0
  6 12  2  0
  7  2  1  0
  8 14  2  0
  9  1  1  0
 10  5  1  0
 11  4  1  0
 12  9  1  0
 13 15  2  0
 14 17  1  0
 15 19  1  0
 16 13  1  0
 17  9  2  0
 18  2  1  0
 19 21  2  0
 20 16  2  0
 21 28  1  0
 22 27  2  0
 23 18  1  0
 24  5  1  0
 25 16  1  0
 26  7  1  0
 27 23  1  0
 28 23  2  0
 29 10  2  0
 30 11  2  0
 31 13  1  0
 32 15  1  0
 33 14  1  0
 34 26  1  0
 35 29  1  0
 36 37  1  0
 37 32  2  0
 38 30  1  0
 39 34  1  0
 10 11  1  0
  8  6  1  0
 35 38  2  0
  3  7  2  0
 19 22  1  0
 36 31  2  0
 12 40  1  0
 17 41  1  0
 18 42  1  0
 18 43  1  0
 21 44  1  0
 22 45  1  0
 24 46  1  0
 24 47  1  0
 24 48  1  0
 25 49  1  0
 26 50  1  0
 26 51  1  0
 27 52  1  0
 28 53  1  0
 29 54  1  0
 30 55  1  0
 31 56  1  0
 32 57  1  0
 33 58  1  0
 33 59  1  0
 33 60  1  0
 34 61  1  0
 34 62  1  0
 35 63  1  0
 36 64  1  0
 37 65  1  0
 38 66  1  0
 39 67  1  0
 39 68  1  0
 39 69  1  0
M  END
> <Uni-Dock RESULT> 
ENERGY=   -4.511  LOWER_BOUND=    0.012  UPPER_BOUND=    0.012
INTER + INTRA:          -4.511
INTER:                  -4.511
INTRA:                   0.000
UNBOUND:                 0.000

$$$$

     RDKit          3D

 69 74  0  0  0  0  0  0  0  0999 V2000
   26.0155   14.1353   23.7345 C   0  0  0  0  0  0  0  0  0  0  0  0
   26.6390   13.2142   28.6189 N   0  0  0  0  0  0  0  0  0  0  0  0
   28.8357   13.5247   28.5627 N   0  0  0  0  0  0  0  0  0  0  0  0
   24.8807   14.8098   23.6656 N   0  0  0  0  0  0  0  0  0  0  0  0
   26.2940   13.5492   22.5130 N   0  0  0  0  0  0  0  0  0  0  0  0
   26.9423   13.5260   27.3087 C   0  0  0  0  0  0  0  0  0  0  0  0
   27.8189   13.1992   29.3366 C   0  0  0  0  0  0  0  0  0  0  0  0
   28.3185   13.7224   27.3088 C   0  0  0  0  0  0  0  0  0  0  0  0
   26.8167   13.9965   24.9550 C   0  0  0  0  0  0  0  0  0  0  0  0
   25.3242   13.9321   21.6135 C   0  0  0  0  0  0  0  0  0  0  0  0
   24.4553   14.7136   22.3671 C   0  0  0  0  0  0  0  0  0  0  0  0
   26.1638   13.6612   26.1515 C   0  0  0  0  0  0  0  0  0  0  0  0
   24.9171    6.6407   31.0971 C   0  0  0  0  0  0  0  0  0  0  0  0
   28.9824   14.0855   26.1206 C   0  0  0  0  0  0  0  0  0  0  0  0
   24.0256    7.5184   30.4443 C   0  0  0  0  0  0  0  0  0  0  0  0
   26.3030    7.0572   31.4419 C   0  0  0  0  0  0  0  0  0  0  0  0
   28.2005   14.2238   24.9538 C   0  0  0  0  0  0  0  0  0  0  0  0
   25.2930   13.0355   29.1486 C   0  0  0  0  0  0  0  0  0  0  0  0
   24.3518    8.9114   30.1139 C   0  0  0  0  0  0  0  0  0  0  0  0
   27.0082    7.8569   30.8602 O   0  0  0  0  0  0  0  0  0  0  0  0
   24.7714    9.2637   28.8241 C   0  0  0  0  0  0  0  0  0  0  0  0
   24.2257    9.9233   31.0752 C   0  0  0  0  0  0  0  0  0  0  0  0
   24.9708   11.5982   29.4750 C   0  0  0  0  0  0  0  0  0  0  0  0
   27.3755   12.6361   22.2285 C   0  0  0  0  0  0  0  0  0  0  0  0
   26.7512    6.4261   32.5461 O   0  0  0  0  0  0  0  0  0  0  0  0
   27.9383   12.8748   30.7921 C   0  0  0  0  0  0  0  0  0  0  0  0
   24.5267   11.2514   30.7592 C   0  0  0  0  0  0  0  0  0  0  0  0
   25.0754   10.5905   28.5064 C   0  0  0  0  0  0  0  0  0  0  0  0
   25.1161   13.6731   20.2519 C   0  0  0  0  0  0  0  0  0  0  0  0
   23.3213   15.2715   21.7588 C   0  0  0  0  0  0  0  0  0  0  0  0
   24.5123    5.3287   31.4077 C   0  0  0  0  0  0  0  0  0  0  0  0
   22.7395    7.0408   30.1192 C   0  0  0  0  0  0  0  0  0  0  0  0
   30.4604   14.3340   26.0557 C   0  0  0  0  0  0  0  0  0  0  0  0
   28.3304   11.4174   31.0455 C   0  0  0  0  0  0  0  0  0  0  0  0
   23.9799   14.2388   19.6610 C   0  0  0  0  0  0  0  0  0  0  0  0
   23.2332    4.8813   31.0767 C   0  0  0  0  0  0  0  0  0  0  0  0
   22.3474    5.7372   30.4311 C   0  0  0  0  0  0  0  0  0  0  0  0
   23.0944   15.0253   20.3994 C   0  0  0  0  0  0  0  0  0  0  0  0
   29.7629   11.0971   30.6402 C   0  0  0  0  0  0  0  0  0  0  0  0
   25.0880   13.5117   26.1639 H   0  0  0  0  0  0  0  0  0  0  0  0
   28.6944   14.5382   24.0364 H   0  0  0  0  0  0  0  0  0  0  0  0
   25.2116   13.6808   30.0308 H   0  0  0  0  0  0  0  0  0  0  0  0
   24.5681   13.4145   28.4209 H   0  0  0  0  0  0  0  0  0  0  0  0
   24.8809    8.4984   28.0586 H   0  0  0  0  0  0  0  0  0  0  0  0
   23.8924    9.6799   32.0820 H   0  0  0  0  0  0  0  0  0  0  0  0
   27.5467   11.9926   23.0942 H   0  0  0  0  0  0  0  0  0  0  0  0
   28.2668   13.2225   21.9958 H   0  0  0  0  0  0  0  0  0  0  0  0
   27.1121   12.0053   21.3767 H   0  0  0  0  0  0  0  0  0  0  0  0
   27.6525    6.7933   32.6640 H   0  0  0  0  0  0  0  0  0  0  0  0
   27.0004   13.0902   31.3137 H   0  0  0  0  0  0  0  0  0  0  0  0
   28.6873   13.5399   31.2402 H   0  0  0  0  0  0  0  0  0  0  0  0
   24.4204   12.0096   31.5322 H   0  0  0  0  0  0  0  0  0  0  0  0
   25.4094   10.8218   27.4967 H   0  0  0  0  0  0  0  0  0  0  0  0
   25.7984   13.0635   19.6694 H   0  0  0  0  0  0  0  0  0  0  0  0
   22.6401   15.8822   22.3408 H   0  0  0  0  0  0  0  0  0  0  0  0
   25.1977    4.6437   31.9032 H   0  0  0  0  0  0  0  0  0  0  0  0
   22.0284    7.6986   29.6195 H   0  0  0  0  0  0  0  0  0  0  0  0
   30.9322   14.2058   27.0348 H   0  0  0  0  0  0  0  0  0  0  0  0
   30.6563   15.3567   25.7172 H   0  0  0  0  0  0  0  0  0  0  0  0
   30.9298   13.6311   25.3597 H   0  0  0  0  0  0  0  0  0  0  0  0
   28.2245   11.2124   32.1177 H   0  0  0  0  0  0  0  0  0  0  0  0
   27.6519   10.7356   30.5226 H   0  0  0  0  0  0  0  0  0  0  0  0
   23.7833   14.0613   18.6050 H   0  0  0  0  0  0  0  0  0  0  0  0
   22.9317    3.8654   31.3208 H   0  0  0  0  0  0  0  0  0  0  0  0
   21.3486    5.3942   30.1708 H   0  0  0  0  0  0  0  0  0  0  0  0
   22.2191   15.4534   19.9171 H   0  0  0  0  0  0  0  0  0  0  0  0
   29.9025   11.1806   29.5586 H   0  0  0  0  0  0  0  0  0  0  0  0
   30.4720   11.7696   31.1342 H   0  0  0  0  0  0  0  0  0  0  0  0
   30.0135   10.0704   30.9283 H   0  0  0  0  0  0  0  0  0  0  0  0
  2  6  1  0
  3  8  1  0
  4  1  2  0
  5  1  1  0
  6 12  2  0
  7  2  1  0
  8 14  2  0
  9  1  1  0
 10  5  1  0
 11  4  1  0
 12  9  1  0
 13 15  2  0
 14 17  1  0
 15 19  1  0
 16 13  1  0
 17  9  2  0
 18  2  1  0
 19 21  2  0
 20 16  2  0
 21 28  1  0
 22 27  2  0
 23 18  1  0
 24  5  1  0
 25 16  1  0
 26  7  1  0
 27 23  1  0
 28 23  2  0
 29 10  2  0
 30 11  2  0
 31 13  1  0
 32 15  1  0
 33 14  1  0
 34 26  1  0
 35 29  1  0
 36 37  1  0
 37 32  2  0
 38 30  1  0
 39 34  1  0
 10 11  1  0
  8  6  1  0
 35 38  2  0
  3  7  2  0
 19 22  1  0
 36 31  2  0
 12 40  1  0
 17 41  1  0
 18 42  1  0
 18 43  1  0
 21 44  1  0
 22 45  1  0
 24 46  1  0
 24 47  1  0
 24 48  1  0
 25 49  1  0
 26 50  1  0
 26 51  1  0
 27 52  1  0
 28 53  1  0
 29 54  1  0
 30 55  1  0
 31 56  1  0
 32 57  1  0
 33 58  1  0
 33 59  1  0
 33 60  1  0
 34 61  1  0
 34 62  1  0
 35 63  1  0
 36 64  1  0
 37 65  1  0
 38 66  1  0
 39 67  1  0
 39 68  1  0
 39 69  1  0
M  END
> <Uni-Dock RESULT> 
ENERGY=   -4.337  LOWER_BOUND=    1.625  UPPER_BOUND=    2.102
INTER + INTRA:          -4.337
INTER:                  -4.337
INTRA:                   0.000
UNBOUND:                 0.000

$$$$

     RDKit          3D

 69 74  0  0  0  0  0  0  0  0999 V2000
   30.0858    3.8993   31.6530 C   0  0  0  0  0  0  0  0  0  0  0  0
   27.8271    8.3300   31.0516 N   0  0  0  0  0  0  0  0  0  0  0  0
   25.7811    7.4704   31.0569 N   0  0  0  0  0  0  0  0  0  0  0  0
   31.0969    4.1494   32.4669 N   0  0  0  0  0  0  0  0  0  0  0  0
   30.3274    2.7399   30.9384 N   0  0  0  0  0  0  0  0  0  0  0  0
   27.9905    6.9688   31.2132 C   0  0  0  0  0  0  0  0  0  0  0  0
   26.4748    8.5851   30.9350 C   0  0  0  0  0  0  0  0  0  0  0  0
   26.6957    6.4627   31.2213 C   0  0  0  0  0  0  0  0  0  0  0  0
   28.9143    4.7692   31.5057 C   0  0  0  0  0  0  0  0  0  0  0  0
   31.5151    2.1971   31.3753 C   0  0  0  0  0  0  0  0  0  0  0  0
   31.9712    3.1045   32.3250 C   0  0  0  0  0  0  0  0  0  0  0  0
   29.1183    6.1502   31.3589 C   0  0  0  0  0  0  0  0  0  0  0  0
   29.1646   12.0456   24.9917 C   0  0  0  0  0  0  0  0  0  0  0  0
   26.4757    5.0822   31.3947 C   0  0  0  0  0  0  0  0  0  0  0  0
   30.1422   11.6432   25.9265 C   0  0  0  0  0  0  0  0  0  0  0  0
   27.7146   11.8290   25.2434 C   0  0  0  0  0  0  0  0  0  0  0  0
   27.6099    4.2555   31.5431 C   0  0  0  0  0  0  0  0  0  0  0  0
   28.9001    9.3152   31.0996 C   0  0  0  0  0  0  0  0  0  0  0  0
   29.8240   11.0502   27.2315 C   0  0  0  0  0  0  0  0  0  0  0  0
   27.1939   10.9433   25.8912 O   0  0  0  0  0  0  0  0  0  0  0  0
   29.8683    9.6622   27.4191 C   0  0  0  0  0  0  0  0  0  0  0  0
   29.4940   11.8620   28.3251 C   0  0  0  0  0  0  0  0  0  0  0  0
   29.2203    9.9086   29.7500 C   0  0  0  0  0  0  0  0  0  0  0  0
   29.5169    2.2099   29.8676 C   0  0  0  0  0  0  0  0  0  0  0  0
   26.9603   12.7753   24.6484 O   0  0  0  0  0  0  0  0  0  0  0  0
   25.8681    9.9348   30.7155 C   0  0  0  0  0  0  0  0  0  0  0  0
   29.2003   11.2992   29.5706 C   0  0  0  0  0  0  0  0  0  0  0  0
   29.5725    9.0969   28.6627 C   0  0  0  0  0  0  0  0  0  0  0  0
   32.2267    1.0375   31.0381 C   0  0  0  0  0  0  0  0  0  0  0  0
   33.1886    2.8678   32.9803 C   0  0  0  0  0  0  0  0  0  0  0  0
   29.5549   12.6376   23.7756 C   0  0  0  0  0  0  0  0  0  0  0  0
   31.4985   11.8506   25.6024 C   0  0  0  0  0  0  0  0  0  0  0  0
   25.1051    4.4738   31.4352 C   0  0  0  0  0  0  0  0  0  0  0  0
   25.5547   10.2128   29.2437 C   0  0  0  0  0  0  0  0  0  0  0  0
   33.4390    0.8168   31.7028 C   0  0  0  0  0  0  0  0  0  0  0  0
   30.9040   12.8334   23.4800 C   0  0  0  0  0  0  0  0  0  0  0  0
   31.8758   12.4384   24.3931 C   0  0  0  0  0  0  0  0  0  0  0  0
   33.9156    1.7154   32.6586 C   0  0  0  0  0  0  0  0  0  0  0  0
   24.4049    9.3745   28.7012 C   0  0  0  0  0  0  0  0  0  0  0  0
   30.1255    6.5568   31.3577 H   0  0  0  0  0  0  0  0  0  0  0  0
   27.4540    3.1919   31.7131 H   0  0  0  0  0  0  0  0  0  0  0  0
   28.5930   10.0831   31.8188 H   0  0  0  0  0  0  0  0  0  0  0  0
   29.7989    8.8465   31.5133 H   0  0  0  0  0  0  0  0  0  0  0  0
   30.1187    9.0076   26.5870 H   0  0  0  0  0  0  0  0  0  0  0  0
   29.4617   12.9436   28.2107 H   0  0  0  0  0  0  0  0  0  0  0  0
   29.1071    3.0332   29.2786 H   0  0  0  0  0  0  0  0  0  0  0  0
   28.7181    1.6093   30.3076 H   0  0  0  0  0  0  0  0  0  0  0  0
   30.1312    1.5890   29.2118 H   0  0  0  0  0  0  0  0  0  0  0  0
   26.0464   12.5239   24.8987 H   0  0  0  0  0  0  0  0  0  0  0  0
   26.5274   10.7210   31.0969 H   0  0  0  0  0  0  0  0  0  0  0  0
   24.9467   10.0066   31.3072 H   0  0  0  0  0  0  0  0  0  0  0  0
   28.9448   11.9606   30.3959 H   0  0  0  0  0  0  0  0  0  0  0  0
   29.6064    8.0140   28.7650 H   0  0  0  0  0  0  0  0  0  0  0  0
   31.8647    0.3331   30.2972 H   0  0  0  0  0  0  0  0  0  0  0  0
   33.5496    3.5713   33.7222 H   0  0  0  0  0  0  0  0  0  0  0  0
   28.8067   12.9424   23.0464 H   0  0  0  0  0  0  0  0  0  0  0  0
   32.2748   11.5544   26.3080 H   0  0  0  0  0  0  0  0  0  0  0  0
   24.3254    5.2335   31.3235 H   0  0  0  0  0  0  0  0  0  0  0  0
   24.9466    3.9646   32.3915 H   0  0  0  0  0  0  0  0  0  0  0  0
   24.9907    3.7499   30.6217 H   0  0  0  0  0  0  0  0  0  0  0  0
   25.2841   11.2708   29.1416 H   0  0  0  0  0  0  0  0  0  0  0  0
   26.4395   10.0490   28.6200 H   0  0  0  0  0  0  0  0  0  0  0  0
   34.0212   -0.0729   31.4692 H   0  0  0  0  0  0  0  0  0  0  0  0
   31.1940   13.2911   22.5371 H   0  0  0  0  0  0  0  0  0  0  0  0
   32.9293   12.5888   24.1684 H   0  0  0  0  0  0  0  0  0  0  0  0
   34.8600    1.5212   33.1609 H   0  0  0  0  0  0  0  0  0  0  0  0
   24.6595    8.3110   28.6779 H   0  0  0  0  0  0  0  0  0  0  0  0
   23.5032    9.5019   29.3092 H   0  0  0  0  0  0  0  0  0  0  0  0
   24.1681    9.6810   27.6766 H   0  0  0  0  0  0  0  0  0  0  0  0
  2  6  1  0
  3  8  1  0
  4  1  2  0
  5  1  1  0
  6 12  2  0
  7  2  1  0
  8 14  2  0
  9  1  1  0
 10  5  1  0
 11  4  1  0
 12  9  1  0
 13 15  2  0
 14 17  1  0
 15 19  1  0
 16 13  1  0
 17  9  2  0
 18  2  1  0
 19 21  2  0
 20 16  2  0
 21 28  1  0
 22 27  2  0
 23 18  1  0
 24  5  1  0
 25 16  1  0
 26  7  1  0
 27 23  1  0
 28 23  2  0
 29 10  2  0
 30 11  2  0
 31 13  1  0
 32 15  1  0
 33 14  1  0
 34 26  1  0
 35 29  1  0
 36 37  1  0
 37 32  2  0
 38 30  1  0
 39 34  1  0
 10 11  1  0
  8  6  1  0
 35 38  2  0
  3  7  2  0
 19 22  1  0
 36 31  2  0
 12 40  1  0
 17 41  1  0
 18 42  1  0
 18 43  1  0
 21 44  1  0
 22 45  1  0
 24 46  1  0
 24 47  1  0
 24 48  1  0
 25 49  1  0
 26 50  1  0
 26 51  1  0
 27 52  1  0
 28 53  1  0
 29 54  1  0
 30 55  1  0
 31 56  1  0
 32 57  1  0
 33 58  1  0
 33 59  1  0
 33 60  1  0
 34 61  1  0
 34 62  1  0
 35 63  1  0
 36 64  1  0
 37 65  1  0
 38 66  1  0
 39 67  1  0
 39 68  1  0
 39 69  1  0
M  END
> <Uni-Dock RESULT> 
ENERGY=   -4.272  LOWER_BOUND=    5.028  UPPER_BOUND=   10.963
INTER + INTRA:          -4.272
INTER:                  -4.272
INTRA:                   0.000
UNBOUND:                 0.000

$$$$

     RDKit          3D

 69 74  0  0  0  0  0  0  0  0999 V2000
   24.9267   10.5860   18.9811 C   0  0  0  0  0  0  0  0  0  0  0  0
   27.2799   14.3145   21.3592 N   0  0  0  0  0  0  0  0  0  0  0  0
   27.6733   15.4667   19.5037 N   0  0  0  0  0  0  0  0  0  0  0  0
   23.9374   10.2479   19.7899 N   0  0  0  0  0  0  0  0  0  0  0  0
   25.2179    9.5397   18.1245 N   0  0  0  0  0  0  0  0  0  0  0  0
   26.7379   13.5698   20.3309 C   0  0  0  0  0  0  0  0  0  0  0  0
   27.8586   15.4414   20.8090 C   0  0  0  0  0  0  0  0  0  0  0  0
   26.9921   14.3198   19.1884 C   0  0  0  0  0  0  0  0  0  0  0  0
   25.6347   11.8690   19.0396 C   0  0  0  0  0  0  0  0  0  0  0  0
   24.3214    8.5211   18.3588 C   0  0  0  0  0  0  0  0  0  0  0  0
   23.5405    8.9939   19.4075 C   0  0  0  0  0  0  0  0  0  0  0  0
   26.0575   12.3455   20.2904 C   0  0  0  0  0  0  0  0  0  0  0  0
   33.3893   12.7751   24.9121 C   0  0  0  0  0  0  0  0  0  0  0  0
   26.5497   13.8662   17.9302 C   0  0  0  0  0  0  0  0  0  0  0  0
   32.1338   12.1835   25.1674 C   0  0  0  0  0  0  0  0  0  0  0  0
   33.5394   13.8851   23.9332 C   0  0  0  0  0  0  0  0  0  0  0  0
   25.8629   12.6341   17.8867 C   0  0  0  0  0  0  0  0  0  0  0  0
   27.1621   13.9976   22.7769 C   0  0  0  0  0  0  0  0  0  0  0  0
   30.8796   12.6420   24.5569 C   0  0  0  0  0  0  0  0  0  0  0  0
   32.8765   14.0968   22.9378 O   0  0  0  0  0  0  0  0  0  0  0  0
   30.3428   11.9861   23.4410 C   0  0  0  0  0  0  0  0  0  0  0  0
   30.1787   13.7305   25.0933 C   0  0  0  0  0  0  0  0  0  0  0  0
   28.4568   13.5202   23.3868 C   0  0  0  0  0  0  0  0  0  0  0  0
   26.3123    9.4823   17.1846 C   0  0  0  0  0  0  0  0  0  0  0  0
   34.5528   14.7092   24.2682 O   0  0  0  0  0  0  0  0  0  0  0  0
   28.5844   16.5001   21.5773 C   0  0  0  0  0  0  0  0  0  0  0  0
   28.9795   14.1620   24.5188 C   0  0  0  0  0  0  0  0  0  0  0  0
   29.1453   12.4172   22.8633 C   0  0  0  0  0  0  0  0  0  0  0  0
   24.1241    7.2591   17.7817 C   0  0  0  0  0  0  0  0  0  0  0  0
   22.5117    8.1909   19.9216 C   0  0  0  0  0  0  0  0  0  0  0  0
   34.5398   12.2951   25.5661 C   0  0  0  0  0  0  0  0  0  0  0  0
   32.0762   11.1129   26.0830 C   0  0  0  0  0  0  0  0  0  0  0  0
   26.7710   14.6362   16.6619 C   0  0  0  0  0  0  0  0  0  0  0  0
   30.1023   16.3066   21.5664 C   0  0  0  0  0  0  0  0  0  0  0  0
   23.0923    6.4716   18.3066 C   0  0  0  0  0  0  0  0  0  0  0  0
   34.4552   11.2354   26.4693 C   0  0  0  0  0  0  0  0  0  0  0  0
   33.2232   10.6435   26.7265 C   0  0  0  0  0  0  0  0  0  0  0  0
   22.2973    6.9267   19.3597 C   0  0  0  0  0  0  0  0  0  0  0  0
   30.7351   16.5632   20.2052 C   0  0  0  0  0  0  0  0  0  0  0  0
   25.8584   11.7706   21.1902 H   0  0  0  0  0  0  0  0  0  0  0  0
   25.4844   12.2884   16.9266 H   0  0  0  0  0  0  0  0  0  0  0  0
   26.7875   14.9003   23.2731 H   0  0  0  0  0  0  0  0  0  0  0  0
   26.3928   13.2302   22.9100 H   0  0  0  0  0  0  0  0  0  0  0  0
   30.8669   11.1399   23.0019 H   0  0  0  0  0  0  0  0  0  0  0  0
   30.5672   14.2523   25.9655 H   0  0  0  0  0  0  0  0  0  0  0  0
   27.1854    9.9811   17.6107 H   0  0  0  0  0  0  0  0  0  0  0  0
   25.9962    9.9705   16.2604 H   0  0  0  0  0  0  0  0  0  0  0  0
   26.5734    8.4408   16.9848 H   0  0  0  0  0  0  0  0  0  0  0  0
   34.5341   15.3871   23.5602 H   0  0  0  0  0  0  0  0  0  0  0  0
   28.2341   16.5334   22.6138 H   0  0  0  0  0  0  0  0  0  0  0  0
   28.3357   17.4789   21.1479 H   0  0  0  0  0  0  0  0  0  0  0  0
   28.4648   15.0128   24.9605 H   0  0  0  0  0  0  0  0  0  0  0  0
   28.7672   11.8887   21.9902 H   0  0  0  0  0  0  0  0  0  0  0  0
   24.7361    6.8966   16.9630 H   0  0  0  0  0  0  0  0  0  0  0  0
   21.8988    8.5540   20.7390 H   0  0  0  0  0  0  0  0  0  0  0  0
   35.5125   12.7409   25.3673 H   0  0  0  0  0  0  0  0  0  0  0  0
   31.1189   10.6405   26.3034 H   0  0  0  0  0  0  0  0  0  0  0  0
   27.3005   15.5754   16.8498 H   0  0  0  0  0  0  0  0  0  0  0  0
   25.8106   14.8772   16.1946 H   0  0  0  0  0  0  0  0  0  0  0  0
   27.3704   14.0445   15.9623 H   0  0  0  0  0  0  0  0  0  0  0  0
   30.5452   17.0055   22.2863 H   0  0  0  0  0  0  0  0  0  0  0  0
   30.3682   15.2975   21.8976 H   0  0  0  0  0  0  0  0  0  0  0  0
   22.9068    5.4851   17.8851 H   0  0  0  0  0  0  0  0  0  0  0  0
   35.3506   10.8724   26.9681 H   0  0  0  0  0  0  0  0  0  0  0  0
   33.1509    9.8172   27.4301 H   0  0  0  0  0  0  0  0  0  0  0  0
   21.5022    6.2960   19.7495 H   0  0  0  0  0  0  0  0  0  0  0  0
   30.4109   15.8250   19.4661 H   0  0  0  0  0  0  0  0  0  0  0  0
   30.4796   17.5611   19.8336 H   0  0  0  0  0  0  0  0  0  0  0  0
   31.8260   16.4995   20.2807 H   0  0  0  0  0  0  0  0  0  0  0  0
  2  6  1  0
  3  8  1  0
  4  1  2  0
  5  1  1  0
  6 12  2  0
  7  2  1  0
  8 14  2  0
  9  1  1  0
 10  5  1  0
 11  4  1  0
 12  9  1  0
 13 15  2  0
 14 17  1  0
 15 19  1  0
 16 13  1  0
 17  9  2  0
 18  2  1  0
 19 21  2  0
 20 16  2  0
 21 28  1  0
 22 27  2  0
 23 18  1  0
 24  5  1  0
 25 16  1  0
 26  7  1  0
 27 23  1  0
 28 23  2  0
 29 10  2  0
 30 11  2  0
 31 13  1  0
 32 15  1  0
 33 14  1  0
 34 26  1  0
 35 29  1  0
 36 37  1  0
 37 32  2  0
 38 30  1  0
 39 34  1  0
 10 11  1  0
  8  6  1  0
 35 38  2  0
  3  7  2  0
 19 22  1  0
 36 31  2  0
 12 40  1  0
 17 41  1  0
 18 42  1  0
 18 43  1  0
 21 44  1  0
 22 45  1  0
 24 46  1  0
 24 47  1  0
 24 48  1  0
 25 49  1  0
 26 50  1  0
 26 51  1  0
 27 52  1  0
 28 53  1  0
 29 54  1  0
 30 55  1  0
 31 56  1  0
 32 57  1  0
 33 58  1  0
 33 59  1  0
 33 60  1  0
 34 61  1  0
 34 62  1  0
 35 63  1  0
 36 64  1  0
 37 65  1  0
 38 66  1  0
 39 67  1  0
 39 68  1  0
 39 69  1  0
M  END
> <Uni-Dock RESULT> 
ENERGY=   -4.127  LOWER_BOUND=    6.257  UPPER_BOUND=    8.278
INTER + INTRA:          -4.127
INTER:                  -4.127
INTRA:                   0.000
UNBOUND:                 0.000

$$$$

     RDKit          3D

 69 74  0  0  0  0  0  0  0  0999 V2000
   30.2532   11.9641   21.5380 C   0  0  0  0  0  0  0  0  0  0  0  0
   30.1010   12.7305   26.4861 N   0  0  0  0  0  0  0  0  0  0  0  0
   28.8912   14.5841   26.3253 N   0  0  0  0  0  0  0  0  0  0  0  0
   30.1477   10.6536   21.4011 N   0  0  0  0  0  0  0  0  0  0  0  0
   30.8335   12.5138   20.4091 N   0  0  0  0  0  0  0  0  0  0  0  0
   29.8825   12.9223   25.1365 C   0  0  0  0  0  0  0  0  0  0  0  0
   29.5051   13.7746   27.1659 C   0  0  0  0  0  0  0  0  0  0  0  0
   29.1178   14.0814   25.0704 C   0  0  0  0  0  0  0  0  0  0  0  0
   29.8573   12.6995   22.7434 C   0  0  0  0  0  0  0  0  0  0  0  0
   31.0374   11.5092   19.4896 C   0  0  0  0  0  0  0  0  0  0  0  0
   30.6036   10.3611   20.1430 C   0  0  0  0  0  0  0  0  0  0  0  0
   30.2629   12.2065   23.9936 C   0  0  0  0  0  0  0  0  0  0  0  0
   36.3432   13.8883   29.9518 C   0  0  0  0  0  0  0  0  0  0  0  0
   28.6815   14.5721   23.8242 C   0  0  0  0  0  0  0  0  0  0  0  0
   36.0367   12.7334   29.2011 C   0  0  0  0  0  0  0  0  0  0  0  0
   35.3282   14.9486   30.1938 C   0  0  0  0  0  0  0  0  0  0  0  0
   29.0619   13.8523   22.6713 C   0  0  0  0  0  0  0  0  0  0  0  0
   30.7603   11.5705   27.0726 C   0  0  0  0  0  0  0  0  0  0  0  0
   34.7022   12.4455   28.6603 C   0  0  0  0  0  0  0  0  0  0  0  0
   34.3970   15.2664   29.4817 O   0  0  0  0  0  0  0  0  0  0  0  0
   34.3949   12.7242   27.3218 C   0  0  0  0  0  0  0  0  0  0  0  0
   33.7146   11.8616   29.4650 C   0  0  0  0  0  0  0  0  0  0  0  0
   32.1330   11.8811   27.6159 C   0  0  0  0  0  0  0  0  0  0  0  0
   31.2258   13.8920   20.2331 C   0  0  0  0  0  0  0  0  0  0  0  0
   35.5393   15.5801   31.3664 O   0  0  0  0  0  0  0  0  0  0  0  0
   29.5327   13.9644   28.6496 C   0  0  0  0  0  0  0  0  0  0  0  0
   32.4468   11.5782   28.9487 C   0  0  0  0  0  0  0  0  0  0  0  0
   33.1273   12.4441   26.8039 C   0  0  0  0  0  0  0  0  0  0  0  0
   31.5547   11.4851   18.1871 C   0  0  0  0  0  0  0  0  0  0  0  0
   30.6797    9.1220   19.4900 C   0  0  0  0  0  0  0  0  0  0  0  0
   37.6419   14.0714   30.4632 C   0  0  0  0  0  0  0  0  0  0  0  0
   37.0606   11.7887   28.9849 C   0  0  0  0  0  0  0  0  0  0  0  0
   27.8361   15.8034   23.6833 C   0  0  0  0  0  0  0  0  0  0  0  0
   30.6280   14.9315   29.1043 C   0  0  0  0  0  0  0  0  0  0  0  0
   31.6223   10.2401   17.5503 C   0  0  0  0  0  0  0  0  0  0  0  0
   38.6368   13.1203   30.2365 C   0  0  0  0  0  0  0  0  0  0  0  0
   38.3462   11.9795   29.4960 C   0  0  0  0  0  0  0  0  0  0  0  0
   31.1932    9.0753   18.1884 C   0  0  0  0  0  0  0  0  0  0  0  0
   30.3588   16.3782   28.7121 C   0  0  0  0  0  0  0  0  0  0  0  0
   30.8552   11.2982   24.0570 H   0  0  0  0  0  0  0  0  0  0  0  0
   28.7027   14.1998   21.7046 H   0  0  0  0  0  0  0  0  0  0  0  0
   30.0919   11.1868   27.8519 H   0  0  0  0  0  0  0  0  0  0  0  0
   30.8380   10.7822   26.3168 H   0  0  0  0  0  0  0  0  0  0  0  0
   35.1414   13.1800   26.6748 H   0  0  0  0  0  0  0  0  0  0  0  0
   33.9289   11.6254   30.5053 H   0  0  0  0  0  0  0  0  0  0  0  0
   31.6012   14.2879   21.1793 H   0  0  0  0  0  0  0  0  0  0  0  0
   30.3547   14.4555   19.8924 H   0  0  0  0  0  0  0  0  0  0  0  0
   32.0245   13.9570   19.4910 H   0  0  0  0  0  0  0  0  0  0  0  0
   34.8087   16.2327   31.4044 H   0  0  0  0  0  0  0  0  0  0  0  0
   29.6668   13.0049   29.1590 H   0  0  0  0  0  0  0  0  0  0  0  0
   28.5538   14.3392   28.9744 H   0  0  0  0  0  0  0  0  0  0  0  0
   31.7042   11.1279   29.6041 H   0  0  0  0  0  0  0  0  0  0  0  0
   32.9239   12.6862   25.7625 H   0  0  0  0  0  0  0  0  0  0  0  0
   31.8904   12.3846   17.6826 H   0  0  0  0  0  0  0  0  0  0  0  0
   30.3425    8.2231   19.9938 H   0  0  0  0  0  0  0  0  0  0  0  0
   37.8876   14.9639   31.0355 H   0  0  0  0  0  0  0  0  0  0  0  0
   36.8508   10.8846   28.4132 H   0  0  0  0  0  0  0  0  0  0  0  0
   27.6067   16.2461   24.6575 H   0  0  0  0  0  0  0  0  0  0  0  0
   26.8890   15.5564   23.1927 H   0  0  0  0  0  0  0  0  0  0  0  0
   28.3627   16.5549   23.0860 H   0  0  0  0  0  0  0  0  0  0  0  0
   30.7011   14.8818   30.1975 H   0  0  0  0  0  0  0  0  0  0  0  0
   31.6025   14.6305   28.7062 H   0  0  0  0  0  0  0  0  0  0  0  0
   32.0176   10.1796   16.5377 H   0  0  0  0  0  0  0  0  0  0  0  0
   39.6367   13.2726   30.6358 H   0  0  0  0  0  0  0  0  0  0  0  0
   39.1176   11.2342   29.3163 H   0  0  0  0  0  0  0  0  0  0  0  0
   31.2560    8.1206   17.6722 H   0  0  0  0  0  0  0  0  0  0  0  0
   30.3810   16.5107   27.6265 H   0  0  0  0  0  0  0  0  0  0  0  0
   29.3837   16.7119   29.0822 H   0  0  0  0  0  0  0  0  0  0  0  0
   31.1254   17.0321   29.1415 H   0  0  0  0  0  0  0  0  0  0  0  0
  2  6  1  0
  3  8  1  0
  4  1  2  0
  5  1  1  0
  6 12  2  0
  7  2  1  0
  8 14  2  0
  9  1  1  0
 10  5  1  0
 11  4  1  0
 12  9  1  0
 13 15  2  0
 14 17  1  0
 15 19  1  0
 16 13  1  0
 17  9  2  0
 18  2  1  0
 19 21  2  0
 20 16  2  0
 21 28  1  0
 22 27  2  0
 23 18  1  0
 24  5  1  0
 25 16  1  0
 26  7  1  0
 27 23  1  0
 28 23  2  0
 29 10  2  0
 30 11  2  0
 31 13  1  0
 32 15  1  0
 33 14  1  0
 34 26  1  0
 35 29  1  0
 36 37  1  0
 37 32  2  0
 38 30  1  0
 39 34  1  0
 10 11  1  0
  8  6  1  0
 35 38  2  0
  3  7  2  0
 19 22  1  0
 36 31  2  0
 12 40  1  0
 17 41  1  0
 18 42  1  0
 18 43  1  0
 21 44  1  0
 22 45  1  0
 24 46  1  0
 24 47  1  0
 24 48  1  0
 25 49  1  0
 26 50  1  0
 26 51  1  0
 27 52  1  0
 28 53  1  0
 29 54  1  0
 30 55  1  0
 31 56  1  0
 32 57  1  0
 33 58  1  0
 33 59  1  0
 33 60  1  0
 34 61  1  0
 34 62  1  0
 35 63  1  0
 36 64  1  0
 37 65  1  0
 38 66  1  0
 39 67  1  0
 39 68  1  0
 39 69  1  0
M  END
> <Uni-Dock RESULT> 
ENERGY=   -4.090  LOWER_BOUND=    5.667  UPPER_BOUND=    8.245
INTER + INTRA:          -4.090
INTER:                  -4.090
INTRA:                   0.000
UNBOUND:                 0.000

$$$$

     RDKit          3D

 69 74  0  0  0  0  0  0  0  0999 V2000
   28.6029   11.6868   22.5606 C   0  0  0  0  0  0  0  0  0  0  0  0
   26.3871   11.9778   27.0439 N   0  0  0  0  0  0  0  0  0  0  0  0
   26.4399   14.1956   27.1065 N   0  0  0  0  0  0  0  0  0  0  0  0
   27.9855   10.6909   21.9487 N   0  0  0  0  0  0  0  0  0  0  0  0
   29.8445   11.8981   21.9889 N   0  0  0  0  0  0  0  0  0  0  0  0
   26.9868   12.3741   25.8653 C   0  0  0  0  0  0  0  0  0  0  0  0
   26.0966   13.1125   27.7757 C   0  0  0  0  0  0  0  0  0  0  0  0
   26.9966   13.7627   25.9312 C   0  0  0  0  0  0  0  0  0  0  0  0
   28.0545   12.4106   23.7122 C   0  0  0  0  0  0  0  0  0  0  0  0
   29.9851   11.0407   20.9206 C   0  0  0  0  0  0  0  0  0  0  0  0
   28.8096   10.2982   20.9274 C   0  0  0  0  0  0  0  0  0  0  0  0
   27.5017   11.6700   24.7688 C   0  0  0  0  0  0  0  0  0  0  0  0
   29.7785    9.0482   32.7213 C   0  0  0  0  0  0  0  0  0  0  0  0
   27.5239   14.5187   24.8659 C   0  0  0  0  0  0  0  0  0  0  0  0
   29.3911    8.3466   31.5598 C   0  0  0  0  0  0  0  0  0  0  0  0
   29.4059   10.4736   32.9273 C   0  0  0  0  0  0  0  0  0  0  0  0
   28.0420   13.8121   23.7595 C   0  0  0  0  0  0  0  0  0  0  0  0
   26.0408   10.6047   27.3886 C   0  0  0  0  0  0  0  0  0  0  0  0
   28.5480    8.9230   30.5049 C   0  0  0  0  0  0  0  0  0  0  0  0
   29.2245   11.3270   32.0824 O   0  0  0  0  0  0  0  0  0  0  0  0
   29.1173    9.4401   29.3335 C   0  0  0  0  0  0  0  0  0  0  0  0
   27.1529    8.9448   30.6358 C   0  0  0  0  0  0  0  0  0  0  0  0
   26.9214   10.0246   28.4675 C   0  0  0  0  0  0  0  0  0  0  0  0
   30.8591   12.8113   22.4591 C   0  0  0  0  0  0  0  0  0  0  0  0
   29.2708   10.7675   34.2364 O   0  0  0  0  0  0  0  0  0  0  0  0
   25.4674   13.1252   29.1329 C   0  0  0  0  0  0  0  0  0  0  0  0
   26.3485    9.4846   29.6279 C   0  0  0  0  0  0  0  0  0  0  0  0
   28.3153    9.9826   28.3255 C   0  0  0  0  0  0  0  0  0  0  0  0
   31.0007   10.8353   19.9767 C   0  0  0  0  0  0  0  0  0  0  0  0
   28.6151    9.3003   19.9610 C   0  0  0  0  0  0  0  0  0  0  0  0
   30.5616    8.4095   33.7013 C   0  0  0  0  0  0  0  0  0  0  0  0
   29.8112    7.0081   31.4194 C   0  0  0  0  0  0  0  0  0  0  0  0
   27.5452   16.0187   24.8628 C   0  0  0  0  0  0  0  0  0  0  0  0
   26.4931   13.2468   30.2620 C   0  0  0  0  0  0  0  0  0  0  0  0
   30.7893    9.8361   19.0190 C   0  0  0  0  0  0  0  0  0  0  0  0
   30.9625    7.0833   33.5390 C   0  0  0  0  0  0  0  0  0  0  0  0
   30.5883    6.3832   32.3971 C   0  0  0  0  0  0  0  0  0  0  0  0
   29.6170    9.0786   19.0086 C   0  0  0  0  0  0  0  0  0  0  0  0
   27.1618   14.6134   30.3273 C   0  0  0  0  0  0  0  0  0  0  0  0
   27.4832   10.5848   24.7247 H   0  0  0  0  0  0  0  0  0  0  0  0
   28.4203   14.3834   22.9140 H   0  0  0  0  0  0  0  0  0  0  0  0
   24.9853   10.6089   27.6838 H   0  0  0  0  0  0  0  0  0  0  0  0
   26.1078    9.9820   26.4906 H   0  0  0  0  0  0  0  0  0  0  0  0
   30.1977    9.4387   29.2061 H   0  0  0  0  0  0  0  0  0  0  0  0
   26.6832    8.5410   31.5304 H   0  0  0  0  0  0  0  0  0  0  0  0
   30.8476   12.8383   23.5509 H   0  0  0  0  0  0  0  0  0  0  0  0
   30.6511   13.7989   22.0421 H   0  0  0  0  0  0  0  0  0  0  0  0
   31.8438   12.4695   22.1329 H   0  0  0  0  0  0  0  0  0  0  0  0
   29.0189   11.7149   34.2288 H   0  0  0  0  0  0  0  0  0  0  0  0
   24.8673   12.2230   29.2886 H   0  0  0  0  0  0  0  0  0  0  0  0
   24.7619   13.9642   29.1856 H   0  0  0  0  0  0  0  0  0  0  0  0
   25.2692    9.4876   29.7660 H   0  0  0  0  0  0  0  0  0  0  0  0
   28.7962   10.3850   27.4359 H   0  0  0  0  0  0  0  0  0  0  0  0
   31.9149   11.4188   19.9762 H   0  0  0  0  0  0  0  0  0  0  0  0
   27.7004    8.7182   19.9606 H   0  0  0  0  0  0  0  0  0  0  0  0
   30.8712    8.9473   34.5954 H   0  0  0  0  0  0  0  0  0  0  0  0
   29.5221    6.4403   30.5350 H   0  0  0  0  0  0  0  0  0  0  0  0
   27.0982   16.4282   25.7739 H   0  0  0  0  0  0  0  0  0  0  0  0
   26.9800   16.4022   24.0070 H   0  0  0  0  0  0  0  0  0  0  0  0
   28.5769   16.3801   24.8006 H   0  0  0  0  0  0  0  0  0  0  0  0
   25.9802   13.0714   31.2154 H   0  0  0  0  0  0  0  0  0  0  0  0
   27.2659   12.4767   30.1699 H   0  0  0  0  0  0  0  0  0  0  0  0
   31.5544    9.6463   18.2682 H   0  0  0  0  0  0  0  0  0  0  0  0
   31.5679    6.6002   34.3023 H   0  0  0  0  0  0  0  0  0  0  0  0
   30.8975    5.3488   32.2652 H   0  0  0  0  0  0  0  0  0  0  0  0
   29.4768    8.3084   18.2542 H   0  0  0  0  0  0  0  0  0  0  0  0
   27.7792   14.8010   29.4440 H   0  0  0  0  0  0  0  0  0  0  0  0
   26.4177   15.4129   30.4062 H   0  0  0  0  0  0  0  0  0  0  0  0
   27.8139   14.6703   31.2055 H   0  0  0  0  0  0  0  0  0  0  0  0
  2  6  1  0
  3  8  1  0
  4  1  2  0
  5  1  1  0
  6 12  2  0
  7  2  1  0
  8 14  2  0
  9  1  1  0
 10  5  1  0
 11  4  1  0
 12  9  1  0
 13 15  2  0
 14 17  1  0
 15 19  1  0
 16 13  1  0
 17  9  2  0
 18  2  1  0
 19 21  2  0
 20 16  2  0
 21 28  1  0
 22 27  2  0
 23 18  1  0
 24  5  1  0
 25 16  1  0
 26  7  1  0
 27 23  1  0
 28 23  2  0
 29 10  2  0
 30 11  2  0
 31 13  1  0
 32 15  1  0
 33 14  1  0
 34 26  1  0
 35 29  1  0
 36 37  1  0
 37 32  2  0
 38 30  1  0
 39 34  1  0
 10 11  1  0
  8  6  1  0
 35 38  2  0
  3  7  2  0
 19 22  1  0
 36 31  2  0
 12 40  1  0
 17 41  1  0
 18 42  1  0
 18 43  1  0
 21 44  1  0
 22 45  1  0
 24 46  1  0
 24 47  1  0
 24 48  1  0
 25 49  1  0
 26 50  1  0
 26 51  1  0
 27 52  1  0
 28 53  1  0
 29 54  1  0
 30 55  1  0
 31 56  1  0
 32 57  1  0
 33 58  1  0
 33 59  1  0
 33 60  1  0
 34 61  1  0
 34 62  1  0
 35 63  1  0
 36 64  1  0
 37 65  1  0
 38 66  1  0
 39 67  1  0
 39 68  1  0
 39 69  1  0
M  END
> <Uni-Dock RESULT> 
ENERGY=   -4.089  LOWER_BOUND=    2.923  UPPER_BOUND=    4.389
INTER + INTRA:          -4.089
INTER:                  -4.089
INTRA:                   0.000
UNBOUND:                 0.000

$$$$

     RDKit          3D

 69 74  0  0  0  0  0  0  0  0999 V2000
   27.7580   12.8499   24.8385 C   0  0  0  0  0  0  0  0  0  0  0  0
   24.8598   12.9747   28.9225 N   0  0  0  0  0  0  0  0  0  0  0  0
   26.2689   14.2377   30.0820 N   0  0  0  0  0  0  0  0  0  0  0  0
   26.9100   12.9199   23.8269 N   0  0  0  0  0  0  0  0  0  0  0  0
   28.9538   12.2966   24.4178 N   0  0  0  0  0  0  0  0  0  0  0  0
   25.9308   13.2118   28.0844 C   0  0  0  0  0  0  0  0  0  0  0  0
   25.1197   13.5930   30.1299 C   0  0  0  0  0  0  0  0  0  0  0  0
   26.7878   14.0094   28.8340 C   0  0  0  0  0  0  0  0  0  0  0  0
   27.4359   13.2545   26.2109 C   0  0  0  0  0  0  0  0  0  0  0  0
   28.8785   12.0735   23.0611 C   0  0  0  0  0  0  0  0  0  0  0  0
   27.5882   12.4684   22.7257 C   0  0  0  0  0  0  0  0  0  0  0  0
   26.2230   12.8228   26.7704 C   0  0  0  0  0  0  0  0  0  0  0  0
   23.4475    6.7336   32.2946 C   0  0  0  0  0  0  0  0  0  0  0  0
   27.9954   14.4717   28.2753 C   0  0  0  0  0  0  0  0  0  0  0  0
   23.1330    7.0149   30.9480 C   0  0  0  0  0  0  0  0  0  0  0  0
   24.0124    7.7755   33.1936 C   0  0  0  0  0  0  0  0  0  0  0  0
   28.2917   14.0826   26.9514 C   0  0  0  0  0  0  0  0  0  0  0  0
   23.6371   12.2773   28.5446 C   0  0  0  0  0  0  0  0  0  0  0  0
   23.2668    8.3460   30.3427 C   0  0  0  0  0  0  0  0  0  0  0  0
   24.7108    8.7223   32.8919 O   0  0  0  0  0  0  0  0  0  0  0  0
   24.3900    8.6742   29.5719 C   0  0  0  0  0  0  0  0  0  0  0  0
   22.2609    9.3087   30.5018 C   0  0  0  0  0  0  0  0  0  0  0  0
   23.5191   10.9085   29.1679 C   0  0  0  0  0  0  0  0  0  0  0  0
   30.0758   11.9450   25.2556 C   0  0  0  0  0  0  0  0  0  0  0  0
   23.6551    7.5707   34.4776 O   0  0  0  0  0  0  0  0  0  0  0  0
   24.2240   13.5561   31.3275 C   0  0  0  0  0  0  0  0  0  0  0  0
   22.3826   10.5731   29.9179 C   0  0  0  0  0  0  0  0  0  0  0  0
   24.5152    9.9386   28.9892 C   0  0  0  0  0  0  0  0  0  0  0  0
   29.7818   11.5687   22.1156 C   0  0  0  0  0  0  0  0  0  0  0  0
   27.1557   12.3639   21.3955 C   0  0  0  0  0  0  0  0  0  0  0  0
   23.2582    5.4355   32.8054 C   0  0  0  0  0  0  0  0  0  0  0  0
   22.6334    5.9669   30.1481 C   0  0  0  0  0  0  0  0  0  0  0  0
   28.9540   15.3528   29.0206 C   0  0  0  0  0  0  0  0  0  0  0  0
   24.6310   12.4840   32.3408 C   0  0  0  0  0  0  0  0  0  0  0  0
   29.3336   11.4724   20.7928 C   0  0  0  0  0  0  0  0  0  0  0  0
   22.7604    4.4166   31.9931 C   0  0  0  0  0  0  0  0  0  0  0  0
   22.4494    4.6823   30.6639 C   0  0  0  0  0  0  0  0  0  0  0  0
   28.0420   11.8622   20.4349 C   0  0  0  0  0  0  0  0  0  0  0  0
   25.9348   12.7977   33.0626 C   0  0  0  0  0  0  0  0  0  0  0  0
   25.5433   12.2046   26.1912 H   0  0  0  0  0  0  0  0  0  0  0  0
   29.2041   14.4611   26.4947 H   0  0  0  0  0  0  0  0  0  0  0  0
   22.8013   12.9268   28.8287 H   0  0  0  0  0  0  0  0  0  0  0  0
   23.5997   12.1848   27.4543 H   0  0  0  0  0  0  0  0  0  0  0  0
   25.1876    7.9474   29.4339 H   0  0  0  0  0  0  0  0  0  0  0  0
   21.3732    9.0777   31.0869 H   0  0  0  0  0  0  0  0  0  0  0  0
   29.7115   11.5716   26.2151 H   0  0  0  0  0  0  0  0  0  0  0  0
   30.6936   12.8350   25.3923 H   0  0  0  0  0  0  0  0  0  0  0  0
   30.6606   11.1558   24.7780 H   0  0  0  0  0  0  0  0  0  0  0  0
   24.0771    8.3190   34.9500 H   0  0  0  0  0  0  0  0  0  0  0  0
   23.1846   13.3900   31.0272 H   0  0  0  0  0  0  0  0  0  0  0  0
   24.2403   14.5419   31.8093 H   0  0  0  0  0  0  0  0  0  0  0  0
   21.5832   11.2962   30.0659 H   0  0  0  0  0  0  0  0  0  0  0  0
   25.4082   10.1590   28.4075 H   0  0  0  0  0  0  0  0  0  0  0  0
   30.7875   11.2635   22.3836 H   0  0  0  0  0  0  0  0  0  0  0  0
   26.1509   12.6706   21.1274 H   0  0  0  0  0  0  0  0  0  0  0  0
   23.5069    5.2094   33.8406 H   0  0  0  0  0  0  0  0  0  0  0  0
   22.3770    6.1569   29.1058 H   0  0  0  0  0  0  0  0  0  0  0  0
   28.5875   15.5849   30.0253 H   0  0  0  0  0  0  0  0  0  0  0  0
   29.0927   16.2974   28.4846 H   0  0  0  0  0  0  0  0  0  0  0  0
   29.9232   14.8535   29.1214 H   0  0  0  0  0  0  0  0  0  0  0  0
   23.8365   12.3987   33.0920 H   0  0  0  0  0  0  0  0  0  0  0  0
   24.7186   11.5054   31.8576 H   0  0  0  0  0  0  0  0  0  0  0  0
   30.0056   11.0856   20.0286 H   0  0  0  0  0  0  0  0  0  0  0  0
   22.6190    3.4174   32.3983 H   0  0  0  0  0  0  0  0  0  0  0  0
   22.0607    3.8919   30.0258 H   0  0  0  0  0  0  0  0  0  0  0  0
   27.7180   11.7776   19.4006 H   0  0  0  0  0  0  0  0  0  0  0  0
   26.7860   12.7900   32.3757 H   0  0  0  0  0  0  0  0  0  0  0  0
   25.8902   13.7781   33.5484 H   0  0  0  0  0  0  0  0  0  0  0  0
   26.1259   12.0455   33.8356 H   0  0  0  0  0  0  0  0  0  0  0  0
  2  6  1  0
  3  8  1  0
  4  1  2  0
  5  1  1  0
  6 12  2  0
  7  2  1  0
  8 14  2  0
  9  1  1  0
 10  5  1  0
 11  4  1  0
 12  9  1  0
 13 15  2  0
 14 17  1  0
 15 19  1  0
 16 13  1  0
 17  9  2  0
 18  2  1  0
 19 21  2  0
 20 16  2  0
 21 28  1  0
 22 27  2  0
 23 18  1  0
 24  5  1  0
 25 16  1  0
 26  7  1  0
 27 23  1  0
 28 23  2  0
 29 10  2  0
 30 11  2  0
 31 13  1  0
 32 15  1  0
 33 14  1  0
 34 26  1  0
 35 29  1  0
 36 37  1  0
 37 32  2  0
 38 30  1  0
 39 34  1  0
 10 11  1  0
  8  6  1  0
 35 38  2  0
  3  7  2  0
 19 22  1  0
 36 31  2  0
 12 40  1  0
 17 41  1  0
 18 42  1  0
 18 43  1  0
 21 44  1  0
 22 45  1  0
 24 46  1  0
 24 47  1  0
 24 48  1  0
 25 49  1  0
 26 50  1  0
 26 51  1  0
 27 52  1  0
 28 53  1  0
 29 54  1  0
 30 55  1  0
 31 56  1  0
 32 57  1  0
 33 58  1  0
 33 59  1  0
 33 60  1  0
 34 61  1  0
 34 62  1  0
 35 63  1  0
 36 64  1  0
 37 65  1  0
 38 66  1  0
 39 67  1  0
 39 68  1  0
 39 69  1  0
M  END
> <Uni-Dock RESULT> 
ENERGY=   -4.047  LOWER_BOUND=    2.184  UPPER_BOUND=    3.687
INTER + INTRA:          -4.047
INTER:                  -4.047
INTRA:                   0.000
UNBOUND:                 0.000

$$$$

     RDKit          3D

 69 74  0  0  0  0  0  0  0  0999 V2000
   29.0689   11.6166   21.3821 C   0  0  0  0  0  0  0  0  0  0  0  0
   27.4858   12.0449   26.1154 N   0  0  0  0  0  0  0  0  0  0  0  0
   26.0454   13.6699   25.6576 N   0  0  0  0  0  0  0  0  0  0  0  0
   29.2425   10.3180   21.2058 N   0  0  0  0  0  0  0  0  0  0  0  0
   29.8156   12.3248   20.4580 N   0  0  0  0  0  0  0  0  0  0  0  0
   27.5985   12.2777   24.7594 C   0  0  0  0  0  0  0  0  0  0  0  0
   26.5532   12.9284   26.6225 C   0  0  0  0  0  0  0  0  0  0  0  0
   26.6810   13.2903   24.5040 C   0  0  0  0  0  0  0  0  0  0  0  0
   28.2436   12.1990   22.4453 C   0  0  0  0  0  0  0  0  0  0  0  0
   30.4327   11.4276   19.6151 C   0  0  0  0  0  0  0  0  0  0  0  0
   30.0581   10.1847   20.1134 C   0  0  0  0  0  0  0  0  0  0  0  0
   28.3890   11.7081   23.7524 C   0  0  0  0  0  0  0  0  0  0  0  0
   32.2811   14.0439   31.1480 C   0  0  0  0  0  0  0  0  0  0  0  0
   26.5059   13.7734   23.1924 C   0  0  0  0  0  0  0  0  0  0  0  0
   32.3972   12.9010   30.3284 C   0  0  0  0  0  0  0  0  0  0  0  0
   31.0633   14.8979   31.1207 C   0  0  0  0  0  0  0  0  0  0  0  0
   27.2998   13.2005   22.1759 C   0  0  0  0  0  0  0  0  0  0  0  0
   28.1669   10.9818   26.8436 C   0  0  0  0  0  0  0  0  0  0  0  0
   31.3269   12.4219   29.4447 C   0  0  0  0  0  0  0  0  0  0  0  0
   30.3103   15.0938   30.1881 O   0  0  0  0  0  0  0  0  0  0  0  0
   31.3367   12.7243   28.0764 C   0  0  0  0  0  0  0  0  0  0  0  0
   30.2854   11.6298   29.9465 C   0  0  0  0  0  0  0  0  0  0  0  0
   29.2688   11.4896   27.7402 C   0  0  0  0  0  0  0  0  0  0  0  0
   29.9837   13.7580   20.4111 C   0  0  0  0  0  0  0  0  0  0  0  0
   30.8409   15.4841   32.3145 O   0  0  0  0  0  0  0  0  0  0  0  0
   26.1551   13.0300   28.0610 C   0  0  0  0  0  0  0  0  0  0  0  0
   29.2710   11.1650   29.1044 C   0  0  0  0  0  0  0  0  0  0  0  0
   30.3222   12.2628   27.2329 C   0  0  0  0  0  0  0  0  0  0  0  0
   31.2694   11.5713   18.4999 C   0  0  0  0  0  0  0  0  0  0  0  0
   30.5264    9.0188   19.4899 C   0  0  0  0  0  0  0  0  0  0  0  0
   33.3443   14.4156   31.9924 C   0  0  0  0  0  0  0  0  0  0  0  0
   33.5957   12.1606   30.3843 C   0  0  0  0  0  0  0  0  0  0  0  0
   25.5184   14.8478   22.8443 C   0  0  0  0  0  0  0  0  0  0  0  0
   26.8983   14.1413   28.8057 C   0  0  0  0  0  0  0  0  0  0  0  0
   31.7265   10.3971   17.8895 C   0  0  0  0  0  0  0  0  0  0  0  0
   34.5191   13.6645   32.0304 C   0  0  0  0  0  0  0  0  0  0  0  0
   34.6452   12.5377   31.2250 C   0  0  0  0  0  0  0  0  0  0  0  0
   31.3635    9.1396   18.3742 C   0  0  0  0  0  0  0  0  0  0  0  0
   26.4838   15.5414   28.3732 C   0  0  0  0  0  0  0  0  0  0  0  0
   29.0984   10.9127   23.9618 H   0  0  0  0  0  0  0  0  0  0  0  0
   27.1503   13.5391   21.1524 H   0  0  0  0  0  0  0  0  0  0  0  0
   27.3983   10.4428   27.4093 H   0  0  0  0  0  0  0  0  0  0  0  0
   28.5821   10.2657   26.1270 H   0  0  0  0  0  0  0  0  0  0  0  0
   32.1314   13.3395   27.6600 H   0  0  0  0  0  0  0  0  0  0  0  0
   30.2580   11.3713   31.0031 H   0  0  0  0  0  0  0  0  0  0  0  0
   30.0191   14.1544   21.4282 H   0  0  0  0  0  0  0  0  0  0  0  0
   29.1455   14.1833   19.8554 H   0  0  0  0  0  0  0  0  0  0  0  0
   30.9238   14.0036   19.9123 H   0  0  0  0  0  0  0  0  0  0  0  0
   30.0201   15.9983   32.1624 H   0  0  0  0  0  0  0  0  0  0  0  0
   26.3224   12.0787   28.5759 H   0  0  0  0  0  0  0  0  0  0  0  0
   25.0741   13.2111   28.1147 H   0  0  0  0  0  0  0  0  0  0  0  0
   28.4767   10.5553   29.5301 H   0  0  0  0  0  0  0  0  0  0  0  0
   30.3592   12.5290   26.1783 H   0  0  0  0  0  0  0  0  0  0  0  0
   31.5569   12.5439   18.1155 H   0  0  0  0  0  0  0  0  0  0  0  0
   30.2376    8.0466   19.8732 H   0  0  0  0  0  0  0  0  0  0  0  0
   33.2649   15.3007   32.6207 H   0  0  0  0  0  0  0  0  0  0  0  0
   33.7110   11.2703   29.7661 H   0  0  0  0  0  0  0  0  0  0  0  0
   24.9648   15.1850   23.7260 H   0  0  0  0  0  0  0  0  0  0  0  0
   24.7945   14.4723   22.1137 H   0  0  0  0  0  0  0  0  0  0  0  0
   26.0381   15.7132   22.4201 H   0  0  0  0  0  0  0  0  0  0  0  0
   26.6894   14.0388   29.8775 H   0  0  0  0  0  0  0  0  0  0  0  0
   27.9810   14.0364   28.6810 H   0  0  0  0  0  0  0  0  0  0  0  0
   32.3781   10.4666   17.0201 H   0  0  0  0  0  0  0  0  0  0  0  0
   35.3343   13.9616   32.6860 H   0  0  0  0  0  0  0  0  0  0  0  0
   35.5586   11.9479   31.2505 H   0  0  0  0  0  0  0  0  0  0  0  0
   31.7318    8.2428   17.8822 H   0  0  0  0  0  0  0  0  0  0  0  0
   26.7660   15.7411   27.3355 H   0  0  0  0  0  0  0  0  0  0  0  0
   25.4020   15.6800   28.4712 H   0  0  0  0  0  0  0  0  0  0  0  0
   26.9790   16.2898   29.0012 H   0  0  0  0  0  0  0  0  0  0  0  0
  2  6  1  0
  3  8  1  0
  4  1  2  0
  5  1  1  0
  6 12  2  0
  7  2  1  0
  8 14  2  0
  9  1  1  0
 10  5  1  0
 11  4  1  0
 12  9  1  0
 13 15  2  0
 14 17  1  0
 15 19  1  0
 16 13  1  0
 17  9  2  0
 18  2  1  0
 19 21  2  0
 20 16  2  0
 21 28  1  0
 22 27  2  0
 23 18  1  0
 24  5  1  0
 25 16  1  0
 26  7  1  0
 27 23  1  0
 28 23  2  0
 29 10  2  0
 30 11  2  0
 31 13  1  0
 32 15  1  0
 33 14  1  0
 34 26  1  0
 35 29  1  0
 36 37  1  0
 37 32  2  0
 38 30  1  0
 39 34  1  0
 10 11  1  0
  8  6  1  0
 35 38  2  0
  3  7  2  0
 19 22  1  0
 36 31  2  0
 12 40  1  0
 17 41  1  0
 18 42  1  0
 18 43  1  0
 21 44  1  0
 22 45  1  0
 24 46  1  0
 24 47  1  0
 24 48  1  0
 25 49  1  0
 26 50  1  0
 26 51  1  0
 27 52  1  0
 28 53  1  0
 29 54  1  0
 30 55  1  0
 31 56  1  0
 32 57  1  0
 33 58  1  0
 33 59  1  0
 33 60  1  0
 34 61  1  0
 34 62  1  0
 35 63  1  0
 36 64  1  0
 37 65  1  0
 38 66  1  0
 39 67  1  0
 39 68  1  0
 39 69  1  0
M  END
> <Uni-Dock RESULT> 
ENERGY=   -4.034  LOWER_BOUND=    4.118  UPPER_BOUND=    6.615
INTER + INTRA:          -4.034
INTER:                  -4.034
INTRA:                   0.000
UNBOUND:                 0.000

$$$$
