
     RDKit          3D

 69 74  0  0  0  0  0  0  0  0999 V2000
   27.8913   12.0468   21.2508 C   0  0  0  0  0  0  0  0  0  0  0  0
   26.3974   14.1006   25.5718 N   0  0  0  0  0  0  0  0  0  0  0  0
   24.7438   15.2472   24.6339 N   0  0  0  0  0  0  0  0  0  0  0  0
   28.1707   10.7832   21.5191 N   0  0  0  0  0  0  0  0  0  0  0  0
   28.5610   12.4515   20.1109 N   0  0  0  0  0  0  0  0  0  0  0  0
   26.4442   13.7974   24.2253 C   0  0  0  0  0  0  0  0  0  0  0  0
   25.3659   14.9975   25.7688 C   0  0  0  0  0  0  0  0  0  0  0  0
   25.3926   14.5190   23.6709 C   0  0  0  0  0  0  0  0  0  0  0  0
   27.0320   12.8981   22.0767 C   0  0  0  0  0  0  0  0  0  0  0  0
   29.2310   11.3674   19.5910 C   0  0  0  0  0  0  0  0  0  0  0  0
   28.9714   10.3446   20.4971 C   0  0  0  0  0  0  0  0  0  0  0  0
   27.2804   12.9770   23.4555 C   0  0  0  0  0  0  0  0  0  0  0  0
   26.1473    8.5951   30.8238 C   0  0  0  0  0  0  0  0  0  0  0  0
   25.1257   14.4374   22.2899 C   0  0  0  0  0  0  0  0  0  0  0  0
   25.4015    9.1700   29.7747 C   0  0  0  0  0  0  0  0  0  0  0  0
   27.5079    9.0503   31.1534 C   0  0  0  0  0  0  0  0  0  0  0  0
   25.9577   13.6026   21.5149 C   0  0  0  0  0  0  0  0  0  0  0  0
   27.3435   13.6286   26.5739 C   0  0  0  0  0  0  0  0  0  0  0  0
   25.8880   10.2994   28.9627 C   0  0  0  0  0  0  0  0  0  0  0  0
   27.8636    9.5317   32.2114 O   0  0  0  0  0  0  0  0  0  0  0  0
   26.2002   11.5343   29.5517 C   0  0  0  0  0  0  0  0  0  0  0  0
   26.0437   10.1744   27.5745 C   0  0  0  0  0  0  0  0  0  0  0  0
   26.8131   12.4762   27.3919 C   0  0  0  0  0  0  0  0  0  0  0  0
   28.6107   13.7931   19.5784 C   0  0  0  0  0  0  0  0  0  0  0  0
   28.3585    8.8126   30.1411 O   0  0  0  0  0  0  0  0  0  0  0  0
   24.9954   15.6120   27.0803 C   0  0  0  0  0  0  0  0  0  0  0  0
   26.4998   11.2460   26.7989 C   0  0  0  0  0  0  0  0  0  0  0  0
   26.6651   12.6043   28.7803 C   0  0  0  0  0  0  0  0  0  0  0  0
   30.0279   11.1839   18.4532 C   0  0  0  0  0  0  0  0  0  0  0  0
   29.5217    9.0728   20.2803 C   0  0  0  0  0  0  0  0  0  0  0  0
   25.6191    7.5639   31.6156 C   0  0  0  0  0  0  0  0  0  0  0  0
   24.1172    8.6457   29.5312 C   0  0  0  0  0  0  0  0  0  0  0  0
   23.9896   15.1667   21.6351 C   0  0  0  0  0  0  0  0  0  0  0  0
   25.7541   16.9104   27.3606 C   0  0  0  0  0  0  0  0  0  0  0  0
   30.5673    9.9082   18.2514 C   0  0  0  0  0  0  0  0  0  0  0  0
   24.3447    7.0664   31.3509 C   0  0  0  0  0  0  0  0  0  0  0  0
   23.5964    7.6038   30.3067 C   0  0  0  0  0  0  0  0  0  0  0  0
   30.3201    8.8675   19.1488 C   0  0  0  0  0  0  0  0  0  0  0  0
   25.3530   18.0538   26.4369 C   0  0  0  0  0  0  0  0  0  0  0  0
   28.0917   12.4074   23.8989 H   0  0  0  0  0  0  0  0  0  0  0  0
   25.7415   13.4956   20.4532 H   0  0  0  0  0  0  0  0  0  0  0  0
   28.2703   13.3302   26.0723 H   0  0  0  0  0  0  0  0  0  0  0  0
   27.6009   14.4836   27.2088 H   0  0  0  0  0  0  0  0  0  0  0  0
   26.0822   11.6749   30.6256 H   0  0  0  0  0  0  0  0  0  0  0  0
   25.8202    9.2288   27.0827 H   0  0  0  0  0  0  0  0  0  0  0  0
   28.5842   14.5145   20.3979 H   0  0  0  0  0  0  0  0  0  0  0  0
   27.7553   13.9301   18.9126 H   0  0  0  0  0  0  0  0  0  0  0  0
   29.5434   13.9345   19.0271 H   0  0  0  0  0  0  0  0  0  0  0  0
   29.2206    9.1474   30.4622 H   0  0  0  0  0  0  0  0  0  0  0  0
   23.9162   15.8093   27.0865 H   0  0  0  0  0  0  0  0  0  0  0  0
   25.1746   14.9060   27.8954 H   0  0  0  0  0  0  0  0  0  0  0  0
   26.6093   11.0992   25.7261 H   0  0  0  0  0  0  0  0  0  0  0  0
   26.9086   13.5392   29.2812 H   0  0  0  0  0  0  0  0  0  0  0  0
   30.2244   11.9864   17.7512 H   0  0  0  0  0  0  0  0  0  0  0  0
   29.3245    8.2694   20.9820 H   0  0  0  0  0  0  0  0  0  0  0  0
   26.2054    7.1449   32.4308 H   0  0  0  0  0  0  0  0  0  0  0  0
   23.5014    9.0626   28.7352 H   0  0  0  0  0  0  0  0  0  0  0  0
   23.2054   14.4582   21.3522 H   0  0  0  0  0  0  0  0  0  0  0  0
   24.3393   15.6893   20.7390 H   0  0  0  0  0  0  0  0  0  0  0  0
   23.5540   15.9130   22.3065 H   0  0  0  0  0  0  0  0  0  0  0  0
   26.8357   16.7505   27.2836 H   0  0  0  0  0  0  0  0  0  0  0  0
   25.5501   17.2161   28.3941 H   0  0  0  0  0  0  0  0  0  0  0  0
   31.1913    9.7241   17.3786 H   0  0  0  0  0  0  0  0  0  0  0  0
   23.9370    6.2605   31.9564 H   0  0  0  0  0  0  0  0  0  0  0  0
   22.6005    7.2201   30.0975 H   0  0  0  0  0  0  0  0  0  0  0  0
   30.7512    7.8854   18.9699 H   0  0  0  0  0  0  0  0  0  0  0  0
   24.2776   18.2484   26.4982 H   0  0  0  0  0  0  0  0  0  0  0  0
   25.6074   17.8377   25.3945 H   0  0  0  0  0  0  0  0  0  0  0  0
   25.8791   18.9695   26.7235 H   0  0  0  0  0  0  0  0  0  0  0  0
  2  6  1  0
  3  8  1  0
  4  1  2  0
  5  1  1  0
  6 12  2  0
  7  2  1  0
  8 14  2  0
  9  1  1  0
 10  5  1  0
 11  4  1  0
 12  9  1  0
 13 15  2  0
 14 17  1  0
 15 19  1  0
 16 13  1  0
 17  9  2  0
 18  2  1  0
 19 21  2  0
 20 16  2  0
 21 28  1  0
 22 27  2  0
 23 18  1  0
 24  5  1  0
 25 16  1  0
 26  7  1  0
 27 23  1  0
 28 23  2  0
 29 10  2  0
 30 11  2  0
 31 13  1  0
 32 15  1  0
 33 14  1  0
 34 26  1  0
 35 29  1  0
 36 37  1  0
 37 32  2  0
 38 30  1  0
 39 34  1  0
 10 11  1  0
  8  6  1  0
 35 38  2  0
  3  7  2  0
 19 22  1  0
 36 31  2  0
 12 40  1  0
 17 41  1  0
 18 42  1  0
 18 43  1  0
 21 44  1  0
 22 45  1  0
 24 46  1  0
 24 47  1  0
 24 48  1  0
 25 49  1  0
 26 50  1  0
 26 51  1  0
 27 52  1  0
 28 53  1  0
 29 54  1  0
 30 55  1  0
 31 56  1  0
 32 57  1  0
 33 58  1  0
 33 59  1  0
 33 60  1  0
 34 61  1  0
 34 62  1  0
 35 63  1  0
 36 64  1  0
 37 65  1  0
 38 66  1  0
 39 67  1  0
 39 68  1  0
 39 69  1  0
M  END
> <Uni-Dock RESULT> 
ENERGY=   -5.307  LOWER_BOUND=    0.000  UPPER_BOUND=    0.000
INTER + INTRA:          -5.307
INTER:                  -5.307
INTRA:                   0.000
UNBOUND:                 0.000

$$$$

     RDKit          3D

 69 74  0  0  0  0  0  0  0  0999 V2000
   27.8895   12.0451   21.2502 C   0  0  0  0  0  0  0  0  0  0  0  0
   26.3965   14.1013   25.5704 N   0  0  0  0  0  0  0  0  0  0  0  0
   24.7432   15.2480   24.6321 N   0  0  0  0  0  0  0  0  0  0  0  0
   28.1684   10.7815   21.5191 N   0  0  0  0  0  0  0  0  0  0  0  0
   28.5592   12.4491   20.1101 N   0  0  0  0  0  0  0  0  0  0  0  0
   26.4431   13.7974   24.2240 C   0  0  0  0  0  0  0  0  0  0  0  0
   25.3652   14.9986   25.7671 C   0  0  0  0  0  0  0  0  0  0  0  0
   25.3917   14.5192   23.6694 C   0  0  0  0  0  0  0  0  0  0  0  0
   27.0304   12.8971   22.0758 C   0  0  0  0  0  0  0  0  0  0  0  0
   29.2288   11.3646   19.5906 C   0  0  0  0  0  0  0  0  0  0  0  0
   28.9689   10.3422   20.4971 C   0  0  0  0  0  0  0  0  0  0  0  0
   27.2790   12.9764   23.4546 C   0  0  0  0  0  0  0  0  0  0  0  0
   26.1448    8.5980   30.8247 C   0  0  0  0  0  0  0  0  0  0  0  0
   25.1246   14.4371   22.2885 C   0  0  0  0  0  0  0  0  0  0  0  0
   25.3991    9.1728   29.7755 C   0  0  0  0  0  0  0  0  0  0  0  0
   27.5056    9.0529   31.1541 C   0  0  0  0  0  0  0  0  0  0  0  0
   25.9563   13.6017   21.5137 C   0  0  0  0  0  0  0  0  0  0  0  0
   27.3424   13.6293   26.5727 C   0  0  0  0  0  0  0  0  0  0  0  0
   25.8859   10.3017   28.9630 C   0  0  0  0  0  0  0  0  0  0  0  0
   27.8615    9.5347   32.2118 O   0  0  0  0  0  0  0  0  0  0  0  0
   26.1986   11.5367   29.5514 C   0  0  0  0  0  0  0  0  0  0  0  0
   26.0415   10.1760   27.5748 C   0  0  0  0  0  0  0  0  0  0  0  0
   26.8117   12.4775   27.3912 C   0  0  0  0  0  0  0  0  0  0  0  0
   28.6093   13.7905   19.5770 C   0  0  0  0  0  0  0  0  0  0  0  0
   28.3560    8.8145   30.1418 O   0  0  0  0  0  0  0  0  0  0  0  0
   24.9950   15.6138   27.0784 C   0  0  0  0  0  0  0  0  0  0  0  0
   26.4980   11.2471   26.7987 C   0  0  0  0  0  0  0  0  0  0  0  0
   26.6638   12.6062   28.7795 C   0  0  0  0  0  0  0  0  0  0  0  0
   30.0255   11.1804   18.4528 C   0  0  0  0  0  0  0  0  0  0  0  0
   29.5188    9.0702   20.2809 C   0  0  0  0  0  0  0  0  0  0  0  0
   25.6162    7.5674   31.6171 C   0  0  0  0  0  0  0  0  0  0  0  0
   24.1146    8.6488   29.5322 C   0  0  0  0  0  0  0  0  0  0  0  0
   23.9888   15.1665   21.6334 C   0  0  0  0  0  0  0  0  0  0  0  0
   25.7541   16.9120   27.3581 C   0  0  0  0  0  0  0  0  0  0  0  0
   30.5645    9.9044   18.2515 C   0  0  0  0  0  0  0  0  0  0  0  0
   24.3417    7.0701   31.3526 C   0  0  0  0  0  0  0  0  0  0  0  0
   23.5935    7.6074   30.3082 C   0  0  0  0  0  0  0  0  0  0  0  0
   30.3170    8.8641   19.1494 C   0  0  0  0  0  0  0  0  0  0  0  0
   25.3534   18.0551   26.4339 C   0  0  0  0  0  0  0  0  0  0  0  0
   28.0901   12.4068   23.8981 H   0  0  0  0  0  0  0  0  0  0  0  0
   25.7401   13.4943   20.4521 H   0  0  0  0  0  0  0  0  0  0  0  0
   28.2691   13.3305   26.0711 H   0  0  0  0  0  0  0  0  0  0  0  0
   27.6001   14.4845   27.2072 H   0  0  0  0  0  0  0  0  0  0  0  0
   26.0807   11.6777   30.6253 H   0  0  0  0  0  0  0  0  0  0  0  0
   25.8177    9.2303   27.0834 H   0  0  0  0  0  0  0  0  0  0  0  0
   28.5831   14.5122   20.3963 H   0  0  0  0  0  0  0  0  0  0  0  0
   27.7539   13.9274   18.9112 H   0  0  0  0  0  0  0  0  0  0  0  0
   29.5420   13.9313   19.0256 H   0  0  0  0  0  0  0  0  0  0  0  0
   29.2182    9.1491   30.4627 H   0  0  0  0  0  0  0  0  0  0  0  0
   23.9159   15.8114   27.0845 H   0  0  0  0  0  0  0  0  0  0  0  0
   25.1740   14.9081   27.8938 H   0  0  0  0  0  0  0  0  0  0  0  0
   26.6073   11.0998   25.7260 H   0  0  0  0  0  0  0  0  0  0  0  0
   26.9077   13.5412   29.2800 H   0  0  0  0  0  0  0  0  0  0  0  0
   30.2223   11.9825   17.7505 H   0  0  0  0  0  0  0  0  0  0  0  0
   29.3213    8.2671   20.9829 H   0  0  0  0  0  0  0  0  0  0  0  0
   26.2025    7.1485   32.4323 H   0  0  0  0  0  0  0  0  0  0  0  0
   23.4989    9.0656   28.7361 H   0  0  0  0  0  0  0  0  0  0  0  0
   23.2043   14.4581   21.3508 H   0  0  0  0  0  0  0  0  0  0  0  0
   24.3386   15.6886   20.7371 H   0  0  0  0  0  0  0  0  0  0  0  0
   23.5535   15.9132   22.3046 H   0  0  0  0  0  0  0  0  0  0  0  0
   26.8357   16.7517   27.2811 H   0  0  0  0  0  0  0  0  0  0  0  0
   25.5503   17.2182   28.3915 H   0  0  0  0  0  0  0  0  0  0  0  0
   31.1884    9.7197   17.3789 H   0  0  0  0  0  0  0  0  0  0  0  0
   23.9337    6.2647   31.9584 H   0  0  0  0  0  0  0  0  0  0  0  0
   22.5974    7.2239   30.0992 H   0  0  0  0  0  0  0  0  0  0  0  0
   30.7477    7.8818   18.9709 H   0  0  0  0  0  0  0  0  0  0  0  0
   24.2781   18.2501   26.4952 H   0  0  0  0  0  0  0  0  0  0  0  0
   25.6076   17.8385   25.3916 H   0  0  0  0  0  0  0  0  0  0  0  0
   25.8798   18.9708   26.7202 H   0  0  0  0  0  0  0  0  0  0  0  0
  2  6  1  0
  3  8  1  0
  4  1  2  0
  5  1  1  0
  6 12  2  0
  7  2  1  0
  8 14  2  0
  9  1  1  0
 10  5  1  0
 11  4  1  0
 12  9  1  0
 13 15  2  0
 14 17  1  0
 15 19  1  0
 16 13  1  0
 17  9  2  0
 18  2  1  0
 19 21  2  0
 20 16  2  0
 21 28  1  0
 22 27  2  0
 23 18  1  0
 24  5  1  0
 25 16  1  0
 26  7  1  0
 27 23  1  0
 28 23  2  0
 29 10  2  0
 30 11  2  0
 31 13  1  0
 32 15  1  0
 33 14  1  0
 34 26  1  0
 35 29  1  0
 36 37  1  0
 37 32  2  0
 38 30  1  0
 39 34  1  0
 10 11  1  0
  8  6  1  0
 35 38  2  0
  3  7  2  0
 19 22  1  0
 36 31  2  0
 12 40  1  0
 17 41  1  0
 18 42  1  0
 18 43  1  0
 21 44  1  0
 22 45  1  0
 24 46  1  0
 24 47  1  0
 24 48  1  0
 25 49  1  0
 26 50  1  0
 26 51  1  0
 27 52  1  0
 28 53  1  0
 29 54  1  0
 30 55  1  0
 31 56  1  0
 32 57  1  0
 33 58  1  0
 33 59  1  0
 33 60  1  0
 34 61  1  0
 34 62  1  0
 35 63  1  0
 36 64  1  0
 37 65  1  0
 38 66  1  0
 39 67  1  0
 39 68  1  0
 39 69  1  0
M  END
> <Uni-Dock RESULT> 
ENERGY=   -5.302  LOWER_BOUND=    0.003  UPPER_BOUND=    0.003
INTER + INTRA:          -5.302
INTER:                  -5.302
INTRA:                   0.000
UNBOUND:                 0.000

$$$$

     RDKit          3D

 69 74  0  0  0  0  0  0  0  0999 V2000
   28.1831    2.5542   30.9605 C   0  0  0  0  0  0  0  0  0  0  0  0
   29.7847    7.0336   29.3820 N   0  0  0  0  0  0  0  0  0  0  0  0
   30.4170    6.2788   27.3922 N   0  0  0  0  0  0  0  0  0  0  0  0
   27.0496    2.7727   31.6043 N   0  0  0  0  0  0  0  0  0  0  0  0
   28.7463    1.3625   31.3776 N   0  0  0  0  0  0  0  0  0  0  0  0
   29.4927    5.6838   29.3802 C   0  0  0  0  0  0  0  0  0  0  0  0
   30.3616    7.3442   28.1663 C   0  0  0  0  0  0  0  0  0  0  0  0
   29.8880    5.2455   28.1210 C   0  0  0  0  0  0  0  0  0  0  0  0
   28.7704    3.4735   29.9830 C   0  0  0  0  0  0  0  0  0  0  0  0
   27.8859    0.7620   32.2684 C   0  0  0  0  0  0  0  0  0  0  0  0
   26.8404    1.6710   32.3920 C   0  0  0  0  0  0  0  0  0  0  0  0
   28.9292    4.8232   30.3324 C   0  0  0  0  0  0  0  0  0  0  0  0
   24.4802   12.1895   31.1806 C   0  0  0  0  0  0  0  0  0  0  0  0
   29.7214    3.8953   27.7545 C   0  0  0  0  0  0  0  0  0  0  0  0
   24.8146   11.2271   30.2064 C   0  0  0  0  0  0  0  0  0  0  0  0
   25.2989   12.3947   32.3867 C   0  0  0  0  0  0  0  0  0  0  0  0
   29.1429    3.0297   28.7061 C   0  0  0  0  0  0  0  0  0  0  0  0
   29.6044    7.9319   30.5145 C   0  0  0  0  0  0  0  0  0  0  0  0
   26.0263   10.3917   30.2791 C   0  0  0  0  0  0  0  0  0  0  0  0
   25.8709   13.4218   32.6958 O   0  0  0  0  0  0  0  0  0  0  0  0
   27.3052   10.9692   30.2920 C   0  0  0  0  0  0  0  0  0  0  0  0
   25.9354    8.9929   30.3279 C   0  0  0  0  0  0  0  0  0  0  0  0
   28.3584    8.7770   30.4068 C   0  0  0  0  0  0  0  0  0  0  0  0
   30.0434    0.8509   31.0010 C   0  0  0  0  0  0  0  0  0  0  0  0
   25.2966   11.3015   33.1674 O   0  0  0  0  0  0  0  0  0  0  0  0
   30.8623    8.6957   27.7689 C   0  0  0  0  0  0  0  0  0  0  0  0
   27.0836    8.1958   30.3912 C   0  0  0  0  0  0  0  0  0  0  0  0
   28.4544   10.1752   30.3645 C   0  0  0  0  0  0  0  0  0  0  0  0
   27.9195   -0.4501   32.9705 C   0  0  0  0  0  0  0  0  0  0  0  0
   25.7696    1.3805   33.2500 C   0  0  0  0  0  0  0  0  0  0  0  0
   23.3509   13.0106   31.0388 C   0  0  0  0  0  0  0  0  0  0  0  0
   23.9516   11.0990   29.1008 C   0  0  0  0  0  0  0  0  0  0  0  0
   30.0997    3.3653   26.4026 C   0  0  0  0  0  0  0  0  0  0  0  0
   32.3231    8.9241   28.1609 C   0  0  0  0  0  0  0  0  0  0  0  0
   26.8419   -0.7248   33.8205 C   0  0  0  0  0  0  0  0  0  0  0  0
   22.5162   12.8609   29.9331 C   0  0  0  0  0  0  0  0  0  0  0  0
   22.8139   11.9028   28.9674 C   0  0  0  0  0  0  0  0  0  0  0  0
   25.7827    0.1741   33.9602 C   0  0  0  0  0  0  0  0  0  0  0  0
   33.3005    8.0631   27.3706 C   0  0  0  0  0  0  0  0  0  0  0  0
   28.6121    5.1767   31.3089 H   0  0  0  0  0  0  0  0  0  0  0  0
   28.9693    1.9920   28.4262 H   0  0  0  0  0  0  0  0  0  0  0  0
   29.5702    7.3385   31.4344 H   0  0  0  0  0  0  0  0  0  0  0  0
   30.5037    8.5538   30.5848 H   0  0  0  0  0  0  0  0  0  0  0  0
   27.4184   12.0517   30.2445 H   0  0  0  0  0  0  0  0  0  0  0  0
   24.9600    8.5086   30.3290 H   0  0  0  0  0  0  0  0  0  0  0  0
   30.7373    1.6815   30.8551 H   0  0  0  0  0  0  0  0  0  0  0  0
   29.9305    0.2728   30.0808 H   0  0  0  0  0  0  0  0  0  0  0  0
   30.4328    0.2151   31.7998 H   0  0  0  0  0  0  0  0  0  0  0  0
   25.8610   11.5440   33.9297 H   0  0  0  0  0  0  0  0  0  0  0  0
   30.7519    8.8089   26.6832 H   0  0  0  0  0  0  0  0  0  0  0  0
   30.2422    9.4775   28.2152 H   0  0  0  0  0  0  0  0  0  0  0  0
   26.9621    7.1151   30.4324 H   0  0  0  0  0  0  0  0  0  0  0  0
   29.4251   10.6665   30.3864 H   0  0  0  0  0  0  0  0  0  0  0  0
   28.7378   -1.1537   32.8675 H   0  0  0  0  0  0  0  0  0  0  0  0
   24.9501    2.0839   33.3525 H   0  0  0  0  0  0  0  0  0  0  0  0
   23.1197   13.7583   31.7946 H   0  0  0  0  0  0  0  0  0  0  0  0
   24.1728   10.3731   28.3191 H   0  0  0  0  0  0  0  0  0  0  0  0
   29.1983    3.1469   25.8222 H   0  0  0  0  0  0  0  0  0  0  0  0
   30.6897    2.4490   26.5048 H   0  0  0  0  0  0  0  0  0  0  0  0
   30.7022    4.0883   25.8444 H   0  0  0  0  0  0  0  0  0  0  0  0
   32.4692    8.7408   29.2317 H   0  0  0  0  0  0  0  0  0  0  0  0
   32.5705    9.9776   27.9814 H   0  0  0  0  0  0  0  0  0  0  0  0
   26.8296   -1.6564   34.3834 H   0  0  0  0  0  0  0  0  0  0  0  0
   21.6350   13.4887   29.8258 H   0  0  0  0  0  0  0  0  0  0  0  0
   22.1664   11.7836   28.1017 H   0  0  0  0  0  0  0  0  0  0  0  0
   24.9573   -0.0623   34.6274 H   0  0  0  0  0  0  0  0  0  0  0  0
   33.1893    8.2308   26.2947 H   0  0  0  0  0  0  0  0  0  0  0  0
   33.1530    6.9975   27.5725 H   0  0  0  0  0  0  0  0  0  0  0  0
   34.3293    8.3136   27.6471 H   0  0  0  0  0  0  0  0  0  0  0  0
  2  6  1  0
  3  8  1  0
  4  1  2  0
  5  1  1  0
  6 12  2  0
  7  2  1  0
  8 14  2  0
  9  1  1  0
 10  5  1  0
 11  4  1  0
 12  9  1  0
 13 15  2  0
 14 17  1  0
 15 19  1  0
 16 13  1  0
 17  9  2  0
 18  2  1  0
 19 21  2  0
 20 16  2  0
 21 28  1  0
 22 27  2  0
 23 18  1  0
 24  5  1  0
 25 16  1  0
 26  7  1  0
 27 23  1  0
 28 23  2  0
 29 10  2  0
 30 11  2  0
 31 13  1  0
 32 15  1  0
 33 14  1  0
 34 26  1  0
 35 29  1  0
 36 37  1  0
 37 32  2  0
 38 30  1  0
 39 34  1  0
 10 11  1  0
  8  6  1  0
 35 38  2  0
  3  7  2  0
 19 22  1  0
 36 31  2  0
 12 40  1  0
 17 41  1  0
 18 42  1  0
 18 43  1  0
 21 44  1  0
 22 45  1  0
 24 46  1  0
 24 47  1  0
 24 48  1  0
 25 49  1  0
 26 50  1  0
 26 51  1  0
 27 52  1  0
 28 53  1  0
 29 54  1  0
 30 55  1  0
 31 56  1  0
 32 57  1  0
 33 58  1  0
 33 59  1  0
 33 60  1  0
 34 61  1  0
 34 62  1  0
 35 63  1  0
 36 64  1  0
 37 65  1  0
 38 66  1  0
 39 67  1  0
 39 68  1  0
 39 69  1  0
M  END
> <Uni-Dock RESULT> 
ENERGY=   -4.999  LOWER_BOUND=    6.380  UPPER_BOUND=   10.927
INTER + INTRA:          -4.999
INTER:                  -4.999
INTRA:                   0.000
UNBOUND:                 0.000

$$$$

     RDKit          3D

 69 74  0  0  0  0  0  0  0  0999 V2000
   28.6266   10.8004   27.0254 C   0  0  0  0  0  0  0  0  0  0  0  0
   27.0584   12.9050   22.7554 N   0  0  0  0  0  0  0  0  0  0  0  0
   26.3531   14.7612   23.7483 N   0  0  0  0  0  0  0  0  0  0  0  0
   29.7826   10.2221   26.7497 N   0  0  0  0  0  0  0  0  0  0  0  0
   28.0550   10.2162   28.1405 N   0  0  0  0  0  0  0  0  0  0  0  0
   27.3260   12.7387   24.1000 C   0  0  0  0  0  0  0  0  0  0  0  0
   26.4508   14.1345   22.5928 C   0  0  0  0  0  0  0  0  0  0  0  0
   26.8853   13.9187   24.6894 C   0  0  0  0  0  0  0  0  0  0  0  0
   28.0266   11.8730   26.2284 C   0  0  0  0  0  0  0  0  0  0  0  0
   28.9310    9.2787   28.6387 C   0  0  0  0  0  0  0  0  0  0  0  0
   29.9957    9.3034   27.7440 C   0  0  0  0  0  0  0  0  0  0  0  0
   27.9025   11.6983   24.8416 C   0  0  0  0  0  0  0  0  0  0  0  0
   32.5057   11.9407   17.5253 C   0  0  0  0  0  0  0  0  0  0  0  0
   27.0167   14.1104   26.0790 C   0  0  0  0  0  0  0  0  0  0  0  0
   32.1251   12.7715   18.5987 C   0  0  0  0  0  0  0  0  0  0  0  0
   31.7274   10.7496   17.1476 C   0  0  0  0  0  0  0  0  0  0  0  0
   27.6080   13.0703   26.8261 C   0  0  0  0  0  0  0  0  0  0  0  0
   27.2887   11.9047   21.7217 C   0  0  0  0  0  0  0  0  0  0  0  0
   30.9013   12.5572   19.3912 C   0  0  0  0  0  0  0  0  0  0  0  0
   31.1834   10.5615   16.0770 O   0  0  0  0  0  0  0  0  0  0  0  0
   29.6339   12.5845   18.7894 C   0  0  0  0  0  0  0  0  0  0  0  0
   30.9687   12.3288   20.7734 C   0  0  0  0  0  0  0  0  0  0  0  0
   28.5458   12.1559   20.9248 C   0  0  0  0  0  0  0  0  0  0  0  0
   26.7382   10.4869   28.6685 C   0  0  0  0  0  0  0  0  0  0  0  0
   31.7337    9.8333   18.1300 O   0  0  0  0  0  0  0  0  0  0  0  0
   25.9626   14.6908   21.2939 C   0  0  0  0  0  0  0  0  0  0  0  0
   29.8089   12.1306   21.5306 C   0  0  0  0  0  0  0  0  0  0  0  0
   28.4735   12.3775   19.5423 C   0  0  0  0  0  0  0  0  0  0  0  0
   28.8969    8.4238   29.7483 C   0  0  0  0  0  0  0  0  0  0  0  0
   31.0866    8.4447   27.9437 C   0  0  0  0  0  0  0  0  0  0  0  0
   33.6446   12.2194   16.7543 C   0  0  0  0  0  0  0  0  0  0  0  0
   32.9520   13.8743   18.8879 C   0  0  0  0  0  0  0  0  0  0  0  0
   26.5885   15.3707   26.7718 C   0  0  0  0  0  0  0  0  0  0  0  0
   24.5185   14.2919   20.9850 C   0  0  0  0  0  0  0  0  0  0  0  0
   29.9945    7.5752   29.9335 C   0  0  0  0  0  0  0  0  0  0  0  0
   34.4430   13.3186   17.0642 C   0  0  0  0  0  0  0  0  0  0  0  0
   34.0993   14.1426   18.1329 C   0  0  0  0  0  0  0  0  0  0  0  0
   31.0733    7.5831   29.0471 C   0  0  0  0  0  0  0  0  0  0  0  0
   23.5025   14.9360   21.9201 C   0  0  0  0  0  0  0  0  0  0  0  0
   28.2551   10.7853   24.3712 H   0  0  0  0  0  0  0  0  0  0  0  0
   27.7546   13.2172   27.8948 H   0  0  0  0  0  0  0  0  0  0  0  0
   27.3399   10.9165   22.1913 H   0  0  0  0  0  0  0  0  0  0  0  0
   26.4031   11.8913   21.0767 H   0  0  0  0  0  0  0  0  0  0  0  0
   29.5387   12.7697   17.7200 H   0  0  0  0  0  0  0  0  0  0  0  0
   31.9349   12.2915   21.2744 H   0  0  0  0  0  0  0  0  0  0  0  0
   26.0552   10.7208   27.8490 H   0  0  0  0  0  0  0  0  0  0  0  0
   26.8131   11.3267   29.3635 H   0  0  0  0  0  0  0  0  0  0  0  0
   26.3618    9.6017   29.1866 H   0  0  0  0  0  0  0  0  0  0  0  0
   31.1969    9.0940   17.7785 H   0  0  0  0  0  0  0  0  0  0  0  0
   26.0422   15.7846   21.3251 H   0  0  0  0  0  0  0  0  0  0  0  0
   26.6097   14.3675   20.4744 H   0  0  0  0  0  0  0  0  0  0  0  0
   29.9123   11.9521   22.5992 H   0  0  0  0  0  0  0  0  0  0  0  0
   27.5127   12.3932   19.0314 H   0  0  0  0  0  0  0  0  0  0  0  0
   28.0634    8.4116   30.4415 H   0  0  0  0  0  0  0  0  0  0  0  0
   31.9211    8.4573   27.2509 H   0  0  0  0  0  0  0  0  0  0  0  0
   33.9119   11.5742   15.9199 H   0  0  0  0  0  0  0  0  0  0  0  0
   32.6944   14.5482   19.7041 H   0  0  0  0  0  0  0  0  0  0  0  0
   27.4680   15.9422   27.0831 H   0  0  0  0  0  0  0  0  0  0  0  0
   25.9856   15.1336   27.6541 H   0  0  0  0  0  0  0  0  0  0  0  0
   25.9824   16.0017   26.1145 H   0  0  0  0  0  0  0  0  0  0  0  0
   24.4014   13.2028   21.0245 H   0  0  0  0  0  0  0  0  0  0  0  0
   24.2846   14.6004   19.9587 H   0  0  0  0  0  0  0  0  0  0  0  0
   30.0071    6.8962   30.7842 H   0  0  0  0  0  0  0  0  0  0  0  0
   35.3316   13.5311   16.4748 H   0  0  0  0  0  0  0  0  0  0  0  0
   34.7182   15.0029   18.3775 H   0  0  0  0  0  0  0  0  0  0  0  0
   31.9141    6.9137   29.2127 H   0  0  0  0  0  0  0  0  0  0  0  0
   23.5844   16.0272   21.8959 H   0  0  0  0  0  0  0  0  0  0  0  0
   23.6370   14.6010   22.9533 H   0  0  0  0  0  0  0  0  0  0  0  0
   22.4872   14.6663   21.6136 H   0  0  0  0  0  0  0  0  0  0  0  0
  2  6  1  0
  3  8  1  0
  4  1  2  0
  5  1  1  0
  6 12  2  0
  7  2  1  0
  8 14  2  0
  9  1  1  0
 10  5  1  0
 11  4  1  0
 12  9  1  0
 13 15  2  0
 14 17  1  0
 15 19  1  0
 16 13  1  0
 17  9  2  0
 18  2  1  0
 19 21  2  0
 20 16  2  0
 21 28  1  0
 22 27  2  0
 23 18  1  0
 24  5  1  0
 25 16  1  0
 26  7  1  0
 27 23  1  0
 28 23  2  0
 29 10  2  0
 30 11  2  0
 31 13  1  0
 32 15  1  0
 33 14  1  0
 34 26  1  0
 35 29  1  0
 36 37  1  0
 37 32  2  0
 38 30  1  0
 39 34  1  0
 10 11  1  0
  8  6  1  0
 35 38  2  0
  3  7  2  0
 19 22  1  0
 36 31  2  0
 12 40  1  0
 17 41  1  0
 18 42  1  0
 18 43  1  0
 21 44  1  0
 22 45  1  0
 24 46  1  0
 24 47  1  0
 24 48  1  0
 25 49  1  0
 26 50  1  0
 26 51  1  0
 27 52  1  0
 28 53  1  0
 29 54  1  0
 30 55  1  0
 31 56  1  0
 32 57  1  0
 33 58  1  0
 33 59  1  0
 33 60  1  0
 34 61  1  0
 34 62  1  0
 35 63  1  0
 36 64  1  0
 37 65  1  0
 38 66  1  0
 39 67  1  0
 39 68  1  0
 39 69  1  0
M  END
> <Uni-Dock RESULT> 
ENERGY=   -4.503  LOWER_BOUND=    4.089  UPPER_BOUND=    9.901
INTER + INTRA:          -4.503
INTER:                  -4.503
INTRA:                   0.000
UNBOUND:                 0.000

$$$$

     RDKit          3D

 69 74  0  0  0  0  0  0  0  0999 V2000
   25.5177   11.9003   33.3268 C   0  0  0  0  0  0  0  0  0  0  0  0
   23.2853    7.7909   31.5239 N   0  0  0  0  0  0  0  0  0  0  0  0
   22.3605    8.8571   29.8102 N   0  0  0  0  0  0  0  0  0  0  0  0
   26.7286   11.5280   33.7037 N   0  0  0  0  0  0  0  0  0  0  0  0
   25.1423   13.0502   33.9963 N   0  0  0  0  0  0  0  0  0  0  0  0
   23.6829    9.1083   31.6401 C   0  0  0  0  0  0  0  0  0  0  0  0
   22.4696    7.6905   30.4140 C   0  0  0  0  0  0  0  0  0  0  0  0
   23.0992    9.7438   30.5495 C   0  0  0  0  0  0  0  0  0  0  0  0
   24.6853   11.1651   32.3717 C   0  0  0  0  0  0  0  0  0  0  0  0
   26.1996   13.4673   34.7726 C   0  0  0  0  0  0  0  0  0  0  0  0
   27.1707   12.4921   34.5716 C   0  0  0  0  0  0  0  0  0  0  0  0
   24.4824    9.7905   32.5676 C   0  0  0  0  0  0  0  0  0  0  0  0
   28.3842    2.1380   31.5720 C   0  0  0  0  0  0  0  0  0  0  0  0
   23.3066   11.1209   30.3356 C   0  0  0  0  0  0  0  0  0  0  0  0
   27.9564    3.2473   30.8146 C   0  0  0  0  0  0  0  0  0  0  0  0
   27.7887    1.8093   32.8775 C   0  0  0  0  0  0  0  0  0  0  0  0
   24.1212   11.8073   31.2603 C   0  0  0  0  0  0  0  0  0  0  0  0
   23.5968    6.7311   32.4736 C   0  0  0  0  0  0  0  0  0  0  0  0
   26.8527    4.1311   31.2294 C   0  0  0  0  0  0  0  0  0  0  0  0
   27.2005    0.7827   33.1564 O   0  0  0  0  0  0  0  0  0  0  0  0
   25.5548    3.6313   31.4162 C   0  0  0  0  0  0  0  0  0  0  0  0
   27.0669    5.5011   31.4403 C   0  0  0  0  0  0  0  0  0  0  0  0
   24.7268    5.8407   32.0167 C   0  0  0  0  0  0  0  0  0  0  0  0
   23.8450   13.6832   33.9491 C   0  0  0  0  0  0  0  0  0  0  0  0
   28.0262    2.7778   33.7777 O   0  0  0  0  0  0  0  0  0  0  0  0
   21.7936    6.4404   29.9501 C   0  0  0  0  0  0  0  0  0  0  0  0
   26.0205    6.3449   31.8286 C   0  0  0  0  0  0  0  0  0  0  0  0
   24.5089    4.4707   31.8132 C   0  0  0  0  0  0  0  0  0  0  0  0
   26.3972   14.5665   35.6188 C   0  0  0  0  0  0  0  0  0  0  0  0
   28.4022   12.5957   35.2348 C   0  0  0  0  0  0  0  0  0  0  0  0
   29.3956    1.2829   31.1078 C   0  0  0  0  0  0  0  0  0  0  0  0
   28.6075    3.4830   29.5881 C   0  0  0  0  0  0  0  0  0  0  0  0
   22.7301   11.8593   29.1635 C   0  0  0  0  0  0  0  0  0  0  0  0
   20.4167    6.2415   30.5861 C   0  0  0  0  0  0  0  0  0  0  0  0
   27.6325   14.6552   36.2710 C   0  0  0  0  0  0  0  0  0  0  0  0
   30.0208    1.5415   29.8896 C   0  0  0  0  0  0  0  0  0  0  0  0
   29.6301    2.6432   29.1327 C   0  0  0  0  0  0  0  0  0  0  0  0
   28.6210   13.6869   36.0842 C   0  0  0  0  0  0  0  0  0  0  0  0
   19.3848    7.2608   30.1196 C   0  0  0  0  0  0  0  0  0  0  0  0
   24.9443    9.2836   33.4095 H   0  0  0  0  0  0  0  0  0  0  0  0
   24.3255   12.8628   31.0887 H   0  0  0  0  0  0  0  0  0  0  0  0
   23.8498    7.1840   33.4382 H   0  0  0  0  0  0  0  0  0  0  0  0
   22.6776    6.1576   32.6365 H   0  0  0  0  0  0  0  0  0  0  0  0
   25.3453    2.5748   31.2518 H   0  0  0  0  0  0  0  0  0  0  0  0
   28.0625    5.9241   31.3141 H   0  0  0  0  0  0  0  0  0  0  0  0
   23.0695   12.9227   33.8348 H   0  0  0  0  0  0  0  0  0  0  0  0
   23.8333   14.3796   33.1073 H   0  0  0  0  0  0  0  0  0  0  0  0
   23.6643   14.2193   34.8838 H   0  0  0  0  0  0  0  0  0  0  0  0
   27.5945    2.4612   34.5973 H   0  0  0  0  0  0  0  0  0  0  0  0
   21.6913    6.4775   28.8584 H   0  0  0  0  0  0  0  0  0  0  0  0
   22.4184    5.5689   30.1621 H   0  0  0  0  0  0  0  0  0  0  0  0
   26.2368    7.3999   31.9850 H   0  0  0  0  0  0  0  0  0  0  0  0
   23.5216    4.0372   31.9600 H   0  0  0  0  0  0  0  0  0  0  0  0
   25.6353   15.3230   35.7692 H   0  0  0  0  0  0  0  0  0  0  0  0
   29.1652   11.8395   35.0839 H   0  0  0  0  0  0  0  0  0  0  0  0
   29.6998    0.4229   31.7009 H   0  0  0  0  0  0  0  0  0  0  0  0
   28.3065    4.3245   28.9652 H   0  0  0  0  0  0  0  0  0  0  0  0
   23.5235   12.1070   28.4520 H   0  0  0  0  0  0  0  0  0  0  0  0
   22.2473   12.7837   29.4965 H   0  0  0  0  0  0  0  0  0  0  0  0
   21.9767   11.2590   28.6445 H   0  0  0  0  0  0  0  0  0  0  0  0
   20.4869    6.2779   31.6794 H   0  0  0  0  0  0  0  0  0  0  0  0
   20.0537    5.2403   30.3234 H   0  0  0  0  0  0  0  0  0  0  0  0
   27.8261   15.4946   36.9365 H   0  0  0  0  0  0  0  0  0  0  0  0
   30.8117    0.8864   29.5324 H   0  0  0  0  0  0  0  0  0  0  0  0
   30.1138    2.8479   28.1804 H   0  0  0  0  0  0  0  0  0  0  0  0
   29.5723   13.7782   36.6027 H   0  0  0  0  0  0  0  0  0  0  0  0
   19.2807    7.2427   29.0301 H   0  0  0  0  0  0  0  0  0  0  0  0
   19.6551    8.2765   30.4252 H   0  0  0  0  0  0  0  0  0  0  0  0
   18.4078    7.0321   30.5563 H   0  0  0  0  0  0  0  0  0  0  0  0
  2  6  1  0
  3  8  1  0
  4  1  2  0
  5  1  1  0
  6 12  2  0
  7  2  1  0
  8 14  2  0
  9  1  1  0
 10  5  1  0
 11  4  1  0
 12  9  1  0
 13 15  2  0
 14 17  1  0
 15 19  1  0
 16 13  1  0
 17  9  2  0
 18  2  1  0
 19 21  2  0
 20 16  2  0
 21 28  1  0
 22 27  2  0
 23 18  1  0
 24  5  1  0
 25 16  1  0
 26  7  1  0
 27 23  1  0
 28 23  2  0
 29 10  2  0
 30 11  2  0
 31 13  1  0
 32 15  1  0
 33 14  1  0
 34 26  1  0
 35 29  1  0
 36 37  1  0
 37 32  2  0
 38 30  1  0
 39 34  1  0
 10 11  1  0
  8  6  1  0
 35 38  2  0
  3  7  2  0
 19 22  1  0
 36 31  2  0
 12 40  1  0
 17 41  1  0
 18 42  1  0
 18 43  1  0
 21 44  1  0
 22 45  1  0
 24 46  1  0
 24 47  1  0
 24 48  1  0
 25 49  1  0
 26 50  1  0
 26 51  1  0
 27 52  1  0
 28 53  1  0
 29 54  1  0
 30 55  1  0
 31 56  1  0
 32 57  1  0
 33 58  1  0
 33 59  1  0
 33 60  1  0
 34 61  1  0
 34 62  1  0
 35 63  1  0
 36 64  1  0
 37 65  1  0
 38 66  1  0
 39 67  1  0
 39 68  1  0
 39 69  1  0
M  END
> <Uni-Dock RESULT> 
ENERGY=   -4.404  LOWER_BOUND=    7.603  UPPER_BOUND=   10.914
INTER + INTRA:          -4.404
INTER:                  -4.404
INTRA:                   0.000
UNBOUND:                 0.000

$$$$

     RDKit          3D

 69 74  0  0  0  0  0  0  0  0999 V2000
   31.3670   12.7100   28.2875 C   0  0  0  0  0  0  0  0  0  0  0  0
   27.1782   10.1350   29.2592 N   0  0  0  0  0  0  0  0  0  0  0  0
   26.2203   10.6643   27.3276 N   0  0  0  0  0  0  0  0  0  0  0  0
   32.3696   11.9556   28.7032 N   0  0  0  0  0  0  0  0  0  0  0  0
   31.7567   14.0355   28.2370 N   0  0  0  0  0  0  0  0  0  0  0  0
   28.0885   10.9309   28.5921 C   0  0  0  0  0  0  0  0  0  0  0  0
   26.0547   10.0183   28.4646 C   0  0  0  0  0  0  0  0  0  0  0  0
   27.4655   11.2339   27.3863 C   0  0  0  0  0  0  0  0  0  0  0  0
   30.0274   12.2074   27.9741 C   0  0  0  0  0  0  0  0  0  0  0  0
   33.0928   14.1096   28.5594 C   0  0  0  0  0  0  0  0  0  0  0  0
   33.4425   12.7953   28.8507 C   0  0  0  0  0  0  0  0  0  0  0  0
   29.3692   11.4006   28.9148 C   0  0  0  0  0  0  0  0  0  0  0  0
   29.1931    3.3234   31.9976 C   0  0  0  0  0  0  0  0  0  0  0  0
   28.1221   12.0323   26.4289 C   0  0  0  0  0  0  0  0  0  0  0  0
   29.0125    4.0315   30.7922 C   0  0  0  0  0  0  0  0  0  0  0  0
   29.0252    3.9657   33.3116 C   0  0  0  0  0  0  0  0  0  0  0  0
   29.4161   12.4958   26.7456 C   0  0  0  0  0  0  0  0  0  0  0  0
   27.3498    9.6079   30.6064 C   0  0  0  0  0  0  0  0  0  0  0  0
   28.5904    5.4424   30.7398 C   0  0  0  0  0  0  0  0  0  0  0  0
   28.2136    3.6535   34.1609 O   0  0  0  0  0  0  0  0  0  0  0  0
   27.3624    5.8523   31.2814 C   0  0  0  0  0  0  0  0  0  0  0  0
   29.4016    6.4153   30.1376 C   0  0  0  0  0  0  0  0  0  0  0  0
   27.7763    8.1601   30.6253 C   0  0  0  0  0  0  0  0  0  0  0  0
   30.9049   15.1679   27.9572 C   0  0  0  0  0  0  0  0  0  0  0  0
   29.9393    4.9317   33.5006 O   0  0  0  0  0  0  0  0  0  0  0  0
   24.8132    9.2699   28.8300 C   0  0  0  0  0  0  0  0  0  0  0  0
   29.0020    7.7551   30.0807 C   0  0  0  0  0  0  0  0  0  0  0  0
   26.9646    7.1923   31.2340 C   0  0  0  0  0  0  0  0  0  0  0  0
   34.0071   15.1686   28.6348 C   0  0  0  0  0  0  0  0  0  0  0  0
   34.7576   12.4996   29.2383 C   0  0  0  0  0  0  0  0  0  0  0  0
   29.5315    1.9615   32.0010 C   0  0  0  0  0  0  0  0  0  0  0  0
   29.2177    3.3260   29.5906 C   0  0  0  0  0  0  0  0  0  0  0  0
   27.5177   12.3711   25.0979 C   0  0  0  0  0  0  0  0  0  0  0  0
   23.8013   10.1347   29.5837 C   0  0  0  0  0  0  0  0  0  0  0  0
   35.3154   14.8553   29.0212 C   0  0  0  0  0  0  0  0  0  0  0  0
   29.7272    1.2900   30.7958 C   0  0  0  0  0  0  0  0  0  0  0  0
   29.5749    1.9730   29.5918 C   0  0  0  0  0  0  0  0  0  0  0  0
   35.6876   13.5429   29.3189 C   0  0  0  0  0  0  0  0  0  0  0  0
   23.1798   11.2253   28.7202 C   0  0  0  0  0  0  0  0  0  0  0  0
   29.8530   11.1488   29.8538 H   0  0  0  0  0  0  0  0  0  0  0  0
   29.9548   13.0802   26.0016 H   0  0  0  0  0  0  0  0  0  0  0  0
   28.0909   10.2186   31.1331 H   0  0  0  0  0  0  0  0  0  0  0  0
   26.4021    9.7518   31.1368 H   0  0  0  0  0  0  0  0  0  0  0  0
   26.6990    5.1249   31.7481 H   0  0  0  0  0  0  0  0  0  0  0  0
   30.3656    6.1371   29.7144 H   0  0  0  0  0  0  0  0  0  0  0  0
   29.9033   14.9794   28.3494 H   0  0  0  0  0  0  0  0  0  0  0  0
   30.8768   15.3172   26.8753 H   0  0  0  0  0  0  0  0  0  0  0  0
   31.3043   16.0576   28.4499 H   0  0  0  0  0  0  0  0  0  0  0  0
   29.7405    5.2857   34.3915 H   0  0  0  0  0  0  0  0  0  0  0  0
   24.3522    8.8803   27.9139 H   0  0  0  0  0  0  0  0  0  0  0  0
   25.0613    8.3940   29.4353 H   0  0  0  0  0  0  0  0  0  0  0  0
   29.6678    8.4743   29.6075 H   0  0  0  0  0  0  0  0  0  0  0  0
   26.0106    7.4674   31.6793 H   0  0  0  0  0  0  0  0  0  0  0  0
   33.7265   16.1903   28.4049 H   0  0  0  0  0  0  0  0  0  0  0  0
   35.0390   11.4773   29.4674 H   0  0  0  0  0  0  0  0  0  0  0  0
   29.6506    1.4296   32.9428 H   0  0  0  0  0  0  0  0  0  0  0  0
   29.0832    3.8298   28.6341 H   0  0  0  0  0  0  0  0  0  0  0  0
   28.0315   11.8206   24.3041 H   0  0  0  0  0  0  0  0  0  0  0  0
   27.6053   13.4447   24.9027 H   0  0  0  0  0  0  0  0  0  0  0  0
   26.4549   12.1126   25.0643 H   0  0  0  0  0  0  0  0  0  0  0  0
   24.2657   10.5955   30.4632 H   0  0  0  0  0  0  0  0  0  0  0  0
   22.9960    9.4869   29.9513 H   0  0  0  0  0  0  0  0  0  0  0  0
   36.0564   15.6496   29.0911 H   0  0  0  0  0  0  0  0  0  0  0  0
   29.9994    0.2373   30.7957 H   0  0  0  0  0  0  0  0  0  0  0  0
   29.7247    1.4526   28.6486 H   0  0  0  0  0  0  0  0  0  0  0  0
   36.7104   13.3254   29.6172 H   0  0  0  0  0  0  0  0  0  0  0  0
   22.6956   10.7974   27.8366 H   0  0  0  0  0  0  0  0  0  0  0  0
   23.9282   11.9515   28.3879 H   0  0  0  0  0  0  0  0  0  0  0  0
   22.4210   11.7690   29.2914 H   0  0  0  0  0  0  0  0  0  0  0  0
  2  6  1  0
  3  8  1  0
  4  1  2  0
  5  1  1  0
  6 12  2  0
  7  2  1  0
  8 14  2  0
  9  1  1  0
 10  5  1  0
 11  4  1  0
 12  9  1  0
 13 15  2  0
 14 17  1  0
 15 19  1  0
 16 13  1  0
 17  9  2  0
 18  2  1  0
 19 21  2  0
 20 16  2  0
 21 28  1  0
 22 27  2  0
 23 18  1  0
 24  5  1  0
 25 16  1  0
 26  7  1  0
 27 23  1  0
 28 23  2  0
 29 10  2  0
 30 11  2  0
 31 13  1  0
 32 15  1  0
 33 14  1  0
 34 26  1  0
 35 29  1  0
 36 37  1  0
 37 32  2  0
 38 30  1  0
 39 34  1  0
 10 11  1  0
  8  6  1  0
 35 38  2  0
  3  7  2  0
 19 22  1  0
 36 31  2  0
 12 40  1  0
 17 41  1  0
 18 42  1  0
 18 43  1  0
 21 44  1  0
 22 45  1  0
 24 46  1  0
 24 47  1  0
 24 48  1  0
 25 49  1  0
 26 50  1  0
 26 51  1  0
 27 52  1  0
 28 53  1  0
 29 54  1  0
 30 55  1  0
 31 56  1  0
 32 57  1  0
 33 58  1  0
 33 59  1  0
 33 60  1  0
 34 61  1  0
 34 62  1  0
 35 63  1  0
 36 64  1  0
 37 65  1  0
 38 66  1  0
 39 67  1  0
 39 68  1  0
 39 69  1  0
M  END
> <Uni-Dock RESULT> 
ENERGY=   -4.337  LOWER_BOUND=    4.907  UPPER_BOUND=    7.497
INTER + INTRA:          -4.337
INTER:                  -4.337
INTRA:                   0.000
UNBOUND:                 0.000

$$$$

     RDKit          3D

 69 74  0  0  0  0  0  0  0  0999 V2000
   30.6477   12.1775   24.5320 C   0  0  0  0  0  0  0  0  0  0  0  0
   26.2270   14.4969   24.0855 N   0  0  0  0  0  0  0  0  0  0  0  0
   25.7667   13.5741   22.1194 N   0  0  0  0  0  0  0  0  0  0  0  0
   30.7366   11.7907   25.7927 N   0  0  0  0  0  0  0  0  0  0  0  0
   31.9086   12.2767   23.9737 N   0  0  0  0  0  0  0  0  0  0  0  0
   27.3040   13.6851   23.7882 C   0  0  0  0  0  0  0  0  0  0  0  0
   25.3314   14.4138   23.0375 C   0  0  0  0  0  0  0  0  0  0  0  0
   26.9801   13.1152   22.5618 C   0  0  0  0  0  0  0  0  0  0  0  0
   29.3911   12.4974   23.8508 C   0  0  0  0  0  0  0  0  0  0  0  0
   32.8315   11.8545   24.9035 C   0  0  0  0  0  0  0  0  0  0  0  0
   32.0674   11.5644   26.0289 C   0  0  0  0  0  0  0  0  0  0  0  0
   28.5004   13.3953   24.4587 C   0  0  0  0  0  0  0  0  0  0  0  0
   22.5725   13.8821   30.7356 C   0  0  0  0  0  0  0  0  0  0  0  0
   27.8607   12.2024   21.9483 C   0  0  0  0  0  0  0  0  0  0  0  0
   22.8340   13.1852   29.5384 C   0  0  0  0  0  0  0  0  0  0  0  0
   23.1628   15.2016   31.0142 C   0  0  0  0  0  0  0  0  0  0  0  0
   29.0596   11.8991   22.6268 C   0  0  0  0  0  0  0  0  0  0  0  0
   26.1215   15.3604   25.2540 C   0  0  0  0  0  0  0  0  0  0  0  0
   23.6642   13.7319   28.4506 C   0  0  0  0  0  0  0  0  0  0  0  0
   22.5490   16.2349   31.1961 O   0  0  0  0  0  0  0  0  0  0  0  0
   23.3110   14.9229   27.7977 C   0  0  0  0  0  0  0  0  0  0  0  0
   24.8275   13.0710   28.0300 C   0  0  0  0  0  0  0  0  0  0  0  0
   25.2605   14.7746   26.3467 C   0  0  0  0  0  0  0  0  0  0  0  0
   32.2258   12.7928   22.6625 C   0  0  0  0  0  0  0  0  0  0  0  0
   24.5007   15.1254   31.1078 O   0  0  0  0  0  0  0  0  0  0  0  0
   24.0441   15.1677   22.9407 C   0  0  0  0  0  0  0  0  0  0  0  0
   25.6155   13.5836   26.9936 C   0  0  0  0  0  0  0  0  0  0  0  0
   24.1017   15.4425   26.7676 C   0  0  0  0  0  0  0  0  0  0  0  0
   34.2250   11.7104   24.8793 C   0  0  0  0  0  0  0  0  0  0  0  0
   32.6997   11.1098   27.1954 C   0  0  0  0  0  0  0  0  0  0  0  0
   21.7219   13.3524   31.7181 C   0  0  0  0  0  0  0  0  0  0  0  0
   22.2340   11.9206   29.3818 C   0  0  0  0  0  0  0  0  0  0  0  0
   27.5575   11.5306   20.6413 C   0  0  0  0  0  0  0  0  0  0  0  0
   24.2080   16.5352   22.2752 C   0  0  0  0  0  0  0  0  0  0  0  0
   34.8393   11.2538   26.0512 C   0  0  0  0  0  0  0  0  0  0  0  0
   21.1420   12.0988   31.5343 C   0  0  0  0  0  0  0  0  0  0  0  0
   21.4016   11.3817   30.3691 C   0  0  0  0  0  0  0  0  0  0  0  0
   34.0914   10.9576   27.1924 C   0  0  0  0  0  0  0  0  0  0  0  0
   24.5474   16.4466   20.7925 C   0  0  0  0  0  0  0  0  0  0  0  0
   28.7396   13.8357   25.4220 H   0  0  0  0  0  0  0  0  0  0  0  0
   29.7334   11.1654   22.1875 H   0  0  0  0  0  0  0  0  0  0  0  0
   27.1273   15.5561   25.6408 H   0  0  0  0  0  0  0  0  0  0  0  0
   25.7317   16.3258   24.9129 H   0  0  0  0  0  0  0  0  0  0  0  0
   22.4088   15.4603   28.0878 H   0  0  0  0  0  0  0  0  0  0  0  0
   25.1389   12.1489   28.5187 H   0  0  0  0  0  0  0  0  0  0  0  0
   31.5242   13.5881   22.4015 H   0  0  0  0  0  0  0  0  0  0  0  0
   32.1647   11.9703   21.9459 H   0  0  0  0  0  0  0  0  0  0  0  0
   33.2342   13.2133   22.6681 H   0  0  0  0  0  0  0  0  0  0  0  0
   24.7856   16.0435   31.2933 H   0  0  0  0  0  0  0  0  0  0  0  0
   23.3239   14.5669   22.3716 H   0  0  0  0  0  0  0  0  0  0  0  0
   23.6048   15.2995   23.9330 H   0  0  0  0  0  0  0  0  0  0  0  0
   26.5119   13.0376   26.7059 H   0  0  0  0  0  0  0  0  0  0  0  0
   23.7973   16.3764   26.2992 H   0  0  0  0  0  0  0  0  0  0  0  0
   34.8131   11.9378   23.9973 H   0  0  0  0  0  0  0  0  0  0  0  0
   32.1115   10.8813   28.0777 H   0  0  0  0  0  0  0  0  0  0  0  0
   21.5207   13.9140   32.6281 H   0  0  0  0  0  0  0  0  0  0  0  0
   22.4018   11.3479   28.4704 H   0  0  0  0  0  0  0  0  0  0  0  0
   27.3270   10.4743   20.8097 H   0  0  0  0  0  0  0  0  0  0  0  0
   28.4164   11.6058   19.9668 H   0  0  0  0  0  0  0  0  0  0  0  0
   26.7013   11.9949   20.1426 H   0  0  0  0  0  0  0  0  0  0  0  0
   24.9801   17.1231   22.7847 H   0  0  0  0  0  0  0  0  0  0  0  0
   23.2662   17.0878   22.3795 H   0  0  0  0  0  0  0  0  0  0  0  0
   35.9203   11.1275   26.0732 H   0  0  0  0  0  0  0  0  0  0  0  0
   20.4907   11.6816   32.2985 H   0  0  0  0  0  0  0  0  0  0  0  0
   20.9497   10.4036   30.2203 H   0  0  0  0  0  0  0  0  0  0  0  0
   34.5924   10.6048   28.0907 H   0  0  0  0  0  0  0  0  0  0  0  0
   23.7882   15.8744   20.2501 H   0  0  0  0  0  0  0  0  0  0  0  0
   25.5206   15.9730   20.6296 H   0  0  0  0  0  0  0  0  0  0  0  0
   24.5898   17.4497   20.3570 H   0  0  0  0  0  0  0  0  0  0  0  0
  2  6  1  0
  3  8  1  0
  4  1  2  0
  5  1  1  0
  6 12  2  0
  7  2  1  0
  8 14  2  0
  9  1  1  0
 10  5  1  0
 11  4  1  0
 12  9  1  0
 13 15  2  0
 14 17  1  0
 15 19  1  0
 16 13  1  0
 17  9  2  0
 18  2  1  0
 19 21  2  0
 20 16  2  0
 21 28  1  0
 22 27  2  0
 23 18  1  0
 24  5  1  0
 25 16  1  0
 26  7  1  0
 27 23  1  0
 28 23  2  0
 29 10  2  0
 30 11  2  0
 31 13  1  0
 32 15  1  0
 33 14  1  0
 34 26  1  0
 35 29  1  0
 36 37  1  0
 37 32  2  0
 38 30  1  0
 39 34  1  0
 10 11  1  0
  8  6  1  0
 35 38  2  0
  3  7  2  0
 19 22  1  0
 36 31  2  0
 12 40  1  0
 17 41  1  0
 18 42  1  0
 18 43  1  0
 21 44  1  0
 22 45  1  0
 24 46  1  0
 24 47  1  0
 24 48  1  0
 25 49  1  0
 26 50  1  0
 26 51  1  0
 27 52  1  0
 28 53  1  0
 29 54  1  0
 30 55  1  0
 31 56  1  0
 32 57  1  0
 33 58  1  0
 33 59  1  0
 33 60  1  0
 34 61  1  0
 34 62  1  0
 35 63  1  0
 36 64  1  0
 37 65  1  0
 38 66  1  0
 39 67  1  0
 39 68  1  0
 39 69  1  0
M  END
> <Uni-Dock RESULT> 
ENERGY=   -4.272  LOWER_BOUND=    4.073  UPPER_BOUND=    5.296
INTER + INTRA:          -4.272
INTER:                  -4.272
INTRA:                   0.000
UNBOUND:                 0.000

$$$$

     RDKit          3D

 69 74  0  0  0  0  0  0  0  0999 V2000
   29.4670   12.4511   20.9508 C   0  0  0  0  0  0  0  0  0  0  0  0
   28.2941   14.5680   25.3399 N   0  0  0  0  0  0  0  0  0  0  0  0
   26.9681   16.0954   24.4249 N   0  0  0  0  0  0  0  0  0  0  0  0
   29.4530   11.1453   21.1547 N   0  0  0  0  0  0  0  0  0  0  0  0
   30.2519   12.7540   19.8537 N   0  0  0  0  0  0  0  0  0  0  0  0
   28.3249   14.3286   23.9801 C   0  0  0  0  0  0  0  0  0  0  0  0
   27.4768   15.6592   25.5600 C   0  0  0  0  0  0  0  0  0  0  0  0
   27.4783   15.2906   23.4398 C   0  0  0  0  0  0  0  0  0  0  0  0
   28.7835   13.4290   21.8005 C   0  0  0  0  0  0  0  0  0  0  0  0
   30.6881   11.5760   19.2913 C   0  0  0  0  0  0  0  0  0  0  0  0
   30.1769   10.5920   20.1310 C   0  0  0  0  0  0  0  0  0  0  0  0
   28.9904   13.3832   23.1877 C   0  0  0  0  0  0  0  0  0  0  0  0
   26.6466    9.0008   30.2642 C   0  0  0  0  0  0  0  0  0  0  0  0
   27.2529   15.3379   22.0499 C   0  0  0  0  0  0  0  0  0  0  0  0
   26.0851    9.7769   29.2300 C   0  0  0  0  0  0  0  0  0  0  0  0
   28.0602    9.1283   30.6549 C   0  0  0  0  0  0  0  0  0  0  0  0
   27.9114   14.3796   21.2512 C   0  0  0  0  0  0  0  0  0  0  0  0
   29.0752   13.8504   26.3385 C   0  0  0  0  0  0  0  0  0  0  0  0
   26.8372   10.8100   28.4962 C   0  0  0  0  0  0  0  0  0  0  0  0
   28.4718    9.4668   31.7474 O   0  0  0  0  0  0  0  0  0  0  0  0
   27.3890   11.9152   29.1620 C   0  0  0  0  0  0  0  0  0  0  0  0
   27.0148   10.7223   27.1077 C   0  0  0  0  0  0  0  0  0  0  0  0
   28.2750   12.8042   27.0758 C   0  0  0  0  0  0  0  0  0  0  0  0
   30.6138   14.0763   19.3993 C   0  0  0  0  0  0  0  0  0  0  0  0
   28.8763    8.7593   29.6536 O   0  0  0  0  0  0  0  0  0  0  0  0
   27.1997   16.2749   26.8938 C   0  0  0  0  0  0  0  0  0  0  0  0
   27.7233   11.7040   26.4062 C   0  0  0  0  0  0  0  0  0  0  0  0
   28.1056   12.8932   28.4647 C   0  0  0  0  0  0  0  0  0  0  0  0
   31.4685   11.2778   18.1664 C   0  0  0  0  0  0  0  0  0  0  0  0
   30.4439    9.2426   19.8574 C   0  0  0  0  0  0  0  0  0  0  0  0
   25.8760    8.0735   30.9824 C   0  0  0  0  0  0  0  0  0  0  0  0
   24.7275    9.5609   28.9233 C   0  0  0  0  0  0  0  0  0  0  0  0
   26.3296   16.3309   21.4075 C   0  0  0  0  0  0  0  0  0  0  0  0
   28.2125   17.3588   27.2669 C   0  0  0  0  0  0  0  0  0  0  0  0
   31.7234    9.9261   17.9072 C   0  0  0  0  0  0  0  0  0  0  0  0
   24.5347    7.8826   30.6564 C   0  0  0  0  0  0  0  0  0  0  0  0
   23.9623    8.6224   29.6247 C   0  0  0  0  0  0  0  0  0  0  0  0
   31.2207    8.9225   18.7376 C   0  0  0  0  0  0  0  0  0  0  0  0
   28.1065   18.6066   26.3990 C   0  0  0  0  0  0  0  0  0  0  0  0
   29.6400   12.6277   23.6194 H   0  0  0  0  0  0  0  0  0  0  0  0
   27.7178   14.3753   20.1798 H   0  0  0  0  0  0  0  0  0  0  0  0
   29.9328   13.3803   25.8454 H   0  0  0  0  0  0  0  0  0  0  0  0
   29.4887   14.5954   27.0272 H   0  0  0  0  0  0  0  0  0  0  0  0
   27.2637   12.0252   30.2387 H   0  0  0  0  0  0  0  0  0  0  0  0
   26.6090    9.8746   26.5575 H   0  0  0  0  0  0  0  0  0  0  0  0
   30.7144   14.7445   20.2573 H   0  0  0  0  0  0  0  0  0  0  0  0
   29.8351   14.4310   18.7199 H   0  0  0  0  0  0  0  0  0  0  0  0
   31.5752   14.0358   18.8817 H   0  0  0  0  0  0  0  0  0  0  0  0
   29.7778    8.8797   30.0157 H   0  0  0  0  0  0  0  0  0  0  0  0
   26.1903   16.7045   26.8826 H   0  0  0  0  0  0  0  0  0  0  0  0
   27.1890   15.5074   27.6722 H   0  0  0  0  0  0  0  0  0  0  0  0
   27.8389   11.5898   25.3301 H   0  0  0  0  0  0  0  0  0  0  0  0
   28.5282   13.7256   29.0239 H   0  0  0  0  0  0  0  0  0  0  0  0
   31.8623   12.0509   17.5163 H   0  0  0  0  0  0  0  0  0  0  0  0
   30.0492    8.4687   20.5071 H   0  0  0  0  0  0  0  0  0  0  0  0
   26.3250    7.4960   31.7878 H   0  0  0  0  0  0  0  0  0  0  0  0
   24.2485   10.1420   28.1362 H   0  0  0  0  0  0  0  0  0  0  0  0
   25.4208   15.8274   21.0644 H   0  0  0  0  0  0  0  0  0  0  0  0
   26.8189   16.8072   20.5519 H   0  0  0  0  0  0  0  0  0  0  0  0
   26.0422   17.1208   22.1082 H   0  0  0  0  0  0  0  0  0  0  0  0
   29.2352   16.9686   27.2096 H   0  0  0  0  0  0  0  0  0  0  0  0
   28.0409   17.6506   28.3103 H   0  0  0  0  0  0  0  0  0  0  0  0
   32.3250    9.6523   17.0423 H   0  0  0  0  0  0  0  0  0  0  0  0
   23.9379    7.1575   31.2044 H   0  0  0  0  0  0  0  0  0  0  0  0
   22.9154    8.4782   29.3680 H   0  0  0  0  0  0  0  0  0  0  0  0
   31.4332    7.8796   18.5150 H   0  0  0  0  0  0  0  0  0  0  0  0
   27.0981   19.0300   26.4427 H   0  0  0  0  0  0  0  0  0  0  0  0
   28.3471   18.3914   25.3531 H   0  0  0  0  0  0  0  0  0  0  0  0
   28.8087   19.3687   26.7507 H   0  0  0  0  0  0  0  0  0  0  0  0
  2  6  1  0
  3  8  1  0
  4  1  2  0
  5  1  1  0
  6 12  2  0
  7  2  1  0
  8 14  2  0
  9  1  1  0
 10  5  1  0
 11  4  1  0
 12  9  1  0
 13 15  2  0
 14 17  1  0
 15 19  1  0
 16 13  1  0
 17  9  2  0
 18  2  1  0
 19 21  2  0
 20 16  2  0
 21 28  1  0
 22 27  2  0
 23 18  1  0
 24  5  1  0
 25 16  1  0
 26  7  1  0
 27 23  1  0
 28 23  2  0
 29 10  2  0
 30 11  2  0
 31 13  1  0
 32 15  1  0
 33 14  1  0
 34 26  1  0
 35 29  1  0
 36 37  1  0
 37 32  2  0
 38 30  1  0
 39 34  1  0
 10 11  1  0
  8  6  1  0
 35 38  2  0
  3  7  2  0
 19 22  1  0
 36 31  2  0
 12 40  1  0
 17 41  1  0
 18 42  1  0
 18 43  1  0
 21 44  1  0
 22 45  1  0
 24 46  1  0
 24 47  1  0
 24 48  1  0
 25 49  1  0
 26 50  1  0
 26 51  1  0
 27 52  1  0
 28 53  1  0
 29 54  1  0
 30 55  1  0
 31 56  1  0
 32 57  1  0
 33 58  1  0
 33 59  1  0
 33 60  1  0
 34 61  1  0
 34 62  1  0
 35 63  1  0
 36 64  1  0
 37 65  1  0
 38 66  1  0
 39 67  1  0
 39 68  1  0
 39 69  1  0
M  END
> <Uni-Dock RESULT> 
ENERGY=   -4.068  LOWER_BOUND=    1.575  UPPER_BOUND=    1.682
INTER + INTRA:          -4.068
INTER:                  -4.068
INTRA:                   0.000
UNBOUND:                 0.000

$$$$

     RDKit          3D

 69 74  0  0  0  0  0  0  0  0999 V2000
   29.5240   12.0563   23.0965 C   0  0  0  0  0  0  0  0  0  0  0  0
   29.1870   12.7262   28.0522 N   0  0  0  0  0  0  0  0  0  0  0  0
   29.7390   14.8744   27.9553 N   0  0  0  0  0  0  0  0  0  0  0  0
   28.4966   11.2982   22.7552 N   0  0  0  0  0  0  0  0  0  0  0  0
   30.5271   11.9541   22.1506 N   0  0  0  0  0  0  0  0  0  0  0  0
   29.3931   13.0029   26.7150 C   0  0  0  0  0  0  0  0  0  0  0  0
   29.4280   13.8833   28.7667 C   0  0  0  0  0  0  0  0  0  0  0  0
   29.7240   14.3534   26.6877 C   0  0  0  0  0  0  0  0  0  0  0  0
   29.5958   12.8487   24.3264 C   0  0  0  0  0  0  0  0  0  0  0  0
   30.0777   11.1558   21.1233 C   0  0  0  0  0  0  0  0  0  0  0  0
   28.8099   10.7585   21.5352 C   0  0  0  0  0  0  0  0  0  0  0  0
   29.3188   12.2240   25.5520 C   0  0  0  0  0  0  0  0  0  0  0  0
   22.7386    9.4514   30.4294 C   0  0  0  0  0  0  0  0  0  0  0  0
   29.9913   14.9942   25.4617 C   0  0  0  0  0  0  0  0  0  0  0  0
   23.2409   10.6353   29.8520 C   0  0  0  0  0  0  0  0  0  0  0  0
   23.6032    8.2937   30.7106 C   0  0  0  0  0  0  0  0  0  0  0  0
   29.9049   14.2158   24.2885 C   0  0  0  0  0  0  0  0  0  0  0  0
   28.8733   11.4138   28.6013 C   0  0  0  0  0  0  0  0  0  0  0  0
   24.6656   10.8378   29.5349 C   0  0  0  0  0  0  0  0  0  0  0  0
   23.8157    7.8097   31.8053 O   0  0  0  0  0  0  0  0  0  0  0  0
   25.6452   10.7930   30.5388 C   0  0  0  0  0  0  0  0  0  0  0  0
   25.0823   11.0908   28.2198 C   0  0  0  0  0  0  0  0  0  0  0  0
   27.4082   11.2408   28.9205 C   0  0  0  0  0  0  0  0  0  0  0  0
   31.8492   12.5287   22.2395 C   0  0  0  0  0  0  0  0  0  0  0  0
   24.1037    7.7742   29.5773 O   0  0  0  0  0  0  0  0  0  0  0  0
   29.3543   14.0100   30.2545 C   0  0  0  0  0  0  0  0  0  0  0  0
   26.4335   11.2893   27.9153 C   0  0  0  0  0  0  0  0  0  0  0  0
   26.9975   10.9819   30.2359 C   0  0  0  0  0  0  0  0  0  0  0  0
   30.6414   10.7416   19.9093 C   0  0  0  0  0  0  0  0  0  0  0  0
   28.0519    9.9085   20.7166 C   0  0  0  0  0  0  0  0  0  0  0  0
   21.3847    9.3255   30.7767 C   0  0  0  0  0  0  0  0  0  0  0  0
   22.3232   11.6751   29.6065 C   0  0  0  0  0  0  0  0  0  0  0  0
   30.3250   16.4536   25.3609 C   0  0  0  0  0  0  0  0  0  0  0  0
   30.6818   13.6865   30.9422 C   0  0  0  0  0  0  0  0  0  0  0  0
   29.8704    9.8954   19.1040 C   0  0  0  0  0  0  0  0  0  0  0  0
   20.5007   10.3722   30.5222 C   0  0  0  0  0  0  0  0  0  0  0  0
   20.9689   11.5441   29.9335 C   0  0  0  0  0  0  0  0  0  0  0  0
   28.5960    9.4836   19.4986 C   0  0  0  0  0  0  0  0  0  0  0  0
   31.7698   14.7168   30.6663 C   0  0  0  0  0  0  0  0  0  0  0  0
   29.0476   11.1730   25.5816 H   0  0  0  0  0  0  0  0  0  0  0  0
   30.0686   14.7033   23.3289 H   0  0  0  0  0  0  0  0  0  0  0  0
   29.1890   10.6468   27.8860 H   0  0  0  0  0  0  0  0  0  0  0  0
   29.4952   11.2754   29.4926 H   0  0  0  0  0  0  0  0  0  0  0  0
   25.3608   10.6097   31.5744 H   0  0  0  0  0  0  0  0  0  0  0  0
   24.3523   11.1240   27.4123 H   0  0  0  0  0  0  0  0  0  0  0  0
   32.1753   12.5395   23.2818 H   0  0  0  0  0  0  0  0  0  0  0  0
   31.8108   13.5425   21.8339 H   0  0  0  0  0  0  0  0  0  0  0  0
   32.5528   11.9202   21.6664 H   0  0  0  0  0  0  0  0  0  0  0  0
   24.6537    7.0212   29.8753 H   0  0  0  0  0  0  0  0  0  0  0  0
   29.0497   15.0330   30.5079 H   0  0  0  0  0  0  0  0  0  0  0  0
   28.5727   13.3582   30.6535 H   0  0  0  0  0  0  0  0  0  0  0  0
   26.7086   11.4777   26.8793 H   0  0  0  0  0  0  0  0  0  0  0  0
   27.7241   10.9244   31.0439 H   0  0  0  0  0  0  0  0  0  0  0  0
   31.6300   11.0569   19.5952 H   0  0  0  0  0  0  0  0  0  0  0  0
   27.0623    9.5936   21.0301 H   0  0  0  0  0  0  0  0  0  0  0  0
   21.0207    8.4089   31.2362 H   0  0  0  0  0  0  0  0  0  0  0  0
   22.6664   12.6113   29.1677 H   0  0  0  0  0  0  0  0  0  0  0  0
   29.4825   16.9995   24.9259 H   0  0  0  0  0  0  0  0  0  0  0  0
   31.2085   16.5991   24.7312 H   0  0  0  0  0  0  0  0  0  0  0  0
   30.5429   16.8824   26.3438 H   0  0  0  0  0  0  0  0  0  0  0  0
   31.0419   12.6960   30.6411 H   0  0  0  0  0  0  0  0  0  0  0  0
   30.5119   13.6480   32.0252 H   0  0  0  0  0  0  0  0  0  0  0  0
   30.2720    9.5516   18.1524 H   0  0  0  0  0  0  0  0  0  0  0  0
   19.4493   10.2734   30.7809 H   0  0  0  0  0  0  0  0  0  0  0  0
   20.2831   12.3645   29.7347 H   0  0  0  0  0  0  0  0  0  0  0  0
   28.0169    8.8254   18.8553 H   0  0  0  0  0  0  0  0  0  0  0  0
   31.4466   15.7183   30.9672 H   0  0  0  0  0  0  0  0  0  0  0  0
   32.0396   14.7435   29.6059 H   0  0  0  0  0  0  0  0  0  0  0  0
   32.6731   14.4688   31.2321 H   0  0  0  0  0  0  0  0  0  0  0  0
  2  6  1  0
  3  8  1  0
  4  1  2  0
  5  1  1  0
  6 12  2  0
  7  2  1  0
  8 14  2  0
  9  1  1  0
 10  5  1  0
 11  4  1  0
 12  9  1  0
 13 15  2  0
 14 17  1  0
 15 19  1  0
 16 13  1  0
 17  9  2  0
 18  2  1  0
 19 21  2  0
 20 16  2  0
 21 28  1  0
 22 27  2  0
 23 18  1  0
 24  5  1  0
 25 16  1  0
 26  7  1  0
 27 23  1  0
 28 23  2  0
 29 10  2  0
 30 11  2  0
 31 13  1  0
 32 15  1  0
 33 14  1  0
 34 26  1  0
 35 29  1  0
 36 37  1  0
 37 32  2  0
 38 30  1  0
 39 34  1  0
 10 11  1  0
  8  6  1  0
 35 38  2  0
  3  7  2  0
 19 22  1  0
 36 31  2  0
 12 40  1  0
 17 41  1  0
 18 42  1  0
 18 43  1  0
 21 44  1  0
 22 45  1  0
 24 46  1  0
 24 47  1  0
 24 48  1  0
 25 49  1  0
 26 50  1  0
 26 51  1  0
 27 52  1  0
 28 53  1  0
 29 54  1  0
 30 55  1  0
 31 56  1  0
 32 57  1  0
 33 58  1  0
 33 59  1  0
 33 60  1  0
 34 61  1  0
 34 62  1  0
 35 63  1  0
 36 64  1  0
 37 65  1  0
 38 66  1  0
 39 67  1  0
 39 68  1  0
 39 69  1  0
M  END
> <Uni-Dock RESULT> 
ENERGY=   -4.022  LOWER_BOUND=    3.132  UPPER_BOUND=    4.054
INTER + INTRA:          -4.022
INTER:                  -4.022
INTRA:                   0.000
UNBOUND:                 0.000

$$$$
