
     RDKit          3D

 69 74  0  0  0  0  0  0  0  0999 V2000
   25.0537   15.2801   25.0933 C   0  0  0  0  0  0  0  0  0  0  0  0
   28.2303   12.4994   22.3966 N   0  0  0  0  0  0  0  0  0  0  0  0
   27.0269   12.6349   20.5362 N   0  0  0  0  0  0  0  0  0  0  0  0
   25.0383   14.7035   26.2822 N   0  0  0  0  0  0  0  0  0  0  0  0
   24.6297   16.5921   25.1980 N   0  0  0  0  0  0  0  0  0  0  0  0
   27.1276   13.2655   22.7162 C   0  0  0  0  0  0  0  0  0  0  0  0
   28.1198   12.1286   21.0717 C   0  0  0  0  0  0  0  0  0  0  0  0
   26.3970   13.3321   21.5351 C   0  0  0  0  0  0  0  0  0  0  0  0
   25.5071   14.6192   23.8648 C   0  0  0  0  0  0  0  0  0  0  0  0
   24.2501   16.8253   26.5008 C   0  0  0  0  0  0  0  0  0  0  0  0
   24.5267   15.6291   27.1521 C   0  0  0  0  0  0  0  0  0  0  0  0
   26.7061   13.8904   23.8975 C   0  0  0  0  0  0  0  0  0  0  0  0
   34.9756   15.5387   23.9753 C   0  0  0  0  0  0  0  0  0  0  0  0
   25.1791   14.0393   21.4951 C   0  0  0  0  0  0  0  0  0  0  0  0
   34.1704   15.1927   22.8715 C   0  0  0  0  0  0  0  0  0  0  0  0
   34.6606   15.0562   25.3416 C   0  0  0  0  0  0  0  0  0  0  0  0
   24.7528   14.6708   22.6835 C   0  0  0  0  0  0  0  0  0  0  0  0
   29.2759   12.0958   23.3279 C   0  0  0  0  0  0  0  0  0  0  0  0
   32.9339   14.4103   22.9879 C   0  0  0  0  0  0  0  0  0  0  0  0
   34.2596   13.9560   25.6659 O   0  0  0  0  0  0  0  0  0  0  0  0
   32.9501   13.0145   22.8731 C   0  0  0  0  0  0  0  0  0  0  0  0
   31.7045   15.0484   23.2015 C   0  0  0  0  0  0  0  0  0  0  0  0
   30.5375   12.9135   23.1839 C   0  0  0  0  0  0  0  0  0  0  0  0
   24.6393   17.5838   24.1487 C   0  0  0  0  0  0  0  0  0  0  0  0
   34.8750   16.0187   26.2597 O   0  0  0  0  0  0  0  0  0  0  0  0
   29.0918   11.2616   20.3394 C   0  0  0  0  0  0  0  0  0  0  0  0
   30.5217   14.3100   23.3033 C   0  0  0  0  0  0  0  0  0  0  0  0
   31.7688   12.2741   22.9784 C   0  0  0  0  0  0  0  0  0  0  0  0
   23.7158   17.9378   27.1640 C   0  0  0  0  0  0  0  0  0  0  0  0
   24.2715   15.5139   28.5267 C   0  0  0  0  0  0  0  0  0  0  0  0
   36.1215   16.3339   23.7970 C   0  0  0  0  0  0  0  0  0  0  0  0
   34.5535   15.6602   21.5993 C   0  0  0  0  0  0  0  0  0  0  0  0
   24.3306   14.1340   20.2614 C   0  0  0  0  0  0  0  0  0  0  0  0
   28.6879    9.7891   20.4147 C   0  0  0  0  0  0  0  0  0  0  0  0
   23.4633   17.8036   28.5348 C   0  0  0  0  0  0  0  0  0  0  0  0
   36.4783   16.7852   22.5270 C   0  0  0  0  0  0  0  0  0  0  0  0
   35.6956   16.4460   21.4282 C   0  0  0  0  0  0  0  0  0  0  0  0
   23.7360   16.6123   29.2084 C   0  0  0  0  0  0  0  0  0  0  0  0
   29.6573    8.9065   19.6449 C   0  0  0  0  0  0  0  0  0  0  0  0
   27.2800   13.8220   24.8174 H   0  0  0  0  0  0  0  0  0  0  0  0
   23.7964   15.1904   22.6776 H   0  0  0  0  0  0  0  0  0  0  0  0
   29.4665   11.0310   23.1549 H   0  0  0  0  0  0  0  0  0  0  0  0
   28.8949   12.1826   24.3508 H   0  0  0  0  0  0  0  0  0  0  0  0
   33.8925   12.4921   22.7206 H   0  0  0  0  0  0  0  0  0  0  0  0
   31.6609   16.1320   23.2940 H   0  0  0  0  0  0  0  0  0  0  0  0
   24.7413   18.5800   24.5855 H   0  0  0  0  0  0  0  0  0  0  0  0
   25.4904   17.4101   23.4864 H   0  0  0  0  0  0  0  0  0  0  0  0
   23.6975   17.5111   23.6000 H   0  0  0  0  0  0  0  0  0  0  0  0
   34.6127   15.5927   27.1024 H   0  0  0  0  0  0  0  0  0  0  0  0
   30.1076   11.3967   20.7212 H   0  0  0  0  0  0  0  0  0  0  0  0
   29.1151   11.5796   19.2894 H   0  0  0  0  0  0  0  0  0  0  0  0
   29.5894   14.8426   23.4786 H   0  0  0  0  0  0  0  0  0  0  0  0
   31.8257   11.1900   22.9034 H   0  0  0  0  0  0  0  0  0  0  0  0
   23.4992   18.8667   26.6489 H   0  0  0  0  0  0  0  0  0  0  0  0
   24.4855   14.5837   29.0407 H   0  0  0  0  0  0  0  0  0  0  0  0
   36.7434   16.5985   24.6494 H   0  0  0  0  0  0  0  0  0  0  0  0
   33.9481   15.4142   20.7276 H   0  0  0  0  0  0  0  0  0  0  0  0
   24.2330   15.1801   19.9529 H   0  0  0  0  0  0  0  0  0  0  0  0
   23.3338   13.7247   20.4560 H   0  0  0  0  0  0  0  0  0  0  0  0
   24.7690   13.5757   19.4285 H   0  0  0  0  0  0  0  0  0  0  0  0
   27.6783    9.6549   20.0069 H   0  0  0  0  0  0  0  0  0  0  0  0
   28.6526    9.4570   21.4592 H   0  0  0  0  0  0  0  0  0  0  0  0
   23.0461   18.6441   29.0851 H   0  0  0  0  0  0  0  0  0  0  0  0
   37.3662   17.3987   22.3961 H   0  0  0  0  0  0  0  0  0  0  0  0
   35.9690   16.7959   20.4356 H   0  0  0  0  0  0  0  0  0  0  0  0
   23.5307   16.5324   30.2732 H   0  0  0  0  0  0  0  0  0  0  0  0
   29.6869    9.1860   18.5871 H   0  0  0  0  0  0  0  0  0  0  0  0
   29.3492    7.8582   19.7109 H   0  0  0  0  0  0  0  0  0  0  0  0
   30.6703    8.9892   20.0518 H   0  0  0  0  0  0  0  0  0  0  0  0
  2  6  1  0
  3  8  1  0
  4  1  2  0
  5  1  1  0
  6 12  2  0
  7  2  1  0
  8 14  2  0
  9  1  1  0
 10  5  1  0
 11  4  1  0
 12  9  1  0
 13 15  2  0
 14 17  1  0
 15 19  1  0
 16 13  1  0
 17  9  2  0
 18  2  1  0
 19 21  2  0
 20 16  2  0
 21 28  1  0
 22 27  2  0
 23 18  1  0
 24  5  1  0
 25 16  1  0
 26  7  1  0
 27 23  1  0
 28 23  2  0
 29 10  2  0
 30 11  2  0
 31 13  1  0
 32 15  1  0
 33 14  1  0
 34 26  1  0
 35 29  1  0
 36 37  1  0
 37 32  2  0
 38 30  1  0
 39 34  1  0
 10 11  1  0
  8  6  1  0
 35 38  2  0
  3  7  2  0
 19 22  1  0
 36 31  2  0
 12 40  1  0
 17 41  1  0
 18 42  1  0
 18 43  1  0
 21 44  1  0
 22 45  1  0
 24 46  1  0
 24 47  1  0
 24 48  1  0
 25 49  1  0
 26 50  1  0
 26 51  1  0
 27 52  1  0
 28 53  1  0
 29 54  1  0
 30 55  1  0
 31 56  1  0
 32 57  1  0
 33 58  1  0
 33 59  1  0
 33 60  1  0
 34 61  1  0
 34 62  1  0
 35 63  1  0
 36 64  1  0
 37 65  1  0
 38 66  1  0
 39 67  1  0
 39 68  1  0
 39 69  1  0
M  END
> <Uni-Dock RESULT> 
ENERGY=   -4.466  LOWER_BOUND=    0.000  UPPER_BOUND=    0.000
INTER + INTRA:          -4.466
INTER:                  -4.466
INTRA:                   0.000
UNBOUND:                 0.000

$$$$

     RDKit          3D

 69 74  0  0  0  0  0  0  0  0999 V2000
   28.2273   11.9200   19.7976 C   0  0  0  0  0  0  0  0  0  0  0  0
   26.4359   14.2680   23.8438 N   0  0  0  0  0  0  0  0  0  0  0  0
   24.4899   14.7626   22.8973 N   0  0  0  0  0  0  0  0  0  0  0  0
   29.5026   12.2632   19.7547 N   0  0  0  0  0  0  0  0  0  0  0  0
   28.0265   10.7547   19.0805 N   0  0  0  0  0  0  0  0  0  0  0  0
   26.4969   13.7516   22.5653 C   0  0  0  0  0  0  0  0  0  0  0  0
   25.2094   14.8826   23.9953 C   0  0  0  0  0  0  0  0  0  0  0  0
   25.2683   14.0760   22.0010 C   0  0  0  0  0  0  0  0  0  0  0  0
   27.2024   12.6558   20.5457 C   0  0  0  0  0  0  0  0  0  0  0  0
   29.2170   10.3953   18.4896 C   0  0  0  0  0  0  0  0  0  0  0  0
   30.1190   11.3527   18.9385 C   0  0  0  0  0  0  0  0  0  0  0  0
   27.4858   13.0506   21.8623 C   0  0  0  0  0  0  0  0  0  0  0  0
   27.9414    9.4379   29.4681 C   0  0  0  0  0  0  0  0  0  0  0  0
   24.9804   13.7077   20.6719 C   0  0  0  0  0  0  0  0  0  0  0  0
   26.8655   10.1601   28.9139 C   0  0  0  0  0  0  0  0  0  0  0  0
   29.3448    9.7336   29.0914 C   0  0  0  0  0  0  0  0  0  0  0  0
   25.9746   13.0002   19.9619 C   0  0  0  0  0  0  0  0  0  0  0  0
   27.5165   14.2318   24.8209 C   0  0  0  0  0  0  0  0  0  0  0  0
   27.0310   11.1886   27.8797 C   0  0  0  0  0  0  0  0  0  0  0  0
   29.8498   10.8234   28.9077 O   0  0  0  0  0  0  0  0  0  0  0  0
   27.2038   12.5354   28.2231 C   0  0  0  0  0  0  0  0  0  0  0  0
   27.0036   10.8440   26.5215 C   0  0  0  0  0  0  0  0  0  0  0  0
   27.3190   13.1684   25.8749 C   0  0  0  0  0  0  0  0  0  0  0  0
   26.8025    9.9925   19.0063 C   0  0  0  0  0  0  0  0  0  0  0  0
   30.0634    8.6014   28.9617 O   0  0  0  0  0  0  0  0  0  0  0  0
   24.7551   15.6001   25.2247 C   0  0  0  0  0  0  0  0  0  0  0  0
   27.1506   11.8200   25.5312 C   0  0  0  0  0  0  0  0  0  0  0  0
   27.3547   13.5123   27.2343 C   0  0  0  0  0  0  0  0  0  0  0  0
   29.5919    9.3487   17.6370 C   0  0  0  0  0  0  0  0  0  0  0  0
   31.4611   11.2823   18.5363 C   0  0  0  0  0  0  0  0  0  0  0  0
   27.7051    8.4303   30.4201 C   0  0  0  0  0  0  0  0  0  0  0  0
   25.5628    9.8453   29.3472 C   0  0  0  0  0  0  0  0  0  0  0  0
   23.6846   14.0434   19.9944 C   0  0  0  0  0  0  0  0  0  0  0  0
   25.0925   17.0895   25.1544 C   0  0  0  0  0  0  0  0  0  0  0  0
   30.9344    9.2965   17.2421 C   0  0  0  0  0  0  0  0  0  0  0  0
   26.4055    8.1370   30.8313 C   0  0  0  0  0  0  0  0  0  0  0  0
   25.3350    8.8464   30.2966 C   0  0  0  0  0  0  0  0  0  0  0  0
   31.8567   10.2461   17.6832 C   0  0  0  0  0  0  0  0  0  0  0  0
   24.6046   17.8291   26.3899 C   0  0  0  0  0  0  0  0  0  0  0  0
   28.4465   12.8126   22.3102 H   0  0  0  0  0  0  0  0  0  0  0  0
   25.7808   12.7405   18.9227 H   0  0  0  0  0  0  0  0  0  0  0  0
   27.5804   15.2307   25.2661 H   0  0  0  0  0  0  0  0  0  0  0  0
   28.4637   14.0618   24.2984 H   0  0  0  0  0  0  0  0  0  0  0  0
   27.2425   12.8292   29.2702 H   0  0  0  0  0  0  0  0  0  0  0  0
   26.8701    9.8055   26.2245 H   0  0  0  0  0  0  0  0  0  0  0  0
   27.0352    8.9406   18.8241 H   0  0  0  0  0  0  0  0  0  0  0  0
   26.2654   10.0663   19.9546 H   0  0  0  0  0  0  0  0  0  0  0  0
   26.2008   10.3897   18.1857 H   0  0  0  0  0  0  0  0  0  0  0  0
   30.9491    8.9229   28.6924 H   0  0  0  0  0  0  0  0  0  0  0  0
   25.1878   15.1548   26.1249 H   0  0  0  0  0  0  0  0  0  0  0  0
   23.6684   15.4767   25.3147 H   0  0  0  0  0  0  0  0  0  0  0  0
   27.1330   11.5099   24.4886 H   0  0  0  0  0  0  0  0  0  0  0  0
   27.5066   14.5449   27.5418 H   0  0  0  0  0  0  0  0  0  0  0  0
   28.8823    8.6074   17.2879 H   0  0  0  0  0  0  0  0  0  0  0  0
   32.1698   12.0256   18.8833 H   0  0  0  0  0  0  0  0  0  0  0  0
   28.5365    7.8750   30.8487 H   0  0  0  0  0  0  0  0  0  0  0  0
   24.7102   10.3823   28.9328 H   0  0  0  0  0  0  0  0  0  0  0  0
   23.1629   13.1247   19.7067 H   0  0  0  0  0  0  0  0  0  0  0  0
   23.8715   14.6436   19.0978 H   0  0  0  0  0  0  0  0  0  0  0  0
   23.0234   14.6153   20.6527 H   0  0  0  0  0  0  0  0  0  0  0  0
   24.6348   17.5371   24.2636 H   0  0  0  0  0  0  0  0  0  0  0  0
   26.1757   17.2302   25.0567 H   0  0  0  0  0  0  0  0  0  0  0  0
   31.2644    8.5003   16.5783 H   0  0  0  0  0  0  0  0  0  0  0  0
   26.2300    7.3576   31.5686 H   0  0  0  0  0  0  0  0  0  0  0  0
   24.3195    8.6212   30.6135 H   0  0  0  0  0  0  0  0  0  0  0  0
   32.8938   10.1845   17.3622 H   0  0  0  0  0  0  0  0  0  0  0  0
   23.5187   17.7423   26.4956 H   0  0  0  0  0  0  0  0  0  0  0  0
   24.8552   18.8922   26.3184 H   0  0  0  0  0  0  0  0  0  0  0  0
   25.0722   17.4300   27.2957 H   0  0  0  0  0  0  0  0  0  0  0  0
  2  6  1  0
  3  8  1  0
  4  1  2  0
  5  1  1  0
  6 12  2  0
  7  2  1  0
  8 14  2  0
  9  1  1  0
 10  5  1  0
 11  4  1  0
 12  9  1  0
 13 15  2  0
 14 17  1  0
 15 19  1  0
 16 13  1  0
 17  9  2  0
 18  2  1  0
 19 21  2  0
 20 16  2  0
 21 28  1  0
 22 27  2  0
 23 18  1  0
 24  5  1  0
 25 16  1  0
 26  7  1  0
 27 23  1  0
 28 23  2  0
 29 10  2  0
 30 11  2  0
 31 13  1  0
 32 15  1  0
 33 14  1  0
 34 26  1  0
 35 29  1  0
 36 37  1  0
 37 32  2  0
 38 30  1  0
 39 34  1  0
 10 11  1  0
  8  6  1  0
 35 38  2  0
  3  7  2  0
 19 22  1  0
 36 31  2  0
 12 40  1  0
 17 41  1  0
 18 42  1  0
 18 43  1  0
 21 44  1  0
 22 45  1  0
 24 46  1  0
 24 47  1  0
 24 48  1  0
 25 49  1  0
 26 50  1  0
 26 51  1  0
 27 52  1  0
 28 53  1  0
 29 54  1  0
 30 55  1  0
 31 56  1  0
 32 57  1  0
 33 58  1  0
 33 59  1  0
 33 60  1  0
 34 61  1  0
 34 62  1  0
 35 63  1  0
 36 64  1  0
 37 65  1  0
 38 66  1  0
 39 67  1  0
 39 68  1  0
 39 69  1  0
M  END
> <Uni-Dock RESULT> 
ENERGY=   -4.434  LOWER_BOUND=    4.223  UPPER_BOUND=    9.240
INTER + INTRA:          -4.434
INTER:                  -4.434
INTRA:                   0.000
UNBOUND:                 0.000

$$$$

     RDKit          3D

 69 74  0  0  0  0  0  0  0  0999 V2000
   30.1901   10.2677   27.7116 C   0  0  0  0  0  0  0  0  0  0  0  0
   30.9527   13.1107   23.6582 N   0  0  0  0  0  0  0  0  0  0  0  0
   33.1608   12.8912   23.7180 N   0  0  0  0  0  0  0  0  0  0  0  0
   29.2036   10.8677   28.3544 N   0  0  0  0  0  0  0  0  0  0  0  0
   30.2712    8.9430   28.0998 N   0  0  0  0  0  0  0  0  0  0  0  0
   31.2222   12.3100   24.7496 C   0  0  0  0  0  0  0  0  0  0  0  0
   32.1560   13.4496   23.0730 C   0  0  0  0  0  0  0  0  0  0  0  0
   32.6075   12.1913   24.7595 C   0  0  0  0  0  0  0  0  0  0  0  0
   31.0297   10.9198   26.7010 C   0  0  0  0  0  0  0  0  0  0  0  0
   29.3459    8.7225   29.0952 C   0  0  0  0  0  0  0  0  0  0  0  0
   28.6906    9.9415   29.2229 C   0  0  0  0  0  0  0  0  0  0  0  0
   30.4077   11.6941   25.7093 C   0  0  0  0  0  0  0  0  0  0  0  0
   25.9957   10.3630   18.6474 C   0  0  0  0  0  0  0  0  0  0  0  0
   33.2462   11.4378   25.7640 C   0  0  0  0  0  0  0  0  0  0  0  0
   27.3690   10.6553   18.7702 C   0  0  0  0  0  0  0  0  0  0  0  0
   25.0094   10.8613   19.6362 C   0  0  0  0  0  0  0  0  0  0  0  0
   32.4279   10.8152   26.7313 C   0  0  0  0  0  0  0  0  0  0  0  0
   29.6303   13.5729   23.2567 C   0  0  0  0  0  0  0  0  0  0  0  0
   27.9394   11.3924   19.9042 C   0  0  0  0  0  0  0  0  0  0  0  0
   24.9811   11.9520   20.1711 O   0  0  0  0  0  0  0  0  0  0  0  0
   28.0812   12.7851   19.8611 C   0  0  0  0  0  0  0  0  0  0  0  0
   28.3698   10.7126   21.0517 C   0  0  0  0  0  0  0  0  0  0  0  0
   29.0693   12.8008   22.0862 C   0  0  0  0  0  0  0  0  0  0  0  0
   31.1259    7.9309   27.5255 C   0  0  0  0  0  0  0  0  0  0  0  0
   24.0778    9.9269   19.9085 O   0  0  0  0  0  0  0  0  0  0  0  0
   32.3106   14.3375   21.8812 C   0  0  0  0  0  0  0  0  0  0  0  0
   28.9232   11.4075   22.1313 C   0  0  0  0  0  0  0  0  0  0  0  0
   28.6309   13.4822   20.9412 C   0  0  0  0  0  0  0  0  0  0  0  0
   29.0143    7.6044   29.8718 C   0  0  0  0  0  0  0  0  0  0  0  0
   27.6525   10.0754   30.1568 C   0  0  0  0  0  0  0  0  0  0  0  0
   25.5247    9.6084   17.5584 C   0  0  0  0  0  0  0  0  0  0  0  0
   28.2402   10.1765   17.7724 C   0  0  0  0  0  0  0  0  0  0  0  0
   34.7365   11.2854   25.8468 C   0  0  0  0  0  0  0  0  0  0  0  0
   32.5105   15.7948   22.2975 C   0  0  0  0  0  0  0  0  0  0  0  0
   27.9788    7.7573   30.8019 C   0  0  0  0  0  0  0  0  0  0  0  0
   26.4083    9.1448   16.5846 C   0  0  0  0  0  0  0  0  0  0  0  0
   27.7654    9.4312   16.6906 C   0  0  0  0  0  0  0  0  0  0  0  0
   27.3064    8.9717   30.9443 C   0  0  0  0  0  0  0  0  0  0  0  0
   32.6991   16.6976   21.0888 C   0  0  0  0  0  0  0  0  0  0  0  0
   29.3269   11.8032   25.6978 H   0  0  0  0  0  0  0  0  0  0  0  0
   32.9090   10.2597   27.5343 H   0  0  0  0  0  0  0  0  0  0  0  0
   29.7192   14.6404   23.0273 H   0  0  0  0  0  0  0  0  0  0  0  0
   28.9503   13.4929   24.1113 H   0  0  0  0  0  0  0  0  0  0  0  0
   27.7428   13.3396   18.9880 H   0  0  0  0  0  0  0  0  0  0  0  0
   28.2729    9.6303   21.1134 H   0  0  0  0  0  0  0  0  0  0  0  0
   30.6624    6.9485   27.6433 H   0  0  0  0  0  0  0  0  0  0  0  0
   31.2573    8.1230   26.4582 H   0  0  0  0  0  0  0  0  0  0  0  0
   32.0853    7.9565   28.0470 H   0  0  0  0  0  0  0  0  0  0  0  0
   23.5095   10.3599   20.5793 H   0  0  0  0  0  0  0  0  0  0  0  0
   31.4531   14.2490   21.2084 H   0  0  0  0  0  0  0  0  0  0  0  0
   33.1839   13.9990   21.3095 H   0  0  0  0  0  0  0  0  0  0  0  0
   29.2365   10.8436   23.0074 H   0  0  0  0  0  0  0  0  0  0  0  0
   28.7060   14.5658   20.8774 H   0  0  0  0  0  0  0  0  0  0  0  0
   29.5320    6.6576   29.7694 H   0  0  0  0  0  0  0  0  0  0  0  0
   27.1372   11.0234   30.2610 H   0  0  0  0  0  0  0  0  0  0  0  0
   24.4643    9.3853   17.4637 H   0  0  0  0  0  0  0  0  0  0  0  0
   29.3080   10.3812   17.8427 H   0  0  0  0  0  0  0  0  0  0  0  0
   35.0116   10.2303   25.7473 H   0  0  0  0  0  0  0  0  0  0  0  0
   35.1018   11.6605   26.8085 H   0  0  0  0  0  0  0  0  0  0  0  0
   35.2420   11.8427   25.0521 H   0  0  0  0  0  0  0  0  0  0  0  0
   33.3870   15.8822   22.9514 H   0  0  0  0  0  0  0  0  0  0  0  0
   31.6487   16.1470   22.8769 H   0  0  0  0  0  0  0  0  0  0  0  0
   27.6933    6.9131   31.4257 H   0  0  0  0  0  0  0  0  0  0  0  0
   26.0372    8.5629   15.7446 H   0  0  0  0  0  0  0  0  0  0  0  0
   28.4589    9.0716   15.9342 H   0  0  0  0  0  0  0  0  0  0  0  0
   26.5058    9.0657   31.6741 H   0  0  0  0  0  0  0  0  0  0  0  0
   33.5773   16.3976   20.5084 H   0  0  0  0  0  0  0  0  0  0  0  0
   32.8415   17.7345   21.4091 H   0  0  0  0  0  0  0  0  0  0  0  0
   31.8236   16.6618   20.4326 H   0  0  0  0  0  0  0  0  0  0  0  0
  2  6  1  0
  3  8  1  0
  4  1  2  0
  5  1  1  0
  6 12  2  0
  7  2  1  0
  8 14  2  0
  9  1  1  0
 10  5  1  0
 11  4  1  0
 12  9  1  0
 13 15  2  0
 14 17  1  0
 15 19  1  0
 16 13  1  0
 17  9  2  0
 18  2  1  0
 19 21  2  0
 20 16  2  0
 21 28  1  0
 22 27  2  0
 23 18  1  0
 24  5  1  0
 25 16  1  0
 26  7  1  0
 27 23  1  0
 28 23  2  0
 29 10  2  0
 30 11  2  0
 31 13  1  0
 32 15  1  0
 33 14  1  0
 34 26  1  0
 35 29  1  0
 36 37  1  0
 37 32  2  0
 38 30  1  0
 39 34  1  0
 10 11  1  0
  8  6  1  0
 35 38  2  0
  3  7  2  0
 19 22  1  0
 36 31  2  0
 12 40  1  0
 17 41  1  0
 18 42  1  0
 18 43  1  0
 21 44  1  0
 22 45  1  0
 24 46  1  0
 24 47  1  0
 24 48  1  0
 25 49  1  0
 26 50  1  0
 26 51  1  0
 27 52  1  0
 28 53  1  0
 29 54  1  0
 30 55  1  0
 31 56  1  0
 32 57  1  0
 33 58  1  0
 33 59  1  0
 33 60  1  0
 34 61  1  0
 34 62  1  0
 35 63  1  0
 36 64  1  0
 37 65  1  0
 38 66  1  0
 39 67  1  0
 39 68  1  0
 39 69  1  0
M  END
> <Uni-Dock RESULT> 
ENERGY=   -4.189  LOWER_BOUND=    5.032  UPPER_BOUND=    8.789
INTER + INTRA:          -4.189
INTER:                  -4.189
INTRA:                   0.000
UNBOUND:                 0.000

$$$$

     RDKit          3D

 69 74  0  0  0  0  0  0  0  0999 V2000
   30.1971    8.9843   29.9270 C   0  0  0  0  0  0  0  0  0  0  0  0
   25.3521    8.4096   31.0630 N   0  0  0  0  0  0  0  0  0  0  0  0
   24.6323    9.4461   29.2367 N   0  0  0  0  0  0  0  0  0  0  0  0
   30.7796    9.2386   31.0856 N   0  0  0  0  0  0  0  0  0  0  0  0
   31.1301    8.5129   29.0217 N   0  0  0  0  0  0  0  0  0  0  0  0
   26.4860    8.7859   30.3718 C   0  0  0  0  0  0  0  0  0  0  0  0
   24.2549    8.8422   30.3459 C   0  0  0  0  0  0  0  0  0  0  0  0
   26.0036    9.4294   29.2375 C   0  0  0  0  0  0  0  0  0  0  0  0
   28.7600    9.1391   29.6777 C   0  0  0  0  0  0  0  0  0  0  0  0
   32.3722    8.5527   29.6145 C   0  0  0  0  0  0  0  0  0  0  0  0
   32.1161    9.0015   30.9047 C   0  0  0  0  0  0  0  0  0  0  0  0
   27.8558    8.6321   30.6238 C   0  0  0  0  0  0  0  0  0  0  0  0
   24.8586    1.0964   32.9343 C   0  0  0  0  0  0  0  0  0  0  0  0
   26.9005    9.9651   28.2923 C   0  0  0  0  0  0  0  0  0  0  0  0
   24.2606    2.0423   32.0775 C   0  0  0  0  0  0  0  0  0  0  0  0
   25.7577    1.5141   34.0371 C   0  0  0  0  0  0  0  0  0  0  0  0
   28.2811    9.8103   28.5432 C   0  0  0  0  0  0  0  0  0  0  0  0
   25.3361    7.7448   32.3596 C   0  0  0  0  0  0  0  0  0  0  0  0
   24.5331    3.4828   32.1494 C   0  0  0  0  0  0  0  0  0  0  0  0
   25.6300    2.4692   34.7772 O   0  0  0  0  0  0  0  0  0  0  0  0
   23.7422    4.3278   32.9381 C   0  0  0  0  0  0  0  0  0  0  0  0
   25.5852    4.0464   31.4149 C   0  0  0  0  0  0  0  0  0  0  0  0
   25.0495    6.2655   32.2569 C   0  0  0  0  0  0  0  0  0  0  0  0
   30.8601    7.9984   27.7000 C   0  0  0  0  0  0  0  0  0  0  0  0
   26.8071    0.6771   34.1536 O   0  0  0  0  0  0  0  0  0  0  0  0
   22.8318    8.6678   30.7667 C   0  0  0  0  0  0  0  0  0  0  0  0
   25.8439    5.4192   31.4711 C   0  0  0  0  0  0  0  0  0  0  0  0
   24.0017    5.7004   32.9986 C   0  0  0  0  0  0  0  0  0  0  0  0
   33.6628    8.2388   29.1687 C   0  0  0  0  0  0  0  0  0  0  0  0
   33.1772    9.1482   31.8104 C   0  0  0  0  0  0  0  0  0  0  0  0
   24.5901   -0.2748   32.7764 C   0  0  0  0  0  0  0  0  0  0  0  0
   23.3905    1.5715   31.0750 C   0  0  0  0  0  0  0  0  0  0  0  0
   26.4493   10.6893   27.0582 C   0  0  0  0  0  0  0  0  0  0  0  0
   22.3377    9.8738   31.5656 C   0  0  0  0  0  0  0  0  0  0  0  0
   34.7104    8.3953   30.0846 C   0  0  0  0  0  0  0  0  0  0  0  0
   23.7257   -0.7152   31.7750 C   0  0  0  0  0  0  0  0  0  0  0  0
   23.1242    0.2083   30.9262 C   0  0  0  0  0  0  0  0  0  0  0  0
   34.4748    8.8421   31.3853 C   0  0  0  0  0  0  0  0  0  0  0  0
   20.8807    9.7143   31.9695 C   0  0  0  0  0  0  0  0  0  0  0  0
   28.2210    8.1371   31.5193 H   0  0  0  0  0  0  0  0  0  0  0  0
   28.9861   10.2504   27.8403 H   0  0  0  0  0  0  0  0  0  0  0  0
   24.5870    8.2566   32.9736 H   0  0  0  0  0  0  0  0  0  0  0  0
   26.3019    7.9000   32.8515 H   0  0  0  0  0  0  0  0  0  0  0  0
   22.9272    3.9150   33.5294 H   0  0  0  0  0  0  0  0  0  0  0  0
   26.2162    3.4146   30.7927 H   0  0  0  0  0  0  0  0  0  0  0  0
   31.6293    7.2734   27.4237 H   0  0  0  0  0  0  0  0  0  0  0  0
   29.8922    7.4921   27.6932 H   0  0  0  0  0  0  0  0  0  0  0  0
   30.8666    8.8358   26.9985 H   0  0  0  0  0  0  0  0  0  0  0  0
   27.3292    1.0664   34.8859 H   0  0  0  0  0  0  0  0  0  0  0  0
   22.7004    7.7492   31.3454 H   0  0  0  0  0  0  0  0  0  0  0  0
   22.2171    8.5516   29.8651 H   0  0  0  0  0  0  0  0  0  0  0  0
   26.6759    5.8159   30.8931 H   0  0  0  0  0  0  0  0  0  0  0  0
   23.3770    6.3205   33.6383 H   0  0  0  0  0  0  0  0  0  0  0  0
   33.8558    7.8926   28.1598 H   0  0  0  0  0  0  0  0  0  0  0  0
   32.9841    9.4974   32.8183 H   0  0  0  0  0  0  0  0  0  0  0  0
   25.0506   -1.0037   33.4397 H   0  0  0  0  0  0  0  0  0  0  0  0
   22.9175    2.2778   30.3936 H   0  0  0  0  0  0  0  0  0  0  0  0
   26.7954   10.1592   26.1648 H   0  0  0  0  0  0  0  0  0  0  0  0
   26.8533   11.7070   27.0484 H   0  0  0  0  0  0  0  0  0  0  0  0
   25.3582   10.7579   27.0090 H   0  0  0  0  0  0  0  0  0  0  0  0
   22.4476   10.7893   30.9712 H   0  0  0  0  0  0  0  0  0  0  0  0
   22.9470   10.0086   32.4674 H   0  0  0  0  0  0  0  0  0  0  0  0
   35.7276    8.1644   29.7759 H   0  0  0  0  0  0  0  0  0  0  0  0
   23.5216   -1.7767   31.6592 H   0  0  0  0  0  0  0  0  0  0  0  0
   22.4497   -0.1299   30.1432 H   0  0  0  0  0  0  0  0  0  0  0  0
   35.3051    8.9561   32.0781 H   0  0  0  0  0  0  0  0  0  0  0  0
   20.2380    9.6172   31.0889 H   0  0  0  0  0  0  0  0  0  0  0  0
   20.5477   10.5880   32.5386 H   0  0  0  0  0  0  0  0  0  0  0  0
   20.7426    8.8276   32.5964 H   0  0  0  0  0  0  0  0  0  0  0  0
  2  6  1  0
  3  8  1  0
  4  1  2  0
  5  1  1  0
  6 12  2  0
  7  2  1  0
  8 14  2  0
  9  1  1  0
 10  5  1  0
 11  4  1  0
 12  9  1  0
 13 15  2  0
 14 17  1  0
 15 19  1  0
 16 13  1  0
 17  9  2  0
 18  2  1  0
 19 21  2  0
 20 16  2  0
 21 28  1  0
 22 27  2  0
 23 18  1  0
 24  5  1  0
 25 16  1  0
 26  7  1  0
 27 23  1  0
 28 23  2  0
 29 10  2  0
 30 11  2  0
 31 13  1  0
 32 15  1  0
 33 14  1  0
 34 26  1  0
 35 29  1  0
 36 37  1  0
 37 32  2  0
 38 30  1  0
 39 34  1  0
 10 11  1  0
  8  6  1  0
 35 38  2  0
  3  7  2  0
 19 22  1  0
 36 31  2  0
 12 40  1  0
 17 41  1  0
 18 42  1  0
 18 43  1  0
 21 44  1  0
 22 45  1  0
 24 46  1  0
 24 47  1  0
 24 48  1  0
 25 49  1  0
 26 50  1  0
 26 51  1  0
 27 52  1  0
 28 53  1  0
 29 54  1  0
 30 55  1  0
 31 56  1  0
 32 57  1  0
 33 58  1  0
 33 59  1  0
 33 60  1  0
 34 61  1  0
 34 62  1  0
 35 63  1  0
 36 64  1  0
 37 65  1  0
 38 66  1  0
 39 67  1  0
 39 68  1  0
 39 69  1  0
M  END
> <Uni-Dock RESULT> 
ENERGY=   -4.171  LOWER_BOUND=   10.517  UPPER_BOUND=   14.225
INTER + INTRA:          -4.171
INTER:                  -4.171
INTRA:                   0.000
UNBOUND:                 0.000

$$$$

     RDKit          3D

 69 74  0  0  0  0  0  0  0  0999 V2000
   26.1358   11.9797   28.1983 C   0  0  0  0  0  0  0  0  0  0  0  0
   30.6836   11.8241   26.1037 N   0  0  0  0  0  0  0  0  0  0  0  0
   31.4020   10.1685   27.3963 N   0  0  0  0  0  0  0  0  0  0  0  0
   25.8418   13.2669   28.2530 N   0  0  0  0  0  0  0  0  0  0  0  0
   24.9775   11.2267   28.2592 N   0  0  0  0  0  0  0  0  0  0  0  0
   29.6292   11.5130   26.9382 C   0  0  0  0  0  0  0  0  0  0  0  0
   31.7389   10.9950   26.4262 C   0  0  0  0  0  0  0  0  0  0  0  0
   30.1085   10.4767   27.7317 C   0  0  0  0  0  0  0  0  0  0  0  0
   27.4959   11.4528   28.0442 C   0  0  0  0  0  0  0  0  0  0  0  0
   23.9123   12.0790   28.4455 C   0  0  0  0  0  0  0  0  0  0  0  0
   24.4858   13.3448   28.4277 C   0  0  0  0  0  0  0  0  0  0  0  0
   28.3330   12.0275   27.0752 C   0  0  0  0  0  0  0  0  0  0  0  0
   29.1852   11.8129   18.6886 C   0  0  0  0  0  0  0  0  0  0  0  0
   29.2873    9.9078   28.7251 C   0  0  0  0  0  0  0  0  0  0  0  0
   29.9079   11.0821   19.6529 C   0  0  0  0  0  0  0  0  0  0  0  0
   28.6354   13.1564   18.9912 C   0  0  0  0  0  0  0  0  0  0  0  0
   27.9804   10.4234   28.8643 C   0  0  0  0  0  0  0  0  0  0  0  0
   30.6907   12.8961   25.1166 C   0  0  0  0  0  0  0  0  0  0  0  0
   30.1050   11.5412   21.0332 C   0  0  0  0  0  0  0  0  0  0  0  0
   29.1605   14.0463   19.6304 O   0  0  0  0  0  0  0  0  0  0  0  0
   31.2268   12.3014   21.3871 C   0  0  0  0  0  0  0  0  0  0  0  0
   29.1784   11.2133   22.0322 C   0  0  0  0  0  0  0  0  0  0  0  0
   30.4903   12.3958   23.7058 C   0  0  0  0  0  0  0  0  0  0  0  0
   24.8734    9.7966   28.0905 C   0  0  0  0  0  0  0  0  0  0  0  0
   27.4100   13.3137   18.4535 O   0  0  0  0  0  0  0  0  0  0  0  0
   33.0862   11.0304   25.7810 C   0  0  0  0  0  0  0  0  0  0  0  0
   29.3652   11.6389   23.3508 C   0  0  0  0  0  0  0  0  0  0  0  0
   31.4135   12.7311   22.7044 C   0  0  0  0  0  0  0  0  0  0  0  0
   22.5358   11.8782   28.6127 C   0  0  0  0  0  0  0  0  0  0  0  0
   23.6707   14.4767   28.5774 C   0  0  0  0  0  0  0  0  0  0  0  0
   28.9927   11.2892   17.3979 C   0  0  0  0  0  0  0  0  0  0  0  0
   30.4294    9.8279   19.2802 C   0  0  0  0  0  0  0  0  0  0  0  0
   29.7469    8.8026   29.6296 C   0  0  0  0  0  0  0  0  0  0  0  0
   34.0415   11.9502   26.5415 C   0  0  0  0  0  0  0  0  0  0  0  0
   21.7380   13.0188   28.7652 C   0  0  0  0  0  0  0  0  0  0  0  0
   29.5183   10.0443   17.0544 C   0  0  0  0  0  0  0  0  0  0  0  0
   30.2386    9.3152   17.9949 C   0  0  0  0  0  0  0  0  0  0  0  0
   22.2932   14.2989   28.7478 C   0  0  0  0  0  0  0  0  0  0  0  0
   35.4226   11.9654   25.9062 C   0  0  0  0  0  0  0  0  0  0  0  0
   27.9733   12.8450   26.4568 H   0  0  0  0  0  0  0  0  0  0  0  0
   27.3468   10.0186   29.6514 H   0  0  0  0  0  0  0  0  0  0  0  0
   31.6445   13.4242   25.2231 H   0  0  0  0  0  0  0  0  0  0  0  0
   29.9052   13.6165   25.3675 H   0  0  0  0  0  0  0  0  0  0  0  0
   31.9553   12.5818   20.6288 H   0  0  0  0  0  0  0  0  0  0  0  0
   28.2975   10.6231   21.7870 H   0  0  0  0  0  0  0  0  0  0  0  0
   23.8863    9.5440   27.6962 H   0  0  0  0  0  0  0  0  0  0  0  0
   25.6264    9.4548   27.3768 H   0  0  0  0  0  0  0  0  0  0  0  0
   25.0183    9.3253   29.0653 H   0  0  0  0  0  0  0  0  0  0  0  0
   27.1497   14.2145   18.7386 H   0  0  0  0  0  0  0  0  0  0  0  0
   33.0152   11.3386   24.7342 H   0  0  0  0  0  0  0  0  0  0  0  0
   33.4918   10.0108   25.7726 H   0  0  0  0  0  0  0  0  0  0  0  0
   28.6179   11.3711   24.0947 H   0  0  0  0  0  0  0  0  0  0  0  0
   32.2876   13.3365   22.9355 H   0  0  0  0  0  0  0  0  0  0  0  0
   22.0957   10.8877   28.6292 H   0  0  0  0  0  0  0  0  0  0  0  0
   24.1117   15.4668   28.5639 H   0  0  0  0  0  0  0  0  0  0  0  0
   28.4366   11.8552   16.6538 H   0  0  0  0  0  0  0  0  0  0  0  0
   30.9876    9.2368   20.0055 H   0  0  0  0  0  0  0  0  0  0  0  0
   29.1240    7.9142   29.4825 H   0  0  0  0  0  0  0  0  0  0  0  0
   29.6782    9.1175   30.6761 H   0  0  0  0  0  0  0  0  0  0  0  0
   30.7857    8.5239   29.4275 H   0  0  0  0  0  0  0  0  0  0  0  0
   34.1294   11.6215   27.5845 H   0  0  0  0  0  0  0  0  0  0  0  0
   33.6467   12.9730   26.5657 H   0  0  0  0  0  0  0  0  0  0  0  0
   20.6646   12.9047   28.9001 H   0  0  0  0  0  0  0  0  0  0  0  0
   29.3667    9.6458   16.0543 H   0  0  0  0  0  0  0  0  0  0  0  0
   30.6501    8.3435   17.7324 H   0  0  0  0  0  0  0  0  0  0  0  0
   21.6528   15.1693   28.8687 H   0  0  0  0  0  0  0  0  0  0  0  0
   35.8636   10.9636   25.9023 H   0  0  0  0  0  0  0  0  0  0  0  0
   36.0899   12.6281   26.4663 H   0  0  0  0  0  0  0  0  0  0  0  0
   35.3750   12.3250   24.8733 H   0  0  0  0  0  0  0  0  0  0  0  0
  2  6  1  0
  3  8  1  0
  4  1  2  0
  5  1  1  0
  6 12  2  0
  7  2  1  0
  8 14  2  0
  9  1  1  0
 10  5  1  0
 11  4  1  0
 12  9  1  0
 13 15  2  0
 14 17  1  0
 15 19  1  0
 16 13  1  0
 17  9  2  0
 18  2  1  0
 19 21  2  0
 20 16  2  0
 21 28  1  0
 22 27  2  0
 23 18  1  0
 24  5  1  0
 25 16  1  0
 26  7  1  0
 27 23  1  0
 28 23  2  0
 29 10  2  0
 30 11  2  0
 31 13  1  0
 32 15  1  0
 33 14  1  0
 34 26  1  0
 35 29  1  0
 36 37  1  0
 37 32  2  0
 38 30  1  0
 39 34  1  0
 10 11  1  0
  8  6  1  0
 35 38  2  0
  3  7  2  0
 19 22  1  0
 36 31  2  0
 12 40  1  0
 17 41  1  0
 18 42  1  0
 18 43  1  0
 21 44  1  0
 22 45  1  0
 24 46  1  0
 24 47  1  0
 24 48  1  0
 25 49  1  0
 26 50  1  0
 26 51  1  0
 27 52  1  0
 28 53  1  0
 29 54  1  0
 30 55  1  0
 31 56  1  0
 32 57  1  0
 33 58  1  0
 33 59  1  0
 33 60  1  0
 34 61  1  0
 34 62  1  0
 35 63  1  0
 36 64  1  0
 37 65  1  0
 38 66  1  0
 39 67  1  0
 39 68  1  0
 39 69  1  0
M  END
> <Uni-Dock RESULT> 
ENERGY=   -4.166  LOWER_BOUND=    4.036  UPPER_BOUND=    6.905
INTER + INTRA:          -4.166
INTER:                  -4.166
INTRA:                   0.000
UNBOUND:                 0.000

$$$$

     RDKit          3D

 69 74  0  0  0  0  0  0  0  0999 V2000
   26.1731   12.1448   19.5517 C   0  0  0  0  0  0  0  0  0  0  0  0
   26.6021   14.5476   23.9263 N   0  0  0  0  0  0  0  0  0  0  0  0
   24.5951   15.4869   23.7941 N   0  0  0  0  0  0  0  0  0  0  0  0
   27.3771   12.2233   19.0129 N   0  0  0  0  0  0  0  0  0  0  0  0
   25.4718   11.0925   18.9920 N   0  0  0  0  0  0  0  0  0  0  0  0
   26.0599   14.1116   22.7343 C   0  0  0  0  0  0  0  0  0  0  0  0
   25.6865   15.3882   24.5266 C   0  0  0  0  0  0  0  0  0  0  0  0
   24.8080   14.7142   22.6812 C   0  0  0  0  0  0  0  0  0  0  0  0
   25.6922   13.0250   20.6220 C   0  0  0  0  0  0  0  0  0  0  0  0
   26.2415   10.5364   17.9950 C   0  0  0  0  0  0  0  0  0  0  0  0
   27.4274   11.2598   18.0411 C   0  0  0  0  0  0  0  0  0  0  0  0
   26.5330   13.2698   21.7188 C   0  0  0  0  0  0  0  0  0  0  0  0
   29.0764    9.1664   28.6326 C   0  0  0  0  0  0  0  0  0  0  0  0
   23.9642   14.4970   21.5741 C   0  0  0  0  0  0  0  0  0  0  0  0
   28.0502   10.1261   28.5217 C   0  0  0  0  0  0  0  0  0  0  0  0
   30.2583    9.1936   27.7374 C   0  0  0  0  0  0  0  0  0  0  0  0
   24.4379   13.6483   20.5502 C   0  0  0  0  0  0  0  0  0  0  0  0
   27.9392   14.2306   24.4111 C   0  0  0  0  0  0  0  0  0  0  0  0
   28.0230   11.1627   27.4826 C   0  0  0  0  0  0  0  0  0  0  0  0
   30.8738   10.1672   27.3506 O   0  0  0  0  0  0  0  0  0  0  0  0
   28.5951   12.4216   27.7048 C   0  0  0  0  0  0  0  0  0  0  0  0
   27.4075   10.9175   26.2477 C   0  0  0  0  0  0  0  0  0  0  0  0
   27.9378   13.1651   25.4815 C   0  0  0  0  0  0  0  0  0  0  0  0
   24.1805   10.6016   19.4117 C   0  0  0  0  0  0  0  0  0  0  0  0
   30.6152    7.9493   27.3639 O   0  0  0  0  0  0  0  0  0  0  0  0
   25.8987   16.1039   25.8209 C   0  0  0  0  0  0  0  0  0  0  0  0
   27.3692   11.9037   25.2574 C   0  0  0  0  0  0  0  0  0  0  0  0
   28.5612   13.4079   26.7144 C   0  0  0  0  0  0  0  0  0  0  0  0
   26.0318    9.4914   17.0856 C   0  0  0  0  0  0  0  0  0  0  0  0
   28.4667   10.9433   17.1537 C   0  0  0  0  0  0  0  0  0  0  0  0
   29.0130    8.1700   29.6226 C   0  0  0  0  0  0  0  0  0  0  0  0
   26.9765   10.0563   29.4306 C   0  0  0  0  0  0  0  0  0  0  0  0
   22.6111   15.1316   21.4424 C   0  0  0  0  0  0  0  0  0  0  0  0
   26.4915   17.4948   25.5951 C   0  0  0  0  0  0  0  0  0  0  0  0
   27.0780    9.1921   16.2044 C   0  0  0  0  0  0  0  0  0  0  0  0
   27.9383    8.1219   30.5095 C   0  0  0  0  0  0  0  0  0  0  0  0
   26.9217    9.0667   30.4149 C   0  0  0  0  0  0  0  0  0  0  0  0
   28.2776    9.9043   16.2356 C   0  0  0  0  0  0  0  0  0  0  0  0
   26.6804   18.2387   26.9075 C   0  0  0  0  0  0  0  0  0  0  0  0
   27.5177   12.8134   21.7660 H   0  0  0  0  0  0  0  0  0  0  0  0
   23.8122   13.4998   19.6720 H   0  0  0  0  0  0  0  0  0  0  0  0
   28.3783   15.1653   24.7765 H   0  0  0  0  0  0  0  0  0  0  0  0
   28.5562   13.9047   23.5672 H   0  0  0  0  0  0  0  0  0  0  0  0
   29.0915   12.6346   28.6495 H   0  0  0  0  0  0  0  0  0  0  0  0
   26.9538    9.9488   26.0468 H   0  0  0  0  0  0  0  0  0  0  0  0
   24.0973    9.5381   19.1756 H   0  0  0  0  0  0  0  0  0  0  0  0
   24.0744   10.7231   20.4921 H   0  0  0  0  0  0  0  0  0  0  0  0
   23.4104   11.1640   18.8789 H   0  0  0  0  0  0  0  0  0  0  0  0
   31.3778    8.1002   26.7670 H   0  0  0  0  0  0  0  0  0  0  0  0
   26.5368   15.5239   26.4934 H   0  0  0  0  0  0  0  0  0  0  0  0
   24.9291   16.1989   26.3259 H   0  0  0  0  0  0  0  0  0  0  0  0
   26.8900   11.6703   24.3090 H   0  0  0  0  0  0  0  0  0  0  0  0
   29.0341   14.3664   26.9180 H   0  0  0  0  0  0  0  0  0  0  0  0
   25.1029    8.9337   17.0529 H   0  0  0  0  0  0  0  0  0  0  0  0
   29.3943   11.5033   17.1848 H   0  0  0  0  0  0  0  0  0  0  0  0
   29.8067    7.4311   29.7086 H   0  0  0  0  0  0  0  0  0  0  0  0
   26.1652   10.7807   29.3663 H   0  0  0  0  0  0  0  0  0  0  0  0
   21.8371   14.3584   21.3974 H   0  0  0  0  0  0  0  0  0  0  0  0
   22.5647   15.7366   20.5309 H   0  0  0  0  0  0  0  0  0  0  0  0
   22.3885   15.7833   22.2929 H   0  0  0  0  0  0  0  0  0  0  0  0
   25.8349   18.0817   24.9408 H   0  0  0  0  0  0  0  0  0  0  0  0
   27.4587   17.4181   25.0840 H   0  0  0  0  0  0  0  0  0  0  0  0
   26.9531    8.3890   15.4814 H   0  0  0  0  0  0  0  0  0  0  0  0
   27.8961    7.3495   31.2734 H   0  0  0  0  0  0  0  0  0  0  0  0
   26.0809    9.0333   31.1037 H   0  0  0  0  0  0  0  0  0  0  0  0
   29.0753    9.6533   15.5406 H   0  0  0  0  0  0  0  0  0  0  0  0
   25.7252   18.3682   27.4259 H   0  0  0  0  0  0  0  0  0  0  0  0
   27.1041   19.2309   26.7228 H   0  0  0  0  0  0  0  0  0  0  0  0
   27.3618   17.6963   27.5708 H   0  0  0  0  0  0  0  0  0  0  0  0
  2  6  1  0
  3  8  1  0
  4  1  2  0
  5  1  1  0
  6 12  2  0
  7  2  1  0
  8 14  2  0
  9  1  1  0
 10  5  1  0
 11  4  1  0
 12  9  1  0
 13 15  2  0
 14 17  1  0
 15 19  1  0
 16 13  1  0
 17  9  2  0
 18  2  1  0
 19 21  2  0
 20 16  2  0
 21 28  1  0
 22 27  2  0
 23 18  1  0
 24  5  1  0
 25 16  1  0
 26  7  1  0
 27 23  1  0
 28 23  2  0
 29 10  2  0
 30 11  2  0
 31 13  1  0
 32 15  1  0
 33 14  1  0
 34 26  1  0
 35 29  1  0
 36 37  1  0
 37 32  2  0
 38 30  1  0
 39 34  1  0
 10 11  1  0
  8  6  1  0
 35 38  2  0
  3  7  2  0
 19 22  1  0
 36 31  2  0
 12 40  1  0
 17 41  1  0
 18 42  1  0
 18 43  1  0
 21 44  1  0
 22 45  1  0
 24 46  1  0
 24 47  1  0
 24 48  1  0
 25 49  1  0
 26 50  1  0
 26 51  1  0
 27 52  1  0
 28 53  1  0
 29 54  1  0
 30 55  1  0
 31 56  1  0
 32 57  1  0
 33 58  1  0
 33 59  1  0
 33 60  1  0
 34 61  1  0
 34 62  1  0
 35 63  1  0
 36 64  1  0
 37 65  1  0
 38 66  1  0
 39 67  1  0
 39 68  1  0
 39 69  1  0
M  END
> <Uni-Dock RESULT> 
ENERGY=   -4.130  LOWER_BOUND=    4.357  UPPER_BOUND=    8.762
INTER + INTRA:          -4.130
INTER:                  -4.130
INTRA:                   0.000
UNBOUND:                 0.000

$$$$

     RDKit          3D

 69 74  0  0  0  0  0  0  0  0999 V2000
   23.8846    8.9422   30.2179 C   0  0  0  0  0  0  0  0  0  0  0  0
   26.4011   11.8124   26.9738 N   0  0  0  0  0  0  0  0  0  0  0  0
   25.2331   13.6428   27.4352 N   0  0  0  0  0  0  0  0  0  0  0  0
   23.7633    7.7786   29.6034 N   0  0  0  0  0  0  0  0  0  0  0  0
   23.7383    8.7742   31.5826 N   0  0  0  0  0  0  0  0  0  0  0  0
   25.4811   11.4403   27.9330 C   0  0  0  0  0  0  0  0  0  0  0  0
   26.2047   13.1495   26.6935 C   0  0  0  0  0  0  0  0  0  0  0  0
   24.7682   12.6038   28.2001 C   0  0  0  0  0  0  0  0  0  0  0  0
   24.1819   10.2057   29.5347 C   0  0  0  0  0  0  0  0  0  0  0  0
   23.4267    7.4560   31.8291 C   0  0  0  0  0  0  0  0  0  0  0  0
   23.4596    6.8610   30.5735 C   0  0  0  0  0  0  0  0  0  0  0  0
   25.2073   10.2261   28.5766 C   0  0  0  0  0  0  0  0  0  0  0  0
   33.6395   10.2320   28.5028 C   0  0  0  0  0  0  0  0  0  0  0  0
   23.7199   12.5914   29.1413 C   0  0  0  0  0  0  0  0  0  0  0  0
   32.7701   11.3343   28.3781 C   0  0  0  0  0  0  0  0  0  0  0  0
   33.2456    8.8816   28.0333 C   0  0  0  0  0  0  0  0  0  0  0  0
   23.4429   11.3696   29.7921 C   0  0  0  0  0  0  0  0  0  0  0  0
   27.3512   10.9186   26.3243 C   0  0  0  0  0  0  0  0  0  0  0  0
   31.4011   11.2282   27.8592 C   0  0  0  0  0  0  0  0  0  0  0  0
   32.6317    8.5968   27.0242 O   0  0  0  0  0  0  0  0  0  0  0  0
   31.1311   11.4021   26.4959 C   0  0  0  0  0  0  0  0  0  0  0  0
   30.3299   10.9650   28.7237 C   0  0  0  0  0  0  0  0  0  0  0  0
   28.7517   11.0513   26.8739 C   0  0  0  0  0  0  0  0  0  0  0  0
   23.9400    9.7807   32.5980 C   0  0  0  0  0  0  0  0  0  0  0  0
   33.6607    7.9278   28.8895 O   0  0  0  0  0  0  0  0  0  0  0  0
   26.9723   13.9357   25.6809 C   0  0  0  0  0  0  0  0  0  0  0  0
   29.0223   10.8726   28.2376 C   0  0  0  0  0  0  0  0  0  0  0  0
   29.8246   11.3064   26.0073 C   0  0  0  0  0  0  0  0  0  0  0  0
   23.1371    6.7365   32.9959 C   0  0  0  0  0  0  0  0  0  0  0  0
   23.1994    5.4880   30.4506 C   0  0  0  0  0  0  0  0  0  0  0  0
   34.9218   10.3976   29.0555 C   0  0  0  0  0  0  0  0  0  0  0  0
   33.2284   12.5924   28.8148 C   0  0  0  0  0  0  0  0  0  0  0  0
   22.8969   13.8040   29.4623 C   0  0  0  0  0  0  0  0  0  0  0  0
   26.2772   13.9153   24.3195 C   0  0  0  0  0  0  0  0  0  0  0  0
   22.8755    5.3682   32.8540 C   0  0  0  0  0  0  0  0  0  0  0  0
   35.3510   11.6538   29.4816 C   0  0  0  0  0  0  0  0  0  0  0  0
   34.5052   12.7513   29.3588 C   0  0  0  0  0  0  0  0  0  0  0  0
   22.9058    4.7507   31.6031 C   0  0  0  0  0  0  0  0  0  0  0  0
   27.0387   14.7395   23.2938 C   0  0  0  0  0  0  0  0  0  0  0  0
   25.7638    9.3206   28.3514 H   0  0  0  0  0  0  0  0  0  0  0  0
   22.6125   11.3357   30.4951 H   0  0  0  0  0  0  0  0  0  0  0  0
   27.3188   11.1400   25.2519 H   0  0  0  0  0  0  0  0  0  0  0  0
   27.0057    9.8860   26.4405 H   0  0  0  0  0  0  0  0  0  0  0  0
   31.9456   11.5941   25.8002 H   0  0  0  0  0  0  0  0  0  0  0  0
   30.5092   10.8260   29.7882 H   0  0  0  0  0  0  0  0  0  0  0  0
   24.2474    9.3041   33.5319 H   0  0  0  0  0  0  0  0  0  0  0  0
   24.7315   10.4654   32.2849 H   0  0  0  0  0  0  0  0  0  0  0  0
   22.9981   10.3144   32.7433 H   0  0  0  0  0  0  0  0  0  0  0  0
   33.3250    7.0992   28.4882 H   0  0  0  0  0  0  0  0  0  0  0  0
   27.9979   13.5675   25.5891 H   0  0  0  0  0  0  0  0  0  0  0  0
   27.0500   14.9716   26.0346 H   0  0  0  0  0  0  0  0  0  0  0  0
   28.2201   10.6577   28.9403 H   0  0  0  0  0  0  0  0  0  0  0  0
   29.6583   11.4282   24.9389 H   0  0  0  0  0  0  0  0  0  0  0  0
   23.1096    7.2077   33.9717 H   0  0  0  0  0  0  0  0  0  0  0  0
   23.2240    5.0178   29.4741 H   0  0  0  0  0  0  0  0  0  0  0  0
   35.5926    9.5465   29.1492 H   0  0  0  0  0  0  0  0  0  0  0  0
   32.5772   13.4624   28.7368 H   0  0  0  0  0  0  0  0  0  0  0  0
   23.0119   14.0661   30.5192 H   0  0  0  0  0  0  0  0  0  0  0  0
   21.8395   13.6084   29.2561 H   0  0  0  0  0  0  0  0  0  0  0  0
   23.2041   14.6677   28.8647 H   0  0  0  0  0  0  0  0  0  0  0  0
   25.2576   14.3096   24.4120 H   0  0  0  0  0  0  0  0  0  0  0  0
   26.1847   12.8853   23.9546 H   0  0  0  0  0  0  0  0  0  0  0  0
   22.6439    4.7752   33.7362 H   0  0  0  0  0  0  0  0  0  0  0  0
   36.3442   11.7751   29.9070 H   0  0  0  0  0  0  0  0  0  0  0  0
   34.8348   13.7332   29.6902 H   0  0  0  0  0  0  0  0  0  0  0  0
   22.6987    3.6866   31.5186 H   0  0  0  0  0  0  0  0  0  0  0  0
   27.1146   15.7850   23.6089 H   0  0  0  0  0  0  0  0  0  0  0  0
   26.5238   14.7122   22.3283 H   0  0  0  0  0  0  0  0  0  0  0  0
   28.0510   14.3484   23.1502 H   0  0  0  0  0  0  0  0  0  0  0  0
  2  6  1  0
  3  8  1  0
  4  1  2  0
  5  1  1  0
  6 12  2  0
  7  2  1  0
  8 14  2  0
  9  1  1  0
 10  5  1  0
 11  4  1  0
 12  9  1  0
 13 15  2  0
 14 17  1  0
 15 19  1  0
 16 13  1  0
 17  9  2  0
 18  2  1  0
 19 21  2  0
 20 16  2  0
 21 28  1  0
 22 27  2  0
 23 18  1  0
 24  5  1  0
 25 16  1  0
 26  7  1  0
 27 23  1  0
 28 23  2  0
 29 10  2  0
 30 11  2  0
 31 13  1  0
 32 15  1  0
 33 14  1  0
 34 26  1  0
 35 29  1  0
 36 37  1  0
 37 32  2  0
 38 30  1  0
 39 34  1  0
 10 11  1  0
  8  6  1  0
 35 38  2  0
  3  7  2  0
 19 22  1  0
 36 31  2  0
 12 40  1  0
 17 41  1  0
 18 42  1  0
 18 43  1  0
 21 44  1  0
 22 45  1  0
 24 46  1  0
 24 47  1  0
 24 48  1  0
 25 49  1  0
 26 50  1  0
 26 51  1  0
 27 52  1  0
 28 53  1  0
 29 54  1  0
 30 55  1  0
 31 56  1  0
 32 57  1  0
 33 58  1  0
 33 59  1  0
 33 60  1  0
 34 61  1  0
 34 62  1  0
 35 63  1  0
 36 64  1  0
 37 65  1  0
 38 66  1  0
 39 67  1  0
 39 68  1  0
 39 69  1  0
M  END
> <Uni-Dock RESULT> 
ENERGY=   -3.969  LOWER_BOUND=    5.985  UPPER_BOUND=    8.024
INTER + INTRA:          -3.969
INTER:                  -3.969
INTRA:                   0.000
UNBOUND:                 0.000

$$$$

     RDKit          3D

 69 74  0  0  0  0  0  0  0  0999 V2000
   30.9222   13.4881   28.0840 C   0  0  0  0  0  0  0  0  0  0  0  0
   27.0971   10.4565   29.2120 N   0  0  0  0  0  0  0  0  0  0  0  0
   25.9746   10.9108   27.3515 N   0  0  0  0  0  0  0  0  0  0  0  0
   31.2573   14.0393   29.2373 N   0  0  0  0  0  0  0  0  0  0  0  0
   31.9814   13.5629   27.1981 N   0  0  0  0  0  0  0  0  0  0  0  0
   27.8727   11.3611   28.5155 C   0  0  0  0  0  0  0  0  0  0  0  0
   25.9524   10.2243   28.4766 C   0  0  0  0  0  0  0  0  0  0  0  0
   27.1458   11.6243   27.3599 C   0  0  0  0  0  0  0  0  0  0  0  0
   29.6271   12.8510   27.8227 C   0  0  0  0  0  0  0  0  0  0  0  0
   33.0009   14.2694   27.7958 C   0  0  0  0  0  0  0  0  0  0  0  0
   32.5196   14.5435   29.0704 C   0  0  0  0  0  0  0  0  0  0  0  0
   29.1102   11.9634   28.7791 C   0  0  0  0  0  0  0  0  0  0  0  0
   30.5184    4.0412   31.3017 C   0  0  0  0  0  0  0  0  0  0  0  0
   27.6413   12.5323   26.4034 C   0  0  0  0  0  0  0  0  0  0  0  0
   29.5275    4.5056   30.4136 C   0  0  0  0  0  0  0  0  0  0  0  0
   31.0365    4.8975   32.3959 C   0  0  0  0  0  0  0  0  0  0  0  0
   28.8884   13.1395   26.6659 C   0  0  0  0  0  0  0  0  0  0  0  0
   27.4095    9.9145   30.5281 C   0  0  0  0  0  0  0  0  0  0  0  0
   28.9931    5.8724   30.4432 C   0  0  0  0  0  0  0  0  0  0  0  0
   30.4066    5.6560   33.1061 O   0  0  0  0  0  0  0  0  0  0  0  0
   27.8586    6.1869   31.2019 C   0  0  0  0  0  0  0  0  0  0  0  0
   29.6010    6.8913   29.6973 C   0  0  0  0  0  0  0  0  0  0  0  0
   27.9531    8.5067   30.4688 C   0  0  0  0  0  0  0  0  0  0  0  0
   32.0523   12.9534   25.8912 C   0  0  0  0  0  0  0  0  0  0  0  0
   32.3673    4.7479   32.5431 O   0  0  0  0  0  0  0  0  0  0  0  0
   24.8300    9.3311   28.8952 C   0  0  0  0  0  0  0  0  0  0  0  0
   29.0912    8.1931   29.7132 C   0  0  0  0  0  0  0  0  0  0  0  0
   27.3495    7.4889   31.2220 C   0  0  0  0  0  0  0  0  0  0  0  0
   34.2704   14.6780   27.3663 C   0  0  0  0  0  0  0  0  0  0  0  0
   33.3227   15.2516   29.9767 C   0  0  0  0  0  0  0  0  0  0  0  0
   31.0211    2.7333   31.1841 C   0  0  0  0  0  0  0  0  0  0  0  0
   29.0601    3.6219   29.4214 C   0  0  0  0  0  0  0  0  0  0  0  0
   26.9000   12.8782   25.1457 C   0  0  0  0  0  0  0  0  0  0  0  0
   23.7554   10.1091   29.6546 C   0  0  0  0  0  0  0  0  0  0  0  0
   35.0567   15.3876   28.2823 C   0  0  0  0  0  0  0  0  0  0  0  0
   30.5424    1.8785   30.1921 C   0  0  0  0  0  0  0  0  0  0  0  0
   29.5602    2.3222   29.3127 C   0  0  0  0  0  0  0  0  0  0  0  0
   34.5935   15.6710   29.5677 C   0  0  0  0  0  0  0  0  0  0  0  0
   22.5968    9.2102   30.0557 C   0  0  0  0  0  0  0  0  0  0  0  0
   29.6639   11.7584   29.6911 H   0  0  0  0  0  0  0  0  0  0  0  0
   29.2670   13.8704   25.9536 H   0  0  0  0  0  0  0  0  0  0  0  0
   26.4907    9.9648   31.1225 H   0  0  0  0  0  0  0  0  0  0  0  0
   28.1358   10.5698   31.0201 H   0  0  0  0  0  0  0  0  0  0  0  0
   27.3746    5.4182   31.8012 H   0  0  0  0  0  0  0  0  0  0  0  0
   30.4835    6.6765   29.0977 H   0  0  0  0  0  0  0  0  0  0  0  0
   33.0944   12.7408   25.6410 H   0  0  0  0  0  0  0  0  0  0  0  0
   31.5006   12.0106   25.8948 H   0  0  0  0  0  0  0  0  0  0  0  0
   31.6282   13.6502   25.1648 H   0  0  0  0  0  0  0  0  0  0  0  0
   32.5885    5.3716   33.2660 H   0  0  0  0  0  0  0  0  0  0  0  0
   25.1939    8.4964   29.5008 H   0  0  0  0  0  0  0  0  0  0  0  0
   24.3890    8.8857   27.9944 H   0  0  0  0  0  0  0  0  0  0  0  0
   29.5979    8.9574   29.1276 H   0  0  0  0  0  0  0  0  0  0  0  0
   26.4781    7.6976   31.8394 H   0  0  0  0  0  0  0  0  0  0  0  0
   34.6381   14.4639   26.3694 H   0  0  0  0  0  0  0  0  0  0  0  0
   32.9533   15.4682   30.9726 H   0  0  0  0  0  0  0  0  0  0  0  0
   31.7844    2.3753   31.8716 H   0  0  0  0  0  0  0  0  0  0  0  0
   28.2985    3.9538   28.7165 H   0  0  0  0  0  0  0  0  0  0  0  0
   27.4926   12.5921   24.2705 H   0  0  0  0  0  0  0  0  0  0  0  0
   26.7030   13.9546   25.1070 H   0  0  0  0  0  0  0  0  0  0  0  0
   25.9399   12.3562   25.0887 H   0  0  0  0  0  0  0  0  0  0  0  0
   23.3753   10.9295   29.0333 H   0  0  0  0  0  0  0  0  0  0  0  0
   24.1820   10.5674   30.5550 H   0  0  0  0  0  0  0  0  0  0  0  0
   36.0476   15.7245   27.9860 H   0  0  0  0  0  0  0  0  0  0  0  0
   30.9347    0.8680   30.1075 H   0  0  0  0  0  0  0  0  0  0  0  0
   29.1839    1.6598   28.5368 H   0  0  0  0  0  0  0  0  0  0  0  0
   35.2227   16.2241   30.2610 H   0  0  0  0  0  0  0  0  0  0  0  0
   22.1215    8.7666   29.1752 H   0  0  0  0  0  0  0  0  0  0  0  0
   21.8396    9.7868   30.5963 H   0  0  0  0  0  0  0  0  0  0  0  0
   22.9372    8.4000   30.7086 H   0  0  0  0  0  0  0  0  0  0  0  0
  2  6  1  0
  3  8  1  0
  4  1  2  0
  5  1  1  0
  6 12  2  0
  7  2  1  0
  8 14  2  0
  9  1  1  0
 10  5  1  0
 11  4  1  0
 12  9  1  0
 13 15  2  0
 14 17  1  0
 15 19  1  0
 16 13  1  0
 17  9  2  0
 18  2  1  0
 19 21  2  0
 20 16  2  0
 21 28  1  0
 22 27  2  0
 23 18  1  0
 24  5  1  0
 25 16  1  0
 26  7  1  0
 27 23  1  0
 28 23  2  0
 29 10  2  0
 30 11  2  0
 31 13  1  0
 32 15  1  0
 33 14  1  0
 34 26  1  0
 35 29  1  0
 36 37  1  0
 37 32  2  0
 38 30  1  0
 39 34  1  0
 10 11  1  0
  8  6  1  0
 35 38  2  0
  3  7  2  0
 19 22  1  0
 36 31  2  0
 12 40  1  0
 17 41  1  0
 18 42  1  0
 18 43  1  0
 21 44  1  0
 22 45  1  0
 24 46  1  0
 24 47  1  0
 24 48  1  0
 25 49  1  0
 26 50  1  0
 26 51  1  0
 27 52  1  0
 28 53  1  0
 29 54  1  0
 30 55  1  0
 31 56  1  0
 32 57  1  0
 33 58  1  0
 33 59  1  0
 33 60  1  0
 34 61  1  0
 34 62  1  0
 35 63  1  0
 36 64  1  0
 37 65  1  0
 38 66  1  0
 39 67  1  0
 39 68  1  0
 39 69  1  0
M  END
> <Uni-Dock RESULT> 
ENERGY=   -3.926  LOWER_BOUND=    7.536  UPPER_BOUND=   10.568
INTER + INTRA:          -3.926
INTER:                  -3.926
INTRA:                   0.000
UNBOUND:                 0.000

$$$$

     RDKit          3D

 69 74  0  0  0  0  0  0  0  0999 V2000
   31.1033   13.9303   26.4034 C   0  0  0  0  0  0  0  0  0  0  0  0
   27.4372   11.0348   28.2118 N   0  0  0  0  0  0  0  0  0  0  0  0
   26.1639   11.2359   26.4046 N   0  0  0  0  0  0  0  0  0  0  0  0
   31.5172   14.6282   27.4464 N   0  0  0  0  0  0  0  0  0  0  0  0
   32.0882   13.9001   25.4333 N   0  0  0  0  0  0  0  0  0  0  0  0
   28.1384   11.8492   27.3457 C   0  0  0  0  0  0  0  0  0  0  0  0
   26.2430   10.6997   27.6061 C   0  0  0  0  0  0  0  0  0  0  0  0
   27.3182   11.9550   26.2279 C   0  0  0  0  0  0  0  0  0  0  0  0
   29.8042   13.2533   26.3302 C   0  0  0  0  0  0  0  0  0  0  0  0
   33.1377   14.6866   25.8522 C   0  0  0  0  0  0  0  0  0  0  0  0
   32.7525   15.1181   27.1160 C   0  0  0  0  0  0  0  0  0  0  0  0
   29.3809   12.4915   27.4303 C   0  0  0  0  0  0  0  0  0  0  0  0
   31.1341    4.9725   30.8213 C   0  0  0  0  0  0  0  0  0  0  0  0
   27.7197   12.7369   25.1269 C   0  0  0  0  0  0  0  0  0  0  0  0
   30.0679    5.3099   29.9636 C   0  0  0  0  0  0  0  0  0  0  0  0
   31.7198    5.9671   31.7523 C   0  0  0  0  0  0  0  0  0  0  0  0
   28.9717   13.3840   25.2090 C   0  0  0  0  0  0  0  0  0  0  0  0
   27.8621   10.6694   29.5569 C   0  0  0  0  0  0  0  0  0  0  0  0
   29.5114    6.6644   29.8614 C   0  0  0  0  0  0  0  0  0  0  0  0
   31.1331    6.8049   32.4082 O   0  0  0  0  0  0  0  0  0  0  0  0
   28.4339    7.0636   30.6623 C   0  0  0  0  0  0  0  0  0  0  0  0
   30.0393    7.5843   28.9454 C   0  0  0  0  0  0  0  0  0  0  0  0
   28.4263    9.2706   29.6342 C   0  0  0  0  0  0  0  0  0  0  0  0
   32.0682   13.1281   24.2133 C   0  0  0  0  0  0  0  0  0  0  0  0
   33.0607    5.8495   31.8103 O   0  0  0  0  0  0  0  0  0  0  0  0
   25.1743    9.8577   28.2237 C   0  0  0  0  0  0  0  0  0  0  0  0
   29.5075    8.8726   28.8359 C   0  0  0  0  0  0  0  0  0  0  0  0
   27.9032    8.3528   30.5569 C   0  0  0  0  0  0  0  0  0  0  0  0
   34.3616   15.0480   25.2738 C   0  0  0  0  0  0  0  0  0  0  0  0
   33.6105   15.9441   27.8573 C   0  0  0  0  0  0  0  0  0  0  0  0
   31.6510    3.6649   30.8315 C   0  0  0  0  0  0  0  0  0  0  0  0
   29.5412    4.3018   29.1328 C   0  0  0  0  0  0  0  0  0  0  0  0
   26.8757   12.9115   23.8988 C   0  0  0  0  0  0  0  0  0  0  0  0
   24.1478   10.7173   28.9615 C   0  0  0  0  0  0  0  0  0  0  0  0
   35.2035   15.8765   26.0259 C   0  0  0  0  0  0  0  0  0  0  0  0
   31.1126    2.6853   29.9982 C   0  0  0  0  0  0  0  0  0  0  0  0
   30.0562    3.0034   29.1510 C   0  0  0  0  0  0  0  0  0  0  0  0
   34.8370   16.3188   27.2976 C   0  0  0  0  0  0  0  0  0  0  0  0
   23.0416    9.8670   29.5655 C   0  0  0  0  0  0  0  0  0  0  0  0
   30.0082   12.4104   28.3136 H   0  0  0  0  0  0  0  0  0  0  0  0
   29.2792   14.0205   24.3813 H   0  0  0  0  0  0  0  0  0  0  0  0
   26.9919   10.7875   30.2117 H   0  0  0  0  0  0  0  0  0  0  0  0
   28.6120   11.3891   29.9015 H   0  0  0  0  0  0  0  0  0  0  0  0
   28.0133    6.3740   31.3915 H   0  0  0  0  0  0  0  0  0  0  0  0
   30.8761    7.3020   28.3093 H   0  0  0  0  0  0  0  0  0  0  0  0
   33.0913   12.8945   23.9095 H   0  0  0  0  0  0  0  0  0  0  0  0
   31.5366   12.1888   24.3813 H   0  0  0  0  0  0  0  0  0  0  0  0
   31.5752   13.7219   23.4402 H   0  0  0  0  0  0  0  0  0  0  0  0
   33.3258    6.5630   32.4276 H   0  0  0  0  0  0  0  0  0  0  0  0
   25.6004    9.1111   28.8997 H   0  0  0  0  0  0  0  0  0  0  0  0
   24.6727    9.2962   27.4254 H   0  0  0  0  0  0  0  0  0  0  0  0
   29.9519    9.5597   28.1190 H   0  0  0  0  0  0  0  0  0  0  0  0
   27.0790    8.6313   31.2105 H   0  0  0  0  0  0  0  0  0  0  0  0
   34.6541   14.7107   24.2861 H   0  0  0  0  0  0  0  0  0  0  0  0
   33.3162   16.2836   28.8438 H   0  0  0  0  0  0  0  0  0  0  0  0
   32.4725    3.4052   31.4956 H   0  0  0  0  0  0  0  0  0  0  0  0
   28.7206    4.5334   28.4547 H   0  0  0  0  0  0  0  0  0  0  0  0
   27.4033   12.5205   23.0226 H   0  0  0  0  0  0  0  0  0  0  0  0
   26.6557   13.9722   23.7392 H   0  0  0  0  0  0  0  0  0  0  0  0
   25.9243   12.3779   23.9861 H   0  0  0  0  0  0  0  0  0  0  0  0
   23.7045   11.4475   28.2731 H   0  0  0  0  0  0  0  0  0  0  0  0
   24.6347   11.2914   29.7590 H   0  0  0  0  0  0  0  0  0  0  0  0
   36.1615   16.1814   25.6106 H   0  0  0  0  0  0  0  0  0  0  0  0
   31.5163    1.6759   30.0120 H   0  0  0  0  0  0  0  0  0  0  0  0
   29.6330    2.2434   28.4986 H   0  0  0  0  0  0  0  0  0  0  0  0
   35.5079   16.9621   27.8620 H   0  0  0  0  0  0  0  0  0  0  0  0
   22.5073    9.3097   28.7897 H   0  0  0  0  0  0  0  0  0  0  0  0
   22.3182   10.5016   30.0871 H   0  0  0  0  0  0  0  0  0  0  0  0
   23.4475    9.1507   30.2869 H   0  0  0  0  0  0  0  0  0  0  0  0
  2  6  1  0
  3  8  1  0
  4  1  2  0
  5  1  1  0
  6 12  2  0
  7  2  1  0
  8 14  2  0
  9  1  1  0
 10  5  1  0
 11  4  1  0
 12  9  1  0
 13 15  2  0
 14 17  1  0
 15 19  1  0
 16 13  1  0
 17  9  2  0
 18  2  1  0
 19 21  2  0
 20 16  2  0
 21 28  1  0
 22 27  2  0
 23 18  1  0
 24  5  1  0
 25 16  1  0
 26  7  1  0
 27 23  1  0
 28 23  2  0
 29 10  2  0
 30 11  2  0
 31 13  1  0
 32 15  1  0
 33 14  1  0
 34 26  1  0
 35 29  1  0
 36 37  1  0
 37 32  2  0
 38 30  1  0
 39 34  1  0
 10 11  1  0
  8  6  1  0
 35 38  2  0
  3  7  2  0
 19 22  1  0
 36 31  2  0
 12 40  1  0
 17 41  1  0
 18 42  1  0
 18 43  1  0
 21 44  1  0
 22 45  1  0
 24 46  1  0
 24 47  1  0
 24 48  1  0
 25 49  1  0
 26 50  1  0
 26 51  1  0
 27 52  1  0
 28 53  1  0
 29 54  1  0
 30 55  1  0
 31 56  1  0
 32 57  1  0
 33 58  1  0
 33 59  1  0
 33 60  1  0
 34 61  1  0
 34 62  1  0
 35 63  1  0
 36 64  1  0
 37 65  1  0
 38 66  1  0
 39 67  1  0
 39 68  1  0
 39 69  1  0
M  END
> <Uni-Dock RESULT> 
ENERGY=   -3.848  LOWER_BOUND=    6.655  UPPER_BOUND=    9.812
INTER + INTRA:          -3.848
INTER:                  -3.848
INTRA:                   0.000
UNBOUND:                 0.000

$$$$
