
     RDKit          3D

 69 74  0  0  0  0  0  0  0  0999 V2000
   29.7574    9.9399   28.0674 C   0  0  0  0  0  0  0  0  0  0  0  0
   26.6245    8.1567   31.5722 N   0  0  0  0  0  0  0  0  0  0  0  0
   24.8049    8.8271   30.4985 N   0  0  0  0  0  0  0  0  0  0  0  0
   30.1486   11.1174   27.6122 N   0  0  0  0  0  0  0  0  0  0  0  0
   30.7457    8.9961   27.8552 N   0  0  0  0  0  0  0  0  0  0  0  0
   27.0736    8.7917   30.4312 C   0  0  0  0  0  0  0  0  0  0  0  0
   25.2461    8.2034   31.5731 C   0  0  0  0  0  0  0  0  0  0  0  0
   25.9147    9.1956   29.7795 C   0  0  0  0  0  0  0  0  0  0  0  0
   28.4508    9.6810   28.6792 C   0  0  0  0  0  0  0  0  0  0  0  0
   31.8466    9.6306   27.3250 C   0  0  0  0  0  0  0  0  0  0  0  0
   31.4361   10.9506   27.1752 C   0  0  0  0  0  0  0  0  0  0  0  0
   28.3555    9.0251   29.9155 C   0  0  0  0  0  0  0  0  0  0  0  0
   30.2618    1.6191   31.2934 C   0  0  0  0  0  0  0  0  0  0  0  0
   25.9992    9.8827   28.5528 C   0  0  0  0  0  0  0  0  0  0  0  0
   29.0230    2.0046   31.8461 C   0  0  0  0  0  0  0  0  0  0  0  0
   31.2975    2.6248   30.9412 C   0  0  0  0  0  0  0  0  0  0  0  0
   27.2888   10.1183   28.0277 C   0  0  0  0  0  0  0  0  0  0  0  0
   27.4862    7.5665   32.5881 C   0  0  0  0  0  0  0  0  0  0  0  0
   28.6207    3.4043   32.0259 C   0  0  0  0  0  0  0  0  0  0  0  0
   31.5532    3.6638   31.5171 O   0  0  0  0  0  0  0  0  0  0  0  0
   28.7232    4.0327   33.2727 C   0  0  0  0  0  0  0  0  0  0  0  0
   28.1091    4.1399   30.9501 C   0  0  0  0  0  0  0  0  0  0  0  0
   27.8282    6.1100   32.3561 C   0  0  0  0  0  0  0  0  0  0  0  0
   30.6432    7.5745   28.0866 C   0  0  0  0  0  0  0  0  0  0  0  0
   31.9865    2.2565   29.8437 O   0  0  0  0  0  0  0  0  0  0  0  0
   24.3635    7.6261   32.6335 C   0  0  0  0  0  0  0  0  0  0  0  0
   27.7238    5.4749   31.1101 C   0  0  0  0  0  0  0  0  0  0  0  0
   28.3388    5.3682   33.4334 C   0  0  0  0  0  0  0  0  0  0  0  0
   33.1264    9.1935   26.9611 C   0  0  0  0  0  0  0  0  0  0  0  0
   32.3221   11.8938   26.6330 C   0  0  0  0  0  0  0  0  0  0  0  0
   30.5553    0.2576   31.0968 C   0  0  0  0  0  0  0  0  0  0  0  0
   28.1088    0.9922   32.1989 C   0  0  0  0  0  0  0  0  0  0  0  0
   24.7963   10.3682   27.8002 C   0  0  0  0  0  0  0  0  0  0  0  0
   23.9959    6.1733   32.3314 C   0  0  0  0  0  0  0  0  0  0  0  0
   34.0002   10.1494   26.4283 C   0  0  0  0  0  0  0  0  0  0  0  0
   29.6305   -0.7250   31.4489 C   0  0  0  0  0  0  0  0  0  0  0  0
   28.4091   -0.3579   32.0038 C   0  0  0  0  0  0  0  0  0  0  0  0
   33.6067   11.4783   26.2636 C   0  0  0  0  0  0  0  0  0  0  0  0
   23.0358    5.6157   33.3707 C   0  0  0  0  0  0  0  0  0  0  0  0
   29.2433    8.7105   30.4534 H   0  0  0  0  0  0  0  0  0  0  0  0
   27.3860   10.6555   27.0836 H   0  0  0  0  0  0  0  0  0  0  0  0
   28.4108    8.1539   32.6237 H   0  0  0  0  0  0  0  0  0  0  0  0
   26.9918    7.6942   33.5565 H   0  0  0  0  0  0  0  0  0  0  0  0
   29.1248    3.4885   34.1251 H   0  0  0  0  0  0  0  0  0  0  0  0
   28.0078    3.6768   29.9705 H   0  0  0  0  0  0  0  0  0  0  0  0
   31.0061    7.3630   29.0955 H   0  0  0  0  0  0  0  0  0  0  0  0
   31.2508    7.0436   27.3487 H   0  0  0  0  0  0  0  0  0  0  0  0
   29.6059    7.2519   27.9716 H   0  0  0  0  0  0  0  0  0  0  0  0
   32.6413    2.9784   29.7301 H   0  0  0  0  0  0  0  0  0  0  0  0
   24.8318    7.7010   33.6196 H   0  0  0  0  0  0  0  0  0  0  0  0
   23.4482    8.2303   32.6842 H   0  0  0  0  0  0  0  0  0  0  0  0
   27.3349    5.9947   30.2381 H   0  0  0  0  0  0  0  0  0  0  0  0
   28.4519    5.8278   34.4141 H   0  0  0  0  0  0  0  0  0  0  0  0
   33.4392    8.1631   27.0841 H   0  0  0  0  0  0  0  0  0  0  0  0
   32.0076   12.9251   26.5123 H   0  0  0  0  0  0  0  0  0  0  0  0
   31.5116   -0.0430   30.6741 H   0  0  0  0  0  0  0  0  0  0  0  0
   27.1415    1.2587   32.6229 H   0  0  0  0  0  0  0  0  0  0  0  0
   23.8669   10.0688   28.2951 H   0  0  0  0  0  0  0  0  0  0  0  0
   24.8096   11.4607   27.7340 H   0  0  0  0  0  0  0  0  0  0  0  0
   24.7896    9.9493   26.7885 H   0  0  0  0  0  0  0  0  0  0  0  0
   24.8960    5.5496   32.3121 H   0  0  0  0  0  0  0  0  0  0  0  0
   23.5359    6.0969   31.3382 H   0  0  0  0  0  0  0  0  0  0  0  0
   35.0048    9.8499   26.1361 H   0  0  0  0  0  0  0  0  0  0  0  0
   29.8648   -1.7750   31.2930 H   0  0  0  0  0  0  0  0  0  0  0  0
   27.6843   -1.1208   32.2808 H   0  0  0  0  0  0  0  0  0  0  0  0
   34.3027   12.2010   25.8454 H   0  0  0  0  0  0  0  0  0  0  0  0
   22.0913    6.1706   33.3690 H   0  0  0  0  0  0  0  0  0  0  0  0
   22.8114    4.5657   33.1532 H   0  0  0  0  0  0  0  0  0  0  0  0
   23.4704    5.6665   34.3741 H   0  0  0  0  0  0  0  0  0  0  0  0
  2  6  1  0
  3  8  1  0
  4  1  2  0
  5  1  1  0
  6 12  2  0
  7  2  1  0
  8 14  2  0
  9  1  1  0
 10  5  1  0
 11  4  1  0
 12  9  1  0
 13 15  2  0
 14 17  1  0
 15 19  1  0
 16 13  1  0
 17  9  2  0
 18  2  1  0
 19 21  2  0
 20 16  2  0
 21 28  1  0
 22 27  2  0
 23 18  1  0
 24  5  1  0
 25 16  1  0
 26  7  1  0
 27 23  1  0
 28 23  2  0
 29 10  2  0
 30 11  2  0
 31 13  1  0
 32 15  1  0
 33 14  1  0
 34 26  1  0
 35 29  1  0
 36 37  1  0
 37 32  2  0
 38 30  1  0
 39 34  1  0
 10 11  1  0
  8  6  1  0
 35 38  2  0
  3  7  2  0
 19 22  1  0
 36 31  2  0
 12 40  1  0
 17 41  1  0
 18 42  1  0
 18 43  1  0
 21 44  1  0
 22 45  1  0
 24 46  1  0
 24 47  1  0
 24 48  1  0
 25 49  1  0
 26 50  1  0
 26 51  1  0
 27 52  1  0
 28 53  1  0
 29 54  1  0
 30 55  1  0
 31 56  1  0
 32 57  1  0
 33 58  1  0
 33 59  1  0
 33 60  1  0
 34 61  1  0
 34 62  1  0
 35 63  1  0
 36 64  1  0
 37 65  1  0
 38 66  1  0
 39 67  1  0
 39 68  1  0
 39 69  1  0
M  END
> <Uni-Dock RESULT> 
ENERGY=   -5.217  LOWER_BOUND=    0.000  UPPER_BOUND=    0.000
INTER + INTRA:          -5.217
INTER:                  -5.217
INTRA:                   0.000
UNBOUND:                 0.000

$$$$

     RDKit          3D

 69 74  0  0  0  0  0  0  0  0999 V2000
   29.6432    9.6043   28.2655 C   0  0  0  0  0  0  0  0  0  0  0  0
   26.1814    8.5044   31.7420 N   0  0  0  0  0  0  0  0  0  0  0  0
   24.5156    9.3862   30.5756 N   0  0  0  0  0  0  0  0  0  0  0  0
   30.2225   10.6832   27.7683 N   0  0  0  0  0  0  0  0  0  0  0  0
   30.4802    8.5115   28.1327 N   0  0  0  0  0  0  0  0  0  0  0  0
   26.7530    9.0030   30.5880 C   0  0  0  0  0  0  0  0  0  0  0  0
   24.8270    8.7600   31.6933 C   0  0  0  0  0  0  0  0  0  0  0  0
   25.6876    9.5435   29.8783 C   0  0  0  0  0  0  0  0  0  0  0  0
   28.2965    9.5795   28.8438 C   0  0  0  0  0  0  0  0  0  0  0  0
   31.6791    8.9426   27.6109 C   0  0  0  0  0  0  0  0  0  0  0  0
   31.4802   10.2999   27.3842 C   0  0  0  0  0  0  0  0  0  0  0  0
   28.0688    9.0115   30.1061 C   0  0  0  0  0  0  0  0  0  0  0  0
   28.7783    1.4846   31.9012 C   0  0  0  0  0  0  0  0  0  0  0  0
   25.9091   10.1445   28.6238 C   0  0  0  0  0  0  0  0  0  0  0  0
   27.5991    2.0823   32.3920 C   0  0  0  0  0  0  0  0  0  0  0  0
   29.9651    2.3013   31.5371 C   0  0  0  0  0  0  0  0  0  0  0  0
   27.2331   10.1535   28.1326 C   0  0  0  0  0  0  0  0  0  0  0  0
   26.9150    7.8443   32.8139 C   0  0  0  0  0  0  0  0  0  0  0  0
   27.4118    3.5343   32.4907 C   0  0  0  0  0  0  0  0  0  0  0  0
   30.3618    3.3181   32.0711 O   0  0  0  0  0  0  0  0  0  0  0  0
   27.5762    4.2045   33.7088 C   0  0  0  0  0  0  0  0  0  0  0  0
   27.0480    4.2817   31.3640 C   0  0  0  0  0  0  0  0  0  0  0  0
   27.0354    6.3426   32.6637 C   0  0  0  0  0  0  0  0  0  0  0  0
   30.1546    7.1360   28.4283 C   0  0  0  0  0  0  0  0  0  0  0  0
   30.6183    1.7754   30.4828 O   0  0  0  0  0  0  0  0  0  0  0  0
   23.8384    8.3800   32.7491 C   0  0  0  0  0  0  0  0  0  0  0  0
   26.8680    5.6662   31.4467 C   0  0  0  0  0  0  0  0  0  0  0  0
   27.3972    5.5895   33.7921 C   0  0  0  0  0  0  0  0  0  0  0  0
   32.8859    8.2976   27.3125 C   0  0  0  0  0  0  0  0  0  0  0  0
   32.5147   11.0677   26.8283 C   0  0  0  0  0  0  0  0  0  0  0  0
   28.8645    0.0858   31.7802 C   0  0  0  0  0  0  0  0  0  0  0  0
   26.5312    1.2405   32.7612 C   0  0  0  0  0  0  0  0  0  0  0  0
   24.8155   10.7669   27.8080 C   0  0  0  0  0  0  0  0  0  0  0  0
   23.2604    6.9861   32.5044 C   0  0  0  0  0  0  0  0  0  0  0  0
   33.9100    9.0803   26.7650 C   0  0  0  0  0  0  0  0  0  0  0  0
   27.7908   -0.7250   32.1469 C   0  0  0  0  0  0  0  0  0  0  0  0
   26.6259   -0.1479   32.6414 C   0  0  0  0  0  0  0  0  0  0  0  0
   33.7296   10.4431   26.5235 C   0  0  0  0  0  0  0  0  0  0  0  0
   22.1987    6.6362   33.5356 C   0  0  0  0  0  0  0  0  0  0  0  0
   28.8831    8.5944   30.6886 H   0  0  0  0  0  0  0  0  0  0  0  0
   27.4367   10.6193   27.1677 H   0  0  0  0  0  0  0  0  0  0  0  0
   27.9176    8.2855   32.8531 H   0  0  0  0  0  0  0  0  0  0  0  0
   26.4205    8.0963   33.7575 H   0  0  0  0  0  0  0  0  0  0  0  0
   27.8667    3.6511   34.5996 H   0  0  0  0  0  0  0  0  0  0  0  0
   26.9029    3.7885   30.4048 H   0  0  0  0  0  0  0  0  0  0  0  0
   30.4537    6.9252   29.4580 H   0  0  0  0  0  0  0  0  0  0  0  0
   30.6929    6.4810   27.7379 H   0  0  0  0  0  0  0  0  0  0  0  0
   29.0835    6.9693   28.2932 H   0  0  0  0  0  0  0  0  0  0  0  0
   31.3790    2.3825   30.3573 H   0  0  0  0  0  0  0  0  0  0  0  0
   24.2862    8.4346   33.7460 H   0  0  0  0  0  0  0  0  0  0  0  0
   23.0257    9.1182   32.7395 H   0  0  0  0  0  0  0  0  0  0  0  0
   26.5869    6.1925   30.5380 H   0  0  0  0  0  0  0  0  0  0  0  0
   27.5534    6.0774   34.7530 H   0  0  0  0  0  0  0  0  0  0  0  0
   33.0335    7.2396   27.4954 H   0  0  0  0  0  0  0  0  0  0  0  0
   32.3655   12.1270   26.6476 H   0  0  0  0  0  0  0  0  0  0  0  0
   29.7742   -0.3784   31.4054 H   0  0  0  0  0  0  0  0  0  0  0  0
   25.6053    1.6728   33.1385 H   0  0  0  0  0  0  0  0  0  0  0  0
   23.8383   10.6386   28.2844 H   0  0  0  0  0  0  0  0  0  0  0  0
   24.9981   11.8397   27.6900 H   0  0  0  0  0  0  0  0  0  0  0  0
   24.7715   10.3013   26.8178 H   0  0  0  0  0  0  0  0  0  0  0  0
   24.0542    6.2328   32.5459 H   0  0  0  0  0  0  0  0  0  0  0  0
   22.8206    6.9284   31.5008 H   0  0  0  0  0  0  0  0  0  0  0  0
   34.8641    8.6167   26.5221 H   0  0  0  0  0  0  0  0  0  0  0  0
   27.8652   -1.8051   32.0495 H   0  0  0  0  0  0  0  0  0  0  0  0
   25.7854   -0.7762   32.9294 H   0  0  0  0  0  0  0  0  0  0  0  0
   34.5392   11.0286   26.0953 H   0  0  0  0  0  0  0  0  0  0  0  0
   21.3509    7.3274   33.4749 H   0  0  0  0  0  0  0  0  0  0  0  0
   21.8217    5.6226   33.3610 H   0  0  0  0  0  0  0  0  0  0  0  0
   22.6090    6.6730   34.5498 H   0  0  0  0  0  0  0  0  0  0  0  0
  2  6  1  0
  3  8  1  0
  4  1  2  0
  5  1  1  0
  6 12  2  0
  7  2  1  0
  8 14  2  0
  9  1  1  0
 10  5  1  0
 11  4  1  0
 12  9  1  0
 13 15  2  0
 14 17  1  0
 15 19  1  0
 16 13  1  0
 17  9  2  0
 18  2  1  0
 19 21  2  0
 20 16  2  0
 21 28  1  0
 22 27  2  0
 23 18  1  0
 24  5  1  0
 25 16  1  0
 26  7  1  0
 27 23  1  0
 28 23  2  0
 29 10  2  0
 30 11  2  0
 31 13  1  0
 32 15  1  0
 33 14  1  0
 34 26  1  0
 35 29  1  0
 36 37  1  0
 37 32  2  0
 38 30  1  0
 39 34  1  0
 10 11  1  0
  8  6  1  0
 35 38  2  0
  3  7  2  0
 19 22  1  0
 36 31  2  0
 12 40  1  0
 17 41  1  0
 18 42  1  0
 18 43  1  0
 21 44  1  0
 22 45  1  0
 24 46  1  0
 24 47  1  0
 24 48  1  0
 25 49  1  0
 26 50  1  0
 26 51  1  0
 27 52  1  0
 28 53  1  0
 29 54  1  0
 30 55  1  0
 31 56  1  0
 32 57  1  0
 33 58  1  0
 33 59  1  0
 33 60  1  0
 34 61  1  0
 34 62  1  0
 35 63  1  0
 36 64  1  0
 37 65  1  0
 38 66  1  0
 39 67  1  0
 39 68  1  0
 39 69  1  0
M  END
> <Uni-Dock RESULT> 
ENERGY=   -5.018  LOWER_BOUND=    0.918  UPPER_BOUND=    1.079
INTER + INTRA:          -5.018
INTER:                  -5.018
INTRA:                   0.000
UNBOUND:                 0.000

$$$$

     RDKit          3D

 69 74  0  0  0  0  0  0  0  0999 V2000
   30.4760    9.0381   29.4567 C   0  0  0  0  0  0  0  0  0  0  0  0
   25.7490    8.6018   31.1134 N   0  0  0  0  0  0  0  0  0  0  0  0
   24.8780    9.6084   29.3412 N   0  0  0  0  0  0  0  0  0  0  0  0
   31.3563   10.0025   29.2522 N   0  0  0  0  0  0  0  0  0  0  0  0
   31.1281    7.8433   29.7006 N   0  0  0  0  0  0  0  0  0  0  0  0
   26.8202    8.9508   30.3148 C   0  0  0  0  0  0  0  0  0  0  0  0
   24.5941    9.0207   30.4867 C   0  0  0  0  0  0  0  0  0  0  0  0
   26.2444    9.5737   29.2142 C   0  0  0  0  0  0  0  0  0  0  0  0
   29.0224    9.2183   29.4005 C   0  0  0  0  0  0  0  0  0  0  0  0
   32.4824    8.0875   29.7427 C   0  0  0  0  0  0  0  0  0  0  0  0
   32.5907    9.4418   29.4471 C   0  0  0  0  0  0  0  0  0  0  0  0
   28.2030    8.7646   30.4448 C   0  0  0  0  0  0  0  0  0  0  0  0
   27.0219    1.3374   32.4003 C   0  0  0  0  0  0  0  0  0  0  0  0
   27.0596   10.0613   28.1741 C   0  0  0  0  0  0  0  0  0  0  0  0
   25.8423    2.1075   32.3346 C   0  0  0  0  0  0  0  0  0  0  0  0
   28.3523    1.9750   32.5780 C   0  0  0  0  0  0  0  0  0  0  0  0
   28.4537    9.8739   28.2992 C   0  0  0  0  0  0  0  0  0  0  0  0
   25.8574    7.9250   32.3992 C   0  0  0  0  0  0  0  0  0  0  0  0
   25.8360    3.5749   32.3376 C   0  0  0  0  0  0  0  0  0  0  0  0
   28.6226    2.9663   33.2267 O   0  0  0  0  0  0  0  0  0  0  0  0
   25.5594    4.2954   33.5056 C   0  0  0  0  0  0  0  0  0  0  0  0
   26.0938    4.2885   31.1610 C   0  0  0  0  0  0  0  0  0  0  0  0
   25.8188    6.4134   32.3211 C   0  0  0  0  0  0  0  0  0  0  0  0
   30.5189    6.5408   29.8330 C   0  0  0  0  0  0  0  0  0  0  0  0
   29.3108    1.3058   31.9086 O   0  0  0  0  0  0  0  0  0  0  0  0
   23.2081    8.8349   31.0170 C   0  0  0  0  0  0  0  0  0  0  0  0
   26.0914    5.6871   31.1528 C   0  0  0  0  0  0  0  0  0  0  0  0
   25.5577    5.6944   33.4985 C   0  0  0  0  0  0  0  0  0  0  0  0
   33.5983    7.2794   29.9940 C   0  0  0  0  0  0  0  0  0  0  0  0
   33.8595   10.0377   29.3864 C   0  0  0  0  0  0  0  0  0  0  0  0
   26.9547   -0.0660   32.3335 C   0  0  0  0  0  0  0  0  0  0  0  0
   24.6126    1.4307   32.2127 C   0  0  0  0  0  0  0  0  0  0  0  0
   26.5150   10.7620   26.9652 C   0  0  0  0  0  0  0  0  0  0  0  0
   22.6001    7.5112   30.5532 C   0  0  0  0  0  0  0  0  0  0  0  0
   34.8563    7.8919   29.9364 C   0  0  0  0  0  0  0  0  0  0  0  0
   25.7251   -0.7116   32.2066 C   0  0  0  0  0  0  0  0  0  0  0  0
   24.5539    0.0365   32.1506 C   0  0  0  0  0  0  0  0  0  0  0  0
   34.9883    9.2483   29.6354 C   0  0  0  0  0  0  0  0  0  0  0  0
   21.1635    7.3627   31.0298 C   0  0  0  0  0  0  0  0  0  0  0  0
   28.6255    8.2870   31.3223 H   0  0  0  0  0  0  0  0  0  0  0  0
   29.1109   10.2484   27.5136 H   0  0  0  0  0  0  0  0  0  0  0  0
   26.7992    8.2392   32.8634 H   0  0  0  0  0  0  0  0  0  0  0  0
   25.0495    8.2962   33.0378 H   0  0  0  0  0  0  0  0  0  0  0  0
   25.3633    3.7680   34.4369 H   0  0  0  0  0  0  0  0  0  0  0  0
   26.3025    3.7573   30.2344 H   0  0  0  0  0  0  0  0  0  0  0  0
   30.3195    6.3602   30.8921 H   0  0  0  0  0  0  0  0  0  0  0  0
   31.2020    5.7811   29.4434 H   0  0  0  0  0  0  0  0  0  0  0  0
   29.5949    6.5006   29.2517 H   0  0  0  0  0  0  0  0  0  0  0  0
   30.1294    1.8041   32.1197 H   0  0  0  0  0  0  0  0  0  0  0  0
   23.1928    8.8965   32.1094 H   0  0  0  0  0  0  0  0  0  0  0  0
   22.5886    9.6664   30.6563 H   0  0  0  0  0  0  0  0  0  0  0  0
   26.2997    6.1855   30.2094 H   0  0  0  0  0  0  0  0  0  0  0  0
   25.3574    6.2191   34.4314 H   0  0  0  0  0  0  0  0  0  0  0  0
   33.5045    6.2250   30.2267 H   0  0  0  0  0  0  0  0  0  0  0  0
   33.9510   11.0937   29.1550 H   0  0  0  0  0  0  0  0  0  0  0  0
   27.8625   -0.6629   32.3876 H   0  0  0  0  0  0  0  0  0  0  0  0
   23.6846    1.9981   32.1540 H   0  0  0  0  0  0  0  0  0  0  0  0
   25.4207   10.7872   26.9762 H   0  0  0  0  0  0  0  0  0  0  0  0
   26.8786   11.7940   26.9330 H   0  0  0  0  0  0  0  0  0  0  0  0
   26.8312   10.2435   26.0540 H   0  0  0  0  0  0  0  0  0  0  0  0
   23.1870    6.6689   30.9347 H   0  0  0  0  0  0  0  0  0  0  0  0
   22.6251    7.4450   29.4583 H   0  0  0  0  0  0  0  0  0  0  0  0
   35.7480    7.2985   30.1287 H   0  0  0  0  0  0  0  0  0  0  0  0
   25.6819   -1.7965   32.1549 H   0  0  0  0  0  0  0  0  0  0  0  0
   23.5919   -0.4625   32.0521 H   0  0  0  0  0  0  0  0  0  0  0  0
   35.9762    9.7000   29.5943 H   0  0  0  0  0  0  0  0  0  0  0  0
   20.5277    8.1488   30.6081 H   0  0  0  0  0  0  0  0  0  0  0  0
   20.7586    6.3949   30.7142 H   0  0  0  0  0  0  0  0  0  0  0  0
   21.1048    7.4125   32.1217 H   0  0  0  0  0  0  0  0  0  0  0  0
  2  6  1  0
  3  8  1  0
  4  1  2  0
  5  1  1  0
  6 12  2  0
  7  2  1  0
  8 14  2  0
  9  1  1  0
 10  5  1  0
 11  4  1  0
 12  9  1  0
 13 15  2  0
 14 17  1  0
 15 19  1  0
 16 13  1  0
 17  9  2  0
 18  2  1  0
 19 21  2  0
 20 16  2  0
 21 28  1  0
 22 27  2  0
 23 18  1  0
 24  5  1  0
 25 16  1  0
 26  7  1  0
 27 23  1  0
 28 23  2  0
 29 10  2  0
 30 11  2  0
 31 13  1  0
 32 15  1  0
 33 14  1  0
 34 26  1  0
 35 29  1  0
 36 37  1  0
 37 32  2  0
 38 30  1  0
 39 34  1  0
 10 11  1  0
  8  6  1  0
 35 38  2  0
  3  7  2  0
 19 22  1  0
 36 31  2  0
 12 40  1  0
 17 41  1  0
 18 42  1  0
 18 43  1  0
 21 44  1  0
 22 45  1  0
 24 46  1  0
 24 47  1  0
 24 48  1  0
 25 49  1  0
 26 50  1  0
 26 51  1  0
 27 52  1  0
 28 53  1  0
 29 54  1  0
 30 55  1  0
 31 56  1  0
 32 57  1  0
 33 58  1  0
 33 59  1  0
 33 60  1  0
 34 61  1  0
 34 62  1  0
 35 63  1  0
 36 64  1  0
 37 65  1  0
 38 66  1  0
 39 67  1  0
 39 68  1  0
 39 69  1  0
M  END
> <Uni-Dock RESULT> 
ENERGY=   -4.511  LOWER_BOUND=    2.268  UPPER_BOUND=    2.737
INTER + INTRA:          -4.511
INTER:                  -4.511
INTRA:                   0.000
UNBOUND:                 0.000

$$$$

     RDKit          3D

 69 74  0  0  0  0  0  0  0  0999 V2000
   30.5405    9.0309   29.4629 C   0  0  0  0  0  0  0  0  0  0  0  0
   25.8106    8.6012   31.1129 N   0  0  0  0  0  0  0  0  0  0  0  0
   24.9435    9.6085   29.3391 N   0  0  0  0  0  0  0  0  0  0  0  0
   31.4224    9.9941   29.2595 N   0  0  0  0  0  0  0  0  0  0  0  0
   31.1907    7.8353   29.7080 N   0  0  0  0  0  0  0  0  0  0  0  0
   26.8834    8.9486   30.3158 C   0  0  0  0  0  0  0  0  0  0  0  0
   24.6571    9.0215   30.4844 C   0  0  0  0  0  0  0  0  0  0  0  0
   26.3100    9.5720   29.2142 C   0  0  0  0  0  0  0  0  0  0  0  0
   29.0873    9.2130   29.4045 C   0  0  0  0  0  0  0  0  0  0  0  0
   32.5453    8.0777   29.7520 C   0  0  0  0  0  0  0  0  0  0  0  0
   32.6558    9.4318   29.4563 C   0  0  0  0  0  0  0  0  0  0  0  0
   28.2658    8.7606   30.4478 C   0  0  0  0  0  0  0  0  0  0  0  0
   27.0721    1.3355   32.4033 C   0  0  0  0  0  0  0  0  0  0  0  0
   27.1274   10.0583   28.1751 C   0  0  0  0  0  0  0  0  0  0  0  0
   25.8936    2.1071   32.3357 C   0  0  0  0  0  0  0  0  0  0  0  0
   28.4030    1.9714   32.5828 C   0  0  0  0  0  0  0  0  0  0  0  0
   28.5210    9.8691   28.3023 C   0  0  0  0  0  0  0  0  0  0  0  0
   25.9162    7.9245   32.3989 C   0  0  0  0  0  0  0  0  0  0  0  0
   25.8892    3.5745   32.3383 C   0  0  0  0  0  0  0  0  0  0  0  0
   28.6737    2.9625   33.2316 O   0  0  0  0  0  0  0  0  0  0  0  0
   25.6119    4.2956   33.5058 C   0  0  0  0  0  0  0  0  0  0  0  0
   26.1497    4.2875   31.1619 C   0  0  0  0  0  0  0  0  0  0  0  0
   25.8758    6.4130   32.3212 C   0  0  0  0  0  0  0  0  0  0  0  0
   30.5796    6.5336   29.8399 C   0  0  0  0  0  0  0  0  0  0  0  0
   29.3617    1.3007   31.9150 O   0  0  0  0  0  0  0  0  0  0  0  0
   23.2702    8.8376   31.0127 C   0  0  0  0  0  0  0  0  0  0  0  0
   26.1491    5.6861   31.1534 C   0  0  0  0  0  0  0  0  0  0  0  0
   25.6120    5.6947   33.4984 C   0  0  0  0  0  0  0  0  0  0  0  0
   33.6597    7.2683   30.0052 C   0  0  0  0  0  0  0  0  0  0  0  0
   33.9255   10.0260   29.3973 C   0  0  0  0  0  0  0  0  0  0  0  0
   27.0031   -0.0679   32.3368 C   0  0  0  0  0  0  0  0  0  0  0  0
   24.6632    1.4318   32.2122 C   0  0  0  0  0  0  0  0  0  0  0  0
   26.5855   10.7594   26.9653 C   0  0  0  0  0  0  0  0  0  0  0  0
   22.6611    7.5146   30.5484 C   0  0  0  0  0  0  0  0  0  0  0  0
   34.9187    7.8791   29.9492 C   0  0  0  0  0  0  0  0  0  0  0  0
   25.7729   -0.7119   32.2082 C   0  0  0  0  0  0  0  0  0  0  0  0
   24.6028    0.0377   32.1503 C   0  0  0  0  0  0  0  0  0  0  0  0
   35.0528    9.2353   29.6481 C   0  0  0  0  0  0  0  0  0  0  0  0
   21.2236    7.3681   31.0229 C   0  0  0  0  0  0  0  0  0  0  0  0
   28.6864    8.2827   31.3260 H   0  0  0  0  0  0  0  0  0  0  0  0
   29.1798   10.2425   27.5175 H   0  0  0  0  0  0  0  0  0  0  0  0
   26.8578    8.2377   32.8645 H   0  0  0  0  0  0  0  0  0  0  0  0
   25.1079    8.2970   33.0363 H   0  0  0  0  0  0  0  0  0  0  0  0
   25.4138    3.7687   34.4370 H   0  0  0  0  0  0  0  0  0  0  0  0
   26.3590    3.7558   30.2358 H   0  0  0  0  0  0  0  0  0  0  0  0
   30.3784    6.3535   30.8987 H   0  0  0  0  0  0  0  0  0  0  0  0
   31.2623    5.7730   29.4514 H   0  0  0  0  0  0  0  0  0  0  0  0
   29.6564    6.4945   29.2572 H   0  0  0  0  0  0  0  0  0  0  0  0
   30.1806    1.7980   32.1271 H   0  0  0  0  0  0  0  0  0  0  0  0
   23.2533    8.8995   32.1050 H   0  0  0  0  0  0  0  0  0  0  0  0
   22.6523    9.6699   30.6509 H   0  0  0  0  0  0  0  0  0  0  0  0
   26.3594    6.1840   30.2102 H   0  0  0  0  0  0  0  0  0  0  0  0
   25.4111    6.2199   34.4308 H   0  0  0  0  0  0  0  0  0  0  0  0
   33.5643    6.2140   30.2380 H   0  0  0  0  0  0  0  0  0  0  0  0
   34.0187   11.0819   29.1658 H   0  0  0  0  0  0  0  0  0  0  0  0
   27.9101   -0.6660   32.3923 H   0  0  0  0  0  0  0  0  0  0  0  0
   23.7361    2.0004   32.1520 H   0  0  0  0  0  0  0  0  0  0  0  0
   25.4912   10.7860   26.9747 H   0  0  0  0  0  0  0  0  0  0  0  0
   26.9505   11.7910   26.9333 H   0  0  0  0  0  0  0  0  0  0  0  0
   26.9023   10.2403   26.0547 H   0  0  0  0  0  0  0  0  0  0  0  0
   23.2464    6.6716   30.9308 H   0  0  0  0  0  0  0  0  0  0  0  0
   22.6875    7.4481   29.4535 H   0  0  0  0  0  0  0  0  0  0  0  0
   35.8093    7.2845   30.1430 H   0  0  0  0  0  0  0  0  0  0  0  0
   25.7283   -1.7968   32.1567 H   0  0  0  0  0  0  0  0  0  0  0  0
   23.6403   -0.4601   32.0506 H   0  0  0  0  0  0  0  0  0  0  0  0
   36.0415    9.6856   29.6083 H   0  0  0  0  0  0  0  0  0  0  0  0
   20.5894    8.1550   30.6001 H   0  0  0  0  0  0  0  0  0  0  0  0
   20.8179    6.4008   30.7069 H   0  0  0  0  0  0  0  0  0  0  0  0
   21.1634    7.4182   32.1147 H   0  0  0  0  0  0  0  0  0  0  0  0
  2  6  1  0
  3  8  1  0
  4  1  2  0
  5  1  1  0
  6 12  2  0
  7  2  1  0
  8 14  2  0
  9  1  1  0
 10  5  1  0
 11  4  1  0
 12  9  1  0
 13 15  2  0
 14 17  1  0
 15 19  1  0
 16 13  1  0
 17  9  2  0
 18  2  1  0
 19 21  2  0
 20 16  2  0
 21 28  1  0
 22 27  2  0
 23 18  1  0
 24  5  1  0
 25 16  1  0
 26  7  1  0
 27 23  1  0
 28 23  2  0
 29 10  2  0
 30 11  2  0
 31 13  1  0
 32 15  1  0
 33 14  1  0
 34 26  1  0
 35 29  1  0
 36 37  1  0
 37 32  2  0
 38 30  1  0
 39 34  1  0
 10 11  1  0
  8  6  1  0
 35 38  2  0
  3  7  2  0
 19 22  1  0
 36 31  2  0
 12 40  1  0
 17 41  1  0
 18 42  1  0
 18 43  1  0
 21 44  1  0
 22 45  1  0
 24 46  1  0
 24 47  1  0
 24 48  1  0
 25 49  1  0
 26 50  1  0
 26 51  1  0
 27 52  1  0
 28 53  1  0
 29 54  1  0
 30 55  1  0
 31 56  1  0
 32 57  1  0
 33 58  1  0
 33 59  1  0
 33 60  1  0
 34 61  1  0
 34 62  1  0
 35 63  1  0
 36 64  1  0
 37 65  1  0
 38 66  1  0
 39 67  1  0
 39 68  1  0
 39 69  1  0
M  END
> <Uni-Dock RESULT> 
ENERGY=   -4.510  LOWER_BOUND=    2.262  UPPER_BOUND=    2.725
INTER + INTRA:          -4.510
INTER:                  -4.510
INTRA:                   0.000
UNBOUND:                 0.000

$$$$

     RDKit          3D

 69 74  0  0  0  0  0  0  0  0999 V2000
   28.0202    2.5480   31.1389 C   0  0  0  0  0  0  0  0  0  0  0  0
   29.9873    6.9424   29.6899 N   0  0  0  0  0  0  0  0  0  0  0  0
   30.4546    6.2276   27.6445 N   0  0  0  0  0  0  0  0  0  0  0  0
   28.4433    1.3208   31.3875 N   0  0  0  0  0  0  0  0  0  0  0  0
   26.8708    2.8100   31.8618 N   0  0  0  0  0  0  0  0  0  0  0  0
   29.5872    5.6212   29.6527 C   0  0  0  0  0  0  0  0  0  0  0  0
   30.5079    7.2665   28.4546 C   0  0  0  0  0  0  0  0  0  0  0  0
   29.8879    5.2035   28.3619 C   0  0  0  0  0  0  0  0  0  0  0  0
   28.6692    3.4748   30.2070 C   0  0  0  0  0  0  0  0  0  0  0  0
   26.6113    1.7286   32.6735 C   0  0  0  0  0  0  0  0  0  0  0  0
   27.6043    0.8130   32.3439 C   0  0  0  0  0  0  0  0  0  0  0  0
   28.9873    4.7827   30.6018 C   0  0  0  0  0  0  0  0  0  0  0  0
   23.8820   10.3816   32.3253 C   0  0  0  0  0  0  0  0  0  0  0  0
   29.6017    3.8830   27.9640 C   0  0  0  0  0  0  0  0  0  0  0  0
   24.9296   10.8014   31.4797 C   0  0  0  0  0  0  0  0  0  0  0  0
   24.0178    9.1766   33.1842 C   0  0  0  0  0  0  0  0  0  0  0  0
   28.9949    3.0347   28.9161 C   0  0  0  0  0  0  0  0  0  0  0  0
   29.8802    7.8100   30.8555 C   0  0  0  0  0  0  0  0  0  0  0  0
   26.1767   10.0480   31.3056 C   0  0  0  0  0  0  0  0  0  0  0  0
   25.0165    8.7695   33.7439 O   0  0  0  0  0  0  0  0  0  0  0  0
   27.3451   10.4150   31.9839 C   0  0  0  0  0  0  0  0  0  0  0  0
   26.2272    8.9483   30.4405 C   0  0  0  0  0  0  0  0  0  0  0  0
   28.5822    8.5838   30.9484 C   0  0  0  0  0  0  0  0  0  0  0  0
   26.0361    3.9838   31.7572 C   0  0  0  0  0  0  0  0  0  0  0  0
   22.8457    8.5232   33.3023 O   0  0  0  0  0  0  0  0  0  0  0  0
   31.0531    8.6054   28.0719 C   0  0  0  0  0  0  0  0  0  0  0  0
   27.4103    8.2225   30.2681 C   0  0  0  0  0  0  0  0  0  0  0  0
   28.5287    9.6890   31.8127 C   0  0  0  0  0  0  0  0  0  0  0  0
   25.6272    1.4603   33.6331 C   0  0  0  0  0  0  0  0  0  0  0  0
   27.6331   -0.4365   32.9816 C   0  0  0  0  0  0  0  0  0  0  0  0
   22.6903   11.1253   32.3973 C   0  0  0  0  0  0  0  0  0  0  0  0
   24.7466   11.9801   30.7297 C   0  0  0  0  0  0  0  0  0  0  0  0
   29.9148    3.3524   26.5967 C   0  0  0  0  0  0  0  0  0  0  0  0
   29.9657    9.5132   27.4969 C   0  0  0  0  0  0  0  0  0  0  0  0
   25.6750    0.2114   34.2649 C   0  0  0  0  0  0  0  0  0  0  0  0
   22.5317   12.2854   31.6398 C   0  0  0  0  0  0  0  0  0  0  0  0
   23.5614   12.7151   30.8094 C   0  0  0  0  0  0  0  0  0  0  0  0
   26.6594   -0.7249   33.9448 C   0  0  0  0  0  0  0  0  0  0  0  0
   30.5395   10.8445   27.0369 C   0  0  0  0  0  0  0  0  0  0  0  0
   28.7767    5.1321   31.6068 H   0  0  0  0  0  0  0  0  0  0  0  0
   28.7691    2.0043   28.6395 H   0  0  0  0  0  0  0  0  0  0  0  0
   29.9932    7.1847   31.7485 H   0  0  0  0  0  0  0  0  0  0  0  0
   30.7340    8.4950   30.8379 H   0  0  0  0  0  0  0  0  0  0  0  0
   27.3340   11.2603   32.6691 H   0  0  0  0  0  0  0  0  0  0  0  0
   25.3384    8.6440   29.8913 H   0  0  0  0  0  0  0  0  0  0  0  0
   26.3704    4.7112   32.5011 H   0  0  0  0  0  0  0  0  0  0  0  0
   24.9955    3.7049   31.9441 H   0  0  0  0  0  0  0  0  0  0  0  0
   26.1031    4.4002   30.7496 H   0  0  0  0  0  0  0  0  0  0  0  0
   23.0590    7.7741   33.8990 H   0  0  0  0  0  0  0  0  0  0  0  0
   31.5401    9.0904   28.9233 H   0  0  0  0  0  0  0  0  0  0  0  0
   31.8370    8.4539   27.3184 H   0  0  0  0  0  0  0  0  0  0  0  0
   27.3877    7.3779   29.5841 H   0  0  0  0  0  0  0  0  0  0  0  0
   29.4114    9.9936   32.3728 H   0  0  0  0  0  0  0  0  0  0  0  0
   24.8584    2.1811   33.8862 H   0  0  0  0  0  0  0  0  0  0  0  0
   28.4045   -1.1560   32.7280 H   0  0  0  0  0  0  0  0  0  0  0  0
   21.8818   10.8059   33.0514 H   0  0  0  0  0  0  0  0  0  0  0  0
   25.5354   12.3270   30.0634 H   0  0  0  0  0  0  0  0  0  0  0  0
   30.3307    4.1319   25.9504 H   0  0  0  0  0  0  0  0  0  0  0  0
   30.6471    2.5418   26.6663 H   0  0  0  0  0  0  0  0  0  0  0  0
   29.0044    2.9713   26.1222 H   0  0  0  0  0  0  0  0  0  0  0  0
   29.1924    9.7033   28.2487 H   0  0  0  0  0  0  0  0  0  0  0  0
   29.4705    9.0225   26.6497 H   0  0  0  0  0  0  0  0  0  0  0  0
   24.9296   -0.0341   35.0188 H   0  0  0  0  0  0  0  0  0  0  0  0
   21.6073   12.8540   31.7006 H   0  0  0  0  0  0  0  0  0  0  0  0
   23.4429   13.6199   30.2167 H   0  0  0  0  0  0  0  0  0  0  0  0
   26.6736   -1.6886   34.4476 H   0  0  0  0  0  0  0  0  0  0  0  0
   31.2669   10.6999   26.2306 H   0  0  0  0  0  0  0  0  0  0  0  0
   29.7397   11.4905   26.6589 H   0  0  0  0  0  0  0  0  0  0  0  0
   31.0318   11.3666   27.8636 H   0  0  0  0  0  0  0  0  0  0  0  0
  2  6  1  0
  3  8  1  0
  4  1  2  0
  5  1  1  0
  6 12  2  0
  7  2  1  0
  8 14  2  0
  9  1  1  0
 10  5  1  0
 11  4  1  0
 12  9  1  0
 13 15  2  0
 14 17  1  0
 15 19  1  0
 16 13  1  0
 17  9  2  0
 18  2  1  0
 19 21  2  0
 20 16  2  0
 21 28  1  0
 22 27  2  0
 23 18  1  0
 24  5  1  0
 25 16  1  0
 26  7  1  0
 27 23  1  0
 28 23  2  0
 29 10  2  0
 30 11  2  0
 31 13  1  0
 32 15  1  0
 33 14  1  0
 34 26  1  0
 35 29  1  0
 36 37  1  0
 37 32  2  0
 38 30  1  0
 39 34  1  0
 10 11  1  0
  8  6  1  0
 35 38  2  0
  3  7  2  0
 19 22  1  0
 36 31  2  0
 12 40  1  0
 17 41  1  0
 18 42  1  0
 18 43  1  0
 21 44  1  0
 22 45  1  0
 24 46  1  0
 24 47  1  0
 24 48  1  0
 25 49  1  0
 26 50  1  0
 26 51  1  0
 27 52  1  0
 28 53  1  0
 29 54  1  0
 30 55  1  0
 31 56  1  0
 32 57  1  0
 33 58  1  0
 33 59  1  0
 33 60  1  0
 34 61  1  0
 34 62  1  0
 35 63  1  0
 36 64  1  0
 37 65  1  0
 38 66  1  0
 39 67  1  0
 39 68  1  0
 39 69  1  0
M  END
> <Uni-Dock RESULT> 
ENERGY=   -4.467  LOWER_BOUND=    3.452  UPPER_BOUND=    9.467
INTER + INTRA:          -4.467
INTER:                  -4.467
INTRA:                   0.000
UNBOUND:                 0.000

$$$$

     RDKit          3D

 69 74  0  0  0  0  0  0  0  0999 V2000
   31.7850    8.3538   29.8879 C   0  0  0  0  0  0  0  0  0  0  0  0
   26.9098    8.5079   31.1078 N   0  0  0  0  0  0  0  0  0  0  0  0
   26.3316    9.5993   29.2672 N   0  0  0  0  0  0  0  0  0  0  0  0
   32.7910    9.2025   29.7675 N   0  0  0  0  0  0  0  0  0  0  0  0
   32.2621    7.0905   30.1858 N   0  0  0  0  0  0  0  0  0  0  0  0
   28.0833    8.7180   30.4108 C   0  0  0  0  0  0  0  0  0  0  0  0
   25.8759    9.0592   30.3803 C   0  0  0  0  0  0  0  0  0  0  0  0
   27.6895    9.3978   29.2646 C   0  0  0  0  0  0  0  0  0  0  0  0
   30.3752    8.7088   29.7008 C   0  0  0  0  0  0  0  0  0  0  0  0
   33.6267    7.1686   30.3514 C   0  0  0  0  0  0  0  0  0  0  0  0
   33.9253    8.4974   30.0715 C   0  0  0  0  0  0  0  0  0  0  0  0
   29.4157    8.3661   30.6650 C   0  0  0  0  0  0  0  0  0  0  0  0
   27.1675    1.1527   32.4798 C   0  0  0  0  0  0  0  0  0  0  0  0
   28.6486    9.7748   28.3044 C   0  0  0  0  0  0  0  0  0  0  0  0
   26.1012    2.0599   32.3101 C   0  0  0  0  0  0  0  0  0  0  0  0
   28.5440    1.6252   32.7796 C   0  0  0  0  0  0  0  0  0  0  0  0
   29.9925    9.4203   28.5547 C   0  0  0  0  0  0  0  0  0  0  0  0
   26.8183    7.8327   32.3957 C   0  0  0  0  0  0  0  0  0  0  0  0
   26.2733    3.5171   32.3175 C   0  0  0  0  0  0  0  0  0  0  0  0
   28.8732    2.5812   33.4534 O   0  0  0  0  0  0  0  0  0  0  0  0
   25.9820    4.2748   33.4580 C   0  0  0  0  0  0  0  0  0  0  0  0
   26.7213    4.1852   31.1715 C   0  0  0  0  0  0  0  0  0  0  0  0
   26.6033    6.3365   32.3093 C   0  0  0  0  0  0  0  0  0  0  0  0
   31.4894    5.8727   30.2580 C   0  0  0  0  0  0  0  0  0  0  0  0
   29.4705    0.8394   32.1976 O   0  0  0  0  0  0  0  0  0  0  0  0
   24.4354    9.0472   30.7821 C   0  0  0  0  0  0  0  0  0  0  0  0
   26.8899    5.5736   31.1680 C   0  0  0  0  0  0  0  0  0  0  0  0
   26.1512    5.6636   33.4556 C   0  0  0  0  0  0  0  0  0  0  0  0
   34.6086    6.2329   30.7002 C   0  0  0  0  0  0  0  0  0  0  0  0
   35.2575    8.9343   30.1282 C   0  0  0  0  0  0  0  0  0  0  0  0
   26.9362   -0.2327   32.4024 C   0  0  0  0  0  0  0  0  0  0  0  0
   24.8143    1.5366   32.0748 C   0  0  0  0  0  0  0  0  0  0  0  0
   28.3050   10.5272   27.0535 C   0  0  0  0  0  0  0  0  0  0  0  0
   23.7152    7.8037   30.2606 C   0  0  0  0  0  0  0  0  0  0  0  0
   35.9319    6.6875   30.7589 C   0  0  0  0  0  0  0  0  0  0  0  0
   25.6538   -0.7250   32.1623 C   0  0  0  0  0  0  0  0  0  0  0  0
   24.5922    0.1594   32.0028 C   0  0  0  0  0  0  0  0  0  0  0  0
   36.2546    8.0155   30.4758 C   0  0  0  0  0  0  0  0  0  0  0  0
   22.2340    7.8346   30.6044 C   0  0  0  0  0  0  0  0  0  0  0  0
   29.6958    7.8475   31.5755 H   0  0  0  0  0  0  0  0  0  0  0  0
   30.7587    9.7061   27.8332 H   0  0  0  0  0  0  0  0  0  0  0  0
   27.7455    8.0338   32.9445 H   0  0  0  0  0  0  0  0  0  0  0  0
   26.0072    8.3042   32.9597 H   0  0  0  0  0  0  0  0  0  0  0  0
   25.6398    3.7822   34.3660 H   0  0  0  0  0  0  0  0  0  0  0  0
   26.9468    3.6254   30.2659 H   0  0  0  0  0  0  0  0  0  0  0  0
   31.1746    5.7258   31.2941 H   0  0  0  0  0  0  0  0  0  0  0  0
   32.1074    5.0328   29.9293 H   0  0  0  0  0  0  0  0  0  0  0  0
   30.6238    5.9407   29.5952 H   0  0  0  0  0  0  0  0  0  0  0  0
   30.3212    1.2361   32.4837 H   0  0  0  0  0  0  0  0  0  0  0  0
   24.3290    9.1186   31.8688 H   0  0  0  0  0  0  0  0  0  0  0  0
   23.9569    9.9451   30.3696 H   0  0  0  0  0  0  0  0  0  0  0  0
   27.2418    6.0357   30.2491 H   0  0  0  0  0  0  0  0  0  0  0  0
   25.9327    6.2159   34.3683 H   0  0  0  0  0  0  0  0  0  0  0  0
   34.3666    5.1995   30.9198 H   0  0  0  0  0  0  0  0  0  0  0  0
   35.4974    9.9695   29.9097 H   0  0  0  0  0  0  0  0  0  0  0  0
   27.7561   -0.9350   32.5365 H   0  0  0  0  0  0  0  0  0  0  0  0
   23.9715    2.2121   31.9342 H   0  0  0  0  0  0  0  0  0  0  0  0
   27.2254   10.6852   26.9653 H   0  0  0  0  0  0  0  0  0  0  0  0
   28.7929   11.5071   27.0579 H   0  0  0  0  0  0  0  0  0  0  0  0
   28.6368    9.9672   26.1730 H   0  0  0  0  0  0  0  0  0  0  0  0
   24.1584    6.8993   30.6908 H   0  0  0  0  0  0  0  0  0  0  0  0
   23.8308    7.7267   29.1722 H   0  0  0  0  0  0  0  0  0  0  0  0
   36.7236    5.9916   31.0293 H   0  0  0  0  0  0  0  0  0  0  0  0
   25.4837   -1.7970   32.1031 H   0  0  0  0  0  0  0  0  0  0  0  0
   23.5895   -0.2197   31.8159 H   0  0  0  0  0  0  0  0  0  0  0  0
   37.2898    8.3434   30.5260 H   0  0  0  0  0  0  0  0  0  0  0  0
   21.7394    8.6889   30.1295 H   0  0  0  0  0  0  0  0  0  0  0  0
   21.7446    6.9208   30.2501 H   0  0  0  0  0  0  0  0  0  0  0  0
   22.0834    7.8994   31.6867 H   0  0  0  0  0  0  0  0  0  0  0  0
  2  6  1  0
  3  8  1  0
  4  1  2  0
  5  1  1  0
  6 12  2  0
  7  2  1  0
  8 14  2  0
  9  1  1  0
 10  5  1  0
 11  4  1  0
 12  9  1  0
 13 15  2  0
 14 17  1  0
 15 19  1  0
 16 13  1  0
 17  9  2  0
 18  2  1  0
 19 21  2  0
 20 16  2  0
 21 28  1  0
 22 27  2  0
 23 18  1  0
 24  5  1  0
 25 16  1  0
 26  7  1  0
 27 23  1  0
 28 23  2  0
 29 10  2  0
 30 11  2  0
 31 13  1  0
 32 15  1  0
 33 14  1  0
 34 26  1  0
 35 29  1  0
 36 37  1  0
 37 32  2  0
 38 30  1  0
 39 34  1  0
 10 11  1  0
  8  6  1  0
 35 38  2  0
  3  7  2  0
 19 22  1  0
 36 31  2  0
 12 40  1  0
 17 41  1  0
 18 42  1  0
 18 43  1  0
 21 44  1  0
 22 45  1  0
 24 46  1  0
 24 47  1  0
 24 48  1  0
 25 49  1  0
 26 50  1  0
 26 51  1  0
 27 52  1  0
 28 53  1  0
 29 54  1  0
 30 55  1  0
 31 56  1  0
 32 57  1  0
 33 58  1  0
 33 59  1  0
 33 60  1  0
 34 61  1  0
 34 62  1  0
 35 63  1  0
 36 64  1  0
 37 65  1  0
 38 66  1  0
 39 67  1  0
 39 68  1  0
 39 69  1  0
M  END
> <Uni-Dock RESULT> 
ENERGY=   -4.425  LOWER_BOUND=    2.615  UPPER_BOUND=    3.287
INTER + INTRA:          -4.425
INTER:                  -4.425
INTRA:                   0.000
UNBOUND:                 0.000

$$$$

     RDKit          3D

 69 74  0  0  0  0  0  0  0  0999 V2000
   24.5910    5.7959   31.5479 C   0  0  0  0  0  0  0  0  0  0  0  0
   23.8578   10.0826   29.0248 N   0  0  0  0  0  0  0  0  0  0  0  0
   22.5798   10.9672   30.6050 N   0  0  0  0  0  0  0  0  0  0  0  0
   23.8804    4.7454   31.9197 N   0  0  0  0  0  0  0  0  0  0  0  0
   25.9241    5.4490   31.4261 N   0  0  0  0  0  0  0  0  0  0  0  0
   23.7635    9.1229   30.0132 C   0  0  0  0  0  0  0  0  0  0  0  0
   23.1249   11.1808   29.4236 C   0  0  0  0  0  0  0  0  0  0  0  0
   22.9629    9.7059   30.9880 C   0  0  0  0  0  0  0  0  0  0  0  0
   24.0366    7.1351   31.3289 C   0  0  0  0  0  0  0  0  0  0  0  0
   26.0427    4.0945   31.6421 C   0  0  0  0  0  0  0  0  0  0  0  0
   24.7512    3.6887   31.9592 C   0  0  0  0  0  0  0  0  0  0  0  0
   24.3086    7.8389   30.1463 C   0  0  0  0  0  0  0  0  0  0  0  0
   31.2540   10.5586   27.9677 C   0  0  0  0  0  0  0  0  0  0  0  0
   22.6573    8.9963   32.1658 C   0  0  0  0  0  0  0  0  0  0  0  0
   30.2014   11.4842   27.8126 C   0  0  0  0  0  0  0  0  0  0  0  0
   30.9931    9.0979   28.0478 C   0  0  0  0  0  0  0  0  0  0  0  0
   23.2063    7.7028   32.3058 C   0  0  0  0  0  0  0  0  0  0  0  0
   24.5973    9.9225   27.7796 C   0  0  0  0  0  0  0  0  0  0  0  0
   28.7846   11.1024   27.8155 C   0  0  0  0  0  0  0  0  0  0  0  0
   30.1367    8.4611   27.4667 O   0  0  0  0  0  0  0  0  0  0  0  0
   28.0708   10.9595   26.6197 C   0  0  0  0  0  0  0  0  0  0  0  0
   28.1098   10.8860   29.0230 C   0  0  0  0  0  0  0  0  0  0  0  0
   26.0416   10.3723   27.8418 C   0  0  0  0  0  0  0  0  0  0  0  0
   27.0280    6.3454   31.1747 C   0  0  0  0  0  0  0  0  0  0  0  0
   31.8574    8.4899   28.8833 O   0  0  0  0  0  0  0  0  0  0  0  0
   22.9678   12.4447   28.6399 C   0  0  0  0  0  0  0  0  0  0  0  0
   26.7599   10.5206   29.0371 C   0  0  0  0  0  0  0  0  0  0  0  0
   26.7207   10.5932   26.6329 C   0  0  0  0  0  0  0  0  0  0  0  0
   27.1237    3.2050   31.6026 C   0  0  0  0  0  0  0  0  0  0  0  0
   24.5036    2.3411   32.2616 C   0  0  0  0  0  0  0  0  0  0  0  0
   32.5871   11.0049   28.0139 C   0  0  0  0  0  0  0  0  0  0  0  0
   30.5289   12.8497   27.6966 C   0  0  0  0  0  0  0  0  0  0  0  0
   21.7848    9.5490   33.2531 C   0  0  0  0  0  0  0  0  0  0  0  0
   24.0653   13.4551   28.9740 C   0  0  0  0  0  0  0  0  0  0  0  0
   26.8575    1.8627   31.9000 C   0  0  0  0  0  0  0  0  0  0  0  0
   32.8843   12.3629   27.9028 C   0  0  0  0  0  0  0  0  0  0  0  0
   31.8556   13.2847   27.7399 C   0  0  0  0  0  0  0  0  0  0  0  0
   25.5698    1.4350   32.2269 C   0  0  0  0  0  0  0  0  0  0  0  0
   23.8566   14.7670   28.2336 C   0  0  0  0  0  0  0  0  0  0  0  0
   24.9190    7.4037   29.3624 H   0  0  0  0  0  0  0  0  0  0  0  0
   22.9803    7.1260   33.2033 H   0  0  0  0  0  0  0  0  0  0  0  0
   24.5602    8.8625   27.5033 H   0  0  0  0  0  0  0  0  0  0  0  0
   24.0582   10.4721   27.0014 H   0  0  0  0  0  0  0  0  0  0  0  0
   28.5709   11.1133   25.6656 H   0  0  0  0  0  0  0  0  0  0  0  0
   28.6344   10.9988   29.9698 H   0  0  0  0  0  0  0  0  0  0  0  0
   27.1985    6.3873   30.0961 H   0  0  0  0  0  0  0  0  0  0  0  0
   27.9206    5.9706   31.6829 H   0  0  0  0  0  0  0  0  0  0  0  0
   26.8000    7.3377   31.5705 H   0  0  0  0  0  0  0  0  0  0  0  0
   31.5993    7.5445   28.8333 H   0  0  0  0  0  0  0  0  0  0  0  0
   22.9541   12.2423   27.5647 H   0  0  0  0  0  0  0  0  0  0  0  0
   21.9883   12.8781   28.8808 H   0  0  0  0  0  0  0  0  0  0  0  0
   26.2905   10.3651   30.0052 H   0  0  0  0  0  0  0  0  0  0  0  0
   26.2049   10.4729   25.6814 H   0  0  0  0  0  0  0  0  0  0  0  0
   28.1269    3.5294   31.3514 H   0  0  0  0  0  0  0  0  0  0  0  0
   23.4983    2.0182   32.5112 H   0  0  0  0  0  0  0  0  0  0  0  0
   33.4014   10.2929   28.1297 H   0  0  0  0  0  0  0  0  0  0  0  0
   29.7377   13.5894   27.5813 H   0  0  0  0  0  0  0  0  0  0  0  0
   21.4765   10.5765   33.0355 H   0  0  0  0  0  0  0  0  0  0  0  0
   20.8825    8.9383   33.3585 H   0  0  0  0  0  0  0  0  0  0  0  0
   22.3257    9.5539   34.2053 H   0  0  0  0  0  0  0  0  0  0  0  0
   25.0477   13.0516   28.7066 H   0  0  0  0  0  0  0  0  0  0  0  0
   24.0858   13.6500   30.0536 H   0  0  0  0  0  0  0  0  0  0  0  0
   27.6705    1.1397   31.8771 H   0  0  0  0  0  0  0  0  0  0  0  0
   33.9171   12.6997   27.9403 H   0  0  0  0  0  0  0  0  0  0  0  0
   32.0822   14.3454   27.6522 H   0  0  0  0  0  0  0  0  0  0  0  0
   25.3893    0.3879   32.4564 H   0  0  0  0  0  0  0  0  0  0  0  0
   22.9138   15.2390   28.5311 H   0  0  0  0  0  0  0  0  0  0  0  0
   24.6704   15.4638   28.4623 H   0  0  0  0  0  0  0  0  0  0  0  0
   23.8430   14.6089   27.1505 H   0  0  0  0  0  0  0  0  0  0  0  0
  2  6  1  0
  3  8  1  0
  4  1  2  0
  5  1  1  0
  6 12  2  0
  7  2  1  0
  8 14  2  0
  9  1  1  0
 10  5  1  0
 11  4  1  0
 12  9  1  0
 13 15  2  0
 14 17  1  0
 15 19  1  0
 16 13  1  0
 17  9  2  0
 18  2  1  0
 19 21  2  0
 20 16  2  0
 21 28  1  0
 22 27  2  0
 23 18  1  0
 24  5  1  0
 25 16  1  0
 26  7  1  0
 27 23  1  0
 28 23  2  0
 29 10  2  0
 30 11  2  0
 31 13  1  0
 32 15  1  0
 33 14  1  0
 34 26  1  0
 35 29  1  0
 36 37  1  0
 37 32  2  0
 38 30  1  0
 39 34  1  0
 10 11  1  0
  8  6  1  0
 35 38  2  0
  3  7  2  0
 19 22  1  0
 36 31  2  0
 12 40  1  0
 17 41  1  0
 18 42  1  0
 18 43  1  0
 21 44  1  0
 22 45  1  0
 24 46  1  0
 24 47  1  0
 24 48  1  0
 25 49  1  0
 26 50  1  0
 26 51  1  0
 27 52  1  0
 28 53  1  0
 29 54  1  0
 30 55  1  0
 31 56  1  0
 32 57  1  0
 33 58  1  0
 33 59  1  0
 33 60  1  0
 34 61  1  0
 34 62  1  0
 35 63  1  0
 36 64  1  0
 37 65  1  0
 38 66  1  0
 39 67  1  0
 39 68  1  0
 39 69  1  0
M  END
> <Uni-Dock RESULT> 
ENERGY=   -4.312  LOWER_BOUND=    2.891  UPPER_BOUND=    8.682
INTER + INTRA:          -4.312
INTER:                  -4.312
INTRA:                   0.000
UNBOUND:                 0.000

$$$$

     RDKit          3D

 69 74  0  0  0  0  0  0  0  0999 V2000
   23.8153    7.7834   30.1026 C   0  0  0  0  0  0  0  0  0  0  0  0
   25.9554   11.4897   27.4640 N   0  0  0  0  0  0  0  0  0  0  0  0
   24.4586   12.9999   28.0901 N   0  0  0  0  0  0  0  0  0  0  0  0
   22.7026    7.0712   30.0646 N   0  0  0  0  0  0  0  0  0  0  0  0
   24.8197    7.0629   30.7227 N   0  0  0  0  0  0  0  0  0  0  0  0
   25.0605   10.8189   28.2740 C   0  0  0  0  0  0  0  0  0  0  0  0
   25.5516   12.8057   27.3787 C   0  0  0  0  0  0  0  0  0  0  0  0
   24.1403   11.7888   28.6526 C   0  0  0  0  0  0  0  0  0  0  0  0
   23.9427    9.1487   29.5847 C   0  0  0  0  0  0  0  0  0  0  0  0
   24.3408    5.8034   31.0052 C   0  0  0  0  0  0  0  0  0  0  0  0
   23.0138    5.8462   30.5926 C   0  0  0  0  0  0  0  0  0  0  0  0
   24.9873    9.4901   28.7129 C   0  0  0  0  0  0  0  0  0  0  0  0
   32.5433    9.6668   30.5176 C   0  0  0  0  0  0  0  0  0  0  0  0
   23.0693   11.4504   29.5026 C   0  0  0  0  0  0  0  0  0  0  0  0
   32.0991   10.7955   29.7983 C   0  0  0  0  0  0  0  0  0  0  0  0
   31.7923    8.3850   30.4851 C   0  0  0  0  0  0  0  0  0  0  0  0
   22.9924   10.1130   29.9497 C   0  0  0  0  0  0  0  0  0  0  0  0
   27.1064   10.8779   26.8129 C   0  0  0  0  0  0  0  0  0  0  0  0
   30.8358   10.8308   29.0526 C   0  0  0  0  0  0  0  0  0  0  0  0
   31.1773    7.9053   29.5534 O   0  0  0  0  0  0  0  0  0  0  0  0
   30.8088   10.6485   27.6649 C   0  0  0  0  0  0  0  0  0  0  0  0
   29.6254   11.0637   29.7167 C   0  0  0  0  0  0  0  0  0  0  0  0
   28.3829   10.9121   27.6263 C   0  0  0  0  0  0  0  0  0  0  0  0
   26.1336    7.5460   31.0770 C   0  0  0  0  0  0  0  0  0  0  0  0
   31.8591    7.7467   31.6696 O   0  0  0  0  0  0  0  0  0  0  0  0
   26.2495   13.8740   26.5988 C   0  0  0  0  0  0  0  0  0  0  0  0
   28.4155   11.0982   29.0160 C   0  0  0  0  0  0  0  0  0  0  0  0
   29.5989   10.6820   26.9632 C   0  0  0  0  0  0  0  0  0  0  0  0
   24.9165    4.6606   31.5745 C   0  0  0  0  0  0  0  0  0  0  0  0
   22.2025    4.7126   30.7519 C   0  0  0  0  0  0  0  0  0  0  0  0
   33.7378    9.7253   31.2581 C   0  0  0  0  0  0  0  0  0  0  0  0
   32.8882   11.9621   29.8386 C   0  0  0  0  0  0  0  0  0  0  0  0
   22.0256   12.4350   29.9386 C   0  0  0  0  0  0  0  0  0  0  0  0
   27.3078   14.5865   27.4410 C   0  0  0  0  0  0  0  0  0  0  0  0
   24.0946    3.5361   31.7195 C   0  0  0  0  0  0  0  0  0  0  0  0
   34.4976   10.8943   31.2867 C   0  0  0  0  0  0  0  0  0  0  0  0
   34.0750   12.0112   30.5735 C   0  0  0  0  0  0  0  0  0  0  0  0
   22.7582    3.5593   31.3178 C   0  0  0  0  0  0  0  0  0  0  0  0
   27.9595   15.7230   26.6687 C   0  0  0  0  0  0  0  0  0  0  0  0
   25.7122    8.7509   28.3895 H   0  0  0  0  0  0  0  0  0  0  0  0
   22.1693    9.8193   30.6020 H   0  0  0  0  0  0  0  0  0  0  0  0
   26.8483    9.8366   26.5885 H   0  0  0  0  0  0  0  0  0  0  0  0
   27.2506   11.3829   25.8524 H   0  0  0  0  0  0  0  0  0  0  0  0
   31.7328   10.4575   27.1229 H   0  0  0  0  0  0  0  0  0  0  0  0
   29.6143   11.2190   30.7938 H   0  0  0  0  0  0  0  0  0  0  0  0
   26.8177    7.3159   30.2566 H   0  0  0  0  0  0  0  0  0  0  0  0
   26.4652    7.0514   31.9941 H   0  0  0  0  0  0  0  0  0  0  0  0
   26.0977    8.6220   31.2624 H   0  0  0  0  0  0  0  0  0  0  0  0
   31.3522    6.9208   31.5148 H   0  0  0  0  0  0  0  0  0  0  0  0
   26.7008   13.4664   25.6891 H   0  0  0  0  0  0  0  0  0  0  0  0
   25.4980   14.6020   26.2661 H   0  0  0  0  0  0  0  0  0  0  0  0
   27.5084   11.2819   29.5862 H   0  0  0  0  0  0  0  0  0  0  0  0
   29.6167   10.5163   25.8872 H   0  0  0  0  0  0  0  0  0  0  0  0
   25.9529    4.6349   31.8907 H   0  0  0  0  0  0  0  0  0  0  0  0
   21.1657    4.7399   30.4332 H   0  0  0  0  0  0  0  0  0  0  0  0
   34.0848    8.8551   31.8110 H   0  0  0  0  0  0  0  0  0  0  0  0
   32.5687   12.8520   29.2978 H   0  0  0  0  0  0  0  0  0  0  0  0
   22.2412   13.4400   29.5620 H   0  0  0  0  0  0  0  0  0  0  0  0
   21.0432   12.1339   29.5611 H   0  0  0  0  0  0  0  0  0  0  0  0
   21.9877   12.4856   31.0319 H   0  0  0  0  0  0  0  0  0  0  0  0
   28.0849   13.8802   27.7519 H   0  0  0  0  0  0  0  0  0  0  0  0
   26.8571   14.9861   28.3581 H   0  0  0  0  0  0  0  0  0  0  0  0
   24.5055    2.6274   32.1549 H   0  0  0  0  0  0  0  0  0  0  0  0
   35.4190   10.9316   31.8621 H   0  0  0  0  0  0  0  0  0  0  0  0
   34.6646   12.9256   30.5921 H   0  0  0  0  0  0  0  0  0  0  0  0
   22.1399    2.6740   31.4432 H   0  0  0  0  0  0  0  0  0  0  0  0
   27.2227   16.4887   26.4024 H   0  0  0  0  0  0  0  0  0  0  0  0
   28.7356   16.1982   27.2785 H   0  0  0  0  0  0  0  0  0  0  0  0
   28.4301   15.3553   25.7512 H   0  0  0  0  0  0  0  0  0  0  0  0
  2  6  1  0
  3  8  1  0
  4  1  2  0
  5  1  1  0
  6 12  2  0
  7  2  1  0
  8 14  2  0
  9  1  1  0
 10  5  1  0
 11  4  1  0
 12  9  1  0
 13 15  2  0
 14 17  1  0
 15 19  1  0
 16 13  1  0
 17  9  2  0
 18  2  1  0
 19 21  2  0
 20 16  2  0
 21 28  1  0
 22 27  2  0
 23 18  1  0
 24  5  1  0
 25 16  1  0
 26  7  1  0
 27 23  1  0
 28 23  2  0
 29 10  2  0
 30 11  2  0
 31 13  1  0
 32 15  1  0
 33 14  1  0
 34 26  1  0
 35 29  1  0
 36 37  1  0
 37 32  2  0
 38 30  1  0
 39 34  1  0
 10 11  1  0
  8  6  1  0
 35 38  2  0
  3  7  2  0
 19 22  1  0
 36 31  2  0
 12 40  1  0
 17 41  1  0
 18 42  1  0
 18 43  1  0
 21 44  1  0
 22 45  1  0
 24 46  1  0
 24 47  1  0
 24 48  1  0
 25 49  1  0
 26 50  1  0
 26 51  1  0
 27 52  1  0
 28 53  1  0
 29 54  1  0
 30 55  1  0
 31 56  1  0
 32 57  1  0
 33 58  1  0
 33 59  1  0
 33 60  1  0
 34 61  1  0
 34 62  1  0
 35 63  1  0
 36 64  1  0
 37 65  1  0
 38 66  1  0
 39 67  1  0
 39 68  1  0
 39 69  1  0
M  END
> <Uni-Dock RESULT> 
ENERGY=   -4.300  LOWER_BOUND=    3.631  UPPER_BOUND=    8.544
INTER + INTRA:          -4.300
INTER:                  -4.300
INTRA:                   0.000
UNBOUND:                 0.000

$$$$

     RDKit          3D

 69 74  0  0  0  0  0  0  0  0999 V2000
   23.1432   10.0000   29.9654 C   0  0  0  0  0  0  0  0  0  0  0  0
   26.6074    6.9497   31.9588 N   0  0  0  0  0  0  0  0  0  0  0  0
   25.4209    5.1151   31.5857 N   0  0  0  0  0  0  0  0  0  0  0  0
   21.9245   10.4201   30.2575 N   0  0  0  0  0  0  0  0  0  0  0  0
   23.7949   10.9379   29.1857 N   0  0  0  0  0  0  0  0  0  0  0  0
   25.4304    7.3753   31.3754 C   0  0  0  0  0  0  0  0  0  0  0  0
   26.5579    5.5758   32.0687 C   0  0  0  0  0  0  0  0  0  0  0  0
   24.7121    6.2072   31.1505 C   0  0  0  0  0  0  0  0  0  0  0  0
   23.6986    8.7114   30.3891 C   0  0  0  0  0  0  0  0  0  0  0  0
   22.9800   12.0404   29.0589 C   0  0  0  0  0  0  0  0  0  0  0  0
   21.8167   11.6793   29.7293 C   0  0  0  0  0  0  0  0  0  0  0  0
   24.9514    8.6423   31.0165 C   0  0  0  0  0  0  0  0  0  0  0  0
   31.7886   10.2952   27.7148 C   0  0  0  0  0  0  0  0  0  0  0  0
   23.4395    6.2672   30.5496 C   0  0  0  0  0  0  0  0  0  0  0  0
   31.7867    9.0986   28.4612 C   0  0  0  0  0  0  0  0  0  0  0  0
   30.7753   11.3557   27.9523 C   0  0  0  0  0  0  0  0  0  0  0  0
   22.9533    7.5416   30.1838 C   0  0  0  0  0  0  0  0  0  0  0  0
   27.6867    7.8291   32.3887 C   0  0  0  0  0  0  0  0  0  0  0  0
   30.7507    8.7633   29.4448 C   0  0  0  0  0  0  0  0  0  0  0  0
   30.2691   11.6794   29.0084 O   0  0  0  0  0  0  0  0  0  0  0  0
   30.9678    8.9458   30.8158 C   0  0  0  0  0  0  0  0  0  0  0  0
   29.5215    8.2369   29.0301 C   0  0  0  0  0  0  0  0  0  0  0  0
   28.7379    8.0996   31.3332 C   0  0  0  0  0  0  0  0  0  0  0  0
   25.0841   10.7862   28.5529 C   0  0  0  0  0  0  0  0  0  0  0  0
   30.4409   11.9806   26.8066 O   0  0  0  0  0  0  0  0  0  0  0  0
   27.6373    4.7166   32.6459 C   0  0  0  0  0  0  0  0  0  0  0  0
   28.5267    7.9149   29.9591 C   0  0  0  0  0  0  0  0  0  0  0  0
   29.9729    8.6248   31.7456 C   0  0  0  0  0  0  0  0  0  0  0  0
   23.1343   13.2838   28.4334 C   0  0  0  0  0  0  0  0  0  0  0  0
   20.7421   12.5797   29.7851 C   0  0  0  0  0  0  0  0  0  0  0  0
   32.7829   10.5227   26.7462 C   0  0  0  0  0  0  0  0  0  0  0  0
   32.8069    8.1590   28.2132 C   0  0  0  0  0  0  0  0  0  0  0  0
   22.5959    5.0542   30.2929 C   0  0  0  0  0  0  0  0  0  0  0  0
   28.6384    4.2759   31.5779 C   0  0  0  0  0  0  0  0  0  0  0  0
   22.0547   14.1730   28.5049 C   0  0  0  0  0  0  0  0  0  0  0  0
   33.7783    9.5737   26.5156 C   0  0  0  0  0  0  0  0  0  0  0  0
   33.7928    8.3939   27.2520 C   0  0  0  0  0  0  0  0  0  0  0  0
   20.8756   13.8286   29.1673 C   0  0  0  0  0  0  0  0  0  0  0  0
   29.6888    3.3391   32.1541 C   0  0  0  0  0  0  0  0  0  0  0  0
   25.5283    9.5386   31.2173 H   0  0  0  0  0  0  0  0  0  0  0  0
   21.9674    7.6202   29.7243 H   0  0  0  0  0  0  0  0  0  0  0  0
   27.2383    8.7782   32.7041 H   0  0  0  0  0  0  0  0  0  0  0  0
   28.1430    7.3829   33.2781 H   0  0  0  0  0  0  0  0  0  0  0  0
   31.9103    9.3607   31.1671 H   0  0  0  0  0  0  0  0  0  0  0  0
   29.3259    8.0740   27.9720 H   0  0  0  0  0  0  0  0  0  0  0  0
   25.8471   11.1831   29.2270 H   0  0  0  0  0  0  0  0  0  0  0  0
   25.0906   11.3386   27.6094 H   0  0  0  0  0  0  0  0  0  0  0  0
   25.2700    9.7323   28.3338 H   0  0  0  0  0  0  0  0  0  0  0  0
   29.7939   12.6595   27.0952 H   0  0  0  0  0  0  0  0  0  0  0  0
   28.1553    5.2298   33.4617 H   0  0  0  0  0  0  0  0  0  0  0  0
   27.1679    3.8304   33.0929 H   0  0  0  0  0  0  0  0  0  0  0  0
   27.5927    7.5108   29.5769 H   0  0  0  0  0  0  0  0  0  0  0  0
   30.1722    8.7993   32.8018 H   0  0  0  0  0  0  0  0  0  0  0  0
   24.0459   13.5583   27.9155 H   0  0  0  0  0  0  0  0  0  0  0  0
   19.8310   12.3036   30.3055 H   0  0  0  0  0  0  0  0  0  0  0  0
   32.7891   11.4464   26.1715 H   0  0  0  0  0  0  0  0  0  0  0  0
   32.8291    7.2229   28.7697 H   0  0  0  0  0  0  0  0  0  0  0  0
   23.1194    4.1354   30.5756 H   0  0  0  0  0  0  0  0  0  0  0  0
   21.6697    5.1103   30.8736 H   0  0  0  0  0  0  0  0  0  0  0  0
   22.3465    4.9863   29.2288 H   0  0  0  0  0  0  0  0  0  0  0  0
   29.1418    5.1474   31.1461 H   0  0  0  0  0  0  0  0  0  0  0  0
   28.1175    3.7705   30.7550 H   0  0  0  0  0  0  0  0  0  0  0  0
   22.1366   15.1506   28.0339 H   0  0  0  0  0  0  0  0  0  0  0  0
   34.5426    9.7569   25.7647 H   0  0  0  0  0  0  0  0  0  0  0  0
   34.5677    7.6505   27.0762 H   0  0  0  0  0  0  0  0  0  0  0  0
   20.0507   14.5355   29.2068 H   0  0  0  0  0  0  0  0  0  0  0  0
   29.2287    2.4194   32.5316 H   0  0  0  0  0  0  0  0  0  0  0  0
   30.4132    3.0618   31.3805 H   0  0  0  0  0  0  0  0  0  0  0  0
   30.2363    3.8184   32.9720 H   0  0  0  0  0  0  0  0  0  0  0  0
  2  6  1  0
  3  8  1  0
  4  1  2  0
  5  1  1  0
  6 12  2  0
  7  2  1  0
  8 14  2  0
  9  1  1  0
 10  5  1  0
 11  4  1  0
 12  9  1  0
 13 15  2  0
 14 17  1  0
 15 19  1  0
 16 13  1  0
 17  9  2  0
 18  2  1  0
 19 21  2  0
 20 16  2  0
 21 28  1  0
 22 27  2  0
 23 18  1  0
 24  5  1  0
 25 16  1  0
 26  7  1  0
 27 23  1  0
 28 23  2  0
 29 10  2  0
 30 11  2  0
 31 13  1  0
 32 15  1  0
 33 14  1  0
 34 26  1  0
 35 29  1  0
 36 37  1  0
 37 32  2  0
 38 30  1  0
 39 34  1  0
 10 11  1  0
  8  6  1  0
 35 38  2  0
  3  7  2  0
 19 22  1  0
 36 31  2  0
 12 40  1  0
 17 41  1  0
 18 42  1  0
 18 43  1  0
 21 44  1  0
 22 45  1  0
 24 46  1  0
 24 47  1  0
 24 48  1  0
 25 49  1  0
 26 50  1  0
 26 51  1  0
 27 52  1  0
 28 53  1  0
 29 54  1  0
 30 55  1  0
 31 56  1  0
 32 57  1  0
 33 58  1  0
 33 59  1  0
 33 60  1  0
 34 61  1  0
 34 62  1  0
 35 63  1  0
 36 64  1  0
 37 65  1  0
 38 66  1  0
 39 67  1  0
 39 68  1  0
 39 69  1  0
M  END
> <Uni-Dock RESULT> 
ENERGY=   -4.240  LOWER_BOUND=    3.116  UPPER_BOUND=    7.721
INTER + INTRA:          -4.240
INTER:                  -4.240
INTRA:                   0.000
UNBOUND:                 0.000

$$$$
