
     RDKit          3D

 68 69  0  0  0  0  0  0  0  0999 V2000
   -1.0261    0.7473   -0.8272 C   0  0  0  0  0  0  0  0  0  0  0  0
    1.1124   -0.1780    1.0131 C   0  0  0  0  0  0  0  0  0  0  0  0
    0.3741   -1.0650    0.1085 C   0  0  0  0  0  0  0  0  0  0  0  0
   -0.6351   -0.6574   -0.6712 C   0  0  0  0  0  0  0  0  0  0  0  0
    0.6695    0.7379    1.6758 O   0  0  0  0  0  0  0  0  0  0  0  0
   -0.2975    1.7173   -0.8741 O   0  0  0  0  0  0  0  0  0  0  0  0
   -2.3564    0.8338   -0.9788 O   0  0  0  0  0  0  0  0  0  0  0  0
    2.3984   -0.5559    1.0698 O   0  0  0  0  0  0  0  0  0  0  0  0
   -0.3549    0.1526    0.5900 C   0  0  0  0  0  0  0  0  0  0  0  0
   -1.0368    1.4654    0.4077 C   0  0  0  0  0  0  0  0  0  0  0  0
   -1.1750   -1.0492    0.8789 C   0  0  0  0  0  0  0  0  0  0  0  0
    0.9855    0.0049    0.3898 C   0  0  0  0  0  0  0  0  0  0  0  0
    3.8886   -0.4044   -0.4122 N   0  0  0  0  0  0  0  0  0  0  0  0
   -0.5578    2.4723    1.1876 N   0  0  0  0  0  0  0  0  0  0  0  0
   -2.1309    1.6359   -0.4541 C   0  0  0  0  0  0  0  0  0  0  0  0
   -2.0385   -1.5364   -0.1170 C   0  0  0  0  0  0  0  0  0  0  0  0
    1.9239    1.1484    0.0142 C   0  0  0  0  0  0  0  0  0  0  0  0
    1.7117   -1.3379    0.4328 C   0  0  0  0  0  0  0  0  0  0  0  0
   -2.1274   -0.8142   -1.4380 C   0  0  0  0  0  0  0  0  0  0  0  0
   -2.7868    0.5626   -1.3000 C   0  0  0  0  0  0  0  0  0  0  0  0
    2.8199   -1.3943   -0.6313 C   0  0  0  0  0  0  0  0  0  0  0  0
    3.4037    0.8080    0.2680 C   0  0  0  0  0  0  0  0  0  0  0  0
   -1.1154   -1.6827    2.1265 C   0  0  0  0  0  0  0  0  0  0  0  0
    4.5701   -0.0938   -1.6655 C   0  0  0  0  0  0  0  0  0  0  0  0
   -1.1458    3.6818    1.1013 C   0  0  0  0  0  0  0  0  0  0  0  0
   -2.7098    2.9176   -0.5072 C   0  0  0  0  0  0  0  0  0  0  0  0
   -2.8167   -2.6716    0.1434 C   0  0  0  0  0  0  0  0  0  0  0  0
   -2.2129    3.9541    0.2724 C   0  0  0  0  0  0  0  0  0  0  0  0
   -1.8953   -2.8115    2.3758 C   0  0  0  0  0  0  0  0  0  0  0  0
   -2.7415   -3.3066    1.3845 C   0  0  0  0  0  0  0  0  0  0  0  0
    1.3053   -0.3155   -0.4332 C   0  0  0  0  0  0  0  0  0  0  0  0
   -1.6637   -0.0162   -0.0981 C   0  0  0  0  0  0  0  0  0  0  0  0
   -0.6911    1.0613    0.0970 C   0  0  0  0  0  0  0  0  0  0  0  0
    0.6371    0.9216   -0.0081 C   0  0  0  0  0  0  0  0  0  0  0  0
   -2.6789    0.0725   -0.7620 O   0  0  0  0  0  0  0  0  0  0  0  0
    0.8479   -1.2293   -1.0893 O   0  0  0  0  0  0  0  0  0  0  0  0
    2.5832   -0.3002   -0.0212 O   0  0  0  0  0  0  0  0  0  0  0  0
   -1.3758   -1.0914    0.6490 O   0  0  0  0  0  0  0  0  0  0  0  0
    0.6685   -2.1073    0.1299 H   0  0  0  0  0  0  0  0  0  0  0  0
   -1.1952   -1.3691   -1.2656 H   0  0  0  0  0  0  0  0  0  0  0  0
   -2.5149    1.7980   -1.0581 H   0  0  0  0  0  0  0  0  0  0  0  0
    2.8022    0.0984    1.6779 H   0  0  0  0  0  0  0  0  0  0  0  0
    1.7849    1.3876   -1.0475 H   0  0  0  0  0  0  0  0  0  0  0  0
    1.7112    2.0505    0.5921 H   0  0  0  0  0  0  0  0  0  0  0  0
    1.0371   -2.1783    0.2419 H   0  0  0  0  0  0  0  0  0  0  0  0
    2.1422   -1.4855    1.4312 H   0  0  0  0  0  0  0  0  0  0  0  0
   -1.1295   -0.7298   -1.8867 H   0  0  0  0  0  0  0  0  0  0  0  0
   -2.7176   -1.4139   -2.1428 H   0  0  0  0  0  0  0  0  0  0  0  0
   -2.8912    0.9665   -2.3163 H   0  0  0  0  0  0  0  0  0  0  0  0
   -3.8042    0.4198   -0.9098 H   0  0  0  0  0  0  0  0  0  0  0  0
    3.2690   -2.3946   -0.6289 H   0  0  0  0  0  0  0  0  0  0  0  0
    2.3536   -1.2564   -1.6172 H   0  0  0  0  0  0  0  0  0  0  0  0
    4.0278    1.6762    0.0204 H   0  0  0  0  0  0  0  0  0  0  0  0
    3.5426    0.6550    1.3468 H   0  0  0  0  0  0  0  0  0  0  0  0
   -0.4611   -1.2955    2.9042 H   0  0  0  0  0  0  0  0  0  0  0  0
    3.9110    0.4114   -2.3806 H   0  0  0  0  0  0  0  0  0  0  0  0
    5.4378    0.5496   -1.4825 H   0  0  0  0  0  0  0  0  0  0  0  0
    4.9523   -1.0081   -2.1332 H   0  0  0  0  0  0  0  0  0  0  0  0
   -0.7209    4.4491    1.7414 H   0  0  0  0  0  0  0  0  0  0  0  0
   -3.5644    3.1060   -1.1539 H   0  0  0  0  0  0  0  0  0  0  0  0
   -3.4903   -3.0655   -0.6137 H   0  0  0  0  0  0  0  0  0  0  0  0
   -2.6547    4.9431    0.2409 H   0  0  0  0  0  0  0  0  0  0  0  0
   -1.8439   -3.3024    3.3440 H   0  0  0  0  0  0  0  0  0  0  0  0
   -3.3494   -4.1861    1.5814 H   0  0  0  0  0  0  0  0  0  0  0  0
   -1.1284    2.0257    0.3255 H   0  0  0  0  0  0  0  0  0  0  0  0
    1.2892    1.7652    0.1861 H   0  0  0  0  0  0  0  0  0  0  0  0
    2.9420   -1.1520   -0.3473 H   0  0  0  0  0  0  0  0  0  0  0  0
   -2.0667   -1.7416    0.4072 H   0  0  0  0  0  0  0  0  0  0  0  0
  2  3  1  0
  3  4  2  0
  4  1  1  0
  5  2  2  0
  6  1  2  0
  7  1  1  0
  8  2  1  0
 10  9  1  0
 11  9  1  0
 12  9  2  3
 13 21  1  0
 14 10  2  0
 15 10  1  0
 16 11  2  0
 17 12  1  0
 18 12  1  0
 19 16  1  0
 20 15  1  0
 21 18  1  0
 22 17  1  0
 23 11  1  0
 24 13  1  0
 25 14  1  0
 26 15  2  0
 27 16  1  0
 28 26  1  0
 29 23  2  0
 30 29  1  0
 22 13  1  0
 20 19  1  0
 27 30  2  0
 25 28  2  0
 32 33  1  0
 33 34  2  0
 34 31  1  0
 35 32  2  0
 36 31  2  0
 37 31  1  0
 38 32  1  0
  3 39  1  0
  4 40  1  0
  7 41  1  0
  8 42  1  0
 17 43  1  0
 17 44  1  0
 18 45  1  0
 18 46  1  0
 19 47  1  0
 19 48  1  0
 20 49  1  0
 20 50  1  0
 21 51  1  0
 21 52  1  0
 22 53  1  0
 22 54  1  0
 23 55  1  0
 24 56  1  0
 24 57  1  0
 24 58  1  0
 25 59  1  0
 26 60  1  0
 27 61  1  0
 28 62  1  0
 29 63  1  0
 30 64  1  0
 33 65  1  0
 34 66  1  0
 37 67  1  0
 38 68  1  0
M  END
$$$$
