
     RDKit          3D

 38 39  0  0  0  0  0  0  0  0999 V2000
   -1.4605    0.2082   -0.0380 C   0  0  0  0  0  0  0  0  0  0  0  0
    1.4904   -0.2843    0.2275 C   0  0  0  0  0  0  0  0  0  0  0  0
    0.8478    0.9914    0.2629 C   0  0  0  0  0  0  0  0  0  0  0  0
   -0.4094    1.1538    0.1460 C   0  0  0  0  0  0  0  0  0  0  0  0
    2.7622   -0.2617    0.3607 O   0  0  0  0  0  0  0  0  0  0  0  0
   -1.4149   -1.0304   -0.1321 O   0  0  0  0  0  0  0  0  0  0  0  0
   -2.7611    0.7562   -0.1286 O   0  0  0  0  0  0  0  0  0  0  0  0
    0.9455   -1.5333    0.0716 O   0  0  0  0  0  0  0  0  0  0  0  0
   -0.0660   -0.0347   -0.0120 C   0  0  0  0  0  0  0  0  0  0  0  0
   -0.9965   -1.1561    0.0658 C   0  0  0  0  0  0  0  0  0  0  0  0
   -0.4117    1.4009   -0.0473 C   0  0  0  0  0  0  0  0  0  0  0  0
    1.2232   -0.3380   -0.0554 C   0  0  0  0  0  0  0  0  0  0  0  0
    3.9213   -0.8597    0.3541 N   0  0  0  0  0  0  0  0  0  0  0  0
   -0.3938   -2.2675    0.5285 N   0  0  0  0  0  0  0  0  0  0  0  0
   -2.3322   -1.1106   -0.2846 C   0  0  0  0  0  0  0  0  0  0  0  0
   -1.6976    1.9457   -0.0287 C   0  0  0  0  0  0  0  0  0  0  0  0
    2.2232    0.7532   -0.1351 C   0  0  0  0  0  0  0  0  0  0  0  0
    1.6378   -1.7369   -0.0242 C   0  0  0  0  0  0  0  0  0  0  0  0
   -3.0150    1.2727    0.0288 C   0  0  0  0  0  0  0  0  0  0  0  0
   -3.1338    0.0468   -0.8104 C   0  0  0  0  0  0  0  0  0  0  0  0
    3.0282   -1.9635    0.5023 C   0  0  0  0  0  0  0  0  0  0  0  0
    3.5221    0.1383   -0.5931 C   0  0  0  0  0  0  0  0  0  0  0  0
    0.7126    2.2082   -0.1037 C   0  0  0  0  0  0  0  0  0  0  0  0
    4.3889   -0.3189    1.6097 C   0  0  0  0  0  0  0  0  0  0  0  0
   -1.1494   -3.3958    0.6525 C   0  0  0  0  0  0  0  0  0  0  0  0
   -3.1035   -2.2479   -0.1621 C   0  0  0  0  0  0  0  0  0  0  0  0
   -1.7833    3.3234   -0.0695 C   0  0  0  0  0  0  0  0  0  0  0  0
   -2.4967   -3.3896    0.3101 C   0  0  0  0  0  0  0  0  0  0  0  0
    0.5837    3.5780   -0.1430 C   0  0  0  0  0  0  0  0  0  0  0  0
   -0.6616    4.1519   -0.1265 C   0  0  0  0  0  0  0  0  0  0  0  0
   -1.4889    0.1570   -0.0315 C   0  0  0  0  0  0  0  0  0  0  0  0
    1.4436   -0.2007   -0.0062 C   0  0  0  0  0  0  0  0  0  0  0  0
    0.6950    0.7751    0.6912 C   0  0  0  0  0  0  0  0  0  0  0  0
   -0.5474    0.9335    0.6859 C   0  0  0  0  0  0  0  0  0  0  0  0
    1.0829   -1.1133   -0.7705 O   0  0  0  0  0  0  0  0  0  0  0  0
   -2.7235    0.5097    0.1187 O   0  0  0  0  0  0  0  0  0  0  0  0
   -1.3151   -0.9163   -0.8671 O   0  0  0  0  0  0  0  0  0  0  0  0
    2.8536   -0.1450    0.1871 O   0  0  0  0  0  0  0  0  0  0  0  0
  2  3  1  0
  3  4  2  0
  4  1  1  0
  5  2  2  0
  6  1  2  0
  7  1  1  0
  8  2  1  0
 10  9  1  0
 11  9  1  0
 12  9  2  0
 13 21  1  0
 14 10  2  0
 15 10  1  0
 16 11  2  0
 17 12  1  0
 18 12  1  0
 19 16  1  0
 20 15  1  0
 21 18  1  0
 22 17  1  0
 23 11  1  0
 24 13  1  0
 25 14  1  0
 26 15  2  0
 27 16  1  0
 28 26  1  0
 29 23  2  0
 30 29  1  0
 22 13  1  0
 20 19  1  0
 27 30  2  0
 25 28  2  0
 32 33  1  0
 33 34  2  0
 34 31  1  0
 35 32  2  0
 36 31  2  0
 37 31  1  0
 38 32  1  0
M  END
