
     RDKit          3D

 68 69  0  0  0  0  0  0  0  0999 V2000
    1.4430   -0.0273    0.5255 C   0  0  0  0  0  0  0  0  0  0  0  0
   -1.4228    0.2360   -0.5338 C   0  0  0  0  0  0  0  0  0  0  0  0
   -0.7395   -1.0147   -0.1917 C   0  0  0  0  0  0  0  0  0  0  0  0
    0.4988   -1.1270    0.3078 C   0  0  0  0  0  0  0  0  0  0  0  0
   -2.1990    0.3678   -1.4621 O   0  0  0  0  0  0  0  0  0  0  0  0
    2.2254    0.0393    1.4553 O   0  0  0  0  0  0  0  0  0  0  0  0
    1.4559    0.8556   -0.4838 O   0  0  0  0  0  0  0  0  0  0  0  0
   -1.2102    1.2104    0.3625 O   0  0  0  0  0  0  0  0  0  0  0  0
   -0.2977   -0.2982   -0.5339 C   0  0  0  0  0  0  0  0  0  0  0  0
   -0.9009   -1.6432   -0.3229 C   0  0  0  0  0  0  0  0  0  0  0  0
   -1.1593    0.8153   -0.9997 C   0  0  0  0  0  0  0  0  0  0  0  0
    0.9991   -0.0520   -0.1957 C   0  0  0  0  0  0  0  0  0  0  0  0
    3.8602    0.4892    0.6722 N   0  0  0  0  0  0  0  0  0  0  0  0
   -0.2412   -2.6628   -0.9392 N   0  0  0  0  0  0  0  0  0  0  0  0
   -2.0743   -1.8382    0.4203 C   0  0  0  0  0  0  0  0  0  0  0  0
   -2.1519    1.3071   -0.1349 C   0  0  0  0  0  0  0  0  0  0  0  0
    1.9274   -1.1007    0.4118 C   0  0  0  0  0  0  0  0  0  0  0  0
    1.6750    1.3097   -0.3172 C   0  0  0  0  0  0  0  0  0  0  0  0
   -2.3406    0.6647    1.2169 C   0  0  0  0  0  0  0  0  0  0  0  0
   -2.8967   -0.7606    1.0992 C   0  0  0  0  0  0  0  0  0  0  0  0
    3.2033    1.1867   -0.4457 C   0  0  0  0  0  0  0  0  0  0  0  0
    2.9599   -0.4582    1.3533 C   0  0  0  0  0  0  0  0  0  0  0  0
   -1.0379    1.3398   -2.2922 C   0  0  0  0  0  0  0  0  0  0  0  0
    4.4478    1.4217    1.6296 C   0  0  0  0  0  0  0  0  0  0  0  0
   -0.7414   -3.9077   -0.8162 C   0  0  0  0  0  0  0  0  0  0  0  0
   -2.5556   -3.1564    0.5154 C   0  0  0  0  0  0  0  0  0  0  0  0
   -2.9796    2.3541   -0.5606 C   0  0  0  0  0  0  0  0  0  0  0  0
   -1.8847   -4.2037   -0.1041 C   0  0  0  0  0  0  0  0  0  0  0  0
   -1.8680    2.3805   -2.7077 C   0  0  0  0  0  0  0  0  0  0  0  0
   -2.8322    2.8912   -1.8403 C   0  0  0  0  0  0  0  0  0  0  0  0
    1.2715    0.4566    0.3051 C   0  0  0  0  0  0  0  0  0  0  0  0
   -1.6585   -0.0381   -0.1145 C   0  0  0  0  0  0  0  0  0  0  0  0
   -0.6642   -1.0877    0.1183 C   0  0  0  0  0  0  0  0  0  0  0  0
    0.6505   -0.8741    0.2632 C   0  0  0  0  0  0  0  0  0  0  0  0
   -2.7087    0.0743    0.4882 O   0  0  0  0  0  0  0  0  0  0  0  0
    0.7501    1.5226    0.5630 O   0  0  0  0  0  0  0  0  0  0  0  0
    2.5853    0.3472    0.0494 O   0  0  0  0  0  0  0  0  0  0  0  0
   -1.3385    0.7270   -1.1677 O   0  0  0  0  0  0  0  0  0  0  0  0
   -1.3307   -1.9037   -0.3800 H   0  0  0  0  0  0  0  0  0  0  0  0
    0.8818   -2.0997    0.5947 H   0  0  0  0  0  0  0  0  0  0  0  0
    2.1404    1.5038   -0.2187 H   0  0  0  0  0  0  0  0  0  0  0  0
   -1.7429    1.9594    0.0243 H   0  0  0  0  0  0  0  0  0  0  0  0
    2.4459   -1.6356   -0.3940 H   0  0  0  0  0  0  0  0  0  0  0  0
    1.3703   -1.8383    0.9994 H   0  0  0  0  0  0  0  0  0  0  0  0
    1.3211    1.8631   -1.1912 H   0  0  0  0  0  0  0  0  0  0  0  0
    1.4320    1.9072    0.5707 H   0  0  0  0  0  0  0  0  0  0  0  0
   -1.3956    0.6753    1.7742 H   0  0  0  0  0  0  0  0  0  0  0  0
   -3.0414    1.2647    1.8115 H   0  0  0  0  0  0  0  0  0  0  0  0
   -3.8642   -0.7144    0.5803 H   0  0  0  0  0  0  0  0  0  0  0  0
   -3.1022   -1.1034    2.1223 H   0  0  0  0  0  0  0  0  0  0  0  0
    3.6390    2.1819   -0.6022 H   0  0  0  0  0  0  0  0  0  0  0  0
    3.4305    0.6251   -1.3620 H   0  0  0  0  0  0  0  0  0  0  0  0
    3.5671   -1.2488    1.8096 H   0  0  0  0  0  0  0  0  0  0  0  0
    2.4163    0.0384    2.1695 H   0  0  0  0  0  0  0  0  0  0  0  0
   -0.2955    0.9361   -2.9769 H   0  0  0  0  0  0  0  0  0  0  0  0
    4.9513    0.8802    2.4377 H   0  0  0  0  0  0  0  0  0  0  0  0
    3.6973    2.0851    2.0734 H   0  0  0  0  0  0  0  0  0  0  0  0
    5.2107    2.0402    1.1443 H   0  0  0  0  0  0  0  0  0  0  0  0
   -0.1792   -4.6841   -1.3258 H   0  0  0  0  0  0  0  0  0  0  0  0
   -3.4667   -3.3678    1.0712 H   0  0  0  0  0  0  0  0  0  0  0  0
   -3.7522    2.7494    0.0944 H   0  0  0  0  0  0  0  0  0  0  0  0
   -2.2499   -5.2219   -0.0380 H   0  0  0  0  0  0  0  0  0  0  0  0
   -1.7654    2.7886   -3.7096 H   0  0  0  0  0  0  0  0  0  0  0  0
   -3.4801    3.7006   -2.1669 H   0  0  0  0  0  0  0  0  0  0  0  0
   -1.0731   -2.0884    0.1877 H   0  0  0  0  0  0  0  0  0  0  0  0
    1.3240   -1.7121    0.4020 H   0  0  0  0  0  0  0  0  0  0  0  0
    2.9087    1.2709    0.1017 H   0  0  0  0  0  0  0  0  0  0  0  0
   -2.0472    1.4017   -1.1965 H   0  0  0  0  0  0  0  0  0  0  0  0
  2  3  1  0
  3  4  2  0
  4  1  1  0
  5  2  2  0
  6  1  2  0
  7  1  1  0
  8  2  1  0
 10  9  1  0
 11  9  1  0
 12  9  2  3
 13 21  1  0
 14 10  2  0
 15 10  1  0
 16 11  2  0
 17 12  1  0
 18 12  1  0
 19 16  1  0
 20 15  1  0
 21 18  1  0
 22 17  1  0
 23 11  1  0
 24 13  1  0
 25 14  1  0
 26 15  2  0
 27 16  1  0
 28 26  1  0
 29 23  2  0
 30 29  1  0
 22 13  1  0
 20 19  1  0
 27 30  2  0
 25 28  2  0
 32 33  1  0
 33 34  2  0
 34 31  1  0
 35 32  2  0
 36 31  2  0
 37 31  1  0
 38 32  1  0
  3 39  1  0
  4 40  1  0
  7 41  1  0
  8 42  1  0
 17 43  1  0
 17 44  1  0
 18 45  1  0
 18 46  1  0
 19 47  1  0
 19 48  1  0
 20 49  1  0
 20 50  1  0
 21 51  1  0
 21 52  1  0
 22 53  1  0
 22 54  1  0
 23 55  1  0
 24 56  1  0
 24 57  1  0
 24 58  1  0
 25 59  1  0
 26 60  1  0
 27 61  1  0
 28 62  1  0
 29 63  1  0
 30 64  1  0
 33 65  1  0
 34 66  1  0
 37 67  1  0
 38 68  1  0
M  END
$$$$
