
     RDKit          3D

 68 69  0  0  0  0  0  0  0  0999 V2000
    1.6311    0.2019   -0.2317 C   0  0  0  0  0  0  0  0  0  0  0  0
   -1.1868   -0.5631    0.4652 C   0  0  0  0  0  0  0  0  0  0  0  0
   -0.7219    0.8181    0.2769 C   0  0  0  0  0  0  0  0  0  0  0  0
    0.5469    1.1561    0.0091 C   0  0  0  0  0  0  0  0  0  0  0  0
   -0.5316   -1.5457    0.7486 O   0  0  0  0  0  0  0  0  0  0  0  0
    2.7310    0.2484    0.2858 O   0  0  0  0  0  0  0  0  0  0  0  0
    1.3210   -0.6683   -1.2028 O   0  0  0  0  0  0  0  0  0  0  0  0
   -2.5219   -0.6111    0.3211 O   0  0  0  0  0  0  0  0  0  0  0  0
   -0.3986   -0.2553    0.5232 C   0  0  0  0  0  0  0  0  0  0  0  0
   -1.3883   -1.2993    0.1378 C   0  0  0  0  0  0  0  0  0  0  0  0
   -0.8831    1.0321    1.0784 C   0  0  0  0  0  0  0  0  0  0  0  0
    0.9293   -0.4193    0.2625 C   0  0  0  0  0  0  0  0  0  0  0  0
    3.8343   -0.6840   -0.5903 N   0  0  0  0  0  0  0  0  0  0  0  0
   -1.1364   -2.5348    0.6528 N   0  0  0  0  0  0  0  0  0  0  0  0
   -2.5056   -1.0256   -0.6652 C   0  0  0  0  0  0  0  0  0  0  0  0
   -1.5970    1.9028    0.2370 C   0  0  0  0  0  0  0  0  0  0  0  0
    1.9956    0.6289    0.5681 C   0  0  0  0  0  0  0  0  0  0  0  0
    1.5111   -1.6429   -0.4411 C   0  0  0  0  0  0  0  0  0  0  0  0
   -1.8888    1.4868   -1.1838 C   0  0  0  0  0  0  0  0  0  0  0  0
   -2.8886    0.3243   -1.2401 C   0  0  0  0  0  0  0  0  0  0  0  0
    2.6964   -1.2499   -1.3382 C   0  0  0  0  0  0  0  0  0  0  0  0
    3.4099    0.0242    0.6291 C   0  0  0  0  0  0  0  0  0  0  0  0
   -0.6918    1.3650    2.4251 C   0  0  0  0  0  0  0  0  0  0  0  0
    4.6505    0.1574   -1.4621 C   0  0  0  0  0  0  0  0  0  0  0  0
   -1.9974   -3.5300    0.3635 C   0  0  0  0  0  0  0  0  0  0  0  0
   -3.3755   -2.0984   -0.9330 C   0  0  0  0  0  0  0  0  0  0  0  0
   -2.0696    3.1196    0.7456 C   0  0  0  0  0  0  0  0  0  0  0  0
   -3.1207   -3.3642   -0.4192 C   0  0  0  0  0  0  0  0  0  0  0  0
   -1.1692    2.5768    2.9235 C   0  0  0  0  0  0  0  0  0  0  0  0
   -1.8507    3.4557    2.0826 C   0  0  0  0  0  0  0  0  0  0  0  0
    1.5788    0.5229   -0.0294 C   0  0  0  0  0  0  0  0  0  0  0  0
   -1.0871   -0.8460    0.1556 C   0  0  0  0  0  0  0  0  0  0  0  0
   -0.8683    0.5850    0.4070 C   0  0  0  0  0  0  0  0  0  0  0  0
    0.3317    1.1803    0.3682 C   0  0  0  0  0  0  0  0  0  0  0  0
   -0.2877   -1.7555    0.2494 O   0  0  0  0  0  0  0  0  0  0  0  0
    2.6352    0.6107    0.5683 O   0  0  0  0  0  0  0  0  0  0  0  0
    1.4651   -0.0873   -1.2171 O   0  0  0  0  0  0  0  0  0  0  0  0
   -2.3749   -1.0541   -0.1670 O   0  0  0  0  0  0  0  0  0  0  0  0
   -1.4723    1.5885    0.4095 H   0  0  0  0  0  0  0  0  0  0  0  0
    0.8454    2.1967   -0.0288 H   0  0  0  0  0  0  0  0  0  0  0  0
    2.0964   -1.2647   -1.2449 H   0  0  0  0  0  0  0  0  0  0  0  0
   -2.7374   -1.5568    0.4647 H   0  0  0  0  0  0  0  0  0  0  0  0
    1.8138    1.1148    1.5317 H   0  0  0  0  0  0  0  0  0  0  0  0
    1.9657    1.4051   -0.2071 H   0  0  0  0  0  0  0  0  0  0  0  0
    0.7719   -2.1314   -1.0835 H   0  0  0  0  0  0  0  0  0  0  0  0
    1.8373   -2.3752    0.3074 H   0  0  0  0  0  0  0  0  0  0  0  0
   -0.9560    1.2314   -1.7024 H   0  0  0  0  0  0  0  0  0  0  0  0
   -2.3102    2.3377   -1.7341 H   0  0  0  0  0  0  0  0  0  0  0  0
   -3.1346    0.1711   -2.2991 H   0  0  0  0  0  0  0  0  0  0  0  0
   -3.8160    0.6380   -0.7416 H   0  0  0  0  0  0  0  0  0  0  0  0
    2.3311   -0.5351   -2.0887 H   0  0  0  0  0  0  0  0  0  0  0  0
    3.0426   -2.1339   -1.8849 H   0  0  0  0  0  0  0  0  0  0  0  0
    3.4400   -0.6997    1.4546 H   0  0  0  0  0  0  0  0  0  0  0  0
    4.1315    0.8031    0.9061 H   0  0  0  0  0  0  0  0  0  0  0  0
   -0.1721    0.6774    3.0888 H   0  0  0  0  0  0  0  0  0  0  0  0
    4.0964    1.0240   -1.8400 H   0  0  0  0  0  0  0  0  0  0  0  0
    5.5396    0.5259   -0.9337 H   0  0  0  0  0  0  0  0  0  0  0  0
    5.0150   -0.4212   -2.3167 H   0  0  0  0  0  0  0  0  0  0  0  0
   -1.7499   -4.4954    0.7952 H   0  0  0  0  0  0  0  0  0  0  0  0
   -4.2639   -1.9452   -1.5417 H   0  0  0  0  0  0  0  0  0  0  0  0
   -2.6236    3.8063    0.1100 H   0  0  0  0  0  0  0  0  0  0  0  0
   -3.7852   -4.1970   -0.6194 H   0  0  0  0  0  0  0  0  0  0  0  0
   -1.0142    2.8313    3.9692 H   0  0  0  0  0  0  0  0  0  0  0  0
   -2.2251    4.3979    2.4739 H   0  0  0  0  0  0  0  0  0  0  0  0
   -1.7495    1.1552    0.6778 H   0  0  0  0  0  0  0  0  0  0  0  0
    0.4423    2.2199    0.6537 H   0  0  0  0  0  0  0  0  0  0  0  0
    2.3384   -0.5082   -1.3545 H   0  0  0  0  0  0  0  0  0  0  0  0
   -2.4239   -2.0227   -0.3120 H   0  0  0  0  0  0  0  0  0  0  0  0
  2  3  1  0
  3  4  2  0
  4  1  1  0
  5  2  2  0
  6  1  2  0
  7  1  1  0
  8  2  1  0
 10  9  1  0
 11  9  1  0
 12  9  2  3
 13 21  1  0
 14 10  2  0
 15 10  1  0
 16 11  2  0
 17 12  1  0
 18 12  1  0
 19 16  1  0
 20 15  1  0
 21 18  1  0
 22 17  1  0
 23 11  1  0
 24 13  1  0
 25 14  1  0
 26 15  2  0
 27 16  1  0
 28 26  1  0
 29 23  2  0
 30 29  1  0
 22 13  1  0
 20 19  1  0
 27 30  2  0
 25 28  2  0
 32 33  1  0
 33 34  2  0
 34 31  1  0
 35 32  2  0
 36 31  2  0
 37 31  1  0
 38 32  1  0
  3 39  1  0
  4 40  1  0
  7 41  1  0
  8 42  1  0
 17 43  1  0
 17 44  1  0
 18 45  1  0
 18 46  1  0
 19 47  1  0
 19 48  1  0
 20 49  1  0
 20 50  1  0
 21 51  1  0
 21 52  1  0
 22 53  1  0
 22 54  1  0
 23 55  1  0
 24 56  1  0
 24 57  1  0
 24 58  1  0
 25 59  1  0
 26 60  1  0
 27 61  1  0
 28 62  1  0
 29 63  1  0
 30 64  1  0
 33 65  1  0
 34 66  1  0
 37 67  1  0
 38 68  1  0
M  END
$$$$
