
     RDKit          3D

 68 69  0  0  0  0  0  0  0  0999 V2000
    1.2897   -0.5270    0.5922 C   0  0  0  0  0  0  0  0  0  0  0  0
   -1.2252    0.8848   -0.1093 C   0  0  0  0  0  0  0  0  0  0  0  0
   -0.6820   -0.2421   -0.8743 C   0  0  0  0  0  0  0  0  0  0  0  0
    0.4864   -0.8334   -0.5957 C   0  0  0  0  0  0  0  0  0  0  0  0
   -0.6120    1.8158    0.3718 O   0  0  0  0  0  0  0  0  0  0  0  0
    0.8900   -0.2722    1.7099 O   0  0  0  0  0  0  0  0  0  0  0  0
    2.5944   -0.6239    0.2951 O   0  0  0  0  0  0  0  0  0  0  0  0
   -2.5622    0.7908   -0.0498 O   0  0  0  0  0  0  0  0  0  0  0  0
   -0.3200   -0.0299    0.4463 C   0  0  0  0  0  0  0  0  0  0  0  0
   -0.9190   -1.3759    0.6630 C   0  0  0  0  0  0  0  0  0  0  0  0
   -1.1364    1.1774    0.7201 C   0  0  0  0  0  0  0  0  0  0  0  0
    0.9180    0.1032   -0.1069 C   0  0  0  0  0  0  0  0  0  0  0  0
    3.6146    0.4046   -1.4736 N   0  0  0  0  0  0  0  0  0  0  0  0
   -0.1661   -2.2150    1.4279 N   0  0  0  0  0  0  0  0  0  0  0  0
   -2.1732   -1.7370    0.1492 C   0  0  0  0  0  0  0  0  0  0  0  0
   -2.2396    1.4469   -0.1074 C   0  0  0  0  0  0  0  0  0  0  0  0
    1.5802    1.4401   -0.4230 C   0  0  0  0  0  0  0  0  0  0  0  0
    1.7815   -1.0802   -0.5358 C   0  0  0  0  0  0  0  0  0  0  0  0
   -2.5856    0.4848   -1.2166 C   0  0  0  0  0  0  0  0  0  0  0  0
   -3.0952   -0.8558   -0.6707 C   0  0  0  0  0  0  0  0  0  0  0  0
    2.7009   -0.7252   -1.7171 C   0  0  0  0  0  0  0  0  0  0  0  0
    3.1132    1.3199   -0.4329 C   0  0  0  0  0  0  0  0  0  0  0  0
   -0.8616    2.0122    1.8104 C   0  0  0  0  0  0  0  0  0  0  0  0
    4.9647   -0.0486   -1.1482 C   0  0  0  0  0  0  0  0  0  0  0  0
   -0.6545   -3.4434    1.6888 C   0  0  0  0  0  0  0  0  0  0  0  0
   -2.6374   -3.0295    0.4532 C   0  0  0  0  0  0  0  0  0  0  0  0
   -3.0259    2.5798    0.1398 C   0  0  0  0  0  0  0  0  0  0  0  0
   -1.8732   -3.8946    1.2268 C   0  0  0  0  0  0  0  0  0  0  0  0
   -1.6513    3.1365    2.0497 C   0  0  0  0  0  0  0  0  0  0  0  0
   -2.7272    3.4232    1.2111 C   0  0  0  0  0  0  0  0  0  0  0  0
   -1.5827    0.2134   -0.4119 C   0  0  0  0  0  0  0  0  0  0  0  0
    1.1466    0.0586    0.8307 C   0  0  0  0  0  0  0  0  0  0  0  0
    0.5962   -0.9412   -0.0939 C   0  0  0  0  0  0  0  0  0  0  0  0
   -0.6388   -0.8888   -0.6101 C   0  0  0  0  0  0  0  0  0  0  0  0
    0.5434    0.8202    1.5593 O   0  0  0  0  0  0  0  0  0  0  0  0
   -2.7570    0.0826   -0.1235 O   0  0  0  0  0  0  0  0  0  0  0  0
   -1.0362    1.4004   -0.7114 O   0  0  0  0  0  0  0  0  0  0  0  0
    2.4880    0.0006    0.8091 O   0  0  0  0  0  0  0  0  0  0  0  0
   -1.2718   -0.5587   -1.7261 H   0  0  0  0  0  0  0  0  0  0  0  0
    0.8768   -1.6137   -1.2378 H   0  0  0  0  0  0  0  0  0  0  0  0
    3.0383   -0.3893    1.1371 H   0  0  0  0  0  0  0  0  0  0  0  0
   -2.8224    1.5688    0.4870 H   0  0  0  0  0  0  0  0  0  0  0  0
    1.2325    1.7892   -1.4037 H   0  0  0  0  0  0  0  0  0  0  0  0
    1.3200    2.2088    0.3090 H   0  0  0  0  0  0  0  0  0  0  0  0
    1.1660   -1.9293   -0.8520 H   0  0  0  0  0  0  0  0  0  0  0  0
    2.3923   -1.4060    0.3153 H   0  0  0  0  0  0  0  0  0  0  0  0
   -1.7193    0.3402   -1.8742 H   0  0  0  0  0  0  0  0  0  0  0  0
   -3.3674    0.9235   -1.8498 H   0  0  0  0  0  0  0  0  0  0  0  0
   -3.9895   -0.6655   -0.0611 H   0  0  0  0  0  0  0  0  0  0  0  0
   -3.4225   -1.4450   -1.5381 H   0  0  0  0  0  0  0  0  0  0  0  0
    2.0713   -0.4547   -2.5755 H   0  0  0  0  0  0  0  0  0  0  0  0
    3.2510   -1.6202   -2.0345 H   0  0  0  0  0  0  0  0  0  0  0  0
    3.5475    2.3121   -0.6038 H   0  0  0  0  0  0  0  0  0  0  0  0
    3.4398    0.9958    0.5653 H   0  0  0  0  0  0  0  0  0  0  0  0
   -0.0300    1.7861    2.4737 H   0  0  0  0  0  0  0  0  0  0  0  0
    5.6337    0.8068   -1.0009 H   0  0  0  0  0  0  0  0  0  0  0  0
    4.9866   -0.6654   -0.2425 H   0  0  0  0  0  0  0  0  0  0  0  0
    5.3832   -0.6339   -1.9744 H   0  0  0  0  0  0  0  0  0  0  0  0
   -0.0177   -4.0737    2.3021 H   0  0  0  0  0  0  0  0  0  0  0  0
   -3.6073   -3.3626    0.0894 H   0  0  0  0  0  0  0  0  0  0  0  0
   -3.8815    2.8068   -0.4914 H   0  0  0  0  0  0  0  0  0  0  0  0
   -2.2242   -4.8913    1.4675 H   0  0  0  0  0  0  0  0  0  0  0  0
   -1.4287    3.7858    2.8922 H   0  0  0  0  0  0  0  0  0  0  0  0
   -3.3427    4.2992    1.3996 H   0  0  0  0  0  0  0  0  0  0  0  0
    1.2444   -1.7802   -0.3191 H   0  0  0  0  0  0  0  0  0  0  0  0
   -1.0202   -1.7042   -1.2127 H   0  0  0  0  0  0  0  0  0  0  0  0
   -1.7437    2.0463   -0.5091 H   0  0  0  0  0  0  0  0  0  0  0  0
    2.7599    0.6925    1.4478 H   0  0  0  0  0  0  0  0  0  0  0  0
  2  3  1  0
  3  4  2  0
  4  1  1  0
  5  2  2  0
  6  1  2  0
  7  1  1  0
  8  2  1  0
 10  9  1  0
 11  9  1  0
 12  9  2  3
 13 21  1  0
 14 10  2  0
 15 10  1  0
 16 11  2  0
 17 12  1  0
 18 12  1  0
 19 16  1  0
 20 15  1  0
 21 18  1  0
 22 17  1  0
 23 11  1  0
 24 13  1  0
 25 14  1  0
 26 15  2  0
 27 16  1  0
 28 26  1  0
 29 23  2  0
 30 29  1  0
 22 13  1  0
 20 19  1  0
 27 30  2  0
 25 28  2  0
 32 33  1  0
 33 34  2  0
 34 31  1  0
 35 32  2  0
 36 31  2  0
 37 31  1  0
 38 32  1  0
  3 39  1  0
  4 40  1  0
  7 41  1  0
  8 42  1  0
 17 43  1  0
 17 44  1  0
 18 45  1  0
 18 46  1  0
 19 47  1  0
 19 48  1  0
 20 49  1  0
 20 50  1  0
 21 51  1  0
 21 52  1  0
 22 53  1  0
 22 54  1  0
 23 55  1  0
 24 56  1  0
 24 57  1  0
 24 58  1  0
 25 59  1  0
 26 60  1  0
 27 61  1  0
 28 62  1  0
 29 63  1  0
 30 64  1  0
 33 65  1  0
 34 66  1  0
 37 67  1  0
 38 68  1  0
M  END
$$$$
