
     RDKit          3D

 68 69  0  0  0  0  0  0  0  0999 V2000
   -1.5004   -0.0787   -0.3180 C   0  0  0  0  0  0  0  0  0  0  0  0
    1.5018   -0.1307    0.2941 C   0  0  0  0  0  0  0  0  0  0  0  0
    0.6460    1.0589    0.2742 C   0  0  0  0  0  0  0  0  0  0  0  0
   -0.6583    1.0861   -0.0317 C   0  0  0  0  0  0  0  0  0  0  0  0
    2.4109   -0.3158    1.0820 O   0  0  0  0  0  0  0  0  0  0  0  0
   -2.4071   -0.0942   -1.1297 O   0  0  0  0  0  0  0  0  0  0  0  0
   -1.2602   -1.1105    0.5040 O   0  0  0  0  0  0  0  0  0  0  0  0
    1.2709   -0.9566   -0.7367 O   0  0  0  0  0  0  0  0  0  0  0  0
   -0.3734   -0.1773    0.3781 C   0  0  0  0  0  0  0  0  0  0  0  0
   -0.9290   -1.5257    0.0764 C   0  0  0  0  0  0  0  0  0  0  0  0
   -1.2750    0.8746    0.9067 C   0  0  0  0  0  0  0  0  0  0  0  0
    0.9166    0.1326    0.0673 C   0  0  0  0  0  0  0  0  0  0  0  0
    3.7446    0.8718   -0.7610 N   0  0  0  0  0  0  0  0  0  0  0  0
   -0.2378   -2.5608    0.6301 N   0  0  0  0  0  0  0  0  0  0  0  0
   -2.0904   -1.7111   -0.6880 C   0  0  0  0  0  0  0  0  0  0  0  0
   -2.2774    1.3880    0.0665 C   0  0  0  0  0  0  0  0  0  0  0  0
    1.8842   -0.8472   -0.5906 C   0  0  0  0  0  0  0  0  0  0  0  0
    1.5467    1.5050    0.2798 C   0  0  0  0  0  0  0  0  0  0  0  0
   -2.4359    0.8277   -1.3251 C   0  0  0  0  0  0  0  0  0  0  0  0
   -2.9450   -0.6197   -1.3023 C   0  0  0  0  0  0  0  0  0  0  0  0
    3.0729    1.4054    0.4375 C   0  0  0  0  0  0  0  0  0  0  0  0
    2.9261   -0.1298   -1.4661 C   0  0  0  0  0  0  0  0  0  0  0  0
   -1.1795    1.3192    2.2312 C   0  0  0  0  0  0  0  0  0  0  0  0
    5.0654    0.3513   -0.4175 C   0  0  0  0  0  0  0  0  0  0  0  0
   -0.6946   -3.8110    0.4211 C   0  0  0  0  0  0  0  0  0  0  0  0
   -2.5257   -3.0358   -0.8734 C   0  0  0  0  0  0  0  0  0  0  0  0
   -3.1417    2.3786    0.5508 C   0  0  0  0  0  0  0  0  0  0  0  0
   -1.8227   -4.0982   -0.3185 C   0  0  0  0  0  0  0  0  0  0  0  0
   -2.0459    2.3041    2.7049 C   0  0  0  0  0  0  0  0  0  0  0  0
   -3.0205    2.8378    1.8633 C   0  0  0  0  0  0  0  0  0  0  0  0
    1.3175    0.3370   -0.1746 C   0  0  0  0  0  0  0  0  0  0  0  0
   -1.6614    0.0412    0.0351 C   0  0  0  0  0  0  0  0  0  0  0  0
   -0.7077   -1.0661    0.1294 C   0  0  0  0  0  0  0  0  0  0  0  0
    0.6244   -0.9328    0.0799 C   0  0  0  0  0  0  0  0  0  0  0  0
   -2.6487    0.0534   -0.6749 O   0  0  0  0  0  0  0  0  0  0  0  0
    0.8853    1.3337   -0.7171 O   0  0  0  0  0  0  0  0  0  0  0  0
    2.5873    0.2492    0.2532 O   0  0  0  0  0  0  0  0  0  0  0  0
   -1.3937    1.0076    0.9247 O   0  0  0  0  0  0  0  0  0  0  0  0
    1.1601    1.9754    0.5406 H   0  0  0  0  0  0  0  0  0  0  0  0
   -1.1831    2.0330   -0.0874 H   0  0  0  0  0  0  0  0  0  0  0  0
   -1.9041   -1.7911    0.2193 H   0  0  0  0  0  0  0  0  0  0  0  0
    1.9235   -1.6759   -0.6107 H   0  0  0  0  0  0  0  0  0  0  0  0
    2.3988   -1.4218    0.1896 H   0  0  0  0  0  0  0  0  0  0  0  0
    1.3562   -1.5567   -1.2368 H   0  0  0  0  0  0  0  0  0  0  0  0
    1.3070    2.1459   -0.5782 H   0  0  0  0  0  0  0  0  0  0  0  0
    1.1599    1.9986    1.1749 H   0  0  0  0  0  0  0  0  0  0  0  0
   -1.4883    0.9050   -1.8730 H   0  0  0  0  0  0  0  0  0  0  0  0
   -3.1528    1.4408   -1.8861 H   0  0  0  0  0  0  0  0  0  0  0  0
   -3.1345   -0.9033   -2.3466 H   0  0  0  0  0  0  0  0  0  0  0  0
   -3.9157   -0.6388   -0.7876 H   0  0  0  0  0  0  0  0  0  0  0  0
    3.2884    0.7832    1.3177 H   0  0  0  0  0  0  0  0  0  0  0  0
    3.4756    2.4037    0.6465 H   0  0  0  0  0  0  0  0  0  0  0  0
    3.5558   -0.8745   -1.9696 H   0  0  0  0  0  0  0  0  0  0  0  0
    2.3970    0.3936   -2.2739 H   0  0  0  0  0  0  0  0  0  0  0  0
   -0.4280    0.8975    2.8945 H   0  0  0  0  0  0  0  0  0  0  0  0
    5.0071   -0.5185    0.2465 H   0  0  0  0  0  0  0  0  0  0  0  0
    5.6107    0.0592   -1.3218 H   0  0  0  0  0  0  0  0  0  0  0  0
    5.6677    1.1230    0.0748 H   0  0  0  0  0  0  0  0  0  0  0  0
   -0.1095   -4.6005    0.8828 H   0  0  0  0  0  0  0  0  0  0  0  0
   -3.4254   -3.2409   -1.4500 H   0  0  0  0  0  0  0  0  0  0  0  0
   -3.9214    2.7905   -0.0852 H   0  0  0  0  0  0  0  0  0  0  0  0
   -2.1522   -5.1217   -0.4547 H   0  0  0  0  0  0  0  0  0  0  0  0
   -1.9624    2.6516    3.7311 H   0  0  0  0  0  0  0  0  0  0  0  0
   -3.6960    3.6044    2.2342 H   0  0  0  0  0  0  0  0  0  0  0  0
   -1.1620   -2.0444    0.2284 H   0  0  0  0  0  0  0  0  0  0  0  0
    1.2617   -1.8026    0.1903 H   0  0  0  0  0  0  0  0  0  0  0  0
    2.9639    1.1292    0.0424 H   0  0  0  0  0  0  0  0  0  0  0  0
   -2.0664    1.6946    0.7400 H   0  0  0  0  0  0  0  0  0  0  0  0
  2  3  1  0
  3  4  2  0
  4  1  1  0
  5  2  2  0
  6  1  2  0
  7  1  1  0
  8  2  1  0
 10  9  1  0
 11  9  1  0
 12  9  2  3
 13 21  1  0
 14 10  2  0
 15 10  1  0
 16 11  2  0
 17 12  1  0
 18 12  1  0
 19 16  1  0
 20 15  1  0
 21 18  1  0
 22 17  1  0
 23 11  1  0
 24 13  1  0
 25 14  1  0
 26 15  2  0
 27 16  1  0
 28 26  1  0
 29 23  2  0
 30 29  1  0
 22 13  1  0
 20 19  1  0
 27 30  2  0
 25 28  2  0
 32 33  1  0
 33 34  2  0
 34 31  1  0
 35 32  2  0
 36 31  2  0
 37 31  1  0
 38 32  1  0
  3 39  1  0
  4 40  1  0
  7 41  1  0
  8 42  1  0
 17 43  1  0
 17 44  1  0
 18 45  1  0
 18 46  1  0
 19 47  1  0
 19 48  1  0
 20 49  1  0
 20 50  1  0
 21 51  1  0
 21 52  1  0
 22 53  1  0
 22 54  1  0
 23 55  1  0
 24 56  1  0
 24 57  1  0
 24 58  1  0
 25 59  1  0
 26 60  1  0
 27 61  1  0
 28 62  1  0
 29 63  1  0
 30 64  1  0
 33 65  1  0
 34 66  1  0
 37 67  1  0
 38 68  1  0
M  END
$$$$
