
     RDKit          3D

 68 69  0  0  0  0  0  0  0  0999 V2000
    1.2379    0.2984   -0.5726 C   0  0  0  0  0  0  0  0  0  0  0  0
   -1.6514   -0.0814    0.1381 C   0  0  0  0  0  0  0  0  0  0  0  0
   -0.5812   -1.0177    0.4866 C   0  0  0  0  0  0  0  0  0  0  0  0
    0.7162   -0.8309    0.2090 C   0  0  0  0  0  0  0  0  0  0  0  0
   -2.7013   -0.3879   -0.3936 O   0  0  0  0  0  0  0  0  0  0  0  0
    0.6441    1.0035   -1.3633 O   0  0  0  0  0  0  0  0  0  0  0  0
    2.5501    0.4464   -0.3288 O   0  0  0  0  0  0  0  0  0  0  0  0
   -1.3987    1.1554    0.5891 O   0  0  0  0  0  0  0  0  0  0  0  0
   -0.4317    0.2002   -0.4800 C   0  0  0  0  0  0  0  0  0  0  0  0
   -1.2441    1.4220   -0.2242 C   0  0  0  0  0  0  0  0  0  0  0  0
   -1.1221   -1.0853   -0.7463 C   0  0  0  0  0  0  0  0  0  0  0  0
    0.9257    0.2245   -0.3614 C   0  0  0  0  0  0  0  0  0  0  0  0
    3.9432    0.2832    0.0079 N   0  0  0  0  0  0  0  0  0  0  0  0
   -0.9004    2.4996   -0.9828 N   0  0  0  0  0  0  0  0  0  0  0  0
   -2.3016    1.4489    0.6971 C   0  0  0  0  0  0  0  0  0  0  0  0
   -1.8480   -1.6893    0.2938 C   0  0  0  0  0  0  0  0  0  0  0  0
    1.7178    1.4691    0.0315 C   0  0  0  0  0  0  0  0  0  0  0  0
    1.8260   -0.9927   -0.5446 C   0  0  0  0  0  0  0  0  0  0  0  0
   -1.9461   -0.9950    1.6296 C   0  0  0  0  0  0  0  0  0  0  0  0
   -2.7829    0.2886    1.5456 C   0  0  0  0  0  0  0  0  0  0  0  0
    3.2537   -0.5928   -0.9544 C   0  0  0  0  0  0  0  0  0  0  0  0
    3.0039    1.1043    0.7941 C   0  0  0  0  0  0  0  0  0  0  0  0
   -1.1043   -1.6726   -2.0174 C   0  0  0  0  0  0  0  0  0  0  0  0
    4.8291   -0.4698    0.8913 C   0  0  0  0  0  0  0  0  0  0  0  0
   -1.6078    3.6356   -0.8275 C   0  0  0  0  0  0  0  0  0  0  0  0
   -3.0087    2.6587    0.8195 C   0  0  0  0  0  0  0  0  0  0  0  0
   -2.5067   -2.9031    0.0589 C   0  0  0  0  0  0  0  0  0  0  0  0
   -2.6604    3.7651    0.0545 C   0  0  0  0  0  0  0  0  0  0  0  0
   -1.7640   -2.8804   -2.2421 C   0  0  0  0  0  0  0  0  0  0  0  0
   -2.4578   -3.4980   -1.2031 C   0  0  0  0  0  0  0  0  0  0  0  0
    1.2685    0.4561   -0.3104 C   0  0  0  0  0  0  0  0  0  0  0  0
   -1.6294   -0.2892   -0.1401 C   0  0  0  0  0  0  0  0  0  0  0  0
   -0.5368   -1.0819    0.4267 C   0  0  0  0  0  0  0  0  0  0  0  0
    0.7552   -0.7312    0.3872 C   0  0  0  0  0  0  0  0  0  0  0  0
   -2.5002   -0.7216   -0.8701 O   0  0  0  0  0  0  0  0  0  0  0  0
    0.7392    1.0974   -1.1956 O   0  0  0  0  0  0  0  0  0  0  0  0
    2.4968    0.7490    0.1463 O   0  0  0  0  0  0  0  0  0  0  0  0
   -1.6343    0.9640    0.3367 O   0  0  0  0  0  0  0  0  0  0  0  0
   -0.9155   -1.9186    0.9870 H   0  0  0  0  0  0  0  0  0  0  0  0
    1.4506   -1.5603    0.5307 H   0  0  0  0  0  0  0  0  0  0  0  0
    2.8047    1.2075   -0.8910 H   0  0  0  0  0  0  0  0  0  0  0  0
   -2.1555    1.6857    0.2656 H   0  0  0  0  0  0  0  0  0  0  0  0
    1.1325    2.1257    0.6848 H   0  0  0  0  0  0  0  0  0  0  0  0
    1.9738    2.0364   -0.8728 H   0  0  0  0  0  0  0  0  0  0  0  0
    1.8603   -1.5543    0.3977 H   0  0  0  0  0  0  0  0  0  0  0  0
    1.4466   -1.6698   -1.3147 H   0  0  0  0  0  0  0  0  0  0  0  0
   -0.9426   -0.7884    2.0225 H   0  0  0  0  0  0  0  0  0  0  0  0
   -2.4164   -1.6693    2.3565 H   0  0  0  0  0  0  0  0  0  0  0  0
   -2.8945    0.6603    2.5732 H   0  0  0  0  0  0  0  0  0  0  0  0
   -3.7893    0.0238    1.1935 H   0  0  0  0  0  0  0  0  0  0  0  0
    3.2039   -0.0561   -1.9114 H   0  0  0  0  0  0  0  0  0  0  0  0
    3.8432   -1.4946   -1.1608 H   0  0  0  0  0  0  0  0  0  0  0  0
    3.5157    2.0273    1.0927 H   0  0  0  0  0  0  0  0  0  0  0  0
    2.7146    0.5868    1.7201 H   0  0  0  0  0  0  0  0  0  0  0  0
   -0.5732   -1.1882   -2.8336 H   0  0  0  0  0  0  0  0  0  0  0  0
    4.2845   -1.2102    1.4867 H   0  0  0  0  0  0  0  0  0  0  0  0
    5.3558    0.2038    1.5750 H   0  0  0  0  0  0  0  0  0  0  0  0
    5.5972   -0.9928    0.3103 H   0  0  0  0  0  0  0  0  0  0  0  0
   -1.2953    4.4634   -1.4558 H   0  0  0  0  0  0  0  0  0  0  0  0
   -3.8442    2.7373    1.5120 H   0  0  0  0  0  0  0  0  0  0  0  0
   -3.0705   -3.3875    0.8520 H   0  0  0  0  0  0  0  0  0  0  0  0
   -3.2019    4.6999    0.1408 H   0  0  0  0  0  0  0  0  0  0  0  0
   -1.7395   -3.3356   -3.2285 H   0  0  0  0  0  0  0  0  0  0  0  0
   -2.9733   -4.4386   -1.3801 H   0  0  0  0  0  0  0  0  0  0  0  0
   -0.8436   -2.0178    0.8779 H   0  0  0  0  0  0  0  0  0  0  0  0
    1.5032   -1.3613    0.8548 H   0  0  0  0  0  0  0  0  0  0  0  0
    2.7530    1.5393   -0.3733 H   0  0  0  0  0  0  0  0  0  0  0  0
   -2.3715    1.3971   -0.1401 H   0  0  0  0  0  0  0  0  0  0  0  0
  2  3  1  0
  3  4  2  0
  4  1  1  0
  5  2  2  0
  6  1  2  0
  7  1  1  0
  8  2  1  0
 10  9  1  0
 11  9  1  0
 12  9  2  3
 13 21  1  0
 14 10  2  0
 15 10  1  0
 16 11  2  0
 17 12  1  0
 18 12  1  0
 19 16  1  0
 20 15  1  0
 21 18  1  0
 22 17  1  0
 23 11  1  0
 24 13  1  0
 25 14  1  0
 26 15  2  0
 27 16  1  0
 28 26  1  0
 29 23  2  0
 30 29  1  0
 22 13  1  0
 20 19  1  0
 27 30  2  0
 25 28  2  0
 32 33  1  0
 33 34  2  0
 34 31  1  0
 35 32  2  0
 36 31  2  0
 37 31  1  0
 38 32  1  0
  3 39  1  0
  4 40  1  0
  7 41  1  0
  8 42  1  0
 17 43  1  0
 17 44  1  0
 18 45  1  0
 18 46  1  0
 19 47  1  0
 19 48  1  0
 20 49  1  0
 20 50  1  0
 21 51  1  0
 21 52  1  0
 22 53  1  0
 22 54  1  0
 23 55  1  0
 24 56  1  0
 24 57  1  0
 24 58  1  0
 25 59  1  0
 26 60  1  0
 27 61  1  0
 28 62  1  0
 29 63  1  0
 30 64  1  0
 33 65  1  0
 34 66  1  0
 37 67  1  0
 38 68  1  0
M  END
$$$$
