
     RDKit          2D

 38 39  0  0  0  0  0  0  0  0999 V2000
    6.2543   -1.2587    0.0000 C   0  0  0  0  0  0  0  0  0  0  0  0
    6.2688   -2.8952    0.0000 C   0  0  0  0  0  0  0  0  0  0  0  0
    5.5447   -2.4896    0.0000 C   0  0  0  0  0  0  0  0  0  0  0  0
    5.5447   -1.6738    0.0000 C   0  0  0  0  0  0  0  0  0  0  0  0
    6.2688   -3.7206    0.0000 O   0  0  0  0  0  0  0  0  0  0  0  0
    6.2543   -0.4332    0.0000 O   0  0  0  0  0  0  0  0  0  0  0  0
    6.9736   -1.6642    0.0000 O   0  0  0  0  0  0  0  0  0  0  0  0
    6.9784   -2.4848    0.0000 O   0  0  0  0  0  0  0  0  0  0  0  0
   -0.4055   -2.1144    0.0000 C   0  0  0  0  0  0  0  0  0  0  0  0
   -1.1537   -2.4620    0.0000 C   0  0  0  0  0  0  0  0  0  0  0  0
    0.3331   -2.4813    0.0000 C   0  0  0  0  0  0  0  0  0  0  0  0
   -0.4006   -1.2938    0.0000 C   0  0  0  0  0  0  0  0  0  0  0  0
   -0.3765    0.3427    0.0000 N   0  0  0  0  0  0  0  0  0  0  0  0
   -1.7475   -1.8876    0.0000 N   0  0  0  0  0  0  0  0  0  0  0  0
   -1.3420   -3.2634    0.0000 C   0  0  0  0  0  0  0  0  0  0  0  0
    0.5117   -3.2875    0.0000 C   0  0  0  0  0  0  0  0  0  0  0  0
    0.3186   -0.8979    0.0000 C   0  0  0  0  0  0  0  0  0  0  0  0
   -1.1103   -0.8834    0.0000 C   0  0  0  0  0  0  0  0  0  0  0  0
   -0.0096   -3.9247    0.0000 C   0  0  0  0  0  0  0  0  0  0  0  0
   -0.8351   -3.9151    0.0000 C   0  0  0  0  0  0  0  0  0  0  0  0
   -1.0958   -0.0628    0.0000 C   0  0  0  0  0  0  0  0  0  0  0  0
    0.3235   -0.0773    0.0000 C   0  0  0  0  0  0  0  0  0  0  0  0
    0.9317   -1.9165    0.0000 C   0  0  0  0  0  0  0  0  0  0  0  0
   -0.3717    1.1682    0.0000 C   0  0  0  0  0  0  0  0  0  0  0  0
   -2.5440   -2.1289    0.0000 C   0  0  0  0  0  0  0  0  0  0  0  0
   -2.1385   -3.5047    0.0000 C   0  0  0  0  0  0  0  0  0  0  0  0
    1.3034   -3.5337    0.0000 C   0  0  0  0  0  0  0  0  0  0  0  0
   -2.7323   -2.9399    0.0000 C   0  0  0  0  0  0  0  0  0  0  0  0
    1.7234   -2.1627    0.0000 C   0  0  0  0  0  0  0  0  0  0  0  0
    1.9117   -2.9737    0.0000 C   0  0  0  0  0  0  0  0  0  0  0  0
    3.4082   -1.3372    0.0000 C   0  0  0  0  0  0  0  0  0  0  0  0
    3.4227   -2.9737    0.0000 C   0  0  0  0  0  0  0  0  0  0  0  0
    2.6986   -2.5682    0.0000 C   0  0  0  0  0  0  0  0  0  0  0  0
    2.6986   -1.7523    0.0000 C   0  0  0  0  0  0  0  0  0  0  0  0
    3.4227   -3.7992    0.0000 O   0  0  0  0  0  0  0  0  0  0  0  0
    3.4082   -0.5117    0.0000 O   0  0  0  0  0  0  0  0  0  0  0  0
    4.1274   -1.7427    0.0000 O   0  0  0  0  0  0  0  0  0  0  0  0
    4.1323   -2.5634    0.0000 O   0  0  0  0  0  0  0  0  0  0  0  0
  2  3  1  0
  3  4  2  0
  4  1  1  0
  5  2  2  0
  6  1  2  0
  7  1  1  0
  8  2  1  0
 10  9  1  0
 11  9  1  0
 12  9  2  0
 13 21  1  0
 14 10  1  0
 15 10  2  0
 16 11  2  0
 17 12  1  0
 18 12  1  0
 19 16  1  0
 20 15  1  0
 21 18  1  0
 22 17  1  0
 23 11  1  0
 24 13  1  0
 25 14  2  0
 26 15  1  0
 27 16  1  0
 28 26  2  0
 29 23  2  0
 30 29  1  0
 22 13  1  0
 20 19  1  0
 27 30  2  0
 25 28  1  0
 32 33  1  0
 33 34  2  0
 34 31  1  0
 35 32  2  0
 36 31  2  0
 37 31  1  0
 38 32  1  0
M  END
> <chembl_id>
CHEMBL3544908

> <chembl_pref_name>
AZATADINE MALEATE
