
     RDKit          3D

 68 69  0  0  0  0  0  0  0  0999 V2000
   -1.6616   -0.0114   -0.0847 C   0  0  0  0  0  0  0  0  0  0  0  0
    1.2881   -0.3862    0.3348 C   0  0  0  0  0  0  0  0  0  0  0  0
    0.6331    0.9158    0.1521 C   0  0  0  0  0  0  0  0  0  0  0  0
   -0.6888    1.0794    0.0096 C   0  0  0  0  0  0  0  0  0  0  0  0
    0.8051   -1.4176    0.7561 O   0  0  0  0  0  0  0  0  0  0  0  0
   -2.7122   -0.0634    0.5259 O   0  0  0  0  0  0  0  0  0  0  0  0
   -1.3248   -0.9023   -1.0280 O   0  0  0  0  0  0  0  0  0  0  0  0
    2.5847   -0.2877   -0.0002 O   0  0  0  0  0  0  0  0  0  0  0  0
   -0.2602    0.0974   -0.5870 C   0  0  0  0  0  0  0  0  0  0  0  0
   -0.8925    1.4401   -0.7023 C   0  0  0  0  0  0  0  0  0  0  0  0
   -1.1173   -1.1058   -0.7115 C   0  0  0  0  0  0  0  0  0  0  0  0
    1.0596   -0.0453   -0.2805 C   0  0  0  0  0  0  0  0  0  0  0  0
    3.4689   -0.3389    1.4788 N   0  0  0  0  0  0  0  0  0  0  0  0
   -0.3157    2.2615   -1.6233 N   0  0  0  0  0  0  0  0  0  0  0  0
   -2.0249    1.8077    0.0390 C   0  0  0  0  0  0  0  0  0  0  0  0
   -2.0553   -1.3714    0.3009 C   0  0  0  0  0  0  0  0  0  0  0  0
    1.7691   -1.3818   -0.0957 C   0  0  0  0  0  0  0  0  0  0  0  0
    2.0203    1.1115   -0.0303 C   0  0  0  0  0  0  0  0  0  0  0  0
   -2.1842   -0.4139    1.4598 C   0  0  0  0  0  0  0  0  0  0  0  0
   -2.7721    0.9364    1.0295 C   0  0  0  0  0  0  0  0  0  0  0  0
    2.7791    0.9500    1.3003 C   0  0  0  0  0  0  0  0  0  0  0  0
    2.5301   -1.4480    1.2406 C   0  0  0  0  0  0  0  0  0  0  0  0
   -1.0333   -1.9472   -1.8279 C   0  0  0  0  0  0  0  0  0  0  0  0
    4.6605   -0.4401    0.6392 C   0  0  0  0  0  0  0  0  0  0  0  0
   -0.8517    3.4844   -1.8049 C   0  0  0  0  0  0  0  0  0  0  0  0
   -2.5448    3.0947   -0.1891 C   0  0  0  0  0  0  0  0  0  0  0  0
   -2.8756   -2.5020    0.1982 C   0  0  0  0  0  0  0  0  0  0  0  0
   -1.9535    3.9453   -1.1153 C   0  0  0  0  0  0  0  0  0  0  0  0
   -1.8560   -3.0692   -1.9212 C   0  0  0  0  0  0  0  0  0  0  0  0
   -2.7714   -3.3484   -0.9071 C   0  0  0  0  0  0  0  0  0  0  0  0
   -1.6057    0.2307   -0.7194 C   0  0  0  0  0  0  0  0  0  0  0  0
    1.1313   -0.4750    0.2935 C   0  0  0  0  0  0  0  0  0  0  0  0
    0.7816    0.8069   -0.3325 C   0  0  0  0  0  0  0  0  0  0  0  0
   -0.4517    1.1322   -0.7423 C   0  0  0  0  0  0  0  0  0  0  0  0
    0.4004   -1.2517    0.8741 O   0  0  0  0  0  0  0  0  0  0  0  0
   -2.7119    0.5244   -0.3080 O   0  0  0  0  0  0  0  0  0  0  0  0
   -1.3425   -0.9344   -1.3278 O   0  0  0  0  0  0  0  0  0  0  0  0
    2.4528   -0.6844    0.1803 O   0  0  0  0  0  0  0  0  0  0  0  0
    1.2878    1.7792    0.1793 H   0  0  0  0  0  0  0  0  0  0  0  0
   -1.1213    2.0718   -0.0279 H   0  0  0  0  0  0  0  0  0  0  0  0
   -2.0229   -1.5865   -0.9699 H   0  0  0  0  0  0  0  0  0  0  0  0
    2.9328   -1.1911    0.1529 H   0  0  0  0  0  0  0  0  0  0  0  0
    2.4640   -1.5246   -0.9323 H   0  0  0  0  0  0  0  0  0  0  0  0
    1.0863   -2.2352   -0.1191 H   0  0  0  0  0  0  0  0  0  0  0  0
    1.5189    2.0814    0.0132 H   0  0  0  0  0  0  0  0  0  0  0  0
    2.7292    1.1644   -0.8655 H   0  0  0  0  0  0  0  0  0  0  0  0
   -2.8392   -0.8516    2.2240 H   0  0  0  0  0  0  0  0  0  0  0  0
   -1.2099   -0.2818    1.9472 H   0  0  0  0  0  0  0  0  0  0  0  0
   -2.9102    1.5277    1.9449 H   0  0  0  0  0  0  0  0  0  0  0  0
   -3.7733    0.7586    0.6129 H   0  0  0  0  0  0  0  0  0  0  0  0
    3.4941    1.7746    1.4149 H   0  0  0  0  0  0  0  0  0  0  0  0
    2.0654    1.0687    2.1270 H   0  0  0  0  0  0  0  0  0  0  0  0
    1.7998   -1.4577    2.0612 H   0  0  0  0  0  0  0  0  0  0  0  0
    3.0597   -2.4063    1.3122 H   0  0  0  0  0  0  0  0  0  0  0  0
   -0.3261   -1.7274   -2.6242 H   0  0  0  0  0  0  0  0  0  0  0  0
    5.3664    0.3619    0.8829 H   0  0  0  0  0  0  0  0  0  0  0  0
    5.1842   -1.3827    0.8340 H   0  0  0  0  0  0  0  0  0  0  0  0
    4.4451   -0.3873   -0.4325 H   0  0  0  0  0  0  0  0  0  0  0  0
   -0.3542    4.1019   -2.5467 H   0  0  0  0  0  0  0  0  0  0  0  0
   -3.4256    3.4333    0.3527 H   0  0  0  0  0  0  0  0  0  0  0  0
   -3.6063   -2.7265    0.9714 H   0  0  0  0  0  0  0  0  0  0  0  0
   -2.3496    4.9372   -1.2997 H   0  0  0  0  0  0  0  0  0  0  0  0
   -1.7849   -3.7230   -2.7863 H   0  0  0  0  0  0  0  0  0  0  0  0
   -3.4130   -4.2228   -0.9826 H   0  0  0  0  0  0  0  0  0  0  0  0
    1.5889    1.5253   -0.4156 H   0  0  0  0  0  0  0  0  0  0  0  0
   -0.6662    2.1279   -1.1112 H   0  0  0  0  0  0  0  0  0  0  0  0
   -2.1658   -1.4526   -1.2168 H   0  0  0  0  0  0  0  0  0  0  0  0
    2.5888   -1.5493    0.6211 H   0  0  0  0  0  0  0  0  0  0  0  0
  2  3  1  0
  3  4  2  0
  4  1  1  0
  5  2  2  0
  6  1  2  0
  7  1  1  0
  8  2  1  0
 10  9  1  0
 11  9  1  0
 12  9  2  3
 13 21  1  0
 14 10  2  0
 15 10  1  0
 16 11  2  0
 17 12  1  0
 18 12  1  0
 19 16  1  0
 20 15  1  0
 21 18  1  0
 22 17  1  0
 23 11  1  0
 24 13  1  0
 25 14  1  0
 26 15  2  0
 27 16  1  0
 28 26  1  0
 29 23  2  0
 30 29  1  0
 22 13  1  0
 20 19  1  0
 27 30  2  0
 25 28  2  0
 32 33  1  0
 33 34  2  0
 34 31  1  0
 35 32  2  0
 36 31  2  0
 37 31  1  0
 38 32  1  0
  3 39  1  0
  4 40  1  0
  7 41  1  0
  8 42  1  0
 17 43  1  0
 17 44  1  0
 18 45  1  0
 18 46  1  0
 19 47  1  0
 19 48  1  0
 20 49  1  0
 20 50  1  0
 21 51  1  0
 21 52  1  0
 22 53  1  0
 22 54  1  0
 23 55  1  0
 24 56  1  0
 24 57  1  0
 24 58  1  0
 25 59  1  0
 26 60  1  0
 27 61  1  0
 28 62  1  0
 29 63  1  0
 30 64  1  0
 33 65  1  0
 34 66  1  0
 37 67  1  0
 38 68  1  0
M  END
$$$$
