
     RDKit          3D

 53 52  0  0  0  0  0  0  0  0999 V2000
   43.0147    4.5815   11.0488 C   0  0  0  0  0  0  0  0  0  0  0  0
   43.7592    3.3813   13.1193 N   0  0  0  0  0  0  0  0  0  0  0  0
   44.0087    3.9935   10.0717 C   0  0  0  0  0  0  0  0  0  0  0  0
   43.4876    4.6928   12.5172 C   0  0  1  0  0  0  0  0  0  0  0  0
   44.0780    2.6069    9.8780 C   0  0  0  0  0  0  0  0  0  0  0  0
   44.8742    4.8225    9.3450 C   0  0  0  0  0  0  0  0  0  0  0  0
   44.7021    5.6065   12.6843 C   0  0  0  0  0  0  0  0  0  0  0  0
   44.9981    2.0603    8.9823 C   0  0  0  0  0  0  0  0  0  0  0  0
   45.7941    4.2746    8.4493 C   0  0  0  0  0  0  0  0  0  0  0  0
   45.8566    2.8942    8.2689 C   0  0  0  0  0  0  0  0  0  0  0  0
   44.6646    3.7109   10.9484 S   0  0  0  0  0  0  0  0  0  0  0  0
   43.8437    2.6827   11.5354 O   0  0  0  0  0  0  0  0  0  0  0  0
   46.0967    3.6196   10.8210 O   0  0  0  0  0  0  0  0  0  0  0  0
   44.3116    5.0705   11.7231 O   0  0  0  0  0  0  0  0  0  0  0  0
   44.0986    4.0345    9.4827 O   0  0  0  0  0  0  0  0  0  0  0  0
   43.4272    4.5284   11.2075 C   0  0  0  0  0  0  0  0  0  0  0  0
   43.4402    5.9373   13.2283 N   0  0  0  0  0  0  0  0  0  0  0  0
   44.2284    3.9019   10.0893 C   0  0  0  0  0  0  0  0  0  0  0  0
   44.2970    5.1914   12.2956 C   0  0  1  0  0  0  0  0  0  0  0  0
   44.3597    2.5094   10.0015 C   0  0  0  0  0  0  0  0  0  0  0  0
   44.8567    4.7050    9.1274 C   0  0  0  0  0  0  0  0  0  0  0  0
   45.1055    4.1689   13.0952 C   0  0  0  0  0  0  0  0  0  0  0  0
   45.1070    1.9324    8.9735 C   0  0  0  0  0  0  0  0  0  0  0  0
   45.6032    4.1261    8.0999 C   0  0  0  0  0  0  0  0  0  0  0  0
   45.7286    2.7404    8.0235 C   0  0  0  0  0  0  0  0  0  0  0  0
   42.0935    3.9838   11.0110 H   0  0  0  0  0  0  0  0  0  0  0  0
   42.7193    5.5780   10.6935 H   0  0  0  0  0  0  0  0  0  0  0  0
   44.0925    3.5078   14.0742 H   0  0  0  0  0  0  0  0  0  0  0  0
   44.5321    2.9424   12.6154 H   0  0  0  0  0  0  0  0  0  0  0  0
   42.6604    5.1378   13.0844 H   0  0  0  0  0  0  0  0  0  0  0  0
   43.4113    1.9451   10.4281 H   0  0  0  0  0  0  0  0  0  0  0  0
   44.8373    5.9020    9.4718 H   0  0  0  0  0  0  0  0  0  0  0  0
   44.9202    5.7707   13.7458 H   0  0  0  0  0  0  0  0  0  0  0  0
   45.6020    5.1832   12.2255 H   0  0  0  0  0  0  0  0  0  0  0  0
   44.5157    6.5860   12.2313 H   0  0  0  0  0  0  0  0  0  0  0  0
   45.0425    0.9838    8.8404 H   0  0  0  0  0  0  0  0  0  0  0  0
   46.4611    4.9258    7.8904 H   0  0  0  0  0  0  0  0  0  0  0  0
   46.5717    2.4685    7.5702 H   0  0  0  0  0  0  0  0  0  0  0  0
   43.3924    4.9857   12.0513 H   0  0  0  0  0  0  0  0  0  0  0  0
   44.8076    4.5043    8.9964 H   0  0  0  0  0  0  0  0  0  0  0  0
   42.7657    3.7765   11.6586 H   0  0  0  0  0  0  0  0  0  0  0  0
   42.7589    5.2754   10.7569 H   0  0  0  0  0  0  0  0  0  0  0  0
   42.9553    6.6803   12.7263 H   0  0  0  0  0  0  0  0  0  0  0  0
   44.0205    6.3982   13.9286 H   0  0  0  0  0  0  0  0  0  0  0  0
   44.9928    5.9027   11.8347 H   0  0  0  0  0  0  0  0  0  0  0  0
   43.8823    1.8648   10.7363 H   0  0  0  0  0  0  0  0  0  0  0  0
   44.7652    5.7879    9.1712 H   0  0  0  0  0  0  0  0  0  0  0  0
   44.4561    3.4200   13.5624 H   0  0  0  0  0  0  0  0  0  0  0  0
   45.8225    3.6442   12.4558 H   0  0  0  0  0  0  0  0  0  0  0  0
   45.6813    4.6578   13.8894 H   0  0  0  0  0  0  0  0  0  0  0  0
   45.2035    0.8514    8.9143 H   0  0  0  0  0  0  0  0  0  0  0  0
   46.0858    4.7566    7.3577 H   0  0  0  0  0  0  0  0  0  0  0  0
   46.3094    2.2900    7.2231 H   0  0  0  0  0  0  0  0  0  0  0  0
  4  2  1  0
  3  1  1  0
  4  1  1  0
  5  3  2  0
  6  3  1  0
  4  7  1  0
  8  5  1  0
  9  6  2  0
 10  8  2  0
  9 10  1  0
 12 11  2  0
 13 11  2  0
 14 11  1  0
 15 11  1  0
 19 17  1  0
 18 16  1  0
 19 16  1  0
 20 18  2  0
 21 18  1  0
 19 22  1  0
 23 20  1  0
 24 21  2  0
 25 23  2  0
 24 25  1  0
  1 26  1  0
  1 27  1  0
  2 28  1  0
  2 29  1  0
  4 30  1  1
  5 31  1  0
  6 32  1  0
  7 33  1  0
  7 34  1  0
  7 35  1  0
  8 36  1  0
  9 37  1  0
 10 38  1  0
 14 39  1  0
 15 40  1  0
 16 41  1  0
 16 42  1  0
 17 43  1  0
 17 44  1  0
 19 45  1  6
 20 46  1  0
 21 47  1  0
 22 48  1  0
 22 49  1  0
 22 50  1  0
 23 51  1  0
 24 52  1  0
 25 53  1  0
M  END
> <Uni-Dock RESULT> 
ENERGY=   -7.567  LOWER_BOUND=    0.000  UPPER_BOUND=    0.000
INTER + INTRA:          -7.567
INTER:                  -7.567
INTRA:                   0.000
UNBOUND:                 0.000

$$$$

     RDKit          3D

 53 52  0  0  0  0  0  0  0  0999 V2000
   43.6964    4.7971   12.9813 C   0  0  0  0  0  0  0  0  0  0  0  0
   42.9841    5.1928   10.6112 N   0  0  0  0  0  0  0  0  0  0  0  0
   44.9574    5.6326   12.9855 C   0  0  0  0  0  0  0  0  0  0  0  0
   43.2960    4.1752   11.6229 C   0  0  1  0  0  0  0  0  0  0  0  0
   44.9046    6.9986   12.6747 C   0  0  0  0  0  0  0  0  0  0  0  0
   46.1964    5.0575   13.2999 C   0  0  0  0  0  0  0  0  0  0  0  0
   44.3440    3.2028   11.0808 C   0  0  0  0  0  0  0  0  0  0  0  0
   46.0667    7.7713   12.6712 C   0  0  0  0  0  0  0  0  0  0  0  0
   47.3581    5.8315   13.2960 C   0  0  0  0  0  0  0  0  0  0  0  0
   47.2932    7.1874   12.9808 C   0  0  0  0  0  0  0  0  0  0  0  0
   44.9707    5.5722   11.8564 S   0  0  0  0  0  0  0  0  0  0  0  0
   43.8141    6.3796   11.5633 O   0  0  0  0  0  0  0  0  0  0  0  0
   46.2025    5.6338   11.1117 O   0  0  0  0  0  0  0  0  0  0  0  0
   44.4674    4.0491   11.8760 O   0  0  0  0  0  0  0  0  0  0  0  0
   45.3610    5.7884   13.3973 O   0  0  0  0  0  0  0  0  0  0  0  0
   43.9398    4.7742   12.6093 C   0  0  0  0  0  0  0  0  0  0  0  0
   43.0606    2.7676   11.4825 N   0  0  0  0  0  0  0  0  0  0  0  0
   45.1139    5.7026   12.8194 C   0  0  0  0  0  0  0  0  0  0  0  0
   44.1600    3.7432   11.4829 C   0  0  1  0  0  0  0  0  0  0  0  0
   45.0529    7.0354   12.3905 C   0  0  0  0  0  0  0  0  0  0  0  0
   46.2831    5.2421   13.4408 C   0  0  0  0  0  0  0  0  0  0  0  0
   44.2256    4.3972   10.1022 C   0  0  0  0  0  0  0  0  0  0  0  0
   46.1410    7.8895   12.5772 C   0  0  0  0  0  0  0  0  0  0  0  0
   47.3699    6.0979   13.6269 C   0  0  0  0  0  0  0  0  0  0  0  0
   47.2989    7.4207   13.1948 C   0  0  0  0  0  0  0  0  0  0  0  0
   42.8675    5.4150   13.3534 H   0  0  0  0  0  0  0  0  0  0  0  0
   43.8042    3.9937   13.7226 H   0  0  0  0  0  0  0  0  0  0  0  0
   42.7533    4.7363    9.7295 H   0  0  0  0  0  0  0  0  0  0  0  0
   43.8270    5.7390   10.4242 H   0  0  0  0  0  0  0  0  0  0  0  0
   42.3747    3.6044   11.7942 H   0  0  0  0  0  0  0  0  0  0  0  0
   43.9520    7.4666   12.4329 H   0  0  0  0  0  0  0  0  0  0  0  0
   46.2646    4.0015   13.5504 H   0  0  0  0  0  0  0  0  0  0  0  0
   43.9660    2.6804   10.1946 H   0  0  0  0  0  0  0  0  0  0  0  0
   45.2688    3.7133   10.7918 H   0  0  0  0  0  0  0  0  0  0  0  0
   44.5923    2.4432   11.8297 H   0  0  0  0  0  0  0  0  0  0  0  0
   46.0133    8.8293   12.4288 H   0  0  0  0  0  0  0  0  0  0  0  0
   48.3141    5.3764   13.5412 H   0  0  0  0  0  0  0  0  0  0  0  0
   48.1977    7.7897   12.9797 H   0  0  0  0  0  0  0  0  0  0  0  0
   43.5192    4.0613   12.1220 H   0  0  0  0  0  0  0  0  0  0  0  0
   46.2834    5.4774   13.5081 H   0  0  0  0  0  0  0  0  0  0  0  0
   43.0318    5.3601   12.4130 H   0  0  0  0  0  0  0  0  0  0  0  0
   43.7547    4.2549   13.5600 H   0  0  0  0  0  0  0  0  0  0  0  0
   43.0538    2.2608   12.3670 H   0  0  0  0  0  0  0  0  0  0  0  0
   43.2246    2.0709   10.7562 H   0  0  0  0  0  0  0  0  0  0  0  0
   45.0953    3.1970   11.6550 H   0  0  0  0  0  0  0  0  0  0  0  0
   44.1570    7.4162   11.9051 H   0  0  0  0  0  0  0  0  0  0  0  0
   46.3527    4.2135   13.7868 H   0  0  0  0  0  0  0  0  0  0  0  0
   43.3191    4.9744    9.8877 H   0  0  0  0  0  0  0  0  0  0  0  0
   45.0836    5.0725   10.0247 H   0  0  0  0  0  0  0  0  0  0  0  0
   44.3386    3.6427    9.3152 H   0  0  0  0  0  0  0  0  0  0  0  0
   46.0843    8.9213   12.2406 H   0  0  0  0  0  0  0  0  0  0  0  0
   48.2719    5.7326   14.1108 H   0  0  0  0  0  0  0  0  0  0  0  0
   48.1451    8.0868   13.3404 H   0  0  0  0  0  0  0  0  0  0  0  0
  4  2  1  0
  3  1  1  0
  4  1  1  0
  5  3  2  0
  6  3  1  0
  4  7  1  0
  8  5  1  0
  9  6  2  0
 10  8  2  0
  9 10  1  0
 12 11  2  0
 13 11  2  0
 14 11  1  0
 15 11  1  0
 19 17  1  0
 18 16  1  0
 19 16  1  0
 20 18  2  0
 21 18  1  0
 19 22  1  0
 23 20  1  0
 24 21  2  0
 25 23  2  0
 24 25  1  0
  1 26  1  0
  1 27  1  0
  2 28  1  0
  2 29  1  0
  4 30  1  1
  5 31  1  0
  6 32  1  0
  7 33  1  0
  7 34  1  0
  7 35  1  0
  8 36  1  0
  9 37  1  0
 10 38  1  0
 14 39  1  0
 15 40  1  0
 16 41  1  0
 16 42  1  0
 17 43  1  0
 17 44  1  0
 19 45  1  6
 20 46  1  0
 21 47  1  0
 22 48  1  0
 22 49  1  0
 22 50  1  0
 23 51  1  0
 24 52  1  0
 25 53  1  0
M  END
> <Uni-Dock RESULT> 
ENERGY=   -6.842  LOWER_BOUND=    1.890  UPPER_BOUND=    4.329
INTER + INTRA:          -6.842
INTER:                  -6.842
INTRA:                   0.000
UNBOUND:                 0.000

$$$$

     RDKit          3D

 53 52  0  0  0  0  0  0  0  0999 V2000
   43.9845    3.6543    8.4450 C   0  0  0  0  0  0  0  0  0  0  0  0
   44.1962    2.9801   10.8495 N   0  0  0  0  0  0  0  0  0  0  0  0
   45.2589    3.0325    7.9183 C   0  0  0  0  0  0  0  0  0  0  0  0
   44.0074    4.1048    9.9244 C   0  0  1  0  0  0  0  0  0  0  0  0
   45.4881    1.6567    8.0591 C   0  0  0  0  0  0  0  0  0  0  0  0
   46.2293    3.8185    7.2817 C   0  0  0  0  0  0  0  0  0  0  0  0
   45.0487    5.1897   10.2009 C   0  0  0  0  0  0  0  0  0  0  0  0
   46.6654    1.0804    7.5803 C   0  0  0  0  0  0  0  0  0  0  0  0
   47.4065    3.2409    6.8032 C   0  0  0  0  0  0  0  0  0  0  0  0
   47.6248    1.8728    6.9533 C   0  0  0  0  0  0  0  0  0  0  0  0
   45.6564    3.0125    8.9767 S   0  0  0  0  0  0  0  0  0  0  0  0
   44.7842    2.0124    9.5375 O   0  0  0  0  0  0  0  0  0  0  0  0
   47.0678    3.0939    9.2545 O   0  0  0  0  0  0  0  0  0  0  0  0
   44.9922    4.4336    9.3128 O   0  0  0  0  0  0  0  0  0  0  0  0
   45.5102    2.9730    7.3797 O   0  0  0  0  0  0  0  0  0  0  0  0
   44.3372    3.6887    8.7144 C   0  0  0  0  0  0  0  0  0  0  0  0
   43.6621    5.4432   10.3066 N   0  0  0  0  0  0  0  0  0  0  0  0
   45.4709    2.9765    8.0128 C   0  0  0  0  0  0  0  0  0  0  0  0
   44.8051    4.6575    9.8202 C   0  0  1  0  0  0  0  0  0  0  0  0
   45.7294    1.6235    8.2708 C   0  0  0  0  0  0  0  0  0  0  0  0
   46.2838    3.6607    7.0985 C   0  0  0  0  0  0  0  0  0  0  0  0
   45.4278    3.9242   11.0088 C   0  0  0  0  0  0  0  0  0  0  0  0
   46.7819    0.9691    7.6289 C   0  0  0  0  0  0  0  0  0  0  0  0
   47.3356    3.0044    6.4573 C   0  0  0  0  0  0  0  0  0  0  0  0
   47.5847    1.6594    6.7228 C   0  0  0  0  0  0  0  0  0  0  0  0
   43.1618    2.9410    8.2979 H   0  0  0  0  0  0  0  0  0  0  0  0
   43.7268    4.5161    7.8145 H   0  0  0  0  0  0  0  0  0  0  0  0
   44.2314    3.3292   11.8066 H   0  0  0  0  0  0  0  0  0  0  0  0
   45.1125    2.5628   10.6764 H   0  0  0  0  0  0  0  0  0  0  0  0
   43.0206    4.5326   10.1414 H   0  0  0  0  0  0  0  0  0  0  0  0
   44.7452    1.0268    8.5454 H   0  0  0  0  0  0  0  0  0  0  0  0
   46.0740    4.8873    7.1541 H   0  0  0  0  0  0  0  0  0  0  0  0
   44.9405    5.5799   11.2193 H   0  0  0  0  0  0  0  0  0  0  0  0
   46.0722    4.8132   10.1001 H   0  0  0  0  0  0  0  0  0  0  0  0
   44.9243    6.0312    9.5111 H   0  0  0  0  0  0  0  0  0  0  0  0
   46.8319    0.0126    7.6951 H   0  0  0  0  0  0  0  0  0  0  0  0
   48.1530    3.8588    6.3110 H   0  0  0  0  0  0  0  0  0  0  0  0
   48.5407    1.4235    6.5790 H   0  0  0  0  0  0  0  0  0  0  0  0
   44.0271    4.2885    9.3975 H   0  0  0  0  0  0  0  0  0  0  0  0
   46.2900    3.4340    7.0066 H   0  0  0  0  0  0  0  0  0  0  0  0
   43.6347    2.9532    9.1289 H   0  0  0  0  0  0  0  0  0  0  0  0
   43.7699    4.2392    7.9510 H   0  0  0  0  0  0  0  0  0  0  0  0
   43.2851    6.0050    9.5441 H   0  0  0  0  0  0  0  0  0  0  0  0
   43.9803    6.1027   11.0162 H   0  0  0  0  0  0  0  0  0  0  0  0
   45.5464    5.3564    9.4143 H   0  0  0  0  0  0  0  0  0  0  0  0
   45.1131    1.0709    8.9767 H   0  0  0  0  0  0  0  0  0  0  0  0
   46.1000    4.7096    6.8777 H   0  0  0  0  0  0  0  0  0  0  0  0
   44.7319    3.1962   11.4409 H   0  0  0  0  0  0  0  0  0  0  0  0
   46.3362    3.3901   10.7125 H   0  0  0  0  0  0  0  0  0  0  0  0
   45.7126    4.6281   11.7992 H   0  0  0  0  0  0  0  0  0  0  0  0
   46.9748   -0.0803    7.8360 H   0  0  0  0  0  0  0  0  0  0  0  0
   47.9600    3.5425    5.7489 H   0  0  0  0  0  0  0  0  0  0  0  0
   48.4034    1.1486    6.2230 H   0  0  0  0  0  0  0  0  0  0  0  0
  4  2  1  0
  3  1  1  0
  4  1  1  0
  5  3  2  0
  6  3  1  0
  4  7  1  0
  8  5  1  0
  9  6  2  0
 10  8  2  0
  9 10  1  0
 12 11  2  0
 13 11  2  0
 14 11  1  0
 15 11  1  0
 19 17  1  0
 18 16  1  0
 19 16  1  0
 20 18  2  0
 21 18  1  0
 19 22  1  0
 23 20  1  0
 24 21  2  0
 25 23  2  0
 24 25  1  0
  1 26  1  0
  1 27  1  0
  2 28  1  0
  2 29  1  0
  4 30  1  1
  5 31  1  0
  6 32  1  0
  7 33  1  0
  7 34  1  0
  7 35  1  0
  8 36  1  0
  9 37  1  0
 10 38  1  0
 14 39  1  0
 15 40  1  0
 16 41  1  0
 16 42  1  0
 17 43  1  0
 17 44  1  0
 19 45  1  6
 20 46  1  0
 21 47  1  0
 22 48  1  0
 22 49  1  0
 22 50  1  0
 23 51  1  0
 24 52  1  0
 25 53  1  0
M  END
> <Uni-Dock RESULT> 
ENERGY=   -6.434  LOWER_BOUND=    1.775  UPPER_BOUND=    2.538
INTER + INTRA:          -6.434
INTER:                  -6.434
INTRA:                   0.000
UNBOUND:                 0.000

$$$$

     RDKit          3D

 53 52  0  0  0  0  0  0  0  0999 V2000
   45.2408    5.2618   10.5175 C   0  0  0  0  0  0  0  0  0  0  0  0
   45.2416    3.4822   12.2821 N   0  0  0  0  0  0  0  0  0  0  0  0
   45.5188    6.4598   11.3983 C   0  0  0  0  0  0  0  0  0  0  0  0
   44.4819    4.0894   11.1820 C   0  0  1  0  0  0  0  0  0  0  0  0
   46.6753    6.5059   12.1893 C   0  0  0  0  0  0  0  0  0  0  0  0
   44.6282    7.5414   11.4381 C   0  0  0  0  0  0  0  0  0  0  0  0
   43.0852    4.4814   11.6651 C   0  0  0  0  0  0  0  0  0  0  0  0
   46.9320    7.6065   13.0080 C   0  0  0  0  0  0  0  0  0  0  0  0
   44.8861    8.6417   12.2575 C   0  0  0  0  0  0  0  0  0  0  0  0
   46.0369    8.6736   13.0427 C   0  0  0  0  0  0  0  0  0  0  0  0
   45.1665    5.8561   12.2870 S   0  0  0  0  0  0  0  0  0  0  0  0
   46.2392    4.8973   12.3613 O   0  0  0  0  0  0  0  0  0  0  0  0
   44.5707    6.4849   13.4383 O   0  0  0  0  0  0  0  0  0  0  0  0
   44.0005    5.1665   11.4276 O   0  0  0  0  0  0  0  0  0  0  0  0
   45.6150    7.0417   11.3041 O   0  0  0  0  0  0  0  0  0  0  0  0
   45.0334    5.2593   10.9113 C   0  0  0  0  0  0  0  0  0  0  0  0
   43.2779    3.5568   10.6135 N   0  0  0  0  0  0  0  0  0  0  0  0
   45.4800    6.5131   11.6277 C   0  0  0  0  0  0  0  0  0  0  0  0
   43.7397    4.6458   11.4860 C   0  0  1  0  0  0  0  0  0  0  0  0
   46.5792    6.4832   12.4965 C   0  0  0  0  0  0  0  0  0  0  0  0
   44.7972    7.7227   11.4381 C   0  0  0  0  0  0  0  0  0  0  0  0
   43.9394    4.0844   12.8943 C   0  0  0  0  0  0  0  0  0  0  0  0
   46.9854    7.6396   13.1641 C   0  0  0  0  0  0  0  0  0  0  0  0
   45.2052    8.8781   12.1064 C   0  0  0  0  0  0  0  0  0  0  0  0
   46.2984    8.8363   12.9694 C   0  0  0  0  0  0  0  0  0  0  0  0
   46.1960    4.8932   10.1187 H   0  0  0  0  0  0  0  0  0  0  0  0
   44.6774    5.5964    9.6360 H   0  0  0  0  0  0  0  0  0  0  0  0
   44.6911    2.7352   12.7041 H   0  0  0  0  0  0  0  0  0  0  0  0
   45.3672    4.1792   13.0185 H   0  0  0  0  0  0  0  0  0  0  0  0
   44.3594    3.3148   10.4147 H   0  0  0  0  0  0  0  0  0  0  0  0
   47.3832    5.6791   12.1693 H   0  0  0  0  0  0  0  0  0  0  0  0
   43.7266    7.5338   10.8301 H   0  0  0  0  0  0  0  0  0  0  0  0
   42.5293    3.5984   12.0006 H   0  0  0  0  0  0  0  0  0  0  0  0
   43.1219    5.1848   12.5037 H   0  0  0  0  0  0  0  0  0  0  0  0
   42.5106    4.9441   10.8556 H   0  0  0  0  0  0  0  0  0  0  0  0
   47.8320    7.6310   13.6167 H   0  0  0  0  0  0  0  0  0  0  0  0
   44.1893    9.4755   12.2815 H   0  0  0  0  0  0  0  0  0  0  0  0
   46.2379    9.5313   13.6791 H   0  0  0  0  0  0  0  0  0  0  0  0
   44.4273    4.5188   10.8292 H   0  0  0  0  0  0  0  0  0  0  0  0
   45.0243    7.8030   11.4812 H   0  0  0  0  0  0  0  0  0  0  0  0
   45.8416    4.5157   10.9226 H   0  0  0  0  0  0  0  0  0  0  0  0
   44.8864    5.5177    9.8533 H   0  0  0  0  0  0  0  0  0  0  0  0
   43.0586    3.9291    9.6901 H   0  0  0  0  0  0  0  0  0  0  0  0
   42.4071    3.1734   10.9802 H   0  0  0  0  0  0  0  0  0  0  0  0
   42.9505    5.4064   11.5223 H   0  0  0  0  0  0  0  0  0  0  0  0
   47.1250    5.5566   12.6608 H   0  0  0  0  0  0  0  0  0  0  0  0
   43.9444    7.7724   10.7651 H   0  0  0  0  0  0  0  0  0  0  0  0
   44.7345    3.3307   12.9172 H   0  0  0  0  0  0  0  0  0  0  0  0
   44.2028    4.8766   13.6023 H   0  0  0  0  0  0  0  0  0  0  0  0
   43.0203    3.6158   13.2642 H   0  0  0  0  0  0  0  0  0  0  0  0
   47.8387    7.6062   13.8364 H   0  0  0  0  0  0  0  0  0  0  0  0
   44.6706    9.8118   11.9523 H   0  0  0  0  0  0  0  0  0  0  0  0
   46.6161    9.7362   13.4891 H   0  0  0  0  0  0  0  0  0  0  0  0
  4  2  1  0
  3  1  1  0
  4  1  1  0
  5  3  2  0
  6  3  1  0
  4  7  1  0
  8  5  1  0
  9  6  2  0
 10  8  2  0
  9 10  1  0
 12 11  2  0
 13 11  2  0
 14 11  1  0
 15 11  1  0
 19 17  1  0
 18 16  1  0
 19 16  1  0
 20 18  2  0
 21 18  1  0
 19 22  1  0
 23 20  1  0
 24 21  2  0
 25 23  2  0
 24 25  1  0
  1 26  1  0
  1 27  1  0
  2 28  1  0
  2 29  1  0
  4 30  1  1
  5 31  1  0
  6 32  1  0
  7 33  1  0
  7 34  1  0
  7 35  1  0
  8 36  1  0
  9 37  1  0
 10 38  1  0
 14 39  1  0
 15 40  1  0
 16 41  1  0
 16 42  1  0
 17 43  1  0
 17 44  1  0
 19 45  1  6
 20 46  1  0
 21 47  1  0
 22 48  1  0
 22 49  1  0
 22 50  1  0
 23 51  1  0
 24 52  1  0
 25 53  1  0
M  END
> <Uni-Dock RESULT> 
ENERGY=   -5.927  LOWER_BOUND=    2.260  UPPER_BOUND=    4.393
INTER + INTRA:          -5.927
INTER:                  -5.927
INTRA:                   0.000
UNBOUND:                 0.000

$$$$

     RDKit          3D

 53 52  0  0  0  0  0  0  0  0999 V2000
   52.5300    6.5851    7.3245 C   0  0  0  0  0  0  0  0  0  0  0  0
   52.8869    8.9264    8.1447 N   0  0  0  0  0  0  0  0  0  0  0  0
   53.5523    5.8801    8.1884 C   0  0  0  0  0  0  0  0  0  0  0  0
   52.8426    8.0561    6.9627 C   0  0  1  0  0  0  0  0  0  0  0  0
   53.4788    5.9633    9.5858 C   0  0  0  0  0  0  0  0  0  0  0  0
   54.5868    5.1331    7.6083 C   0  0  0  0  0  0  0  0  0  0  0  0
   54.1296    8.2096    6.1518 C   0  0  0  0  0  0  0  0  0  0  0  0
   54.4237    5.3196   10.3859 C   0  0  0  0  0  0  0  0  0  0  0  0
   55.5314    4.4897    8.4098 C   0  0  0  0  0  0  0  0  0  0  0  0
   55.4503    4.5838    9.7978 C   0  0  0  0  0  0  0  0  0  0  0  0
   54.0661    6.8746    8.3476 S   0  0  0  0  0  0  0  0  0  0  0  0
   53.0680    7.5293    9.1543 O   0  0  0  0  0  0  0  0  0  0  0  0
   55.4825    6.9612    8.5963 O   0  0  0  0  0  0  0  0  0  0  0  0
   53.7904    7.3234    6.8324 O   0  0  0  0  0  0  0  0  0  0  0  0
   53.7129    5.3115    8.2761 O   0  0  0  0  0  0  0  0  0  0  0  0
   52.9126    6.8051    7.3827 C   0  0  0  0  0  0  0  0  0  0  0  0
   52.8620    8.5060    5.6012 N   0  0  0  0  0  0  0  0  0  0  0  0
   53.7562    5.9441    8.2947 C   0  0  0  0  0  0  0  0  0  0  0  0
   53.7252    7.8555    6.5973 C   0  0  1  0  0  0  0  0  0  0  0  0
   53.7311    6.1398    9.6822 C   0  0  0  0  0  0  0  0  0  0  0  0
   54.5804    4.9414    7.7653 C   0  0  0  0  0  0  0  0  0  0  0  0
   54.3108    8.9356    7.5076 C   0  0  0  0  0  0  0  0  0  0  0  0
   54.5170    5.3499   10.5227 C   0  0  0  0  0  0  0  0  0  0  0  0
   55.3652    4.1522    8.6075 C   0  0  0  0  0  0  0  0  0  0  0  0
   55.3339    4.3569    9.9855 C   0  0  0  0  0  0  0  0  0  0  0  0
   51.5550    6.5372    7.8287 H   0  0  0  0  0  0  0  0  0  0  0  0
   52.3969    6.0112    6.3975 H   0  0  0  0  0  0  0  0  0  0  0  0
   53.1220    9.8762    7.8590 H   0  0  0  0  0  0  0  0  0  0  0  0
   53.6548    8.6236    8.7467 H   0  0  0  0  0  0  0  0  0  0  0  0
   52.0147    8.4120    6.3368 H   0  0  0  0  0  0  0  0  0  0  0  0
   52.6803    6.5336   10.0572 H   0  0  0  0  0  0  0  0  0  0  0  0
   54.6636    5.0474    6.5270 H   0  0  0  0  0  0  0  0  0  0  0  0
   54.2434    9.2404    5.7971 H   0  0  0  0  0  0  0  0  0  0  0  0
   55.0195    7.9649    6.7414 H   0  0  0  0  0  0  0  0  0  0  0  0
   54.1131    7.5586    5.2713 H   0  0  0  0  0  0  0  0  0  0  0  0
   54.3564    5.3911   11.4683 H   0  0  0  0  0  0  0  0  0  0  0  0
   56.3299    3.9129    7.9506 H   0  0  0  0  0  0  0  0  0  0  0  0
   56.1850    4.0812   10.4211 H   0  0  0  0  0  0  0  0  0  0  0  0
   52.8363    7.5347    6.7627 H   0  0  0  0  0  0  0  0  0  0  0  0
   54.5231    4.8453    7.9829 H   0  0  0  0  0  0  0  0  0  0  0  0
   52.1199    7.2969    7.9624 H   0  0  0  0  0  0  0  0  0  0  0  0
   52.3929    6.1355    6.6833 H   0  0  0  0  0  0  0  0  0  0  0  0
   52.5286    7.8118    4.9332 H   0  0  0  0  0  0  0  0  0  0  0  0
   53.4093    9.1782    5.0643 H   0  0  0  0  0  0  0  0  0  0  0  0
   54.5481    7.3664    6.0622 H   0  0  0  0  0  0  0  0  0  0  0  0
   53.1003    6.9120   10.1171 H   0  0  0  0  0  0  0  0  0  0  0  0
   54.6132    4.7668    6.6923 H   0  0  0  0  0  0  0  0  0  0  0  0
   53.5285    9.4440    8.0823 H   0  0  0  0  0  0  0  0  0  0  0  0
   55.0289    8.5097    8.2156 H   0  0  0  0  0  0  0  0  0  0  0  0
   54.8462    9.6932    6.9239 H   0  0  0  0  0  0  0  0  0  0  0  0
   54.4912    5.5098   11.5974 H   0  0  0  0  0  0  0  0  0  0  0  0
   56.0003    3.3762    8.1883 H   0  0  0  0  0  0  0  0  0  0  0  0
   55.9447    3.7419   10.6409 H   0  0  0  0  0  0  0  0  0  0  0  0
  4  2  1  0
  3  1  1  0
  4  1  1  0
  5  3  2  0
  6  3  1  0
  4  7  1  0
  8  5  1  0
  9  6  2  0
 10  8  2  0
  9 10  1  0
 12 11  2  0
 13 11  2  0
 14 11  1  0
 15 11  1  0
 19 17  1  0
 18 16  1  0
 19 16  1  0
 20 18  2  0
 21 18  1  0
 19 22  1  0
 23 20  1  0
 24 21  2  0
 25 23  2  0
 24 25  1  0
  1 26  1  0
  1 27  1  0
  2 28  1  0
  2 29  1  0
  4 30  1  1
  5 31  1  0
  6 32  1  0
  7 33  1  0
  7 34  1  0
  7 35  1  0
  8 36  1  0
  9 37  1  0
 10 38  1  0
 14 39  1  0
 15 40  1  0
 16 41  1  0
 16 42  1  0
 17 43  1  0
 17 44  1  0
 19 45  1  6
 20 46  1  0
 21 47  1  0
 22 48  1  0
 22 49  1  0
 22 50  1  0
 23 51  1  0
 24 52  1  0
 25 53  1  0
M  END
> <Uni-Dock RESULT> 
ENERGY=   -5.623  LOWER_BOUND=    9.358  UPPER_BOUND=   10.517
INTER + INTRA:          -5.623
INTER:                  -5.623
INTRA:                   0.000
UNBOUND:                 0.000

$$$$

     RDKit          3D

 53 52  0  0  0  0  0  0  0  0999 V2000
   49.8262    4.7274   19.9574 C   0  0  0  0  0  0  0  0  0  0  0  0
   48.9697    7.0046   20.5595 N   0  0  0  0  0  0  0  0  0  0  0  0
   48.9684    4.4738   18.7374 C   0  0  0  0  0  0  0  0  0  0  0  0
   49.2112    5.6398   21.0445 C   0  0  1  0  0  0  0  0  0  0  0  0
   49.0075    5.3542   17.6471 C   0  0  0  0  0  0  0  0  0  0  0  0
   48.1231    3.3575   18.6759 C   0  0  0  0  0  0  0  0  0  0  0  0
   47.9298    5.0654   21.6494 C   0  0  0  0  0  0  0  0  0  0  0  0
   48.2129    5.1271   16.5226 C   0  0  0  0  0  0  0  0  0  0  0  0
   47.3288    3.1315   17.5505 C   0  0  0  0  0  0  0  0  0  0  0  0
   47.3731    4.0164   16.4749 C   0  0  0  0  0  0  0  0  0  0  0  0
   48.2528    5.2674   19.1071 S   0  0  0  0  0  0  0  0  0  0  0  0
   49.0797    6.4333   18.9269 O   0  0  0  0  0  0  0  0  0  0  0  0
   46.8479    5.2231   18.7911 O   0  0  0  0  0  0  0  0  0  0  0  0
   48.4428    4.8080   20.6323 O   0  0  0  0  0  0  0  0  0  0  0  0
   48.9317    4.0405   18.3280 O   0  0  0  0  0  0  0  0  0  0  0  0
   49.4049    4.8675   19.9899 C   0  0  0  0  0  0  0  0  0  0  0  0
   49.1110    5.2160   22.4109 N   0  0  0  0  0  0  0  0  0  0  0  0
   48.7544    4.5491   18.6631 C   0  0  0  0  0  0  0  0  0  0  0  0
   48.3956    5.1105   21.1312 C   0  0  1  0  0  0  0  0  0  0  0  0
   48.7223    5.5049   17.6387 C   0  0  0  0  0  0  0  0  0  0  0  0
   48.1686    3.2952   18.4403 C   0  0  0  0  0  0  0  0  0  0  0  0
   47.5835    6.3897   20.9252 C   0  0  0  0  0  0  0  0  0  0  0  0
   48.1138    5.2128   16.4170 C   0  0  0  0  0  0  0  0  0  0  0  0
   47.5610    3.0049   17.2178 C   0  0  0  0  0  0  0  0  0  0  0  0
   47.5332    3.9636   16.2069 C   0  0  0  0  0  0  0  0  0  0  0  0
   50.7836    5.1541   19.6279 H   0  0  0  0  0  0  0  0  0  0  0  0
   50.0885    3.7616   20.4100 H   0  0  0  0  0  0  0  0  0  0  0  0
   48.5408    7.5579   21.3003 H   0  0  0  0  0  0  0  0  0  0  0  0
   48.2776    6.9686   19.8088 H   0  0  0  0  0  0  0  0  0  0  0  0
   49.9510    5.7154   21.8513 H   0  0  0  0  0  0  0  0  0  0  0  0
   49.6610    6.2244   17.6717 H   0  0  0  0  0  0  0  0  0  0  0  0
   48.0780    2.6556   19.5054 H   0  0  0  0  0  0  0  0  0  0  0  0
   47.6028    5.6658   22.5060 H   0  0  0  0  0  0  0  0  0  0  0  0
   47.1063    5.0467   20.9276 H   0  0  0  0  0  0  0  0  0  0  0  0
   48.0942    4.0435   22.0072 H   0  0  0  0  0  0  0  0  0  0  0  0
   48.2518    5.8165   15.6833 H   0  0  0  0  0  0  0  0  0  0  0  0
   46.6765    2.2629   17.5123 H   0  0  0  0  0  0  0  0  0  0  0  0
   46.7557    3.8389   15.5984 H   0  0  0  0  0  0  0  0  0  0  0  0
   49.3306    5.1095   20.9164 H   0  0  0  0  0  0  0  0  0  0  0  0
   48.2426    3.3535   18.2145 H   0  0  0  0  0  0  0  0  0  0  0  0
   50.0683    5.7360   19.8808 H   0  0  0  0  0  0  0  0  0  0  0  0
   50.0628    4.0254   20.2460 H   0  0  0  0  0  0  0  0  0  0  0  0
   49.5918    4.3385   22.6064 H   0  0  0  0  0  0  0  0  0  0  0  0
   48.4389    5.3470   23.1663 H   0  0  0  0  0  0  0  0  0  0  0  0
   47.7017    4.2643   21.2017 H   0  0  0  0  0  0  0  0  0  0  0  0
   49.1694    6.4854   17.7875 H   0  0  0  0  0  0  0  0  0  0  0  0
   48.1853    2.5351   19.2180 H   0  0  0  0  0  0  0  0  0  0  0  0
   48.2333    7.2668   20.8285 H   0  0  0  0  0  0  0  0  0  0  0  0
   46.9652    6.3250   20.0243 H   0  0  0  0  0  0  0  0  0  0  0  0
   46.9053    6.5644   21.7683 H   0  0  0  0  0  0  0  0  0  0  0  0
   48.0934    5.9610   15.6289 H   0  0  0  0  0  0  0  0  0  0  0  0
   47.1104    2.0296   17.0535 H   0  0  0  0  0  0  0  0  0  0  0  0
   47.0605    3.7370   15.2550 H   0  0  0  0  0  0  0  0  0  0  0  0
  4  2  1  0
  3  1  1  0
  4  1  1  0
  5  3  2  0
  6  3  1  0
  4  7  1  0
  8  5  1  0
  9  6  2  0
 10  8  2  0
  9 10  1  0
 12 11  2  0
 13 11  2  0
 14 11  1  0
 15 11  1  0
 19 17  1  0
 18 16  1  0
 19 16  1  0
 20 18  2  0
 21 18  1  0
 19 22  1  0
 23 20  1  0
 24 21  2  0
 25 23  2  0
 24 25  1  0
  1 26  1  0
  1 27  1  0
  2 28  1  0
  2 29  1  0
  4 30  1  1
  5 31  1  0
  6 32  1  0
  7 33  1  0
  7 34  1  0
  7 35  1  0
  8 36  1  0
  9 37  1  0
 10 38  1  0
 14 39  1  0
 15 40  1  0
 16 41  1  0
 16 42  1  0
 17 43  1  0
 17 44  1  0
 19 45  1  6
 20 46  1  0
 21 47  1  0
 22 48  1  0
 22 49  1  0
 22 50  1  0
 23 51  1  0
 24 52  1  0
 25 53  1  0
M  END
> <Uni-Dock RESULT> 
ENERGY=   -5.603  LOWER_BOUND=    7.604  UPPER_BOUND=    9.592
INTER + INTRA:          -5.603
INTER:                  -5.603
INTRA:                   0.000
UNBOUND:                 0.000

$$$$

     RDKit          3D

 53 52  0  0  0  0  0  0  0  0999 V2000
   48.9746    6.4434   19.2126 C   0  0  0  0  0  0  0  0  0  0  0  0
   47.2352    6.1325   20.9901 N   0  0  0  0  0  0  0  0  0  0  0  0
   48.7692    5.1472   18.4602 C   0  0  0  0  0  0  0  0  0  0  0  0
   48.6524    6.4112   20.7250 C   0  0  1  0  0  0  0  0  0  0  0  0
   47.5154    4.8325   17.9179 C   0  0  0  0  0  0  0  0  0  0  0  0
   49.8259    4.2418   18.2921 C   0  0  0  0  0  0  0  0  0  0  0  0
   49.5321    5.4304   21.5009 C   0  0  0  0  0  0  0  0  0  0  0  0
   47.3205    3.6348   17.2287 C   0  0  0  0  0  0  0  0  0  0  0  0
   49.6296    3.0440   17.6025 C   0  0  0  0  0  0  0  0  0  0  0  0
   48.3773    2.7404   17.0720 C   0  0  0  0  0  0  0  0  0  0  0  0
   48.2648    4.7233   19.3791 S   0  0  0  0  0  0  0  0  0  0  0  0
   47.0643    5.5199   19.3778 O   0  0  0  0  0  0  0  0  0  0  0  0
   48.2921    3.3130   19.6723 O   0  0  0  0  0  0  0  0  0  0  0  0
   49.2990    5.4632   20.3571 O   0  0  0  0  0  0  0  0  0  0  0  0
   48.9945    4.9061   17.9623 O   0  0  0  0  0  0  0  0  0  0  0  0
   48.8968    6.0868   19.4676 C   0  0  0  0  0  0  0  0  0  0  0  0
   49.6127    6.8266   21.7057 N   0  0  0  0  0  0  0  0  0  0  0  0
   48.6882    4.9300   18.5173 C   0  0  0  0  0  0  0  0  0  0  0  0
   49.2365    5.6508   20.9080 C   0  0  1  0  0  0  0  0  0  0  0  0
   47.3995    4.5845   18.0887 C   0  0  0  0  0  0  0  0  0  0  0  0
   49.7805    4.1823   18.0558 C   0  0  0  0  0  0  0  0  0  0  0  0
   48.0610    4.9563   21.5966 C   0  0  0  0  0  0  0  0  0  0  0  0
   47.2073    3.5107   17.2180 C   0  0  0  0  0  0  0  0  0  0  0  0
   49.5863    3.1091   17.1848 C   0  0  0  0  0  0  0  0  0  0  0  0
   48.3002    2.7732   16.7666 C   0  0  0  0  0  0  0  0  0  0  0  0
   48.3704    7.2251   18.7318 H   0  0  0  0  0  0  0  0  0  0  0  0
   50.0152    6.7677   19.0773 H   0  0  0  0  0  0  0  0  0  0  0  0
   47.0784    6.0947   21.9966 H   0  0  0  0  0  0  0  0  0  0  0  0
   47.0140    5.1973   20.6432 H   0  0  0  0  0  0  0  0  0  0  0  0
   48.8570    7.4162   21.1148 H   0  0  0  0  0  0  0  0  0  0  0  0
   46.6825    5.5240   18.0320 H   0  0  0  0  0  0  0  0  0  0  0  0
   50.8102    4.4640   18.6976 H   0  0  0  0  0  0  0  0  0  0  0  0
   49.3723    5.5367   22.5800 H   0  0  0  0  0  0  0  0  0  0  0  0
   49.3184    4.3889   21.2380 H   0  0  0  0  0  0  0  0  0  0  0  0
   50.5924    5.6220   21.3048 H   0  0  0  0  0  0  0  0  0  0  0  0
   46.3440    3.4017   16.8124 H   0  0  0  0  0  0  0  0  0  0  0  0
   50.4552    2.3484   17.4774 H   0  0  0  0  0  0  0  0  0  0  0  0
   48.2257    1.8086   16.5338 H   0  0  0  0  0  0  0  0  0  0  0  0
   49.0692    6.4155   20.3534 H   0  0  0  0  0  0  0  0  0  0  0  0
   49.6276    4.1648   17.8655 H   0  0  0  0  0  0  0  0  0  0  0  0
   48.0090    6.7335   19.4680 H   0  0  0  0  0  0  0  0  0  0  0  0
   49.7103    6.7048   19.0627 H   0  0  0  0  0  0  0  0  0  0  0  0
   50.4480    7.2554   21.3085 H   0  0  0  0  0  0  0  0  0  0  0  0
   49.8650    6.5313   22.6485 H   0  0  0  0  0  0  0  0  0  0  0  0
   50.0906    4.9631   20.8977 H   0  0  0  0  0  0  0  0  0  0  0  0
   46.5357    5.1490   18.4333 H   0  0  0  0  0  0  0  0  0  0  0  0
   50.7907    4.4341   18.3700 H   0  0  0  0  0  0  0  0  0  0  0  0
   47.1717    5.5963   21.6161 H   0  0  0  0  0  0  0  0  0  0  0  0
   47.7971    4.0250   21.0854 H   0  0  0  0  0  0  0  0  0  0  0  0
   48.3107    4.6949   22.6313 H   0  0  0  0  0  0  0  0  0  0  0  0
   46.2039    3.2501   16.8918 H   0  0  0  0  0  0  0  0  0  0  0  0
   50.4391    2.5358   16.8310 H   0  0  0  0  0  0  0  0  0  0  0  0
   48.1494    1.9380   16.0881 H   0  0  0  0  0  0  0  0  0  0  0  0
  4  2  1  0
  3  1  1  0
  4  1  1  0
  5  3  2  0
  6  3  1  0
  4  7  1  0
  8  5  1  0
  9  6  2  0
 10  8  2  0
  9 10  1  0
 12 11  2  0
 13 11  2  0
 14 11  1  0
 15 11  1  0
 19 17  1  0
 18 16  1  0
 19 16  1  0
 20 18  2  0
 21 18  1  0
 19 22  1  0
 23 20  1  0
 24 21  2  0
 25 23  2  0
 24 25  1  0
  1 26  1  0
  1 27  1  0
  2 28  1  0
  2 29  1  0
  4 30  1  1
  5 31  1  0
  6 32  1  0
  7 33  1  0
  7 34  1  0
  7 35  1  0
  8 36  1  0
  9 37  1  0
 10 38  1  0
 14 39  1  0
 15 40  1  0
 16 41  1  0
 16 42  1  0
 17 43  1  0
 17 44  1  0
 19 45  1  6
 20 46  1  0
 21 47  1  0
 22 48  1  0
 22 49  1  0
 22 50  1  0
 23 51  1  0
 24 52  1  0
 25 53  1  0
M  END
> <Uni-Dock RESULT> 
ENERGY=   -5.539  LOWER_BOUND=    8.056  UPPER_BOUND=    9.580
INTER + INTRA:          -5.539
INTER:                  -5.539
INTRA:                   0.000
UNBOUND:                 0.000

$$$$

     RDKit          3D

 53 52  0  0  0  0  0  0  0  0999 V2000
   47.5885    5.8134   19.9168 C   0  0  0  0  0  0  0  0  0  0  0  0
   49.6566    7.2278   19.8528 N   0  0  0  0  0  0  0  0  0  0  0  0
   47.9466    4.8321   18.8226 C   0  0  0  0  0  0  0  0  0  0  0  0
   48.1898    7.2321   19.7827 C   0  0  1  0  0  0  0  0  0  0  0  0
   49.1131    4.0602   18.9156 C   0  0  0  0  0  0  0  0  0  0  0  0
   47.1205    4.6776   17.7009 C   0  0  0  0  0  0  0  0  0  0  0  0
   47.7289    7.9575   18.5180 C   0  0  0  0  0  0  0  0  0  0  0  0
   49.4501    3.1586   17.9052 C   0  0  0  0  0  0  0  0  0  0  0  0
   47.4587    3.7753   16.6909 C   0  0  0  0  0  0  0  0  0  0  0  0
   48.6235    3.0170   16.7927 C   0  0  0  0  0  0  0  0  0  0  0  0
   48.7014    5.5793   18.4346 S   0  0  0  0  0  0  0  0  0  0  0  0
   49.6581    5.5288   19.5105 O   0  0  0  0  0  0  0  0  0  0  0  0
   49.0627    5.6328   17.0409 O   0  0  0  0  0  0  0  0  0  0  0  0
   47.7267    6.8134   18.7520 O   0  0  0  0  0  0  0  0  0  0  0  0
   47.6943    4.3410   18.5948 O   0  0  0  0  0  0  0  0  0  0  0  0
   47.7949    5.9902   19.5642 C   0  0  0  0  0  0  0  0  0  0  0  0
   47.3624    8.4032   19.8084 N   0  0  0  0  0  0  0  0  0  0  0  0
   48.0857    4.8390   18.6288 C   0  0  0  0  0  0  0  0  0  0  0  0
   47.8465    7.3719   18.8797 C   0  0  1  0  0  0  0  0  0  0  0  0
   49.3144    4.1674   18.6873 C   0  0  0  0  0  0  0  0  0  0  0  0
   47.1330    4.4305   17.6851 C   0  0  0  0  0  0  0  0  0  0  0  0
   49.2610    7.7473   18.4361 C   0  0  0  0  0  0  0  0  0  0  0  0
   49.5852    3.1102   17.8173 C   0  0  0  0  0  0  0  0  0  0  0  0
   47.4056    3.3728   16.8162 C   0  0  0  0  0  0  0  0  0  0  0  0
   48.6314    2.7134   16.8820 C   0  0  0  0  0  0  0  0  0  0  0  0
   47.8894    5.3840   20.8824 H   0  0  0  0  0  0  0  0  0  0  0  0
   46.4945    5.8944   19.9726 H   0  0  0  0  0  0  0  0  0  0  0  0
   50.0056    8.1780   19.7328 H   0  0  0  0  0  0  0  0  0  0  0  0
   50.0217    6.6996   19.0581 H   0  0  0  0  0  0  0  0  0  0  0  0
   47.8322    7.8113   20.6432 H   0  0  0  0  0  0  0  0  0  0  0  0
   49.7661    4.1605   19.7808 H   0  0  0  0  0  0  0  0  0  0  0  0
   46.2067    5.2597   17.6066 H   0  0  0  0  0  0  0  0  0  0  0  0
   48.0608    9.0020   18.5278 H   0  0  0  0  0  0  0  0  0  0  0  0
   48.1278    7.4944   17.6093 H   0  0  0  0  0  0  0  0  0  0  0  0
   46.6359    7.9600   18.4491 H   0  0  0  0  0  0  0  0  0  0  0  0
   50.3570    2.5655   17.9884 H   0  0  0  0  0  0  0  0  0  0  0  0
   46.8116    3.6627   15.8250 H   0  0  0  0  0  0  0  0  0  0  0  0
   48.8852    2.3136   16.0068 H   0  0  0  0  0  0  0  0  0  0  0  0
   47.7210    6.9344   19.7241 H   0  0  0  0  0  0  0  0  0  0  0  0
   47.2468    4.2190   17.7318 H   0  0  0  0  0  0  0  0  0  0  0  0
   48.4891    5.9638   20.4149 H   0  0  0  0  0  0  0  0  0  0  0  0
   46.7972    5.8232   19.9937 H   0  0  0  0  0  0  0  0  0  0  0  0
   46.3900    8.2153   20.0501 H   0  0  0  0  0  0  0  0  0  0  0  0
   47.3701    9.3104   19.3430 H   0  0  0  0  0  0  0  0  0  0  0  0
   47.1922    7.3767   17.9996 H   0  0  0  0  0  0  0  0  0  0  0  0
   50.0703    4.4662   19.4104 H   0  0  0  0  0  0  0  0  0  0  0  0
   46.1702    4.9326   17.6237 H   0  0  0  0  0  0  0  0  0  0  0  0
   49.9618    7.7381   19.2784 H   0  0  0  0  0  0  0  0  0  0  0  0
   49.6347    7.0531   17.6766 H   0  0  0  0  0  0  0  0  0  0  0  0
   49.2805    8.7493   17.9925 H   0  0  0  0  0  0  0  0  0  0  0  0
   50.5413    2.5960   17.8699 H   0  0  0  0  0  0  0  0  0  0  0  0
   46.6604    3.0620   16.0886 H   0  0  0  0  0  0  0  0  0  0  0  0
   48.8430    1.8896   16.2057 H   0  0  0  0  0  0  0  0  0  0  0  0
  4  2  1  0
  3  1  1  0
  4  1  1  0
  5  3  2  0
  6  3  1  0
  4  7  1  0
  8  5  1  0
  9  6  2  0
 10  8  2  0
  9 10  1  0
 12 11  2  0
 13 11  2  0
 14 11  1  0
 15 11  1  0
 19 17  1  0
 18 16  1  0
 19 16  1  0
 20 18  2  0
 21 18  1  0
 19 22  1  0
 23 20  1  0
 24 21  2  0
 25 23  2  0
 24 25  1  0
  1 26  1  0
  1 27  1  0
  2 28  1  0
  2 29  1  0
  4 30  1  1
  5 31  1  0
  6 32  1  0
  7 33  1  0
  7 34  1  0
  7 35  1  0
  8 36  1  0
  9 37  1  0
 10 38  1  0
 14 39  1  0
 15 40  1  0
 16 41  1  0
 16 42  1  0
 17 43  1  0
 17 44  1  0
 19 45  1  6
 20 46  1  0
 21 47  1  0
 22 48  1  0
 22 49  1  0
 22 50  1  0
 23 51  1  0
 24 52  1  0
 25 53  1  0
M  END
> <Uni-Dock RESULT> 
ENERGY=   -5.396  LOWER_BOUND=    7.687  UPPER_BOUND=    9.076
INTER + INTRA:          -5.396
INTER:                  -5.396
INTRA:                   0.000
UNBOUND:                 0.000

$$$$

     RDKit          3D

 53 52  0  0  0  0  0  0  0  0999 V2000
   55.0543    4.3199    8.1949 C   0  0  0  0  0  0  0  0  0  0  0  0
   57.0022    5.2465    9.4710 N   0  0  0  0  0  0  0  0  0  0  0  0
   54.5232    5.6121    7.6149 C   0  0  0  0  0  0  0  0  0  0  0  0
   55.7830    4.4325    9.5546 C   0  0  1  0  0  0  0  0  0  0  0  0
   55.3412    6.4182    6.8111 C   0  0  0  0  0  0  0  0  0  0  0  0
   53.2079    6.0241    7.8697 C   0  0  0  0  0  0  0  0  0  0  0  0
   54.8806    4.9557   10.6726 C   0  0  0  0  0  0  0  0  0  0  0  0
   54.8569    7.6142    6.2795 C   0  0  0  0  0  0  0  0  0  0  0  0
   52.7246    7.2206    7.3374 C   0  0  0  0  0  0  0  0  0  0  0  0
   53.5491    8.0156    6.5436 C   0  0  0  0  0  0  0  0  0  0  0  0
   55.0859    6.1744    8.4185 S   0  0  0  0  0  0  0  0  0  0  0  0
   56.4354    5.9248    7.9802 O   0  0  0  0  0  0  0  0  0  0  0  0
   54.6248    7.4465    8.9133 O   0  0  0  0  0  0  0  0  0  0  0  0
   54.7509    5.0535    9.5161 O   0  0  0  0  0  0  0  0  0  0  0  0
   54.0850    5.7580    7.2361 O   0  0  0  0  0  0  0  0  0  0  0  0
   55.0668    4.6699    8.4697 C   0  0  0  0  0  0  0  0  0  0  0  0
   55.3926    3.6382   10.6830 N   0  0  0  0  0  0  0  0  0  0  0  0
   54.5305    5.8418    7.6798 C   0  0  0  0  0  0  0  0  0  0  0  0
   55.0425    4.8899    9.9966 C   0  0  1  0  0  0  0  0  0  0  0  0
   55.4022    6.6866    6.9795 C   0  0  0  0  0  0  0  0  0  0  0  0
   53.1540    6.1038    7.6413 C   0  0  0  0  0  0  0  0  0  0  0  0
   56.0230    5.9754   10.4422 C   0  0  0  0  0  0  0  0  0  0  0  0
   54.9066    7.7735    6.2576 C   0  0  0  0  0  0  0  0  0  0  0  0
   52.6604    7.1909    6.9184 C   0  0  0  0  0  0  0  0  0  0  0  0
   53.5364    8.0256    6.2273 C   0  0  0  0  0  0  0  0  0  0  0  0
   55.7301    3.8600    7.4607 H   0  0  0  0  0  0  0  0  0  0  0  0
   54.2216    3.6107    8.2951 H   0  0  0  0  0  0  0  0  0  0  0  0
   57.4305    5.3134   10.3936 H   0  0  0  0  0  0  0  0  0  0  0  0
   56.7425    6.2022    9.2198 H   0  0  0  0  0  0  0  0  0  0  0  0
   56.0963    3.4182    9.8319 H   0  0  0  0  0  0  0  0  0  0  0  0
   56.3642    6.1145    6.5960 H   0  0  0  0  0  0  0  0  0  0  0  0
   52.5503    5.4146    8.4851 H   0  0  0  0  0  0  0  0  0  0  0  0
   55.3873    4.8896   11.6422 H   0  0  0  0  0  0  0  0  0  0  0  0
   54.6000    6.0031   10.5190 H   0  0  0  0  0  0  0  0  0  0  0  0
   53.9627    4.3621   10.7397 H   0  0  0  0  0  0  0  0  0  0  0  0
   55.5004    8.2309    5.6575 H   0  0  0  0  0  0  0  0  0  0  0  0
   51.7032    7.5315    7.5407 H   0  0  0  0  0  0  0  0  0  0  0  0
   53.1716    8.9461    6.1281 H   0  0  0  0  0  0  0  0  0  0  0  0
   55.3065    4.2731    9.3109 H   0  0  0  0  0  0  0  0  0  0  0  0
   53.2239    6.1868    7.4220 H   0  0  0  0  0  0  0  0  0  0  0  0
   56.0867    4.4325    8.1383 H   0  0  0  0  0  0  0  0  0  0  0  0
   54.4611    3.7907    8.2093 H   0  0  0  0  0  0  0  0  0  0  0  0
   54.6996    2.9234   10.4636 H   0  0  0  0  0  0  0  0  0  0  0  0
   55.3468    3.7794   11.6918 H   0  0  0  0  0  0  0  0  0  0  0  0
   54.0338    5.1787   10.3156 H   0  0  0  0  0  0  0  0  0  0  0  0
   56.4746    6.5046    6.9946 H   0  0  0  0  0  0  0  0  0  0  0  0
   52.4570    5.4596    8.1723 H   0  0  0  0  0  0  0  0  0  0  0  0
   57.0476    5.7442   10.1296 H   0  0  0  0  0  0  0  0  0  0  0  0
   55.7524    6.9495   10.0225 H   0  0  0  0  0  0  0  0  0  0  0  0
   56.0200    6.0837   11.5328 H   0  0  0  0  0  0  0  0  0  0  0  0
   55.5907    8.4234    5.7182 H   0  0  0  0  0  0  0  0  0  0  0  0
   51.5914    7.3858    6.8930 H   0  0  0  0  0  0  0  0  0  0  0  0
   53.1517    8.8716    5.6642 H   0  0  0  0  0  0  0  0  0  0  0  0
  4  2  1  0
  3  1  1  0
  4  1  1  0
  5  3  2  0
  6  3  1  0
  4  7  1  0
  8  5  1  0
  9  6  2  0
 10  8  2  0
  9 10  1  0
 12 11  2  0
 13 11  2  0
 14 11  1  0
 15 11  1  0
 19 17  1  0
 18 16  1  0
 19 16  1  0
 20 18  2  0
 21 18  1  0
 19 22  1  0
 23 20  1  0
 24 21  2  0
 25 23  2  0
 24 25  1  0
  1 26  1  0
  1 27  1  0
  2 28  1  0
  2 29  1  0
  4 30  1  1
  5 31  1  0
  6 32  1  0
  7 33  1  0
  7 34  1  0
  7 35  1  0
  8 36  1  0
  9 37  1  0
 10 38  1  0
 14 39  1  0
 15 40  1  0
 16 41  1  0
 16 42  1  0
 17 43  1  0
 17 44  1  0
 19 45  1  6
 20 46  1  0
 21 47  1  0
 22 48  1  0
 22 49  1  0
 22 50  1  0
 23 51  1  0
 24 52  1  0
 25 53  1  0
M  END
> <Uni-Dock RESULT> 
ENERGY=   -5.305  LOWER_BOUND=    9.832  UPPER_BOUND=   11.007
INTER + INTRA:          -5.305
INTER:                  -5.305
INTRA:                   0.000
UNBOUND:                 0.000

$$$$
