
     RDKit          3D

 53 52  0  0  0  0  0  0  0  0999 V2000
   45.4552    4.1558    9.4826 C   0  0  0  0  0  0  0  0  0  0  0  0
   43.9770    2.2971    8.6808 N   0  0  0  0  0  0  0  0  0  0  0  0
   44.6112    4.5479   10.6742 C   0  0  0  0  0  0  0  0  0  0  0  0
   45.3367    2.6644    9.0977 C   0  0  1  0  0  0  0  0  0  0  0  0
   44.9587    4.1215   11.9635 C   0  0  0  0  0  0  0  0  0  0  0  0
   43.4651    5.3373   10.5064 C   0  0  0  0  0  0  0  0  0  0  0  0
   46.2978    2.3336    7.9568 C   0  0  0  0  0  0  0  0  0  0  0  0
   44.1735    4.4751   13.0618 C   0  0  0  0  0  0  0  0  0  0  0  0
   42.6813    5.6897   11.6063 C   0  0  0  0  0  0  0  0  0  0  0  0
   43.0351    5.2584   12.8831 C   0  0  0  0  0  0  0  0  0  0  0  0
   44.2362    3.8132   10.2946 S   0  0  0  0  0  0  0  0  0  0  0  0
   43.9437    2.5023    9.7733 O   0  0  0  0  0  0  0  0  0  0  0  0
   43.3266    4.5721   11.1149 O   0  0  0  0  0  0  0  0  0  0  0  0
   44.6570    4.7175    9.0383 O   0  0  0  0  0  0  0  0  0  0  0  0
   45.6209    3.7398   11.1013 O   0  0  0  0  0  0  0  0  0  0  0  0
   45.3318    4.5826    9.2966 C   0  0  0  0  0  0  0  0  0  0  0  0
   45.4074    3.5436    7.0501 N   0  0  0  0  0  0  0  0  0  0  0  0
   44.6531    4.6449   10.6450 C   0  0  0  0  0  0  0  0  0  0  0  0
   44.8340    3.4292    8.3991 C   0  0  1  0  0  0  0  0  0  0  0  0
   43.3211    5.0688   10.7515 C   0  0  0  0  0  0  0  0  0  0  0  0
   45.3431    4.2764   11.8078 C   0  0  0  0  0  0  0  0  0  0  0  0
   45.2034    2.0556    8.9600 C   0  0  0  0  0  0  0  0  0  0  0  0
   42.6920    5.1204   11.9963 C   0  0  0  0  0  0  0  0  0  0  0  0
   44.7120    4.3286   13.0518 C   0  0  0  0  0  0  0  0  0  0  0  0
   43.3871    4.7501   13.1457 C   0  0  0  0  0  0  0  0  0  0  0  0
   45.1944    4.7858    8.6214 H   0  0  0  0  0  0  0  0  0  0  0  0
   46.5015    4.3948    9.7159 H   0  0  0  0  0  0  0  0  0  0  0  0
   43.3363    2.4913    9.4531 H   0  0  0  0  0  0  0  0  0  0  0  0
   43.6761    2.9033    7.9189 H   0  0  0  0  0  0  0  0  0  0  0  0
   45.6026    2.0396    9.9587 H   0  0  0  0  0  0  0  0  0  0  0  0
   45.8444    3.5099   12.1205 H   0  0  0  0  0  0  0  0  0  0  0  0
   43.1738    5.6831    9.5173 H   0  0  0  0  0  0  0  0  0  0  0  0
   46.2406    1.2724    7.6898 H   0  0  0  0  0  0  0  0  0  0  0  0
   46.0753    2.9210    7.0588 H   0  0  0  0  0  0  0  0  0  0  0  0
   47.3319    2.5449    8.2497 H   0  0  0  0  0  0  0  0  0  0  0  0
   44.4507    4.1391   14.0576 H   0  0  0  0  0  0  0  0  0  0  0  0
   41.7942    6.3021   11.4669 H   0  0  0  0  0  0  0  0  0  0  0  0
   42.4245    5.5334   13.7389 H   0  0  0  0  0  0  0  0  0  0  0  0
   45.0127    4.1140    8.3537 H   0  0  0  0  0  0  0  0  0  0  0  0
   45.6615    4.5305   11.6780 H   0  0  0  0  0  0  0  0  0  0  0  0
   45.1600    5.5450    8.7951 H   0  0  0  0  0  0  0  0  0  0  0  0
   46.4196    4.5111    9.4306 H   0  0  0  0  0  0  0  0  0  0  0  0
   45.1859    4.4588    6.6597 H   0  0  0  0  0  0  0  0  0  0  0  0
   46.4245    3.4946    7.1017 H   0  0  0  0  0  0  0  0  0  0  0  0
   43.7434    3.4797    8.2991 H   0  0  0  0  0  0  0  0  0  0  0  0
   42.7649    5.3626    9.8642 H   0  0  0  0  0  0  0  0  0  0  0  0
   46.3767    3.9424   11.7531 H   0  0  0  0  0  0  0  0  0  0  0  0
   44.8809    1.2568    8.2822 H   0  0  0  0  0  0  0  0  0  0  0  0
   46.2850    1.9577    9.1056 H   0  0  0  0  0  0  0  0  0  0  0  0
   44.7143    1.8771    9.9231 H   0  0  0  0  0  0  0  0  0  0  0  0
   41.6588    5.4497   12.0690 H   0  0  0  0  0  0  0  0  0  0  0  0
   45.2545    4.0394   13.9479 H   0  0  0  0  0  0  0  0  0  0  0  0
   42.8965    4.7900   14.1146 H   0  0  0  0  0  0  0  0  0  0  0  0
  4  2  1  0
  3  1  1  0
  4  1  1  0
  5  3  2  0
  6  3  1  0
  4  7  1  0
  8  5  1  0
  9  6  2  0
 10  8  2  0
  9 10  1  0
 12 11  2  0
 13 11  2  0
 14 11  1  0
 15 11  1  0
 19 17  1  0
 18 16  1  0
 19 16  1  0
 20 18  2  0
 21 18  1  0
 19 22  1  0
 23 20  1  0
 24 21  2  0
 25 23  2  0
 24 25  1  0
  1 26  1  0
  1 27  1  0
  2 28  1  0
  2 29  1  0
  4 30  1  1
  5 31  1  0
  6 32  1  0
  7 33  1  0
  7 34  1  0
  7 35  1  0
  8 36  1  0
  9 37  1  0
 10 38  1  0
 14 39  1  0
 15 40  1  0
 16 41  1  0
 16 42  1  0
 17 43  1  0
 17 44  1  0
 19 45  1  1
 20 46  1  0
 21 47  1  0
 22 48  1  0
 22 49  1  0
 22 50  1  0
 23 51  1  0
 24 52  1  0
 25 53  1  0
M  END
> <Uni-Dock RESULT> 
ENERGY=   -7.220  LOWER_BOUND=    0.000  UPPER_BOUND=    0.000
INTER + INTRA:          -7.220
INTER:                  -7.220
INTRA:                   0.000
UNBOUND:                 0.000

$$$$

     RDKit          3D

 53 52  0  0  0  0  0  0  0  0999 V2000
   44.9204    5.2379   11.5310 C   0  0  0  0  0  0  0  0  0  0  0  0
   42.9013    5.1110   13.0108 N   0  0  0  0  0  0  0  0  0  0  0  0
   45.3610    6.6206   11.9556 C   0  0  0  0  0  0  0  0  0  0  0  0
   44.1615    4.4602   12.6290 C   0  0  1  0  0  0  0  0  0  0  0  0
   46.4021    6.7829   12.8800 C   0  0  0  0  0  0  0  0  0  0  0  0
   44.7302    7.7597   11.4369 C   0  0  0  0  0  0  0  0  0  0  0  0
   43.8482    3.0422   12.1537 C   0  0  0  0  0  0  0  0  0  0  0  0
   46.8015    8.0591   13.2794 C   0  0  0  0  0  0  0  0  0  0  0  0
   45.1313    9.0351   11.8378 C   0  0  0  0  0  0  0  0  0  0  0  0
   46.1660    9.1846   12.7589 C   0  0  0  0  0  0  0  0  0  0  0  0
   44.6493    6.3836   12.4674 S   0  0  0  0  0  0  0  0  0  0  0  0
   43.7304    5.7533   13.3807 O   0  0  0  0  0  0  0  0  0  0  0  0
   44.8780    7.8051   12.4121 O   0  0  0  0  0  0  0  0  0  0  0  0
   44.2462    5.8799   10.9987 O   0  0  0  0  0  0  0  0  0  0  0  0
   46.0892    5.6991   12.6453 O   0  0  0  0  0  0  0  0  0  0  0  0
   44.8230    5.4365   11.1032 C   0  0  0  0  0  0  0  0  0  0  0  0
   42.9553    3.8281   10.8637 N   0  0  0  0  0  0  0  0  0  0  0  0
   45.3924    6.6194   11.8506 C   0  0  0  0  0  0  0  0  0  0  0  0
   43.5437    4.8518   11.7398 C   0  0  1  0  0  0  0  0  0  0  0  0
   44.7449    7.8622   11.8139 C   0  0  0  0  0  0  0  0  0  0  0  0
   46.5732    6.4912   12.5944 C   0  0  0  0  0  0  0  0  0  0  0  0
   43.8122    4.2156   13.1040 C   0  0  0  0  0  0  0  0  0  0  0  0
   45.2673    8.9536   12.5095 C   0  0  0  0  0  0  0  0  0  0  0  0
   47.0941    7.5840   13.2894 C   0  0  0  0  0  0  0  0  0  0  0  0
   46.4412    8.8143   13.2472 C   0  0  0  0  0  0  0  0  0  0  0  0
   44.3004    5.3088   10.6270 H   0  0  0  0  0  0  0  0  0  0  0  0
   45.8147    4.6752   11.2312 H   0  0  0  0  0  0  0  0  0  0  0  0
   43.1115    6.0499   13.3558 H   0  0  0  0  0  0  0  0  0  0  0  0
   42.3218    5.2486   12.1839 H   0  0  0  0  0  0  0  0  0  0  0  0
   44.7859    4.3878   13.5275 H   0  0  0  0  0  0  0  0  0  0  0  0
   46.9090    5.9150   13.2957 H   0  0  0  0  0  0  0  0  0  0  0  0
   43.9210    7.6621   10.7169 H   0  0  0  0  0  0  0  0  0  0  0  0
   43.3304    2.4717   12.9329 H   0  0  0  0  0  0  0  0  0  0  0  0
   43.2141    3.0472   11.2599 H   0  0  0  0  0  0  0  0  0  0  0  0
   44.7706    2.5045   11.9090 H   0  0  0  0  0  0  0  0  0  0  0  0
   47.6094    8.1750   13.9973 H   0  0  0  0  0  0  0  0  0  0  0  0
   44.6365    9.9129   11.4304 H   0  0  0  0  0  0  0  0  0  0  0  0
   46.4778   10.1779   13.0704 H   0  0  0  0  0  0  0  0  0  0  0  0
   43.8091    5.0093   11.1013 H   0  0  0  0  0  0  0  0  0  0  0  0
   46.7486    6.3067   12.2508 H   0  0  0  0  0  0  0  0  0  0  0  0
   44.6108    5.7649   10.0763 H   0  0  0  0  0  0  0  0  0  0  0  0
   45.5870    4.6530   11.0091 H   0  0  0  0  0  0  0  0  0  0  0  0
   42.7798    4.2255    9.9416 H   0  0  0  0  0  0  0  0  0  0  0  0
   43.6210    3.0684   10.7245 H   0  0  0  0  0  0  0  0  0  0  0  0
   42.7970    5.6440   11.8690 H   0  0  0  0  0  0  0  0  0  0  0  0
   43.8285    7.9882   11.2417 H   0  0  0  0  0  0  0  0  0  0  0  0
   47.0948    5.5379   12.6409 H   0  0  0  0  0  0  0  0  0  0  0  0
   42.8994    3.7671   13.5128 H   0  0  0  0  0  0  0  0  0  0  0  0
   44.5737    3.4304   13.0393 H   0  0  0  0  0  0  0  0  0  0  0  0
   44.1558    4.9618   13.8277 H   0  0  0  0  0  0  0  0  0  0  0  0
   44.7579    9.9131   12.4757 H   0  0  0  0  0  0  0  0  0  0  0  0
   48.0095    7.4747   13.8649 H   0  0  0  0  0  0  0  0  0  0  0  0
   46.8472    9.6644   13.7890 H   0  0  0  0  0  0  0  0  0  0  0  0
  4  2  1  0
  3  1  1  0
  4  1  1  0
  5  3  2  0
  6  3  1  0
  4  7  1  0
  8  5  1  0
  9  6  2  0
 10  8  2  0
  9 10  1  0
 12 11  2  0
 13 11  2  0
 14 11  1  0
 15 11  1  0
 19 17  1  0
 18 16  1  0
 19 16  1  0
 20 18  2  0
 21 18  1  0
 19 22  1  0
 23 20  1  0
 24 21  2  0
 25 23  2  0
 24 25  1  0
  1 26  1  0
  1 27  1  0
  2 28  1  0
  2 29  1  0
  4 30  1  1
  5 31  1  0
  6 32  1  0
  7 33  1  0
  7 34  1  0
  7 35  1  0
  8 36  1  0
  9 37  1  0
 10 38  1  0
 14 39  1  0
 15 40  1  0
 16 41  1  0
 16 42  1  0
 17 43  1  0
 17 44  1  0
 19 45  1  1
 20 46  1  0
 21 47  1  0
 22 48  1  0
 22 49  1  0
 22 50  1  0
 23 51  1  0
 24 52  1  0
 25 53  1  0
M  END
> <Uni-Dock RESULT> 
ENERGY=   -6.533  LOWER_BOUND=    3.135  UPPER_BOUND=    3.870
INTER + INTRA:          -6.533
INTER:                  -6.533
INTRA:                   0.000
UNBOUND:                 0.000

$$$$

     RDKit          3D

 53 52  0  0  0  0  0  0  0  0999 V2000
   45.0870    7.0934   12.2629 C   0  0  0  0  0  0  0  0  0  0  0  0
   47.5435    6.5952   12.2657 N   0  0  0  0  0  0  0  0  0  0  0  0
   44.6309    5.7187   11.8289 C   0  0  0  0  0  0  0  0  0  0  0  0
   46.4106    7.0891   13.0594 C   0  0  1  0  0  0  0  0  0  0  0  0
   44.1369    4.8035   12.7687 C   0  0  0  0  0  0  0  0  0  0  0  0
   44.7021    5.3369   10.4822 C   0  0  0  0  0  0  0  0  0  0  0  0
   46.7404    8.4993   13.5466 C   0  0  0  0  0  0  0  0  0  0  0  0
   43.7257    3.5310   12.3691 C   0  0  0  0  0  0  0  0  0  0  0  0
   44.2904    4.0638   10.0849 C   0  0  0  0  0  0  0  0  0  0  0  0
   43.8029    3.1613   11.0279 C   0  0  0  0  0  0  0  0  0  0  0  0
   45.5306    5.6908   11.9487 S   0  0  0  0  0  0  0  0  0  0  0  0
   46.8756    5.7283   12.4637 O   0  0  0  0  0  0  0  0  0  0  0  0
   45.0238    4.6399   11.1033 O   0  0  0  0  0  0  0  0  0  0  0  0
   45.2886    7.0939   11.2096 O   0  0  0  0  0  0  0  0  0  0  0  0
   44.5126    5.8110   13.1827 O   0  0  0  0  0  0  0  0  0  0  0  0
   44.9302    7.2447   11.8333 C   0  0  0  0  0  0  0  0  0  0  0  0
   46.7457    8.9288   11.8453 N   0  0  0  0  0  0  0  0  0  0  0  0
   44.5549    5.7822   11.7821 C   0  0  0  0  0  0  0  0  0  0  0  0
   46.4462    7.4959   11.9828 C   0  0  1  0  0  0  0  0  0  0  0  0
   44.8460    5.0128   10.6470 C   0  0  0  0  0  0  0  0  0  0  0  0
   43.9140    5.1725   12.8691 C   0  0  0  0  0  0  0  0  0  0  0  0
   46.9829    7.0237   13.3345 C   0  0  0  0  0  0  0  0  0  0  0  0
   44.5050    3.6602   10.6020 C   0  0  0  0  0  0  0  0  0  0  0  0
   43.5738    3.8195   12.8221 C   0  0  0  0  0  0  0  0  0  0  0  0
   43.8695    3.0639   11.6893 C   0  0  0  0  0  0  0  0  0  0  0  0
   45.1817    7.7460   11.3844 H   0  0  0  0  0  0  0  0  0  0  0  0
   44.2896    7.5369   12.8743 H   0  0  0  0  0  0  0  0  0  0  0  0
   47.3369    5.6412   11.9624 H   0  0  0  0  0  0  0  0  0  0  0  0
   47.6263    7.1409   11.4090 H   0  0  0  0  0  0  0  0  0  0  0  0
   46.3098    6.4405   13.9377 H   0  0  0  0  0  0  0  0  0  0  0  0
   44.0696    5.0762   13.8194 H   0  0  0  0  0  0  0  0  0  0  0  0
   45.0797    6.0282    9.7323 H   0  0  0  0  0  0  0  0  0  0  0  0
   47.6657    8.5061   14.1337 H   0  0  0  0  0  0  0  0  0  0  0  0
   46.8653    9.1963   12.7101 H   0  0  0  0  0  0  0  0  0  0  0  0
   45.9398    8.8833   14.1880 H   0  0  0  0  0  0  0  0  0  0  0  0
   43.3447    2.8279   13.1052 H   0  0  0  0  0  0  0  0  0  0  0  0
   44.3492    3.7761    9.0384 H   0  0  0  0  0  0  0  0  0  0  0  0
   43.4823    2.1703   10.7178 H   0  0  0  0  0  0  0  0  0  0  0  0
   45.8868    7.7476   11.6270 H   0  0  0  0  0  0  0  0  0  0  0  0
   43.6388    5.4997   12.8676 H   0  0  0  0  0  0  0  0  0  0  0  0
   44.5651    7.7126   10.9086 H   0  0  0  0  0  0  0  0  0  0  0  0
   44.3856    7.7403   12.6483 H   0  0  0  0  0  0  0  0  0  0  0  0
   46.3844    9.2709   10.9557 H   0  0  0  0  0  0  0  0  0  0  0  0
   46.2597    9.4546   12.5712 H   0  0  0  0  0  0  0  0  0  0  0  0
   46.9907    6.9678   11.1913 H   0  0  0  0  0  0  0  0  0  0  0  0
   45.3404    5.4633    9.7893 H   0  0  0  0  0  0  0  0  0  0  0  0
   43.6779    5.7461   13.7625 H   0  0  0  0  0  0  0  0  0  0  0  0
   48.0495    7.2557   13.4345 H   0  0  0  0  0  0  0  0  0  0  0  0
   46.4546    7.5019   14.1669 H   0  0  0  0  0  0  0  0  0  0  0  0
   46.8778    5.9395   13.4448 H   0  0  0  0  0  0  0  0  0  0  0  0
   44.7354    3.0715    9.7179 H   0  0  0  0  0  0  0  0  0  0  0  0
   43.0785    3.3548   13.6704 H   0  0  0  0  0  0  0  0  0  0  0  0
   43.6047    2.0105   11.6537 H   0  0  0  0  0  0  0  0  0  0  0  0
  4  2  1  0
  3  1  1  0
  4  1  1  0
  5  3  2  0
  6  3  1  0
  4  7  1  0
  8  5  1  0
  9  6  2  0
 10  8  2  0
  9 10  1  0
 12 11  2  0
 13 11  2  0
 14 11  1  0
 15 11  1  0
 19 17  1  0
 18 16  1  0
 19 16  1  0
 20 18  2  0
 21 18  1  0
 19 22  1  0
 23 20  1  0
 24 21  2  0
 25 23  2  0
 24 25  1  0
  1 26  1  0
  1 27  1  0
  2 28  1  0
  2 29  1  0
  4 30  1  1
  5 31  1  0
  6 32  1  0
  7 33  1  0
  7 34  1  0
  7 35  1  0
  8 36  1  0
  9 37  1  0
 10 38  1  0
 14 39  1  0
 15 40  1  0
 16 41  1  0
 16 42  1  0
 17 43  1  0
 17 44  1  0
 19 45  1  1
 20 46  1  0
 21 47  1  0
 22 48  1  0
 22 49  1  0
 22 50  1  0
 23 51  1  0
 24 52  1  0
 25 53  1  0
M  END
> <Uni-Dock RESULT> 
ENERGY=   -6.248  LOWER_BOUND=    2.941  UPPER_BOUND=    4.085
INTER + INTRA:          -6.248
INTER:                  -6.248
INTRA:                   0.000
UNBOUND:                 0.000

$$$$

     RDKit          3D

 53 52  0  0  0  0  0  0  0  0999 V2000
   46.5028    7.0163   12.5096 C   0  0  0  0  0  0  0  0  0  0  0  0
   45.1166    9.0733   12.8705 N   0  0  0  0  0  0  0  0  0  0  0  0
   45.3592    6.0978   12.1427 C   0  0  0  0  0  0  0  0  0  0  0  0
   46.2557    8.4969   12.1443 C   0  0  1  0  0  0  0  0  0  0  0  0
   45.0968    5.7894   10.8007 C   0  0  0  0  0  0  0  0  0  0  0  0
   44.5405    5.5470   13.1382 C   0  0  0  0  0  0  0  0  0  0  0  0
   47.4974    9.3328   12.4514 C   0  0  0  0  0  0  0  0  0  0  0  0
   44.0348    4.9497   10.4619 C   0  0  0  0  0  0  0  0  0  0  0  0
   43.4789    4.7075   12.7971 C   0  0  0  0  0  0  0  0  0  0  0  0
   43.2260    4.4095   11.4597 C   0  0  0  0  0  0  0  0  0  0  0  0
   45.0244    6.9357   12.2440 S   0  0  0  0  0  0  0  0  0  0  0  0
   44.7073    8.3376   12.1438 O   0  0  0  0  0  0  0  0  0  0  0  0
   44.0347    5.8956   12.3651 O   0  0  0  0  0  0  0  0  0  0  0  0
   46.0604    6.7907   13.4601 O   0  0  0  0  0  0  0  0  0  0  0  0
   45.9519    6.5363   10.9975 O   0  0  0  0  0  0  0  0  0  0  0  0
   46.5448    6.7502   12.9088 C   0  0  0  0  0  0  0  0  0  0  0  0
   47.2739    8.7918   14.1057 N   0  0  0  0  0  0  0  0  0  0  0  0
   45.4270    6.0282   12.1935 C   0  0  0  0  0  0  0  0  0  0  0  0
   46.2169    8.2173   13.2605 C   0  0  1  0  0  0  0  0  0  0  0  0
   44.2648    5.6564   12.8835 C   0  0  0  0  0  0  0  0  0  0  0  0
   45.5336    5.7232   10.8299 C   0  0  0  0  0  0  0  0  0  0  0  0
   46.0707    9.0943   12.0165 C   0  0  0  0  0  0  0  0  0  0  0  0
   43.2293    4.9951   12.2214 C   0  0  0  0  0  0  0  0  0  0  0  0
   44.4968    5.0617   10.1695 C   0  0  0  0  0  0  0  0  0  0  0  0
   43.3453    4.6982   10.8650 C   0  0  0  0  0  0  0  0  0  0  0  0
   46.7187    6.9274   13.5830 H   0  0  0  0  0  0  0  0  0  0  0  0
   47.4045    6.6552   11.9971 H   0  0  0  0  0  0  0  0  0  0  0  0
   44.2792    8.5326   12.6442 H   0  0  0  0  0  0  0  0  0  0  0  0
   45.2537    8.9552   13.8734 H   0  0  0  0  0  0  0  0  0  0  0  0
   46.0455    8.5813   11.0714 H   0  0  0  0  0  0  0  0  0  0  0  0
   45.7188    6.2024   10.0097 H   0  0  0  0  0  0  0  0  0  0  0  0
   44.7232    5.7685   14.1872 H   0  0  0  0  0  0  0  0  0  0  0  0
   47.3436   10.3818   12.1745 H   0  0  0  0  0  0  0  0  0  0  0  0
   47.7539    9.2979   13.5163 H   0  0  0  0  0  0  0  0  0  0  0  0
   48.3600    8.9652   11.8852 H   0  0  0  0  0  0  0  0  0  0  0  0
   43.8387    4.7169    9.4185 H   0  0  0  0  0  0  0  0  0  0  0  0
   42.8491    4.2849   13.5756 H   0  0  0  0  0  0  0  0  0  0  0  0
   42.3994    3.7556   11.1949 H   0  0  0  0  0  0  0  0  0  0  0  0
   46.5277    7.6472   13.5456 H   0  0  0  0  0  0  0  0  0  0  0  0
   45.9199    5.5607   10.9146 H   0  0  0  0  0  0  0  0  0  0  0  0
   46.7675    6.1885   13.8266 H   0  0  0  0  0  0  0  0  0  0  0  0
   47.4623    6.7048   12.3067 H   0  0  0  0  0  0  0  0  0  0  0  0
   47.3999    8.2153   14.9368 H   0  0  0  0  0  0  0  0  0  0  0  0
   48.1635    8.7719   13.6077 H   0  0  0  0  0  0  0  0  0  0  0  0
   45.2798    8.2634   13.8277 H   0  0  0  0  0  0  0  0  0  0  0  0
   44.1590    5.8794   13.9428 H   0  0  0  0  0  0  0  0  0  0  0  0
   46.4238    6.0016   10.2705 H   0  0  0  0  0  0  0  0  0  0  0  0
   45.8853   10.1384   12.2937 H   0  0  0  0  0  0  0  0  0  0  0  0
   46.9731    9.0657   11.3955 H   0  0  0  0  0  0  0  0  0  0  0  0
   45.2255    8.7699   11.4010 H   0  0  0  0  0  0  0  0  0  0  0  0
   42.3317    4.7114   12.7646 H   0  0  0  0  0  0  0  0  0  0  0  0
   44.5876    4.8306    9.1115 H   0  0  0  0  0  0  0  0  0  0  0  0
   42.5385    4.1837   10.3499 H   0  0  0  0  0  0  0  0  0  0  0  0
  4  2  1  0
  3  1  1  0
  4  1  1  0
  5  3  2  0
  6  3  1  0
  4  7  1  0
  8  5  1  0
  9  6  2  0
 10  8  2  0
  9 10  1  0
 12 11  2  0
 13 11  2  0
 14 11  1  0
 15 11  1  0
 19 17  1  0
 18 16  1  0
 19 16  1  0
 20 18  2  0
 21 18  1  0
 19 22  1  0
 23 20  1  0
 24 21  2  0
 25 23  2  0
 24 25  1  0
  1 26  1  0
  1 27  1  0
  2 28  1  0
  2 29  1  0
  4 30  1  1
  5 31  1  0
  6 32  1  0
  7 33  1  0
  7 34  1  0
  7 35  1  0
  8 36  1  0
  9 37  1  0
 10 38  1  0
 14 39  1  0
 15 40  1  0
 16 41  1  0
 16 42  1  0
 17 43  1  0
 17 44  1  0
 19 45  1  1
 20 46  1  0
 21 47  1  0
 22 48  1  0
 22 49  1  0
 22 50  1  0
 23 51  1  0
 24 52  1  0
 25 53  1  0
M  END
> <Uni-Dock RESULT> 
ENERGY=   -6.225  LOWER_BOUND=    3.616  UPPER_BOUND=    4.718
INTER + INTRA:          -6.225
INTER:                  -6.225
INTRA:                   0.000
UNBOUND:                 0.000

$$$$

     RDKit          3D

 53 52  0  0  0  0  0  0  0  0999 V2000
   44.4284    2.9213    9.7975 C   0  0  0  0  0  0  0  0  0  0  0  0
   46.1880    4.3050    8.6696 N   0  0  0  0  0  0  0  0  0  0  0  0
   44.2928    3.7841   11.0317 C   0  0  0  0  0  0  0  0  0  0  0  0
   44.8557    3.7016    8.5345 C   0  0  1  0  0  0  0  0  0  0  0  0
   43.2298    4.6896   11.1534 C   0  0  0  0  0  0  0  0  0  0  0  0
   45.2318    3.6964   12.0686 C   0  0  0  0  0  0  0  0  0  0  0  0
   44.8653    2.7767    7.3182 C   0  0  0  0  0  0  0  0  0  0  0  0
   43.1108    5.4932   12.2883 C   0  0  0  0  0  0  0  0  0  0  0  0
   45.1109    4.5011   13.2026 C   0  0  0  0  0  0  0  0  0  0  0  0
   44.0513    5.3992   13.3121 C   0  0  0  0  0  0  0  0  0  0  0  0
   44.8676    4.1969   10.4627 S   0  0  0  0  0  0  0  0  0  0  0  0
   45.5044    4.8569    9.3515 O   0  0  0  0  0  0  0  0  0  0  0  0
   44.9967    4.6258   11.8321 O   0  0  0  0  0  0  0  0  0  0  0  0
   45.2905    2.6520   10.3757 O   0  0  0  0  0  0  0  0  0  0  0  0
   43.2943    4.1049   10.1626 O   0  0  0  0  0  0  0  0  0  0  0  0
   44.6158    2.5886   10.0910 C   0  0  0  0  0  0  0  0  0  0  0  0
   46.0535    1.8484    8.2156 N   0  0  0  0  0  0  0  0  0  0  0  0
   44.2734    3.6845   11.0730 C   0  0  0  0  0  0  0  0  0  0  0  0
   45.6406    3.0105    9.0161 C   0  0  1  0  0  0  0  0  0  0  0  0
   45.2024    4.0855   12.0432 C   0  0  0  0  0  0  0  0  0  0  0  0
   43.0245    4.3186   11.0263 C   0  0  0  0  0  0  0  0  0  0  0  0
   45.0830    4.0708    8.0660 C   0  0  0  0  0  0  0  0  0  0  0  0
   44.8886    5.1022   12.9464 C   0  0  0  0  0  0  0  0  0  0  0  0
   42.7127    5.3352   11.9305 C   0  0  0  0  0  0  0  0  0  0  0  0
   43.6444    5.7269   12.8897 C   0  0  0  0  0  0  0  0  0  0  0  0
   45.1395    2.1069    9.9919 H   0  0  0  0  0  0  0  0  0  0  0  0
   43.4616    2.4315    9.6193 H   0  0  0  0  0  0  0  0  0  0  0  0
   46.1757    4.9457    9.4659 H   0  0  0  0  0  0  0  0  0  0  0  0
   46.8680    3.5851    8.9103 H   0  0  0  0  0  0  0  0  0  0  0  0
   44.1405    4.5101    8.3416 H   0  0  0  0  0  0  0  0  0  0  0  0
   42.4868    4.7751   10.3636 H   0  0  0  0  0  0  0  0  0  0  0  0
   46.0651    3.0009   12.0004 H   0  0  0  0  0  0  0  0  0  0  0  0
   45.1441    3.3238    6.4105 H   0  0  0  0  0  0  0  0  0  0  0  0
   45.5730    1.9498    7.4458 H   0  0  0  0  0  0  0  0  0  0  0  0
   43.8716    2.3468    7.1522 H   0  0  0  0  0  0  0  0  0  0  0  0
   42.2834    6.1929   12.3734 H   0  0  0  0  0  0  0  0  0  0  0  0
   45.8437    4.4265   14.0019 H   0  0  0  0  0  0  0  0  0  0  0  0
   43.9577    6.0252   14.1955 H   0  0  0  0  0  0  0  0  0  0  0  0
   45.4906    2.4593    9.4364 H   0  0  0  0  0  0  0  0  0  0  0  0
   42.8472    3.9296   11.0165 H   0  0  0  0  0  0  0  0  0  0  0  0
   45.0090    1.7394   10.6668 H   0  0  0  0  0  0  0  0  0  0  0  0
   43.6994    2.2192    9.6113 H   0  0  0  0  0  0  0  0  0  0  0  0
   46.4169    1.1205    8.8297 H   0  0  0  0  0  0  0  0  0  0  0  0
   45.2425    1.4465    7.7462 H   0  0  0  0  0  0  0  0  0  0  0  0
   46.5388    3.4155    9.4970 H   0  0  0  0  0  0  0  0  0  0  0  0
   46.1775    3.6071   12.1018 H   0  0  0  0  0  0  0  0  0  0  0  0
   42.2859    4.0277   10.2826 H   0  0  0  0  0  0  0  0  0  0  0  0
   45.8114    4.3184    7.2853 H   0  0  0  0  0  0  0  0  0  0  0  0
   44.1655    3.7285    7.5744 H   0  0  0  0  0  0  0  0  0  0  0  0
   44.8552    4.9993    8.5995 H   0  0  0  0  0  0  0  0  0  0  0  0
   45.6157    5.4068   13.6947 H   0  0  0  0  0  0  0  0  0  0  0  0
   41.7423    5.8224   11.8857 H   0  0  0  0  0  0  0  0  0  0  0  0
   43.4010    6.5188   13.5930 H   0  0  0  0  0  0  0  0  0  0  0  0
  4  2  1  0
  3  1  1  0
  4  1  1  0
  5  3  2  0
  6  3  1  0
  4  7  1  0
  8  5  1  0
  9  6  2  0
 10  8  2  0
  9 10  1  0
 12 11  2  0
 13 11  2  0
 14 11  1  0
 15 11  1  0
 19 17  1  0
 18 16  1  0
 19 16  1  0
 20 18  2  0
 21 18  1  0
 19 22  1  0
 23 20  1  0
 24 21  2  0
 25 23  2  0
 24 25  1  0
  1 26  1  0
  1 27  1  0
  2 28  1  0
  2 29  1  0
  4 30  1  1
  5 31  1  0
  6 32  1  0
  7 33  1  0
  7 34  1  0
  7 35  1  0
  8 36  1  0
  9 37  1  0
 10 38  1  0
 14 39  1  0
 15 40  1  0
 16 41  1  0
 16 42  1  0
 17 43  1  0
 17 44  1  0
 19 45  1  1
 20 46  1  0
 21 47  1  0
 22 48  1  0
 22 49  1  0
 22 50  1  0
 23 51  1  0
 24 52  1  0
 25 53  1  0
M  END
> <Uni-Dock RESULT> 
ENERGY=   -5.883  LOWER_BOUND=    1.047  UPPER_BOUND=    2.098
INTER + INTRA:          -5.883
INTER:                  -5.883
INTRA:                   0.000
UNBOUND:                 0.000

$$$$

     RDKit          3D

 53 52  0  0  0  0  0  0  0  0999 V2000
   44.7350    6.1561   12.8523 C   0  0  0  0  0  0  0  0  0  0  0  0
   44.6092    5.3656   10.4770 N   0  0  0  0  0  0  0  0  0  0  0  0
   45.9971    6.9741   12.6971 C   0  0  0  0  0  0  0  0  0  0  0  0
   43.8947    6.0540   11.5600 C   0  0  1  0  0  0  0  0  0  0  0  0
   45.9292    8.3669   12.5550 C   0  0  0  0  0  0  0  0  0  0  0  0
   47.2527    6.3511   12.6858 C   0  0  0  0  0  0  0  0  0  0  0  0
   42.5920    5.3035   11.8328 C   0  0  0  0  0  0  0  0  0  0  0  0
   47.0939    9.1204   12.4014 C   0  0  0  0  0  0  0  0  0  0  0  0
   48.4161    7.1067   12.5321 C   0  0  0  0  0  0  0  0  0  0  0  0
   48.3367    8.4905   12.3895 C   0  0  0  0  0  0  0  0  0  0  0  0
   45.7646    6.6592   11.8778 S   0  0  0  0  0  0  0  0  0  0  0  0
   45.1105    6.3461   10.6328 O   0  0  0  0  0  0  0  0  0  0  0  0
   47.1509    7.0375   11.9832 O   0  0  0  0  0  0  0  0  0  0  0  0
   45.5065    5.4112   12.8521 O   0  0  0  0  0  0  0  0  0  0  0  0
   44.9234    7.8082   12.6165 O   0  0  0  0  0  0  0  0  0  0  0  0
   44.9982    5.8636   13.1300 C   0  0  0  0  0  0  0  0  0  0  0  0
   43.6296    3.9706   12.3081 N   0  0  0  0  0  0  0  0  0  0  0  0
   46.0071    6.9388   12.8004 C   0  0  0  0  0  0  0  0  0  0  0  0
   44.4622    5.1095   11.8941 C   0  0  1  0  0  0  0  0  0  0  0  0
   47.3013    6.5959   12.3848 C   0  0  0  0  0  0  0  0  0  0  0  0
   45.6634    8.2936   12.9013 C   0  0  0  0  0  0  0  0  0  0  0  0
   43.6239    6.0077   10.9838 C   0  0  0  0  0  0  0  0  0  0  0  0
   48.2315    7.5890   12.0741 C   0  0  0  0  0  0  0  0  0  0  0  0
   46.5952    9.2853   12.5900 C   0  0  0  0  0  0  0  0  0  0  0  0
   47.8783    8.9330   12.1764 C   0  0  0  0  0  0  0  0  0  0  0  0
   44.9884    5.1502   13.2135 H   0  0  0  0  0  0  0  0  0  0  0  0
   44.1324    6.6119   13.6494 H   0  0  0  0  0  0  0  0  0  0  0  0
   45.4674    5.8823   10.2735 H   0  0  0  0  0  0  0  0  0  0  0  0
   44.9140    4.4471   10.7964 H   0  0  0  0  0  0  0  0  0  0  0  0
   43.6401    7.0601   11.2058 H   0  0  0  0  0  0  0  0  0  0  0  0
   44.9672    8.8744   12.5626 H   0  0  0  0  0  0  0  0  0  0  0  0
   47.3338    5.2722   12.7960 H   0  0  0  0  0  0  0  0  0  0  0  0
   41.9754    5.2447   10.9289 H   0  0  0  0  0  0  0  0  0  0  0  0
   42.7805    4.2816   12.1809 H   0  0  0  0  0  0  0  0  0  0  0  0
   42.0038    5.8176   12.6006 H   0  0  0  0  0  0  0  0  0  0  0  0
   47.0312   10.2000   12.2912 H   0  0  0  0  0  0  0  0  0  0  0  0
   49.3856    6.6153   12.5244 H   0  0  0  0  0  0  0  0  0  0  0  0
   49.2430    9.0780   12.2700 H   0  0  0  0  0  0  0  0  0  0  0  0
   44.6776    4.9807   12.5573 H   0  0  0  0  0  0  0  0  0  0  0  0
   45.5107    8.2075   13.2913 H   0  0  0  0  0  0  0  0  0  0  0  0
   45.4819    5.1555   13.8170 H   0  0  0  0  0  0  0  0  0  0  0  0
   44.1631    6.2980   13.6959 H   0  0  0  0  0  0  0  0  0  0  0  0
   44.1634    3.3631   12.9285 H   0  0  0  0  0  0  0  0  0  0  0  0
   42.8337    4.3039   12.8514 H   0  0  0  0  0  0  0  0  0  0  0  0
   45.2995    4.7106   11.3096 H   0  0  0  0  0  0  0  0  0  0  0  0
   47.5934    5.5515   12.3011 H   0  0  0  0  0  0  0  0  0  0  0  0
   44.6657    8.5871   13.2199 H   0  0  0  0  0  0  0  0  0  0  0  0
   43.2166    5.4385   10.1403 H   0  0  0  0  0  0  0  0  0  0  0  0
   42.7832    6.4566   11.5246 H   0  0  0  0  0  0  0  0  0  0  0  0
   44.2277    6.8183   10.5632 H   0  0  0  0  0  0  0  0  0  0  0  0
   49.2323    7.3135   11.7521 H   0  0  0  0  0  0  0  0  0  0  0  0
   46.3192   10.3334   12.6697 H   0  0  0  0  0  0  0  0  0  0  0  0
   48.6030    9.7056   11.9339 H   0  0  0  0  0  0  0  0  0  0  0  0
  4  2  1  0
  3  1  1  0
  4  1  1  0
  5  3  2  0
  6  3  1  0
  4  7  1  0
  8  5  1  0
  9  6  2  0
 10  8  2  0
  9 10  1  0
 12 11  2  0
 13 11  2  0
 14 11  1  0
 15 11  1  0
 19 17  1  0
 18 16  1  0
 19 16  1  0
 20 18  2  0
 21 18  1  0
 19 22  1  0
 23 20  1  0
 24 21  2  0
 25 23  2  0
 24 25  1  0
  1 26  1  0
  1 27  1  0
  2 28  1  0
  2 29  1  0
  4 30  1  1
  5 31  1  0
  6 32  1  0
  7 33  1  0
  7 34  1  0
  7 35  1  0
  8 36  1  0
  9 37  1  0
 10 38  1  0
 14 39  1  0
 15 40  1  0
 16 41  1  0
 16 42  1  0
 17 43  1  0
 17 44  1  0
 19 45  1  1
 20 46  1  0
 21 47  1  0
 22 48  1  0
 22 49  1  0
 22 50  1  0
 23 51  1  0
 24 52  1  0
 25 53  1  0
M  END
> <Uni-Dock RESULT> 
ENERGY=   -5.798  LOWER_BOUND=    3.508  UPPER_BOUND=    4.764
INTER + INTRA:          -5.798
INTER:                  -5.798
INTRA:                   0.000
UNBOUND:                 0.000

$$$$

     RDKit          3D

 53 52  0  0  0  0  0  0  0  0999 V2000
   48.4238    6.0890   19.7093 C   0  0  0  0  0  0  0  0  0  0  0  0
   48.6639    4.7023   21.7836 N   0  0  0  0  0  0  0  0  0  0  0  0
   48.5509    4.9502   18.7228 C   0  0  0  0  0  0  0  0  0  0  0  0
   47.8225    5.6717   21.0698 C   0  0  1  0  0  0  0  0  0  0  0  0
   47.4108    4.3987   18.1222 C   0  0  0  0  0  0  0  0  0  0  0  0
   49.8096    4.4247   18.4000 C   0  0  0  0  0  0  0  0  0  0  0  0
   47.6326    6.8967   21.9632 C   0  0  0  0  0  0  0  0  0  0  0  0
   47.5278    3.3408   17.2195 C   0  0  0  0  0  0  0  0  0  0  0  0
   49.9242    3.3666   17.4970 C   0  0  0  0  0  0  0  0  0  0  0  0
   48.7839    2.8247   16.9074 C   0  0  0  0  0  0  0  0  0  0  0  0
   48.5495    4.5975   19.5596 S   0  0  0  0  0  0  0  0  0  0  0  0
   48.2329    4.1797   20.9016 O   0  0  0  0  0  0  0  0  0  0  0  0
   49.1268    3.7304   18.5641 O   0  0  0  0  0  0  0  0  0  0  0  0
   49.4789    5.8977   19.6966 O   0  0  0  0  0  0  0  0  0  0  0  0
   47.2295    5.2282   18.9011 O   0  0  0  0  0  0  0  0  0  0  0  0
   48.8481    6.2402   19.5388 C   0  0  0  0  0  0  0  0  0  0  0  0
   49.3676    7.1030   21.8011 N   0  0  0  0  0  0  0  0  0  0  0  0
   48.5973    5.0322   18.6669 C   0  0  0  0  0  0  0  0  0  0  0  0
   48.9477    5.9143   21.0446 C   0  0  1  0  0  0  0  0  0  0  0  0
   49.6123    4.0905   18.4479 C   0  0  0  0  0  0  0  0  0  0  0  0
   47.3462    4.8332   18.0677 C   0  0  0  0  0  0  0  0  0  0  0  0
   47.6192    5.4253   21.6224 C   0  0  0  0  0  0  0  0  0  0  0  0
   49.3789    2.9712   17.6475 C   0  0  0  0  0  0  0  0  0  0  0  0
   47.1148    3.7130   17.2676 C   0  0  0  0  0  0  0  0  0  0  0  0
   48.1306    2.7825   17.0580 C   0  0  0  0  0  0  0  0  0  0  0  0
   49.4058    6.5567   19.8626 H   0  0  0  0  0  0  0  0  0  0  0  0
   47.7965    6.8652   19.2509 H   0  0  0  0  0  0  0  0  0  0  0  0
   48.7689    3.8702   21.1992 H   0  0  0  0  0  0  0  0  0  0  0  0
   49.6047    5.0788   21.8921 H   0  0  0  0  0  0  0  0  0  0  0  0
   46.8405    5.2099   20.9123 H   0  0  0  0  0  0  0  0  0  0  0  0
   46.4229    4.7901   18.3544 H   0  0  0  0  0  0  0  0  0  0  0  0
   50.7104    4.8352   18.8503 H   0  0  0  0  0  0  0  0  0  0  0  0
   47.1843    6.6174   22.9233 H   0  0  0  0  0  0  0  0  0  0  0  0
   48.5852    7.3984   22.1677 H   0  0  0  0  0  0  0  0  0  0  0  0
   46.9653    7.6227   21.4863 H   0  0  0  0  0  0  0  0  0  0  0  0
   46.6379    2.9192   16.7593 H   0  0  0  0  0  0  0  0  0  0  0  0
   50.9043    2.9652   17.2525 H   0  0  0  0  0  0  0  0  0  0  0  0
   48.8740    2.0011   16.2043 H   0  0  0  0  0  0  0  0  0  0  0  0
   49.2634    6.3182   20.5546 H   0  0  0  0  0  0  0  0  0  0  0  0
   47.3669    5.2380   17.9313 H   0  0  0  0  0  0  0  0  0  0  0  0
   49.7820    6.7071   19.1966 H   0  0  0  0  0  0  0  0  0  0  0  0
   48.0647    6.9911   19.3685 H   0  0  0  0  0  0  0  0  0  0  0  0
   50.2463    7.4566   21.4244 H   0  0  0  0  0  0  0  0  0  0  0  0
   48.6841    7.8497   21.6785 H   0  0  0  0  0  0  0  0  0  0  0  0
   49.7026    5.1361   21.2076 H   0  0  0  0  0  0  0  0  0  0  0  0
   50.5928    4.2236   18.8995 H   0  0  0  0  0  0  0  0  0  0  0  0
   46.5408    5.5477   18.2223 H   0  0  0  0  0  0  0  0  0  0  0  0
   47.7039    5.2461   22.7004 H   0  0  0  0  0  0  0  0  0  0  0  0
   46.8181    6.1559   21.4642 H   0  0  0  0  0  0  0  0  0  0  0  0
   47.3117    4.4805   21.1625 H   0  0  0  0  0  0  0  0  0  0  0  0
   50.1718    2.2460   17.4840 H   0  0  0  0  0  0  0  0  0  0  0  0
   46.1409    3.5662   16.8082 H   0  0  0  0  0  0  0  0  0  0  0  0
   47.9494    1.9105   16.4353 H   0  0  0  0  0  0  0  0  0  0  0  0
  4  2  1  0
  3  1  1  0
  4  1  1  0
  5  3  2  0
  6  3  1  0
  4  7  1  0
  8  5  1  0
  9  6  2  0
 10  8  2  0
  9 10  1  0
 12 11  2  0
 13 11  2  0
 14 11  1  0
 15 11  1  0
 19 17  1  0
 18 16  1  0
 19 16  1  0
 20 18  2  0
 21 18  1  0
 19 22  1  0
 23 20  1  0
 24 21  2  0
 25 23  2  0
 24 25  1  0
  1 26  1  0
  1 27  1  0
  2 28  1  0
  2 29  1  0
  4 30  1  1
  5 31  1  0
  6 32  1  0
  7 33  1  0
  7 34  1  0
  7 35  1  0
  8 36  1  0
  9 37  1  0
 10 38  1  0
 14 39  1  0
 15 40  1  0
 16 41  1  0
 16 42  1  0
 17 43  1  0
 17 44  1  0
 19 45  1  1
 20 46  1  0
 21 47  1  0
 22 48  1  0
 22 49  1  0
 22 50  1  0
 23 51  1  0
 24 52  1  0
 25 53  1  0
M  END
> <Uni-Dock RESULT> 
ENERGY=   -5.766  LOWER_BOUND=    8.584  UPPER_BOUND=   10.469
INTER + INTRA:          -5.766
INTER:                  -5.766
INTRA:                   0.000
UNBOUND:                 0.000

$$$$

     RDKit          3D

 53 52  0  0  0  0  0  0  0  0999 V2000
   40.2294   12.5008   11.9750 C   0  0  0  0  0  0  0  0  0  0  0  0
   38.9860   10.4046   11.3895 N   0  0  0  0  0  0  0  0  0  0  0  0
   39.5710   12.7247   13.3175 C   0  0  0  0  0  0  0  0  0  0  0  0
   40.3111   11.0149   11.5601 C   0  0  1  0  0  0  0  0  0  0  0  0
   40.2288   12.3639   14.5015 C   0  0  0  0  0  0  0  0  0  0  0  0
   38.2906   13.2894   13.3975 C   0  0  0  0  0  0  0  0  0  0  0  0
   41.0811   10.8727   10.2479 C   0  0  0  0  0  0  0  0  0  0  0  0
   39.6164   12.5612   15.7400 C   0  0  0  0  0  0  0  0  0  0  0  0
   37.6800   13.4858   14.6371 C   0  0  0  0  0  0  0  0  0  0  0  0
   38.3424   13.1215   15.8076 C   0  0  0  0  0  0  0  0  0  0  0  0
   39.2695   11.9350   12.9856 S   0  0  0  0  0  0  0  0  0  0  0  0
   39.1248   10.5951   12.4764 O   0  0  0  0  0  0  0  0  0  0  0  0
   38.4110   12.5090   13.9903 O   0  0  0  0  0  0  0  0  0  0  0  0
   39.2732   12.9073   11.7097 O   0  0  0  0  0  0  0  0  0  0  0  0
   40.7726   12.1151   13.5166 O   0  0  0  0  0  0  0  0  0  0  0  0
   39.9978   12.8982   11.8323 C   0  0  0  0  0  0  0  0  0  0  0  0
   39.8308   11.9014    9.5716 N   0  0  0  0  0  0  0  0  0  0  0  0
   39.5883   12.8278   13.2848 C   0  0  0  0  0  0  0  0  0  0  0  0
   39.5549   11.6769   10.9982 C   0  0  1  0  0  0  0  0  0  0  0  0
   38.2468   12.9978   13.6543 C   0  0  0  0  0  0  0  0  0  0  0  0
   40.5421   12.5879   14.2832 C   0  0  0  0  0  0  0  0  0  0  0  0
   40.2661   10.3926   11.4256 C   0  0  0  0  0  0  0  0  0  0  0  0
   37.8674   12.9265   14.9955 C   0  0  0  0  0  0  0  0  0  0  0  0
   40.1605   12.5169   15.6241 C   0  0  0  0  0  0  0  0  0  0  0  0
   38.8238   12.6858   15.9797 C   0  0  0  0  0  0  0  0  0  0  0  0
   39.7000   13.0756   11.2030 H   0  0  0  0  0  0  0  0  0  0  0  0
   41.2403   12.9280   12.0186 H   0  0  0  0  0  0  0  0  0  0  0  0
   38.4797   10.4734   12.2747 H   0  0  0  0  0  0  0  0  0  0  0  0
   38.4411   10.9482   10.7216 H   0  0  0  0  0  0  0  0  0  0  0  0
   40.8444   10.4461   12.3310 H   0  0  0  0  0  0  0  0  0  0  0  0
   41.2237   11.9258   14.4664 H   0  0  0  0  0  0  0  0  0  0  0  0
   37.7588   13.5799   12.4944 H   0  0  0  0  0  0  0  0  0  0  0  0
   41.1667    9.8204    9.9545 H   0  0  0  0  0  0  0  0  0  0  0  0
   40.5893   11.4130    9.4310 H   0  0  0  0  0  0  0  0  0  0  0  0
   42.0965   11.2701   10.3512 H   0  0  0  0  0  0  0  0  0  0  0  0
   40.1341   12.2777   16.6527 H   0  0  0  0  0  0  0  0  0  0  0  0
   36.6869   13.9243   14.6898 H   0  0  0  0  0  0  0  0  0  0  0  0
   37.8664   13.2750   16.7724 H   0  0  0  0  0  0  0  0  0  0  0  0
   39.5951   12.3831   10.9475 H   0  0  0  0  0  0  0  0  0  0  0  0
   40.7787   12.8971   14.1066 H   0  0  0  0  0  0  0  0  0  0  0  0
   39.5628   13.8146   11.4100 H   0  0  0  0  0  0  0  0  0  0  0  0
   41.0859   13.0284   11.7583 H   0  0  0  0  0  0  0  0  0  0  0  0
   39.3774   12.7617    9.2658 H   0  0  0  0  0  0  0  0  0  0  0  0
   40.8309   12.0410    9.4309 H   0  0  0  0  0  0  0  0  0  0  0  0
   38.4744   11.5254   11.1052 H   0  0  0  0  0  0  0  0  0  0  0  0
   37.4880   13.1878   12.8985 H   0  0  0  0  0  0  0  0  0  0  0  0
   41.5894   12.4509   14.0238 H   0  0  0  0  0  0  0  0  0  0  0  0
   39.9702    9.5511   10.7886 H   0  0  0  0  0  0  0  0  0  0  0  0
   41.3553   10.4956   11.3632 H   0  0  0  0  0  0  0  0  0  0  0  0
   40.0098   10.1224   12.4551 H   0  0  0  0  0  0  0  0  0  0  0  0
   36.8247   13.0589   15.2723 H   0  0  0  0  0  0  0  0  0  0  0  0
   40.9068   12.3288   16.3913 H   0  0  0  0  0  0  0  0  0  0  0  0
   38.5276   12.6299   17.0238 H   0  0  0  0  0  0  0  0  0  0  0  0
  4  2  1  0
  3  1  1  0
  4  1  1  0
  5  3  2  0
  6  3  1  0
  4  7  1  0
  8  5  1  0
  9  6  2  0
 10  8  2  0
  9 10  1  0
 12 11  2  0
 13 11  2  0
 14 11  1  0
 15 11  1  0
 19 17  1  0
 18 16  1  0
 19 16  1  0
 20 18  2  0
 21 18  1  0
 19 22  1  0
 23 20  1  0
 24 21  2  0
 25 23  2  0
 24 25  1  0
  1 26  1  0
  1 27  1  0
  2 28  1  0
  2 29  1  0
  4 30  1  1
  5 31  1  0
  6 32  1  0
  7 33  1  0
  7 34  1  0
  7 35  1  0
  8 36  1  0
  9 37  1  0
 10 38  1  0
 14 39  1  0
 15 40  1  0
 16 41  1  0
 16 42  1  0
 17 43  1  0
 17 44  1  0
 19 45  1  1
 20 46  1  0
 21 47  1  0
 22 48  1  0
 22 49  1  0
 22 50  1  0
 23 51  1  0
 24 52  1  0
 25 53  1  0
M  END
> <Uni-Dock RESULT> 
ENERGY=   -5.532  LOWER_BOUND=    8.390  UPPER_BOUND=    9.926
INTER + INTRA:          -5.532
INTER:                  -5.532
INTRA:                   0.000
UNBOUND:                 0.000

$$$$

     RDKit          3D

 53 52  0  0  0  0  0  0  0  0999 V2000
   42.1984   10.6498   10.9634 C   0  0  0  0  0  0  0  0  0  0  0  0
   42.2953   12.6908    9.5117 N   0  0  0  0  0  0  0  0  0  0  0  0
   40.8659   10.9578   11.6083 C   0  0  0  0  0  0  0  0  0  0  0  0
   42.3485   11.2232    9.5369 C   0  0  1  0  0  0  0  0  0  0  0  0
   39.6968   10.3262   11.1623 C   0  0  0  0  0  0  0  0  0  0  0  0
   40.7792   11.8844   12.6564 C   0  0  0  0  0  0  0  0  0  0  0  0
   43.6751   10.7774    8.9234 C   0  0  0  0  0  0  0  0  0  0  0  0
   38.4656   10.6185   11.7510 C   0  0  0  0  0  0  0  0  0  0  0  0
   39.5468   12.1752   13.2436 C   0  0  0  0  0  0  0  0  0  0  0  0
   38.3907   11.5429   12.7908 C   0  0  0  0  0  0  0  0  0  0  0  0
   41.0258   11.5919   10.9783 S   0  0  0  0  0  0  0  0  0  0  0  0
   41.2751   12.3273    9.7647 O   0  0  0  0  0  0  0  0  0  0  0  0
   40.0697   11.9940   11.9784 O   0  0  0  0  0  0  0  0  0  0  0  0
   42.4495   11.3965   11.6910 O   0  0  0  0  0  0  0  0  0  0  0  0
   40.6644   10.0784   10.5879 O   0  0  0  0  0  0  0  0  0  0  0  0
   42.3891   10.7246   11.3993 C   0  0  0  0  0  0  0  0  0  0  0  0
   44.4148   11.6071   10.2811 N   0  0  0  0  0  0  0  0  0  0  0  0
   40.9178   10.9063   11.6900 C   0  0  0  0  0  0  0  0  0  0  0  0
   42.9528   11.7323   10.3744 C   0  0  1  0  0  0  0  0  0  0  0  0
   40.4720   12.0006   12.4442 C   0  0  0  0  0  0  0  0  0  0  0  0
   39.9771    9.9865   11.2071 C   0  0  0  0  0  0  0  0  0  0  0  0
   42.3662   11.5293    8.9770 C   0  0  0  0  0  0  0  0  0  0  0  0
   39.1121   12.1720   12.7075 C   0  0  0  0  0  0  0  0  0  0  0  0
   38.6175   10.1599   11.4715 C   0  0  0  0  0  0  0  0  0  0  0  0
   38.1854   11.2522   12.2210 C   0  0  0  0  0  0  0  0  0  0  0  0
   43.0123   11.0189   11.6020 H   0  0  0  0  0  0  0  0  0  0  0  0
   42.3171    9.5582   10.9369 H   0  0  0  0  0  0  0  0  0  0  0  0
   41.3966   12.9904    9.8956 H   0  0  0  0  0  0  0  0  0  0  0  0
   43.0004   13.0707   10.1417 H   0  0  0  0  0  0  0  0  0  0  0  0
   41.5369   10.8483    8.9019 H   0  0  0  0  0  0  0  0  0  0  0  0
   39.7378    9.6018   10.3520 H   0  0  0  0  0  0  0  0  0  0  0  0
   41.6711   12.3874   13.0228 H   0  0  0  0  0  0  0  0  0  0  0  0
   43.7835   11.1582    7.9017 H   0  0  0  0  0  0  0  0  0  0  0  0
   44.5302   11.1327    9.5096 H   0  0  0  0  0  0  0  0  0  0  0  0
   43.7304    9.6844    8.8758 H   0  0  0  0  0  0  0  0  0  0  0  0
   37.5643   10.1241   11.3978 H   0  0  0  0  0  0  0  0  0  0  0  0
   39.4888   12.8952   14.0558 H   0  0  0  0  0  0  0  0  0  0  0  0
   37.4316   11.7697   13.2487 H   0  0  0  0  0  0  0  0  0  0  0  0
   43.1312   11.4252   10.9882 H   0  0  0  0  0  0  0  0  0  0  0  0
   40.2252    9.6765   11.3658 H   0  0  0  0  0  0  0  0  0  0  0  0
   42.9289   10.8213   12.3515 H   0  0  0  0  0  0  0  0  0  0  0  0
   42.5769    9.6976   11.0581 H   0  0  0  0  0  0  0  0  0  0  0  0
   44.8288   11.7250   11.2051 H   0  0  0  0  0  0  0  0  0  0  0  0
   44.6622   10.6662    9.9761 H   0  0  0  0  0  0  0  0  0  0  0  0
   42.7294   12.7558   10.6974 H   0  0  0  0  0  0  0  0  0  0  0  0
   41.1824   12.7269   12.8325 H   0  0  0  0  0  0  0  0  0  0  0  0
   40.2959    9.1295   10.6182 H   0  0  0  0  0  0  0  0  0  0  0  0
   42.8164   12.2245    8.2591 H   0  0  0  0  0  0  0  0  0  0  0  0
   42.5379   10.5103    8.6123 H   0  0  0  0  0  0  0  0  0  0  0  0
   41.2871   11.7141    8.9703 H   0  0  0  0  0  0  0  0  0  0  0  0
   38.7758   13.0240   13.2926 H   0  0  0  0  0  0  0  0  0  0  0  0
   37.8951    9.4423   11.0916 H   0  0  0  0  0  0  0  0  0  0  0  0
   37.1267   11.3866   12.4260 H   0  0  0  0  0  0  0  0  0  0  0  0
  4  2  1  0
  3  1  1  0
  4  1  1  0
  5  3  2  0
  6  3  1  0
  4  7  1  0
  8  5  1  0
  9  6  2  0
 10  8  2  0
  9 10  1  0
 12 11  2  0
 13 11  2  0
 14 11  1  0
 15 11  1  0
 19 17  1  0
 18 16  1  0
 19 16  1  0
 20 18  2  0
 21 18  1  0
 19 22  1  0
 23 20  1  0
 24 21  2  0
 25 23  2  0
 24 25  1  0
  1 26  1  0
  1 27  1  0
  2 28  1  0
  2 29  1  0
  4 30  1  1
  5 31  1  0
  6 32  1  0
  7 33  1  0
  7 34  1  0
  7 35  1  0
  8 36  1  0
  9 37  1  0
 10 38  1  0
 14 39  1  0
 15 40  1  0
 16 41  1  0
 16 42  1  0
 17 43  1  0
 17 44  1  0
 19 45  1  1
 20 46  1  0
 21 47  1  0
 22 48  1  0
 22 49  1  0
 22 50  1  0
 23 51  1  0
 24 52  1  0
 25 53  1  0
M  END
> <Uni-Dock RESULT> 
ENERGY=   -5.409  LOWER_BOUND=    7.203  UPPER_BOUND=    8.341
INTER + INTRA:          -5.409
INTER:                  -5.409
INTRA:                   0.000
UNBOUND:                 0.000

$$$$
