
     RDKit          3D

 53 52  0  0  0  0  0  0  0  0999 V2000
   43.9961    5.3493   12.8793 C   0  0  0  0  0  0  0  0  0  0  0  0
   43.5455    4.9223   10.4512 N   0  0  0  0  0  0  0  0  0  0  0  0
   45.1214    6.3497   12.7327 C   0  0  0  0  0  0  0  0  0  0  0  0
   43.8607    4.3056   11.7460 C   0  0  1  0  0  0  0  0  0  0  0  0
   44.9245    7.5396   12.0181 C   0  0  0  0  0  0  0  0  0  0  0  0
   46.3761    6.1052   13.3076 C   0  0  0  0  0  0  0  0  0  0  0  0
   45.0918    3.4086   11.6120 C   0  0  0  0  0  0  0  0  0  0  0  0
   45.9621    8.4618   11.8752 C   0  0  0  0  0  0  0  0  0  0  0  0
   47.4132    7.0286   13.1641 C   0  0  0  0  0  0  0  0  0  0  0  0
   47.2064    8.2057   12.4474 C   0  0  0  0  0  0  0  0  0  0  0  0
   45.5956    5.5818   11.9303 S   0  0  0  0  0  0  0  0  0  0  0  0
   46.2454    6.1597   10.7817 O   0  0  0  0  0  0  0  0  0  0  0  0
   46.0182    4.3569   12.5601 O   0  0  0  0  0  0  0  0  0  0  0  0
   44.0372    5.4044   11.5937 O   0  0  0  0  0  0  0  0  0  0  0  0
   45.5415    6.7321   13.0473 O   0  0  0  0  0  0  0  0  0  0  0  0
   44.9085    6.8322   12.3462 C   0  0  0  0  0  0  0  0  0  0  0  0
   47.2380    6.9945   11.4661 N   0  0  0  0  0  0  0  0  0  0  0  0
   44.4659    5.4468   11.9329 C   0  0  0  0  0  0  0  0  0  0  0  0
   46.4134    6.9284   12.6808 C   0  0  1  0  0  0  0  0  0  0  0  0
   44.6736    4.9909   10.6247 C   0  0  0  0  0  0  0  0  0  0  0  0
   43.8503    4.5918   12.8581 C   0  0  0  0  0  0  0  0  0  0  0  0
   46.6915    8.1696   13.5310 C   0  0  0  0  0  0  0  0  0  0  0  0
   44.2672    3.7103   10.2464 C   0  0  0  0  0  0  0  0  0  0  0  0
   43.4434    3.3115   12.4782 C   0  0  0  0  0  0  0  0  0  0  0  0
   43.6507    2.8714   11.1725 C   0  0  0  0  0  0  0  0  0  0  0  0
   44.1160    4.8226   13.8358 H   0  0  0  0  0  0  0  0  0  0  0  0
   43.0504    5.9003   12.9770 H   0  0  0  0  0  0  0  0  0  0  0  0
   44.3233    5.5250   10.1764 H   0  0  0  0  0  0  0  0  0  0  0  0
   43.4931    4.1998    9.7340 H   0  0  0  0  0  0  0  0  0  0  0  0
   43.0113    3.6620   12.0068 H   0  0  0  0  0  0  0  0  0  0  0  0
   43.9562    7.7520   11.5682 H   0  0  0  0  0  0  0  0  0  0  0  0
   46.5540    5.1929   13.8721 H   0  0  0  0  0  0  0  0  0  0  0  0
   44.9046    2.5979   10.8986 H   0  0  0  0  0  0  0  0  0  0  0  0
   45.3432    2.9491   12.5738 H   0  0  0  0  0  0  0  0  0  0  0  0
   45.9679    3.9622   11.2580 H   0  0  0  0  0  0  0  0  0  0  0  0
   45.7975    9.3809   11.3192 H   0  0  0  0  0  0  0  0  0  0  0  0
   48.3825    6.8300   13.6135 H   0  0  0  0  0  0  0  0  0  0  0  0
   48.0137    8.9248   12.3375 H   0  0  0  0  0  0  0  0  0  0  0  0
   43.6726    4.7664   12.2416 H   0  0  0  0  0  0  0  0  0  0  0  0
   45.5364    7.5914   12.5769 H   0  0  0  0  0  0  0  0  0  0  0  0
   44.6375    7.5496   11.5596 H   0  0  0  0  0  0  0  0  0  0  0  0
   44.3182    7.1331   13.2223 H   0  0  0  0  0  0  0  0  0  0  0  0
   48.2224    7.0437   11.7255 H   0  0  0  0  0  0  0  0  0  0  0  0
   47.0343    7.8522   10.9552 H   0  0  0  0  0  0  0  0  0  0  0  0
   46.7189    6.0444   13.2536 H   0  0  0  0  0  0  0  0  0  0  0  0
   45.1652    5.6314    9.8957 H   0  0  0  0  0  0  0  0  0  0  0  0
   43.6831    4.9176   13.8819 H   0  0  0  0  0  0  0  0  0  0  0  0
   46.4005    9.0882   13.0089 H   0  0  0  0  0  0  0  0  0  0  0  0
   46.1334    8.1259   14.4725 H   0  0  0  0  0  0  0  0  0  0  0  0
   47.7552    8.2448   13.7830 H   0  0  0  0  0  0  0  0  0  0  0  0
   44.4376    3.3673    9.2295 H   0  0  0  0  0  0  0  0  0  0  0  0
   42.9661    2.6566   13.2022 H   0  0  0  0  0  0  0  0  0  0  0  0
   43.3365    1.8741   10.8775 H   0  0  0  0  0  0  0  0  0  0  0  0
  4  2  1  0
  3  1  1  0
  4  1  1  0
  5  3  2  0
  6  3  1  0
  4  7  1  0
  8  5  1  0
  9  6  2  0
 10  8  2  0
  9 10  1  0
 12 11  2  0
 13 11  2  0
 14 11  1  0
 15 11  1  0
 19 17  1  0
 18 16  1  0
 19 16  1  0
 20 18  2  0
 21 18  1  0
 19 22  1  0
 23 20  1  0
 24 21  2  0
 25 23  2  0
 24 25  1  0
  1 26  1  0
  1 27  1  0
  2 28  1  0
  2 29  1  0
  4 30  1  6
  5 31  1  0
  6 32  1  0
  7 33  1  0
  7 34  1  0
  7 35  1  0
  8 36  1  0
  9 37  1  0
 10 38  1  0
 14 39  1  0
 15 40  1  0
 16 41  1  0
 16 42  1  0
 17 43  1  0
 17 44  1  0
 19 45  1  1
 20 46  1  0
 21 47  1  0
 22 48  1  0
 22 49  1  0
 22 50  1  0
 23 51  1  0
 24 52  1  0
 25 53  1  0
M  END
> <Uni-Dock RESULT> 
ENERGY=   -5.910  LOWER_BOUND=    0.000  UPPER_BOUND=    0.000
INTER + INTRA:          -5.910
INTER:                  -5.910
INTRA:                   0.000
UNBOUND:                 0.000

$$$$

     RDKit          3D

 53 52  0  0  0  0  0  0  0  0999 V2000
   45.3096    7.4552   12.6236 C   0  0  0  0  0  0  0  0  0  0  0  0
   47.1001    6.5934   14.1507 N   0  0  0  0  0  0  0  0  0  0  0  0
   44.6878    6.1340   12.2283 C   0  0  0  0  0  0  0  0  0  0  0  0
   46.8160    7.4219   12.9721 C   0  0  1  0  0  0  0  0  0  0  0  0
   44.1734    5.2710   13.2060 C   0  0  0  0  0  0  0  0  0  0  0  0
   44.6150    5.7515   10.8819 C   0  0  0  0  0  0  0  0  0  0  0  0
   47.6894    6.9779   11.7981 C   0  0  0  0  0  0  0  0  0  0  0  0
   43.6049    4.0484   12.8457 C   0  0  0  0  0  0  0  0  0  0  0  0
   44.0460    4.5283   10.5227 C   0  0  0  0  0  0  0  0  0  0  0  0
   43.5423    3.6770   11.5043 C   0  0  0  0  0  0  0  0  0  0  0  0
   45.8163    5.7484   12.0380 S   0  0  0  0  0  0  0  0  0  0  0  0
   46.1077    4.3846   12.3996 O   0  0  0  0  0  0  0  0  0  0  0  0
   46.4257    6.4319   10.9258 O   0  0  0  0  0  0  0  0  0  0  0  0
   46.0552    6.6750   13.3256 O   0  0  0  0  0  0  0  0  0  0  0  0
   44.2228    5.8448   11.8792 O   0  0  0  0  0  0  0  0  0  0  0  0
   44.5292    5.8172   12.7780 C   0  0  0  0  0  0  0  0  0  0  0  0
   45.0992    3.7022   11.5825 N   0  0  0  0  0  0  0  0  0  0  0  0
   45.8437    6.5625   12.8324 C   0  0  0  0  0  0  0  0  0  0  0  0
   44.3520    4.9651   11.5018 C   0  0  1  0  0  0  0  0  0  0  0  0
   47.0173    5.9127   13.2357 C   0  0  0  0  0  0  0  0  0  0  0  0
   45.9096    7.9148   12.4679 C   0  0  0  0  0  0  0  0  0  0  0  0
   42.8727    4.6465   11.2756 C   0  0  0  0  0  0  0  0  0  0  0  0
   48.2303    6.6018   13.2820 C   0  0  0  0  0  0  0  0  0  0  0  0
   47.1233    8.6033   12.5156 C   0  0  0  0  0  0  0  0  0  0  0  0
   48.2829    7.9472   12.9236 C   0  0  0  0  0  0  0  0  0  0  0  0
   45.1480    8.1770   11.8116 H   0  0  0  0  0  0  0  0  0  0  0  0
   44.7507    7.8617   13.4779 H   0  0  0  0  0  0  0  0  0  0  0  0
   46.8465    5.6262   13.9412 H   0  0  0  0  0  0  0  0  0  0  0  0
   48.1047    6.5810   14.3237 H   0  0  0  0  0  0  0  0  0  0  0  0
   47.1056    8.4486   13.2280 H   0  0  0  0  0  0  0  0  0  0  0  0
   44.2148    5.5509   14.2572 H   0  0  0  0  0  0  0  0  0  0  0  0
   45.0011    6.4046   10.1029 H   0  0  0  0  0  0  0  0  0  0  0  0
   48.7519    7.1004   12.0377 H   0  0  0  0  0  0  0  0  0  0  0  0
   47.4806    7.5826   10.9092 H   0  0  0  0  0  0  0  0  0  0  0  0
   47.5296    5.9254   11.5411 H   0  0  0  0  0  0  0  0  0  0  0  0
   43.2093    3.3879   13.6125 H   0  0  0  0  0  0  0  0  0  0  0  0
   43.9941    4.2406    9.4760 H   0  0  0  0  0  0  0  0  0  0  0  0
   43.0980    2.7257   11.2238 H   0  0  0  0  0  0  0  0  0  0  0  0
   46.1369    7.5976   13.0063 H   0  0  0  0  0  0  0  0  0  0  0  0
   43.8328    5.1569   12.4574 H   0  0  0  0  0  0  0  0  0  0  0  0
   44.4263    5.1967   13.6785 H   0  0  0  0  0  0  0  0  0  0  0  0
   43.7158    6.5525   12.8436 H   0  0  0  0  0  0  0  0  0  0  0  0
   44.9692    3.1744   10.7203 H   0  0  0  0  0  0  0  0  0  0  0  0
   44.7217    3.1232   12.3311 H   0  0  0  0  0  0  0  0  0  0  0  0
   44.7194    5.5248   10.6331 H   0  0  0  0  0  0  0  0  0  0  0  0
   46.9920    4.8593   13.5059 H   0  0  0  0  0  0  0  0  0  0  0  0
   45.0153    8.4418   12.1444 H   0  0  0  0  0  0  0  0  0  0  0  0
   42.4480    4.0888   12.1180 H   0  0  0  0  0  0  0  0  0  0  0  0
   42.2932    5.5682   11.1552 H   0  0  0  0  0  0  0  0  0  0  0  0
   42.7323    4.0494   10.3677 H   0  0  0  0  0  0  0  0  0  0  0  0
   49.1341    6.0851   13.5930 H   0  0  0  0  0  0  0  0  0  0  0  0
   47.1639    9.6516   12.2322 H   0  0  0  0  0  0  0  0  0  0  0  0
   49.2278    8.4822   12.9582 H   0  0  0  0  0  0  0  0  0  0  0  0
  4  2  1  0
  3  1  1  0
  4  1  1  0
  5  3  2  0
  6  3  1  0
  4  7  1  0
  8  5  1  0
  9  6  2  0
 10  8  2  0
  9 10  1  0
 12 11  2  0
 13 11  2  0
 14 11  1  0
 15 11  1  0
 19 17  1  0
 18 16  1  0
 19 16  1  0
 20 18  2  0
 21 18  1  0
 19 22  1  0
 23 20  1  0
 24 21  2  0
 25 23  2  0
 24 25  1  0
  1 26  1  0
  1 27  1  0
  2 28  1  0
  2 29  1  0
  4 30  1  6
  5 31  1  0
  6 32  1  0
  7 33  1  0
  7 34  1  0
  7 35  1  0
  8 36  1  0
  9 37  1  0
 10 38  1  0
 14 39  1  0
 15 40  1  0
 16 41  1  0
 16 42  1  0
 17 43  1  0
 17 44  1  0
 19 45  1  1
 20 46  1  0
 21 47  1  0
 22 48  1  0
 22 49  1  0
 22 50  1  0
 23 51  1  0
 24 52  1  0
 25 53  1  0
M  END
> <Uni-Dock RESULT> 
ENERGY=   -5.449  LOWER_BOUND=    1.011  UPPER_BOUND=    4.092
INTER + INTRA:          -5.449
INTER:                  -5.449
INTRA:                   0.000
UNBOUND:                 0.000

$$$$

     RDKit          3D

 53 52  0  0  0  0  0  0  0  0999 V2000
   45.0172    6.0095   10.9307 C   0  0  0  0  0  0  0  0  0  0  0  0
   45.5993    3.7861   11.9300 N   0  0  0  0  0  0  0  0  0  0  0  0
   45.9454    6.8801   11.7487 C   0  0  0  0  0  0  0  0  0  0  0  0
   44.5102    4.7204   11.6186 C   0  0  1  0  0  0  0  0  0  0  0  0
   47.3277    6.6468   11.7410 C   0  0  0  0  0  0  0  0  0  0  0  0
   45.4409    7.9323   12.5252 C   0  0  0  0  0  0  0  0  0  0  0  0
   43.6863    5.0007   12.8759 C   0  0  0  0  0  0  0  0  0  0  0  0
   48.1863    7.4439   12.4994 C   0  0  0  0  0  0  0  0  0  0  0  0
   46.3008    8.7289   13.2833 C   0  0  0  0  0  0  0  0  0  0  0  0
   47.6727    8.4840   13.2710 C   0  0  0  0  0  0  0  0  0  0  0  0
   45.5353    6.2781   12.7118 S   0  0  0  0  0  0  0  0  0  0  0  0
   46.4899    5.9828   13.7497 O   0  0  0  0  0  0  0  0  0  0  0  0
   44.1445    6.5625   12.9575 O   0  0  0  0  0  0  0  0  0  0  0  0
   45.5717    5.0873   11.6376 O   0  0  0  0  0  0  0  0  0  0  0  0
   46.1548    7.4854   11.8560 O   0  0  0  0  0  0  0  0  0  0  0  0
   46.5497    6.6381   11.6871 C   0  0  0  0  0  0  0  0  0  0  0  0
   46.9448    7.3447   14.0476 N   0  0  0  0  0  0  0  0  0  0  0  0
   45.4588    5.5976   11.8033 C   0  0  0  0  0  0  0  0  0  0  0  0
   46.4418    7.7692   12.7337 C   0  0  1  0  0  0  0  0  0  0  0  0
   45.5457    4.5746   12.7562 C   0  0  0  0  0  0  0  0  0  0  0  0
   44.3362    5.6483   10.9648 C   0  0  0  0  0  0  0  0  0  0  0  0
   47.2355    8.9947   12.2767 C   0  0  0  0  0  0  0  0  0  0  0  0
   44.5357    3.6171   12.8639 C   0  0  0  0  0  0  0  0  0  0  0  0
   43.3271    4.6894   11.0727 C   0  0  0  0  0  0  0  0  0  0  0  0
   43.4276    3.6736   12.0212 C   0  0  0  0  0  0  0  0  0  0  0  0
   44.1523    6.6114   10.6208 H   0  0  0  0  0  0  0  0  0  0  0  0
   45.5255    5.7423    9.9938 H   0  0  0  0  0  0  0  0  0  0  0  0
   46.2275    4.2269   12.6044 H   0  0  0  0  0  0  0  0  0  0  0  0
   45.2201    2.9674   12.4045 H   0  0  0  0  0  0  0  0  0  0  0  0
   43.8531    4.2146   10.9003 H   0  0  0  0  0  0  0  0  0  0  0  0
   47.7413    5.8385   11.1406 H   0  0  0  0  0  0  0  0  0  0  0  0
   44.3734    8.1387   12.5446 H   0  0  0  0  0  0  0  0  0  0  0  0
   43.2302    4.0784   13.2537 H   0  0  0  0  0  0  0  0  0  0  0  0
   42.8752    5.7039   12.6591 H   0  0  0  0  0  0  0  0  0  0  0  0
   44.2963    5.4203   13.6828 H   0  0  0  0  0  0  0  0  0  0  0  0
   49.2562    7.2535   12.4852 H   0  0  0  0  0  0  0  0  0  0  0  0
   45.9001    9.5422   13.8823 H   0  0  0  0  0  0  0  0  0  0  0  0
   48.3416    9.1056   13.8601 H   0  0  0  0  0  0  0  0  0  0  0  0
   44.7466    5.1465   11.1128 H   0  0  0  0  0  0  0  0  0  0  0  0
   47.1292    7.4283   11.9394 H   0  0  0  0  0  0  0  0  0  0  0  0
   47.5295    6.1449   11.7458 H   0  0  0  0  0  0  0  0  0  0  0  0
   46.5068    7.0679   10.6772 H   0  0  0  0  0  0  0  0  0  0  0  0
   46.8458    8.1102   14.7133 H   0  0  0  0  0  0  0  0  0  0  0  0
   47.9422    7.1449   13.9889 H   0  0  0  0  0  0  0  0  0  0  0  0
   45.3915    8.0635   12.8485 H   0  0  0  0  0  0  0  0  0  0  0  0
   46.3995    4.5268   13.4286 H   0  0  0  0  0  0  0  0  0  0  0  0
   44.2399    6.4355   10.2210 H   0  0  0  0  0  0  0  0  0  0  0  0
   48.2969    8.7586   12.1403 H   0  0  0  0  0  0  0  0  0  0  0  0
   46.8490    9.3719   11.3237 H   0  0  0  0  0  0  0  0  0  0  0  0
   47.1597    9.8083   13.0069 H   0  0  0  0  0  0  0  0  0  0  0  0
   44.6134    2.8309   13.6099 H   0  0  0  0  0  0  0  0  0  0  0  0
   42.4615    4.7366   10.4176 H   0  0  0  0  0  0  0  0  0  0  0  0
   42.6412    2.9289   12.1070 H   0  0  0  0  0  0  0  0  0  0  0  0
  4  2  1  0
  3  1  1  0
  4  1  1  0
  5  3  2  0
  6  3  1  0
  4  7  1  0
  8  5  1  0
  9  6  2  0
 10  8  2  0
  9 10  1  0
 12 11  2  0
 13 11  2  0
 14 11  1  0
 15 11  1  0
 19 17  1  0
 18 16  1  0
 19 16  1  0
 20 18  2  0
 21 18  1  0
 19 22  1  0
 23 20  1  0
 24 21  2  0
 25 23  2  0
 24 25  1  0
  1 26  1  0
  1 27  1  0
  2 28  1  0
  2 29  1  0
  4 30  1  6
  5 31  1  0
  6 32  1  0
  7 33  1  0
  7 34  1  0
  7 35  1  0
  8 36  1  0
  9 37  1  0
 10 38  1  0
 14 39  1  0
 15 40  1  0
 16 41  1  0
 16 42  1  0
 17 43  1  0
 17 44  1  0
 19 45  1  1
 20 46  1  0
 21 47  1  0
 22 48  1  0
 22 49  1  0
 22 50  1  0
 23 51  1  0
 24 52  1  0
 25 53  1  0
M  END
> <Uni-Dock RESULT> 
ENERGY=   -5.233  LOWER_BOUND=    1.314  UPPER_BOUND=    2.048
INTER + INTRA:          -5.233
INTER:                  -5.233
INTRA:                   0.000
UNBOUND:                 0.000

$$$$

     RDKit          3D

 53 52  0  0  0  0  0  0  0  0999 V2000
   46.6625    6.4304   11.3579 C   0  0  0  0  0  0  0  0  0  0  0  0
   45.4806    8.6143   11.6964 N   0  0  0  0  0  0  0  0  0  0  0  0
   45.5111    5.4961   11.6575 C   0  0  0  0  0  0  0  0  0  0  0  0
   46.6374    7.7965   12.0826 C   0  0  1  0  0  0  0  0  0  0  0  0
   44.3244    5.5714   10.9150 C   0  0  0  0  0  0  0  0  0  0  0  0
   45.6109    4.5415   12.6790 C   0  0  0  0  0  0  0  0  0  0  0  0
   46.6995    7.6645   13.6048 C   0  0  0  0  0  0  0  0  0  0  0  0
   43.2577    4.7154   11.1927 C   0  0  0  0  0  0  0  0  0  0  0  0
   44.5432    3.6858   12.9558 C   0  0  0  0  0  0  0  0  0  0  0  0
   43.3670    3.7736   12.2136 C   0  0  0  0  0  0  0  0  0  0  0  0
   45.3105    6.1808   12.6317 S   0  0  0  0  0  0  0  0  0  0  0  0
   43.9350    6.4103   12.9939 O   0  0  0  0  0  0  0  0  0  0  0  0
   46.3836    6.0658   13.5861 O   0  0  0  0  0  0  0  0  0  0  0  0
   45.7536    7.3133   11.5855 O   0  0  0  0  0  0  0  0  0  0  0  0
   45.3220    4.8761   11.6983 O   0  0  0  0  0  0  0  0  0  0  0  0
   45.0124    5.6655   11.2700 C   0  0  0  0  0  0  0  0  0  0  0  0
   43.4939    5.0196   13.1421 N   0  0  0  0  0  0  0  0  0  0  0  0
   45.8005    6.8264   11.8333 C   0  0  0  0  0  0  0  0  0  0  0  0
   44.6401    4.5993   12.3239 C   0  0  1  0  0  0  0  0  0  0  0  0
   45.1522    7.8726   12.5022 C   0  0  0  0  0  0  0  0  0  0  0  0
   47.1960    6.8672   11.7043 C   0  0  0  0  0  0  0  0  0  0  0  0
   44.2963    3.2737   11.6417 C   0  0  0  0  0  0  0  0  0  0  0  0
   45.8821    8.9416   13.0244 C   0  0  0  0  0  0  0  0  0  0  0  0
   47.9250    7.9375   12.2261 C   0  0  0  0  0  0  0  0  0  0  0  0
   47.2681    8.9749   12.8848 C   0  0  0  0  0  0  0  0  0  0  0  0
   47.6036    5.9173   11.5981 H   0  0  0  0  0  0  0  0  0  0  0  0
   46.7016    6.5985   10.2727 H   0  0  0  0  0  0  0  0  0  0  0  0
   44.6271    8.1344   11.9878 H   0  0  0  0  0  0  0  0  0  0  0  0
   45.4935    9.4899   12.2183 H   0  0  0  0  0  0  0  0  0  0  0  0
   47.5336    8.3423   11.7626 H   0  0  0  0  0  0  0  0  0  0  0  0
   44.2277    6.3017   10.1135 H   0  0  0  0  0  0  0  0  0  0  0  0
   46.5223    4.4578   13.2663 H   0  0  0  0  0  0  0  0  0  0  0  0
   46.8205    8.6476   14.0741 H   0  0  0  0  0  0  0  0  0  0  0  0
   47.5536    7.0487   13.9060 H   0  0  0  0  0  0  0  0  0  0  0  0
   45.7905    7.2134   14.0164 H   0  0  0  0  0  0  0  0  0  0  0  0
   42.3428    4.7830   10.6101 H   0  0  0  0  0  0  0  0  0  0  0  0
   44.6302    2.9490   13.7498 H   0  0  0  0  0  0  0  0  0  0  0  0
   42.5369    3.1060   12.4285 H   0  0  0  0  0  0  0  0  0  0  0  0
   46.7330    7.3254   11.5706 H   0  0  0  0  0  0  0  0  0  0  0  0
   44.4469    4.8264   11.2606 H   0  0  0  0  0  0  0  0  0  0  0  0
   44.1134    6.0471   10.7672 H   0  0  0  0  0  0  0  0  0  0  0  0
   45.6092    5.2008   10.4736 H   0  0  0  0  0  0  0  0  0  0  0  0
   43.2864    4.2991   13.8325 H   0  0  0  0  0  0  0  0  0  0  0  0
   42.6631    5.1029   12.5580 H   0  0  0  0  0  0  0  0  0  0  0  0
   45.4933    4.4305   12.9921 H   0  0  0  0  0  0  0  0  0  0  0  0
   44.0720    7.8522   12.6290 H   0  0  0  0  0  0  0  0  0  0  0  0
   47.7254    6.0651   11.1959 H   0  0  0  0  0  0  0  0  0  0  0  0
   43.4492    3.3826   10.9550 H   0  0  0  0  0  0  0  0  0  0  0  0
   45.1512    2.9025   11.0661 H   0  0  0  0  0  0  0  0  0  0  0  0
   44.0388    2.5056   12.3796 H   0  0  0  0  0  0  0  0  0  0  0  0
   45.3675    9.7450   13.5445 H   0  0  0  0  0  0  0  0  0  0  0  0
   49.0062    7.9607   12.1201 H   0  0  0  0  0  0  0  0  0  0  0  0
   47.8355    9.8065   13.2932 H   0  0  0  0  0  0  0  0  0  0  0  0
  4  2  1  0
  3  1  1  0
  4  1  1  0
  5  3  2  0
  6  3  1  0
  4  7  1  0
  8  5  1  0
  9  6  2  0
 10  8  2  0
  9 10  1  0
 12 11  2  0
 13 11  2  0
 14 11  1  0
 15 11  1  0
 19 17  1  0
 18 16  1  0
 19 16  1  0
 20 18  2  0
 21 18  1  0
 19 22  1  0
 23 20  1  0
 24 21  2  0
 25 23  2  0
 24 25  1  0
  1 26  1  0
  1 27  1  0
  2 28  1  0
  2 29  1  0
  4 30  1  6
  5 31  1  0
  6 32  1  0
  7 33  1  0
  7 34  1  0
  7 35  1  0
  8 36  1  0
  9 37  1  0
 10 38  1  0
 14 39  1  0
 15 40  1  0
 16 41  1  0
 16 42  1  0
 17 43  1  0
 17 44  1  0
 19 45  1  1
 20 46  1  0
 21 47  1  0
 22 48  1  0
 22 49  1  0
 22 50  1  0
 23 51  1  0
 24 52  1  0
 25 53  1  0
M  END
> <Uni-Dock RESULT> 
ENERGY=   -5.199  LOWER_BOUND=    1.263  UPPER_BOUND=    4.095
INTER + INTRA:          -5.199
INTER:                  -5.199
INTRA:                   0.000
UNBOUND:                 0.000

$$$$

     RDKit          3D

 53 52  0  0  0  0  0  0  0  0999 V2000
   50.0483    4.9281   19.7816 C   0  0  0  0  0  0  0  0  0  0  0  0
   48.9443    7.0920   20.3978 N   0  0  0  0  0  0  0  0  0  0  0  0
   49.1222    4.5072   18.6619 C   0  0  0  0  0  0  0  0  0  0  0  0
   49.4185    5.7950   20.8969 C   0  0  1  0  0  0  0  0  0  0  0  0
   48.9336    5.3364   17.5474 C   0  0  0  0  0  0  0  0  0  0  0  0
   48.4394    3.2845   18.7190 C   0  0  0  0  0  0  0  0  0  0  0  0
   48.2927    5.0789   21.6438 C   0  0  0  0  0  0  0  0  0  0  0  0
   48.0751    4.9545   16.5156 C   0  0  0  0  0  0  0  0  0  0  0  0
   47.5809    2.9035   17.6862 C   0  0  0  0  0  0  0  0  0  0  0  0
   47.3982    3.7387   16.5857 C   0  0  0  0  0  0  0  0  0  0  0  0
   48.2166    4.7850   19.4110 S   0  0  0  0  0  0  0  0  0  0  0  0
   47.0515    5.3971   18.8248 O   0  0  0  0  0  0  0  0  0  0  0  0
   48.1715    3.8882   20.5376 O   0  0  0  0  0  0  0  0  0  0  0  0
   49.2573    5.9437   19.7952 O   0  0  0  0  0  0  0  0  0  0  0  0
   48.9958    4.0543   18.2140 O   0  0  0  0  0  0  0  0  0  0  0  0
   49.0953    4.9989   18.2316 C   0  0  0  0  0  0  0  0  0  0  0  0
   46.7136    4.3662   17.8380 N   0  0  0  0  0  0  0  0  0  0  0  0
   49.1167    5.4261   19.6819 C   0  0  0  0  0  0  0  0  0  0  0  0
   48.0911    3.8633   17.9345 C   0  0  1  0  0  0  0  0  0  0  0  0
   48.1456    6.3025   20.1829 C   0  0  0  0  0  0  0  0  0  0  0  0
   50.1041    4.9410   20.5511 C   0  0  0  0  0  0  0  0  0  0  0  0
   48.4513    3.1639   16.6222 C   0  0  0  0  0  0  0  0  0  0  0  0
   48.1654    6.6929   21.5229 C   0  0  0  0  0  0  0  0  0  0  0  0
   50.1234    5.3330   21.8910 C   0  0  0  0  0  0  0  0  0  0  0  0
   49.1551    6.2096   22.3763 C   0  0  0  0  0  0  0  0  0  0  0  0
   50.4847    4.0275   20.2344 H   0  0  0  0  0  0  0  0  0  0  0  0
   50.9011    5.4661   19.3449 H   0  0  0  0  0  0  0  0  0  0  0  0
   48.1957    6.9300   19.7218 H   0  0  0  0  0  0  0  0  0  0  0  0
   48.5150    7.6139   21.1610 H   0  0  0  0  0  0  0  0  0  0  0  0
   50.2137    6.0052   21.6229 H   0  0  0  0  0  0  0  0  0  0  0  0
   49.4583    6.2878   17.4802 H   0  0  0  0  0  0  0  0  0  0  0  0
   48.5721    2.6197   19.5693 H   0  0  0  0  0  0  0  0  0  0  0  0
   47.9683    5.6660   22.5107 H   0  0  0  0  0  0  0  0  0  0  0  0
   48.6310    4.1052   22.0138 H   0  0  0  0  0  0  0  0  0  0  0  0
   47.4151    4.9175   21.0090 H   0  0  0  0  0  0  0  0  0  0  0  0
   47.9371    5.6055   15.6565 H   0  0  0  0  0  0  0  0  0  0  0  0
   47.0560    1.9535   17.7397 H   0  0  0  0  0  0  0  0  0  0  0  0
   46.7311    3.4406   15.7813 H   0  0  0  0  0  0  0  0  0  0  0  0
   49.8928    5.5607   20.4349 H   0  0  0  0  0  0  0  0  0  0  0  0
   48.7765    4.5364   17.3899 H   0  0  0  0  0  0  0  0  0  0  0  0
   48.8931    5.8735   17.5985 H   0  0  0  0  0  0  0  0  0  0  0  0
   50.1077    4.6745   17.9553 H   0  0  0  0  0  0  0  0  0  0  0  0
   46.0799    3.5893   17.6548 H   0  0  0  0  0  0  0  0  0  0  0  0
   46.6297    4.9966   17.0419 H   0  0  0  0  0  0  0  0  0  0  0  0
   48.1281    3.1207   18.7407 H   0  0  0  0  0  0  0  0  0  0  0  0
   47.3602    6.6770   19.5301 H   0  0  0  0  0  0  0  0  0  0  0  0
   50.8658    4.2541   20.1903 H   0  0  0  0  0  0  0  0  0  0  0  0
   48.4349    3.8614   15.7771 H   0  0  0  0  0  0  0  0  0  0  0  0
   49.4544    2.7277   16.6797 H   0  0  0  0  0  0  0  0  0  0  0  0
   47.7512    2.3497   16.4042 H   0  0  0  0  0  0  0  0  0  0  0  0
   47.4041    7.3703   21.9000 H   0  0  0  0  0  0  0  0  0  0  0  0
   50.8934    4.9525   22.5566 H   0  0  0  0  0  0  0  0  0  0  0  0
   49.1685    6.5126   23.4195 H   0  0  0  0  0  0  0  0  0  0  0  0
  4  2  1  0
  3  1  1  0
  4  1  1  0
  5  3  2  0
  6  3  1  0
  4  7  1  0
  8  5  1  0
  9  6  2  0
 10  8  2  0
  9 10  1  0
 12 11  2  0
 13 11  2  0
 14 11  1  0
 15 11  1  0
 19 17  1  0
 18 16  1  0
 19 16  1  0
 20 18  2  0
 21 18  1  0
 19 22  1  0
 23 20  1  0
 24 21  2  0
 25 23  2  0
 24 25  1  0
  1 26  1  0
  1 27  1  0
  2 28  1  0
  2 29  1  0
  4 30  1  6
  5 31  1  0
  6 32  1  0
  7 33  1  0
  7 34  1  0
  7 35  1  0
  8 36  1  0
  9 37  1  0
 10 38  1  0
 14 39  1  0
 15 40  1  0
 16 41  1  0
 16 42  1  0
 17 43  1  0
 17 44  1  0
 19 45  1  1
 20 46  1  0
 21 47  1  0
 22 48  1  0
 22 49  1  0
 22 50  1  0
 23 51  1  0
 24 52  1  0
 25 53  1  0
M  END
> <Uni-Dock RESULT> 
ENERGY=   -4.808  LOWER_BOUND=    7.087  UPPER_BOUND=    8.873
INTER + INTRA:          -4.808
INTER:                  -4.808
INTRA:                   0.000
UNBOUND:                 0.000

$$$$

     RDKit          3D

 53 52  0  0  0  0  0  0  0  0999 V2000
   47.0479    5.2291   18.3149 C   0  0  0  0  0  0  0  0  0  0  0  0
   49.1005    5.0913   16.8834 N   0  0  0  0  0  0  0  0  0  0  0  0
   47.5731    6.1641   19.3819 C   0  0  0  0  0  0  0  0  0  0  0  0
   48.0957    4.3220   17.6284 C   0  0  1  0  0  0  0  0  0  0  0  0
   48.0588    7.4332   19.0369 C   0  0  0  0  0  0  0  0  0  0  0  0
   47.5825    5.7792   20.7296 C   0  0  0  0  0  0  0  0  0  0  0  0
   48.7857    3.3662   18.6023 C   0  0  0  0  0  0  0  0  0  0  0  0
   48.5500    8.2960   20.0177 C   0  0  0  0  0  0  0  0  0  0  0  0
   48.0741    6.6432   21.7098 C   0  0  0  0  0  0  0  0  0  0  0  0
   48.5585    7.9004   21.3536 C   0  0  0  0  0  0  0  0  0  0  0  0
   48.5510    5.4562   19.4114 S   0  0  0  0  0  0  0  0  0  0  0  0
   49.8216    6.1088   19.5991 O   0  0  0  0  0  0  0  0  0  0  0  0
   48.2376    4.1467   19.9239 O   0  0  0  0  0  0  0  0  0  0  0  0
   48.2298    5.4170   17.8402 O   0  0  0  0  0  0  0  0  0  0  0  0
   47.4327    6.4830   19.9299 O   0  0  0  0  0  0  0  0  0  0  0  0
   47.8034    6.6977   19.0820 C   0  0  0  0  0  0  0  0  0  0  0  0
   49.5483    6.8002   20.8631 N   0  0  0  0  0  0  0  0  0  0  0  0
   48.0944    5.3953   18.3711 C   0  0  0  0  0  0  0  0  0  0  0  0
   48.1101    6.6598   20.5955 C   0  0  1  0  0  0  0  0  0  0  0  0
   49.4009    5.0678   17.9864 C   0  0  0  0  0  0  0  0  0  0  0  0
   47.0604    4.4892   18.0962 C   0  0  0  0  0  0  0  0  0  0  0  0
   47.3644    7.7836   21.3180 C   0  0  0  0  0  0  0  0  0  0  0  0
   49.6677    3.8634   17.3332 C   0  0  0  0  0  0  0  0  0  0  0  0
   47.3283    3.2853   17.4418 C   0  0  0  0  0  0  0  0  0  0  0  0
   48.6314    2.9732   17.0595 C   0  0  0  0  0  0  0  0  0  0  0  0
   46.2644    4.5977   18.7552 H   0  0  0  0  0  0  0  0  0  0  0  0
   46.5324    5.8270   17.5506 H   0  0  0  0  0  0  0  0  0  0  0  0
   49.6274    5.6678   17.5420 H   0  0  0  0  0  0  0  0  0  0  0  0
   49.7816    4.4537   16.4729 H   0  0  0  0  0  0  0  0  0  0  0  0
   47.5551    3.7111   16.8949 H   0  0  0  0  0  0  0  0  0  0  0  0
   48.0556    7.7544   17.9968 H   0  0  0  0  0  0  0  0  0  0  0  0
   47.2062    4.8028   21.0253 H   0  0  0  0  0  0  0  0  0  0  0  0
   49.4141    2.6492   18.0616 H   0  0  0  0  0  0  0  0  0  0  0  0
   48.0465    2.7922   19.1712 H   0  0  0  0  0  0  0  0  0  0  0  0
   49.4284    3.8959   19.3133 H   0  0  0  0  0  0  0  0  0  0  0  0
   48.9237    9.2774   19.7382 H   0  0  0  0  0  0  0  0  0  0  0  0
   48.0772    6.3357   22.7520 H   0  0  0  0  0  0  0  0  0  0  0  0
   48.9394    8.5731   22.1174 H   0  0  0  0  0  0  0  0  0  0  0  0
   47.5358    4.7391   17.7041 H   0  0  0  0  0  0  0  0  0  0  0  0
   47.7982    7.3858   19.8239 H   0  0  0  0  0  0  0  0  0  0  0  0
   48.3571    7.5102   18.5923 H   0  0  0  0  0  0  0  0  0  0  0  0
   46.7435    6.9419   18.9289 H   0  0  0  0  0  0  0  0  0  0  0  0
   49.7131    6.7577   21.8680 H   0  0  0  0  0  0  0  0  0  0  0  0
   49.8693    7.7186   20.5600 H   0  0  0  0  0  0  0  0  0  0  0  0
   47.7766    5.7023   21.0135 H   0  0  0  0  0  0  0  0  0  0  0  0
   50.2207    5.7484   18.2056 H   0  0  0  0  0  0  0  0  0  0  0  0
   46.0381    4.7151   18.3898 H   0  0  0  0  0  0  0  0  0  0  0  0
   47.6554    8.7691   20.9372 H   0  0  0  0  0  0  0  0  0  0  0  0
   46.2824    7.6770   21.1851 H   0  0  0  0  0  0  0  0  0  0  0  0
   47.5667    7.7624   22.3948 H   0  0  0  0  0  0  0  0  0  0  0  0
   50.6862    3.6195   17.0435 H   0  0  0  0  0  0  0  0  0  0  0  0
   46.5200    2.5901   17.2322 H   0  0  0  0  0  0  0  0  0  0  0  0
   48.8404    2.0353   16.5526 H   0  0  0  0  0  0  0  0  0  0  0  0
  4  2  1  0
  3  1  1  0
  4  1  1  0
  5  3  2  0
  6  3  1  0
  4  7  1  0
  8  5  1  0
  9  6  2  0
 10  8  2  0
  9 10  1  0
 12 11  2  0
 13 11  2  0
 14 11  1  0
 15 11  1  0
 19 17  1  0
 18 16  1  0
 19 16  1  0
 20 18  2  0
 21 18  1  0
 19 22  1  0
 23 20  1  0
 24 21  2  0
 25 23  2  0
 24 25  1  0
  1 26  1  0
  1 27  1  0
  2 28  1  0
  2 29  1  0
  4 30  1  6
  5 31  1  0
  6 32  1  0
  7 33  1  0
  7 34  1  0
  7 35  1  0
  8 36  1  0
  9 37  1  0
 10 38  1  0
 14 39  1  0
 15 40  1  0
 16 41  1  0
 16 42  1  0
 17 43  1  0
 17 44  1  0
 19 45  1  1
 20 46  1  0
 21 47  1  0
 22 48  1  0
 22 49  1  0
 22 50  1  0
 23 51  1  0
 24 52  1  0
 25 53  1  0
M  END
> <Uni-Dock RESULT> 
ENERGY=   -4.736  LOWER_BOUND=    6.702  UPPER_BOUND=    7.909
INTER + INTRA:          -4.736
INTER:                  -4.736
INTRA:                   0.000
UNBOUND:                 0.000

$$$$

     RDKit          3D

 53 52  0  0  0  0  0  0  0  0999 V2000
   47.5595    6.9509   19.9325 C   0  0  0  0  0  0  0  0  0  0  0  0
   46.9187    5.4452   21.8307 N   0  0  0  0  0  0  0  0  0  0  0  0
   47.9106    5.8943   18.9084 C   0  0  0  0  0  0  0  0  0  0  0  0
   47.7758    6.5621   21.4138 C   0  0  1  0  0  0  0  0  0  0  0  0
   46.9617    4.9373   18.5221 C   0  0  0  0  0  0  0  0  0  0  0  0
   49.1864    5.8546   18.3293 C   0  0  0  0  0  0  0  0  0  0  0  0
   49.2367    6.2503   21.7405 C   0  0  0  0  0  0  0  0  0  0  0  0
   47.2840    3.9572   17.5824 C   0  0  0  0  0  0  0  0  0  0  0  0
   49.5075    4.8737   17.3893 C   0  0  0  0  0  0  0  0  0  0  0  0
   48.5570    3.9250   17.0170 C   0  0  0  0  0  0  0  0  0  0  0  0
   48.5452    5.3633   19.7879 S   0  0  0  0  0  0  0  0  0  0  0  0
   48.5278    3.9232   19.8247 O   0  0  0  0  0  0  0  0  0  0  0  0
   49.6797    6.1626   20.1746 O   0  0  0  0  0  0  0  0  0  0  0  0
   47.2975    5.9060   20.6376 O   0  0  0  0  0  0  0  0  0  0  0  0
   48.1133    5.7843   18.3013 O   0  0  0  0  0  0  0  0  0  0  0  0
   47.3970    5.4932   18.8533 C   0  0  0  0  0  0  0  0  0  0  0  0
   49.0315    3.6457   18.4757 N   0  0  0  0  0  0  0  0  0  0  0  0
   47.6952    5.9517   20.2629 C   0  0  0  0  0  0  0  0  0  0  0  0
   48.6444    5.0077   18.0823 C   0  0  1  0  0  0  0  0  0  0  0  0
   47.8395    5.0223   21.3010 C   0  0  0  0  0  0  0  0  0  0  0  0
   47.8434    7.3160   20.5501 C   0  0  0  0  0  0  0  0  0  0  0  0
   48.3798    5.0269   16.5755 C   0  0  0  0  0  0  0  0  0  0  0  0
   48.1181    5.4477   22.6010 C   0  0  0  0  0  0  0  0  0  0  0  0
   48.1210    7.7403   21.8510 C   0  0  0  0  0  0  0  0  0  0  0  0
   48.2571    6.8065   22.8762 C   0  0  0  0  0  0  0  0  0  0  0  0
   48.1385    7.8584   19.7145 H   0  0  0  0  0  0  0  0  0  0  0  0
   46.5104    7.2433   19.7860 H   0  0  0  0  0  0  0  0  0  0  0  0
   47.1733    4.6163   21.2905 H   0  0  0  0  0  0  0  0  0  0  0  0
   47.1162    5.2091   22.8026 H   0  0  0  0  0  0  0  0  0  0  0  0
   47.4818    7.4305   22.0162 H   0  0  0  0  0  0  0  0  0  0  0  0
   45.9632    4.9533   18.9553 H   0  0  0  0  0  0  0  0  0  0  0  0
   49.9393    6.5886   18.6066 H   0  0  0  0  0  0  0  0  0  0  0  0
   49.3723    6.1171   22.8200 H   0  0  0  0  0  0  0  0  0  0  0  0
   49.8883    7.0725   21.4260 H   0  0  0  0  0  0  0  0  0  0  0  0
   49.5817    5.3338   21.2503 H   0  0  0  0  0  0  0  0  0  0  0  0
   46.5401    3.2207   17.2907 H   0  0  0  0  0  0  0  0  0  0  0  0
   50.4994    4.8512   16.9460 H   0  0  0  0  0  0  0  0  0  0  0  0
   48.8073    3.1627   16.2840 H   0  0  0  0  0  0  0  0  0  0  0  0
   47.4767    6.8464   20.8454 H   0  0  0  0  0  0  0  0  0  0  0  0
   47.5495    5.0644   17.9495 H   0  0  0  0  0  0  0  0  0  0  0  0
   46.6270    4.7103   18.8814 H   0  0  0  0  0  0  0  0  0  0  0  0
   46.9341    6.3294   18.3120 H   0  0  0  0  0  0  0  0  0  0  0  0
   49.8631    3.3653   17.9574 H   0  0  0  0  0  0  0  0  0  0  0  0
   48.2979    2.9881   18.2154 H   0  0  0  0  0  0  0  0  0  0  0  0
   49.4881    5.6766   18.2913 H   0  0  0  0  0  0  0  0  0  0  0  0
   47.7460    3.9580   21.0969 H   0  0  0  0  0  0  0  0  0  0  0  0
   47.7433    8.0584   19.7621 H   0  0  0  0  0  0  0  0  0  0  0  0
   47.5398    4.3765   16.3063 H   0  0  0  0  0  0  0  0  0  0  0  0
   48.1420    6.0415   16.2380 H   0  0  0  0  0  0  0  0  0  0  0  0
   49.2608    4.6929   16.0161 H   0  0  0  0  0  0  0  0  0  0  0  0
   48.2315    4.7163   23.3965 H   0  0  0  0  0  0  0  0  0  0  0  0
   48.2330    8.8001   22.0638 H   0  0  0  0  0  0  0  0  0  0  0  0
   48.4757    7.1364   23.8879 H   0  0  0  0  0  0  0  0  0  0  0  0
  4  2  1  0
  3  1  1  0
  4  1  1  0
  5  3  2  0
  6  3  1  0
  4  7  1  0
  8  5  1  0
  9  6  2  0
 10  8  2  0
  9 10  1  0
 12 11  2  0
 13 11  2  0
 14 11  1  0
 15 11  1  0
 19 17  1  0
 18 16  1  0
 19 16  1  0
 20 18  2  0
 21 18  1  0
 19 22  1  0
 23 20  1  0
 24 21  2  0
 25 23  2  0
 24 25  1  0
  1 26  1  0
  1 27  1  0
  2 28  1  0
  2 29  1  0
  4 30  1  6
  5 31  1  0
  6 32  1  0
  7 33  1  0
  7 34  1  0
  7 35  1  0
  8 36  1  0
  9 37  1  0
 10 38  1  0
 14 39  1  0
 15 40  1  0
 16 41  1  0
 16 42  1  0
 17 43  1  0
 17 44  1  0
 19 45  1  1
 20 46  1  0
 21 47  1  0
 22 48  1  0
 22 49  1  0
 22 50  1  0
 23 51  1  0
 24 52  1  0
 25 53  1  0
M  END
> <Uni-Dock RESULT> 
ENERGY=   -4.683  LOWER_BOUND=    7.269  UPPER_BOUND=    8.948
INTER + INTRA:          -4.683
INTER:                  -4.683
INTRA:                   0.000
UNBOUND:                 0.000

$$$$

     RDKit          3D

 53 52  0  0  0  0  0  0  0  0999 V2000
   40.4690   10.2279   11.2096 C   0  0  0  0  0  0  0  0  0  0  0  0
   40.5279   11.5547   13.3350 N   0  0  0  0  0  0  0  0  0  0  0  0
   41.7411   10.7481   10.5776 C   0  0  0  0  0  0  0  0  0  0  0  0
   39.7290   11.2040   12.1539 C   0  0  1  0  0  0  0  0  0  0  0  0
   42.9683   10.6193   11.2430 C   0  0  0  0  0  0  0  0  0  0  0  0
   41.7150   11.3651    9.3194 C   0  0  0  0  0  0  0  0  0  0  0  0
   39.2569   12.4746   11.4461 C   0  0  0  0  0  0  0  0  0  0  0  0
   44.1430   11.1038   10.6660 C   0  0  0  0  0  0  0  0  0  0  0  0
   42.8908   11.8493    8.7431 C   0  0  0  0  0  0  0  0  0  0  0  0
   44.1038   11.7195    9.4167 C   0  0  0  0  0  0  0  0  0  0  0  0
   41.3443   11.8502   10.8709 S   0  0  0  0  0  0  0  0  0  0  0  0
   42.3328   12.8033   11.3069 O   0  0  0  0  0  0  0  0  0  0  0  0
   40.1656   12.2022   10.1209 O   0  0  0  0  0  0  0  0  0  0  0  0
   40.8380   11.0256   12.1504 O   0  0  0  0  0  0  0  0  0  0  0  0
   42.1363   10.7125   10.0635 O   0  0  0  0  0  0  0  0  0  0  0  0
   42.2259   10.6617   11.0079 C   0  0  0  0  0  0  0  0  0  0  0  0
   43.2164   12.7801   10.1368 N   0  0  0  0  0  0  0  0  0  0  0  0
   40.9125   11.1035   11.6128 C   0  0  0  0  0  0  0  0  0  0  0  0
   42.6424   11.4793    9.7652 C   0  0  1  0  0  0  0  0  0  0  0  0
   40.8553   12.2162   12.4618 C   0  0  0  0  0  0  0  0  0  0  0  0
   39.7281   10.4114   11.3229 C   0  0  0  0  0  0  0  0  0  0  0  0
   43.6727   10.7059    8.9398 C   0  0  0  0  0  0  0  0  0  0  0  0
   39.6411   12.6242   13.0164 C   0  0  0  0  0  0  0  0  0  0  0  0
   38.5143   10.8198   11.8791 C   0  0  0  0  0  0  0  0  0  0  0  0
   38.4712   11.9252   12.7265 C   0  0  0  0  0  0  0  0  0  0  0  0
   39.7820    9.9151   10.4117 H   0  0  0  0  0  0  0  0  0  0  0  0
   40.7042    9.3048   11.7575 H   0  0  0  0  0  0  0  0  0  0  0  0
   41.3657   12.0526   13.0289 H   0  0  0  0  0  0  0  0  0  0  0  0
   40.0108   12.2182   13.9108 H   0  0  0  0  0  0  0  0  0  0  0  0
   38.8371   10.6791   12.5178 H   0  0  0  0  0  0  0  0  0  0  0  0
   43.0121   10.1384   12.2186 H   0  0  0  0  0  0  0  0  0  0  0  0
   40.7775   11.4726    8.7790 H   0  0  0  0  0  0  0  0  0  0  0  0
   38.6201   13.0728   12.1079 H   0  0  0  0  0  0  0  0  0  0  0  0
   38.6668   12.2268   10.5573 H   0  0  0  0  0  0  0  0  0  0  0  0
   40.0943   13.1079   11.1350 H   0  0  0  0  0  0  0  0  0  0  0  0
   45.0884   10.9980   11.1913 H   0  0  0  0  0  0  0  0  0  0  0  0
   42.8602   12.3263    7.7672 H   0  0  0  0  0  0  0  0  0  0  0  0
   45.0189   12.0951    8.9668 H   0  0  0  0  0  0  0  0  0  0  0  0
   39.9899   10.6018   11.9038 H   0  0  0  0  0  0  0  0  0  0  0  0
   43.0487   10.6878   10.4194 H   0  0  0  0  0  0  0  0  0  0  0  0
   43.0094   10.6953   11.7771 H   0  0  0  0  0  0  0  0  0  0  0  0
   42.1382    9.6010   10.7362 H   0  0  0  0  0  0  0  0  0  0  0  0
   43.4665   13.2950    9.2935 H   0  0  0  0  0  0  0  0  0  0  0  0
   44.0834   12.6414   10.6540 H   0  0  0  0  0  0  0  0  0  0  0  0
   41.7637   11.6611    9.1345 H   0  0  0  0  0  0  0  0  0  0  0  0
   41.7593   12.7781   12.6859 H   0  0  0  0  0  0  0  0  0  0  0  0
   39.7426    9.5484   10.6616 H   0  0  0  0  0  0  0  0  0  0  0  0
   44.5754   10.4907    9.5228 H   0  0  0  0  0  0  0  0  0  0  0  0
   43.2566    9.7518    8.5985 H   0  0  0  0  0  0  0  0  0  0  0  0
   43.9701   11.2717    8.0498 H   0  0  0  0  0  0  0  0  0  0  0  0
   39.6096   13.4914   13.6704 H   0  0  0  0  0  0  0  0  0  0  0  0
   37.6019   10.2762   11.6493 H   0  0  0  0  0  0  0  0  0  0  0  0
   37.5263   12.2446   13.1572 H   0  0  0  0  0  0  0  0  0  0  0  0
  4  2  1  0
  3  1  1  0
  4  1  1  0
  5  3  2  0
  6  3  1  0
  4  7  1  0
  8  5  1  0
  9  6  2  0
 10  8  2  0
  9 10  1  0
 12 11  2  0
 13 11  2  0
 14 11  1  0
 15 11  1  0
 19 17  1  0
 18 16  1  0
 19 16  1  0
 20 18  2  0
 21 18  1  0
 19 22  1  0
 23 20  1  0
 24 21  2  0
 25 23  2  0
 24 25  1  0
  1 26  1  0
  1 27  1  0
  2 28  1  0
  2 29  1  0
  4 30  1  6
  5 31  1  0
  6 32  1  0
  7 33  1  0
  7 34  1  0
  7 35  1  0
  8 36  1  0
  9 37  1  0
 10 38  1  0
 14 39  1  0
 15 40  1  0
 16 41  1  0
 16 42  1  0
 17 43  1  0
 17 44  1  0
 19 45  1  1
 20 46  1  0
 21 47  1  0
 22 48  1  0
 22 49  1  0
 22 50  1  0
 23 51  1  0
 24 52  1  0
 25 53  1  0
M  END
> <Uni-Dock RESULT> 
ENERGY=   -4.606  LOWER_BOUND=    6.170  UPPER_BOUND=    7.549
INTER + INTRA:          -4.606
INTER:                  -4.606
INTRA:                   0.000
UNBOUND:                 0.000

$$$$

     RDKit          3D

 53 52  0  0  0  0  0  0  0  0999 V2000
   47.8208    5.5894   20.5716 C   0  0  0  0  0  0  0  0  0  0  0  0
   49.9031    6.9826   20.5075 N   0  0  0  0  0  0  0  0  0  0  0  0
   47.9980    4.8496   19.2640 C   0  0  0  0  0  0  0  0  0  0  0  0
   48.4411    7.0044   20.6429 C   0  0  1  0  0  0  0  0  0  0  0  0
   49.1427    4.0726   19.0377 C   0  0  0  0  0  0  0  0  0  0  0  0
   47.0233    4.9273   18.2598 C   0  0  0  0  0  0  0  0  0  0  0  0
   47.8362    7.9721   19.6252 C   0  0  0  0  0  0  0  0  0  0  0  0
   49.3126    3.3939   17.8301 C   0  0  0  0  0  0  0  0  0  0  0  0
   47.1944    4.2478   17.0523 C   0  0  0  0  0  0  0  0  0  0  0  0
   48.3389    3.4824   16.8375 C   0  0  0  0  0  0  0  0  0  0  0  0
   48.2535    5.9256   18.7792 S   0  0  0  0  0  0  0  0  0  0  0  0
   49.2816    5.9573   17.7703 O   0  0  0  0  0  0  0  0  0  0  0  0
   47.1008    6.7898   18.7782 O   0  0  0  0  0  0  0  0  0  0  0  0
   48.9484    6.0983   20.2147 O   0  0  0  0  0  0  0  0  0  0  0  0
   47.7462    4.4059   18.8621 O   0  0  0  0  0  0  0  0  0  0  0  0
   48.5866    4.5649   19.2755 C   0  0  0  0  0  0  0  0  0  0  0  0
   48.7112    4.9963   16.8207 N   0  0  0  0  0  0  0  0  0  0  0  0
   48.5402    5.9501   19.8799 C   0  0  0  0  0  0  0  0  0  0  0  0
   47.8779    4.4617   17.9068 C   0  0  1  0  0  0  0  0  0  0  0  0
   49.4379    6.9417   19.4638 C   0  0  0  0  0  0  0  0  0  0  0  0
   47.5883    6.2665   20.8595 C   0  0  0  0  0  0  0  0  0  0  0  0
   47.5378    3.0035   17.5921 C   0  0  0  0  0  0  0  0  0  0  0  0
   49.3910    8.2207   20.0208 C   0  0  0  0  0  0  0  0  0  0  0  0
   47.5431    7.5459   21.4167 C   0  0  0  0  0  0  0  0  0  0  0  0
   48.4449    8.5222   20.9983 C   0  0  0  0  0  0  0  0  0  0  0  0
   46.7474    5.6598   20.7934 H   0  0  0  0  0  0  0  0  0  0  0  0
   48.2363    4.9723   21.3803 H   0  0  0  0  0  0  0  0  0  0  0  0
   50.1419    6.6258   19.5805 H   0  0  0  0  0  0  0  0  0  0  0  0
   50.2615    7.9366   20.5337 H   0  0  0  0  0  0  0  0  0  0  0  0
   48.2204    7.3979   21.6429 H   0  0  0  0  0  0  0  0  0  0  0  0
   49.9095    3.9940   19.8063 H   0  0  0  0  0  0  0  0  0  0  0  0
   46.1231    5.5181   18.4116 H   0  0  0  0  0  0  0  0  0  0  0  0
   48.1976    8.9922   19.7983 H   0  0  0  0  0  0  0  0  0  0  0  0
   46.7445    7.9910   19.7096 H   0  0  0  0  0  0  0  0  0  0  0  0
   48.0950    7.7019   18.5959 H   0  0  0  0  0  0  0  0  0  0  0  0
   50.2041    2.7945   17.6663 H   0  0  0  0  0  0  0  0  0  0  0  0
   46.4330    4.3143   16.2798 H   0  0  0  0  0  0  0  0  0  0  0  0
   48.4706    2.9524   15.8980 H   0  0  0  0  0  0  0  0  0  0  0  0
   48.2464    6.3608   20.8456 H   0  0  0  0  0  0  0  0  0  0  0  0
   48.4917    3.8367   18.5793 H   0  0  0  0  0  0  0  0  0  0  0  0
   49.6322    4.2372   19.1988 H   0  0  0  0  0  0  0  0  0  0  0  0
   48.1199    3.8667   19.9834 H   0  0  0  0  0  0  0  0  0  0  0  0
   48.2072    4.9235   15.9379 H   0  0  0  0  0  0  0  0  0  0  0  0
   49.5514    4.4293   16.7172 H   0  0  0  0  0  0  0  0  0  0  0  0
   46.9430    5.0343   17.9338 H   0  0  0  0  0  0  0  0  0  0  0  0
   50.1730    6.7227   18.6925 H   0  0  0  0  0  0  0  0  0  0  0  0
   46.8750    5.5180   21.1960 H   0  0  0  0  0  0  0  0  0  0  0  0
   48.4378    2.3793   17.5565 H   0  0  0  0  0  0  0  0  0  0  0  0
   46.8703    2.5892   18.3555 H   0  0  0  0  0  0  0  0  0  0  0  0
   47.0263    2.9174   16.6269 H   0  0  0  0  0  0  0  0  0  0  0  0
   50.0906    8.9820   19.6866 H   0  0  0  0  0  0  0  0  0  0  0  0
   46.8023    7.7811   22.1762 H   0  0  0  0  0  0  0  0  0  0  0  0
   48.4081    9.5185   21.4299 H   0  0  0  0  0  0  0  0  0  0  0  0
  4  2  1  0
  3  1  1  0
  4  1  1  0
  5  3  2  0
  6  3  1  0
  4  7  1  0
  8  5  1  0
  9  6  2  0
 10  8  2  0
  9 10  1  0
 12 11  2  0
 13 11  2  0
 14 11  1  0
 15 11  1  0
 19 17  1  0
 18 16  1  0
 19 16  1  0
 20 18  2  0
 21 18  1  0
 19 22  1  0
 23 20  1  0
 24 21  2  0
 25 23  2  0
 24 25  1  0
  1 26  1  0
  1 27  1  0
  2 28  1  0
  2 29  1  0
  4 30  1  6
  5 31  1  0
  6 32  1  0
  7 33  1  0
  7 34  1  0
  7 35  1  0
  8 36  1  0
  9 37  1  0
 10 38  1  0
 14 39  1  0
 15 40  1  0
 16 41  1  0
 16 42  1  0
 17 43  1  0
 17 44  1  0
 19 45  1  1
 20 46  1  0
 21 47  1  0
 22 48  1  0
 22 49  1  0
 22 50  1  0
 23 51  1  0
 24 52  1  0
 25 53  1  0
M  END
> <Uni-Dock RESULT> 
ENERGY=   -4.562  LOWER_BOUND=    6.671  UPPER_BOUND=    8.653
INTER + INTRA:          -4.562
INTER:                  -4.562
INTRA:                   0.000
UNBOUND:                 0.000

$$$$
