
     RDKit          3D

 53 52  0  0  0  0  0  0  0  0999 V2000
   43.5238    4.8693   10.6023 C   0  0  0  0  0  0  0  0  0  0  0  0
   45.0162    6.5534   11.6813 N   0  0  0  0  0  0  0  0  0  0  0  0
   44.4401    4.1403    9.6456 C   0  0  0  0  0  0  0  0  0  0  0  0
   44.2241    5.3345   11.8982 C   0  0  1  0  0  0  0  0  0  0  0  0
   45.2980    4.8511    8.7966 C   0  0  0  0  0  0  0  0  0  0  0  0
   44.4526    2.7390    9.6022 C   0  0  0  0  0  0  0  0  0  0  0  0
   43.1907    5.6090   12.9926 C   0  0  0  0  0  0  0  0  0  0  0  0
   46.1454    4.1759    7.9165 C   0  0  0  0  0  0  0  0  0  0  0  0
   45.2998    2.0647    8.7208 C   0  0  0  0  0  0  0  0  0  0  0  0
   46.1451    2.7831    7.8774 C   0  0  0  0  0  0  0  0  0  0  0  0
   44.2372    4.2720   10.4158 S   0  0  0  0  0  0  0  0  0  0  0  0
   43.3796    4.2518    9.2583 O   0  0  0  0  0  0  0  0  0  0  0  0
   44.0206    3.4652   11.5896 O   0  0  0  0  0  0  0  0  0  0  0  0
   45.7254    3.9997    9.8824 O   0  0  0  0  0  0  0  0  0  0  0  0
   44.3639    5.7880   10.9247 O   0  0  0  0  0  0  0  0  0  0  0  0
   45.2357    4.9874   11.6515 C   0  0  0  0  0  0  0  0  0  0  0  0
   43.6889    6.8499   10.9561 N   0  0  0  0  0  0  0  0  0  0  0  0
   45.2720    4.2602   10.3261 C   0  0  0  0  0  0  0  0  0  0  0  0
   43.9531    5.8007   11.9477 C   0  0  1  0  0  0  0  0  0  0  0  0
   45.7950    4.8840    9.1845 C   0  0  0  0  0  0  0  0  0  0  0  0
   44.7854    2.9503   10.2177 C   0  0  0  0  0  0  0  0  0  0  0  0
   42.7098    4.9234   12.0896 C   0  0  0  0  0  0  0  0  0  0  0  0
   45.8218    4.2150    7.9598 C   0  0  0  0  0  0  0  0  0  0  0  0
   44.8127    2.2825    8.9922 C   0  0  0  0  0  0  0  0  0  0  0  0
   45.3296    2.9152    7.8635 C   0  0  0  0  0  0  0  0  0  0  0  0
   42.6909    4.1997   10.8560 H   0  0  0  0  0  0  0  0  0  0  0  0
   43.0592    5.7189   10.0837 H   0  0  0  0  0  0  0  0  0  0  0  0
   44.4012    7.3263   11.4311 H   0  0  0  0  0  0  0  0  0  0  0  0
   45.4723    6.8221   12.5523 H   0  0  0  0  0  0  0  0  0  0  0  0
   44.8995    4.5468   12.2533 H   0  0  0  0  0  0  0  0  0  0  0  0
   45.3170    5.9383    8.8263 H   0  0  0  0  0  0  0  0  0  0  0  0
   43.8018    2.1623   10.2550 H   0  0  0  0  0  0  0  0  0  0  0  0
   42.4821    6.3884   12.6903 H   0  0  0  0  0  0  0  0  0  0  0  0
   43.6756    5.9322   13.9207 H   0  0  0  0  0  0  0  0  0  0  0  0
   42.6186    4.7029   13.2195 H   0  0  0  0  0  0  0  0  0  0  0  0
   46.8090    4.7389    7.2659 H   0  0  0  0  0  0  0  0  0  0  0  0
   45.3014    0.9784    8.6938 H   0  0  0  0  0  0  0  0  0  0  0  0
   46.8063    2.2584    7.1934 H   0  0  0  0  0  0  0  0  0  0  0  0
   45.7624    4.3154    8.9557 H   0  0  0  0  0  0  0  0  0  0  0  0
   44.6962    5.7567   11.8459 H   0  0  0  0  0  0  0  0  0  0  0  0
   45.3944    4.2592   12.4583 H   0  0  0  0  0  0  0  0  0  0  0  0
   46.1036    5.6596   11.7023 H   0  0  0  0  0  0  0  0  0  0  0  0
   44.5297    7.4083   10.8193 H   0  0  0  0  0  0  0  0  0  0  0  0
   43.5003    6.4099   10.0532 H   0  0  0  0  0  0  0  0  0  0  0  0
   44.1083    6.3022   12.9110 H   0  0  0  0  0  0  0  0  0  0  0  0
   46.1884    5.8963    9.2420 H   0  0  0  0  0  0  0  0  0  0  0  0
   44.3793    2.4402   11.0884 H   0  0  0  0  0  0  0  0  0  0  0  0
   41.8546    5.5171   12.4324 H   0  0  0  0  0  0  0  0  0  0  0  0
   42.8766    4.1306   12.8267 H   0  0  0  0  0  0  0  0  0  0  0  0
   42.4249    4.4540   11.1421 H   0  0  0  0  0  0  0  0  0  0  0  0
   46.2291    4.7075    7.0806 H   0  0  0  0  0  0  0  0  0  0  0  0
   44.4307    1.2677    8.9187 H   0  0  0  0  0  0  0  0  0  0  0  0
   45.3510    2.3943    6.9100 H   0  0  0  0  0  0  0  0  0  0  0  0
  4  2  1  0
  3  1  1  0
  4  1  1  0
  5  3  2  0
  6  3  1  0
  4  7  1  0
  8  5  1  0
  9  6  2  0
 10  8  2  0
  9 10  1  0
 12 11  2  0
 13 11  2  0
 14 11  1  0
 15 11  1  0
 19 17  1  0
 18 16  1  0
 19 16  1  0
 20 18  2  0
 21 18  1  0
 19 22  1  0
 23 20  1  0
 24 21  2  0
 25 23  2  0
 24 25  1  0
  1 26  1  0
  1 27  1  0
  2 28  1  0
  2 29  1  0
  4 30  1  6
  5 31  1  0
  6 32  1  0
  7 33  1  0
  7 34  1  0
  7 35  1  0
  8 36  1  0
  9 37  1  0
 10 38  1  0
 14 39  1  0
 15 40  1  0
 16 41  1  0
 16 42  1  0
 17 43  1  0
 17 44  1  0
 19 45  1  6
 20 46  1  0
 21 47  1  0
 22 48  1  0
 22 49  1  0
 22 50  1  0
 23 51  1  0
 24 52  1  0
 25 53  1  0
M  END
> <Uni-Dock RESULT> 
ENERGY=   -7.305  LOWER_BOUND=    0.000  UPPER_BOUND=    0.000
INTER + INTRA:          -7.305
INTER:                  -7.305
INTRA:                   0.000
UNBOUND:                 0.000

$$$$

     RDKit          3D

 53 52  0  0  0  0  0  0  0  0999 V2000
   44.9644    4.9435   11.3142 C   0  0  0  0  0  0  0  0  0  0  0  0
   42.5261    5.1991   11.7795 N   0  0  0  0  0  0  0  0  0  0  0  0
   45.5878    6.1327   12.0095 C   0  0  0  0  0  0  0  0  0  0  0  0
   43.7207    4.3834   12.0392 C   0  0  1  0  0  0  0  0  0  0  0  0
   45.0513    7.4166   11.8483 C   0  0  0  0  0  0  0  0  0  0  0  0
   46.7076    5.9657   12.8366 C   0  0  0  0  0  0  0  0  0  0  0  0
   43.4427    2.9481   11.5877 C   0  0  0  0  0  0  0  0  0  0  0  0
   45.6265    8.5125   12.4939 C   0  0  0  0  0  0  0  0  0  0  0  0
   47.2827    7.0627   13.4809 C   0  0  0  0  0  0  0  0  0  0  0  0
   46.7429    8.3357   13.3086 C   0  0  0  0  0  0  0  0  0  0  0  0
   45.2216    5.4183   12.0945 S   0  0  0  0  0  0  0  0  0  0  0  0
   46.1176    5.8427   11.0492 O   0  0  0  0  0  0  0  0  0  0  0  0
   45.4195    4.2332   12.8895 O   0  0  0  0  0  0  0  0  0  0  0  0
   45.0549    6.6694   13.0846 O   0  0  0  0  0  0  0  0  0  0  0  0
   43.7434    5.3110   11.4807 O   0  0  0  0  0  0  0  0  0  0  0  0
   43.6831    5.1170   12.8547 C   0  0  0  0  0  0  0  0  0  0  0  0
   43.1737    5.0519   10.3887 N   0  0  0  0  0  0  0  0  0  0  0  0
   44.8389    6.0898   12.7886 C   0  0  0  0  0  0  0  0  0  0  0  0
   43.4440    4.2557   11.5916 C   0  0  1  0  0  0  0  0  0  0  0  0
   44.6429    7.4001   12.3294 C   0  0  0  0  0  0  0  0  0  0  0  0
   46.1244    5.6984   13.1869 C   0  0  0  0  0  0  0  0  0  0  0  0
   44.5916    3.2887   11.3029 C   0  0  0  0  0  0  0  0  0  0  0  0
   45.7114    8.2955   12.2618 C   0  0  0  0  0  0  0  0  0  0  0  0
   47.1921    6.5949   13.1185 C   0  0  0  0  0  0  0  0  0  0  0  0
   46.9858    7.8925   12.6550 C   0  0  0  0  0  0  0  0  0  0  0  0
   45.7263    4.1565   11.2324 H   0  0  0  0  0  0  0  0  0  0  0  0
   44.7221    5.2150   10.2777 H   0  0  0  0  0  0  0  0  0  0  0  0
   42.2861    5.1570   10.7901 H   0  0  0  0  0  0  0  0  0  0  0  0
   41.7310    4.8075   12.2829 H   0  0  0  0  0  0  0  0  0  0  0  0
   43.8998    4.3745   13.1211 H   0  0  0  0  0  0  0  0  0  0  0  0
   44.1724    7.5660   11.2251 H   0  0  0  0  0  0  0  0  0  0  0  0
   47.1402    4.9792   12.9848 H   0  0  0  0  0  0  0  0  0  0  0  0
   43.2603    2.8943   10.5084 H   0  0  0  0  0  0  0  0  0  0  0  0
   42.5669    2.5359   12.1012 H   0  0  0  0  0  0  0  0  0  0  0  0
   44.2943    2.2990   11.8184 H   0  0  0  0  0  0  0  0  0  0  0  0
   45.1983    9.5026   12.3637 H   0  0  0  0  0  0  0  0  0  0  0  0
   48.1511    6.9232   14.1191 H   0  0  0  0  0  0  0  0  0  0  0  0
   47.1888    9.1891   13.8121 H   0  0  0  0  0  0  0  0  0  0  0  0
   45.2081    7.4793   12.5550 H   0  0  0  0  0  0  0  0  0  0  0  0
   43.2140    4.7626   12.0963 H   0  0  0  0  0  0  0  0  0  0  0  0
   43.8275    4.4553   13.7194 H   0  0  0  0  0  0  0  0  0  0  0  0
   42.7673    5.6810   13.0800 H   0  0  0  0  0  0  0  0  0  0  0  0
   42.4435    5.7333   10.5886 H   0  0  0  0  0  0  0  0  0  0  0  0
   44.0065    5.5988   10.1616 H   0  0  0  0  0  0  0  0  0  0  0  0
   42.5493    3.6502   11.7826 H   0  0  0  0  0  0  0  0  0  0  0  0
   43.6541    7.7337   12.0233 H   0  0  0  0  0  0  0  0  0  0  0  0
   46.3040    4.6898   13.5525 H   0  0  0  0  0  0  0  0  0  0  0  0
   44.3260    2.6059   10.4876 H   0  0  0  0  0  0  0  0  0  0  0  0
   44.8150    2.6779   12.1841 H   0  0  0  0  0  0  0  0  0  0  0  0
   45.5079    3.8110   11.0084 H   0  0  0  0  0  0  0  0  0  0  0  0
   45.5490    9.3090   11.9042 H   0  0  0  0  0  0  0  0  0  0  0  0
   48.1854    6.2803   13.4278 H   0  0  0  0  0  0  0  0  0  0  0  0
   47.8175    8.5900   12.6027 H   0  0  0  0  0  0  0  0  0  0  0  0
  4  2  1  0
  3  1  1  0
  4  1  1  0
  5  3  2  0
  6  3  1  0
  4  7  1  0
  8  5  1  0
  9  6  2  0
 10  8  2  0
  9 10  1  0
 12 11  2  0
 13 11  2  0
 14 11  1  0
 15 11  1  0
 19 17  1  0
 18 16  1  0
 19 16  1  0
 20 18  2  0
 21 18  1  0
 19 22  1  0
 23 20  1  0
 24 21  2  0
 25 23  2  0
 24 25  1  0
  1 26  1  0
  1 27  1  0
  2 28  1  0
  2 29  1  0
  4 30  1  6
  5 31  1  0
  6 32  1  0
  7 33  1  0
  7 34  1  0
  7 35  1  0
  8 36  1  0
  9 37  1  0
 10 38  1  0
 14 39  1  0
 15 40  1  0
 16 41  1  0
 16 42  1  0
 17 43  1  0
 17 44  1  0
 19 45  1  6
 20 46  1  0
 21 47  1  0
 22 48  1  0
 22 49  1  0
 22 50  1  0
 23 51  1  0
 24 52  1  0
 25 53  1  0
M  END
> <Uni-Dock RESULT> 
ENERGY=   -6.867  LOWER_BOUND=    2.252  UPPER_BOUND=    4.275
INTER + INTRA:          -6.867
INTER:                  -6.867
INTRA:                   0.000
UNBOUND:                 0.000

$$$$

     RDKit          3D

 53 52  0  0  0  0  0  0  0  0999 V2000
   45.3627    5.4235   11.4607 C   0  0  0  0  0  0  0  0  0  0  0  0
   43.2052    5.5207   12.7109 N   0  0  0  0  0  0  0  0  0  0  0  0
   45.1099    4.3852   10.3911 C   0  0  0  0  0  0  0  0  0  0  0  0
   44.1141    6.2581   11.8220 C   0  0  1  0  0  0  0  0  0  0  0  0
   44.5175    3.1573   10.7132 C   0  0  0  0  0  0  0  0  0  0  0  0
   45.4549    4.6411    9.0565 C   0  0  0  0  0  0  0  0  0  0  0  0
   44.5256    7.5605   12.5116 C   0  0  0  0  0  0  0  0  0  0  0  0
   44.2820    2.2015    9.7235 C   0  0  0  0  0  0  0  0  0  0  0  0
   45.2199    3.6839    8.0676 C   0  0  0  0  0  0  0  0  0  0  0  0
   44.6346    2.4641    8.4013 C   0  0  0  0  0  0  0  0  0  0  0  0
   44.9505    5.1302   10.6580 S   0  0  0  0  0  0  0  0  0  0  0  0
   46.1755    4.3819   10.7803 O   0  0  0  0  0  0  0  0  0  0  0  0
   44.8691    6.4486   10.0828 O   0  0  0  0  0  0  0  0  0  0  0  0
   43.9124    4.1784    9.8899 O   0  0  0  0  0  0  0  0  0  0  0  0
   44.2689    5.2248   12.1071 O   0  0  0  0  0  0  0  0  0  0  0  0
   43.4015    5.7514   11.1587 C   0  0  0  0  0  0  0  0  0  0  0  0
   44.5968    5.2639   13.3216 N   0  0  0  0  0  0  0  0  0  0  0  0
   44.0736    4.6866   10.3212 C   0  0  0  0  0  0  0  0  0  0  0  0
   44.2214    6.2989   12.3512 C   0  0  1  0  0  0  0  0  0  0  0  0
   43.9153    3.3287   10.6328 C   0  0  0  0  0  0  0  0  0  0  0  0
   44.8640    5.0394    9.2189 C   0  0  0  0  0  0  0  0  0  0  0  0
   45.4768    7.0538   11.9156 C   0  0  0  0  0  0  0  0  0  0  0  0
   44.5415    2.3466    9.8639 C   0  0  0  0  0  0  0  0  0  0  0  0
   45.4899    4.0561    8.4509 C   0  0  0  0  0  0  0  0  0  0  0  0
   45.3296    2.7104    8.7741 C   0  0  0  0  0  0  0  0  0  0  0  0
   46.1604    6.0913   11.1080 H   0  0  0  0  0  0  0  0  0  0  0  0
   45.7751    4.9328   12.3528 H   0  0  0  0  0  0  0  0  0  0  0  0
   43.6621    5.3439   13.6044 H   0  0  0  0  0  0  0  0  0  0  0  0
   42.3895    6.0962   12.9166 H   0  0  0  0  0  0  0  0  0  0  0  0
   43.5655    6.5124   10.9071 H   0  0  0  0  0  0  0  0  0  0  0  0
   44.2260    2.9450   11.7395 H   0  0  0  0  0  0  0  0  0  0  0  0
   45.9098    5.5884    8.7775 H   0  0  0  0  0  0  0  0  0  0  0  0
   45.0845    7.3678   13.4343 H   0  0  0  0  0  0  0  0  0  0  0  0
   43.6485    8.1662   12.7660 H   0  0  0  0  0  0  0  0  0  0  0  0
   45.1603    8.1626   11.8525 H   0  0  0  0  0  0  0  0  0  0  0  0
   43.8182    1.2546    9.9858 H   0  0  0  0  0  0  0  0  0  0  0  0
   45.4918    3.8912    7.0362 H   0  0  0  0  0  0  0  0  0  0  0  0
   44.4493    1.7203    7.6314 H   0  0  0  0  0  0  0  0  0  0  0  0
   44.1728    3.2534   10.0808 H   0  0  0  0  0  0  0  0  0  0  0  0
   43.6153    5.9539   12.0719 H   0  0  0  0  0  0  0  0  0  0  0  0
   43.1155    6.5864   10.5050 H   0  0  0  0  0  0  0  0  0  0  0  0
   42.4510    5.3482   11.5349 H   0  0  0  0  0  0  0  0  0  0  0  0
   43.7725    4.7237   13.5789 H   0  0  0  0  0  0  0  0  0  0  0  0
   45.2300    4.6019   12.8688 H   0  0  0  0  0  0  0  0  0  0  0  0
   43.5788    7.0147   12.8788 H   0  0  0  0  0  0  0  0  0  0  0  0
   43.2996    3.0260   11.4767 H   0  0  0  0  0  0  0  0  0  0  0  0
   44.9994    6.0849    8.9509 H   0  0  0  0  0  0  0  0  0  0  0  0
   45.9531    7.5402   12.7746 H   0  0  0  0  0  0  0  0  0  0  0  0
   45.2271    7.8362   11.1911 H   0  0  0  0  0  0  0  0  0  0  0  0
   46.2201    6.3912   11.4598 H   0  0  0  0  0  0  0  0  0  0  0  0
   44.4127    1.2966   10.1139 H   0  0  0  0  0  0  0  0  0  0  0  0
   46.1025    4.3409    7.5995 H   0  0  0  0  0  0  0  0  0  0  0  0
   45.8168    1.9455    8.1752 H   0  0  0  0  0  0  0  0  0  0  0  0
  4  2  1  0
  3  1  1  0
  4  1  1  0
  5  3  2  0
  6  3  1  0
  4  7  1  0
  8  5  1  0
  9  6  2  0
 10  8  2  0
  9 10  1  0
 12 11  2  0
 13 11  2  0
 14 11  1  0
 15 11  1  0
 19 17  1  0
 18 16  1  0
 19 16  1  0
 20 18  2  0
 21 18  1  0
 19 22  1  0
 23 20  1  0
 24 21  2  0
 25 23  2  0
 24 25  1  0
  1 26  1  0
  1 27  1  0
  2 28  1  0
  2 29  1  0
  4 30  1  6
  5 31  1  0
  6 32  1  0
  7 33  1  0
  7 34  1  0
  7 35  1  0
  8 36  1  0
  9 37  1  0
 10 38  1  0
 14 39  1  0
 15 40  1  0
 16 41  1  0
 16 42  1  0
 17 43  1  0
 17 44  1  0
 19 45  1  6
 20 46  1  0
 21 47  1  0
 22 48  1  0
 22 49  1  0
 22 50  1  0
 23 51  1  0
 24 52  1  0
 25 53  1  0
M  END
> <Uni-Dock RESULT> 
ENERGY=   -6.065  LOWER_BOUND=    1.100  UPPER_BOUND=    2.270
INTER + INTRA:          -6.065
INTER:                  -6.065
INTRA:                   0.000
UNBOUND:                 0.000

$$$$

     RDKit          3D

 53 52  0  0  0  0  0  0  0  0999 V2000
   45.0248    4.7776   11.5423 C   0  0  0  0  0  0  0  0  0  0  0  0
   42.7718    4.1896   12.4397 N   0  0  0  0  0  0  0  0  0  0  0  0
   45.0956    4.0254   10.2325 C   0  0  0  0  0  0  0  0  0  0  0  0
   43.6051    5.2719   11.8973 C   0  0  1  0  0  0  0  0  0  0  0  0
   44.7271    2.6758   10.1629 C   0  0  0  0  0  0  0  0  0  0  0  0
   45.5211    4.6722    9.0636 C   0  0  0  0  0  0  0  0  0  0  0  0
   43.6766    6.4001   12.9284 C   0  0  0  0  0  0  0  0  0  0  0  0
   44.7901    1.9843    8.9520 C   0  0  0  0  0  0  0  0  0  0  0  0
   45.5848    3.9793    7.8532 C   0  0  0  0  0  0  0  0  0  0  0  0
   45.2204    2.6355    7.7978 C   0  0  0  0  0  0  0  0  0  0  0  0
   44.7651    4.6388   10.6403 S   0  0  0  0  0  0  0  0  0  0  0  0
   46.0941    4.0971   10.7663 O   0  0  0  0  0  0  0  0  0  0  0  0
   44.4855    6.0291   10.3865 O   0  0  0  0  0  0  0  0  0  0  0  0
   44.0219    3.7612    9.5218 O   0  0  0  0  0  0  0  0  0  0  0  0
   43.9303    4.2403   11.9508 O   0  0  0  0  0  0  0  0  0  0  0  0
   43.0802    4.8443   11.0335 C   0  0  0  0  0  0  0  0  0  0  0  0
   44.1150    4.0164   13.1755 N   0  0  0  0  0  0  0  0  0  0  0  0
   44.0333    4.1594   10.0800 C   0  0  0  0  0  0  0  0  0  0  0  0
   43.6462    5.1912   12.4312 C   0  0  1  0  0  0  0  0  0  0  0  0
   44.1147    2.7603   10.0353 C   0  0  0  0  0  0  0  0  0  0  0  0
   44.8495    4.9116    9.2242 C   0  0  0  0  0  0  0  0  0  0  0  0
   44.7663    6.2296   12.3804 C   0  0  0  0  0  0  0  0  0  0  0  0
   44.9997    2.1287    9.1601 C   0  0  0  0  0  0  0  0  0  0  0  0
   45.7343    4.2786    8.3497 C   0  0  0  0  0  0  0  0  0  0  0  0
   45.8102    2.8877    8.3186 C   0  0  0  0  0  0  0  0  0  0  0  0
   45.7073    5.6362   11.4814 H   0  0  0  0  0  0  0  0  0  0  0  0
   45.4303    4.1472   12.3453 H   0  0  0  0  0  0  0  0  0  0  0  0
   43.1585    3.8649   13.3248 H   0  0  0  0  0  0  0  0  0  0  0  0
   41.8415    4.5492   12.6496 H   0  0  0  0  0  0  0  0  0  0  0  0
   43.1160    5.6608   10.9960 H   0  0  0  0  0  0  0  0  0  0  0  0
   44.3775    2.1593   11.0542 H   0  0  0  0  0  0  0  0  0  0  0  0
   45.8065    5.7211    9.0877 H   0  0  0  0  0  0  0  0  0  0  0  0
   44.1628    6.0696   13.8532 H   0  0  0  0  0  0  0  0  0  0  0  0
   42.6754    6.7657   13.1829 H   0  0  0  0  0  0  0  0  0  0  0  0
   44.2453    7.2488   12.5333 H   0  0  0  0  0  0  0  0  0  0  0  0
   44.4977    0.9386    8.9106 H   0  0  0  0  0  0  0  0  0  0  0  0
   45.9169    4.4891    6.9529 H   0  0  0  0  0  0  0  0  0  0  0  0
   45.2674    2.0969    6.8554 H   0  0  0  0  0  0  0  0  0  0  0  0
   44.4384    2.8745    9.5265 H   0  0  0  0  0  0  0  0  0  0  0  0
   43.1529    4.8353   11.9902 H   0  0  0  0  0  0  0  0  0  0  0  0
   42.7049    5.7614   10.5596 H   0  0  0  0  0  0  0  0  0  0  0  0
   42.1940    4.2062   11.1562 H   0  0  0  0  0  0  0  0  0  0  0  0
   43.3913    3.2996   13.1709 H   0  0  0  0  0  0  0  0  0  0  0  0
   44.9104    3.6084   12.6804 H   0  0  0  0  0  0  0  0  0  0  0  0
   42.8232    5.6292   13.0093 H   0  0  0  0  0  0  0  0  0  0  0  0
   43.4861    2.1517   10.6811 H   0  0  0  0  0  0  0  0  0  0  0  0
   44.8029    5.9984    9.2337 H   0  0  0  0  0  0  0  0  0  0  0  0
   45.0444    6.5481   13.3916 H   0  0  0  0  0  0  0  0  0  0  0  0
   44.4441    7.1209   11.8315 H   0  0  0  0  0  0  0  0  0  0  0  0
   45.6694    5.8401   11.8988 H   0  0  0  0  0  0  0  0  0  0  0  0
   45.0554    1.0435    9.1333 H   0  0  0  0  0  0  0  0  0  0  0  0
   46.3643    4.8716    7.6918 H   0  0  0  0  0  0  0  0  0  0  0  0
   46.4988    2.3957    7.6370 H   0  0  0  0  0  0  0  0  0  0  0  0
  4  2  1  0
  3  1  1  0
  4  1  1  0
  5  3  2  0
  6  3  1  0
  4  7  1  0
  8  5  1  0
  9  6  2  0
 10  8  2  0
  9 10  1  0
 12 11  2  0
 13 11  2  0
 14 11  1  0
 15 11  1  0
 19 17  1  0
 18 16  1  0
 19 16  1  0
 20 18  2  0
 21 18  1  0
 19 22  1  0
 23 20  1  0
 24 21  2  0
 25 23  2  0
 24 25  1  0
  1 26  1  0
  1 27  1  0
  2 28  1  0
  2 29  1  0
  4 30  1  6
  5 31  1  0
  6 32  1  0
  7 33  1  0
  7 34  1  0
  7 35  1  0
  8 36  1  0
  9 37  1  0
 10 38  1  0
 14 39  1  0
 15 40  1  0
 16 41  1  0
 16 42  1  0
 17 43  1  0
 17 44  1  0
 19 45  1  6
 20 46  1  0
 21 47  1  0
 22 48  1  0
 22 49  1  0
 22 50  1  0
 23 51  1  0
 24 52  1  0
 25 53  1  0
M  END
> <Uni-Dock RESULT> 
ENERGY=   -5.980  LOWER_BOUND=    1.067  UPPER_BOUND=    2.175
INTER + INTRA:          -5.980
INTER:                  -5.980
INTRA:                   0.000
UNBOUND:                 0.000

$$$$

     RDKit          3D

 53 52  0  0  0  0  0  0  0  0999 V2000
   46.7422    6.2884   12.4420 C   0  0  0  0  0  0  0  0  0  0  0  0
   46.1548    8.4915   13.4563 N   0  0  0  0  0  0  0  0  0  0  0  0
   45.4006    5.6920   12.0806 C   0  0  0  0  0  0  0  0  0  0  0  0
   46.7922    7.8267   12.3110 C   0  0  1  0  0  0  0  0  0  0  0  0
   44.3457    5.6951   13.0021 C   0  0  0  0  0  0  0  0  0  0  0  0
   45.1888    5.1361   10.8109 C   0  0  0  0  0  0  0  0  0  0  0  0
   48.2420    8.3055   12.2102 C   0  0  0  0  0  0  0  0  0  0  0  0
   43.1070    5.1469   12.6650 C   0  0  0  0  0  0  0  0  0  0  0  0
   43.9498    4.5871   10.4752 C   0  0  0  0  0  0  0  0  0  0  0  0
   42.9097    4.5915   11.4025 C   0  0  0  0  0  0  0  0  0  0  0  0
   45.9538    6.2561   11.9150 S   0  0  0  0  0  0  0  0  0  0  0  0
   46.1632    4.9200   12.4116 O   0  0  0  0  0  0  0  0  0  0  0  0
   46.5859    6.7809   10.7315 O   0  0  0  0  0  0  0  0  0  0  0  0
   44.3673    6.4408   11.7652 O   0  0  0  0  0  0  0  0  0  0  0  0
   46.2751    7.2913   13.0976 O   0  0  0  0  0  0  0  0  0  0  0  0
   45.7470    7.9832   12.0153 C   0  0  0  0  0  0  0  0  0  0  0  0
   47.0175    7.3935   14.1087 N   0  0  0  0  0  0  0  0  0  0  0  0
   45.0044    6.6746   11.8637 C   0  0  0  0  0  0  0  0  0  0  0  0
   47.1127    7.9120   12.7391 C   0  0  1  0  0  0  0  0  0  0  0  0
   44.0954    6.2528   12.8444 C   0  0  0  0  0  0  0  0  0  0  0  0
   45.2112    5.8632   10.7398 C   0  0  0  0  0  0  0  0  0  0  0  0
   48.1543    7.1008   11.9694 C   0  0  0  0  0  0  0  0  0  0  0  0
   43.4155    5.0415   12.7076 C   0  0  0  0  0  0  0  0  0  0  0  0
   44.5308    4.6519   10.6045 C   0  0  0  0  0  0  0  0  0  0  0  0
   43.6342    4.2408   11.5886 C   0  0  0  0  0  0  0  0  0  0  0  0
   47.5033    5.8400   11.7893 H   0  0  0  0  0  0  0  0  0  0  0  0
   47.0170    5.9746   13.4582 H   0  0  0  0  0  0  0  0  0  0  0  0
   46.6764    8.2901   14.3082 H   0  0  0  0  0  0  0  0  0  0  0  0
   46.1956    9.5019   13.3289 H   0  0  0  0  0  0  0  0  0  0  0  0
   46.2647    8.1347   11.4002 H   0  0  0  0  0  0  0  0  0  0  0  0
   44.4829    6.1370   13.9866 H   0  0  0  0  0  0  0  0  0  0  0  0
   45.9882    5.1265   10.0740 H   0  0  0  0  0  0  0  0  0  0  0  0
   48.8221    8.0204   13.0951 H   0  0  0  0  0  0  0  0  0  0  0  0
   48.2911    9.3955   12.1084 H   0  0  0  0  0  0  0  0  0  0  0  0
   48.7318    7.8714   11.3318 H   0  0  0  0  0  0  0  0  0  0  0  0
   42.2956    5.1592   13.3876 H   0  0  0  0  0  0  0  0  0  0  0  0
   43.7959    4.1575    9.4891 H   0  0  0  0  0  0  0  0  0  0  0  0
   41.9446    4.1667   11.1405 H   0  0  0  0  0  0  0  0  0  0  0  0
   43.9441    5.8416   12.4145 H   0  0  0  0  0  0  0  0  0  0  0  0
   46.4090    8.1695   12.6844 H   0  0  0  0  0  0  0  0  0  0  0  0
   45.8898    8.4255   11.0201 H   0  0  0  0  0  0  0  0  0  0  0  0
   45.0973    8.6910   12.5488 H   0  0  0  0  0  0  0  0  0  0  0  0
   46.2896    7.8966   14.6133 H   0  0  0  0  0  0  0  0  0  0  0  0
   46.7057    6.4210   14.0719 H   0  0  0  0  0  0  0  0  0  0  0  0
   47.4899    8.9397   12.8112 H   0  0  0  0  0  0  0  0  0  0  0  0
   43.9081    6.8673   13.7219 H   0  0  0  0  0  0  0  0  0  0  0  0
   45.9064    6.1685    9.9609 H   0  0  0  0  0  0  0  0  0  0  0  0
   49.1392    7.1881   12.4424 H   0  0  0  0  0  0  0  0  0  0  0  0
   48.2492    7.4673   10.9417 H   0  0  0  0  0  0  0  0  0  0  0  0
   47.9021    6.0359   11.9301 H   0  0  0  0  0  0  0  0  0  0  0  0
   42.7130    4.7233   13.4735 H   0  0  0  0  0  0  0  0  0  0  0  0
   44.7003    4.0292    9.7299 H   0  0  0  0  0  0  0  0  0  0  0  0
   43.1044    3.2980   11.4820 H   0  0  0  0  0  0  0  0  0  0  0  0
  4  2  1  0
  3  1  1  0
  4  1  1  0
  5  3  2  0
  6  3  1  0
  4  7  1  0
  8  5  1  0
  9  6  2  0
 10  8  2  0
  9 10  1  0
 12 11  2  0
 13 11  2  0
 14 11  1  0
 15 11  1  0
 19 17  1  0
 18 16  1  0
 19 16  1  0
 20 18  2  0
 21 18  1  0
 19 22  1  0
 23 20  1  0
 24 21  2  0
 25 23  2  0
 24 25  1  0
  1 26  1  0
  1 27  1  0
  2 28  1  0
  2 29  1  0
  4 30  1  6
  5 31  1  0
  6 32  1  0
  7 33  1  0
  7 34  1  0
  7 35  1  0
  8 36  1  0
  9 37  1  0
 10 38  1  0
 14 39  1  0
 15 40  1  0
 16 41  1  0
 16 42  1  0
 17 43  1  0
 17 44  1  0
 19 45  1  6
 20 46  1  0
 21 47  1  0
 22 48  1  0
 22 49  1  0
 22 50  1  0
 23 51  1  0
 24 52  1  0
 25 53  1  0
M  END
> <Uni-Dock RESULT> 
ENERGY=   -5.552  LOWER_BOUND=    2.398  UPPER_BOUND=    4.078
INTER + INTRA:          -5.552
INTER:                  -5.552
INTRA:                   0.000
UNBOUND:                 0.000

$$$$

     RDKit          3D

 53 52  0  0  0  0  0  0  0  0999 V2000
   44.6449    5.7578   12.7147 C   0  0  0  0  0  0  0  0  0  0  0  0
   45.3004    4.1579   10.9152 N   0  0  0  0  0  0  0  0  0  0  0  0
   45.6528    6.8771   12.5827 C   0  0  0  0  0  0  0  0  0  0  0  0
   44.2682    5.1009   11.3683 C   0  0  1  0  0  0  0  0  0  0  0  0
   47.0200    6.5969   12.4622 C   0  0  0  0  0  0  0  0  0  0  0  0
   45.2319    8.2144   12.5674 C   0  0  0  0  0  0  0  0  0  0  0  0
   42.9403    4.3515   11.4948 C   0  0  0  0  0  0  0  0  0  0  0  0
   47.9484    7.6318   12.3371 C   0  0  0  0  0  0  0  0  0  0  0  0
   46.1614    9.2487   12.4434 C   0  0  0  0  0  0  0  0  0  0  0  0
   47.5193    8.9574   12.3294 C   0  0  0  0  0  0  0  0  0  0  0  0
   45.0115    6.5067   12.2616 S   0  0  0  0  0  0  0  0  0  0  0  0
   45.3391    6.6764   13.6542 O   0  0  0  0  0  0  0  0  0  0  0  0
   43.7585    6.9109   11.6766 O   0  0  0  0  0  0  0  0  0  0  0  0
   46.2015    7.1884   11.4294 O   0  0  0  0  0  0  0  0  0  0  0  0
   45.2128    4.9618   11.8795 O   0  0  0  0  0  0  0  0  0  0  0  0
   44.9392    5.6860   10.7264 C   0  0  0  0  0  0  0  0  0  0  0  0
   45.1352    3.8233   12.4107 N   0  0  0  0  0  0  0  0  0  0  0  0
   45.6915    6.7372   11.5110 C   0  0  0  0  0  0  0  0  0  0  0  0
   44.2231    4.5962   11.5594 C   0  0  1  0  0  0  0  0  0  0  0  0
   47.0440    6.5549   11.8328 C   0  0  0  0  0  0  0  0  0  0  0  0
   45.0499    7.9116   11.9276 C   0  0  0  0  0  0  0  0  0  0  0  0
   43.0883    5.1519   12.4191 C   0  0  0  0  0  0  0  0  0  0  0  0
   47.7362    7.5222   12.5631 C   0  0  0  0  0  0  0  0  0  0  0  0
   45.7434    8.8780   12.6581 C   0  0  0  0  0  0  0  0  0  0  0  0
   47.0856    8.6827   12.9767 C   0  0  0  0  0  0  0  0  0  0  0  0
   43.7417    6.1645   13.1894 H   0  0  0  0  0  0  0  0  0  0  0  0
   45.0257    5.0079   13.4213 H   0  0  0  0  0  0  0  0  0  0  0  0
   45.3698    3.3796   11.5692 H   0  0  0  0  0  0  0  0  0  0  0  0
   45.0241    3.7552   10.0206 H   0  0  0  0  0  0  0  0  0  0  0  0
   44.1534    5.8762   10.6012 H   0  0  0  0  0  0  0  0  0  0  0  0
   47.3667    5.5659   12.4541 H   0  0  0  0  0  0  0  0  0  0  0  0
   44.1761    8.4601   12.6524 H   0  0  0  0  0  0  0  0  0  0  0  0
   42.9940    3.5635   12.2545 H   0  0  0  0  0  0  0  0  0  0  0  0
   42.6573    3.8873   10.5433 H   0  0  0  0  0  0  0  0  0  0  0  0
   42.1349    5.0379   11.7775 H   0  0  0  0  0  0  0  0  0  0  0  0
   49.0057    7.4009   12.2404 H   0  0  0  0  0  0  0  0  0  0  0  0
   45.8254   10.2820   12.4337 H   0  0  0  0  0  0  0  0  0  0  0  0
   48.2425    9.7621   12.2302 H   0  0  0  0  0  0  0  0  0  0  0  0
   47.0051    7.1474   11.9882 H   0  0  0  0  0  0  0  0  0  0  0  0
   44.7272    4.8053   11.0430 H   0  0  0  0  0  0  0  0  0  0  0  0
   44.2046    6.1858   10.0805 H   0  0  0  0  0  0  0  0  0  0  0  0
   45.6413    5.2013   10.0338 H   0  0  0  0  0  0  0  0  0  0  0  0
   45.9211    3.4915   11.8540 H   0  0  0  0  0  0  0  0  0  0  0  0
   45.5384    4.4469   13.1127 H   0  0  0  0  0  0  0  0  0  0  0  0
   43.7759    3.8920   10.8469 H   0  0  0  0  0  0  0  0  0  0  0  0
   47.5694    5.6577   11.5138 H   0  0  0  0  0  0  0  0  0  0  0  0
   44.0028    8.0817   11.6870 H   0  0  0  0  0  0  0  0  0  0  0  0
   42.5216    4.3374   12.8847 H   0  0  0  0  0  0  0  0  0  0  0  0
   42.3885    5.7329   11.8091 H   0  0  0  0  0  0  0  0  0  0  0  0
   43.4571    5.7970   13.2234 H   0  0  0  0  0  0  0  0  0  0  0  0
   48.7845    7.3712   12.8077 H   0  0  0  0  0  0  0  0  0  0  0  0
   45.2355    9.7840   12.9782 H   0  0  0  0  0  0  0  0  0  0  0  0
   47.6248    9.4359   13.5449 H   0  0  0  0  0  0  0  0  0  0  0  0
  4  2  1  0
  3  1  1  0
  4  1  1  0
  5  3  2  0
  6  3  1  0
  4  7  1  0
  8  5  1  0
  9  6  2  0
 10  8  2  0
  9 10  1  0
 12 11  2  0
 13 11  2  0
 14 11  1  0
 15 11  1  0
 19 17  1  0
 18 16  1  0
 19 16  1  0
 20 18  2  0
 21 18  1  0
 19 22  1  0
 23 20  1  0
 24 21  2  0
 25 23  2  0
 24 25  1  0
  1 26  1  0
  1 27  1  0
  2 28  1  0
  2 29  1  0
  4 30  1  6
  5 31  1  0
  6 32  1  0
  7 33  1  0
  7 34  1  0
  7 35  1  0
  8 36  1  0
  9 37  1  0
 10 38  1  0
 14 39  1  0
 15 40  1  0
 16 41  1  0
 16 42  1  0
 17 43  1  0
 17 44  1  0
 19 45  1  6
 20 46  1  0
 21 47  1  0
 22 48  1  0
 22 49  1  0
 22 50  1  0
 23 51  1  0
 24 52  1  0
 25 53  1  0
M  END
> <Uni-Dock RESULT> 
ENERGY=   -5.538  LOWER_BOUND=    2.679  UPPER_BOUND=    4.643
INTER + INTRA:          -5.538
INTER:                  -5.538
INTRA:                   0.000
UNBOUND:                 0.000

$$$$

     RDKit          3D

 53 52  0  0  0  0  0  0  0  0999 V2000
   48.5529    4.5051   20.3990 C   0  0  0  0  0  0  0  0  0  0  0  0
   47.5200    6.7742   20.2928 N   0  0  0  0  0  0  0  0  0  0  0  0
   48.4702    4.0074   18.9736 C   0  0  0  0  0  0  0  0  0  0  0  0
   48.7685    6.0305   20.5114 C   0  0  1  0  0  0  0  0  0  0  0  0
   47.2785    4.1189   18.2459 C   0  0  0  0  0  0  0  0  0  0  0  0
   49.5908    3.4361   18.3541 C   0  0  0  0  0  0  0  0  0  0  0  0
   49.3184    6.3899   21.8933 C   0  0  0  0  0  0  0  0  0  0  0  0
   47.2054    3.6618   16.9290 C   0  0  0  0  0  0  0  0  0  0  0  0
   49.5163    2.9783   17.0373 C   0  0  0  0  0  0  0  0  0  0  0  0
   48.3236    3.0901   16.3255 C   0  0  0  0  0  0  0  0  0  0  0  0
   48.8200    4.5212   19.4886 S   0  0  0  0  0  0  0  0  0  0  0  0
   48.3426    3.1866   19.7463 O   0  0  0  0  0  0  0  0  0  0  0  0
   50.1622    4.9623   19.7711 O   0  0  0  0  0  0  0  0  0  0  0  0
   48.5013    4.8270   17.9464 O   0  0  0  0  0  0  0  0  0  0  0  0
   47.8385    5.5591   20.2186 O   0  0  0  0  0  0  0  0  0  0  0  0
   48.7482    6.2614   19.4386 C   0  0  0  0  0  0  0  0  0  0  0  0
   47.0995    5.6292   21.2350 N   0  0  0  0  0  0  0  0  0  0  0  0
   48.6079    5.0122   18.5980 C   0  0  0  0  0  0  0  0  0  0  0  0
   48.4596    6.1016   20.9504 C   0  0  1  0  0  0  0  0  0  0  0  0
   47.3822    4.6902   17.9981 C   0  0  0  0  0  0  0  0  0  0  0  0
   49.7011    4.1570   18.4033 C   0  0  0  0  0  0  0  0  0  0  0  0
   49.4627    5.1900   21.6562 C   0  0  0  0  0  0  0  0  0  0  0  0
   47.2512    3.5334   17.2282 C   0  0  0  0  0  0  0  0  0  0  0  0
   49.5686    3.0003   17.6333 C   0  0  0  0  0  0  0  0  0  0  0  0
   48.3438    2.6881   17.0470 C   0  0  0  0  0  0  0  0  0  0  0  0
   49.3791    3.9804   20.8975 H   0  0  0  0  0  0  0  0  0  0  0  0
   47.6498    4.1978   20.9437 H   0  0  0  0  0  0  0  0  0  0  0  0
   46.8523    6.5551   21.0307 H   0  0  0  0  0  0  0  0  0  0  0  0
   47.7033    7.7745   20.3618 H   0  0  0  0  0  0  0  0  0  0  0  0
   49.4959    6.3547   19.7574 H   0  0  0  0  0  0  0  0  0  0  0  0
   46.4021    4.5748   18.7013 H   0  0  0  0  0  0  0  0  0  0  0  0
   50.5303    3.3434   18.8935 H   0  0  0  0  0  0  0  0  0  0  0  0
   48.6325    6.0837   22.6912 H   0  0  0  0  0  0  0  0  0  0  0  0
   49.4838    7.4695   21.9833 H   0  0  0  0  0  0  0  0  0  0  0  0
   50.2800    5.8949   22.0670 H   0  0  0  0  0  0  0  0  0  0  0  0
   46.2762    3.7578   16.3741 H   0  0  0  0  0  0  0  0  0  0  0  0
   50.3899    2.5360   16.5663 H   0  0  0  0  0  0  0  0  0  0  0  0
   48.2663    2.7362   15.2998 H   0  0  0  0  0  0  0  0  0  0  0  0
   47.7270    4.2809   17.6977 H   0  0  0  0  0  0  0  0  0  0  0  0
   48.3156    6.4125   20.2817 H   0  0  0  0  0  0  0  0  0  0  0  0
   49.7615    6.6640   19.3064 H   0  0  0  0  0  0  0  0  0  0  0  0
   48.0816    7.0325   19.0281 H   0  0  0  0  0  0  0  0  0  0  0  0
   46.4272    6.2019   20.7274 H   0  0  0  0  0  0  0  0  0  0  0  0
   46.9942    4.6839   20.8614 H   0  0  0  0  0  0  0  0  0  0  0  0
   48.5534    7.0977   21.4005 H   0  0  0  0  0  0  0  0  0  0  0  0
   46.5200    5.3410   18.1244 H   0  0  0  0  0  0  0  0  0  0  0  0
   50.6652    4.3852   18.8523 H   0  0  0  0  0  0  0  0  0  0  0  0
   49.3080    5.2116   22.7411 H   0  0  0  0  0  0  0  0  0  0  0  0
   50.4890    5.5200   21.4635 H   0  0  0  0  0  0  0  0  0  0  0  0
   49.3728    4.1477   21.3324 H   0  0  0  0  0  0  0  0  0  0  0  0
   46.2966    3.2926   16.7676 H   0  0  0  0  0  0  0  0  0  0  0  0
   50.4222    2.3428   17.4905 H   0  0  0  0  0  0  0  0  0  0  0  0
   48.2417    1.7878   16.4471 H   0  0  0  0  0  0  0  0  0  0  0  0
  4  2  1  0
  3  1  1  0
  4  1  1  0
  5  3  2  0
  6  3  1  0
  4  7  1  0
  8  5  1  0
  9  6  2  0
 10  8  2  0
  9 10  1  0
 12 11  2  0
 13 11  2  0
 14 11  1  0
 15 11  1  0
 19 17  1  0
 18 16  1  0
 19 16  1  0
 20 18  2  0
 21 18  1  0
 19 22  1  0
 23 20  1  0
 24 21  2  0
 25 23  2  0
 24 25  1  0
  1 26  1  0
  1 27  1  0
  2 28  1  0
  2 29  1  0
  4 30  1  6
  5 31  1  0
  6 32  1  0
  7 33  1  0
  7 34  1  0
  7 35  1  0
  8 36  1  0
  9 37  1  0
 10 38  1  0
 14 39  1  0
 15 40  1  0
 16 41  1  0
 16 42  1  0
 17 43  1  0
 17 44  1  0
 19 45  1  6
 20 46  1  0
 21 47  1  0
 22 48  1  0
 22 49  1  0
 22 50  1  0
 23 51  1  0
 24 52  1  0
 25 53  1  0
M  END
> <Uni-Dock RESULT> 
ENERGY=   -5.534  LOWER_BOUND=    8.495  UPPER_BOUND=    9.888
INTER + INTRA:          -5.534
INTER:                  -5.534
INTRA:                   0.000
UNBOUND:                 0.000

$$$$

     RDKit          3D

 53 52  0  0  0  0  0  0  0  0999 V2000
   46.2057    6.1473   13.4473 C   0  0  0  0  0  0  0  0  0  0  0  0
   46.4082    8.1211   11.9339 N   0  0  0  0  0  0  0  0  0  0  0  0
   45.1183    5.3150   12.8061 C   0  0  0  0  0  0  0  0  0  0  0  0
   47.0813    6.9127   12.4306 C   0  0  1  0  0  0  0  0  0  0  0  0
   43.9202    5.9065   12.3855 C   0  0  0  0  0  0  0  0  0  0  0  0
   45.2982    3.9381   12.6122 C   0  0  0  0  0  0  0  0  0  0  0  0
   48.4096    7.3192   13.0719 C   0  0  0  0  0  0  0  0  0  0  0  0
   42.9190    5.1368   11.7908 C   0  0  0  0  0  0  0  0  0  0  0  0
   44.2957    3.1690   12.0183 C   0  0  0  0  0  0  0  0  0  0  0  0
   43.1061    3.7681   11.6088 C   0  0  0  0  0  0  0  0  0  0  0  0
   45.8790    5.5811   12.7594 S   0  0  0  0  0  0  0  0  0  0  0  0
   45.1151    5.2659   13.9395 O   0  0  0  0  0  0  0  0  0  0  0  0
   47.1671    5.0093   12.4604 O   0  0  0  0  0  0  0  0  0  0  0  0
   44.9084    5.3229   11.5085 O   0  0  0  0  0  0  0  0  0  0  0  0
   46.0614    7.1732   12.6854 O   0  0  0  0  0  0  0  0  0  0  0  0
   46.5544    6.6019   11.5194 C   0  0  0  0  0  0  0  0  0  0  0  0
   46.1571    8.1653   13.4540 N   0  0  0  0  0  0  0  0  0  0  0  0
   45.4352    5.6309   11.8215 C   0  0  0  0  0  0  0  0  0  0  0  0
   47.1474    7.3573   12.7326 C   0  0  1  0  0  0  0  0  0  0  0  0
   44.0985    6.0537   11.7981 C   0  0  0  0  0  0  0  0  0  0  0  0
   45.7155    4.2922   12.1278 C   0  0  0  0  0  0  0  0  0  0  0  0
   47.8549    6.4332   13.7231 C   0  0  0  0  0  0  0  0  0  0  0  0
   43.0662    5.1588   12.0840 C   0  0  0  0  0  0  0  0  0  0  0  0
   44.6821    3.3985   12.4138 C   0  0  0  0  0  0  0  0  0  0  0  0
   43.3581    3.8320   12.3930 C   0  0  0  0  0  0  0  0  0  0  0  0
   46.8391    5.4797   14.0470 H   0  0  0  0  0  0  0  0  0  0  0  0
   45.7542    6.8389   14.1714 H   0  0  0  0  0  0  0  0  0  0  0  0
   46.2693    8.7797   12.6990 H   0  0  0  0  0  0  0  0  0  0  0  0
   47.0088    8.5915   11.2581 H   0  0  0  0  0  0  0  0  0  0  0  0
   47.2981    6.2652   11.5724 H   0  0  0  0  0  0  0  0  0  0  0  0
   43.7668    6.9762   12.5104 H   0  0  0  0  0  0  0  0  0  0  0  0
   46.2211    3.4545   12.9230 H   0  0  0  0  0  0  0  0  0  0  0  0
   48.2545    7.9666   13.9425 H   0  0  0  0  0  0  0  0  0  0  0  0
   49.0441    7.8564   12.3579 H   0  0  0  0  0  0  0  0  0  0  0  0
   48.9647    6.4352   13.4038 H   0  0  0  0  0  0  0  0  0  0  0  0
   41.9958    5.6084   11.4654 H   0  0  0  0  0  0  0  0  0  0  0  0
   44.4441    2.1024   11.8734 H   0  0  0  0  0  0  0  0  0  0  0  0
   42.3269    3.1702   11.1442 H   0  0  0  0  0  0  0  0  0  0  0  0
   43.9899    5.4502   11.8244 H   0  0  0  0  0  0  0  0  0  0  0  0
   46.7998    7.3510   12.0665 H   0  0  0  0  0  0  0  0  0  0  0  0
   47.3597    6.0627   11.0025 H   0  0  0  0  0  0  0  0  0  0  0  0
   46.1893    7.3351   10.7868 H   0  0  0  0  0  0  0  0  0  0  0  0
   45.6466    8.7481   12.7927 H   0  0  0  0  0  0  0  0  0  0  0  0
   45.4607    7.5417   13.8667 H   0  0  0  0  0  0  0  0  0  0  0  0
   47.9015    8.0505   12.3397 H   0  0  0  0  0  0  0  0  0  0  0  0
   43.8515    7.0843   11.5539 H   0  0  0  0  0  0  0  0  0  0  0  0
   46.7430    3.9357   12.1476 H   0  0  0  0  0  0  0  0  0  0  0  0
   48.3760    7.0161   14.4912 H   0  0  0  0  0  0  0  0  0  0  0  0
   48.6033    5.8178   13.2126 H   0  0  0  0  0  0  0  0  0  0  0  0
   47.1557    5.7646   14.2363 H   0  0  0  0  0  0  0  0  0  0  0  0
   42.0332    5.4966   12.0635 H   0  0  0  0  0  0  0  0  0  0  0  0
   44.9108    2.3631   12.6523 H   0  0  0  0  0  0  0  0  0  0  0  0
   42.5542    3.1354   12.6151 H   0  0  0  0  0  0  0  0  0  0  0  0
  4  2  1  0
  3  1  1  0
  4  1  1  0
  5  3  2  0
  6  3  1  0
  4  7  1  0
  8  5  1  0
  9  6  2  0
 10  8  2  0
  9 10  1  0
 12 11  2  0
 13 11  2  0
 14 11  1  0
 15 11  1  0
 19 17  1  0
 18 16  1  0
 19 16  1  0
 20 18  2  0
 21 18  1  0
 19 22  1  0
 23 20  1  0
 24 21  2  0
 25 23  2  0
 24 25  1  0
  1 26  1  0
  1 27  1  0
  2 28  1  0
  2 29  1  0
  4 30  1  6
  5 31  1  0
  6 32  1  0
  7 33  1  0
  7 34  1  0
  7 35  1  0
  8 36  1  0
  9 37  1  0
 10 38  1  0
 14 39  1  0
 15 40  1  0
 16 41  1  0
 16 42  1  0
 17 43  1  0
 17 44  1  0
 19 45  1  6
 20 46  1  0
 21 47  1  0
 22 48  1  0
 22 49  1  0
 22 50  1  0
 23 51  1  0
 24 52  1  0
 25 53  1  0
M  END
> <Uni-Dock RESULT> 
ENERGY=   -5.522  LOWER_BOUND=    2.688  UPPER_BOUND=    3.874
INTER + INTRA:          -5.522
INTER:                  -5.522
INTRA:                   0.000
UNBOUND:                 0.000

$$$$

     RDKit          3D

 53 52  0  0  0  0  0  0  0  0999 V2000
   49.1317    4.3279   18.0159 C   0  0  0  0  0  0  0  0  0  0  0  0
   47.2318    4.4408   16.4018 N   0  0  0  0  0  0  0  0  0  0  0  0
   48.6165    5.0716   19.2274 C   0  0  0  0  0  0  0  0  0  0  0  0
   48.0357    3.5519   17.2524 C   0  0  1  0  0  0  0  0  0  0  0  0
   47.9870    6.3152   19.0880 C   0  0  0  0  0  0  0  0  0  0  0  0
   48.7513    4.5209   20.5097 C   0  0  0  0  0  0  0  0  0  0  0  0
   48.6645    2.4684   16.3739 C   0  0  0  0  0  0  0  0  0  0  0  0
   47.5092    6.9984   20.2076 C   0  0  0  0  0  0  0  0  0  0  0  0
   48.2739    5.2056   21.6289 C   0  0  0  0  0  0  0  0  0  0  0  0
   47.6541    6.4444   21.4778 C   0  0  0  0  0  0  0  0  0  0  0  0
   48.5669    4.4052   18.7744 S   0  0  0  0  0  0  0  0  0  0  0  0
   49.7285    5.2112   19.0514 O   0  0  0  0  0  0  0  0  0  0  0  0
   48.4995    2.9857   19.0119 O   0  0  0  0  0  0  0  0  0  0  0  0
   47.3386    5.1038   19.5338 O   0  0  0  0  0  0  0  0  0  0  0  0
   48.1500    4.6288   17.2416 O   0  0  0  0  0  0  0  0  0  0  0  0
   47.1818    3.8569   17.8707 C   0  0  0  0  0  0  0  0  0  0  0  0
   48.6803    4.8926   16.1311 N   0  0  0  0  0  0  0  0  0  0  0  0
   47.6119    4.7195   19.0359 C   0  0  0  0  0  0  0  0  0  0  0  0
   48.2339    3.6423   16.7567 C   0  0  1  0  0  0  0  0  0  0  0  0
   47.3962    6.1048   19.0156 C   0  0  0  0  0  0  0  0  0  0  0  0
   48.2314    4.1483   20.1559 C   0  0  0  0  0  0  0  0  0  0  0  0
   49.4560    2.8582   17.2333 C   0  0  0  0  0  0  0  0  0  0  0  0
   47.7998    6.9016   20.0881 C   0  0  0  0  0  0  0  0  0  0  0  0
   48.6348    4.9464   21.2277 C   0  0  0  0  0  0  0  0  0  0  0  0
   48.4201    6.3226   21.1932 C   0  0  0  0  0  0  0  0  0  0  0  0
   49.9110    3.6291   18.3489 H   0  0  0  0  0  0  0  0  0  0  0  0
   49.6465    5.0328   17.3490 H   0  0  0  0  0  0  0  0  0  0  0  0
   47.8167    4.8433   15.6709 H   0  0  0  0  0  0  0  0  0  0  0  0
   46.5133    3.8973   15.9253 H   0  0  0  0  0  0  0  0  0  0  0  0
   47.3636    3.0654   17.9696 H   0  0  0  0  0  0  0  0  0  0  0  0
   47.8563    6.7526   18.1006 H   0  0  0  0  0  0  0  0  0  0  0  0
   49.2296    3.5540   20.6460 H   0  0  0  0  0  0  0  0  0  0  0  0
   49.3532    2.8974   15.6374 H   0  0  0  0  0  0  0  0  0  0  0  0
   47.8964    1.9047   15.8327 H   0  0  0  0  0  0  0  0  0  0  0  0
   49.2267    1.7540   16.9850 H   0  0  0  0  0  0  0  0  0  0  0  0
   47.0192    7.9605   20.0855 H   0  0  0  0  0  0  0  0  0  0  0  0
   48.3841    4.7710   22.6187 H   0  0  0  0  0  0  0  0  0  0  0  0
   47.2802    6.9761   22.3484 H   0  0  0  0  0  0  0  0  0  0  0  0
   47.5497    6.0576   19.6080 H   0  0  0  0  0  0  0  0  0  0  0  0
   47.5627    3.8858   16.9905 H   0  0  0  0  0  0  0  0  0  0  0  0
   46.8599    2.8795   18.2549 H   0  0  0  0  0  0  0  0  0  0  0  0
   46.2782    4.2981   17.4274 H   0  0  0  0  0  0  0  0  0  0  0  0
   47.8693    5.4438   15.8556 H   0  0  0  0  0  0  0  0  0  0  0  0
   49.1707    5.4539   16.8301 H   0  0  0  0  0  0  0  0  0  0  0  0
   47.7513    3.0461   15.9722 H   0  0  0  0  0  0  0  0  0  0  0  0
   46.9088    6.5734   18.1637 H   0  0  0  0  0  0  0  0  0  0  0  0
   48.4061    3.0756   20.2008 H   0  0  0  0  0  0  0  0  0  0  0  0
   50.1093    2.6096   16.3890 H   0  0  0  0  0  0  0  0  0  0  0  0
   49.1535    1.9166   17.7037 H   0  0  0  0  0  0  0  0  0  0  0  0
   50.0540    3.4240   17.9555 H   0  0  0  0  0  0  0  0  0  0  0  0
   47.6282    7.9746   20.0625 H   0  0  0  0  0  0  0  0  0  0  0  0
   49.1164    4.4934   22.0903 H   0  0  0  0  0  0  0  0  0  0  0  0
   48.7338    6.9431   22.0283 H   0  0  0  0  0  0  0  0  0  0  0  0
  4  2  1  0
  3  1  1  0
  4  1  1  0
  5  3  2  0
  6  3  1  0
  4  7  1  0
  8  5  1  0
  9  6  2  0
 10  8  2  0
  9 10  1  0
 12 11  2  0
 13 11  2  0
 14 11  1  0
 15 11  1  0
 19 17  1  0
 18 16  1  0
 19 16  1  0
 20 18  2  0
 21 18  1  0
 19 22  1  0
 23 20  1  0
 24 21  2  0
 25 23  2  0
 24 25  1  0
  1 26  1  0
  1 27  1  0
  2 28  1  0
  2 29  1  0
  4 30  1  6
  5 31  1  0
  6 32  1  0
  7 33  1  0
  7 34  1  0
  7 35  1  0
  8 36  1  0
  9 37  1  0
 10 38  1  0
 14 39  1  0
 15 40  1  0
 16 41  1  0
 16 42  1  0
 17 43  1  0
 17 44  1  0
 19 45  1  6
 20 46  1  0
 21 47  1  0
 22 48  1  0
 22 49  1  0
 22 50  1  0
 23 51  1  0
 24 52  1  0
 25 53  1  0
M  END
> <Uni-Dock RESULT> 
ENERGY=   -5.393  LOWER_BOUND=    8.151  UPPER_BOUND=   10.251
INTER + INTRA:          -5.393
INTER:                  -5.393
INTRA:                   0.000
UNBOUND:                 0.000

$$$$
