
     RDKit          3D

 53 52  0  0  0  0  0  0  0  0999 V2000
   43.4636    4.5889   10.7697 C   0  0  0  0  0  0  0  0  0  0  0  0
   44.8934    6.3263   11.8489 N   0  0  0  0  0  0  0  0  0  0  0  0
   44.4139    3.8725    9.8368 C   0  0  0  0  0  0  0  0  0  0  0  0
   44.1308    5.0895   12.0697 C   0  0  1  0  0  0  0  0  0  0  0  0
   44.4644    2.4716    9.8123 C   0  0  0  0  0  0  0  0  0  0  0  0
   45.2658    4.5952    8.9917 C   0  0  0  0  0  0  0  0  0  0  0  0
   43.0735    5.3501   13.1445 C   0  0  0  0  0  0  0  0  0  0  0  0
   45.3431    1.8091    8.9530 C   0  0  0  0  0  0  0  0  0  0  0  0
   46.1447    3.9317    8.1338 C   0  0  0  0  0  0  0  0  0  0  0  0
   46.1820    2.5390    8.1133 C   0  0  0  0  0  0  0  0  0  0  0  0
   44.5420    4.7399   10.4509 S   0  0  0  0  0  0  0  0  0  0  0  0
   45.7710    5.4522   10.6911 O   0  0  0  0  0  0  0  0  0  0  0  0
   43.3808    5.3279    9.8333 O   0  0  0  0  0  0  0  0  0  0  0  0
   44.0456    4.1059   11.8384 O   0  0  0  0  0  0  0  0  0  0  0  0
   44.9365    3.4185    9.6311 O   0  0  0  0  0  0  0  0  0  0  0  0
   45.2923    4.1600   11.8026 C   0  0  0  0  0  0  0  0  0  0  0  0
   44.4701    6.5282   11.9437 N   0  0  0  0  0  0  0  0  0  0  0  0
   45.1339    3.8091   10.3403 C   0  0  0  0  0  0  0  0  0  0  0  0
   44.2608    5.1480   12.3971 C   0  0  1  0  0  0  0  0  0  0  0  0
   44.6862    2.5351    9.9611 C   0  0  0  0  0  0  0  0  0  0  0  0
   45.4378    4.7413    9.3397 C   0  0  0  0  0  0  0  0  0  0  0  0
   42.8147    4.7304   12.1341 C   0  0  0  0  0  0  0  0  0  0  0  0
   44.5439    2.2039    8.6122 C   0  0  0  0  0  0  0  0  0  0  0  0
   45.2945    4.4097    7.9912 C   0  0  0  0  0  0  0  0  0  0  0  0
   44.8482    3.1411    7.6275 C   0  0  0  0  0  0  0  0  0  0  0  0
   42.6449    3.9006   11.0193 H   0  0  0  0  0  0  0  0  0  0  0  0
   42.9847    5.4190   10.2327 H   0  0  0  0  0  0  0  0  0  0  0  0
   44.2620    7.0792   11.5790 H   0  0  0  0  0  0  0  0  0  0  0  0
   45.3284    6.6183   12.7231 H   0  0  0  0  0  0  0  0  0  0  0  0
   44.8213    4.3248   12.4456 H   0  0  0  0  0  0  0  0  0  0  0  0
   43.8192    1.8861   10.4626 H   0  0  0  0  0  0  0  0  0  0  0  0
   45.2555    5.6828    9.0073 H   0  0  0  0  0  0  0  0  0  0  0  0
   43.5349    5.6982   14.0755 H   0  0  0  0  0  0  0  0  0  0  0  0
   42.3491    6.1062   12.8210 H   0  0  0  0  0  0  0  0  0  0  0  0
   42.5222    4.4320   13.3746 H   0  0  0  0  0  0  0  0  0  0  0  0
   45.3741    0.7230    8.9406 H   0  0  0  0  0  0  0  0  0  0  0  0
   46.8031    4.5039    7.4861 H   0  0  0  0  0  0  0  0  0  0  0  0
   46.8676    2.0235    7.4465 H   0  0  0  0  0  0  0  0  0  0  0  0
   43.0982    3.8811   11.7307 H   0  0  0  0  0  0  0  0  0  0  0  0
   45.8605    3.1964    9.8686 H   0  0  0  0  0  0  0  0  0  0  0  0
   45.2522    3.2343   12.3932 H   0  0  0  0  0  0  0  0  0  0  0  0
   46.3085    4.5478   11.9568 H   0  0  0  0  0  0  0  0  0  0  0  0
   43.7956    7.1442   12.3952 H   0  0  0  0  0  0  0  0  0  0  0  0
   45.3941    6.8467   12.2308 H   0  0  0  0  0  0  0  0  0  0  0  0
   44.4118    5.1492   13.4843 H   0  0  0  0  0  0  0  0  0  0  0  0
   44.4423    1.7904   10.7151 H   0  0  0  0  0  0  0  0  0  0  0  0
   45.7808    5.7382    9.6070 H   0  0  0  0  0  0  0  0  0  0  0  0
   42.5559    4.7915   11.0714 H   0  0  0  0  0  0  0  0  0  0  0  0
   42.1182    5.3763   12.6808 H   0  0  0  0  0  0  0  0  0  0  0  0
   42.6418    3.7021   12.4690 H   0  0  0  0  0  0  0  0  0  0  0  0
   44.1944    1.2143    8.3305 H   0  0  0  0  0  0  0  0  0  0  0  0
   45.5285    5.1450    7.2262 H   0  0  0  0  0  0  0  0  0  0  0  0
   44.7356    2.8846    6.5778 H   0  0  0  0  0  0  0  0  0  0  0  0
  4  2  1  0
  3  1  1  0
  4  1  1  0
  5  3  2  0
  6  3  1  0
  4  7  1  0
  8  5  1  0
  9  6  2  0
 10  8  2  0
  9 10  1  0
 12 11  2  0
 13 11  2  0
 14 11  1  0
 15 11  1  0
 19 17  1  0
 18 16  1  0
 19 16  1  0
 20 18  2  0
 21 18  1  0
 19 22  1  0
 23 20  1  0
 24 21  2  0
 25 23  2  0
 24 25  1  0
  1 26  1  0
  1 27  1  0
  2 28  1  0
  2 29  1  0
  4 30  1  6
  5 31  1  0
  6 32  1  0
  7 33  1  0
  7 34  1  0
  7 35  1  0
  8 36  1  0
  9 37  1  0
 10 38  1  0
 14 39  1  0
 15 40  1  0
 16 41  1  0
 16 42  1  0
 17 43  1  0
 17 44  1  0
 19 45  1  6
 20 46  1  0
 21 47  1  0
 22 48  1  0
 22 49  1  0
 22 50  1  0
 23 51  1  0
 24 52  1  0
 25 53  1  0
M  END
> <Uni-Dock RESULT> 
ENERGY=   -6.139  LOWER_BOUND=    0.000  UPPER_BOUND=    0.000
INTER + INTRA:          -6.139
INTER:                  -6.139
INTRA:                   0.000
UNBOUND:                 0.000

$$$$

     RDKit          3D

 53 52  0  0  0  0  0  0  0  0999 V2000
   45.0551    4.7397   11.4176 C   0  0  0  0  0  0  0  0  0  0  0  0
   42.6493    5.0354   12.0112 N   0  0  0  0  0  0  0  0  0  0  0  0
   45.7537    5.8262   12.2036 C   0  0  0  0  0  0  0  0  0  0  0  0
   43.8186    4.1536   12.1341 C   0  0  1  0  0  0  0  0  0  0  0  0
   46.8970    5.5326   12.9602 C   0  0  0  0  0  0  0  0  0  0  0  0
   45.2646    7.1389   12.1981 C   0  0  0  0  0  0  0  0  0  0  0  0
   43.4642    2.7844   11.5503 C   0  0  0  0  0  0  0  0  0  0  0  0
   47.5415    6.5346   13.6882 C   0  0  0  0  0  0  0  0  0  0  0  0
   45.9093    8.1395   12.9272 C   0  0  0  0  0  0  0  0  0  0  0  0
   47.0484    7.8378   13.6707 C   0  0  0  0  0  0  0  0  0  0  0  0
   44.7152    5.6040   12.0693 S   0  0  0  0  0  0  0  0  0  0  0  0
   43.6058    6.2287   12.7434 O   0  0  0  0  0  0  0  0  0  0  0  0
   44.9099    5.6383   10.6422 O   0  0  0  0  0  0  0  0  0  0  0  0
   44.7610    4.0584   12.4961 O   0  0  0  0  0  0  0  0  0  0  0  0
   46.0450    6.1588   12.7745 O   0  0  0  0  0  0  0  0  0  0  0  0
   44.3130    4.7573   13.4285 C   0  0  0  0  0  0  0  0  0  0  0  0
   42.5826    4.7843   11.6094 N   0  0  0  0  0  0  0  0  0  0  0  0
   45.3303    5.7799   12.9746 C   0  0  0  0  0  0  0  0  0  0  0  0
   43.5754    3.9696   12.3199 C   0  0  1  0  0  0  0  0  0  0  0  0
   46.7014    5.5436   13.1525 C   0  0  0  0  0  0  0  0  0  0  0  0
   44.9259    6.9814   12.3785 C   0  0  0  0  0  0  0  0  0  0  0  0
   44.5269    3.3208   11.3156 C   0  0  0  0  0  0  0  0  0  0  0  0
   47.6446    6.4871   12.7407 C   0  0  0  0  0  0  0  0  0  0  0  0
   45.8697    7.9239   11.9662 C   0  0  0  0  0  0  0  0  0  0  0  0
   47.2287    7.6771   12.1478 C   0  0  0  0  0  0  0  0  0  0  0  0
   45.7801    3.9379   11.2227 H   0  0  0  0  0  0  0  0  0  0  0  0
   44.7840    5.1264   10.4258 H   0  0  0  0  0  0  0  0  0  0  0  0
   42.3694    5.1056   11.0338 H   0  0  0  0  0  0  0  0  0  0  0  0
   41.8590    4.6234   12.5054 H   0  0  0  0  0  0  0  0  0  0  0  0
   44.0393    4.0254   13.2007 H   0  0  0  0  0  0  0  0  0  0  0  0
   47.2939    4.5208   12.9877 H   0  0  0  0  0  0  0  0  0  0  0  0
   44.3689    7.3848   11.6320 H   0  0  0  0  0  0  0  0  0  0  0  0
   42.5928    2.3535   12.0561 H   0  0  0  0  0  0  0  0  0  0  0  0
   43.2378    2.8500   10.4801 H   0  0  0  0  0  0  0  0  0  0  0  0
   44.2966    2.0837   11.6763 H   0  0  0  0  0  0  0  0  0  0  0  0
   48.4276    6.2974   14.2708 H   0  0  0  0  0  0  0  0  0  0  0  0
   45.5176    9.1529   12.9178 H   0  0  0  0  0  0  0  0  0  0  0  0
   47.5484    8.6169   14.2393 H   0  0  0  0  0  0  0  0  0  0  0  0
   45.3144    3.5925   11.8356 H   0  0  0  0  0  0  0  0  0  0  0  0
   45.8060    6.3981   13.6939 H   0  0  0  0  0  0  0  0  0  0  0  0
   44.8126    4.0303   14.0836 H   0  0  0  0  0  0  0  0  0  0  0  0
   43.5812    5.2612   14.0746 H   0  0  0  0  0  0  0  0  0  0  0  0
   42.0959    4.2108   10.9220 H   0  0  0  0  0  0  0  0  0  0  0  0
   41.8772    5.1144   12.2659 H   0  0  0  0  0  0  0  0  0  0  0  0
   43.0209    3.1638   12.8178 H   0  0  0  0  0  0  0  0  0  0  0  0
   47.0457    4.6202   13.6120 H   0  0  0  0  0  0  0  0  0  0  0  0
   43.8692    7.1864   12.2232 H   0  0  0  0  0  0  0  0  0  0  0  0
   45.0553    4.0649   10.7099 H   0  0  0  0  0  0  0  0  0  0  0  0
   43.9790    2.6654   10.6289 H   0  0  0  0  0  0  0  0  0  0  0  0
   45.2737    2.7071   11.8307 H   0  0  0  0  0  0  0  0  0  0  0  0
   48.7043    6.2923   12.8820 H   0  0  0  0  0  0  0  0  0  0  0  0
   45.5415    8.8490   11.5000 H   0  0  0  0  0  0  0  0  0  0  0  0
   47.9624    8.4106   11.8252 H   0  0  0  0  0  0  0  0  0  0  0  0
  4  2  1  0
  3  1  1  0
  4  1  1  0
  5  3  2  0
  6  3  1  0
  4  7  1  0
  8  5  1  0
  9  6  2  0
 10  8  2  0
  9 10  1  0
 12 11  2  0
 13 11  2  0
 14 11  1  0
 15 11  1  0
 19 17  1  0
 18 16  1  0
 19 16  1  0
 20 18  2  0
 21 18  1  0
 19 22  1  0
 23 20  1  0
 24 21  2  0
 25 23  2  0
 24 25  1  0
  1 26  1  0
  1 27  1  0
  2 28  1  0
  2 29  1  0
  4 30  1  6
  5 31  1  0
  6 32  1  0
  7 33  1  0
  7 34  1  0
  7 35  1  0
  8 36  1  0
  9 37  1  0
 10 38  1  0
 14 39  1  0
 15 40  1  0
 16 41  1  0
 16 42  1  0
 17 43  1  0
 17 44  1  0
 19 45  1  6
 20 46  1  0
 21 47  1  0
 22 48  1  0
 22 49  1  0
 22 50  1  0
 23 51  1  0
 24 52  1  0
 25 53  1  0
M  END
> <Uni-Dock RESULT> 
ENERGY=   -6.041  LOWER_BOUND=    2.387  UPPER_BOUND=    4.222
INTER + INTRA:          -6.041
INTER:                  -6.041
INTRA:                   0.000
UNBOUND:                 0.000

$$$$

     RDKit          3D

 53 52  0  0  0  0  0  0  0  0999 V2000
   44.7038    4.3178    8.9576 C   0  0  0  0  0  0  0  0  0  0  0  0
   44.2007    1.8926    9.2623 N   0  0  0  0  0  0  0  0  0  0  0  0
   44.4670    4.9075   10.3296 C   0  0  0  0  0  0  0  0  0  0  0  0
   45.2580    2.8764    8.9895 C   0  0  1  0  0  0  0  0  0  0  0  0
   45.4116    5.7687   10.9057 C   0  0  0  0  0  0  0  0  0  0  0  0
   43.3077    4.5947   11.0512 C   0  0  0  0  0  0  0  0  0  0  0  0
   45.9177    2.5299    7.6532 C   0  0  0  0  0  0  0  0  0  0  0  0
   45.1951    6.3119   12.1735 C   0  0  0  0  0  0  0  0  0  0  0  0
   43.0929    5.1376   12.3192 C   0  0  0  0  0  0  0  0  0  0  0  0
   44.0355    5.9973   12.8794 C   0  0  0  0  0  0  0  0  0  0  0  0
   44.3052    3.9223    9.9435 S   0  0  0  0  0  0  0  0  0  0  0  0
   43.9144    2.7559   10.6933 O   0  0  0  0  0  0  0  0  0  0  0  0
   43.5233    4.4883    8.8740 O   0  0  0  0  0  0  0  0  0  0  0  0
   45.7737    3.6723    9.3482 O   0  0  0  0  0  0  0  0  0  0  0  0
   44.6000    5.0752   11.0193 O   0  0  0  0  0  0  0  0  0  0  0  0
   45.6362    3.0800   10.4386 C   0  0  0  0  0  0  0  0  0  0  0  0
   44.1553    1.9050    8.7862 N   0  0  0  0  0  0  0  0  0  0  0  0
   44.8313    4.2936   10.8457 C   0  0  0  0  0  0  0  0  0  0  0  0
   45.4463    2.5730    8.9893 C   0  0  1  0  0  0  0  0  0  0  0  0
   45.4621    5.5320   11.0353 C   0  0  0  0  0  0  0  0  0  0  0  0
   43.4482    4.2044   11.0494 C   0  0  0  0  0  0  0  0  0  0  0  0
   45.6304    3.6722    7.9440 C   0  0  0  0  0  0  0  0  0  0  0  0
   44.7246    6.6544   11.4172 C   0  0  0  0  0  0  0  0  0  0  0  0
   42.7113    5.3274   11.4304 C   0  0  0  0  0  0  0  0  0  0  0  0
   43.3494    6.5519   11.6148 C   0  0  0  0  0  0  0  0  0  0  0  0
   45.4073    4.9692    8.4216 H   0  0  0  0  0  0  0  0  0  0  0  0
   43.7726    4.3646    8.3767 H   0  0  0  0  0  0  0  0  0  0  0  0
   43.5246    1.8900    8.4999 H   0  0  0  0  0  0  0  0  0  0  0  0
   44.6048    0.9574    9.2885 H   0  0  0  0  0  0  0  0  0  0  0  0
   46.0151    2.7919    9.7784 H   0  0  0  0  0  0  0  0  0  0  0  0
   46.3232    6.0227   10.3705 H   0  0  0  0  0  0  0  0  0  0  0  0
   42.5702    3.9149   10.6305 H   0  0  0  0  0  0  0  0  0  0  0  0
   46.3227    1.5118    7.6655 H   0  0  0  0  0  0  0  0  0  0  0  0
   45.2063    2.6024    6.8227 H   0  0  0  0  0  0  0  0  0  0  0  0
   46.7495    3.2116    7.4449 H   0  0  0  0  0  0  0  0  0  0  0  0
   45.9326    6.9792   12.6110 H   0  0  0  0  0  0  0  0  0  0  0  0
   42.1915    4.8840   12.8703 H   0  0  0  0  0  0  0  0  0  0  0  0
   43.8683    6.4179   13.8670 H   0  0  0  0  0  0  0  0  0  0  0  0
   45.9074    4.3214    8.6268 H   0  0  0  0  0  0  0  0  0  0  0  0
   44.8695    4.6325   11.8506 H   0  0  0  0  0  0  0  0  0  0  0  0
   46.7030    3.3007   10.5819 H   0  0  0  0  0  0  0  0  0  0  0  0
   45.4197    2.2683   11.1466 H   0  0  0  0  0  0  0  0  0  0  0  0
   44.0972    1.5525    7.8319 H   0  0  0  0  0  0  0  0  0  0  0  0
   44.0880    1.0955    9.4008 H   0  0  0  0  0  0  0  0  0  0  0  0
   46.2216    1.8163    8.8131 H   0  0  0  0  0  0  0  0  0  0  0  0
   46.5344    5.6324   10.8846 H   0  0  0  0  0  0  0  0  0  0  0  0
   42.9338    3.2575   10.9029 H   0  0  0  0  0  0  0  0  0  0  0  0
   44.8363    4.4251    7.9947 H   0  0  0  0  0  0  0  0  0  0  0  0
   45.6218    3.2514    6.9321 H   0  0  0  0  0  0  0  0  0  0  0  0
   46.5913    4.1797    8.0811 H   0  0  0  0  0  0  0  0  0  0  0  0
   45.2238    7.6090   11.5593 H   0  0  0  0  0  0  0  0  0  0  0  0
   41.6381    5.2444   11.5791 H   0  0  0  0  0  0  0  0  0  0  0  0
   42.7748    7.4255   11.9097 H   0  0  0  0  0  0  0  0  0  0  0  0
  4  2  1  0
  3  1  1  0
  4  1  1  0
  5  3  2  0
  6  3  1  0
  4  7  1  0
  8  5  1  0
  9  6  2  0
 10  8  2  0
  9 10  1  0
 12 11  2  0
 13 11  2  0
 14 11  1  0
 15 11  1  0
 19 17  1  0
 18 16  1  0
 19 16  1  0
 20 18  2  0
 21 18  1  0
 19 22  1  0
 23 20  1  0
 24 21  2  0
 25 23  2  0
 24 25  1  0
  1 26  1  0
  1 27  1  0
  2 28  1  0
  2 29  1  0
  4 30  1  6
  5 31  1  0
  6 32  1  0
  7 33  1  0
  7 34  1  0
  7 35  1  0
  8 36  1  0
  9 37  1  0
 10 38  1  0
 14 39  1  0
 15 40  1  0
 16 41  1  0
 16 42  1  0
 17 43  1  0
 17 44  1  0
 19 45  1  6
 20 46  1  0
 21 47  1  0
 22 48  1  0
 22 49  1  0
 22 50  1  0
 23 51  1  0
 24 52  1  0
 25 53  1  0
M  END
> <Uni-Dock RESULT> 
ENERGY=   -5.858  LOWER_BOUND=    1.858  UPPER_BOUND=    4.088
INTER + INTRA:          -5.858
INTER:                  -5.858
INTRA:                   0.000
UNBOUND:                 0.000

$$$$

     RDKit          3D

 53 52  0  0  0  0  0  0  0  0999 V2000
   45.1508    7.6023   12.0698 C   0  0  0  0  0  0  0  0  0  0  0  0
   47.6162    7.3690   11.7624 N   0  0  0  0  0  0  0  0  0  0  0  0
   44.6379    6.1862   11.9352 C   0  0  0  0  0  0  0  0  0  0  0  0
   46.5493    7.6961   12.7187 C   0  0  1  0  0  0  0  0  0  0  0  0
   43.7370    5.6645   12.8744 C   0  0  0  0  0  0  0  0  0  0  0  0
   45.0624    5.3700   10.8788 C   0  0  0  0  0  0  0  0  0  0  0  0
   46.7912    9.1064   13.2605 C   0  0  0  0  0  0  0  0  0  0  0  0
   43.2646    4.3563   12.7524 C   0  0  0  0  0  0  0  0  0  0  0  0
   44.5902    4.0619   10.7586 C   0  0  0  0  0  0  0  0  0  0  0  0
   43.6902    3.5558   11.6942 C   0  0  0  0  0  0  0  0  0  0  0  0
   45.6149    6.6025   11.8007 S   0  0  0  0  0  0  0  0  0  0  0  0
   46.8367    5.8761   11.5666 O   0  0  0  0  0  0  0  0  0  0  0  0
   45.0611    7.5605   10.8781 O   0  0  0  0  0  0  0  0  0  0  0  0
   45.7346    7.3513   13.2144 O   0  0  0  0  0  0  0  0  0  0  0  0
   44.4904    5.5056   12.1264 O   0  0  0  0  0  0  0  0  0  0  0  0
   46.3807    6.2831   13.2282 C   0  0  0  0  0  0  0  0  0  0  0  0
   47.5870    7.8372   11.6680 N   0  0  0  0  0  0  0  0  0  0  0  0
   45.2456    5.7394   12.3902 C   0  0  0  0  0  0  0  0  0  0  0  0
   46.8382    7.7298   12.9258 C   0  0  1  0  0  0  0  0  0  0  0  0
   43.9747    5.5522   12.9534 C   0  0  0  0  0  0  0  0  0  0  0  0
   45.4413    5.4048   11.0439 C   0  0  0  0  0  0  0  0  0  0  0  0
   45.6855    8.7328   12.9292 C   0  0  0  0  0  0  0  0  0  0  0  0
   42.9246    5.0447   12.1857 C   0  0  0  0  0  0  0  0  0  0  0  0
   44.3906    4.8983   10.2768 C   0  0  0  0  0  0  0  0  0  0  0  0
   43.1328    4.7177   10.8476 C   0  0  0  0  0  0  0  0  0  0  0  0
   44.4290    8.1723   12.6703 H   0  0  0  0  0  0  0  0  0  0  0  0
   45.1456    8.0854   11.0832 H   0  0  0  0  0  0  0  0  0  0  0  0
   47.6346    8.0602   11.0139 H   0  0  0  0  0  0  0  0  0  0  0  0
   48.5207    7.4289   12.2282 H   0  0  0  0  0  0  0  0  0  0  0  0
   46.6131    6.9908   13.5562 H   0  0  0  0  0  0  0  0  0  0  0  0
   43.3965    6.2738   13.7079 H   0  0  0  0  0  0  0  0  0  0  0  0
   45.7744    5.7489   10.1490 H   0  0  0  0  0  0  0  0  0  0  0  0
   47.7777    9.1842   13.7314 H   0  0  0  0  0  0  0  0  0  0  0  0
   46.7343    9.8580   12.4651 H   0  0  0  0  0  0  0  0  0  0  0  0
   46.0441    9.3619   14.0197 H   0  0  0  0  0  0  0  0  0  0  0  0
   42.5657    3.9614   13.4848 H   0  0  0  0  0  0  0  0  0  0  0  0
   44.9302    3.4377    9.9368 H   0  0  0  0  0  0  0  0  0  0  0  0
   43.3246    2.5370   11.6008 H   0  0  0  0  0  0  0  0  0  0  0  0
   45.0478    8.0495   13.2306 H   0  0  0  0  0  0  0  0  0  0  0  0
   44.9477    4.7277   12.5078 H   0  0  0  0  0  0  0  0  0  0  0  0
   46.0912    6.2351   14.2870 H   0  0  0  0  0  0  0  0  0  0  0  0
   47.2350    5.5980   13.1392 H   0  0  0  0  0  0  0  0  0  0  0  0
   47.9021    8.7973   11.5366 H   0  0  0  0  0  0  0  0  0  0  0  0
   48.4245    7.2594   11.7175 H   0  0  0  0  0  0  0  0  0  0  0  0
   47.5299    8.0186   13.7277 H   0  0  0  0  0  0  0  0  0  0  0  0
   43.7923    5.8029   13.9957 H   0  0  0  0  0  0  0  0  0  0  0  0
   46.4153    5.5463   10.5813 H   0  0  0  0  0  0  0  0  0  0  0  0
   44.9938    8.5670   12.0962 H   0  0  0  0  0  0  0  0  0  0  0  0
   46.0627    9.7584   12.8455 H   0  0  0  0  0  0  0  0  0  0  0  0
   45.1174    8.6663   13.8632 H   0  0  0  0  0  0  0  0  0  0  0  0
   41.9438    4.9058   12.6324 H   0  0  0  0  0  0  0  0  0  0  0  0
   44.5557    4.6487    9.2322 H   0  0  0  0  0  0  0  0  0  0  0  0
   42.3154    4.3249   10.2493 H   0  0  0  0  0  0  0  0  0  0  0  0
  4  2  1  0
  3  1  1  0
  4  1  1  0
  5  3  2  0
  6  3  1  0
  4  7  1  0
  8  5  1  0
  9  6  2  0
 10  8  2  0
  9 10  1  0
 12 11  2  0
 13 11  2  0
 14 11  1  0
 15 11  1  0
 19 17  1  0
 18 16  1  0
 19 16  1  0
 20 18  2  0
 21 18  1  0
 19 22  1  0
 23 20  1  0
 24 21  2  0
 25 23  2  0
 24 25  1  0
  1 26  1  0
  1 27  1  0
  2 28  1  0
  2 29  1  0
  4 30  1  6
  5 31  1  0
  6 32  1  0
  7 33  1  0
  7 34  1  0
  7 35  1  0
  8 36  1  0
  9 37  1  0
 10 38  1  0
 14 39  1  0
 15 40  1  0
 16 41  1  0
 16 42  1  0
 17 43  1  0
 17 44  1  0
 19 45  1  6
 20 46  1  0
 21 47  1  0
 22 48  1  0
 22 49  1  0
 22 50  1  0
 23 51  1  0
 24 52  1  0
 25 53  1  0
M  END
> <Uni-Dock RESULT> 
ENERGY=   -5.653  LOWER_BOUND=    2.313  UPPER_BOUND=    3.625
INTER + INTRA:          -5.653
INTER:                  -5.653
INTRA:                   0.000
UNBOUND:                 0.000

$$$$

     RDKit          3D

 53 52  0  0  0  0  0  0  0  0999 V2000
   45.2784    4.7628   11.4832 C   0  0  0  0  0  0  0  0  0  0  0  0
   43.0869    4.5077   12.6492 N   0  0  0  0  0  0  0  0  0  0  0  0
   45.0689    4.0479   10.1674 C   0  0  0  0  0  0  0  0  0  0  0  0
   44.0091    5.4621   12.0178 C   0  0  1  0  0  0  0  0  0  0  0  0
   45.4462    4.6547    8.9610 C   0  0  0  0  0  0  0  0  0  0  0  0
   44.4852    2.7750   10.1309 C   0  0  0  0  0  0  0  0  0  0  0  0
   44.3837    6.5342   13.0430 C   0  0  0  0  0  0  0  0  0  0  0  0
   45.2510    3.9964    7.7453 C   0  0  0  0  0  0  0  0  0  0  0  0
   44.2896    2.1184    8.9147 C   0  0  0  0  0  0  0  0  0  0  0  0
   44.6741    2.7282    7.7224 C   0  0  0  0  0  0  0  0  0  0  0  0
   44.4449    4.1388   11.0323 S   0  0  0  0  0  0  0  0  0  0  0  0
   43.0812    3.6930   11.1622 O   0  0  0  0  0  0  0  0  0  0  0  0
   45.5298    3.6513   11.8453 O   0  0  0  0  0  0  0  0  0  0  0  0
   44.4682    5.7380   11.1568 O   0  0  0  0  0  0  0  0  0  0  0  0
   44.8411    3.9432    9.4901 O   0  0  0  0  0  0  0  0  0  0  0  0
   43.3989    5.3544   10.6392 C   0  0  0  0  0  0  0  0  0  0  0  0
   43.3505    4.6074   13.0358 N   0  0  0  0  0  0  0  0  0  0  0  0
   44.2570    4.3148    9.9541 C   0  0  0  0  0  0  0  0  0  0  0  0
   43.7418    5.6790   12.1125 C   0  0  1  0  0  0  0  0  0  0  0  0
   45.1744    4.6936    8.9631 C   0  0  0  0  0  0  0  0  0  0  0  0
   44.1475    2.9584   10.2871 C   0  0  0  0  0  0  0  0  0  0  0  0
   45.2151    6.0278   12.3189 C   0  0  0  0  0  0  0  0  0  0  0  0
   45.9649    3.7370    8.3230 C   0  0  0  0  0  0  0  0  0  0  0  0
   44.9388    2.0026    9.6473 C   0  0  0  0  0  0  0  0  0  0  0  0
   45.8469    2.3917    8.6651 C   0  0  0  0  0  0  0  0  0  0  0  0
   46.0760    5.5055   11.3461 H   0  0  0  0  0  0  0  0  0  0  0  0
   45.6734    4.0532   12.2229 H   0  0  0  0  0  0  0  0  0  0  0  0
   43.5220    4.1004   13.4757 H   0  0  0  0  0  0  0  0  0  0  0  0
   42.2581    5.0018   12.9772 H   0  0  0  0  0  0  0  0  0  0  0  0
   43.4819    5.9491   11.1885 H   0  0  0  0  0  0  0  0  0  0  0  0
   45.8951    5.6449    8.9598 H   0  0  0  0  0  0  0  0  0  0  0  0
   44.1690    2.2934   11.0536 H   0  0  0  0  0  0  0  0  0  0  0  0
   43.4918    7.0441   13.4243 H   0  0  0  0  0  0  0  0  0  0  0  0
   44.9203    6.1045   13.8965 H   0  0  0  0  0  0  0  0  0  0  0  0
   45.0276    7.2950   12.5886 H   0  0  0  0  0  0  0  0  0  0  0  0
   45.5478    4.4746    6.8157 H   0  0  0  0  0  0  0  0  0  0  0  0
   43.8321    1.1330    8.8997 H   0  0  0  0  0  0  0  0  0  0  0  0
   44.5198    2.2172    6.7762 H   0  0  0  0  0  0  0  0  0  0  0  0
   45.3917    5.9991   11.3533 H   0  0  0  0  0  0  0  0  0  0  0  0
   44.0134    4.0030    8.9695 H   0  0  0  0  0  0  0  0  0  0  0  0
   43.4540    6.2900   10.0658 H   0  0  0  0  0  0  0  0  0  0  0  0
   42.3489    5.0400   10.5637 H   0  0  0  0  0  0  0  0  0  0  0  0
   43.5569    4.8868   13.9938 H   0  0  0  0  0  0  0  0  0  0  0  0
   42.3435    4.4620   12.9849 H   0  0  0  0  0  0  0  0  0  0  0  0
   43.1514    6.5620   12.3891 H   0  0  0  0  0  0  0  0  0  0  0  0
   45.2820    5.7389    8.6832 H   0  0  0  0  0  0  0  0  0  0  0  0
   43.4484    2.6389   11.0566 H   0  0  0  0  0  0  0  0  0  0  0  0
   45.8693    5.1656   12.1500 H   0  0  0  0  0  0  0  0  0  0  0  0
   45.3913    6.3802   13.3416 H   0  0  0  0  0  0  0  0  0  0  0  0
   45.5225    6.8283   11.6375 H   0  0  0  0  0  0  0  0  0  0  0  0
   46.6736    4.0425    7.5581 H   0  0  0  0  0  0  0  0  0  0  0  0
   44.8471    0.9549    9.9201 H   0  0  0  0  0  0  0  0  0  0  0  0
   46.4634    1.6473    8.1690 H   0  0  0  0  0  0  0  0  0  0  0  0
  4  2  1  0
  3  1  1  0
  4  1  1  0
  5  3  2  0
  6  3  1  0
  4  7  1  0
  8  5  1  0
  9  6  2  0
 10  8  2  0
  9 10  1  0
 12 11  2  0
 13 11  2  0
 14 11  1  0
 15 11  1  0
 19 17  1  0
 18 16  1  0
 19 16  1  0
 20 18  2  0
 21 18  1  0
 19 22  1  0
 23 20  1  0
 24 21  2  0
 25 23  2  0
 24 25  1  0
  1 26  1  0
  1 27  1  0
  2 28  1  0
  2 29  1  0
  4 30  1  6
  5 31  1  0
  6 32  1  0
  7 33  1  0
  7 34  1  0
  7 35  1  0
  8 36  1  0
  9 37  1  0
 10 38  1  0
 14 39  1  0
 15 40  1  0
 16 41  1  0
 16 42  1  0
 17 43  1  0
 17 44  1  0
 19 45  1  6
 20 46  1  0
 21 47  1  0
 22 48  1  0
 22 49  1  0
 22 50  1  0
 23 51  1  0
 24 52  1  0
 25 53  1  0
M  END
> <Uni-Dock RESULT> 
ENERGY=   -5.487  LOWER_BOUND=    1.060  UPPER_BOUND=    2.174
INTER + INTRA:          -5.487
INTER:                  -5.487
INTRA:                   0.000
UNBOUND:                 0.000

$$$$

     RDKit          3D

 53 52  0  0  0  0  0  0  0  0999 V2000
   46.7310    6.1987   12.4980 C   0  0  0  0  0  0  0  0  0  0  0  0
   46.1767    8.4183   13.4949 N   0  0  0  0  0  0  0  0  0  0  0  0
   45.3934    5.6741   12.0268 C   0  0  0  0  0  0  0  0  0  0  0  0
   46.8669    7.7337   12.3926 C   0  0  1  0  0  0  0  0  0  0  0  0
   45.2529    5.1423   10.7371 C   0  0  0  0  0  0  0  0  0  0  0  0
   44.2721    5.7211   12.8652 C   0  0  0  0  0  0  0  0  0  0  0  0
   48.3418    8.1400   12.4094 C   0  0  0  0  0  0  0  0  0  0  0  0
   44.0178    4.6597   10.3002 C   0  0  0  0  0  0  0  0  0  0  0  0
   43.0375    5.2393   12.4268 C   0  0  0  0  0  0  0  0  0  0  0  0
   42.9108    4.7072   11.1453 C   0  0  0  0  0  0  0  0  0  0  0  0
   45.6551    6.5480   12.5868 S   0  0  0  0  0  0  0  0  0  0  0  0
   44.7748    7.6220   12.9700 O   0  0  0  0  0  0  0  0  0  0  0  0
   46.3604    5.7140   13.5263 O   0  0  0  0  0  0  0  0  0  0  0  0
   46.7601    7.1338   11.5821 O   0  0  0  0  0  0  0  0  0  0  0  0
   44.8136    5.6011   11.6025 O   0  0  0  0  0  0  0  0  0  0  0  0
   45.6817    7.7497   11.4548 C   0  0  0  0  0  0  0  0  0  0  0  0
   46.5990    8.3578   13.7115 N   0  0  0  0  0  0  0  0  0  0  0  0
   45.0368    6.4004   11.6786 C   0  0  0  0  0  0  0  0  0  0  0  0
   46.9294    8.0753   12.3096 C   0  0  1  0  0  0  0  0  0  0  0  0
   45.1449    5.3930   10.7086 C   0  0  0  0  0  0  0  0  0  0  0  0
   44.3148    6.1333   12.8491 C   0  0  0  0  0  0  0  0  0  0  0  0
   48.0008    6.9882   12.2392 C   0  0  0  0  0  0  0  0  0  0  0  0
   44.5463    4.1474   10.9076 C   0  0  0  0  0  0  0  0  0  0  0  0
   43.7173    4.8873   13.0477 C   0  0  0  0  0  0  0  0  0  0  0  0
   43.8325    3.8948   12.0770 C   0  0  0  0  0  0  0  0  0  0  0  0
   47.5171    5.7191   11.8992 H   0  0  0  0  0  0  0  0  0  0  0  0
   46.9109    5.8612   13.5277 H   0  0  0  0  0  0  0  0  0  0  0  0
   46.6205    8.1823   14.3814 H   0  0  0  0  0  0  0  0  0  0  0  0
   46.2770    9.4265   13.3851 H   0  0  0  0  0  0  0  0  0  0  0  0
   46.4268    8.0769   11.4484 H   0  0  0  0  0  0  0  0  0  0  0  0
   46.1052    5.1000   10.0634 H   0  0  0  0  0  0  0  0  0  0  0  0
   44.3547    6.1457   13.8632 H   0  0  0  0  0  0  0  0  0  0  0  0
   48.4525    9.2271   12.3268 H   0  0  0  0  0  0  0  0  0  0  0  0
   48.8374    7.8173   13.3320 H   0  0  0  0  0  0  0  0  0  0  0  0
   48.8759    7.6907   11.5652 H   0  0  0  0  0  0  0  0  0  0  0  0
   43.9192    4.2485    9.2992 H   0  0  0  0  0  0  0  0  0  0  0  0
   42.1745    5.2850   13.0853 H   0  0  0  0  0  0  0  0  0  0  0  0
   41.9491    4.3341   10.8044 H   0  0  0  0  0  0  0  0  0  0  0  0
   47.4985    6.4905   11.5578 H   0  0  0  0  0  0  0  0  0  0  0  0
   44.1354    6.1619   11.1721 H   0  0  0  0  0  0  0  0  0  0  0  0
   45.9663    7.8328   10.3968 H   0  0  0  0  0  0  0  0  0  0  0  0
   44.9185    8.5261   11.6022 H   0  0  0  0  0  0  0  0  0  0  0  0
   47.4457    8.6080   14.2203 H   0  0  0  0  0  0  0  0  0  0  0  0
   45.9794    9.1648   13.7616 H   0  0  0  0  0  0  0  0  0  0  0  0
   47.3647    8.9954   11.8989 H   0  0  0  0  0  0  0  0  0  0  0  0
   45.6990    5.5707    9.7900 H   0  0  0  0  0  0  0  0  0  0  0  0
   44.2213    6.8950   13.6198 H   0  0  0  0  0  0  0  0  0  0  0  0
   47.6739    6.0572   12.7150 H   0  0  0  0  0  0  0  0  0  0  0  0
   48.9174    7.3128   12.7449 H   0  0  0  0  0  0  0  0  0  0  0  0
   48.2599    6.7670   11.1983 H   0  0  0  0  0  0  0  0  0  0  0  0
   44.6383    3.3740   10.1499 H   0  0  0  0  0  0  0  0  0  0  0  0
   43.1652    4.6925   13.9631 H   0  0  0  0  0  0  0  0  0  0  0  0
   43.3685    2.9249   12.2332 H   0  0  0  0  0  0  0  0  0  0  0  0
  4  2  1  0
  3  1  1  0
  4  1  1  0
  5  3  2  0
  6  3  1  0
  4  7  1  0
  8  5  1  0
  9  6  2  0
 10  8  2  0
  9 10  1  0
 12 11  2  0
 13 11  2  0
 14 11  1  0
 15 11  1  0
 19 17  1  0
 18 16  1  0
 19 16  1  0
 20 18  2  0
 21 18  1  0
 19 22  1  0
 23 20  1  0
 24 21  2  0
 25 23  2  0
 24 25  1  0
  1 26  1  0
  1 27  1  0
  2 28  1  0
  2 29  1  0
  4 30  1  6
  5 31  1  0
  6 32  1  0
  7 33  1  0
  7 34  1  0
  7 35  1  0
  8 36  1  0
  9 37  1  0
 10 38  1  0
 14 39  1  0
 15 40  1  0
 16 41  1  0
 16 42  1  0
 17 43  1  0
 17 44  1  0
 19 45  1  6
 20 46  1  0
 21 47  1  0
 22 48  1  0
 22 49  1  0
 22 50  1  0
 23 51  1  0
 24 52  1  0
 25 53  1  0
M  END
> <Uni-Dock RESULT> 
ENERGY=   -5.310  LOWER_BOUND=    2.493  UPPER_BOUND=    4.040
INTER + INTRA:          -5.310
INTER:                  -5.310
INTRA:                   0.000
UNBOUND:                 0.000

$$$$

     RDKit          3D

 53 52  0  0  0  0  0  0  0  0999 V2000
   44.9484    3.1980   10.3586 C   0  0  0  0  0  0  0  0  0  0  0  0
   46.0941    3.8348    8.2351 N   0  0  0  0  0  0  0  0  0  0  0  0
   44.4318    4.5139   10.8950 C   0  0  0  0  0  0  0  0  0  0  0  0
   44.9517    3.1156    8.8162 C   0  0  1  0  0  0  0  0  0  0  0  0
   43.1070    4.6293   11.3394 C   0  0  0  0  0  0  0  0  0  0  0  0
   45.2630    5.6404   10.9459 C   0  0  0  0  0  0  0  0  0  0  0  0
   45.0078    1.6559    8.3611 C   0  0  0  0  0  0  0  0  0  0  0  0
   42.6282    5.8445   11.8327 C   0  0  0  0  0  0  0  0  0  0  0  0
   44.7828    6.8551   11.4383 C   0  0  0  0  0  0  0  0  0  0  0  0
   43.4664    6.9566   11.8832 C   0  0  0  0  0  0  0  0  0  0  0  0
   45.0535    4.2859   10.0539 S   0  0  0  0  0  0  0  0  0  0  0  0
   45.5044    5.2053    9.0407 O   0  0  0  0  0  0  0  0  0  0  0  0
   45.9375    3.5564   10.9269 O   0  0  0  0  0  0  0  0  0  0  0  0
   44.1004    3.1972    9.3611 O   0  0  0  0  0  0  0  0  0  0  0  0
   43.9991    5.0887   10.9580 O   0  0  0  0  0  0  0  0  0  0  0  0
   44.0086    4.2960    8.7755 C   0  0  0  0  0  0  0  0  0  0  0  0
   46.3091    3.4117    8.2959 N   0  0  0  0  0  0  0  0  0  0  0  0
   44.1326    4.8941   10.1588 C   0  0  0  0  0  0  0  0  0  0  0  0
   44.8933    3.0647    8.4676 C   0  0  1  0  0  0  0  0  0  0  0  0
   43.0953    4.7459   11.0912 C   0  0  0  0  0  0  0  0  0  0  0  0
   45.2761    5.6121   10.5323 C   0  0  0  0  0  0  0  0  0  0  0  0
   44.7549    1.9555    9.5093 C   0  0  0  0  0  0  0  0  0  0  0  0
   43.2021    5.3013   12.3677 C   0  0  0  0  0  0  0  0  0  0  0  0
   45.3826    6.1664   11.8092 C   0  0  0  0  0  0  0  0  0  0  0  0
   44.3456    6.0116   12.7265 C   0  0  0  0  0  0  0  0  0  0  0  0
   44.3233    2.3926   10.7674 H   0  0  0  0  0  0  0  0  0  0  0  0
   45.9533    3.0114   10.7611 H   0  0  0  0  0  0  0  0  0  0  0  0
   46.9651    3.3874    8.5172 H   0  0  0  0  0  0  0  0  0  0  0  0
   46.0559    3.7695    7.2188 H   0  0  0  0  0  0  0  0  0  0  0  0
   44.0306    3.5627    8.4230 H   0  0  0  0  0  0  0  0  0  0  0  0
   42.4383    3.7727   11.3047 H   0  0  0  0  0  0  0  0  0  0  0  0
   46.2889    5.5776   10.5898 H   0  0  0  0  0  0  0  0  0  0  0  0
   45.0024    1.5831    7.2677 H   0  0  0  0  0  0  0  0  0  0  0  0
   45.9092    1.1539    8.7304 H   0  0  0  0  0  0  0  0  0  0  0  0
   44.1382    1.1023    8.7313 H   0  0  0  0  0  0  0  0  0  0  0  0
   41.6002    5.9236   12.1758 H   0  0  0  0  0  0  0  0  0  0  0  0
   45.4366    7.7224   11.4689 H   0  0  0  0  0  0  0  0  0  0  0  0
   43.0930    7.9029   12.2645 H   0  0  0  0  0  0  0  0  0  0  0  0
   44.0366    2.4366    9.9750 H   0  0  0  0  0  0  0  0  0  0  0  0
   43.6040    5.7840   10.3923 H   0  0  0  0  0  0  0  0  0  0  0  0
   42.9612    4.0092    8.6085 H   0  0  0  0  0  0  0  0  0  0  0  0
   44.2043    5.0867    8.0383 H   0  0  0  0  0  0  0  0  0  0  0  0
   46.8404    2.5769    8.0528 H   0  0  0  0  0  0  0  0  0  0  0  0
   46.4109    4.0596    7.5165 H   0  0  0  0  0  0  0  0  0  0  0  0
   44.5513    2.6599    7.5064 H   0  0  0  0  0  0  0  0  0  0  0  0
   42.1955    4.1938   10.8303 H   0  0  0  0  0  0  0  0  0  0  0  0
   46.0975    5.7361    9.8303 H   0  0  0  0  0  0  0  0  0  0  0  0
   45.1619    2.2518   10.4821 H   0  0  0  0  0  0  0  0  0  0  0  0
   45.2888    1.0533    9.1894 H   0  0  0  0  0  0  0  0  0  0  0  0
   43.7030    1.6835    9.6477 H   0  0  0  0  0  0  0  0  0  0  0  0
   42.3928    5.1784   13.0824 H   0  0  0  0  0  0  0  0  0  0  0  0
   46.2780    6.7158   12.0868 H   0  0  0  0  0  0  0  0  0  0  0  0
   44.4302    6.4420   13.7204 H   0  0  0  0  0  0  0  0  0  0  0  0
  4  2  1  0
  3  1  1  0
  4  1  1  0
  5  3  2  0
  6  3  1  0
  4  7  1  0
  8  5  1  0
  9  6  2  0
 10  8  2  0
  9 10  1  0
 12 11  2  0
 13 11  2  0
 14 11  1  0
 15 11  1  0
 19 17  1  0
 18 16  1  0
 19 16  1  0
 20 18  2  0
 21 18  1  0
 19 22  1  0
 23 20  1  0
 24 21  2  0
 25 23  2  0
 24 25  1  0
  1 26  1  0
  1 27  1  0
  2 28  1  0
  2 29  1  0
  4 30  1  6
  5 31  1  0
  6 32  1  0
  7 33  1  0
  7 34  1  0
  7 35  1  0
  8 36  1  0
  9 37  1  0
 10 38  1  0
 14 39  1  0
 15 40  1  0
 16 41  1  0
 16 42  1  0
 17 43  1  0
 17 44  1  0
 19 45  1  6
 20 46  1  0
 21 47  1  0
 22 48  1  0
 22 49  1  0
 22 50  1  0
 23 51  1  0
 24 52  1  0
 25 53  1  0
M  END
> <Uni-Dock RESULT> 
ENERGY=   -5.243  LOWER_BOUND=    1.767  UPPER_BOUND=    3.916
INTER + INTRA:          -5.243
INTER:                  -5.243
INTRA:                   0.000
UNBOUND:                 0.000

$$$$

     RDKit          3D

 53 52  0  0  0  0  0  0  0  0999 V2000
   49.3837    4.1071   17.8902 C   0  0  0  0  0  0  0  0  0  0  0  0
   47.5466    3.6803   16.2561 N   0  0  0  0  0  0  0  0  0  0  0  0
   48.6869    4.8012   19.0387 C   0  0  0  0  0  0  0  0  0  0  0  0
   48.5059    3.0549   17.1773 C   0  0  1  0  0  0  0  0  0  0  0  0
   48.9084    4.3862   20.3595 C   0  0  0  0  0  0  0  0  0  0  0  0
   47.8015    5.8606   18.8018 C   0  0  0  0  0  0  0  0  0  0  0  0
   49.3804    2.0792   16.3872 C   0  0  0  0  0  0  0  0  0  0  0  0
   48.2637    5.0249   21.4205 C   0  0  0  0  0  0  0  0  0  0  0  0
   47.1567    6.4976   19.8634 C   0  0  0  0  0  0  0  0  0  0  0  0
   47.3891    6.0810   21.1725 C   0  0  0  0  0  0  0  0  0  0  0  0
   48.3339    4.4956   18.0754 S   0  0  0  0  0  0  0  0  0  0  0  0
   46.9735    4.5357   17.6032 O   0  0  0  0  0  0  0  0  0  0  0  0
   49.4170    5.2246   17.4662 O   0  0  0  0  0  0  0  0  0  0  0  0
   48.8008    2.9624   18.1431 O   0  0  0  0  0  0  0  0  0  0  0  0
   48.2843    4.8725   19.6340 O   0  0  0  0  0  0  0  0  0  0  0  0
   47.5768    3.0580   18.3694 C   0  0  0  0  0  0  0  0  0  0  0  0
   47.9117    3.6386   15.9497 N   0  0  0  0  0  0  0  0  0  0  0  0
   47.9455    4.3294   19.1003 C   0  0  0  0  0  0  0  0  0  0  0  0
   48.3349    2.7674   17.0525 C   0  0  1  0  0  0  0  0  0  0  0  0
   48.6648    4.2729   20.3032 C   0  0  0  0  0  0  0  0  0  0  0  0
   47.5706    5.5824   18.5983 C   0  0  0  0  0  0  0  0  0  0  0  0
   49.8532    2.8338   17.2112 C   0  0  0  0  0  0  0  0  0  0  0  0
   49.0025    5.4435   20.9852 C   0  0  0  0  0  0  0  0  0  0  0  0
   47.9095    6.7525   19.2804 C   0  0  0  0  0  0  0  0  0  0  0  0
   48.6248    6.6830   20.4738 C   0  0  0  0  0  0  0  0  0  0  0  0
   50.2899    3.6246   18.2808 H   0  0  0  0  0  0  0  0  0  0  0  0
   49.7462    4.8600   17.1773 H   0  0  0  0  0  0  0  0  0  0  0  0
   48.0459    4.1502   15.5023 H   0  0  0  0  0  0  0  0  0  0  0  0
   46.9782    2.9583   15.8153 H   0  0  0  0  0  0  0  0  0  0  0  0
   47.9405    2.4829   17.9230 H   0  0  0  0  0  0  0  0  0  0  0  0
   49.5852    3.5622   20.5713 H   0  0  0  0  0  0  0  0  0  0  0  0
   47.6017    6.1870   17.7836 H   0  0  0  0  0  0  0  0  0  0  0  0
   48.7698    1.3218   15.8829 H   0  0  0  0  0  0  0  0  0  0  0  0
   49.9752    2.5975   15.6267 H   0  0  0  0  0  0  0  0  0  0  0  0
   50.0714    1.5527   17.0544 H   0  0  0  0  0  0  0  0  0  0  0  0
   48.4427    4.6966   22.4409 H   0  0  0  0  0  0  0  0  0  0  0  0
   46.4692    7.3155   19.6660 H   0  0  0  0  0  0  0  0  0  0  0  0
   46.8854    6.5762   21.9980 H   0  0  0  0  0  0  0  0  0  0  0  0
   49.7797    2.9599   18.1823 H   0  0  0  0  0  0  0  0  0  0  0  0
   47.4008    4.6106   19.9664 H   0  0  0  0  0  0  0  0  0  0  0  0
   47.7340    2.2056   19.0445 H   0  0  0  0  0  0  0  0  0  0  0  0
   46.4948    3.0701   18.1793 H   0  0  0  0  0  0  0  0  0  0  0  0
   48.4069    3.3795   15.0976 H   0  0  0  0  0  0  0  0  0  0  0  0
   46.9198    3.4994   15.7645 H   0  0  0  0  0  0  0  0  0  0  0  0
   48.0781    1.7418   16.7576 H   0  0  0  0  0  0  0  0  0  0  0  0
   48.9698    3.3149   20.7175 H   0  0  0  0  0  0  0  0  0  0  0  0
   47.0180    5.6544   17.6643 H   0  0  0  0  0  0  0  0  0  0  0  0
   50.2009    3.8518   17.4178 H   0  0  0  0  0  0  0  0  0  0  0  0
   50.3545    2.4930   16.2981 H   0  0  0  0  0  0  0  0  0  0  0  0
   50.1854    2.1868   18.0301 H   0  0  0  0  0  0  0  0  0  0  0  0
   49.5616    5.3874   21.9152 H   0  0  0  0  0  0  0  0  0  0  0  0
   47.6170    7.7177   18.8760 H   0  0  0  0  0  0  0  0  0  0  0  0
   48.8893    7.5943   21.0030 H   0  0  0  0  0  0  0  0  0  0  0  0
  4  2  1  0
  3  1  1  0
  4  1  1  0
  5  3  2  0
  6  3  1  0
  4  7  1  0
  8  5  1  0
  9  6  2  0
 10  8  2  0
  9 10  1  0
 12 11  2  0
 13 11  2  0
 14 11  1  0
 15 11  1  0
 19 17  1  0
 18 16  1  0
 19 16  1  0
 20 18  2  0
 21 18  1  0
 19 22  1  0
 23 20  1  0
 24 21  2  0
 25 23  2  0
 24 25  1  0
  1 26  1  0
  1 27  1  0
  2 28  1  0
  2 29  1  0
  4 30  1  6
  5 31  1  0
  6 32  1  0
  7 33  1  0
  7 34  1  0
  7 35  1  0
  8 36  1  0
  9 37  1  0
 10 38  1  0
 14 39  1  0
 15 40  1  0
 16 41  1  0
 16 42  1  0
 17 43  1  0
 17 44  1  0
 19 45  1  6
 20 46  1  0
 21 47  1  0
 22 48  1  0
 22 49  1  0
 22 50  1  0
 23 51  1  0
 24 52  1  0
 25 53  1  0
M  END
> <Uni-Dock RESULT> 
ENERGY=   -5.046  LOWER_BOUND=    7.988  UPPER_BOUND=    9.993
INTER + INTRA:          -5.046
INTER:                  -5.046
INTRA:                   0.000
UNBOUND:                 0.000

$$$$

     RDKit          3D

 53 52  0  0  0  0  0  0  0  0999 V2000
   47.9990    5.0189   17.7531 C   0  0  0  0  0  0  0  0  0  0  0  0
   47.1390    2.6780   17.8439 N   0  0  0  0  0  0  0  0  0  0  0  0
   48.9384    5.1010   18.9351 C   0  0  0  0  0  0  0  0  0  0  0  0
   47.9646    3.6272   17.0840 C   0  0  1  0  0  0  0  0  0  0  0  0
   50.2226    5.6436   18.7858 C   0  0  0  0  0  0  0  0  0  0  0  0
   48.5464    4.6267   20.1936 C   0  0  0  0  0  0  0  0  0  0  0  0
   47.4081    3.7334   15.6627 C   0  0  0  0  0  0  0  0  0  0  0  0
   51.0917    5.7177   19.8760 C   0  0  0  0  0  0  0  0  0  0  0  0
   49.4167    4.7004   21.2825 C   0  0  0  0  0  0  0  0  0  0  0  0
   50.6883    5.2474   21.1241 C   0  0  0  0  0  0  0  0  0  0  0  0
   48.2747    4.3270   18.6091 S   0  0  0  0  0  0  0  0  0  0  0  0
   48.1664    2.9979   19.1542 O   0  0  0  0  0  0  0  0  0  0  0  0
   47.1950    5.2809   18.5985 O   0  0  0  0  0  0  0  0  0  0  0  0
   48.7929    4.2121   17.0953 O   0  0  0  0  0  0  0  0  0  0  0  0
   49.5428    5.0064   19.3189 O   0  0  0  0  0  0  0  0  0  0  0  0
   49.2567    3.2834   17.7888 C   0  0  0  0  0  0  0  0  0  0  0  0
   46.7915    2.8601   17.5700 N   0  0  0  0  0  0  0  0  0  0  0  0
   49.3489    4.3233   18.8827 C   0  0  0  0  0  0  0  0  0  0  0  0
   48.0013    3.3323   16.8860 C   0  0  1  0  0  0  0  0  0  0  0  0
   50.2733    5.3738   18.7866 C   0  0  0  0  0  0  0  0  0  0  0  0
   48.5236    4.2542   20.0126 C   0  0  0  0  0  0  0  0  0  0  0  0
   47.7509    4.7155   16.2872 C   0  0  0  0  0  0  0  0  0  0  0  0
   50.3668    6.3333   19.7966 C   0  0  0  0  0  0  0  0  0  0  0  0
   48.6170    5.2144   21.0217 C   0  0  0  0  0  0  0  0  0  0  0  0
   49.5388    6.2533   20.9141 C   0  0  0  0  0  0  0  0  0  0  0  0
   48.3090    5.7723   17.0164 H   0  0  0  0  0  0  0  0  0  0  0  0
   46.9921    5.3251   18.0678 H   0  0  0  0  0  0  0  0  0  0  0  0
   46.1677    2.9861   17.8436 H   0  0  0  0  0  0  0  0  0  0  0  0
   47.1505    1.7704   17.3806 H   0  0  0  0  0  0  0  0  0  0  0  0
   48.9827    3.2234   17.0248 H   0  0  0  0  0  0  0  0  0  0  0  0
   50.5551    6.0128   17.8188 H   0  0  0  0  0  0  0  0  0  0  0  0
   47.5611    4.1858   20.3275 H   0  0  0  0  0  0  0  0  0  0  0  0
   47.3861    2.7531   15.1734 H   0  0  0  0  0  0  0  0  0  0  0  0
   46.3896    4.1378   15.6589 H   0  0  0  0  0  0  0  0  0  0  0  0
   48.0344    4.3916   15.0509 H   0  0  0  0  0  0  0  0  0  0  0  0
   52.0847    6.1410   19.7505 H   0  0  0  0  0  0  0  0  0  0  0  0
   49.1019    4.3254   22.2525 H   0  0  0  0  0  0  0  0  0  0  0  0
   51.3656    5.3027   21.9718 H   0  0  0  0  0  0  0  0  0  0  0  0
   48.5918    5.0640   16.6555 H   0  0  0  0  0  0  0  0  0  0  0  0
   50.1523    4.2835   19.5748 H   0  0  0  0  0  0  0  0  0  0  0  0
   50.1408    3.3728   17.1426 H   0  0  0  0  0  0  0  0  0  0  0  0
   49.3441    2.2895   18.2487 H   0  0  0  0  0  0  0  0  0  0  0  0
   46.0046    2.8707   16.9227 H   0  0  0  0  0  0  0  0  0  0  0  0
   46.9178    1.8918   17.8600 H   0  0  0  0  0  0  0  0  0  0  0  0
   48.1811    2.6395   16.0538 H   0  0  0  0  0  0  0  0  0  0  0  0
   50.9273    5.4540   17.9215 H   0  0  0  0  0  0  0  0  0  0  0  0
   47.7939    3.4534   20.1087 H   0  0  0  0  0  0  0  0  0  0  0  0
   47.4727    5.4500   17.0507 H   0  0  0  0  0  0  0  0  0  0  0  0
   46.9382    4.6795   15.5526 H   0  0  0  0  0  0  0  0  0  0  0  0
   48.6449    5.0815   15.7710 H   0  0  0  0  0  0  0  0  0  0  0  0
   51.0855    7.1437   19.7103 H   0  0  0  0  0  0  0  0  0  0  0  0
   47.9663    5.1512   21.8896 H   0  0  0  0  0  0  0  0  0  0  0  0
   49.6096    7.0009   21.6992 H   0  0  0  0  0  0  0  0  0  0  0  0
  4  2  1  0
  3  1  1  0
  4  1  1  0
  5  3  2  0
  6  3  1  0
  4  7  1  0
  8  5  1  0
  9  6  2  0
 10  8  2  0
  9 10  1  0
 12 11  2  0
 13 11  2  0
 14 11  1  0
 15 11  1  0
 19 17  1  0
 18 16  1  0
 19 16  1  0
 20 18  2  0
 21 18  1  0
 19 22  1  0
 23 20  1  0
 24 21  2  0
 25 23  2  0
 24 25  1  0
  1 26  1  0
  1 27  1  0
  2 28  1  0
  2 29  1  0
  4 30  1  6
  5 31  1  0
  6 32  1  0
  7 33  1  0
  7 34  1  0
  7 35  1  0
  8 36  1  0
  9 37  1  0
 10 38  1  0
 14 39  1  0
 15 40  1  0
 16 41  1  0
 16 42  1  0
 17 43  1  0
 17 44  1  0
 19 45  1  6
 20 46  1  0
 21 47  1  0
 22 48  1  0
 22 49  1  0
 22 50  1  0
 23 51  1  0
 24 52  1  0
 25 53  1  0
M  END
> <Uni-Dock RESULT> 
ENERGY=   -4.781  LOWER_BOUND=    8.269  UPPER_BOUND=   10.217
INTER + INTRA:          -4.781
INTER:                  -4.781
INTRA:                   0.000
UNBOUND:                 0.000

$$$$
