
     RDKit          3D

 53 52  0  0  0  0  0  0  0  0999 V2000
   45.1313    5.0537    9.2344 C   0  0  0  0  0  0  0  0  0  0  0  0
   44.1825    2.8818    8.4184 N   0  0  0  0  0  0  0  0  0  0  0  0
   44.4273    5.0579   10.5725 C   0  0  0  0  0  0  0  0  0  0  0  0
   45.4133    3.6389    8.6815 C   0  0  1  0  0  0  0  0  0  0  0  0
   43.0857    5.4515   10.6699 C   0  0  0  0  0  0  0  0  0  0  0  0
   45.1045    4.6615   11.7339 C   0  0  0  0  0  0  0  0  0  0  0  0
   46.2133    3.7274    7.3826 C   0  0  0  0  0  0  0  0  0  0  0  0
   42.4342    5.4452   11.9044 C   0  0  0  0  0  0  0  0  0  0  0  0
   44.4511    4.6558   12.9673 C   0  0  0  0  0  0  0  0  0  0  0  0
   43.1165    5.0470   13.0521 C   0  0  0  0  0  0  0  0  0  0  0  0
   44.8969    4.3410   10.3081 S   0  0  0  0  0  0  0  0  0  0  0  0
   44.6681    3.4269   11.3979 O   0  0  0  0  0  0  0  0  0  0  0  0
   46.1920    4.8674    9.9602 O   0  0  0  0  0  0  0  0  0  0  0  0
   43.8937    5.5727   10.5313 O   0  0  0  0  0  0  0  0  0  0  0  0
   44.2965    3.6921    8.9694 O   0  0  0  0  0  0  0  0  0  0  0  0
   45.0071    5.1272   10.8225 C   0  0  0  0  0  0  0  0  0  0  0  0
   42.7497    4.5059   11.6861 N   0  0  0  0  0  0  0  0  0  0  0  0
   45.2522    4.1305    9.7123 C   0  0  0  0  0  0  0  0  0  0  0  0
   43.5246    5.5328   10.9754 C   0  0  1  0  0  0  0  0  0  0  0  0
   45.0130    2.7648    9.9125 C   0  0  0  0  0  0  0  0  0  0  0  0
   45.7126    4.5607    8.4598 C   0  0  0  0  0  0  0  0  0  0  0  0
   43.4098    6.8521   11.7417 C   0  0  0  0  0  0  0  0  0  0  0  0
   45.2367    1.8468    8.8850 C   0  0  0  0  0  0  0  0  0  0  0  0
   45.9370    3.6415    7.4331 C   0  0  0  0  0  0  0  0  0  0  0  0
   45.7003    2.2849    7.6462 C   0  0  0  0  0  0  0  0  0  0  0  0
   44.5440    5.6289    8.5059 H   0  0  0  0  0  0  0  0  0  0  0  0
   46.0768    5.6006    9.3481 H   0  0  0  0  0  0  0  0  0  0  0  0
   43.5805    3.4127    7.7905 H   0  0  0  0  0  0  0  0  0  0  0  0
   43.6588    2.7982    9.2921 H   0  0  0  0  0  0  0  0  0  0  0  0
   46.0061    3.0710    9.4083 H   0  0  0  0  0  0  0  0  0  0  0  0
   42.5374    5.7655    9.7847 H   0  0  0  0  0  0  0  0  0  0  0  0
   46.1467    4.3538   11.6853 H   0  0  0  0  0  0  0  0  0  0  0  0
   46.4414    2.7290    6.9927 H   0  0  0  0  0  0  0  0  0  0  0  0
   45.6657    4.2763    6.6082 H   0  0  0  0  0  0  0  0  0  0  0  0
   47.1657    4.2418    7.5502 H   0  0  0  0  0  0  0  0  0  0  0  0
   41.3936    5.7521   11.9707 H   0  0  0  0  0  0  0  0  0  0  0  0
   44.9843    4.3460   13.8623 H   0  0  0  0  0  0  0  0  0  0  0  0
   42.6087    5.0426   14.0130 H   0  0  0  0  0  0  0  0  0  0  0  0
   43.1244    5.2315   11.0330 H   0  0  0  0  0  0  0  0  0  0  0  0
   44.6992    4.1666    8.2127 H   0  0  0  0  0  0  0  0  0  0  0  0
   45.6127    6.0210   10.6202 H   0  0  0  0  0  0  0  0  0  0  0  0
   45.4001    4.7239   11.7657 H   0  0  0  0  0  0  0  0  0  0  0  0
   43.0900    4.4148   12.6422 H   0  0  0  0  0  0  0  0  0  0  0  0
   41.7769    4.8017   11.7563 H   0  0  0  0  0  0  0  0  0  0  0  0
   43.0781    5.6720    9.9833 H   0  0  0  0  0  0  0  0  0  0  0  0
   44.6389    2.4114   10.8709 H   0  0  0  0  0  0  0  0  0  0  0  0
   45.8999    5.6156    8.2750 H   0  0  0  0  0  0  0  0  0  0  0  0
   43.9308    7.6548   11.2089 H   0  0  0  0  0  0  0  0  0  0  0  0
   42.3625    7.1556   11.8499 H   0  0  0  0  0  0  0  0  0  0  0  0
   43.8462    6.7742   12.7440 H   0  0  0  0  0  0  0  0  0  0  0  0
   45.0435    0.7908    9.0519 H   0  0  0  0  0  0  0  0  0  0  0  0
   46.2949    3.9847    6.4663 H   0  0  0  0  0  0  0  0  0  0  0  0
   45.8724    1.5699    6.8464 H   0  0  0  0  0  0  0  0  0  0  0  0
  4  2  1  0
  3  1  1  0
  4  1  1  0
  5  3  2  0
  6  3  1  0
  4  7  1  0
  8  5  1  0
  9  6  2  0
 10  8  2  0
  9 10  1  0
 12 11  2  0
 13 11  2  0
 14 11  1  0
 15 11  1  0
 19 17  1  0
 18 16  1  0
 19 16  1  0
 20 18  2  0
 21 18  1  0
 19 22  1  0
 23 20  1  0
 24 21  2  0
 25 23  2  0
 24 25  1  0
  1 26  1  0
  1 27  1  0
  2 28  1  0
  2 29  1  0
  4 30  1  1
  5 31  1  0
  6 32  1  0
  7 33  1  0
  7 34  1  0
  7 35  1  0
  8 36  1  0
  9 37  1  0
 10 38  1  0
 14 39  1  0
 15 40  1  0
 16 41  1  0
 16 42  1  0
 17 43  1  0
 17 44  1  0
 19 45  1  6
 20 46  1  0
 21 47  1  0
 22 48  1  0
 22 49  1  0
 22 50  1  0
 23 51  1  0
 24 52  1  0
 25 53  1  0
M  END
> <Uni-Dock RESULT> 
ENERGY=   -6.874  LOWER_BOUND=    0.000  UPPER_BOUND=    0.000
INTER + INTRA:          -6.874
INTER:                  -6.874
INTRA:                   0.000
UNBOUND:                 0.000

$$$$

     RDKit          3D

 53 52  0  0  0  0  0  0  0  0999 V2000
   46.7784    6.3898   12.2967 C   0  0  0  0  0  0  0  0  0  0  0  0
   45.9294    8.4379   13.4663 N   0  0  0  0  0  0  0  0  0  0  0  0
   45.4353    5.7149   12.1334 C   0  0  0  0  0  0  0  0  0  0  0  0
   46.7027    7.9326   12.3244 C   0  0  1  0  0  0  0  0  0  0  0  0
   44.8498    5.0258   13.2043 C   0  0  0  0  0  0  0  0  0  0  0  0
   44.7531    5.7744   10.9104 C   0  0  0  0  0  0  0  0  0  0  0  0
   48.1073    8.5310   12.3892 C   0  0  0  0  0  0  0  0  0  0  0  0
   43.6052    4.4118   13.0550 C   0  0  0  0  0  0  0  0  0  0  0  0
   43.5086    5.1598   10.7632 C   0  0  0  0  0  0  0  0  0  0  0  0
   42.9350    4.4793   11.8353 C   0  0  0  0  0  0  0  0  0  0  0  0
   45.5530    6.5634   11.8677 S   0  0  0  0  0  0  0  0  0  0  0  0
   44.2293    6.9124   11.4185 O   0  0  0  0  0  0  0  0  0  0  0  0
   46.7063    6.5141   11.0060 O   0  0  0  0  0  0  0  0  0  0  0  0
   45.4199    5.1506   12.6159 O   0  0  0  0  0  0  0  0  0  0  0  0
   45.9417    7.5255   13.0912 O   0  0  0  0  0  0  0  0  0  0  0  0
   45.5796    5.6859   11.5155 C   0  0  0  0  0  0  0  0  0  0  0  0
   43.5114    5.4075   12.8840 N   0  0  0  0  0  0  0  0  0  0  0  0
   46.0800    7.0602   11.8988 C   0  0  0  0  0  0  0  0  0  0  0  0
   44.8864    4.9334   12.6726 C   0  0  1  0  0  0  0  0  0  0  0  0
   45.2050    8.1534   11.9398 C   0  0  0  0  0  0  0  0  0  0  0  0
   47.4276    7.2588   12.2308 C   0  0  0  0  0  0  0  0  0  0  0  0
   44.8486    3.4313   12.3839 C   0  0  0  0  0  0  0  0  0  0  0  0
   45.6685    9.4206   12.2973 C   0  0  0  0  0  0  0  0  0  0  0  0
   47.8904    8.5269   12.5873 C   0  0  0  0  0  0  0  0  0  0  0  0
   47.0112    9.6076   12.6193 C   0  0  0  0  0  0  0  0  0  0  0  0
   47.2676    6.0237   13.2094 H   0  0  0  0  0  0  0  0  0  0  0  0
   47.4221    6.0668   11.4677 H   0  0  0  0  0  0  0  0  0  0  0  0
   46.3175    8.0695   14.3336 H   0  0  0  0  0  0  0  0  0  0  0  0
   44.9813    8.0602   13.4099 H   0  0  0  0  0  0  0  0  0  0  0  0
   46.2209    8.2942   11.4082 H   0  0  0  0  0  0  0  0  0  0  0  0
   45.3585    4.9626   14.1634 H   0  0  0  0  0  0  0  0  0  0  0  0
   45.1871    6.3010   10.0633 H   0  0  0  0  0  0  0  0  0  0  0  0
   48.0686    9.6261   12.3846 H   0  0  0  0  0  0  0  0  0  0  0  0
   48.6390    8.2148   13.2939 H   0  0  0  0  0  0  0  0  0  0  0  0
   48.7005    8.2179   11.5233 H   0  0  0  0  0  0  0  0  0  0  0  0
   43.1586    3.8795   13.8908 H   0  0  0  0  0  0  0  0  0  0  0  0
   42.9868    5.2122    9.8113 H   0  0  0  0  0  0  0  0  0  0  0  0
   41.9661    4.0008   11.7197 H   0  0  0  0  0  0  0  0  0  0  0  0
   44.5053    5.0920   12.9622 H   0  0  0  0  0  0  0  0  0  0  0  0
   46.9148    7.4810   13.1957 H   0  0  0  0  0  0  0  0  0  0  0  0
   46.4350    5.0979   11.1562 H   0  0  0  0  0  0  0  0  0  0  0  0
   44.9090    5.7722   10.6496 H   0  0  0  0  0  0  0  0  0  0  0  0
   42.9427    5.1974   12.0651 H   0  0  0  0  0  0  0  0  0  0  0  0
   43.0918    4.8988   13.6610 H   0  0  0  0  0  0  0  0  0  0  0  0
   45.4485    5.0905   13.6012 H   0  0  0  0  0  0  0  0  0  0  0  0
   44.1520    8.0182   11.7031 H   0  0  0  0  0  0  0  0  0  0  0  0
   48.1270    6.4265   12.2139 H   0  0  0  0  0  0  0  0  0  0  0  0
   45.8633    3.0331   12.2763 H   0  0  0  0  0  0  0  0  0  0  0  0
   44.3663    2.8845   13.2019 H   0  0  0  0  0  0  0  0  0  0  0  0
   44.3010    3.2130   11.4600 H   0  0  0  0  0  0  0  0  0  0  0  0
   44.9788   10.2595   12.3291 H   0  0  0  0  0  0  0  0  0  0  0  0
   48.9369    8.6709   12.8418 H   0  0  0  0  0  0  0  0  0  0  0  0
   47.3708   10.5939   12.8992 H   0  0  0  0  0  0  0  0  0  0  0  0
  4  2  1  0
  3  1  1  0
  4  1  1  0
  5  3  2  0
  6  3  1  0
  4  7  1  0
  8  5  1  0
  9  6  2  0
 10  8  2  0
  9 10  1  0
 12 11  2  0
 13 11  2  0
 14 11  1  0
 15 11  1  0
 19 17  1  0
 18 16  1  0
 19 16  1  0
 20 18  2  0
 21 18  1  0
 19 22  1  0
 23 20  1  0
 24 21  2  0
 25 23  2  0
 24 25  1  0
  1 26  1  0
  1 27  1  0
  2 28  1  0
  2 29  1  0
  4 30  1  1
  5 31  1  0
  6 32  1  0
  7 33  1  0
  7 34  1  0
  7 35  1  0
  8 36  1  0
  9 37  1  0
 10 38  1  0
 14 39  1  0
 15 40  1  0
 16 41  1  0
 16 42  1  0
 17 43  1  0
 17 44  1  0
 19 45  1  6
 20 46  1  0
 21 47  1  0
 22 48  1  0
 22 49  1  0
 22 50  1  0
 23 51  1  0
 24 52  1  0
 25 53  1  0
M  END
> <Uni-Dock RESULT> 
ENERGY=   -5.989  LOWER_BOUND=    2.795  UPPER_BOUND=    4.688
INTER + INTRA:          -5.989
INTER:                  -5.989
INTRA:                   0.000
UNBOUND:                 0.000

$$$$

     RDKit          3D

 53 52  0  0  0  0  0  0  0  0999 V2000
   44.7456    7.2236   11.6191 C   0  0  0  0  0  0  0  0  0  0  0  0
   43.8970    5.7418   13.4541 N   0  0  0  0  0  0  0  0  0  0  0  0
   46.0755    7.5488   12.2607 C   0  0  0  0  0  0  0  0  0  0  0  0
   44.1818    5.8413   12.0167 C   0  0  1  0  0  0  0  0  0  0  0  0
   46.1615    8.5192   13.2684 C   0  0  0  0  0  0  0  0  0  0  0  0
   47.2406    6.8795   11.8617 C   0  0  0  0  0  0  0  0  0  0  0  0
   42.8932    5.5534   11.2476 C   0  0  0  0  0  0  0  0  0  0  0  0
   47.3883    8.8112   13.8669 C   0  0  0  0  0  0  0  0  0  0  0  0
   48.4663    7.1730   12.4615 C   0  0  0  0  0  0  0  0  0  0  0  0
   48.5397    8.1380   13.4639 C   0  0  0  0  0  0  0  0  0  0  0  0
   45.8094    6.6968   12.1729 S   0  0  0  0  0  0  0  0  0  0  0  0
   46.8872    5.9890   12.8155 O   0  0  0  0  0  0  0  0  0  0  0  0
   45.4817    6.5642   10.7764 O   0  0  0  0  0  0  0  0  0  0  0  0
   46.0334    8.2525   12.4943 O   0  0  0  0  0  0  0  0  0  0  0  0
   44.4574    6.4050   12.9858 O   0  0  0  0  0  0  0  0  0  0  0  0
   46.3329    7.3406   11.7186 C   0  0  0  0  0  0  0  0  0  0  0  0
   47.1642    7.8334   14.0194 N   0  0  0  0  0  0  0  0  0  0  0  0
   45.2156    6.3478   11.9469 C   0  0  0  0  0  0  0  0  0  0  0  0
   46.4728    8.3866   12.8464 C   0  0  1  0  0  0  0  0  0  0  0  0
   45.3993    5.2479   12.7948 C   0  0  0  0  0  0  0  0  0  0  0  0
   43.9728    6.5200   11.3210 C   0  0  0  0  0  0  0  0  0  0  0  0
   47.2510    9.6061   12.3481 C   0  0  0  0  0  0  0  0  0  0  0  0
   44.3653    4.3344   13.0067 C   0  0  0  0  0  0  0  0  0  0  0  0
   42.9396    5.6053   11.5330 C   0  0  0  0  0  0  0  0  0  0  0  0
   43.1364    4.5122   12.3746 C   0  0  0  0  0  0  0  0  0  0  0  0
   44.0162    8.0081   11.8620 H   0  0  0  0  0  0  0  0  0  0  0  0
   44.8757    7.2695   10.5296 H   0  0  0  0  0  0  0  0  0  0  0  0
   43.2676    6.4935   13.7321 H   0  0  0  0  0  0  0  0  0  0  0  0
   44.7638    5.9074   13.9698 H   0  0  0  0  0  0  0  0  0  0  0  0
   44.9096    5.0606   11.7654 H   0  0  0  0  0  0  0  0  0  0  0  0
   45.2733    9.0547   13.5955 H   0  0  0  0  0  0  0  0  0  0  0  0
   47.2009    6.1239   11.0802 H   0  0  0  0  0  0  0  0  0  0  0  0
   42.4959    4.5645   11.5025 H   0  0  0  0  0  0  0  0  0  0  0  0
   42.1180    6.2964   11.4669 H   0  0  0  0  0  0  0  0  0  0  0  0
   43.0768    5.5671   10.1679 H   0  0  0  0  0  0  0  0  0  0  0  0
   47.4457    9.5652   14.6476 H   0  0  0  0  0  0  0  0  0  0  0  0
   49.3642    6.6481   12.1460 H   0  0  0  0  0  0  0  0  0  0  0  0
   49.4946    8.3660   13.9301 H   0  0  0  0  0  0  0  0  0  0  0  0
   46.5227    8.3050   13.3414 H   0  0  0  0  0  0  0  0  0  0  0  0
   43.7102    6.6415   12.3979 H   0  0  0  0  0  0  0  0  0  0  0  0
   46.1465    7.8525   10.7648 H   0  0  0  0  0  0  0  0  0  0  0  0
   47.2765    6.7976   11.5713 H   0  0  0  0  0  0  0  0  0  0  0  0
   48.1231    7.5915   13.7743 H   0  0  0  0  0  0  0  0  0  0  0  0
   47.2262    8.5461   14.7453 H   0  0  0  0  0  0  0  0  0  0  0  0
   45.4771    8.7205   13.1627 H   0  0  0  0  0  0  0  0  0  0  0  0
   46.3497    5.1047   13.3042 H   0  0  0  0  0  0  0  0  0  0  0  0
   43.8008    7.3686   10.6634 H   0  0  0  0  0  0  0  0  0  0  0  0
   46.7322   10.0777   11.5065 H   0  0  0  0  0  0  0  0  0  0  0  0
   47.3502   10.3601   13.1369 H   0  0  0  0  0  0  0  0  0  0  0  0
   48.2574    9.3312   12.0124 H   0  0  0  0  0  0  0  0  0  0  0  0
   44.5193    3.4876   13.6698 H   0  0  0  0  0  0  0  0  0  0  0  0
   41.9804    5.7469   11.0425 H   0  0  0  0  0  0  0  0  0  0  0  0
   42.3315    3.8017   12.5415 H   0  0  0  0  0  0  0  0  0  0  0  0
  4  2  1  0
  3  1  1  0
  4  1  1  0
  5  3  2  0
  6  3  1  0
  4  7  1  0
  8  5  1  0
  9  6  2  0
 10  8  2  0
  9 10  1  0
 12 11  2  0
 13 11  2  0
 14 11  1  0
 15 11  1  0
 19 17  1  0
 18 16  1  0
 19 16  1  0
 20 18  2  0
 21 18  1  0
 19 22  1  0
 23 20  1  0
 24 21  2  0
 25 23  2  0
 24 25  1  0
  1 26  1  0
  1 27  1  0
  2 28  1  0
  2 29  1  0
  4 30  1  1
  5 31  1  0
  6 32  1  0
  7 33  1  0
  7 34  1  0
  7 35  1  0
  8 36  1  0
  9 37  1  0
 10 38  1  0
 14 39  1  0
 15 40  1  0
 16 41  1  0
 16 42  1  0
 17 43  1  0
 17 44  1  0
 19 45  1  6
 20 46  1  0
 21 47  1  0
 22 48  1  0
 22 49  1  0
 22 50  1  0
 23 51  1  0
 24 52  1  0
 25 53  1  0
M  END
> <Uni-Dock RESULT> 
ENERGY=   -5.617  LOWER_BOUND=    3.242  UPPER_BOUND=    4.559
INTER + INTRA:          -5.617
INTER:                  -5.617
INTRA:                   0.000
UNBOUND:                 0.000

$$$$

     RDKit          3D

 53 52  0  0  0  0  0  0  0  0999 V2000
   45.3121    4.9159   13.1243 C   0  0  0  0  0  0  0  0  0  0  0  0
   45.4111    3.9719   10.8043 N   0  0  0  0  0  0  0  0  0  0  0  0
   46.0570    6.1964   12.8217 C   0  0  0  0  0  0  0  0  0  0  0  0
   44.5310    4.3479   11.9185 C   0  0  1  0  0  0  0  0  0  0  0  0
   47.4557    6.2025   12.7331 C   0  0  0  0  0  0  0  0  0  0  0  0
   45.3587    7.3947   12.6187 C   0  0  0  0  0  0  0  0  0  0  0  0
   43.7300    3.1163   12.3385 C   0  0  0  0  0  0  0  0  0  0  0  0
   48.1414    7.3835   12.4437 C   0  0  0  0  0  0  0  0  0  0  0  0
   46.0463    8.5744   12.3294 C   0  0  0  0  0  0  0  0  0  0  0  0
   47.4368    8.5684   12.2414 C   0  0  0  0  0  0  0  0  0  0  0  0
   45.3557    5.9491   12.3203 S   0  0  0  0  0  0  0  0  0  0  0  0
   45.3264    6.9933   11.3282 O   0  0  0  0  0  0  0  0  0  0  0  0
   44.2987    5.7147   13.2707 O   0  0  0  0  0  0  0  0  0  0  0  0
   46.7305    6.1288   13.1272 O   0  0  0  0  0  0  0  0  0  0  0  0
   45.6146    4.5517   11.5761 O   0  0  0  0  0  0  0  0  0  0  0  0
   45.5522    6.4914   13.0701 C   0  0  0  0  0  0  0  0  0  0  0  0
   47.5117    7.1643   11.6788 N   0  0  0  0  0  0  0  0  0  0  0  0
   44.9136    5.3764   12.2731 C   0  0  0  0  0  0  0  0  0  0  0  0
   47.0907    6.5424   12.9422 C   0  0  1  0  0  0  0  0  0  0  0  0
   44.6850    5.5209   10.8986 C   0  0  0  0  0  0  0  0  0  0  0  0
   44.5507    4.1745   12.8972 C   0  0  0  0  0  0  0  0  0  0  0  0
   47.6956    7.3333   14.1039 C   0  0  0  0  0  0  0  0  0  0  0  0
   44.0984    4.4889   10.1643 C   0  0  0  0  0  0  0  0  0  0  0  0
   43.9631    3.1433   12.1618 C   0  0  0  0  0  0  0  0  0  0  0  0
   43.7360    3.3011   10.7960 C   0  0  0  0  0  0  0  0  0  0  0  0
   46.0138    4.1608   13.5036 H   0  0  0  0  0  0  0  0  0  0  0  0
   44.6187    5.1156   13.9521 H   0  0  0  0  0  0  0  0  0  0  0  0
   46.1178    3.3148   11.1318 H   0  0  0  0  0  0  0  0  0  0  0  0
   45.9282    4.8009   10.5040 H   0  0  0  0  0  0  0  0  0  0  0  0
   43.8264    5.1019   11.5480 H   0  0  0  0  0  0  0  0  0  0  0  0
   48.0221    5.2871   12.8881 H   0  0  0  0  0  0  0  0  0  0  0  0
   44.2732    7.4169   12.6844 H   0  0  0  0  0  0  0  0  0  0  0  0
   43.1516    2.7179   11.4974 H   0  0  0  0  0  0  0  0  0  0  0  0
   44.3828    2.3176   12.7089 H   0  0  0  0  0  0  0  0  0  0  0  0
   43.0224    3.3694   13.1353 H   0  0  0  0  0  0  0  0  0  0  0  0
   49.2263    7.3790   12.3769 H   0  0  0  0  0  0  0  0  0  0  0  0
   45.4960    9.4985   12.1726 H   0  0  0  0  0  0  0  0  0  0  0  0
   47.9713    9.4875   12.0164 H   0  0  0  0  0  0  0  0  0  0  0  0
   47.3670    6.5613   12.5208 H   0  0  0  0  0  0  0  0  0  0  0  0
   45.3517    3.8408   12.1969 H   0  0  0  0  0  0  0  0  0  0  0  0
   45.2763    6.3598   14.1251 H   0  0  0  0  0  0  0  0  0  0  0  0
   45.1046    7.4505   12.7756 H   0  0  0  0  0  0  0  0  0  0  0  0
   47.2207    8.1406   11.6594 H   0  0  0  0  0  0  0  0  0  0  0  0
   48.5294    7.1686   11.6243 H   0  0  0  0  0  0  0  0  0  0  0  0
   47.4954    5.5235   12.9729 H   0  0  0  0  0  0  0  0  0  0  0  0
   44.9749    6.4383   10.3911 H   0  0  0  0  0  0  0  0  0  0  0  0
   44.7231    4.0330   13.9613 H   0  0  0  0  0  0  0  0  0  0  0  0
   47.4474    6.8633   15.0617 H   0  0  0  0  0  0  0  0  0  0  0  0
   48.7882    7.3699   14.0295 H   0  0  0  0  0  0  0  0  0  0  0  0
   47.3220    8.3633   14.1270 H   0  0  0  0  0  0  0  0  0  0  0  0
   43.9300    4.6121    9.0980 H   0  0  0  0  0  0  0  0  0  0  0  0
   43.6843    2.2160   12.6548 H   0  0  0  0  0  0  0  0  0  0  0  0
   43.2811    2.4977   10.2233 H   0  0  0  0  0  0  0  0  0  0  0  0
  4  2  1  0
  3  1  1  0
  4  1  1  0
  5  3  2  0
  6  3  1  0
  4  7  1  0
  8  5  1  0
  9  6  2  0
 10  8  2  0
  9 10  1  0
 12 11  2  0
 13 11  2  0
 14 11  1  0
 15 11  1  0
 19 17  1  0
 18 16  1  0
 19 16  1  0
 20 18  2  0
 21 18  1  0
 19 22  1  0
 23 20  1  0
 24 21  2  0
 25 23  2  0
 24 25  1  0
  1 26  1  0
  1 27  1  0
  2 28  1  0
  2 29  1  0
  4 30  1  1
  5 31  1  0
  6 32  1  0
  7 33  1  0
  7 34  1  0
  7 35  1  0
  8 36  1  0
  9 37  1  0
 10 38  1  0
 14 39  1  0
 15 40  1  0
 16 41  1  0
 16 42  1  0
 17 43  1  0
 17 44  1  0
 19 45  1  6
 20 46  1  0
 21 47  1  0
 22 48  1  0
 22 49  1  0
 22 50  1  0
 23 51  1  0
 24 52  1  0
 25 53  1  0
M  END
> <Uni-Dock RESULT> 
ENERGY=   -5.539  LOWER_BOUND=    2.692  UPPER_BOUND=    4.109
INTER + INTRA:          -5.539
INTER:                  -5.539
INTRA:                   0.000
UNBOUND:                 0.000

$$$$

     RDKit          3D

 53 52  0  0  0  0  0  0  0  0999 V2000
   45.6499    7.0606   12.0122 C   0  0  0  0  0  0  0  0  0  0  0  0
   47.9417    6.2586   12.6347 N   0  0  0  0  0  0  0  0  0  0  0  0
   45.0079    5.6948   11.9200 C   0  0  0  0  0  0  0  0  0  0  0  0
   46.8238    7.1326   13.0139 C   0  0  1  0  0  0  0  0  0  0  0  0
   45.1869    4.8994   10.7800 C   0  0  0  0  0  0  0  0  0  0  0  0
   44.2301    5.2015   12.9765 C   0  0  0  0  0  0  0  0  0  0  0  0
   47.3445    8.5655   13.1180 C   0  0  0  0  0  0  0  0  0  0  0  0
   44.6019    3.6345   10.7006 C   0  0  0  0  0  0  0  0  0  0  0  0
   43.6461    3.9364   12.8951 C   0  0  0  0  0  0  0  0  0  0  0  0
   43.8326    3.1533   11.7578 C   0  0  0  0  0  0  0  0  0  0  0  0
   45.4712    5.9310   12.6508 S   0  0  0  0  0  0  0  0  0  0  0  0
   45.4088    4.7246   13.4358 O   0  0  0  0  0  0  0  0  0  0  0  0
   44.8884    7.1842   13.0569 O   0  0  0  0  0  0  0  0  0  0  0  0
   44.9033    5.5564   11.1980 O   0  0  0  0  0  0  0  0  0  0  0  0
   47.0097    6.2348   12.3122 O   0  0  0  0  0  0  0  0  0  0  0  0
   44.5807    5.9215   12.3318 C   0  0  0  0  0  0  0  0  0  0  0  0
   45.2339    3.6634   11.4939 N   0  0  0  0  0  0  0  0  0  0  0  0
   45.8753    6.4943   12.8630 C   0  0  0  0  0  0  0  0  0  0  0  0
   44.7669    5.0016   11.1050 C   0  0  1  0  0  0  0  0  0  0  0  0
   46.7043    5.7330   13.6970 C   0  0  0  0  0  0  0  0  0  0  0  0
   46.2715    7.7943   12.5185 C   0  0  0  0  0  0  0  0  0  0  0  0
   43.4486    4.8587   10.3417 C   0  0  0  0  0  0  0  0  0  0  0  0
   47.9007    6.2627   14.1835 C   0  0  0  0  0  0  0  0  0  0  0  0
   47.4679    8.3234   13.0063 C   0  0  0  0  0  0  0  0  0  0  0  0
   48.2815    7.5581   13.8396 C   0  0  0  0  0  0  0  0  0  0  0  0
   45.9887    7.3778   11.0167 H   0  0  0  0  0  0  0  0  0  0  0  0
   44.8729    7.7805   12.3021 H   0  0  0  0  0  0  0  0  0  0  0  0
   48.2467    6.4823   11.6885 H   0  0  0  0  0  0  0  0  0  0  0  0
   47.6015    5.2957   12.5909 H   0  0  0  0  0  0  0  0  0  0  0  0
   46.4795    6.8227   14.0076 H   0  0  0  0  0  0  0  0  0  0  0  0
   45.7841    5.2588    9.9451 H   0  0  0  0  0  0  0  0  0  0  0  0
   44.0741    5.8002   13.8712 H   0  0  0  0  0  0  0  0  0  0  0  0
   48.1621    8.6348   13.8443 H   0  0  0  0  0  0  0  0  0  0  0  0
   47.7164    8.9306   12.1539 H   0  0  0  0  0  0  0  0  0  0  0  0
   46.5496    9.2418   13.4501 H   0  0  0  0  0  0  0  0  0  0  0  0
   44.7460    3.0245    9.8125 H   0  0  0  0  0  0  0  0  0  0  0  0
   43.0453    3.5621   13.7199 H   0  0  0  0  0  0  0  0  0  0  0  0
   43.3772    2.1685   11.6952 H   0  0  0  0  0  0  0  0  0  0  0  0
   45.0694    4.6007   11.0604 H   0  0  0  0  0  0  0  0  0  0  0  0
   47.0654    7.1743   12.0402 H   0  0  0  0  0  0  0  0  0  0  0  0
   43.9198    6.7576   12.0660 H   0  0  0  0  0  0  0  0  0  0  0  0
   44.0593    5.3917   13.1407 H   0  0  0  0  0  0  0  0  0  0  0  0
   44.5232    3.1985   12.0569 H   0  0  0  0  0  0  0  0  0  0  0  0
   45.3573    3.0905   10.6600 H   0  0  0  0  0  0  0  0  0  0  0  0
   45.5102    5.4393   10.4277 H   0  0  0  0  0  0  0  0  0  0  0  0
   46.4247    4.7159   13.9626 H   0  0  0  0  0  0  0  0  0  0  0  0
   45.6505    8.4045   11.8672 H   0  0  0  0  0  0  0  0  0  0  0  0
   43.0997    5.8348    9.9875 H   0  0  0  0  0  0  0  0  0  0  0  0
   43.5692    4.2146    9.4635 H   0  0  0  0  0  0  0  0  0  0  0  0
   42.6629    4.4286   10.9731 H   0  0  0  0  0  0  0  0  0  0  0  0
   48.5367    5.6605   14.8264 H   0  0  0  0  0  0  0  0  0  0  0  0
   47.7657    9.3324   12.7345 H   0  0  0  0  0  0  0  0  0  0  0  0
   49.2138    7.9689   14.2172 H   0  0  0  0  0  0  0  0  0  0  0  0
  4  2  1  0
  3  1  1  0
  4  1  1  0
  5  3  2  0
  6  3  1  0
  4  7  1  0
  8  5  1  0
  9  6  2  0
 10  8  2  0
  9 10  1  0
 12 11  2  0
 13 11  2  0
 14 11  1  0
 15 11  1  0
 19 17  1  0
 18 16  1  0
 19 16  1  0
 20 18  2  0
 21 18  1  0
 19 22  1  0
 23 20  1  0
 24 21  2  0
 25 23  2  0
 24 25  1  0
  1 26  1  0
  1 27  1  0
  2 28  1  0
  2 29  1  0
  4 30  1  1
  5 31  1  0
  6 32  1  0
  7 33  1  0
  7 34  1  0
  7 35  1  0
  8 36  1  0
  9 37  1  0
 10 38  1  0
 14 39  1  0
 15 40  1  0
 16 41  1  0
 16 42  1  0
 17 43  1  0
 17 44  1  0
 19 45  1  6
 20 46  1  0
 21 47  1  0
 22 48  1  0
 22 49  1  0
 22 50  1  0
 23 51  1  0
 24 52  1  0
 25 53  1  0
M  END
> <Uni-Dock RESULT> 
ENERGY=   -5.495  LOWER_BOUND=    2.828  UPPER_BOUND=    4.471
INTER + INTRA:          -5.495
INTER:                  -5.495
INTRA:                   0.000
UNBOUND:                 0.000

$$$$

     RDKit          3D

 53 52  0  0  0  0  0  0  0  0999 V2000
   47.3497    5.1815   18.9331 C   0  0  0  0  0  0  0  0  0  0  0  0
   48.3086    2.8782   18.6919 N   0  0  0  0  0  0  0  0  0  0  0  0
   48.1566    5.5782   20.1487 C   0  0  0  0  0  0  0  0  0  0  0  0
   48.0603    4.1595   18.0181 C   0  0  1  0  0  0  0  0  0  0  0  0
   47.7809    5.1410   21.4263 C   0  0  0  0  0  0  0  0  0  0  0  0
   49.2962    6.3832   20.0146 C   0  0  0  0  0  0  0  0  0  0  0  0
   47.2217    3.8940   16.7687 C   0  0  0  0  0  0  0  0  0  0  0  0
   48.5326    5.4997   22.5465 C   0  0  0  0  0  0  0  0  0  0  0  0
   50.0464    6.7406   21.1360 C   0  0  0  0  0  0  0  0  0  0  0  0
   49.6649    6.2985   22.4011 C   0  0  0  0  0  0  0  0  0  0  0  0
   48.5635    5.2476   19.4210 S   0  0  0  0  0  0  0  0  0  0  0  0
   49.9375    5.2043   19.8521 O   0  0  0  0  0  0  0  0  0  0  0  0
   48.0874    6.0693   18.3379 O   0  0  0  0  0  0  0  0  0  0  0  0
   47.6892    5.5742   20.7258 O   0  0  0  0  0  0  0  0  0  0  0  0
   48.0878    3.7501   19.0973 O   0  0  0  0  0  0  0  0  0  0  0  0
   48.3359    6.0815   19.8052 C   0  0  0  0  0  0  0  0  0  0  0  0
   49.1174    4.9775   21.9024 N   0  0  0  0  0  0  0  0  0  0  0  0
   48.3632    4.9678   18.7830 C   0  0  0  0  0  0  0  0  0  0  0  0
   47.9724    5.6070   21.2295 C   0  0  1  0  0  0  0  0  0  0  0  0
   49.4794    4.1289   18.6700 C   0  0  0  0  0  0  0  0  0  0  0  0
   47.2648    4.7504   17.9392 C   0  0  0  0  0  0  0  0  0  0  0  0
   47.4928    6.7867   22.0776 C   0  0  0  0  0  0  0  0  0  0  0  0
   49.5011    3.0992   17.7278 C   0  0  0  0  0  0  0  0  0  0  0  0
   47.2879    3.7208   16.9965 C   0  0  0  0  0  0  0  0  0  0  0  0
   48.4063    2.8963   16.8902 C   0  0  0  0  0  0  0  0  0  0  0  0
   46.3754    4.7852   19.2493 H   0  0  0  0  0  0  0  0  0  0  0  0
   47.1260    6.0935   18.3636 H   0  0  0  0  0  0  0  0  0  0  0  0
   47.4321    2.5056   19.0545 H   0  0  0  0  0  0  0  0  0  0  0  0
   48.8921    3.0501   19.5132 H   0  0  0  0  0  0  0  0  0  0  0  0
   49.0288    4.5622   17.6986 H   0  0  0  0  0  0  0  0  0  0  0  0
   46.9000    4.5171   21.5587 H   0  0  0  0  0  0  0  0  0  0  0  0
   49.6074    6.7374   19.0344 H   0  0  0  0  0  0  0  0  0  0  0  0
   47.7265    3.1887   16.0990 H   0  0  0  0  0  0  0  0  0  0  0  0
   46.2406    3.4767   17.0225 H   0  0  0  0  0  0  0  0  0  0  0  0
   47.0585    4.8213   16.2091 H   0  0  0  0  0  0  0  0  0  0  0  0
   48.2338    5.1562   23.5335 H   0  0  0  0  0  0  0  0  0  0  0  0
   50.9291    7.3645   21.0219 H   0  0  0  0  0  0  0  0  0  0  0  0
   50.2496    6.5775   23.2737 H   0  0  0  0  0  0  0  0  0  0  0  0
   48.1889    5.2403   21.4995 H   0  0  0  0  0  0  0  0  0  0  0  0
   47.2794    3.8163   18.5478 H   0  0  0  0  0  0  0  0  0  0  0  0
   47.6080    6.8339   19.4726 H   0  0  0  0  0  0  0  0  0  0  0  0
   49.3041    6.6006   19.8025 H   0  0  0  0  0  0  0  0  0  0  0  0
   49.8573    5.6639   22.0423 H   0  0  0  0  0  0  0  0  0  0  0  0
   48.8370    4.6666   22.8316 H   0  0  0  0  0  0  0  0  0  0  0  0
   47.1612    4.8709   21.1751 H   0  0  0  0  0  0  0  0  0  0  0  0
   50.3353    4.2687   19.3266 H   0  0  0  0  0  0  0  0  0  0  0  0
   46.3828    5.3822   18.0102 H   0  0  0  0  0  0  0  0  0  0  0  0
   46.6034    7.2458   21.6326 H   0  0  0  0  0  0  0  0  0  0  0  0
   47.2236    6.4619   23.0888 H   0  0  0  0  0  0  0  0  0  0  0  0
   48.2643    7.5603   22.1633 H   0  0  0  0  0  0  0  0  0  0  0  0
   50.3713    2.4531   17.6529 H   0  0  0  0  0  0  0  0  0  0  0  0
   46.4321    3.5611   16.3463 H   0  0  0  0  0  0  0  0  0  0  0  0
   48.4232    2.0934   16.1583 H   0  0  0  0  0  0  0  0  0  0  0  0
  4  2  1  0
  3  1  1  0
  4  1  1  0
  5  3  2  0
  6  3  1  0
  4  7  1  0
  8  5  1  0
  9  6  2  0
 10  8  2  0
  9 10  1  0
 12 11  2  0
 13 11  2  0
 14 11  1  0
 15 11  1  0
 19 17  1  0
 18 16  1  0
 19 16  1  0
 20 18  2  0
 21 18  1  0
 19 22  1  0
 23 20  1  0
 24 21  2  0
 25 23  2  0
 24 25  1  0
  1 26  1  0
  1 27  1  0
  2 28  1  0
  2 29  1  0
  4 30  1  1
  5 31  1  0
  6 32  1  0
  7 33  1  0
  7 34  1  0
  7 35  1  0
  8 36  1  0
  9 37  1  0
 10 38  1  0
 14 39  1  0
 15 40  1  0
 16 41  1  0
 16 42  1  0
 17 43  1  0
 17 44  1  0
 19 45  1  6
 20 46  1  0
 21 47  1  0
 22 48  1  0
 22 49  1  0
 22 50  1  0
 23 51  1  0
 24 52  1  0
 25 53  1  0
M  END
> <Uni-Dock RESULT> 
ENERGY=   -5.163  LOWER_BOUND=    8.531  UPPER_BOUND=   10.367
INTER + INTRA:          -5.163
INTER:                  -5.163
INTRA:                   0.000
UNBOUND:                 0.000

$$$$

     RDKit          3D

 53 52  0  0  0  0  0  0  0  0999 V2000
   49.5756    4.5142   20.2372 C   0  0  0  0  0  0  0  0  0  0  0  0
   47.5672    4.8923   21.6886 N   0  0  0  0  0  0  0  0  0  0  0  0
   48.8211    4.3518   18.9370 C   0  0  0  0  0  0  0  0  0  0  0  0
   48.8662    5.4282   21.2610 C   0  0  1  0  0  0  0  0  0  0  0  0
   48.1969    3.1368   18.6230 C   0  0  0  0  0  0  0  0  0  0  0  0
   48.7291    5.4165   18.0300 C   0  0  0  0  0  0  0  0  0  0  0  0
   49.7421    5.6173   22.4987 C   0  0  0  0  0  0  0  0  0  0  0  0
   47.4922    2.9916   17.4269 C   0  0  0  0  0  0  0  0  0  0  0  0
   48.0238    5.2692   16.8346 C   0  0  0  0  0  0  0  0  0  0  0  0
   47.4053    4.0574   16.5337 C   0  0  0  0  0  0  0  0  0  0  0  0
   48.6738    5.0638   19.4623 S   0  0  0  0  0  0  0  0  0  0  0  0
   47.6274    5.7435   18.7421 O   0  0  0  0  0  0  0  0  0  0  0  0
   49.9831    5.6196   19.6906 O   0  0  0  0  0  0  0  0  0  0  0  0
   48.8477    3.6303   18.7635 O   0  0  0  0  0  0  0  0  0  0  0  0
   48.1041    4.6393   20.9006 O   0  0  0  0  0  0  0  0  0  0  0  0
   49.1989    4.8124   18.7166 C   0  0  0  0  0  0  0  0  0  0  0  0
   47.0733    3.7352   17.9757 N   0  0  0  0  0  0  0  0  0  0  0  0
   48.8875    5.2934   20.1158 C   0  0  0  0  0  0  0  0  0  0  0  0
   48.4782    3.4999   18.3375 C   0  0  1  0  0  0  0  0  0  0  0  0
   47.7044    5.9941   20.3837 C   0  0  0  0  0  0  0  0  0  0  0  0
   49.7746    5.0347   21.1703 C   0  0  0  0  0  0  0  0  0  0  0  0
   49.1827    2.8273   17.1575 C   0  0  0  0  0  0  0  0  0  0  0  0
   47.4173    6.4343   21.6769 C   0  0  0  0  0  0  0  0  0  0  0  0
   49.4869    5.4762   22.4632 C   0  0  0  0  0  0  0  0  0  0  0  0
   48.3092    6.1769   22.7159 C   0  0  0  0  0  0  0  0  0  0  0  0
   49.7606    3.5276   20.6830 H   0  0  0  0  0  0  0  0  0  0  0  0
   50.5679    4.9226   20.0035 H   0  0  0  0  0  0  0  0  0  0  0  0
   47.6887    3.9490   22.0545 H   0  0  0  0  0  0  0  0  0  0  0  0
   46.9702    4.7905   20.8652 H   0  0  0  0  0  0  0  0  0  0  0  0
   48.6904    6.4141   20.8147 H   0  0  0  0  0  0  0  0  0  0  0  0
   48.2543    2.2942   19.3082 H   0  0  0  0  0  0  0  0  0  0  0  0
   49.2067    6.3690   18.2492 H   0  0  0  0  0  0  0  0  0  0  0  0
   49.2606    6.2840   23.2229 H   0  0  0  0  0  0  0  0  0  0  0  0
   49.9445    4.6636   22.9992 H   0  0  0  0  0  0  0  0  0  0  0  0
   50.7037    6.0653   22.2263 H   0  0  0  0  0  0  0  0  0  0  0  0
   47.0113    2.0457   17.1915 H   0  0  0  0  0  0  0  0  0  0  0  0
   47.9573    6.1008   16.1379 H   0  0  0  0  0  0  0  0  0  0  0  0
   46.8567    3.9436   15.6025 H   0  0  0  0  0  0  0  0  0  0  0  0
   47.9850    3.3982   18.3614 H   0  0  0  0  0  0  0  0  0  0  0  0
   48.8765    4.4465   21.4717 H   0  0  0  0  0  0  0  0  0  0  0  0
   50.2852    4.6703   18.6372 H   0  0  0  0  0  0  0  0  0  0  0  0
   48.9621    5.6088   17.9979 H   0  0  0  0  0  0  0  0  0  0  0  0
   47.0233    4.3070   17.1339 H   0  0  0  0  0  0  0  0  0  0  0  0
   46.6283    2.8478   17.7448 H   0  0  0  0  0  0  0  0  0  0  0  0
   48.5006    2.8097   19.1895 H   0  0  0  0  0  0  0  0  0  0  0  0
   46.9938    6.1904   19.5838 H   0  0  0  0  0  0  0  0  0  0  0  0
   50.6967    4.4869   20.9918 H   0  0  0  0  0  0  0  0  0  0  0  0
   50.2201    2.5863   17.4135 H   0  0  0  0  0  0  0  0  0  0  0  0
   48.6858    1.8900   16.8837 H   0  0  0  0  0  0  0  0  0  0  0  0
   49.1955    3.4758   16.2741 H   0  0  0  0  0  0  0  0  0  0  0  0
   46.4944    6.9733   21.8721 H   0  0  0  0  0  0  0  0  0  0  0  0
   50.1813    5.2717   23.2734 H   0  0  0  0  0  0  0  0  0  0  0  0
   48.0841    6.5182   23.7226 H   0  0  0  0  0  0  0  0  0  0  0  0
  4  2  1  0
  3  1  1  0
  4  1  1  0
  5  3  2  0
  6  3  1  0
  4  7  1  0
  8  5  1  0
  9  6  2  0
 10  8  2  0
  9 10  1  0
 12 11  2  0
 13 11  2  0
 14 11  1  0
 15 11  1  0
 19 17  1  0
 18 16  1  0
 19 16  1  0
 20 18  2  0
 21 18  1  0
 19 22  1  0
 23 20  1  0
 24 21  2  0
 25 23  2  0
 24 25  1  0
  1 26  1  0
  1 27  1  0
  2 28  1  0
  2 29  1  0
  4 30  1  1
  5 31  1  0
  6 32  1  0
  7 33  1  0
  7 34  1  0
  7 35  1  0
  8 36  1  0
  9 37  1  0
 10 38  1  0
 14 39  1  0
 15 40  1  0
 16 41  1  0
 16 42  1  0
 17 43  1  0
 17 44  1  0
 19 45  1  6
 20 46  1  0
 21 47  1  0
 22 48  1  0
 22 49  1  0
 22 50  1  0
 23 51  1  0
 24 52  1  0
 25 53  1  0
M  END
> <Uni-Dock RESULT> 
ENERGY=   -4.980  LOWER_BOUND=    8.577  UPPER_BOUND=   11.045
INTER + INTRA:          -4.980
INTER:                  -4.980
INTRA:                   0.000
UNBOUND:                 0.000

$$$$

     RDKit          3D

 53 52  0  0  0  0  0  0  0  0999 V2000
   47.8372    5.8485   13.3448 C   0  0  0  0  0  0  0  0  0  0  0  0
   45.9644    5.8247   11.6788 N   0  0  0  0  0  0  0  0  0  0  0  0
   48.2855    7.2681   13.0805 C   0  0  0  0  0  0  0  0  0  0  0  0
   46.3332    5.6098   13.0842 C   0  0  1  0  0  0  0  0  0  0  0  0
   49.0881    7.5664   11.9709 C   0  0  0  0  0  0  0  0  0  0  0  0
   47.8990    8.3075   13.9378 C   0  0  0  0  0  0  0  0  0  0  0  0
   45.9482    4.1828   13.4721 C   0  0  0  0  0  0  0  0  0  0  0  0
   49.4928    8.8791   11.7227 C   0  0  0  0  0  0  0  0  0  0  0  0
   48.3047    9.6194   13.6877 C   0  0  0  0  0  0  0  0  0  0  0  0
   49.1008    9.9048   12.5803 C   0  0  0  0  0  0  0  0  0  0  0  0
   47.4242    7.0883   13.2546 S   0  0  0  0  0  0  0  0  0  0  0  0
   46.8239    8.3913   13.1226 O   0  0  0  0  0  0  0  0  0  0  0  0
   47.4544    6.3392   14.4847 O   0  0  0  0  0  0  0  0  0  0  0  0
   48.9263    7.2237   12.7079 O   0  0  0  0  0  0  0  0  0  0  0  0
   46.7794    6.1203   12.1497 O   0  0  0  0  0  0  0  0  0  0  0  0
   48.2116    7.3561   13.7053 C   0  0  0  0  0  0  0  0  0  0  0  0
   48.4793    8.8319   11.7108 N   0  0  0  0  0  0  0  0  0  0  0  0
   47.0164    6.4978   13.3575 C   0  0  0  0  0  0  0  0  0  0  0  0
   49.0787    7.7355   12.4846 C   0  0  1  0  0  0  0  0  0  0  0  0
   45.8475    7.0749   12.8446 C   0  0  0  0  0  0  0  0  0  0  0  0
   47.0646    5.1076   13.5326 C   0  0  0  0  0  0  0  0  0  0  0  0
   50.4771    8.1612   12.9365 C   0  0  0  0  0  0  0  0  0  0  0  0
   44.7465    6.2801   12.5210 C   0  0  0  0  0  0  0  0  0  0  0  0
   45.9625    4.3137   13.2095 C   0  0  0  0  0  0  0  0  0  0  0  0
   44.8034    4.9002   12.7051 C   0  0  0  0  0  0  0  0  0  0  0  0
   48.4356    5.1533   12.7406 H   0  0  0  0  0  0  0  0  0  0  0  0
   48.0731    5.6085   14.3901 H   0  0  0  0  0  0  0  0  0  0  0  0
   46.5430    5.2385   11.0786 H   0  0  0  0  0  0  0  0  0  0  0  0
   46.1964    6.7873   11.4250 H   0  0  0  0  0  0  0  0  0  0  0  0
   45.7395    6.3003   13.6948 H   0  0  0  0  0  0  0  0  0  0  0  0
   49.4038    6.7786   11.2909 H   0  0  0  0  0  0  0  0  0  0  0  0
   47.2783    8.1018   14.8071 H   0  0  0  0  0  0  0  0  0  0  0  0
   44.8779    4.0080   13.3150 H   0  0  0  0  0  0  0  0  0  0  0  0
   46.5020    3.4417   12.8846 H   0  0  0  0  0  0  0  0  0  0  0  0
   46.1606    4.0000   14.5309 H   0  0  0  0  0  0  0  0  0  0  0  0
   50.1153    9.1013   10.8598 H   0  0  0  0  0  0  0  0  0  0  0  0
   47.9993   10.4188   14.3577 H   0  0  0  0  0  0  0  0  0  0  0  0
   49.4165   10.9265   12.3866 H   0  0  0  0  0  0  0  0  0  0  0  0
   48.9313    7.9538   12.0547 H   0  0  0  0  0  0  0  0  0  0  0  0
   46.9704    5.1998   12.4254 H   0  0  0  0  0  0  0  0  0  0  0  0
   48.8247    6.8099   14.4349 H   0  0  0  0  0  0  0  0  0  0  0  0
   47.8706    8.2555   14.2358 H   0  0  0  0  0  0  0  0  0  0  0  0
   48.4489    9.6789   12.2763 H   0  0  0  0  0  0  0  0  0  0  0  0
   49.0709    9.0453   10.9088 H   0  0  0  0  0  0  0  0  0  0  0  0
   49.1812    6.8667   11.8231 H   0  0  0  0  0  0  0  0  0  0  0  0
   45.7947    8.1494   12.6843 H   0  0  0  0  0  0  0  0  0  0  0  0
   47.9618    4.6328   13.9224 H   0  0  0  0  0  0  0  0  0  0  0  0
   50.9758    7.3446   13.4698 H   0  0  0  0  0  0  0  0  0  0  0  0
   51.1055    8.4252   12.0786 H   0  0  0  0  0  0  0  0  0  0  0  0
   50.4368    9.0269   13.6073 H   0  0  0  0  0  0  0  0  0  0  0  0
   43.8471    6.7396   12.1204 H   0  0  0  0  0  0  0  0  0  0  0  0
   46.0093    3.2373   13.3499 H   0  0  0  0  0  0  0  0  0  0  0  0
   43.9466    4.2822   12.4512 H   0  0  0  0  0  0  0  0  0  0  0  0
  4  2  1  0
  3  1  1  0
  4  1  1  0
  5  3  2  0
  6  3  1  0
  4  7  1  0
  8  5  1  0
  9  6  2  0
 10  8  2  0
  9 10  1  0
 12 11  2  0
 13 11  2  0
 14 11  1  0
 15 11  1  0
 19 17  1  0
 18 16  1  0
 19 16  1  0
 20 18  2  0
 21 18  1  0
 19 22  1  0
 23 20  1  0
 24 21  2  0
 25 23  2  0
 24 25  1  0
  1 26  1  0
  1 27  1  0
  2 28  1  0
  2 29  1  0
  4 30  1  1
  5 31  1  0
  6 32  1  0
  7 33  1  0
  7 34  1  0
  7 35  1  0
  8 36  1  0
  9 37  1  0
 10 38  1  0
 14 39  1  0
 15 40  1  0
 16 41  1  0
 16 42  1  0
 17 43  1  0
 17 44  1  0
 19 45  1  6
 20 46  1  0
 21 47  1  0
 22 48  1  0
 22 49  1  0
 22 50  1  0
 23 51  1  0
 24 52  1  0
 25 53  1  0
M  END
> <Uni-Dock RESULT> 
ENERGY=   -4.918  LOWER_BOUND=    4.378  UPPER_BOUND=    5.805
INTER + INTRA:          -4.918
INTER:                  -4.918
INTRA:                   0.000
UNBOUND:                 0.000

$$$$

     RDKit          3D

 53 52  0  0  0  0  0  0  0  0999 V2000
   40.5126   12.0964   13.9746 C   0  0  0  0  0  0  0  0  0  0  0  0
   38.0061   12.1216   13.9696 N   0  0  0  0  0  0  0  0  0  0  0  0
   40.6884   12.0899   12.4728 C   0  0  0  0  0  0  0  0  0  0  0  0
   39.2196   12.7962   14.4490 C   0  0  1  0  0  0  0  0  0  0  0  0
   40.5429   10.9015   11.7441 C   0  0  0  0  0  0  0  0  0  0  0  0
   40.9926   13.2738   11.7870 C   0  0  0  0  0  0  0  0  0  0  0  0
   39.1736   12.8461   15.9755 C   0  0  0  0  0  0  0  0  0  0  0  0
   40.6955   10.8990   10.3566 C   0  0  0  0  0  0  0  0  0  0  0  0
   41.1447   13.2691   10.3995 C   0  0  0  0  0  0  0  0  0  0  0  0
   40.9956   12.0823    9.6849 C   0  0  0  0  0  0  0  0  0  0  0  0
   40.1642   12.7020   12.8666 S   0  0  0  0  0  0  0  0  0  0  0  0
   39.6498   13.4185   11.7275 O   0  0  0  0  0  0  0  0  0  0  0  0
   41.0012   13.2958   13.8776 O   0  0  0  0  0  0  0  0  0  0  0  0
   40.9126   11.4067   12.2872 O   0  0  0  0  0  0  0  0  0  0  0  0
   38.9306   12.0266   13.6383 O   0  0  0  0  0  0  0  0  0  0  0  0
   41.0542   12.6014   12.5623 C   0  0  0  0  0  0  0  0  0  0  0  0
   39.9356   11.5219   10.6101 N   0  0  0  0  0  0  0  0  0  0  0  0
   39.9224   12.8410   13.5357 C   0  0  0  0  0  0  0  0  0  0  0  0
   40.8832   11.3210   11.7155 C   0  0  1  0  0  0  0  0  0  0  0  0
   38.7202   13.4176   13.1058 C   0  0  0  0  0  0  0  0  0  0  0  0
   40.0553   12.4782   14.8835 C   0  0  0  0  0  0  0  0  0  0  0  0
   42.2292   10.8830   11.1346 C   0  0  0  0  0  0  0  0  0  0  0  0
   37.6754   13.6347   14.0055 C   0  0  0  0  0  0  0  0  0  0  0  0
   39.0099   12.6967   15.7828 C   0  0  0  0  0  0  0  0  0  0  0  0
   37.8209   13.2759   15.3440 C   0  0  0  0  0  0  0  0  0  0  0  0
   40.5405   11.0663   14.3546 H   0  0  0  0  0  0  0  0  0  0  0  0
   41.3856   12.5965   14.4150 H   0  0  0  0  0  0  0  0  0  0  0  0
   38.0235   11.1425   14.2516 H   0  0  0  0  0  0  0  0  0  0  0  0
   38.0219   12.1110   12.9476 H   0  0  0  0  0  0  0  0  0  0  0  0
   39.1995   13.8263   14.0741 H   0  0  0  0  0  0  0  0  0  0  0  0
   40.3089    9.9686   12.2517 H   0  0  0  0  0  0  0  0  0  0  0  0
   41.1129   14.2088   12.3297 H   0  0  0  0  0  0  0  0  0  0  0  0
   38.2723   13.3623   16.3250 H   0  0  0  0  0  0  0  0  0  0  0  0
   39.1789   11.8411   16.4124 H   0  0  0  0  0  0  0  0  0  0  0  0
   40.0390   13.3893   16.3702 H   0  0  0  0  0  0  0  0  0  0  0  0
   40.5810    9.9727    9.7995 H   0  0  0  0  0  0  0  0  0  0  0  0
   41.3797   14.1923    9.8763 H   0  0  0  0  0  0  0  0  0  0  0  0
   41.1145   12.0795    8.6046 H   0  0  0  0  0  0  0  0  0  0  0  0
   40.4886   11.1865   11.4318 H   0  0  0  0  0  0  0  0  0  0  0  0
   39.2437   11.7963   14.5376 H   0  0  0  0  0  0  0  0  0  0  0  0
   41.9903   12.5406   13.1337 H   0  0  0  0  0  0  0  0  0  0  0  0
   41.1707   13.4828   11.9170 H   0  0  0  0  0  0  0  0  0  0  0  0
   40.3051   12.2123    9.9582 H   0  0  0  0  0  0  0  0  0  0  0  0
   39.8390   10.6549   10.0831 H   0  0  0  0  0  0  0  0  0  0  0  0
   40.5025   10.5105   12.3488 H   0  0  0  0  0  0  0  0  0  0  0  0
   38.5893   13.6904   12.0609 H   0  0  0  0  0  0  0  0  0  0  0  0
   40.9749   12.0226   15.2426 H   0  0  0  0  0  0  0  0  0  0  0  0
   42.9448   10.6700   11.9361 H   0  0  0  0  0  0  0  0  0  0  0  0
   42.1230    9.9701   10.5380 H   0  0  0  0  0  0  0  0  0  0  0  0
   42.6623   11.6593   10.4936 H   0  0  0  0  0  0  0  0  0  0  0  0
   36.7466   14.0791   13.6586 H   0  0  0  0  0  0  0  0  0  0  0  0
   39.1230   12.4131   16.8255 H   0  0  0  0  0  0  0  0  0  0  0  0
   37.0064   13.4436   16.0433 H   0  0  0  0  0  0  0  0  0  0  0  0
  4  2  1  0
  3  1  1  0
  4  1  1  0
  5  3  2  0
  6  3  1  0
  4  7  1  0
  8  5  1  0
  9  6  2  0
 10  8  2  0
  9 10  1  0
 12 11  2  0
 13 11  2  0
 14 11  1  0
 15 11  1  0
 19 17  1  0
 18 16  1  0
 19 16  1  0
 20 18  2  0
 21 18  1  0
 19 22  1  0
 23 20  1  0
 24 21  2  0
 25 23  2  0
 24 25  1  0
  1 26  1  0
  1 27  1  0
  2 28  1  0
  2 29  1  0
  4 30  1  1
  5 31  1  0
  6 32  1  0
  7 33  1  0
  7 34  1  0
  7 35  1  0
  8 36  1  0
  9 37  1  0
 10 38  1  0
 14 39  1  0
 15 40  1  0
 16 41  1  0
 16 42  1  0
 17 43  1  0
 17 44  1  0
 19 45  1  6
 20 46  1  0
 21 47  1  0
 22 48  1  0
 22 49  1  0
 22 50  1  0
 23 51  1  0
 24 52  1  0
 25 53  1  0
M  END
> <Uni-Dock RESULT> 
ENERGY=   -4.781  LOWER_BOUND=    7.797  UPPER_BOUND=   10.536
INTER + INTRA:          -4.781
INTER:                  -4.781
INTRA:                   0.000
UNBOUND:                 0.000

$$$$
