
     RDKit          3D

 53 52  0  0  0  0  0  0  0  0999 V2000
   44.4957    4.2400    8.6952 C   0  0  0  0  0  0  0  0  0  0  0  0
   45.4722    1.9557    8.9316 N   0  0  0  0  0  0  0  0  0  0  0  0
   44.0889    4.6029   10.1055 C   0  0  0  0  0  0  0  0  0  0  0  0
   45.7647    3.3624    8.6224 C   0  0  1  0  0  0  0  0  0  0  0  0
   43.3742    3.6958   10.8987 C   0  0  0  0  0  0  0  0  0  0  0  0
   44.4316    5.8506   10.6453 C   0  0  0  0  0  0  0  0  0  0  0  0
   46.3857    3.4391    7.2261 C   0  0  0  0  0  0  0  0  0  0  0  0
   43.0027    4.0318   12.2015 C   0  0  0  0  0  0  0  0  0  0  0  0
   44.0584    6.1859   11.9482 C   0  0  0  0  0  0  0  0  0  0  0  0
   43.3432    5.2771   12.7256 C   0  0  0  0  0  0  0  0  0  0  0  0
   44.7400    3.6899    9.9987 S   0  0  0  0  0  0  0  0  0  0  0  0
   44.3190    2.4849    9.3307 O   0  0  0  0  0  0  0  0  0  0  0  0
   45.2920    3.7195   11.3290 O   0  0  0  0  0  0  0  0  0  0  0  0
   43.5149    4.7257    9.9929 O   0  0  0  0  0  0  0  0  0  0  0  0
   45.7680    4.4220    9.0083 O   0  0  0  0  0  0  0  0  0  0  0  0
   45.1009    4.7646   10.5551 C   0  0  0  0  0  0  0  0  0  0  0  0
   42.9908    3.7924   11.4662 N   0  0  0  0  0  0  0  0  0  0  0  0
   45.4345    3.8643    9.3871 C   0  0  0  0  0  0  0  0  0  0  0  0
   43.5842    4.9497   10.7819 C   0  0  1  0  0  0  0  0  0  0  0  0
   45.7765    4.4121    8.1426 C   0  0  0  0  0  0  0  0  0  0  0  0
   45.3962    2.4708    9.5253 C   0  0  0  0  0  0  0  0  0  0  0  0
   43.3201    6.2032   11.6186 C   0  0  0  0  0  0  0  0  0  0  0  0
   46.0824    3.5818    7.0626 C   0  0  0  0  0  0  0  0  0  0  0  0
   45.7012    1.6417    8.4446 C   0  0  0  0  0  0  0  0  0  0  0  0
   46.0458    2.1970    7.2141 C   0  0  0  0  0  0  0  0  0  0  0  0
   44.6612    5.1710    8.1363 H   0  0  0  0  0  0  0  0  0  0  0  0
   43.6531    3.7495    8.1891 H   0  0  0  0  0  0  0  0  0  0  0  0
   44.8514    1.5670    8.2232 H   0  0  0  0  0  0  0  0  0  0  0  0
   46.3328    1.4114    8.8864 H   0  0  0  0  0  0  0  0  0  0  0  0
   46.5036    3.7250    9.3473 H   0  0  0  0  0  0  0  0  0  0  0  0
   43.1133    2.7156   10.5058 H   0  0  0  0  0  0  0  0  0  0  0  0
   44.9918    6.5709   10.0541 H   0  0  0  0  0  0  0  0  0  0  0  0
   46.6683    4.4697    6.9853 H   0  0  0  0  0  0  0  0  0  0  0  0
   47.2924    2.8269    7.1636 H   0  0  0  0  0  0  0  0  0  0  0  0
   45.6877    3.0921    6.4559 H   0  0  0  0  0  0  0  0  0  0  0  0
   42.4519    3.3177   12.8078 H   0  0  0  0  0  0  0  0  0  0  0  0
   44.3277    7.1559   12.3572 H   0  0  0  0  0  0  0  0  0  0  0  0
   43.0550    5.5369   13.7404 H   0  0  0  0  0  0  0  0  0  0  0  0
   43.7044    5.4009   10.6769 H   0  0  0  0  0  0  0  0  0  0  0  0
   45.5335    4.1508    8.0966 H   0  0  0  0  0  0  0  0  0  0  0  0
   45.5672    5.7431   10.3773 H   0  0  0  0  0  0  0  0  0  0  0  0
   45.5862    4.3779   11.4616 H   0  0  0  0  0  0  0  0  0  0  0  0
   43.3811    3.7066   12.4036 H   0  0  0  0  0  0  0  0  0  0  0  0
   41.9903    3.9446   11.5865 H   0  0  0  0  0  0  0  0  0  0  0  0
   43.0808    5.0700    9.8150 H   0  0  0  0  0  0  0  0  0  0  0  0
   45.8072    5.4902    8.0056 H   0  0  0  0  0  0  0  0  0  0  0  0
   45.1163    2.0247   10.4771 H   0  0  0  0  0  0  0  0  0  0  0  0
   43.8055    6.1417   12.5991 H   0  0  0  0  0  0  0  0  0  0  0  0
   42.2463    6.3507   11.7798 H   0  0  0  0  0  0  0  0  0  0  0  0
   43.7011    7.0950   11.1092 H   0  0  0  0  0  0  0  0  0  0  0  0
   46.3474    4.0159    6.1024 H   0  0  0  0  0  0  0  0  0  0  0  0
   45.6640    0.5624    8.5639 H   0  0  0  0  0  0  0  0  0  0  0  0
   46.2814    1.5509    6.3730 H   0  0  0  0  0  0  0  0  0  0  0  0
  4  2  1  0
  3  1  1  0
  4  1  1  0
  5  3  2  0
  6  3  1  0
  4  7  1  0
  8  5  1  0
  9  6  2  0
 10  8  2  0
  9 10  1  0
 12 11  2  0
 13 11  2  0
 14 11  1  0
 15 11  1  0
 19 17  1  0
 18 16  1  0
 19 16  1  0
 20 18  2  0
 21 18  1  0
 19 22  1  0
 23 20  1  0
 24 21  2  0
 25 23  2  0
 24 25  1  0
  1 26  1  0
  1 27  1  0
  2 28  1  0
  2 29  1  0
  4 30  1  1
  5 31  1  0
  6 32  1  0
  7 33  1  0
  7 34  1  0
  7 35  1  0
  8 36  1  0
  9 37  1  0
 10 38  1  0
 14 39  1  0
 15 40  1  0
 16 41  1  0
 16 42  1  0
 17 43  1  0
 17 44  1  0
 19 45  1  6
 20 46  1  0
 21 47  1  0
 22 48  1  0
 22 49  1  0
 22 50  1  0
 23 51  1  0
 24 52  1  0
 25 53  1  0
M  END
> <Uni-Dock RESULT> 
ENERGY=   -7.279  LOWER_BOUND=    0.000  UPPER_BOUND=    0.000
INTER + INTRA:          -7.279
INTER:                  -7.279
INTRA:                   0.000
UNBOUND:                 0.000

$$$$

     RDKit          3D

 53 52  0  0  0  0  0  0  0  0999 V2000
   45.5253    3.0944   10.0560 C   0  0  0  0  0  0  0  0  0  0  0  0
   45.8887    4.0841    7.7941 N   0  0  0  0  0  0  0  0  0  0  0  0
   44.6580    4.1150   10.7578 C   0  0  0  0  0  0  0  0  0  0  0  0
   45.2534    2.9881    8.5392 C   0  0  1  0  0  0  0  0  0  0  0  0
   44.9814    5.4774   10.7156 C   0  0  0  0  0  0  0  0  0  0  0  0
   43.5087    3.7131   11.4531 C   0  0  0  0  0  0  0  0  0  0  0  0
   45.7778    1.6571    7.9963 C   0  0  0  0  0  0  0  0  0  0  0  0
   44.1774    6.4180   11.3614 C   0  0  0  0  0  0  0  0  0  0  0  0
   42.7059    4.6548   12.0997 C   0  0  0  0  0  0  0  0  0  0  0  0
   43.0409    6.0067   12.0547 C   0  0  0  0  0  0  0  0  0  0  0  0
   44.7845    4.2545    9.6472 S   0  0  0  0  0  0  0  0  0  0  0  0
   46.0436    4.5704    9.0224 O   0  0  0  0  0  0  0  0  0  0  0  0
   43.5714    5.0009    9.4314 O   0  0  0  0  0  0  0  0  0  0  0  0
   45.0074    4.2006   11.2350 O   0  0  0  0  0  0  0  0  0  0  0  0
   44.4925    2.7106    9.3238 O   0  0  0  0  0  0  0  0  0  0  0  0
   43.6961    3.9495   10.2102 C   0  0  0  0  0  0  0  0  0  0  0  0
   44.7835    6.0040   11.1179 N   0  0  0  0  0  0  0  0  0  0  0  0
   44.7017    3.4241    9.2109 C   0  0  0  0  0  0  0  0  0  0  0  0
   44.3397    4.6390   11.4335 C   0  0  1  0  0  0  0  0  0  0  0  0
   45.0638    2.0697    9.2121 C   0  0  0  0  0  0  0  0  0  0  0  0
   45.2958    4.2824    8.2766 C   0  0  0  0  0  0  0  0  0  0  0  0
   43.3443    4.7025   12.5937 C   0  0  0  0  0  0  0  0  0  0  0  0
   45.9942    1.5838    8.2912 C   0  0  0  0  0  0  0  0  0  0  0  0
   46.2265    3.7958    7.3572 C   0  0  0  0  0  0  0  0  0  0  0  0
   46.5743    2.4466    7.3634 C   0  0  0  0  0  0  0  0  0  0  0  0
   45.3549    2.1175   10.5284 H   0  0  0  0  0  0  0  0  0  0  0  0
   46.5825    3.3234   10.2474 H   0  0  0  0  0  0  0  0  0  0  0  0
   46.9021    4.0181    7.8777 H   0  0  0  0  0  0  0  0  0  0  0  0
   45.6774    3.9880    6.8016 H   0  0  0  0  0  0  0  0  0  0  0  0
   44.1729    3.0319    8.3562 H   0  0  0  0  0  0  0  0  0  0  0  0
   45.8588    5.8128   10.1670 H   0  0  0  0  0  0  0  0  0  0  0  0
   43.2307    2.6629   11.4963 H   0  0  0  0  0  0  0  0  0  0  0  0
   45.2821    0.8156    8.4925 H   0  0  0  0  0  0  0  0  0  0  0  0
   45.5835    1.5654    6.9219 H   0  0  0  0  0  0  0  0  0  0  0  0
   46.8570    1.5547    8.1564 H   0  0  0  0  0  0  0  0  0  0  0  0
   44.4370    7.4722   11.3176 H   0  0  0  0  0  0  0  0  0  0  0  0
   41.8178    4.3334   12.6368 H   0  0  0  0  0  0  0  0  0  0  0  0
   42.4148    6.7399   12.5555 H   0  0  0  0  0  0  0  0  0  0  0  0
   44.1244    4.2724   11.6533 H   0  0  0  0  0  0  0  0  0  0  0  0
   45.3597    2.2735    9.1946 H   0  0  0  0  0  0  0  0  0  0  0  0
   43.0768    3.1074   10.5478 H   0  0  0  0  0  0  0  0  0  0  0  0
   42.9996    4.6296    9.7011 H   0  0  0  0  0  0  0  0  0  0  0  0
   43.9788    6.5861   10.8900 H   0  0  0  0  0  0  0  0  0  0  0  0
   45.2132    6.4213   11.9425 H   0  0  0  0  0  0  0  0  0  0  0  0
   45.2133    4.0630   11.7617 H   0  0  0  0  0  0  0  0  0  0  0  0
   44.6233    1.3829    9.9307 H   0  0  0  0  0  0  0  0  0  0  0  0
   45.0425    5.3402    8.2696 H   0  0  0  0  0  0  0  0  0  0  0  0
   42.4442    5.2648   12.3210 H   0  0  0  0  0  0  0  0  0  0  0  0
   43.7917    5.1824   13.4714 H   0  0  0  0  0  0  0  0  0  0  0  0
   43.0348    3.6952   12.8926 H   0  0  0  0  0  0  0  0  0  0  0  0
   46.2674    0.5322    8.2995 H   0  0  0  0  0  0  0  0  0  0  0  0
   46.6830    4.4727    6.6403 H   0  0  0  0  0  0  0  0  0  0  0  0
   47.3002    2.0690    6.6485 H   0  0  0  0  0  0  0  0  0  0  0  0
  4  2  1  0
  3  1  1  0
  4  1  1  0
  5  3  2  0
  6  3  1  0
  4  7  1  0
  8  5  1  0
  9  6  2  0
 10  8  2  0
  9 10  1  0
 12 11  2  0
 13 11  2  0
 14 11  1  0
 15 11  1  0
 19 17  1  0
 18 16  1  0
 19 16  1  0
 20 18  2  0
 21 18  1  0
 19 22  1  0
 23 20  1  0
 24 21  2  0
 25 23  2  0
 24 25  1  0
  1 26  1  0
  1 27  1  0
  2 28  1  0
  2 29  1  0
  4 30  1  1
  5 31  1  0
  6 32  1  0
  7 33  1  0
  7 34  1  0
  7 35  1  0
  8 36  1  0
  9 37  1  0
 10 38  1  0
 14 39  1  0
 15 40  1  0
 16 41  1  0
 16 42  1  0
 17 43  1  0
 17 44  1  0
 19 45  1  6
 20 46  1  0
 21 47  1  0
 22 48  1  0
 22 49  1  0
 22 50  1  0
 23 51  1  0
 24 52  1  0
 25 53  1  0
M  END
> <Uni-Dock RESULT> 
ENERGY=   -7.138  LOWER_BOUND=    0.971  UPPER_BOUND=    2.054
INTER + INTRA:          -7.138
INTER:                  -7.138
INTRA:                   0.000
UNBOUND:                 0.000

$$$$

     RDKit          3D

 53 52  0  0  0  0  0  0  0  0999 V2000
   45.8894    3.9546    9.1226 C   0  0  0  0  0  0  0  0  0  0  0  0
   44.1756    2.4654   10.1585 N   0  0  0  0  0  0  0  0  0  0  0  0
   46.3604    3.1734    7.9168 C   0  0  0  0  0  0  0  0  0  0  0  0
   44.3971    3.7380    9.4574 C   0  0  1  0  0  0  0  0  0  0  0  0
   46.6956    1.8179    8.0301 C   0  0  0  0  0  0  0  0  0  0  0  0
   46.4578    3.7924    6.6626 C   0  0  0  0  0  0  0  0  0  0  0  0
   43.8773    4.8785   10.3350 C   0  0  0  0  0  0  0  0  0  0  0  0
   47.1269    1.0979    6.9148 C   0  0  0  0  0  0  0  0  0  0  0  0
   46.8905    3.0715    5.5480 C   0  0  0  0  0  0  0  0  0  0  0  0
   47.2260    1.7249    5.6744 C   0  0  0  0  0  0  0  0  0  0  0  0
   45.4361    2.7825    8.4283 S   0  0  0  0  0  0  0  0  0  0  0  0
   45.4302    2.2556    9.7692 O   0  0  0  0  0  0  0  0  0  0  0  0
   44.8946    2.0858    7.2896 O   0  0  0  0  0  0  0  0  0  0  0  0
   46.9440    3.1739    8.0454 O   0  0  0  0  0  0  0  0  0  0  0  0
   44.7514    4.2311    8.5072 O   0  0  0  0  0  0  0  0  0  0  0  0
   45.4560    3.2740    7.2653 C   0  0  0  0  0  0  0  0  0  0  0  0
   47.0739    1.4077    7.6214 N   0  0  0  0  0  0  0  0  0  0  0  0
   44.8611    3.4985    8.6371 C   0  0  0  0  0  0  0  0  0  0  0  0
   46.9364    2.8342    7.2958 C   0  0  1  0  0  0  0  0  0  0  0  0
   44.7624    4.7933    9.1657 C   0  0  0  0  0  0  0  0  0  0  0  0
   44.4103    2.4177    9.4059 C   0  0  0  0  0  0  0  0  0  0  0  0
   47.5971    3.0942    5.9405 C   0  0  0  0  0  0  0  0  0  0  0  0
   44.2154    5.0016   10.4333 C   0  0  0  0  0  0  0  0  0  0  0  0
   43.8646    2.6271   10.6735 C   0  0  0  0  0  0  0  0  0  0  0  0
   43.7657    3.9188   11.1863 C   0  0  0  0  0  0  0  0  0  0  0  0
   46.0713    5.0210    8.9321 H   0  0  0  0  0  0  0  0  0  0  0  0
   46.5224    3.7070    9.9856 H   0  0  0  0  0  0  0  0  0  0  0  0
   44.6412    2.4834   11.0646 H   0  0  0  0  0  0  0  0  0  0  0  0
   43.1812    2.3515   10.3508 H   0  0  0  0  0  0  0  0  0  0  0  0
   43.8114    3.7237    8.5302 H   0  0  0  0  0  0  0  0  0  0  0  0
   46.6104    1.3135    8.9901 H   0  0  0  0  0  0  0  0  0  0  0  0
   46.1975    4.8415    6.5450 H   0  0  0  0  0  0  0  0  0  0  0  0
   43.9759    5.8392    9.8179 H   0  0  0  0  0  0  0  0  0  0  0  0
   42.8166    4.7411   10.5729 H   0  0  0  0  0  0  0  0  0  0  0  0
   44.4313    4.9449   11.2781 H   0  0  0  0  0  0  0  0  0  0  0  0
   47.3802    0.0460    7.0152 H   0  0  0  0  0  0  0  0  0  0  0  0
   46.9637    3.5604    4.5804 H   0  0  0  0  0  0  0  0  0  0  0  0
   47.5601    1.1631    4.8066 H   0  0  0  0  0  0  0  0  0  0  0  0
   46.9829    3.2535    7.0698 H   0  0  0  0  0  0  0  0  0  0  0  0
   44.9007    4.5722    9.4135 H   0  0  0  0  0  0  0  0  0  0  0  0
   45.3626    4.2078    6.6946 H   0  0  0  0  0  0  0  0  0  0  0  0
   44.8436    2.5436    6.7191 H   0  0  0  0  0  0  0  0  0  0  0  0
   46.6541    0.8422    6.8850 H   0  0  0  0  0  0  0  0  0  0  0  0
   48.0617    1.1579    7.6451 H   0  0  0  0  0  0  0  0  0  0  0  0
   47.4750    3.4118    8.0568 H   0  0  0  0  0  0  0  0  0  0  0  0
   45.1109    5.6495    8.5933 H   0  0  0  0  0  0  0  0  0  0  0  0
   44.4936    1.4033    9.0223 H   0  0  0  0  0  0  0  0  0  0  0  0
   47.0955    2.5440    5.1365 H   0  0  0  0  0  0  0  0  0  0  0  0
   48.6509    2.7940    5.9514 H   0  0  0  0  0  0  0  0  0  0  0  0
   47.5622    4.1605    5.6920 H   0  0  0  0  0  0  0  0  0  0  0  0
   44.1422    6.0091   10.8338 H   0  0  0  0  0  0  0  0  0  0  0  0
   43.5222    1.7799   11.2613 H   0  0  0  0  0  0  0  0  0  0  0  0
   43.3424    4.0806   12.1738 H   0  0  0  0  0  0  0  0  0  0  0  0
  4  2  1  0
  3  1  1  0
  4  1  1  0
  5  3  2  0
  6  3  1  0
  4  7  1  0
  8  5  1  0
  9  6  2  0
 10  8  2  0
  9 10  1  0
 12 11  2  0
 13 11  2  0
 14 11  1  0
 15 11  1  0
 19 17  1  0
 18 16  1  0
 19 16  1  0
 20 18  2  0
 21 18  1  0
 19 22  1  0
 23 20  1  0
 24 21  2  0
 25 23  2  0
 24 25  1  0
  1 26  1  0
  1 27  1  0
  2 28  1  0
  2 29  1  0
  4 30  1  1
  5 31  1  0
  6 32  1  0
  7 33  1  0
  7 34  1  0
  7 35  1  0
  8 36  1  0
  9 37  1  0
 10 38  1  0
 14 39  1  0
 15 40  1  0
 16 41  1  0
 16 42  1  0
 17 43  1  0
 17 44  1  0
 19 45  1  6
 20 46  1  0
 21 47  1  0
 22 48  1  0
 22 49  1  0
 22 50  1  0
 23 51  1  0
 24 52  1  0
 25 53  1  0
M  END
> <Uni-Dock RESULT> 
ENERGY=   -6.398  LOWER_BOUND=    1.359  UPPER_BOUND=    4.523
INTER + INTRA:          -6.398
INTER:                  -6.398
INTRA:                   0.000
UNBOUND:                 0.000

$$$$

     RDKit          3D

 53 52  0  0  0  0  0  0  0  0999 V2000
   46.2310    5.7872   13.6316 C   0  0  0  0  0  0  0  0  0  0  0  0
   46.1978    8.1072   12.7128 N   0  0  0  0  0  0  0  0  0  0  0  0
   45.1062    5.0948   12.8957 C   0  0  0  0  0  0  0  0  0  0  0  0
   46.9613    6.8535   12.7858 C   0  0  1  0  0  0  0  0  0  0  0  0
   43.8496    5.7027   12.7764 C   0  0  0  0  0  0  0  0  0  0  0  0
   45.3079    3.8367   12.3108 C   0  0  0  0  0  0  0  0  0  0  0  0
   48.3394    7.1521   13.3799 C   0  0  0  0  0  0  0  0  0  0  0  0
   42.8138    5.0631   12.0937 C   0  0  0  0  0  0  0  0  0  0  0  0
   44.2707    3.1974   11.6291 C   0  0  0  0  0  0  0  0  0  0  0  0
   43.0237    3.8100   11.5216 C   0  0  0  0  0  0  0  0  0  0  0  0
   45.4106    6.1031   12.4964 S   0  0  0  0  0  0  0  0  0  0  0  0
   45.2481    7.3325   13.2298 O   0  0  0  0  0  0  0  0  0  0  0  0
   44.9367    5.9022   11.1509 O   0  0  0  0  0  0  0  0  0  0  0  0
   44.8027    4.9062   13.3748 O   0  0  0  0  0  0  0  0  0  0  0  0
   46.9757    5.7533   12.5388 O   0  0  0  0  0  0  0  0  0  0  0  0
   45.5710    5.0122   11.8810 C   0  0  0  0  0  0  0  0  0  0  0  0
   43.2284    5.4367   12.6289 N   0  0  0  0  0  0  0  0  0  0  0  0
   46.3500    6.1653   12.4723 C   0  0  0  0  0  0  0  0  0  0  0  0
   44.3899    4.5460   12.7606 C   0  0  1  0  0  0  0  0  0  0  0  0
   47.5479    5.9338   13.1630 C   0  0  0  0  0  0  0  0  0  0  0  0
   45.8828    7.4803   12.3502 C   0  0  0  0  0  0  0  0  0  0  0  0
   43.9665    3.1272   12.3750 C   0  0  0  0  0  0  0  0  0  0  0  0
   48.2668    6.9976   13.7116 C   0  0  0  0  0  0  0  0  0  0  0  0
   46.6018    8.5430   12.8998 C   0  0  0  0  0  0  0  0  0  0  0  0
   47.7943    8.3018   13.5789 C   0  0  0  0  0  0  0  0  0  0  0  0
   46.9491    5.0224   13.9571 H   0  0  0  0  0  0  0  0  0  0  0  0
   45.8413    6.2261   14.5602 H   0  0  0  0  0  0  0  0  0  0  0  0
   46.1243    8.5226   13.6403 H   0  0  0  0  0  0  0  0  0  0  0  0
   46.7031    8.7802   12.1379 H   0  0  0  0  0  0  0  0  0  0  0  0
   47.1015    6.4788   11.7646 H   0  0  0  0  0  0  0  0  0  0  0  0
   43.6766    6.6863   13.2076 H   0  0  0  0  0  0  0  0  0  0  0  0
   46.2751    3.3452   12.3824 H   0  0  0  0  0  0  0  0  0  0  0  0
   48.9567    6.2474   13.3971 H   0  0  0  0  0  0  0  0  0  0  0  0
   48.8719    7.9017   12.7838 H   0  0  0  0  0  0  0  0  0  0  0  0
   48.2620    7.5270   14.4067 H   0  0  0  0  0  0  0  0  0  0  0  0
   41.8450    5.5470   12.0049 H   0  0  0  0  0  0  0  0  0  0  0  0
   44.4365    2.2219   11.1800 H   0  0  0  0  0  0  0  0  0  0  0  0
   42.2172    3.3138   10.9889 H   0  0  0  0  0  0  0  0  0  0  0  0
   44.6573    4.1492   12.7702 H   0  0  0  0  0  0  0  0  0  0  0  0
   47.3399    6.1567   13.3539 H   0  0  0  0  0  0  0  0  0  0  0  0
   46.2646    4.1749   11.7247 H   0  0  0  0  0  0  0  0  0  0  0  0
   45.2238    5.2863   10.8755 H   0  0  0  0  0  0  0  0  0  0  0  0
   42.8687    5.3987   11.6763 H   0  0  0  0  0  0  0  0  0  0  0  0
   42.4760    5.1059   13.2316 H   0  0  0  0  0  0  0  0  0  0  0  0
   44.6972    4.5385   13.8133 H   0  0  0  0  0  0  0  0  0  0  0  0
   47.9299    4.9224   13.2787 H   0  0  0  0  0  0  0  0  0  0  0  0
   44.9468    7.6807   11.8336 H   0  0  0  0  0  0  0  0  0  0  0  0
   43.6522    3.0722   11.3267 H   0  0  0  0  0  0  0  0  0  0  0  0
   43.1340    2.7811   12.9979 H   0  0  0  0  0  0  0  0  0  0  0  0
   44.7955    2.4251   12.5156 H   0  0  0  0  0  0  0  0  0  0  0  0
   49.1948    6.8080   14.2441 H   0  0  0  0  0  0  0  0  0  0  0  0
   46.2266    9.5579   12.8015 H   0  0  0  0  0  0  0  0  0  0  0  0
   48.3525    9.1294   14.0079 H   0  0  0  0  0  0  0  0  0  0  0  0
  4  2  1  0
  3  1  1  0
  4  1  1  0
  5  3  2  0
  6  3  1  0
  4  7  1  0
  8  5  1  0
  9  6  2  0
 10  8  2  0
  9 10  1  0
 12 11  2  0
 13 11  2  0
 14 11  1  0
 15 11  1  0
 19 17  1  0
 18 16  1  0
 19 16  1  0
 20 18  2  0
 21 18  1  0
 19 22  1  0
 23 20  1  0
 24 21  2  0
 25 23  2  0
 24 25  1  0
  1 26  1  0
  1 27  1  0
  2 28  1  0
  2 29  1  0
  4 30  1  1
  5 31  1  0
  6 32  1  0
  7 33  1  0
  7 34  1  0
  7 35  1  0
  8 36  1  0
  9 37  1  0
 10 38  1  0
 14 39  1  0
 15 40  1  0
 16 41  1  0
 16 42  1  0
 17 43  1  0
 17 44  1  0
 19 45  1  6
 20 46  1  0
 21 47  1  0
 22 48  1  0
 22 49  1  0
 22 50  1  0
 23 51  1  0
 24 52  1  0
 25 53  1  0
M  END
> <Uni-Dock RESULT> 
ENERGY=   -6.096  LOWER_BOUND=    3.037  UPPER_BOUND=    4.914
INTER + INTRA:          -6.096
INTER:                  -6.096
INTRA:                   0.000
UNBOUND:                 0.000

$$$$

     RDKit          3D

 53 52  0  0  0  0  0  0  0  0999 V2000
   45.3297    7.6909   11.6916 C   0  0  0  0  0  0  0  0  0  0  0  0
   47.7253    7.0730   12.0187 N   0  0  0  0  0  0  0  0  0  0  0  0
   44.6203    6.3567   11.6374 C   0  0  0  0  0  0  0  0  0  0  0  0
   46.5514    7.7054   12.6367 C   0  0  1  0  0  0  0  0  0  0  0  0
   45.1133    5.3174   10.8377 C   0  0  0  0  0  0  0  0  0  0  0  0
   43.4628    6.1359   12.3970 C   0  0  0  0  0  0  0  0  0  0  0  0
   46.9123    9.1425   13.0183 C   0  0  0  0  0  0  0  0  0  0  0  0
   44.4586    4.0855   10.7919 C   0  0  0  0  0  0  0  0  0  0  0  0
   42.8081    4.9036   12.3495 C   0  0  0  0  0  0  0  0  0  0  0  0
   43.3054    3.8792   11.5462 C   0  0  0  0  0  0  0  0  0  0  0  0
   45.6924    6.3324   11.9822 S   0  0  0  0  0  0  0  0  0  0  0  0
   46.8084    6.6788   11.1395 O   0  0  0  0  0  0  0  0  0  0  0  0
   45.6016    5.1043   12.7298 O   0  0  0  0  0  0  0  0  0  0  0  0
   44.3497    6.4326   11.1100 O   0  0  0  0  0  0  0  0  0  0  0  0
   45.4933    7.5583   12.9976 O   0  0  0  0  0  0  0  0  0  0  0  0
   44.6996    6.0602   12.7136 C   0  0  0  0  0  0  0  0  0  0  0  0
   44.8070    4.7470   10.5943 N   0  0  0  0  0  0  0  0  0  0  0  0
   45.8476    7.0361   12.5884 C   0  0  0  0  0  0  0  0  0  0  0  0
   44.0238    5.7217   11.3665 C   0  0  1  0  0  0  0  0  0  0  0  0
   45.6558    8.3978   12.8618 C   0  0  0  0  0  0  0  0  0  0  0  0
   47.1165    6.5989   12.1869 C   0  0  0  0  0  0  0  0  0  0  0  0
   42.6240    5.1505   11.6017 C   0  0  0  0  0  0  0  0  0  0  0  0
   46.7146    9.3004   12.7442 C   0  0  0  0  0  0  0  0  0  0  0  0
   48.1740    7.5023   12.0687 C   0  0  0  0  0  0  0  0  0  0  0  0
   47.9734    8.8524   12.3489 C   0  0  0  0  0  0  0  0  0  0  0  0
   44.6059    8.4506   12.0163 H   0  0  0  0  0  0  0  0  0  0  0  0
   45.6198    7.9894   10.6750 H   0  0  0  0  0  0  0  0  0  0  0  0
   48.0230    7.6129   11.2075 H   0  0  0  0  0  0  0  0  0  0  0  0
   48.5054    7.0897   12.6745 H   0  0  0  0  0  0  0  0  0  0  0  0
   46.3112    7.1562   13.5551 H   0  0  0  0  0  0  0  0  0  0  0  0
   46.0198    5.4615   10.2539 H   0  0  0  0  0  0  0  0  0  0  0  0
   43.0624    6.9229   13.0314 H   0  0  0  0  0  0  0  0  0  0  0  0
   46.0756    9.6269   13.5333 H   0  0  0  0  0  0  0  0  0  0  0  0
   47.7730    9.1664   13.6960 H   0  0  0  0  0  0  0  0  0  0  0  0
   47.1581    9.7434   12.1355 H   0  0  0  0  0  0  0  0  0  0  0  0
   44.8534    3.2862   10.1707 H   0  0  0  0  0  0  0  0  0  0  0  0
   41.9111    4.7425   12.9410 H   0  0  0  0  0  0  0  0  0  0  0  0
   42.7975    2.9194   11.5112 H   0  0  0  0  0  0  0  0  0  0  0  0
   43.6563    5.9330   11.5887 H   0  0  0  0  0  0  0  0  0  0  0  0
   45.8343    8.3612   12.5516 H   0  0  0  0  0  0  0  0  0  0  0  0
   43.9568    6.4913   13.3983 H   0  0  0  0  0  0  0  0  0  0  0  0
   45.0519    5.1474   13.2131 H   0  0  0  0  0  0  0  0  0  0  0  0
   44.8434    3.8590   11.0926 H   0  0  0  0  0  0  0  0  0  0  0  0
   44.3382    4.5587    9.7091 H   0  0  0  0  0  0  0  0  0  0  0  0
   43.9259    6.6341   10.7658 H   0  0  0  0  0  0  0  0  0  0  0  0
   44.6796    8.7654   13.1686 H   0  0  0  0  0  0  0  0  0  0  0  0
   47.2830    5.5498   11.9529 H   0  0  0  0  0  0  0  0  0  0  0  0
   42.6590    4.2357   12.2039 H   0  0  0  0  0  0  0  0  0  0  0  0
   42.1300    4.9138   10.6527 H   0  0  0  0  0  0  0  0  0  0  0  0
   41.9941    5.8762   12.1276 H   0  0  0  0  0  0  0  0  0  0  0  0
   46.5561   10.3536   12.9594 H   0  0  0  0  0  0  0  0  0  0  0  0
   49.1523    7.1511   11.7526 H   0  0  0  0  0  0  0  0  0  0  0  0
   48.7967    9.5551   12.2550 H   0  0  0  0  0  0  0  0  0  0  0  0
  4  2  1  0
  3  1  1  0
  4  1  1  0
  5  3  2  0
  6  3  1  0
  4  7  1  0
  8  5  1  0
  9  6  2  0
 10  8  2  0
  9 10  1  0
 12 11  2  0
 13 11  2  0
 14 11  1  0
 15 11  1  0
 19 17  1  0
 18 16  1  0
 19 16  1  0
 20 18  2  0
 21 18  1  0
 19 22  1  0
 23 20  1  0
 24 21  2  0
 25 23  2  0
 24 25  1  0
  1 26  1  0
  1 27  1  0
  2 28  1  0
  2 29  1  0
  4 30  1  1
  5 31  1  0
  6 32  1  0
  7 33  1  0
  7 34  1  0
  7 35  1  0
  8 36  1  0
  9 37  1  0
 10 38  1  0
 14 39  1  0
 15 40  1  0
 16 41  1  0
 16 42  1  0
 17 43  1  0
 17 44  1  0
 19 45  1  6
 20 46  1  0
 21 47  1  0
 22 48  1  0
 22 49  1  0
 22 50  1  0
 23 51  1  0
 24 52  1  0
 25 53  1  0
M  END
> <Uni-Dock RESULT> 
ENERGY=   -5.797  LOWER_BOUND=    2.868  UPPER_BOUND=    4.722
INTER + INTRA:          -5.797
INTER:                  -5.797
INTRA:                   0.000
UNBOUND:                 0.000

$$$$

     RDKit          3D

 53 52  0  0  0  0  0  0  0  0999 V2000
   45.2374    6.5863   11.1791 C   0  0  0  0  0  0  0  0  0  0  0  0
   43.6842    5.6523   12.8947 N   0  0  0  0  0  0  0  0  0  0  0  0
   46.3434    7.2102   11.9998 C   0  0  0  0  0  0  0  0  0  0  0  0
   44.6294    5.3191   11.8198 C   0  0  1  0  0  0  0  0  0  0  0  0
   46.0445    8.0378   13.0899 C   0  0  0  0  0  0  0  0  0  0  0  0
   47.6873    6.9599   11.6882 C   0  0  0  0  0  0  0  0  0  0  0  0
   43.8984    4.4871   10.7640 C   0  0  0  0  0  0  0  0  0  0  0  0
   47.0673    8.6099   13.8481 C   0  0  0  0  0  0  0  0  0  0  0  0
   48.7095    7.5337   12.4467 C   0  0  0  0  0  0  0  0  0  0  0  0
   48.3994    8.3593   13.5255 C   0  0  0  0  0  0  0  0  0  0  0  0
   45.6257    6.5477   12.5609 S   0  0  0  0  0  0  0  0  0  0  0  0
   44.2293    6.8554   12.7370 O   0  0  0  0  0  0  0  0  0  0  0  0
   46.5163    6.2112   13.6421 O   0  0  0  0  0  0  0  0  0  0  0  0
   46.3142    7.7598   11.7668 O   0  0  0  0  0  0  0  0  0  0  0  0
   45.6978    5.3793   11.4640 O   0  0  0  0  0  0  0  0  0  0  0  0
   46.8455    6.2816   12.3715 C   0  0  0  0  0  0  0  0  0  0  0  0
   46.4290    8.5056   13.4241 N   0  0  0  0  0  0  0  0  0  0  0  0
   45.4580    5.7665   12.0625 C   0  0  0  0  0  0  0  0  0  0  0  0
   46.9790    7.8156   12.2488 C   0  0  1  0  0  0  0  0  0  0  0  0
   45.1621    5.2352   10.7992 C   0  0  0  0  0  0  0  0  0  0  0  0
   44.4440    5.8220   13.0275 C   0  0  0  0  0  0  0  0  0  0  0  0
   48.4485    8.2112   12.0906 C   0  0  0  0  0  0  0  0  0  0  0  0
   43.8805    4.7615   10.5119 C   0  0  0  0  0  0  0  0  0  0  0  0
   43.1628    5.3489   12.7388 C   0  0  0  0  0  0  0  0  0  0  0  0
   42.8817    4.8174   11.4820 C   0  0  0  0  0  0  0  0  0  0  0  0
   45.6438    6.3379   10.1894 H   0  0  0  0  0  0  0  0  0  0  0  0
   44.4593    7.3378   10.9876 H   0  0  0  0  0  0  0  0  0  0  0  0
   42.8846    6.1533   12.5100 H   0  0  0  0  0  0  0  0  0  0  0  0
   43.3144    4.7937   13.3008 H   0  0  0  0  0  0  0  0  0  0  0  0
   45.4304    4.7040   12.2476 H   0  0  0  0  0  0  0  0  0  0  0  0
   45.0086    8.2310   13.3599 H   0  0  0  0  0  0  0  0  0  0  0  0
   47.9476    6.3161   10.8517 H   0  0  0  0  0  0  0  0  0  0  0  0
   44.5890    4.1732    9.9737 H   0  0  0  0  0  0  0  0  0  0  0  0
   43.4693    3.5801   11.2043 H   0  0  0  0  0  0  0  0  0  0  0  0
   43.0862    5.0547   10.2962 H   0  0  0  0  0  0  0  0  0  0  0  0
   46.8220    9.2468   14.6936 H   0  0  0  0  0  0  0  0  0  0  0  0
   49.7480    7.3346   12.1966 H   0  0  0  0  0  0  0  0  0  0  0  0
   49.1948    8.8037   14.1175 H   0  0  0  0  0  0  0  0  0  0  0  0
   47.2813    7.6818   11.9028 H   0  0  0  0  0  0  0  0  0  0  0  0
   44.9046    5.4672   10.8957 H   0  0  0  0  0  0  0  0  0  0  0  0
   47.5518    5.7960   11.6847 H   0  0  0  0  0  0  0  0  0  0  0  0
   47.1436    5.9433   13.3733 H   0  0  0  0  0  0  0  0  0  0  0  0
   46.9728    8.2668   14.2521 H   0  0  0  0  0  0  0  0  0  0  0  0
   46.5227    9.5131   13.3019 H   0  0  0  0  0  0  0  0  0  0  0  0
   46.4329    8.1616   11.3629 H   0  0  0  0  0  0  0  0  0  0  0  0
   45.9284    5.1865   10.0295 H   0  0  0  0  0  0  0  0  0  0  0  0
   44.6471    6.2463   14.0082 H   0  0  0  0  0  0  0  0  0  0  0  0
   49.0473    7.8853   12.9485 H   0  0  0  0  0  0  0  0  0  0  0  0
   48.5563    9.2974   11.9940 H   0  0  0  0  0  0  0  0  0  0  0  0
   48.8757    7.7576   11.1897 H   0  0  0  0  0  0  0  0  0  0  0  0
   43.6614    4.3505    9.5302 H   0  0  0  0  0  0  0  0  0  0  0  0
   42.3842    5.4013   13.4948 H   0  0  0  0  0  0  0  0  0  0  0  0
   41.8837    4.4510   11.2576 H   0  0  0  0  0  0  0  0  0  0  0  0
  4  2  1  0
  3  1  1  0
  4  1  1  0
  5  3  2  0
  6  3  1  0
  4  7  1  0
  8  5  1  0
  9  6  2  0
 10  8  2  0
  9 10  1  0
 12 11  2  0
 13 11  2  0
 14 11  1  0
 15 11  1  0
 19 17  1  0
 18 16  1  0
 19 16  1  0
 20 18  2  0
 21 18  1  0
 19 22  1  0
 23 20  1  0
 24 21  2  0
 25 23  2  0
 24 25  1  0
  1 26  1  0
  1 27  1  0
  2 28  1  0
  2 29  1  0
  4 30  1  1
  5 31  1  0
  6 32  1  0
  7 33  1  0
  7 34  1  0
  7 35  1  0
  8 36  1  0
  9 37  1  0
 10 38  1  0
 14 39  1  0
 15 40  1  0
 16 41  1  0
 16 42  1  0
 17 43  1  0
 17 44  1  0
 19 45  1  6
 20 46  1  0
 21 47  1  0
 22 48  1  0
 22 49  1  0
 22 50  1  0
 23 51  1  0
 24 52  1  0
 25 53  1  0
M  END
> <Uni-Dock RESULT> 
ENERGY=   -5.532  LOWER_BOUND=    3.176  UPPER_BOUND=    4.730
INTER + INTRA:          -5.532
INTER:                  -5.532
INTRA:                   0.000
UNBOUND:                 0.000

$$$$

     RDKit          3D

 53 52  0  0  0  0  0  0  0  0999 V2000
   44.6369    6.0166   12.9134 C   0  0  0  0  0  0  0  0  0  0  0  0
   44.9972    4.1120   11.3416 N   0  0  0  0  0  0  0  0  0  0  0  0
   45.9343    6.7897   12.8420 C   0  0  0  0  0  0  0  0  0  0  0  0
   44.2391    5.3485   11.5787 C   0  0  1  0  0  0  0  0  0  0  0  0
   47.1660    6.1284   12.9323 C   0  0  0  0  0  0  0  0  0  0  0  0
   45.9239    8.1814   12.6725 C   0  0  0  0  0  0  0  0  0  0  0  0
   42.7454    5.0169   11.5737 C   0  0  0  0  0  0  0  0  0  0  0  0
   48.3625    6.8439   12.8627 C   0  0  0  0  0  0  0  0  0  0  0  0
   47.1214    8.8961   12.6042 C   0  0  0  0  0  0  0  0  0  0  0  0
   48.3402    8.2275   12.7005 C   0  0  0  0  0  0  0  0  0  0  0  0
   45.7900    5.9936   12.0583 S   0  0  0  0  0  0  0  0  0  0  0  0
   45.7140    4.5863   12.3569 O   0  0  0  0  0  0  0  0  0  0  0  0
   46.6803    6.5592   11.0770 O   0  0  0  0  0  0  0  0  0  0  0  0
   46.0601    6.7870   13.4262 O   0  0  0  0  0  0  0  0  0  0  0  0
   44.2955    6.4663   11.7170 O   0  0  0  0  0  0  0  0  0  0  0  0
   45.8305    7.2330   11.8196 C   0  0  0  0  0  0  0  0  0  0  0  0
   47.7981    6.3640   13.0849 N   0  0  0  0  0  0  0  0  0  0  0  0
   44.9123    6.0360   11.7197 C   0  0  0  0  0  0  0  0  0  0  0  0
   46.6490    7.2791   13.1288 C   0  0  1  0  0  0  0  0  0  0  0  0
   43.5509    6.1565   12.0323 C   0  0  0  0  0  0  0  0  0  0  0  0
   45.4077    4.7865   11.3251 C   0  0  0  0  0  0  0  0  0  0  0  0
   47.1608    8.6976   13.3871 C   0  0  0  0  0  0  0  0  0  0  0  0
   42.7024    5.0513   11.9427 C   0  0  0  0  0  0  0  0  0  0  0  0
   44.5588    3.6820   11.2368 C   0  0  0  0  0  0  0  0  0  0  0  0
   43.2063    3.8148   11.5440 C   0  0  0  0  0  0  0  0  0  0  0  0
   43.8433    6.7077   13.2283 H   0  0  0  0  0  0  0  0  0  0  0  0
   44.7021    5.2715   13.7180 H   0  0  0  0  0  0  0  0  0  0  0  0
   44.7642    3.4209   12.0532 H   0  0  0  0  0  0  0  0  0  0  0  0
   44.7179    3.7076   10.4487 H   0  0  0  0  0  0  0  0  0  0  0  0
   44.4408    6.0372   10.7493 H   0  0  0  0  0  0  0  0  0  0  0  0
   47.1972    5.0470   13.0463 H   0  0  0  0  0  0  0  0  0  0  0  0
   44.9823    8.7191   12.5928 H   0  0  0  0  0  0  0  0  0  0  0  0
   42.1474    5.9270   11.6923 H   0  0  0  0  0  0  0  0  0  0  0  0
   42.4483    4.5497   10.6281 H   0  0  0  0  0  0  0  0  0  0  0  0
   42.4827    4.3324   12.3882 H   0  0  0  0  0  0  0  0  0  0  0  0
   49.3113    6.3185   12.9301 H   0  0  0  0  0  0  0  0  0  0  0  0
   47.1029    9.9747   12.4739 H   0  0  0  0  0  0  0  0  0  0  0  0
   49.2721    8.7833   12.6447 H   0  0  0  0  0  0  0  0  0  0  0  0
   46.3892    7.6772   13.1837 H   0  0  0  0  0  0  0  0  0  0  0  0
   43.6864    5.8653   12.1943 H   0  0  0  0  0  0  0  0  0  0  0  0
   45.2188    8.1416   11.7375 H   0  0  0  0  0  0  0  0  0  0  0  0
   46.4939    7.2558   10.9443 H   0  0  0  0  0  0  0  0  0  0  0  0
   48.4524    6.6637   12.3634 H   0  0  0  0  0  0  0  0  0  0  0  0
   48.3052    6.4120   13.9677 H   0  0  0  0  0  0  0  0  0  0  0  0
   46.0106    6.9857   13.9710 H   0  0  0  0  0  0  0  0  0  0  0  0
   43.1413    7.1129   12.3479 H   0  0  0  0  0  0  0  0  0  0  0  0
   46.4641    4.6666   11.0950 H   0  0  0  0  0  0  0  0  0  0  0  0
   47.8037    9.0479   12.5718 H   0  0  0  0  0  0  0  0  0  0  0  0
   47.7365    8.7457   14.3183 H   0  0  0  0  0  0  0  0  0  0  0  0
   46.3245    9.3987   13.4818 H   0  0  0  0  0  0  0  0  0  0  0  0
   41.6486    5.1551   12.1860 H   0  0  0  0  0  0  0  0  0  0  0  0
   44.9564    2.7174   10.9333 H   0  0  0  0  0  0  0  0  0  0  0  0
   42.5466    2.9541   11.4767 H   0  0  0  0  0  0  0  0  0  0  0  0
  4  2  1  0
  3  1  1  0
  4  1  1  0
  5  3  2  0
  6  3  1  0
  4  7  1  0
  8  5  1  0
  9  6  2  0
 10  8  2  0
  9 10  1  0
 12 11  2  0
 13 11  2  0
 14 11  1  0
 15 11  1  0
 19 17  1  0
 18 16  1  0
 19 16  1  0
 20 18  2  0
 21 18  1  0
 19 22  1  0
 23 20  1  0
 24 21  2  0
 25 23  2  0
 24 25  1  0
  1 26  1  0
  1 27  1  0
  2 28  1  0
  2 29  1  0
  4 30  1  1
  5 31  1  0
  6 32  1  0
  7 33  1  0
  7 34  1  0
  7 35  1  0
  8 36  1  0
  9 37  1  0
 10 38  1  0
 14 39  1  0
 15 40  1  0
 16 41  1  0
 16 42  1  0
 17 43  1  0
 17 44  1  0
 19 45  1  6
 20 46  1  0
 21 47  1  0
 22 48  1  0
 22 49  1  0
 22 50  1  0
 23 51  1  0
 24 52  1  0
 25 53  1  0
M  END
> <Uni-Dock RESULT> 
ENERGY=   -5.469  LOWER_BOUND=    2.849  UPPER_BOUND=    4.476
INTER + INTRA:          -5.469
INTER:                  -5.469
INTRA:                   0.000
UNBOUND:                 0.000

$$$$

     RDKit          3D

 53 52  0  0  0  0  0  0  0  0999 V2000
   45.4467    5.2799   11.4618 C   0  0  0  0  0  0  0  0  0  0  0  0
   43.0194    4.9624   11.9468 N   0  0  0  0  0  0  0  0  0  0  0  0
   45.7229    6.6915   11.9277 C   0  0  0  0  0  0  0  0  0  0  0  0
   44.3820    4.5455   12.3063 C   0  0  1  0  0  0  0  0  0  0  0  0
   44.8700    7.7428   11.5670 C   0  0  0  0  0  0  0  0  0  0  0  0
   46.8326    6.9680   12.7388 C   0  0  0  0  0  0  0  0  0  0  0  0
   44.4995    3.0323   12.1124 C   0  0  0  0  0  0  0  0  0  0  0  0
   45.1252    9.0446   12.0011 C   0  0  0  0  0  0  0  0  0  0  0  0
   47.0875    8.2707   13.1715 C   0  0  0  0  0  0  0  0  0  0  0  0
   46.2346    9.3088   12.8017 C   0  0  0  0  0  0  0  0  0  0  0  0
   44.7303    6.2557   12.2339 S   0  0  0  0  0  0  0  0  0  0  0  0
   43.6890    5.9122   11.2995 O   0  0  0  0  0  0  0  0  0  0  0  0
   44.5282    7.0914   13.3898 O   0  0  0  0  0  0  0  0  0  0  0  0
   45.9509    6.9003   11.4162 O   0  0  0  0  0  0  0  0  0  0  0  0
   45.3800    4.8712   12.7183 O   0  0  0  0  0  0  0  0  0  0  0  0
   45.6656    6.5366   13.0346 C   0  0  0  0  0  0  0  0  0  0  0  0
   44.9694    8.4272   11.5621 N   0  0  0  0  0  0  0  0  0  0  0  0
   44.8493    5.3691   12.5279 C   0  0  0  0  0  0  0  0  0  0  0  0
   46.0765    7.5326   11.9279 C   0  0  1  0  0  0  0  0  0  0  0  0
   45.4594    4.1326   12.2736 C   0  0  0  0  0  0  0  0  0  0  0  0
   43.4751    5.5064   12.2934 C   0  0  0  0  0  0  0  0  0  0  0  0
   47.2620    8.3824   12.3898 C   0  0  0  0  0  0  0  0  0  0  0  0
   44.7071    3.0544   11.8033 C   0  0  0  0  0  0  0  0  0  0  0  0
   42.7242    4.4281   11.8223 C   0  0  0  0  0  0  0  0  0  0  0  0
   43.3398    3.2020   11.5789 C   0  0  0  0  0  0  0  0  0  0  0  0
   46.3902    4.7184   11.4925 H   0  0  0  0  0  0  0  0  0  0  0  0
   45.1593    5.2972   10.4017 H   0  0  0  0  0  0  0  0  0  0  0  0
   42.8160    4.6906   10.9860 H   0  0  0  0  0  0  0  0  0  0  0  0
   42.3469    4.4680   12.5317 H   0  0  0  0  0  0  0  0  0  0  0  0
   44.5385    4.7688   13.3687 H   0  0  0  0  0  0  0  0  0  0  0  0
   43.9936    7.5476   10.9529 H   0  0  0  0  0  0  0  0  0  0  0  0
   47.5071    6.1698   13.0393 H   0  0  0  0  0  0  0  0  0  0  0  0
   45.4879    2.6786   12.4251 H   0  0  0  0  0  0  0  0  0  0  0  0
   43.7545    2.4987   12.7132 H   0  0  0  0  0  0  0  0  0  0  0  0
   44.3563    2.7490   11.0636 H   0  0  0  0  0  0  0  0  0  0  0  0
   44.4537    9.8504   11.7175 H   0  0  0  0  0  0  0  0  0  0  0  0
   47.9507    8.4750   13.7989 H   0  0  0  0  0  0  0  0  0  0  0  0
   46.4313   10.3222   13.1405 H   0  0  0  0  0  0  0  0  0  0  0  0
   46.5098    7.3801   12.0621 H   0  0  0  0  0  0  0  0  0  0  0  0
   45.2485    4.2222   11.9962 H   0  0  0  0  0  0  0  0  0  0  0  0
   46.5657    6.1389   13.5226 H   0  0  0  0  0  0  0  0  0  0  0  0
   45.1107    7.0481   13.8329 H   0  0  0  0  0  0  0  0  0  0  0  0
   44.7221    9.0153   12.3567 H   0  0  0  0  0  0  0  0  0  0  0  0
   45.2730    9.0595   10.8226 H   0  0  0  0  0  0  0  0  0  0  0  0
   46.3795    6.9795   11.0306 H   0  0  0  0  0  0  0  0  0  0  0  0
   46.5256    4.0003   12.4402 H   0  0  0  0  0  0  0  0  0  0  0  0
   42.9850    6.4617   12.4673 H   0  0  0  0  0  0  0  0  0  0  0  0
   47.0184    8.9567   13.2907 H   0  0  0  0  0  0  0  0  0  0  0  0
   47.5691    9.0882   11.6098 H   0  0  0  0  0  0  0  0  0  0  0  0
   48.1260    7.7487   12.6176 H   0  0  0  0  0  0  0  0  0  0  0  0
   45.1889    2.0998   11.6103 H   0  0  0  0  0  0  0  0  0  0  0  0
   41.6598    4.5488   11.6408 H   0  0  0  0  0  0  0  0  0  0  0  0
   42.7549    2.3638   11.2106 H   0  0  0  0  0  0  0  0  0  0  0  0
  4  2  1  0
  3  1  1  0
  4  1  1  0
  5  3  2  0
  6  3  1  0
  4  7  1  0
  8  5  1  0
  9  6  2  0
 10  8  2  0
  9 10  1  0
 12 11  2  0
 13 11  2  0
 14 11  1  0
 15 11  1  0
 19 17  1  0
 18 16  1  0
 19 16  1  0
 20 18  2  0
 21 18  1  0
 19 22  1  0
 23 20  1  0
 24 21  2  0
 25 23  2  0
 24 25  1  0
  1 26  1  0
  1 27  1  0
  2 28  1  0
  2 29  1  0
  4 30  1  1
  5 31  1  0
  6 32  1  0
  7 33  1  0
  7 34  1  0
  7 35  1  0
  8 36  1  0
  9 37  1  0
 10 38  1  0
 14 39  1  0
 15 40  1  0
 16 41  1  0
 16 42  1  0
 17 43  1  0
 17 44  1  0
 19 45  1  6
 20 46  1  0
 21 47  1  0
 22 48  1  0
 22 49  1  0
 22 50  1  0
 23 51  1  0
 24 52  1  0
 25 53  1  0
M  END
> <Uni-Dock RESULT> 
ENERGY=   -5.227  LOWER_BOUND=    2.913  UPPER_BOUND=    4.287
INTER + INTRA:          -5.227
INTER:                  -5.227
INTRA:                   0.000
UNBOUND:                 0.000

$$$$

     RDKit          3D

 53 52  0  0  0  0  0  0  0  0999 V2000
   46.3389    6.6593   13.5381 C   0  0  0  0  0  0  0  0  0  0  0  0
   47.7398    7.5448   11.6723 N   0  0  0  0  0  0  0  0  0  0  0  0
   45.1430    6.0593   12.8338 C   0  0  0  0  0  0  0  0  0  0  0  0
   47.6548    6.5369   12.7386 C   0  0  1  0  0  0  0  0  0  0  0  0
   44.4722    6.7722   11.8316 C   0  0  0  0  0  0  0  0  0  0  0  0
   44.6938    4.7734   13.1662 C   0  0  0  0  0  0  0  0  0  0  0  0
   48.8595    6.7024   13.6673 C   0  0  0  0  0  0  0  0  0  0  0  0
   43.3705    6.2149   11.1805 C   0  0  0  0  0  0  0  0  0  0  0  0
   43.5910    4.2175   12.5150 C   0  0  0  0  0  0  0  0  0  0  0  0
   42.9289    4.9386   11.5233 C   0  0  0  0  0  0  0  0  0  0  0  0
   46.0124    6.3428   12.1762 S   0  0  0  0  0  0  0  0  0  0  0  0
   46.4557    7.6998   11.9827 O   0  0  0  0  0  0  0  0  0  0  0  0
   45.7124    5.4348   11.0987 O   0  0  0  0  0  0  0  0  0  0  0  0
   44.7190    6.3637   13.1250 O   0  0  0  0  0  0  0  0  0  0  0  0
   47.0904    5.6464   13.1388 O   0  0  0  0  0  0  0  0  0  0  0  0
   45.6271    5.1577   12.3807 C   0  0  0  0  0  0  0  0  0  0  0  0
   43.8382    6.6952   11.5660 N   0  0  0  0  0  0  0  0  0  0  0  0
   46.8183    6.0676   12.5782 C   0  0  0  0  0  0  0  0  0  0  0  0
   44.2719    5.8371   12.6775 C   0  0  1  0  0  0  0  0  0  0  0  0
   47.5662    6.0123   13.7629 C   0  0  0  0  0  0  0  0  0  0  0  0
   47.1869    6.9873   11.5878 C   0  0  0  0  0  0  0  0  0  0  0  0
   43.1928    4.7832   12.9338 C   0  0  0  0  0  0  0  0  0  0  0  0
   48.6650    6.8538   13.9474 C   0  0  0  0  0  0  0  0  0  0  0  0
   48.2850    7.8286   11.7738 C   0  0  0  0  0  0  0  0  0  0  0  0
   49.0248    7.7607   12.9526 C   0  0  0  0  0  0  0  0  0  0  0  0
   46.4517    6.1579   14.5088 H   0  0  0  0  0  0  0  0  0  0  0  0
   46.1274    7.7092   13.7822 H   0  0  0  0  0  0  0  0  0  0  0  0
   47.7738    8.4781   12.0797 H   0  0  0  0  0  0  0  0  0  0  0  0
   48.6127    7.4251   11.1599 H   0  0  0  0  0  0  0  0  0  0  0  0
   47.7119    5.5442   12.2757 H   0  0  0  0  0  0  0  0  0  0  0  0
   44.8148    7.7643   11.5458 H   0  0  0  0  0  0  0  0  0  0  0  0
   45.2000    4.1954   13.9355 H   0  0  0  0  0  0  0  0  0  0  0  0
   48.8576    5.9294   14.4435 H   0  0  0  0  0  0  0  0  0  0  0  0
   49.8003    6.6092   13.1134 H   0  0  0  0  0  0  0  0  0  0  0  0
   48.8530    7.6791   14.1642 H   0  0  0  0  0  0  0  0  0  0  0  0
   42.8614    6.7767   10.4021 H   0  0  0  0  0  0  0  0  0  0  0  0
   43.2497    3.2206   12.7804 H   0  0  0  0  0  0  0  0  0  0  0  0
   42.0723    4.5050   11.0147 H   0  0  0  0  0  0  0  0  0  0  0  0
   44.2681    5.5006   13.0178 H   0  0  0  0  0  0  0  0  0  0  0  0
   47.4921    6.3552   13.6830 H   0  0  0  0  0  0  0  0  0  0  0  0
   45.7507    4.2847   13.0357 H   0  0  0  0  0  0  0  0  0  0  0  0
   45.6448    4.7529   11.3596 H   0  0  0  0  0  0  0  0  0  0  0  0
   43.6641    6.1278   10.7377 H   0  0  0  0  0  0  0  0  0  0  0  0
   42.9498    7.1352   11.8025 H   0  0  0  0  0  0  0  0  0  0  0  0
   44.3631    6.4607   13.5751 H   0  0  0  0  0  0  0  0  0  0  0  0
   47.2980    5.3128   14.5508 H   0  0  0  0  0  0  0  0  0  0  0  0
   46.6100    7.0591   10.6685 H   0  0  0  0  0  0  0  0  0  0  0  0
   43.0605    4.1243   12.0683 H   0  0  0  0  0  0  0  0  0  0  0  0
   42.2275    5.2526   13.1541 H   0  0  0  0  0  0  0  0  0  0  0  0
   43.4585    4.1597   13.7945 H   0  0  0  0  0  0  0  0  0  0  0  0
   49.2390    6.8025   14.8686 H   0  0  0  0  0  0  0  0  0  0  0  0
   48.5581    8.5403   10.9995 H   0  0  0  0  0  0  0  0  0  0  0  0
   49.8783    8.4173   13.0972 H   0  0  0  0  0  0  0  0  0  0  0  0
  4  2  1  0
  3  1  1  0
  4  1  1  0
  5  3  2  0
  6  3  1  0
  4  7  1  0
  8  5  1  0
  9  6  2  0
 10  8  2  0
  9 10  1  0
 12 11  2  0
 13 11  2  0
 14 11  1  0
 15 11  1  0
 19 17  1  0
 18 16  1  0
 19 16  1  0
 20 18  2  0
 21 18  1  0
 19 22  1  0
 23 20  1  0
 24 21  2  0
 25 23  2  0
 24 25  1  0
  1 26  1  0
  1 27  1  0
  2 28  1  0
  2 29  1  0
  4 30  1  1
  5 31  1  0
  6 32  1  0
  7 33  1  0
  7 34  1  0
  7 35  1  0
  8 36  1  0
  9 37  1  0
 10 38  1  0
 14 39  1  0
 15 40  1  0
 16 41  1  0
 16 42  1  0
 17 43  1  0
 17 44  1  0
 19 45  1  6
 20 46  1  0
 21 47  1  0
 22 48  1  0
 22 49  1  0
 22 50  1  0
 23 51  1  0
 24 52  1  0
 25 53  1  0
M  END
> <Uni-Dock RESULT> 
ENERGY=   -5.137  LOWER_BOUND=    3.428  UPPER_BOUND=    4.875
INTER + INTRA:          -5.137
INTER:                  -5.137
INTRA:                   0.000
UNBOUND:                 0.000

$$$$
