
     RDKit          3D

 53 52  0  0  0  0  0  0  0  0999 V2000
   44.2952    3.3806    8.6079 C   0  0  0  0  0  0  0  0  0  0  0  0
   43.3395    5.0253   10.1734 N   0  0  0  0  0  0  0  0  0  0  0  0
   45.5381    2.8172    7.9579 C   0  0  0  0  0  0  0  0  0  0  0  0
   44.5906    4.3880    9.7385 C   0  0  1  0  0  0  0  0  0  0  0  0
   45.9462    1.5029    8.2225 C   0  0  0  0  0  0  0  0  0  0  0  0
   46.3039    3.6033    7.0857 C   0  0  0  0  0  0  0  0  0  0  0  0
   45.2414    3.7237   10.9524 C   0  0  0  0  0  0  0  0  0  0  0  0
   47.0988    0.9866    7.6284 C   0  0  0  0  0  0  0  0  0  0  0  0
   47.4560    3.0851    6.4923 C   0  0  0  0  0  0  0  0  0  0  0  0
   47.8534    1.7774    6.7641 C   0  0  0  0  0  0  0  0  0  0  0  0
   45.6094    3.6781    8.5858 S   0  0  0  0  0  0  0  0  0  0  0  0
   44.6022    4.2216    7.7106 O   0  0  0  0  0  0  0  0  0  0  0  0
   46.6650    4.4594    9.1779 O   0  0  0  0  0  0  0  0  0  0  0  0
   46.2715    2.4439    7.8036 O   0  0  0  0  0  0  0  0  0  0  0  0
   44.8741    2.9200    9.7933 O   0  0  0  0  0  0  0  0  0  0  0  0
   44.1516    3.3857    8.8135 C   0  0  0  0  0  0  0  0  0  0  0  0
   44.8793    2.9489   11.1766 N   0  0  0  0  0  0  0  0  0  0  0  0
   45.3162    2.8984    7.9811 C   0  0  0  0  0  0  0  0  0  0  0  0
   44.4882    3.9757   10.2035 C   0  0  1  0  0  0  0  0  0  0  0  0
   45.7228    3.6120    6.8440 C   0  0  0  0  0  0  0  0  0  0  0  0
   46.0033    1.7260    8.3215 C   0  0  0  0  0  0  0  0  0  0  0  0
   45.5561    5.0671   10.1454 C   0  0  0  0  0  0  0  0  0  0  0  0
   46.7937    3.1633    6.0684 C   0  0  0  0  0  0  0  0  0  0  0  0
   47.0744    1.2785    7.5460 C   0  0  0  0  0  0  0  0  0  0  0  0
   47.4692    1.9966    6.4196 C   0  0  0  0  0  0  0  0  0  0  0  0
   43.6683    2.5618    8.9857 H   0  0  0  0  0  0  0  0  0  0  0  0
   43.7016    3.8660    7.8208 H   0  0  0  0  0  0  0  0  0  0  0  0
   43.5422    5.7115   10.8998 H   0  0  0  0  0  0  0  0  0  0  0  0
   42.9332    5.5449    9.3963 H   0  0  0  0  0  0  0  0  0  0  0  0
   45.2600    5.1751    9.3709 H   0  0  0  0  0  0  0  0  0  0  0  0
   45.3692    0.8732    8.8962 H   0  0  0  0  0  0  0  0  0  0  0  0
   46.0049    4.6245    6.8607 H   0  0  0  0  0  0  0  0  0  0  0  0
   44.6195    2.9129   11.3481 H   0  0  0  0  0  0  0  0  0  0  0  0
   46.2206    3.3060   10.6971 H   0  0  0  0  0  0  0  0  0  0  0  0
   45.4019    4.4491   11.7581 H   0  0  0  0  0  0  0  0  0  0  0  0
   47.4075   -0.0337    7.8403 H   0  0  0  0  0  0  0  0  0  0  0  0
   48.0429    3.7014    5.8166 H   0  0  0  0  0  0  0  0  0  0  0  0
   48.7502    1.3741    6.3015 H   0  0  0  0  0  0  0  0  0  0  0  0
   45.5955    2.0980    7.1846 H   0  0  0  0  0  0  0  0  0  0  0  0
   45.5334    2.8103   10.5097 H   0  0  0  0  0  0  0  0  0  0  0  0
   43.6080    4.1521    8.2441 H   0  0  0  0  0  0  0  0  0  0  0  0
   43.4368    2.5589    8.9251 H   0  0  0  0  0  0  0  0  0  0  0  0
   45.0477    3.3815   12.0837 H   0  0  0  0  0  0  0  0  0  0  0  0
   44.1134    2.2897   11.3054 H   0  0  0  0  0  0  0  0  0  0  0  0
   43.5672    4.4346   10.5854 H   0  0  0  0  0  0  0  0  0  0  0  0
   45.2091    4.5257    6.5546 H   0  0  0  0  0  0  0  0  0  0  0  0
   45.7122    1.1575    9.2019 H   0  0  0  0  0  0  0  0  0  0  0  0
   46.5354    4.6693    9.8580 H   0  0  0  0  0  0  0  0  0  0  0  0
   45.2777    5.8428    9.4240 H   0  0  0  0  0  0  0  0  0  0  0  0
   45.6703    5.5512   11.1220 H   0  0  0  0  0  0  0  0  0  0  0  0
   47.1009    3.7254    5.1908 H   0  0  0  0  0  0  0  0  0  0  0  0
   47.6017    0.3704    7.8255 H   0  0  0  0  0  0  0  0  0  0  0  0
   48.3038    1.6482    5.8175 H   0  0  0  0  0  0  0  0  0  0  0  0
  4  2  1  0
  3  1  1  0
  4  1  1  0
  5  3  2  0
  6  3  1  0
  4  7  1  0
  8  5  1  0
  9  6  2  0
 10  8  2  0
  9 10  1  0
 12 11  2  0
 13 11  2  0
 14 11  1  0
 15 11  1  0
 19 17  1  0
 18 16  1  0
 19 16  1  0
 20 18  2  0
 21 18  1  0
 19 22  1  0
 23 20  1  0
 24 21  2  0
 25 23  2  0
 24 25  1  0
  1 26  1  0
  1 27  1  0
  2 28  1  0
  2 29  1  0
  4 30  1  1
  5 31  1  0
  6 32  1  0
  7 33  1  0
  7 34  1  0
  7 35  1  0
  8 36  1  0
  9 37  1  0
 10 38  1  0
 14 39  1  0
 15 40  1  0
 16 41  1  0
 16 42  1  0
 17 43  1  0
 17 44  1  0
 19 45  1  6
 20 46  1  0
 21 47  1  0
 22 48  1  0
 22 49  1  0
 22 50  1  0
 23 51  1  0
 24 52  1  0
 25 53  1  0
M  END
> <Uni-Dock RESULT> 
ENERGY=   -7.840  LOWER_BOUND=    0.000  UPPER_BOUND=    0.000
INTER + INTRA:          -7.840
INTER:                  -7.840
INTRA:                   0.000
UNBOUND:                 0.000

$$$$

     RDKit          3D

 53 52  0  0  0  0  0  0  0  0999 V2000
   43.3200    4.3235   10.9252 C   0  0  0  0  0  0  0  0  0  0  0  0
   43.0341    5.6058   13.0093 N   0  0  0  0  0  0  0  0  0  0  0  0
   44.2797    3.7160    9.9278 C   0  0  0  0  0  0  0  0  0  0  0  0
   44.0083    4.8647   12.1956 C   0  0  1  0  0  0  0  0  0  0  0  0
   44.3543    2.3258    9.7678 C   0  0  0  0  0  0  0  0  0  0  0  0
   45.1133    4.5343    9.1528 C   0  0  0  0  0  0  0  0  0  0  0  0
   44.6038    3.7478   13.0536 C   0  0  0  0  0  0  0  0  0  0  0  0
   45.2469    1.7656    8.8527 C   0  0  0  0  0  0  0  0  0  0  0  0
   46.0049    3.9723    8.2380 C   0  0  0  0  0  0  0  0  0  0  0  0
   46.0720    2.5884    8.0885 C   0  0  0  0  0  0  0  0  0  0  0  0
   44.6530    4.3175   10.7274 S   0  0  0  0  0  0  0  0  0  0  0  0
   43.7263    5.3012   10.2283 O   0  0  0  0  0  0  0  0  0  0  0  0
   45.9424    4.6386   11.2841 O   0  0  0  0  0  0  0  0  0  0  0  0
   44.8632    3.2524    9.5464 O   0  0  0  0  0  0  0  0  0  0  0  0
   43.8973    3.4203   11.8217 O   0  0  0  0  0  0  0  0  0  0  0  0
   43.2093    4.2996   11.1490 C   0  0  0  0  0  0  0  0  0  0  0  0
   44.0798    3.0409   13.1396 N   0  0  0  0  0  0  0  0  0  0  0  0
   44.0918    3.8336   10.0130 C   0  0  0  0  0  0  0  0  0  0  0  0
   43.8583    4.3675   12.5518 C   0  0  1  0  0  0  0  0  0  0  0  0
   44.5302    4.7411    9.0373 C   0  0  0  0  0  0  0  0  0  0  0  0
   44.4802    2.4918    9.9073 C   0  0  0  0  0  0  0  0  0  0  0  0
   45.1616    5.1649   12.5680 C   0  0  0  0  0  0  0  0  0  0  0  0
   45.3402    4.3150    7.9829 C   0  0  0  0  0  0  0  0  0  0  0  0
   45.2908    2.0667    8.8532 C   0  0  0  0  0  0  0  0  0  0  0  0
   45.7203    2.9779    7.8910 C   0  0  0  0  0  0  0  0  0  0  0  0
   42.5499    3.5890   11.1966 H   0  0  0  0  0  0  0  0  0  0  0  0
   42.7842    5.1364   10.4156 H   0  0  0  0  0  0  0  0  0  0  0  0
   43.4989    5.9869   13.8328 H   0  0  0  0  0  0  0  0  0  0  0  0
   42.6876    6.4063   12.4818 H   0  0  0  0  0  0  0  0  0  0  0  0
   44.8119    5.5574   11.9178 H   0  0  0  0  0  0  0  0  0  0  0  0
   43.7183    1.6696   10.3581 H   0  0  0  0  0  0  0  0  0  0  0  0
   45.0702    5.6162    9.2553 H   0  0  0  0  0  0  0  0  0  0  0  0
   43.8428    3.0144   13.3430 H   0  0  0  0  0  0  0  0  0  0  0  0
   45.3983    3.2183   12.5180 H   0  0  0  0  0  0  0  0  0  0  0  0
   45.0485    4.1515   13.9705 H   0  0  0  0  0  0  0  0  0  0  0  0
   45.2978    0.6863    8.7362 H   0  0  0  0  0  0  0  0  0  0  0  0
   46.6466    4.6144    7.6406 H   0  0  0  0  0  0  0  0  0  0  0  0
   46.7660    2.1512    7.3758 H   0  0  0  0  0  0  0  0  0  0  0  0
   44.0491    3.2606    9.0016 H   0  0  0  0  0  0  0  0  0  0  0  0
   44.5867    2.9633   12.3467 H   0  0  0  0  0  0  0  0  0  0  0  0
   42.8226    5.2992   10.9074 H   0  0  0  0  0  0  0  0  0  0  0  0
   42.3203    3.6550   11.1828 H   0  0  0  0  0  0  0  0  0  0  0  0
   44.4669    3.1408   14.0770 H   0  0  0  0  0  0  0  0  0  0  0  0
   43.1884    2.5585   13.2420 H   0  0  0  0  0  0  0  0  0  0  0  0
   43.1459    4.8854   13.2068 H   0  0  0  0  0  0  0  0  0  0  0  0
   44.2453    5.7891    9.0927 H   0  0  0  0  0  0  0  0  0  0  0  0
   44.1592    1.7691   10.6541 H   0  0  0  0  0  0  0  0  0  0  0  0
   45.9575    4.6633   12.0070 H   0  0  0  0  0  0  0  0  0  0  0  0
   45.0123    6.1592   12.1337 H   0  0  0  0  0  0  0  0  0  0  0  0
   45.5190    5.3042   13.5947 H   0  0  0  0  0  0  0  0  0  0  0  0
   45.6752    5.0274    7.2340 H   0  0  0  0  0  0  0  0  0  0  0  0
   45.5888    1.0238    8.7872 H   0  0  0  0  0  0  0  0  0  0  0  0
   46.3523    2.6462    7.0719 H   0  0  0  0  0  0  0  0  0  0  0  0
  4  2  1  0
  3  1  1  0
  4  1  1  0
  5  3  2  0
  6  3  1  0
  4  7  1  0
  8  5  1  0
  9  6  2  0
 10  8  2  0
  9 10  1  0
 12 11  2  0
 13 11  2  0
 14 11  1  0
 15 11  1  0
 19 17  1  0
 18 16  1  0
 19 16  1  0
 20 18  2  0
 21 18  1  0
 19 22  1  0
 23 20  1  0
 24 21  2  0
 25 23  2  0
 24 25  1  0
  1 26  1  0
  1 27  1  0
  2 28  1  0
  2 29  1  0
  4 30  1  1
  5 31  1  0
  6 32  1  0
  7 33  1  0
  7 34  1  0
  7 35  1  0
  8 36  1  0
  9 37  1  0
 10 38  1  0
 14 39  1  0
 15 40  1  0
 16 41  1  0
 16 42  1  0
 17 43  1  0
 17 44  1  0
 19 45  1  6
 20 46  1  0
 21 47  1  0
 22 48  1  0
 22 49  1  0
 22 50  1  0
 23 51  1  0
 24 52  1  0
 25 53  1  0
M  END
> <Uni-Dock RESULT> 
ENERGY=   -7.186  LOWER_BOUND=    1.709  UPPER_BOUND=    2.488
INTER + INTRA:          -7.186
INTER:                  -7.186
INTRA:                   0.000
UNBOUND:                 0.000

$$$$

     RDKit          3D

 53 52  0  0  0  0  0  0  0  0999 V2000
   44.5613    5.3579   13.0083 C   0  0  0  0  0  0  0  0  0  0  0  0
   43.3224    3.4227   12.1199 N   0  0  0  0  0  0  0  0  0  0  0  0
   45.5790    6.4446   12.7473 C   0  0  0  0  0  0  0  0  0  0  0  0
   44.1551    4.5739   11.7431 C   0  0  1  0  0  0  0  0  0  0  0  0
   45.1969    7.7929   12.7492 C   0  0  0  0  0  0  0  0  0  0  0  0
   46.9187    6.1190   12.4936 C   0  0  0  0  0  0  0  0  0  0  0  0
   43.3690    5.4353   10.7539 C   0  0  0  0  0  0  0  0  0  0  0  0
   46.1358    8.7950   12.4996 C   0  0  0  0  0  0  0  0  0  0  0  0
   47.8562    7.1225   12.2447 C   0  0  0  0  0  0  0  0  0  0  0  0
   47.4647    8.4598   12.2472 C   0  0  0  0  0  0  0  0  0  0  0  0
   45.3945    5.6989   12.0055 S   0  0  0  0  0  0  0  0  0  0  0  0
   45.6842    4.7731   13.0707 O   0  0  0  0  0  0  0  0  0  0  0  0
   45.7563    5.4775   10.6287 O   0  0  0  0  0  0  0  0  0  0  0  0
   45.9891    7.1169   12.4630 O   0  0  0  0  0  0  0  0  0  0  0  0
   43.8200    6.0061   12.0169 O   0  0  0  0  0  0  0  0  0  0  0  0
   44.3241    5.2827   12.9768 C   0  0  0  0  0  0  0  0  0  0  0  0
   42.7583    5.9513   11.1313 N   0  0  0  0  0  0  0  0  0  0  0  0
   45.4634    6.2699   12.8591 C   0  0  0  0  0  0  0  0  0  0  0  0
   43.6117    4.8821   11.6632 C   0  0  1  0  0  0  0  0  0  0  0  0
   46.7884    5.8495   13.0473 C   0  0  0  0  0  0  0  0  0  0  0  0
   45.2198    7.6189   12.5702 C   0  0  0  0  0  0  0  0  0  0  0  0
   44.5797    4.4059   10.5811 C   0  0  0  0  0  0  0  0  0  0  0  0
   47.8437    6.7581   12.9457 C   0  0  0  0  0  0  0  0  0  0  0  0
   46.2755    8.5265   12.4681 C   0  0  0  0  0  0  0  0  0  0  0  0
   47.5871    8.0964   12.6562 C   0  0  0  0  0  0  0  0  0  0  0  0
   43.6718    5.7877   13.4882 H   0  0  0  0  0  0  0  0  0  0  0  0
   44.9930    4.6719   13.7503 H   0  0  0  0  0  0  0  0  0  0  0  0
   43.0805    2.8903   11.2846 H   0  0  0  0  0  0  0  0  0  0  0  0
   43.8601    2.7923   12.7135 H   0  0  0  0  0  0  0  0  0  0  0  0
   45.0503    4.1915   11.2381 H   0  0  0  0  0  0  0  0  0  0  0  0
   44.1632    8.0709   12.9428 H   0  0  0  0  0  0  0  0  0  0  0  0
   47.2407    5.0801   12.4918 H   0  0  0  0  0  0  0  0  0  0  0  0
   42.4709    5.8598   11.2163 H   0  0  0  0  0  0  0  0  0  0  0  0
   43.9796    6.2622   10.3774 H   0  0  0  0  0  0  0  0  0  0  0  0
   43.0542    4.8468    9.8845 H   0  0  0  0  0  0  0  0  0  0  0  0
   45.8296    9.8377   12.5027 H   0  0  0  0  0  0  0  0  0  0  0  0
   48.8929    6.8608   12.0501 H   0  0  0  0  0  0  0  0  0  0  0  0
   48.1950    9.2409   12.0537 H   0  0  0  0  0  0  0  0  0  0  0  0
   45.9908    7.1270   13.4426 H   0  0  0  0  0  0  0  0  0  0  0  0
   43.5943    6.3903   11.1444 H   0  0  0  0  0  0  0  0  0  0  0  0
   44.7004    4.3653   13.4500 H   0  0  0  0  0  0  0  0  0  0  0  0
   43.5903    5.6852   13.6885 H   0  0  0  0  0  0  0  0  0  0  0  0
   42.2797    5.6240   10.2933 H   0  0  0  0  0  0  0  0  0  0  0  0
   42.0342    6.1811   11.8099 H   0  0  0  0  0  0  0  0  0  0  0  0
   42.9476    4.0424   11.9052 H   0  0  0  0  0  0  0  0  0  0  0  0
   47.0089    4.8088   13.2725 H   0  0  0  0  0  0  0  0  0  0  0  0
   44.2022    7.9694   12.4136 H   0  0  0  0  0  0  0  0  0  0  0  0
   45.2213    5.2161   10.2179 H   0  0  0  0  0  0  0  0  0  0  0  0
   45.2231    3.6058   10.9623 H   0  0  0  0  0  0  0  0  0  0  0  0
   44.0330    4.0065    9.7193 H   0  0  0  0  0  0  0  0  0  0  0  0
   48.8661    6.4205   13.0916 H   0  0  0  0  0  0  0  0  0  0  0  0
   46.0718    9.5687   12.2378 H   0  0  0  0  0  0  0  0  0  0  0  0
   48.4081    8.8033   12.5750 H   0  0  0  0  0  0  0  0  0  0  0  0
  4  2  1  0
  3  1  1  0
  4  1  1  0
  5  3  2  0
  6  3  1  0
  4  7  1  0
  8  5  1  0
  9  6  2  0
 10  8  2  0
  9 10  1  0
 12 11  2  0
 13 11  2  0
 14 11  1  0
 15 11  1  0
 19 17  1  0
 18 16  1  0
 19 16  1  0
 20 18  2  0
 21 18  1  0
 19 22  1  0
 23 20  1  0
 24 21  2  0
 25 23  2  0
 24 25  1  0
  1 26  1  0
  1 27  1  0
  2 28  1  0
  2 29  1  0
  4 30  1  1
  5 31  1  0
  6 32  1  0
  7 33  1  0
  7 34  1  0
  7 35  1  0
  8 36  1  0
  9 37  1  0
 10 38  1  0
 14 39  1  0
 15 40  1  0
 16 41  1  0
 16 42  1  0
 17 43  1  0
 17 44  1  0
 19 45  1  6
 20 46  1  0
 21 47  1  0
 22 48  1  0
 22 49  1  0
 22 50  1  0
 23 51  1  0
 24 52  1  0
 25 53  1  0
M  END
> <Uni-Dock RESULT> 
ENERGY=   -5.910  LOWER_BOUND=    3.613  UPPER_BOUND=    5.933
INTER + INTRA:          -5.910
INTER:                  -5.910
INTRA:                   0.000
UNBOUND:                 0.000

$$$$

     RDKit          3D

 53 52  0  0  0  0  0  0  0  0999 V2000
   45.0420    5.4539   10.9025 C   0  0  0  0  0  0  0  0  0  0  0  0
   43.3976    3.6269   10.7373 N   0  0  0  0  0  0  0  0  0  0  0  0
   45.6162    6.5759   11.7369 C   0  0  0  0  0  0  0  0  0  0  0  0
   44.0476    4.5583   11.6703 C   0  0  1  0  0  0  0  0  0  0  0  0
   46.9377    6.5145   12.1992 C   0  0  0  0  0  0  0  0  0  0  0  0
   44.8330    7.6912   12.0654 C   0  0  0  0  0  0  0  0  0  0  0  0
   44.7299    3.7430   12.7695 C   0  0  0  0  0  0  0  0  0  0  0  0
   47.4641    7.5472   12.9768 C   0  0  0  0  0  0  0  0  0  0  0  0
   45.3614    8.7230   12.8427 C   0  0  0  0  0  0  0  0  0  0  0  0
   46.6762    8.6506   13.2986 C   0  0  0  0  0  0  0  0  0  0  0  0
   44.7613    6.0381   12.0840 S   0  0  0  0  0  0  0  0  0  0  0  0
   44.1978    6.3946   10.8069 O   0  0  0  0  0  0  0  0  0  0  0  0
   43.9985    5.9558   13.3034 O   0  0  0  0  0  0  0  0  0  0  0  0
   45.9977    7.0310   12.3271 O   0  0  0  0  0  0  0  0  0  0  0  0
   45.5195    4.6331   11.9277 O   0  0  0  0  0  0  0  0  0  0  0  0
   45.0367    5.2065   10.8614 C   0  0  0  0  0  0  0  0  0  0  0  0
   45.5018    3.3863   12.5272 N   0  0  0  0  0  0  0  0  0  0  0  0
   45.5323    6.4594   11.5478 C   0  0  0  0  0  0  0  0  0  0  0  0
   44.4622    4.0951   11.7714 C   0  0  1  0  0  0  0  0  0  0  0  0
   44.8149    7.6597   11.4371 C   0  0  0  0  0  0  0  0  0  0  0  0
   46.7162    6.4493   12.2967 C   0  0  0  0  0  0  0  0  0  0  0  0
   43.3842    4.6047   12.7270 C   0  0  0  0  0  0  0  0  0  0  0  0
   45.2712    8.8210   12.0638 C   0  0  0  0  0  0  0  0  0  0  0  0
   47.1713    7.6106   12.9237 C   0  0  0  0  0  0  0  0  0  0  0  0
   46.4493    8.7962   12.8070 C   0  0  0  0  0  0  0  0  0  0  0  0
   45.8557    4.8446   10.4865 H   0  0  0  0  0  0  0  0  0  0  0  0
   44.5427    5.9086   10.0357 H   0  0  0  0  0  0  0  0  0  0  0  0
   42.7199    3.0569   11.2428 H   0  0  0  0  0  0  0  0  0  0  0  0
   42.8667    4.1531   10.0443 H   0  0  0  0  0  0  0  0  0  0  0  0
   43.2662    5.1765   12.1286 H   0  0  0  0  0  0  0  0  0  0  0  0
   47.5652    5.6593   11.9582 H   0  0  0  0  0  0  0  0  0  0  0  0
   43.8063    7.7642   11.7142 H   0  0  0  0  0  0  0  0  0  0  0  0
   45.5358    3.1198   12.3657 H   0  0  0  0  0  0  0  0  0  0  0  0
   45.1582    4.3950   13.5375 H   0  0  0  0  0  0  0  0  0  0  0  0
   44.0131    3.0832   13.2715 H   0  0  0  0  0  0  0  0  0  0  0  0
   48.4900    7.4902   13.3311 H   0  0  0  0  0  0  0  0  0  0  0  0
   44.7473    9.5843   13.0916 H   0  0  0  0  0  0  0  0  0  0  0  0
   47.0873    9.4543   13.9034 H   0  0  0  0  0  0  0  0  0  0  0  0
   46.3299    7.3000   11.4456 H   0  0  0  0  0  0  0  0  0  0  0  0
   45.6434    4.2698   12.8290 H   0  0  0  0  0  0  0  0  0  0  0  0
   44.2588    5.4857   10.1375 H   0  0  0  0  0  0  0  0  0  0  0  0
   45.8551    4.7999   10.2514 H   0  0  0  0  0  0  0  0  0  0  0  0
   45.0786    2.6388   13.0755 H   0  0  0  0  0  0  0  0  0  0  0  0
   46.1520    2.9418   11.8811 H   0  0  0  0  0  0  0  0  0  0  0  0
   43.9945    3.3536   11.1109 H   0  0  0  0  0  0  0  0  0  0  0  0
   43.8924    7.6987   10.8627 H   0  0  0  0  0  0  0  0  0  0  0  0
   47.2878    5.5302   12.4036 H   0  0  0  0  0  0  0  0  0  0  0  0
   43.7924    5.2856   13.4817 H   0  0  0  0  0  0  0  0  0  0  0  0
   42.5993    5.1351   12.1775 H   0  0  0  0  0  0  0  0  0  0  0  0
   42.9095    3.7711   13.2571 H   0  0  0  0  0  0  0  0  0  0  0  0
   44.7062    9.7445   11.9726 H   0  0  0  0  0  0  0  0  0  0  0  0
   48.0883    7.5863   13.5062 H   0  0  0  0  0  0  0  0  0  0  0  0
   46.8037    9.6990   13.2966 H   0  0  0  0  0  0  0  0  0  0  0  0
  4  2  1  0
  3  1  1  0
  4  1  1  0
  5  3  2  0
  6  3  1  0
  4  7  1  0
  8  5  1  0
  9  6  2  0
 10  8  2  0
  9 10  1  0
 12 11  2  0
 13 11  2  0
 14 11  1  0
 15 11  1  0
 19 17  1  0
 18 16  1  0
 19 16  1  0
 20 18  2  0
 21 18  1  0
 19 22  1  0
 23 20  1  0
 24 21  2  0
 25 23  2  0
 24 25  1  0
  1 26  1  0
  1 27  1  0
  2 28  1  0
  2 29  1  0
  4 30  1  1
  5 31  1  0
  6 32  1  0
  7 33  1  0
  7 34  1  0
  7 35  1  0
  8 36  1  0
  9 37  1  0
 10 38  1  0
 14 39  1  0
 15 40  1  0
 16 41  1  0
 16 42  1  0
 17 43  1  0
 17 44  1  0
 19 45  1  6
 20 46  1  0
 21 47  1  0
 22 48  1  0
 22 49  1  0
 22 50  1  0
 23 51  1  0
 24 52  1  0
 25 53  1  0
M  END
> <Uni-Dock RESULT> 
ENERGY=   -5.842  LOWER_BOUND=    4.013  UPPER_BOUND=    5.786
INTER + INTRA:          -5.842
INTER:                  -5.842
INTRA:                   0.000
UNBOUND:                 0.000

$$$$

     RDKit          3D

 53 52  0  0  0  0  0  0  0  0999 V2000
   39.5141   12.6599   11.7379 C   0  0  0  0  0  0  0  0  0  0  0  0
   39.1839   11.4981    9.5907 N   0  0  0  0  0  0  0  0  0  0  0  0
   39.2947   12.6541   13.2334 C   0  0  0  0  0  0  0  0  0  0  0  0
   39.1248   11.3348   11.0502 C   0  0  1  0  0  0  0  0  0  0  0  0
   40.3826   12.5611   14.1119 C   0  0  0  0  0  0  0  0  0  0  0  0
   37.9993   12.7357   13.7630 C   0  0  0  0  0  0  0  0  0  0  0  0
   40.0494   10.1825   11.4450 C   0  0  0  0  0  0  0  0  0  0  0  0
   40.1781   12.5472   15.4925 C   0  0  0  0  0  0  0  0  0  0  0  0
   37.7969   12.7221   15.1439 C   0  0  0  0  0  0  0  0  0  0  0  0
   38.8860   12.6273   16.0081 C   0  0  0  0  0  0  0  0  0  0  0  0
   38.8574   11.8906   12.6283 S   0  0  0  0  0  0  0  0  0  0  0  0
   38.3011   12.9953   11.8895 O   0  0  0  0  0  0  0  0  0  0  0  0
   38.1693   10.6441   12.8482 O   0  0  0  0  0  0  0  0  0  0  0  0
   39.3073   12.4778   14.0517 O   0  0  0  0  0  0  0  0  0  0  0  0
   40.2787   11.5167   11.9851 O   0  0  0  0  0  0  0  0  0  0  0  0
   39.6507   12.5715   11.5470 C   0  0  0  0  0  0  0  0  0  0  0  0
   40.9064   10.3988   11.4651 N   0  0  0  0  0  0  0  0  0  0  0  0
   39.3061   12.7345   13.0103 C   0  0  0  0  0  0  0  0  0  0  0  0
   39.7166   11.1242   11.0043 C   0  0  1  0  0  0  0  0  0  0  0  0
   38.0549   13.2410   13.3920 C   0  0  0  0  0  0  0  0  0  0  0  0
   40.2274   12.3933   14.0089 C   0  0  0  0  0  0  0  0  0  0  0  0
   38.4612   10.3118   11.3186 C   0  0  0  0  0  0  0  0  0  0  0  0
   37.7337   13.3992   14.7416 C   0  0  0  0  0  0  0  0  0  0  0  0
   39.9052   12.5510   15.3580 C   0  0  0  0  0  0  0  0  0  0  0  0
   38.6589   13.0542   15.7243 C   0  0  0  0  0  0  0  0  0  0  0  0
   40.5608   12.9076   11.5156 H   0  0  0  0  0  0  0  0  0  0  0  0
   38.9216   13.4857   11.3200 H   0  0  0  0  0  0  0  0  0  0  0  0
   38.8976   10.6297    9.1396 H   0  0  0  0  0  0  0  0  0  0  0  0
   38.5108   12.2059    9.2990 H   0  0  0  0  0  0  0  0  0  0  0  0
   38.0962   11.0641   11.3178 H   0  0  0  0  0  0  0  0  0  0  0  0
   41.3973   12.4961   13.7253 H   0  0  0  0  0  0  0  0  0  0  0  0
   37.1394   12.8138   13.1017 H   0  0  0  0  0  0  0  0  0  0  0  0
   41.0963   10.4111   11.2161 H   0  0  0  0  0  0  0  0  0  0  0  0
   39.9762    9.9656   12.5155 H   0  0  0  0  0  0  0  0  0  0  0  0
   39.7809    9.2633   10.9120 H   0  0  0  0  0  0  0  0  0  0  0  0
   41.0282   12.4742   16.1657 H   0  0  0  0  0  0  0  0  0  0  0  0
   36.7893   12.7868   15.5456 H   0  0  0  0  0  0  0  0  0  0  0  0
   38.7281   12.6171   17.0832 H   0  0  0  0  0  0  0  0  0  0  0  0
   39.5069   13.4281   13.9222 H   0  0  0  0  0  0  0  0  0  0  0  0
   40.5069   10.6151   12.2929 H   0  0  0  0  0  0  0  0  0  0  0  0
   38.9134   13.1234   10.9479 H   0  0  0  0  0  0  0  0  0  0  0  0
   40.6050   13.0820   11.3578 H   0  0  0  0  0  0  0  0  0  0  0  0
   40.9257    9.4697   11.0470 H   0  0  0  0  0  0  0  0  0  0  0  0
   41.7458   10.8797   11.1459 H   0  0  0  0  0  0  0  0  0  0  0  0
   39.7978   11.1977    9.9122 H   0  0  0  0  0  0  0  0  0  0  0  0
   37.3190   13.5145   12.6397 H   0  0  0  0  0  0  0  0  0  0  0  0
   41.2020   11.9924   13.7399 H   0  0  0  0  0  0  0  0  0  0  0  0
   38.3563   10.1153   12.3912 H   0  0  0  0  0  0  0  0  0  0  0  0
   37.5636   10.8395   10.9790 H   0  0  0  0  0  0  0  0  0  0  0  0
   38.4871    9.3430   10.8068 H   0  0  0  0  0  0  0  0  0  0  0  0
   36.7608   13.7908   15.0254 H   0  0  0  0  0  0  0  0  0  0  0  0
   40.6278   12.2767   16.1218 H   0  0  0  0  0  0  0  0  0  0  0  0
   38.4087   13.1752   16.7746 H   0  0  0  0  0  0  0  0  0  0  0  0
  4  2  1  0
  3  1  1  0
  4  1  1  0
  5  3  2  0
  6  3  1  0
  4  7  1  0
  8  5  1  0
  9  6  2  0
 10  8  2  0
  9 10  1  0
 12 11  2  0
 13 11  2  0
 14 11  1  0
 15 11  1  0
 19 17  1  0
 18 16  1  0
 19 16  1  0
 20 18  2  0
 21 18  1  0
 19 22  1  0
 23 20  1  0
 24 21  2  0
 25 23  2  0
 24 25  1  0
  1 26  1  0
  1 27  1  0
  2 28  1  0
  2 29  1  0
  4 30  1  1
  5 31  1  0
  6 32  1  0
  7 33  1  0
  7 34  1  0
  7 35  1  0
  8 36  1  0
  9 37  1  0
 10 38  1  0
 14 39  1  0
 15 40  1  0
 16 41  1  0
 16 42  1  0
 17 43  1  0
 17 44  1  0
 19 45  1  6
 20 46  1  0
 21 47  1  0
 22 48  1  0
 22 49  1  0
 22 50  1  0
 23 51  1  0
 24 52  1  0
 25 53  1  0
M  END
> <Uni-Dock RESULT> 
ENERGY=   -5.681  LOWER_BOUND=   10.278  UPPER_BOUND=   12.643
INTER + INTRA:          -5.681
INTER:                  -5.681
INTRA:                   0.000
UNBOUND:                 0.000

$$$$

     RDKit          3D

 53 52  0  0  0  0  0  0  0  0999 V2000
   44.9292    6.7098   12.7395 C   0  0  0  0  0  0  0  0  0  0  0  0
   46.2288    8.7687   13.1156 N   0  0  0  0  0  0  0  0  0  0  0  0
   44.8146    5.3958   12.0012 C   0  0  0  0  0  0  0  0  0  0  0  0
   46.2814    7.4222   12.5284 C   0  0  1  0  0  0  0  0  0  0  0  0
   44.8942    4.1806   12.6947 C   0  0  0  0  0  0  0  0  0  0  0  0
   44.6330    5.3738   10.6114 C   0  0  0  0  0  0  0  0  0  0  0  0
   47.4440    6.6618   13.1675 C   0  0  0  0  0  0  0  0  0  0  0  0
   44.7969    2.9678   12.0109 C   0  0  0  0  0  0  0  0  0  0  0  0
   44.5354    4.1600    9.9294 C   0  0  0  0  0  0  0  0  0  0  0  0
   44.6179    2.9576   10.6289 C   0  0  0  0  0  0  0  0  0  0  0  0
   45.5990    6.0776   11.7557 S   0  0  0  0  0  0  0  0  0  0  0  0
   44.5264    7.0232   11.5791 O   0  0  0  0  0  0  0  0  0  0  0  0
   46.7918    6.0566   10.9482 O   0  0  0  0  0  0  0  0  0  0  0  0
   44.9307    4.6200   11.7087 O   0  0  0  0  0  0  0  0  0  0  0  0
   46.0861    6.1450   13.2827 O   0  0  0  0  0  0  0  0  0  0  0  0
   45.0377    6.8338   12.9286 C   0  0  0  0  0  0  0  0  0  0  0  0
   47.2677    6.3453   13.9740 N   0  0  0  0  0  0  0  0  0  0  0  0
   44.7515    5.6036   12.0971 C   0  0  0  0  0  0  0  0  0  0  0  0
   46.5225    7.2408   13.0812 C   0  0  1  0  0  0  0  0  0  0  0  0
   44.1595    5.7253   10.8312 C   0  0  0  0  0  0  0  0  0  0  0  0
   45.0616    4.3239   12.5750 C   0  0  0  0  0  0  0  0  0  0  0  0
   47.2492    7.3587   11.7422 C   0  0  0  0  0  0  0  0  0  0  0  0
   43.8874    4.5924   10.0618 C   0  0  0  0  0  0  0  0  0  0  0  0
   44.7900    3.1916   11.8048 C   0  0  0  0  0  0  0  0  0  0  0  0
   44.2027    3.3258   10.5488 C   0  0  0  0  0  0  0  0  0  0  0  0
   44.7484    6.5523   13.8113 H   0  0  0  0  0  0  0  0  0  0  0  0
   44.1092    7.3552   12.3949 H   0  0  0  0  0  0  0  0  0  0  0  0
   47.1135    9.2472   12.9484 H   0  0  0  0  0  0  0  0  0  0  0  0
   45.5133    9.3195   12.6427 H   0  0  0  0  0  0  0  0  0  0  0  0
   46.4826    7.5298   11.4557 H   0  0  0  0  0  0  0  0  0  0  0  0
   45.0355    4.1715   13.7733 H   0  0  0  0  0  0  0  0  0  0  0  0
   44.5630    6.3037   10.0517 H   0  0  0  0  0  0  0  0  0  0  0  0
   47.2827    6.5094   14.2406 H   0  0  0  0  0  0  0  0  0  0  0  0
   47.5779    5.6800   12.7021 H   0  0  0  0  0  0  0  0  0  0  0  0
   48.3862    7.2076   13.0426 H   0  0  0  0  0  0  0  0  0  0  0  0
   44.8604    2.0306   12.5574 H   0  0  0  0  0  0  0  0  0  0  0  0
   44.3936    4.1525    8.8520 H   0  0  0  0  0  0  0  0  0  0  0  0
   44.5415    2.0127   10.0976 H   0  0  0  0  0  0  0  0  0  0  0  0
   44.0030    4.7177   12.0079 H   0  0  0  0  0  0  0  0  0  0  0  0
   46.9724    5.7295   13.3218 H   0  0  0  0  0  0  0  0  0  0  0  0
   44.4971    7.6861   12.4944 H   0  0  0  0  0  0  0  0  0  0  0  0
   44.5883    6.6923   13.9210 H   0  0  0  0  0  0  0  0  0  0  0  0
   48.2249    6.6798   14.0754 H   0  0  0  0  0  0  0  0  0  0  0  0
   46.8518    6.3648   14.9037 H   0  0  0  0  0  0  0  0  0  0  0  0
   46.5335    8.2324   13.5516 H   0  0  0  0  0  0  0  0  0  0  0  0
   43.9075    6.7054   10.4333 H   0  0  0  0  0  0  0  0  0  0  0  0
   45.5269    4.2024   13.5506 H   0  0  0  0  0  0  0  0  0  0  0  0
   47.3611    6.3875   11.2481 H   0  0  0  0  0  0  0  0  0  0  0  0
   46.7059    8.0258   11.0645 H   0  0  0  0  0  0  0  0  0  0  0  0
   48.2531    7.7761   11.8805 H   0  0  0  0  0  0  0  0  0  0  0  0
   43.4304    4.6990    9.0819 H   0  0  0  0  0  0  0  0  0  0  0  0
   45.0413    2.2057   12.1862 H   0  0  0  0  0  0  0  0  0  0  0  0
   43.9931    2.4441    9.9496 H   0  0  0  0  0  0  0  0  0  0  0  0
  4  2  1  0
  3  1  1  0
  4  1  1  0
  5  3  2  0
  6  3  1  0
  4  7  1  0
  8  5  1  0
  9  6  2  0
 10  8  2  0
  9 10  1  0
 12 11  2  0
 13 11  2  0
 14 11  1  0
 15 11  1  0
 19 17  1  0
 18 16  1  0
 19 16  1  0
 20 18  2  0
 21 18  1  0
 19 22  1  0
 23 20  1  0
 24 21  2  0
 25 23  2  0
 24 25  1  0
  1 26  1  0
  1 27  1  0
  2 28  1  0
  2 29  1  0
  4 30  1  1
  5 31  1  0
  6 32  1  0
  7 33  1  0
  7 34  1  0
  7 35  1  0
  8 36  1  0
  9 37  1  0
 10 38  1  0
 14 39  1  0
 15 40  1  0
 16 41  1  0
 16 42  1  0
 17 43  1  0
 17 44  1  0
 19 45  1  6
 20 46  1  0
 21 47  1  0
 22 48  1  0
 22 49  1  0
 22 50  1  0
 23 51  1  0
 24 52  1  0
 25 53  1  0
M  END
> <Uni-Dock RESULT> 
ENERGY=   -5.470  LOWER_BOUND=    3.550  UPPER_BOUND=    4.814
INTER + INTRA:          -5.470
INTER:                  -5.470
INTRA:                   0.000
UNBOUND:                 0.000

$$$$

     RDKit          3D

 53 52  0  0  0  0  0  0  0  0999 V2000
   47.6490    5.8331   19.5172 C   0  0  0  0  0  0  0  0  0  0  0  0
   47.2712    8.2319   19.9320 N   0  0  0  0  0  0  0  0  0  0  0  0
   48.1092    4.7674   18.5491 C   0  0  0  0  0  0  0  0  0  0  0  0
   47.9222    7.2713   19.0299 C   0  0  1  0  0  0  0  0  0  0  0  0
   49.2582    4.0110   18.8167 C   0  0  0  0  0  0  0  0  0  0  0  0
   47.3966    4.5244   17.3666 C   0  0  0  0  0  0  0  0  0  0  0  0
   49.4163    7.5928   18.9790 C   0  0  0  0  0  0  0  0  0  0  0  0
   49.6870    3.0331   17.9179 C   0  0  0  0  0  0  0  0  0  0  0  0
   47.8268    3.5458   16.4692 C   0  0  0  0  0  0  0  0  0  0  0  0
   48.9718    2.8009   16.7447 C   0  0  0  0  0  0  0  0  0  0  0  0
   48.0379    5.7833   18.2279 S   0  0  0  0  0  0  0  0  0  0  0  0
   46.6832    5.6895   18.7089 O   0  0  0  0  0  0  0  0  0  0  0  0
   48.4277    6.5466   17.0699 O   0  0  0  0  0  0  0  0  0  0  0  0
   48.5573    4.2773   18.0392 O   0  0  0  0  0  0  0  0  0  0  0  0
   48.9696    6.2825   19.4347 O   0  0  0  0  0  0  0  0  0  0  0  0
   47.7186    6.0107   19.6800 C   0  0  0  0  0  0  0  0  0  0  0  0
   49.8715    7.3027   19.6792 N   0  0  0  0  0  0  0  0  0  0  0  0
   47.9772    4.8775   18.7129 C   0  0  0  0  0  0  0  0  0  0  0  0
   48.4337    7.3514   19.3886 C   0  0  1  0  0  0  0  0  0  0  0  0
   46.9733    4.4577   17.8276 C   0  0  0  0  0  0  0  0  0  0  0  0
   49.2146    4.2214   18.6875 C   0  0  0  0  0  0  0  0  0  0  0  0
   48.2108    7.8482   17.9609 C   0  0  0  0  0  0  0  0  0  0  0  0
   47.2047    3.4078   16.9367 C   0  0  0  0  0  0  0  0  0  0  0  0
   49.4455    3.1722   17.7958 C   0  0  0  0  0  0  0  0  0  0  0  0
   48.4407    2.7653   16.9210 C   0  0  0  0  0  0  0  0  0  0  0  0
   48.1152    5.6717   20.4985 H   0  0  0  0  0  0  0  0  0  0  0  0
   46.5711    5.6913   19.6770 H   0  0  0  0  0  0  0  0  0  0  0  0
   47.4290    9.1796   19.5905 H   0  0  0  0  0  0  0  0  0  0  0  0
   46.2624    8.0871   19.9143 H   0  0  0  0  0  0  0  0  0  0  0  0
   47.5008    7.4115   18.0272 H   0  0  0  0  0  0  0  0  0  0  0  0
   49.8285    4.1812   19.7273 H   0  0  0  0  0  0  0  0  0  0  0  0
   46.4990    5.0948   17.1390 H   0  0  0  0  0  0  0  0  0  0  0  0
   49.8917    7.4489   19.9557 H   0  0  0  0  0  0  0  0  0  0  0  0
   49.9333    6.9567   18.2534 H   0  0  0  0  0  0  0  0  0  0  0  0
   49.5843    8.6316   18.6724 H   0  0  0  0  0  0  0  0  0  0  0  0
   50.5796    2.4520   18.1341 H   0  0  0  0  0  0  0  0  0  0  0  0
   47.2675    3.3635   15.5555 H   0  0  0  0  0  0  0  0  0  0  0  0
   49.3062    2.0387   16.0460 H   0  0  0  0  0  0  0  0  0  0  0  0
   48.0556    3.7178   18.6676 H   0  0  0  0  0  0  0  0  0  0  0  0
   49.8031    6.6119   19.0391 H   0  0  0  0  0  0  0  0  0  0  0  0
   46.6378    6.2052   19.7139 H   0  0  0  0  0  0  0  0  0  0  0  0
   47.9740    5.6667   20.6916 H   0  0  0  0  0  0  0  0  0  0  0  0
   50.2868    8.2184   19.5132 H   0  0  0  0  0  0  0  0  0  0  0  0
   50.0147    7.0920   20.6655 H   0  0  0  0  0  0  0  0  0  0  0  0
   48.0016    8.0965   20.0690 H   0  0  0  0  0  0  0  0  0  0  0  0
   46.0026    4.9478   17.8237 H   0  0  0  0  0  0  0  0  0  0  0  0
   50.0120    4.5315   19.3591 H   0  0  0  0  0  0  0  0  0  0  0  0
   48.6946    7.2020   17.2204 H   0  0  0  0  0  0  0  0  0  0  0  0
   47.1413    7.8918   17.7289 H   0  0  0  0  0  0  0  0  0  0  0  0
   48.6170    8.8580   17.8331 H   0  0  0  0  0  0  0  0  0  0  0  0
   46.4203    3.0925   16.2542 H   0  0  0  0  0  0  0  0  0  0  0  0
   50.4123    2.6764   17.7835 H   0  0  0  0  0  0  0  0  0  0  0  0
   48.6220    1.9497   16.2265 H   0  0  0  0  0  0  0  0  0  0  0  0
  4  2  1  0
  3  1  1  0
  4  1  1  0
  5  3  2  0
  6  3  1  0
  4  7  1  0
  8  5  1  0
  9  6  2  0
 10  8  2  0
  9 10  1  0
 12 11  2  0
 13 11  2  0
 14 11  1  0
 15 11  1  0
 19 17  1  0
 18 16  1  0
 19 16  1  0
 20 18  2  0
 21 18  1  0
 19 22  1  0
 23 20  1  0
 24 21  2  0
 25 23  2  0
 24 25  1  0
  1 26  1  0
  1 27  1  0
  2 28  1  0
  2 29  1  0
  4 30  1  1
  5 31  1  0
  6 32  1  0
  7 33  1  0
  7 34  1  0
  7 35  1  0
  8 36  1  0
  9 37  1  0
 10 38  1  0
 14 39  1  0
 15 40  1  0
 16 41  1  0
 16 42  1  0
 17 43  1  0
 17 44  1  0
 19 45  1  6
 20 46  1  0
 21 47  1  0
 22 48  1  0
 22 49  1  0
 22 50  1  0
 23 51  1  0
 24 52  1  0
 25 53  1  0
M  END
> <Uni-Dock RESULT> 
ENERGY=   -5.200  LOWER_BOUND=    9.187  UPPER_BOUND=   10.643
INTER + INTRA:          -5.200
INTER:                  -5.200
INTRA:                   0.000
UNBOUND:                 0.000

$$$$

     RDKit          3D

 53 52  0  0  0  0  0  0  0  0999 V2000
   52.8850    6.4764    7.6050 C   0  0  0  0  0  0  0  0  0  0  0  0
   52.4987    8.2989    5.9930 N   0  0  0  0  0  0  0  0  0  0  0  0
   53.8570    5.7852    8.5336 C   0  0  0  0  0  0  0  0  0  0  0  0
   53.4191    7.8031    7.0263 C   0  0  1  0  0  0  0  0  0  0  0  0
   53.6457    5.7930    9.9189 C   0  0  0  0  0  0  0  0  0  0  0  0
   54.9871    5.1316    8.0227 C   0  0  0  0  0  0  0  0  0  0  0  0
   53.5704    8.8843    8.0971 C   0  0  0  0  0  0  0  0  0  0  0  0
   54.5485    5.1618   10.7761 C   0  0  0  0  0  0  0  0  0  0  0  0
   55.8884    4.5007    8.8814 C   0  0  0  0  0  0  0  0  0  0  0  0
   55.6694    4.5163   10.2575 C   0  0  0  0  0  0  0  0  0  0  0  0
   54.1948    6.5796    7.9048 S   0  0  0  0  0  0  0  0  0  0  0  0
   53.6279    5.7874    6.8433 O   0  0  0  0  0  0  0  0  0  0  0  0
   55.3910    7.3702    7.7656 O   0  0  0  0  0  0  0  0  0  0  0  0
   54.3833    5.5930    9.1557 O   0  0  0  0  0  0  0  0  0  0  0  0
   53.0596    7.5682    8.4594 O   0  0  0  0  0  0  0  0  0  0  0  0
   52.7307    6.6715    7.5725 C   0  0  0  0  0  0  0  0  0  0  0  0
   52.8940    8.9263    8.6649 N   0  0  0  0  0  0  0  0  0  0  0  0
   53.6877    5.8139    8.3696 C   0  0  0  0  0  0  0  0  0  0  0  0
   53.0950    8.1678    7.4245 C   0  0  1  0  0  0  0  0  0  0  0  0
   54.4991    4.8691    7.7242 C   0  0  0  0  0  0  0  0  0  0  0  0
   53.7765    5.9385    9.7621 C   0  0  0  0  0  0  0  0  0  0  0  0
   54.5162    8.3873    6.9081 C   0  0  0  0  0  0  0  0  0  0  0  0
   55.3801    4.0704    8.4561 C   0  0  0  0  0  0  0  0  0  0  0  0
   54.6581    5.1402   10.4930 C   0  0  0  0  0  0  0  0  0  0  0  0
   55.4594    4.2061    9.8403 C   0  0  0  0  0  0  0  0  0  0  0  0
   51.9316    6.6468    8.1229 H   0  0  0  0  0  0  0  0  0  0  0  0
   52.6549    5.7783    6.7881 H   0  0  0  0  0  0  0  0  0  0  0  0
   52.8697    9.1599    5.5921 H   0  0  0  0  0  0  0  0  0  0  0  0
   52.4502    7.6267    5.2283 H   0  0  0  0  0  0  0  0  0  0  0  0
   54.3963    7.6383    6.5564 H   0  0  0  0  0  0  0  0  0  0  0  0
   52.7766    6.2939   10.3396 H   0  0  0  0  0  0  0  0  0  0  0  0
   55.1701    5.1075    6.9509 H   0  0  0  0  0  0  0  0  0  0  0  0
   52.6225    9.0740    8.6130 H   0  0  0  0  0  0  0  0  0  0  0  0
   54.3132    8.5961    8.8479 H   0  0  0  0  0  0  0  0  0  0  0  0
   53.9091    9.8289    7.6563 H   0  0  0  0  0  0  0  0  0  0  0  0
   54.3762    5.1737   11.8490 H   0  0  0  0  0  0  0  0  0  0  0  0
   56.7612    3.9955    8.4765 H   0  0  0  0  0  0  0  0  0  0  0  0
   56.3711    4.0245   10.9258 H   0  0  0  0  0  0  0  0  0  0  0  0
   53.7129    4.8841    9.0682 H   0  0  0  0  0  0  0  0  0  0  0  0
   53.5137    8.2776    8.9597 H   0  0  0  0  0  0  0  0  0  0  0  0
   52.6333    6.2465    6.5641 H   0  0  0  0  0  0  0  0  0  0  0  0
   51.7299    6.5757    8.0155 H   0  0  0  0  0  0  0  0  0  0  0  0
   53.1053    9.9102    8.5040 H   0  0  0  0  0  0  0  0  0  0  0  0
   51.9144    8.8796    8.9401 H   0  0  0  0  0  0  0  0  0  0  0  0
   52.4050    8.5910    6.6832 H   0  0  0  0  0  0  0  0  0  0  0  0
   54.4526    4.7495    6.6444 H   0  0  0  0  0  0  0  0  0  0  0  0
   53.1630    6.6678   10.2862 H   0  0  0  0  0  0  0  0  0  0  0  0
   55.2715    8.0719    7.6361 H   0  0  0  0  0  0  0  0  0  0  0  0
   54.6816    7.8285    5.9808 H   0  0  0  0  0  0  0  0  0  0  0  0
   54.6908    9.4470    6.6897 H   0  0  0  0  0  0  0  0  0  0  0  0
   56.0051    3.3432    7.9451 H   0  0  0  0  0  0  0  0  0  0  0  0
   54.7204    5.2519   11.5721 H   0  0  0  0  0  0  0  0  0  0  0  0
   56.1463    3.5863   10.4100 H   0  0  0  0  0  0  0  0  0  0  0  0
  4  2  1  0
  3  1  1  0
  4  1  1  0
  5  3  2  0
  6  3  1  0
  4  7  1  0
  8  5  1  0
  9  6  2  0
 10  8  2  0
  9 10  1  0
 12 11  2  0
 13 11  2  0
 14 11  1  0
 15 11  1  0
 19 17  1  0
 18 16  1  0
 19 16  1  0
 20 18  2  0
 21 18  1  0
 19 22  1  0
 23 20  1  0
 24 21  2  0
 25 23  2  0
 24 25  1  0
  1 26  1  0
  1 27  1  0
  2 28  1  0
  2 29  1  0
  4 30  1  1
  5 31  1  0
  6 32  1  0
  7 33  1  0
  7 34  1  0
  7 35  1  0
  8 36  1  0
  9 37  1  0
 10 38  1  0
 14 39  1  0
 15 40  1  0
 16 41  1  0
 16 42  1  0
 17 43  1  0
 17 44  1  0
 19 45  1  6
 20 46  1  0
 21 47  1  0
 22 48  1  0
 22 49  1  0
 22 50  1  0
 23 51  1  0
 24 52  1  0
 25 53  1  0
M  END
> <Uni-Dock RESULT> 
ENERGY=   -5.047  LOWER_BOUND=    8.383  UPPER_BOUND=    9.323
INTER + INTRA:          -5.047
INTER:                  -5.047
INTRA:                   0.000
UNBOUND:                 0.000

$$$$

     RDKit          3D

 53 52  0  0  0  0  0  0  0  0999 V2000
   47.4231   12.8082   18.1074 C   0  0  0  0  0  0  0  0  0  0  0  0
   48.7056   14.8122   17.4685 N   0  0  0  0  0  0  0  0  0  0  0  0
   47.4244   11.4664   18.8035 C   0  0  0  0  0  0  0  0  0  0  0  0
   48.7134   13.6234   18.3330 C   0  0  1  0  0  0  0  0  0  0  0  0
   46.6520   11.2612   19.9547 C   0  0  0  0  0  0  0  0  0  0  0  0
   48.2029   10.4098   18.3109 C   0  0  0  0  0  0  0  0  0  0  0  0
   48.8638   14.0824   19.7838 C   0  0  0  0  0  0  0  0  0  0  0  0
   46.6606   10.0244   20.6015 C   0  0  0  0  0  0  0  0  0  0  0  0
   48.2099    9.1737   18.9589 C   0  0  0  0  0  0  0  0  0  0  0  0
   47.4394    8.9814   20.1040 C   0  0  0  0  0  0  0  0  0  0  0  0
   48.3360   12.0128   18.6992 S   0  0  0  0  0  0  0  0  0  0  0  0
   48.0015   12.0228   17.2979 O   0  0  0  0  0  0  0  0  0  0  0  0
   49.6820   11.9123   19.2027 O   0  0  0  0  0  0  0  0  0  0  0  0
   47.4581   10.8477   19.3665 O   0  0  0  0  0  0  0  0  0  0  0  0
   47.6924   13.3141   19.3818 O   0  0  0  0  0  0  0  0  0  0  0  0
   47.4122   13.0572   18.1351 C   0  0  0  0  0  0  0  0  0  0  0  0
   48.1166   14.3876   20.1446 N   0  0  0  0  0  0  0  0  0  0  0  0
   47.3818   11.6317   18.6384 C   0  0  0  0  0  0  0  0  0  0  0  0
   48.4620   13.9981   18.7723 C   0  0  1  0  0  0  0  0  0  0  0  0
   47.8399   10.5832   17.8268 C   0  0  0  0  0  0  0  0  0  0  0  0
   46.8899   11.3295   19.9148 C   0  0  0  0  0  0  0  0  0  0  0  0
   49.8772   13.4227   18.7383 C   0  0  0  0  0  0  0  0  0  0  0  0
   47.8085    9.2643   18.2842 C   0  0  0  0  0  0  0  0  0  0  0  0
   46.8596   10.0107   20.3717 C   0  0  0  0  0  0  0  0  0  0  0  0
   47.3183    8.9784   19.5565 C   0  0  0  0  0  0  0  0  0  0  0  0
   46.5477   13.3913   18.4235 H   0  0  0  0  0  0  0  0  0  0  0  0
   47.2809   12.6234   17.0336 H   0  0  0  0  0  0  0  0  0  0  0  0
   49.5728   15.3326   17.5984 H   0  0  0  0  0  0  0  0  0  0  0  0
   48.6907   14.5232   16.4911 H   0  0  0  0  0  0  0  0  0  0  0  0
   49.5882   13.0182   18.0661 H   0  0  0  0  0  0  0  0  0  0  0  0
   46.0401   12.0657   20.3567 H   0  0  0  0  0  0  0  0  0  0  0  0
   48.8068   10.5430   17.4162 H   0  0  0  0  0  0  0  0  0  0  0  0
   48.0026   14.6773   20.1082 H   0  0  0  0  0  0  0  0  0  0  0  0
   48.9598   13.2278   20.4611 H   0  0  0  0  0  0  0  0  0  0  0  0
   49.7636   14.6953   19.9106 H   0  0  0  0  0  0  0  0  0  0  0  0
   46.0587    9.8752   21.4940 H   0  0  0  0  0  0  0  0  0  0  0  0
   48.8156    8.3599   18.5692 H   0  0  0  0  0  0  0  0  0  0  0  0
   47.4447    8.0187   20.6079 H   0  0  0  0  0  0  0  0  0  0  0  0
   46.6516   10.7445   18.8200 H   0  0  0  0  0  0  0  0  0  0  0  0
   48.1510   13.4485   20.2370 H   0  0  0  0  0  0  0  0  0  0  0  0
   47.5851   13.0442   17.0502 H   0  0  0  0  0  0  0  0  0  0  0  0
   46.4083   13.4873   18.2544 H   0  0  0  0  0  0  0  0  0  0  0  0
   48.8136   15.0391   20.5026 H   0  0  0  0  0  0  0  0  0  0  0  0
   47.2264   14.8828   20.1463 H   0  0  0  0  0  0  0  0  0  0  0  0
   48.4658   14.9200   18.1766 H   0  0  0  0  0  0  0  0  0  0  0  0
   48.2275   10.7866   16.8314 H   0  0  0  0  0  0  0  0  0  0  0  0
   46.5346   12.1246   20.5663 H   0  0  0  0  0  0  0  0  0  0  0  0
   49.9800   12.5455   19.3862 H   0  0  0  0  0  0  0  0  0  0  0  0
   50.1509   13.1285   17.7195 H   0  0  0  0  0  0  0  0  0  0  0  0
   50.6076   14.1679   19.0735 H   0  0  0  0  0  0  0  0  0  0  0  0
   48.1678    8.4606   17.6475 H   0  0  0  0  0  0  0  0  0  0  0  0
   46.4806    9.7919   21.3663 H   0  0  0  0  0  0  0  0  0  0  0  0
   47.2956    7.9525   19.9137 H   0  0  0  0  0  0  0  0  0  0  0  0
  4  2  1  0
  3  1  1  0
  4  1  1  0
  5  3  2  0
  6  3  1  0
  4  7  1  0
  8  5  1  0
  9  6  2  0
 10  8  2  0
  9 10  1  0
 12 11  2  0
 13 11  2  0
 14 11  1  0
 15 11  1  0
 19 17  1  0
 18 16  1  0
 19 16  1  0
 20 18  2  0
 21 18  1  0
 19 22  1  0
 23 20  1  0
 24 21  2  0
 25 23  2  0
 24 25  1  0
  1 26  1  0
  1 27  1  0
  2 28  1  0
  2 29  1  0
  4 30  1  1
  5 31  1  0
  6 32  1  0
  7 33  1  0
  7 34  1  0
  7 35  1  0
  8 36  1  0
  9 37  1  0
 10 38  1  0
 14 39  1  0
 15 40  1  0
 16 41  1  0
 16 42  1  0
 17 43  1  0
 17 44  1  0
 19 45  1  6
 20 46  1  0
 21 47  1  0
 22 48  1  0
 22 49  1  0
 22 50  1  0
 23 51  1  0
 24 52  1  0
 25 53  1  0
M  END
> <Uni-Dock RESULT> 
ENERGY=   -4.917  LOWER_BOUND=   12.509  UPPER_BOUND=   14.074
INTER + INTRA:          -4.917
INTER:                  -4.917
INTRA:                   0.000
UNBOUND:                 0.000

$$$$
