
     RDKit          3D

 53 52  0  0  0  0  0  0  0  0999 V2000
   44.2959    3.6349    9.0910 C   0  0  0  0  0  0  0  0  0  0  0  0
   45.3830    5.6793   10.0214 N   0  0  0  0  0  0  0  0  0  0  0  0
   45.3525    3.0505    8.1808 C   0  0  0  0  0  0  0  0  0  0  0  0
   44.8729    4.3382   10.3394 C   0  0  1  0  0  0  0  0  0  0  0  0
   45.6687    1.6860    8.2432 C   0  0  0  0  0  0  0  0  0  0  0  0
   46.0398    3.8632    7.2701 C   0  0  0  0  0  0  0  0  0  0  0  0
   43.7999    4.4652   11.4226 C   0  0  0  0  0  0  0  0  0  0  0  0
   46.6457    1.1458    7.4049 C   0  0  0  0  0  0  0  0  0  0  0  0
   47.0173    3.3222    6.4333 C   0  0  0  0  0  0  0  0  0  0  0  0
   47.3189    1.9636    6.4996 C   0  0  0  0  0  0  0  0  0  0  0  0
   45.4795    3.2086    9.1856 S   0  0  0  0  0  0  0  0  0  0  0  0
   46.3688    3.5070   10.2792 O   0  0  0  0  0  0  0  0  0  0  0  0
   44.8752    1.9184    8.9713 O   0  0  0  0  0  0  0  0  0  0  0  0
   46.2158    3.5977    7.8145 O   0  0  0  0  0  0  0  0  0  0  0  0
   44.3149    4.3107    9.2344 O   0  0  0  0  0  0  0  0  0  0  0  0
   44.2920    4.0077    8.6933 C   0  0  0  0  0  0  0  0  0  0  0  0
   45.6118    5.3334   10.3415 N   0  0  0  0  0  0  0  0  0  0  0  0
   45.4171    3.1587    8.1443 C   0  0  0  0  0  0  0  0  0  0  0  0
   44.4877    4.4039   10.1723 C   0  0  1  0  0  0  0  0  0  0  0  0
   45.4860    1.7904    8.4399 C   0  0  0  0  0  0  0  0  0  0  0  0
   46.4156    3.7330    7.3461 C   0  0  0  0  0  0  0  0  0  0  0  0
   43.2240    5.0673   10.7175 C   0  0  0  0  0  0  0  0  0  0  0  0
   46.5329    1.0119    7.9436 C   0  0  0  0  0  0  0  0  0  0  0  0
   47.4617    2.9531    6.8512 C   0  0  0  0  0  0  0  0  0  0  0  0
   47.5200    1.5931    7.1498 C   0  0  0  0  0  0  0  0  0  0  0  0
   43.6266    2.8223    9.4045 H   0  0  0  0  0  0  0  0  0  0  0  0
   43.6605    4.3217    8.5154 H   0  0  0  0  0  0  0  0  0  0  0  0
   44.6163    6.2795    9.7211 H   0  0  0  0  0  0  0  0  0  0  0  0
   45.7662    6.1059   10.8640 H   0  0  0  0  0  0  0  0  0  0  0  0
   45.7014    3.7447   10.7446 H   0  0  0  0  0  0  0  0  0  0  0  0
   45.1554    1.0337    8.9456 H   0  0  0  0  0  0  0  0  0  0  0  0
   45.8228    4.9278    7.2175 H   0  0  0  0  0  0  0  0  0  0  0  0
   42.9405    5.0474   11.0711 H   0  0  0  0  0  0  0  0  0  0  0  0
   44.1990    4.9555   12.3175 H   0  0  0  0  0  0  0  0  0  0  0  0
   43.4366    3.4768   11.7241 H   0  0  0  0  0  0  0  0  0  0  0  0
   46.8829    0.0867    7.4600 H   0  0  0  0  0  0  0  0  0  0  0  0
   47.5460    3.9642    5.7340 H   0  0  0  0  0  0  0  0  0  0  0  0
   48.0812    1.5438    5.8490 H   0  0  0  0  0  0  0  0  0  0  0  0
   45.7410    3.1385    7.0912 H   0  0  0  0  0  0  0  0  0  0  0  0
   44.6919    5.1110    9.6555 H   0  0  0  0  0  0  0  0  0  0  0  0
   44.1666    4.9051    8.0725 H   0  0  0  0  0  0  0  0  0  0  0  0
   43.3566    3.4428    8.5821 H   0  0  0  0  0  0  0  0  0  0  0  0
   45.7651    5.5040   11.3345 H   0  0  0  0  0  0  0  0  0  0  0  0
   46.4631    4.8840    9.9994 H   0  0  0  0  0  0  0  0  0  0  0  0
   44.6914    3.5064   10.7691 H   0  0  0  0  0  0  0  0  0  0  0  0
   44.7227    1.3224    9.0572 H   0  0  0  0  0  0  0  0  0  0  0  0
   46.3840    4.7947    7.1096 H   0  0  0  0  0  0  0  0  0  0  0  0
   43.3426    5.3338   11.7737 H   0  0  0  0  0  0  0  0  0  0  0  0
   42.3682    4.3877   10.6433 H   0  0  0  0  0  0  0  0  0  0  0  0
   42.9780    5.9803   10.1634 H   0  0  0  0  0  0  0  0  0  0  0  0
   46.5776   -0.0489    8.1754 H   0  0  0  0  0  0  0  0  0  0  0  0
   48.2308    3.4076    6.2323 H   0  0  0  0  0  0  0  0  0  0  0  0
   48.3342    0.9862    6.7628 H   0  0  0  0  0  0  0  0  0  0  0  0
  4  2  1  0
  3  1  1  0
  4  1  1  0
  5  3  2  0
  6  3  1  0
  4  7  1  0
  8  5  1  0
  9  6  2  0
 10  8  2  0
  9 10  1  0
 12 11  2  0
 13 11  2  0
 14 11  1  0
 15 11  1  0
 19 17  1  0
 18 16  1  0
 19 16  1  0
 20 18  2  0
 21 18  1  0
 19 22  1  0
 23 20  1  0
 24 21  2  0
 25 23  2  0
 24 25  1  0
  1 26  1  0
  1 27  1  0
  2 28  1  0
  2 29  1  0
  4 30  1  1
  5 31  1  0
  6 32  1  0
  7 33  1  0
  7 34  1  0
  7 35  1  0
  8 36  1  0
  9 37  1  0
 10 38  1  0
 14 39  1  0
 15 40  1  0
 16 41  1  0
 16 42  1  0
 17 43  1  0
 17 44  1  0
 19 45  1  1
 20 46  1  0
 21 47  1  0
 22 48  1  0
 22 49  1  0
 22 50  1  0
 23 51  1  0
 24 52  1  0
 25 53  1  0
M  END
> <Uni-Dock RESULT> 
ENERGY=   -8.633  LOWER_BOUND=    0.000  UPPER_BOUND=    0.000
INTER + INTRA:          -8.633
INTER:                  -8.633
INTRA:                   0.000
UNBOUND:                 0.000

$$$$

     RDKit          3D

 53 52  0  0  0  0  0  0  0  0999 V2000
   44.8766    7.1852   12.1201 C   0  0  0  0  0  0  0  0  0  0  0  0
   47.2933    7.2608   11.5030 N   0  0  0  0  0  0  0  0  0  0  0  0
   44.4621    5.7736   11.7708 C   0  0  0  0  0  0  0  0  0  0  0  0
   46.3349    7.2983   12.6165 C   0  0  1  0  0  0  0  0  0  0  0  0
   43.7314    5.0008   12.6845 C   0  0  0  0  0  0  0  0  0  0  0  0
   44.8104    5.2116   10.5360 C   0  0  0  0  0  0  0  0  0  0  0  0
   46.5338    8.6024   13.3915 C   0  0  0  0  0  0  0  0  0  0  0  0
   43.3502    3.6965   12.3641 C   0  0  0  0  0  0  0  0  0  0  0  0
   44.4297    3.9070   10.2171 C   0  0  0  0  0  0  0  0  0  0  0  0
   43.6983    3.1504   11.1303 C   0  0  0  0  0  0  0  0  0  0  0  0
   45.2030    6.0090   12.4389 S   0  0  0  0  0  0  0  0  0  0  0  0
   46.4484    5.6506   13.0685 O   0  0  0  0  0  0  0  0  0  0  0  0
   43.9297    5.9962   13.1130 O   0  0  0  0  0  0  0  0  0  0  0  0
   45.0268    5.1128   11.1201 O   0  0  0  0  0  0  0  0  0  0  0  0
   45.4210    7.4631   11.7976 O   0  0  0  0  0  0  0  0  0  0  0  0
   44.8973    7.2145   11.5761 C   0  0  0  0  0  0  0  0  0  0  0  0
   47.3523    7.0210   11.9650 N   0  0  0  0  0  0  0  0  0  0  0  0
   44.5443    5.7468   11.6722 C   0  0  0  0  0  0  0  0  0  0  0  0
   46.1016    7.6147   12.4547 C   0  0  1  0  0  0  0  0  0  0  0  0
   43.8279    5.2574   12.7729 C   0  0  0  0  0  0  0  0  0  0  0  0
   44.9438    4.8532   10.6692 C   0  0  0  0  0  0  0  0  0  0  0  0
   46.2627    9.1338   12.4775 C   0  0  0  0  0  0  0  0  0  0  0  0
   43.5154    3.9002   12.8661 C   0  0  0  0  0  0  0  0  0  0  0  0
   44.6307    3.4966   10.7644 C   0  0  0  0  0  0  0  0  0  0  0  0
   43.9167    3.0205   11.8624 C   0  0  0  0  0  0  0  0  0  0  0  0
   44.1951    7.5602   12.8957 H   0  0  0  0  0  0  0  0  0  0  0  0
   44.7083    7.8380   11.2527 H   0  0  0  0  0  0  0  0  0  0  0  0
   47.1625    8.0756   10.9055 H   0  0  0  0  0  0  0  0  0  0  0  0
   48.2424    7.3246   11.8690 H   0  0  0  0  0  0  0  0  0  0  0  0
   46.5594    6.4616   13.2890 H   0  0  0  0  0  0  0  0  0  0  0  0
   43.4536    5.4099   13.6529 H   0  0  0  0  0  0  0  0  0  0  0  0
   45.3922    5.7872    9.8194 H   0  0  0  0  0  0  0  0  0  0  0  0
   46.3179    9.4776   12.7683 H   0  0  0  0  0  0  0  0  0  0  0  0
   47.5631    8.6912   13.7567 H   0  0  0  0  0  0  0  0  0  0  0  0
   45.8719    8.6383   14.2635 H   0  0  0  0  0  0  0  0  0  0  0  0
   42.7831    3.1059   13.0785 H   0  0  0  0  0  0  0  0  0  0  0  0
   44.7096    3.4814    9.2574 H   0  0  0  0  0  0  0  0  0  0  0  0
   43.4040    2.1344   10.8819 H   0  0  0  0  0  0  0  0  0  0  0  0
   44.0808    5.1518   10.8686 H   0  0  0  0  0  0  0  0  0  0  0  0
   46.3767    7.5518   11.6008 H   0  0  0  0  0  0  0  0  0  0  0  0
   45.0850    7.4837   10.5279 H   0  0  0  0  0  0  0  0  0  0  0  0
   44.0135    7.7952   11.8728 H   0  0  0  0  0  0  0  0  0  0  0  0
   48.1073    7.2347   12.6155 H   0  0  0  0  0  0  0  0  0  0  0  0
   47.2566    6.0040   11.9706 H   0  0  0  0  0  0  0  0  0  0  0  0
   45.9372    7.2694   13.4828 H   0  0  0  0  0  0  0  0  0  0  0  0
   43.5071    5.9316   13.5636 H   0  0  0  0  0  0  0  0  0  0  0  0
   45.5059    5.2116    9.8091 H   0  0  0  0  0  0  0  0  0  0  0  0
   47.1018    9.4321   13.1160 H   0  0  0  0  0  0  0  0  0  0  0  0
   45.3606    9.6119   12.8743 H   0  0  0  0  0  0  0  0  0  0  0  0
   46.4421    9.5344   11.4733 H   0  0  0  0  0  0  0  0  0  0  0  0
   42.9574    3.5292   13.7218 H   0  0  0  0  0  0  0  0  0  0  0  0
   44.9443    2.8117    9.9810 H   0  0  0  0  0  0  0  0  0  0  0  0
   43.6721    1.9642   11.9350 H   0  0  0  0  0  0  0  0  0  0  0  0
  4  2  1  0
  3  1  1  0
  4  1  1  0
  5  3  2  0
  6  3  1  0
  4  7  1  0
  8  5  1  0
  9  6  2  0
 10  8  2  0
  9 10  1  0
 12 11  2  0
 13 11  2  0
 14 11  1  0
 15 11  1  0
 19 17  1  0
 18 16  1  0
 19 16  1  0
 20 18  2  0
 21 18  1  0
 19 22  1  0
 23 20  1  0
 24 21  2  0
 25 23  2  0
 24 25  1  0
  1 26  1  0
  1 27  1  0
  2 28  1  0
  2 29  1  0
  4 30  1  1
  5 31  1  0
  6 32  1  0
  7 33  1  0
  7 34  1  0
  7 35  1  0
  8 36  1  0
  9 37  1  0
 10 38  1  0
 14 39  1  0
 15 40  1  0
 16 41  1  0
 16 42  1  0
 17 43  1  0
 17 44  1  0
 19 45  1  1
 20 46  1  0
 21 47  1  0
 22 48  1  0
 22 49  1  0
 22 50  1  0
 23 51  1  0
 24 52  1  0
 25 53  1  0
M  END
> <Uni-Dock RESULT> 
ENERGY=   -6.700  LOWER_BOUND=    3.274  UPPER_BOUND=    4.844
INTER + INTRA:          -6.700
INTER:                  -6.700
INTRA:                   0.000
UNBOUND:                 0.000

$$$$

     RDKit          3D

 53 52  0  0  0  0  0  0  0  0999 V2000
   44.9421    5.1927   11.3389 C   0  0  0  0  0  0  0  0  0  0  0  0
   42.5054    5.1520   11.8758 N   0  0  0  0  0  0  0  0  0  0  0  0
   45.3763    6.5810   11.7520 C   0  0  0  0  0  0  0  0  0  0  0  0
   43.8231    4.6035   12.2259 C   0  0  1  0  0  0  0  0  0  0  0  0
   46.5256    6.7628   12.5342 C   0  0  0  0  0  0  0  0  0  0  0  0
   44.6327    7.7052   11.3707 C   0  0  0  0  0  0  0  0  0  0  0  0
   43.7753    3.0811   12.0812 C   0  0  0  0  0  0  0  0  0  0  0  0
   46.9263    8.0439   12.9181 C   0  0  0  0  0  0  0  0  0  0  0  0
   45.0336    8.9855   11.7561 C   0  0  0  0  0  0  0  0  0  0  0  0
   46.1810    9.1549   12.5282 C   0  0  0  0  0  0  0  0  0  0  0  0
   44.9546    5.8954   12.3867 S   0  0  0  0  0  0  0  0  0  0  0  0
   44.1515    5.6335   13.5538 O   0  0  0  0  0  0  0  0  0  0  0  0
   46.3796    5.6901   12.3301 O   0  0  0  0  0  0  0  0  0  0  0  0
   44.6960    7.4095   11.9242 O   0  0  0  0  0  0  0  0  0  0  0  0
   44.2785    5.0837   11.1795 O   0  0  0  0  0  0  0  0  0  0  0  0
   44.6929    5.4863   10.9530 C   0  0  0  0  0  0  0  0  0  0  0  0
   42.6799    5.0628   12.3616 N   0  0  0  0  0  0  0  0  0  0  0  0
   45.2654    6.6487   11.7336 C   0  0  0  0  0  0  0  0  0  0  0  0
   43.9187    4.4799   11.8306 C   0  0  1  0  0  0  0  0  0  0  0  0
   46.4381    6.4928   12.4852 C   0  0  0  0  0  0  0  0  0  0  0  0
   44.6211    7.8932   11.7291 C   0  0  0  0  0  0  0  0  0  0  0  0
   43.5603    3.2340   11.0221 C   0  0  0  0  0  0  0  0  0  0  0  0
   46.9569    7.5631   13.2158 C   0  0  0  0  0  0  0  0  0  0  0  0
   45.1411    8.9619   12.4605 C   0  0  0  0  0  0  0  0  0  0  0  0
   46.3085    8.7967   13.2034 C   0  0  0  0  0  0  0  0  0  0  0  0
   45.8211    4.5349   11.3723 H   0  0  0  0  0  0  0  0  0  0  0  0
   44.6364    5.2070   10.2839 H   0  0  0  0  0  0  0  0  0  0  0  0
   42.2545    4.8731   10.9284 H   0  0  0  0  0  0  0  0  0  0  0  0
   41.7965    4.7511   12.4885 H   0  0  0  0  0  0  0  0  0  0  0  0
   44.0244    4.8424   13.2772 H   0  0  0  0  0  0  0  0  0  0  0  0
   47.1175    5.9071   12.8498 H   0  0  0  0  0  0  0  0  0  0  0  0
   43.7280    7.5855   10.7787 H   0  0  0  0  0  0  0  0  0  0  0  0
   43.5812    2.7814   11.0451 H   0  0  0  0  0  0  0  0  0  0  0  0
   42.9904    2.6494   12.7123 H   0  0  0  0  0  0  0  0  0  0  0  0
   44.7267    2.6338   12.3887 H   0  0  0  0  0  0  0  0  0  0  0  0
   47.8192    8.1747   13.5235 H   0  0  0  0  0  0  0  0  0  0  0  0
   44.4457    9.8490   11.4570 H   0  0  0  0  0  0  0  0  0  0  0  0
   46.4911   10.1517   12.8292 H   0  0  0  0  0  0  0  0  0  0  0  0
   45.4346    7.6608   11.3318 H   0  0  0  0  0  0  0  0  0  0  0  0
   43.3259    4.9930   11.3900 H   0  0  0  0  0  0  0  0  0  0  0  0
   44.0490    5.8617   10.1463 H   0  0  0  0  0  0  0  0  0  0  0  0
   45.5242    4.9751   10.4490 H   0  0  0  0  0  0  0  0  0  0  0  0
   42.2415    4.4029   13.0027 H   0  0  0  0  0  0  0  0  0  0  0  0
   42.9176    5.8829   12.9224 H   0  0  0  0  0  0  0  0  0  0  0  0
   44.5446    4.1736   12.6777 H   0  0  0  0  0  0  0  0  0  0  0  0
   46.9557    5.5366   12.5040 H   0  0  0  0  0  0  0  0  0  0  0  0
   43.7063    8.0337   11.1569 H   0  0  0  0  0  0  0  0  0  0  0  0
   43.0290    2.5018   11.6404 H   0  0  0  0  0  0  0  0  0  0  0  0
   44.4646    2.7482   10.6402 H   0  0  0  0  0  0  0  0  0  0  0  0
   42.9227    3.4801   10.1654 H   0  0  0  0  0  0  0  0  0  0  0  0
   47.8680    7.4346   13.7941 H   0  0  0  0  0  0  0  0  0  0  0  0
   44.6345    9.9233   12.4500 H   0  0  0  0  0  0  0  0  0  0  0  0
   46.7135    9.6299   13.7716 H   0  0  0  0  0  0  0  0  0  0  0  0
  4  2  1  0
  3  1  1  0
  4  1  1  0
  5  3  2  0
  6  3  1  0
  4  7  1  0
  8  5  1  0
  9  6  2  0
 10  8  2  0
  9 10  1  0
 12 11  2  0
 13 11  2  0
 14 11  1  0
 15 11  1  0
 19 17  1  0
 18 16  1  0
 19 16  1  0
 20 18  2  0
 21 18  1  0
 19 22  1  0
 23 20  1  0
 24 21  2  0
 25 23  2  0
 24 25  1  0
  1 26  1  0
  1 27  1  0
  2 28  1  0
  2 29  1  0
  4 30  1  1
  5 31  1  0
  6 32  1  0
  7 33  1  0
  7 34  1  0
  7 35  1  0
  8 36  1  0
  9 37  1  0
 10 38  1  0
 14 39  1  0
 15 40  1  0
 16 41  1  0
 16 42  1  0
 17 43  1  0
 17 44  1  0
 19 45  1  1
 20 46  1  0
 21 47  1  0
 22 48  1  0
 22 49  1  0
 22 50  1  0
 23 51  1  0
 24 52  1  0
 25 53  1  0
M  END
> <Uni-Dock RESULT> 
ENERGY=   -6.319  LOWER_BOUND=    3.855  UPPER_BOUND=    5.766
INTER + INTRA:          -6.319
INTER:                  -6.319
INTRA:                   0.000
UNBOUND:                 0.000

$$$$

     RDKit          3D

 53 52  0  0  0  0  0  0  0  0999 V2000
   45.6387    6.0254   11.1916 C   0  0  0  0  0  0  0  0  0  0  0  0
   43.7154    6.2457   12.7663 N   0  0  0  0  0  0  0  0  0  0  0  0
   45.3517    4.7368   10.4544 C   0  0  0  0  0  0  0  0  0  0  0  0
   44.3684    6.8143   11.5788 C   0  0  1  0  0  0  0  0  0  0  0  0
   45.4424    4.6825    9.0563 C   0  0  0  0  0  0  0  0  0  0  0  0
   44.9799    3.5813   11.1536 C   0  0  0  0  0  0  0  0  0  0  0  0
   44.7160    8.2770   11.8629 C   0  0  0  0  0  0  0  0  0  0  0  0
   45.1754    3.4939    8.3744 C   0  0  0  0  0  0  0  0  0  0  0  0
   44.7120    2.3937   10.4706 C   0  0  0  0  0  0  0  0  0  0  0  0
   44.8114    2.3497    9.0815 C   0  0  0  0  0  0  0  0  0  0  0  0
   44.7258    5.5485   10.4630 S   0  0  0  0  0  0  0  0  0  0  0  0
   43.3821    6.0640   10.3971 O   0  0  0  0  0  0  0  0  0  0  0  0
   45.6949    5.6958    9.4072 O   0  0  0  0  0  0  0  0  0  0  0  0
   44.6502    3.9805   10.7934 O   0  0  0  0  0  0  0  0  0  0  0  0
   45.3647    6.1196   11.8191 O   0  0  0  0  0  0  0  0  0  0  0  0
   45.7251    5.6675   11.5937 C   0  0  0  0  0  0  0  0  0  0  0  0
   43.4703    6.4259   12.3398 N   0  0  0  0  0  0  0  0  0  0  0  0
   45.2845    4.6701   10.5453 C   0  0  0  0  0  0  0  0  0  0  0  0
   44.7506    6.8528   11.7608 C   0  0  1  0  0  0  0  0  0  0  0  0
   45.4724    4.9395    9.1828 C   0  0  0  0  0  0  0  0  0  0  0  0
   44.6669    3.4699   10.9221 C   0  0  0  0  0  0  0  0  0  0  0  0
   45.3608    7.9200   12.6679 C   0  0  0  0  0  0  0  0  0  0  0  0
   45.0525    4.0238    8.2166 C   0  0  0  0  0  0  0  0  0  0  0  0
   44.2473    2.5558    9.9547 C   0  0  0  0  0  0  0  0  0  0  0  0
   44.4402    2.8327    8.6026 C   0  0  0  0  0  0  0  0  0  0  0  0
   46.2779    6.6501   10.5531 H   0  0  0  0  0  0  0  0  0  0  0  0
   46.2481    5.8077   12.0793 H   0  0  0  0  0  0  0  0  0  0  0  0
   44.3285    6.3351   13.5751 H   0  0  0  0  0  0  0  0  0  0  0  0
   42.8768    6.7829   12.9832 H   0  0  0  0  0  0  0  0  0  0  0  0
   43.6521    6.7865   10.7487 H   0  0  0  0  0  0  0  0  0  0  0  0
   45.7223    5.5663    8.4883 H   0  0  0  0  0  0  0  0  0  0  0  0
   44.8862    3.6059   12.2370 H   0  0  0  0  0  0  0  0  0  0  0  0
   45.4358    8.3671   12.6843 H   0  0  0  0  0  0  0  0  0  0  0  0
   43.8214    8.8501   12.1309 H   0  0  0  0  0  0  0  0  0  0  0  0
   45.1549    8.7487   10.9770 H   0  0  0  0  0  0  0  0  0  0  0  0
   45.2495    3.4615    7.2907 H   0  0  0  0  0  0  0  0  0  0  0  0
   44.4207    1.5055   11.0245 H   0  0  0  0  0  0  0  0  0  0  0  0
   44.6010    1.4253    8.5508 H   0  0  0  0  0  0  0  0  0  0  0  0
   45.5181    3.5931   10.5563 H   0  0  0  0  0  0  0  0  0  0  0  0
   44.6254    6.2791   12.4420 H   0  0  0  0  0  0  0  0  0  0  0  0
   45.8708    5.1564   12.5549 H   0  0  0  0  0  0  0  0  0  0  0  0
   46.7176    6.0417   11.3087 H   0  0  0  0  0  0  0  0  0  0  0  0
   42.8246    7.2143   12.3548 H   0  0  0  0  0  0  0  0  0  0  0  0
   43.0480    5.7291   11.7236 H   0  0  0  0  0  0  0  0  0  0  0  0
   44.5507    7.3050   10.7816 H   0  0  0  0  0  0  0  0  0  0  0  0
   45.9494    5.8641    8.8661 H   0  0  0  0  0  0  0  0  0  0  0  0
   44.5062    3.2440   11.9744 H   0  0  0  0  0  0  0  0  0  0  0  0
   44.6871    8.7773   12.7770 H   0  0  0  0  0  0  0  0  0  0  0  0
   46.3016    8.2918   12.2480 H   0  0  0  0  0  0  0  0  0  0  0  0
   45.5712    7.5251   13.6684 H   0  0  0  0  0  0  0  0  0  0  0  0
   45.2041    4.2392    7.1623 H   0  0  0  0  0  0  0  0  0  0  0  0
   43.7700    1.6274   10.2571 H   0  0  0  0  0  0  0  0  0  0  0  0
   44.1145    2.1197    7.8500 H   0  0  0  0  0  0  0  0  0  0  0  0
  4  2  1  0
  3  1  1  0
  4  1  1  0
  5  3  2  0
  6  3  1  0
  4  7  1  0
  8  5  1  0
  9  6  2  0
 10  8  2  0
  9 10  1  0
 12 11  2  0
 13 11  2  0
 14 11  1  0
 15 11  1  0
 19 17  1  0
 18 16  1  0
 19 16  1  0
 20 18  2  0
 21 18  1  0
 19 22  1  0
 23 20  1  0
 24 21  2  0
 25 23  2  0
 24 25  1  0
  1 26  1  0
  1 27  1  0
  2 28  1  0
  2 29  1  0
  4 30  1  1
  5 31  1  0
  6 32  1  0
  7 33  1  0
  7 34  1  0
  7 35  1  0
  8 36  1  0
  9 37  1  0
 10 38  1  0
 14 39  1  0
 15 40  1  0
 16 41  1  0
 16 42  1  0
 17 43  1  0
 17 44  1  0
 19 45  1  1
 20 46  1  0
 21 47  1  0
 22 48  1  0
 22 49  1  0
 22 50  1  0
 23 51  1  0
 24 52  1  0
 25 53  1  0
M  END
> <Uni-Dock RESULT> 
ENERGY=   -6.220  LOWER_BOUND=    2.146  UPPER_BOUND=    3.534
INTER + INTRA:          -6.220
INTER:                  -6.220
INTRA:                   0.000
UNBOUND:                 0.000

$$$$

     RDKit          3D

 53 52  0  0  0  0  0  0  0  0999 V2000
   46.3872    7.0899   12.4544 C   0  0  0  0  0  0  0  0  0  0  0  0
   45.1345    9.0737   13.3044 N   0  0  0  0  0  0  0  0  0  0  0  0
   45.2967    6.1122   12.0786 C   0  0  0  0  0  0  0  0  0  0  0  0
   45.9993    8.5680   12.2291 C   0  0  1  0  0  0  0  0  0  0  0  0
   45.3253    5.4576   10.8391 C   0  0  0  0  0  0  0  0  0  0  0  0
   44.2357    5.8535   12.9559 C   0  0  0  0  0  0  0  0  0  0  0  0
   47.2529    9.4421   12.1555 C   0  0  0  0  0  0  0  0  0  0  0  0
   44.3177    4.5564   10.4900 C   0  0  0  0  0  0  0  0  0  0  0  0
   43.2282    4.9531   12.6054 C   0  0  0  0  0  0  0  0  0  0  0  0
   43.2702    4.3035   11.3735 C   0  0  0  0  0  0  0  0  0  0  0  0
   45.3946    7.0500   11.6767 S   0  0  0  0  0  0  0  0  0  0  0  0
   44.7661    8.2094   11.0965 O   0  0  0  0  0  0  0  0  0  0  0  0
   46.2024    6.1177   10.9323 O   0  0  0  0  0  0  0  0  0  0  0  0
   44.2678    6.1821   12.4185 O   0  0  0  0  0  0  0  0  0  0  0  0
   46.2518    7.5764   12.9262 O   0  0  0  0  0  0  0  0  0  0  0  0
   46.2058    6.9581   12.9513 C   0  0  0  0  0  0  0  0  0  0  0  0
   45.0786    9.1763   12.7937 N   0  0  0  0  0  0  0  0  0  0  0  0
   45.2021    6.1461   12.1630 C   0  0  0  0  0  0  0  0  0  0  0  0
   46.3046    8.4275   12.4894 C   0  0  1  0  0  0  0  0  0  0  0  0
   45.5229    5.6614   10.8877 C   0  0  0  0  0  0  0  0  0  0  0  0
   43.9310    5.8820   12.6908 C   0  0  0  0  0  0  0  0  0  0  0  0
   47.4799    9.1231   13.1744 C   0  0  0  0  0  0  0  0  0  0  0  0
   44.5901    4.9242   10.1564 C   0  0  0  0  0  0  0  0  0  0  0  0
   42.9996    5.1452   11.9579 C   0  0  0  0  0  0  0  0  0  0  0  0
   43.3293    4.6664   10.6914 C   0  0  0  0  0  0  0  0  0  0  0  0
   47.2805    6.8508   11.8617 H   0  0  0  0  0  0  0  0  0  0  0  0
   46.6835    6.9194   13.4984 H   0  0  0  0  0  0  0  0  0  0  0  0
   45.6433    9.0744   14.1870 H   0  0  0  0  0  0  0  0  0  0  0  0
   44.8895   10.0448   13.1153 H   0  0  0  0  0  0  0  0  0  0  0  0
   45.4572    8.6644   11.2806 H   0  0  0  0  0  0  0  0  0  0  0  0
   46.1335    5.6450   10.1363 H   0  0  0  0  0  0  0  0  0  0  0  0
   44.1845    6.3637   13.9153 H   0  0  0  0  0  0  0  0  0  0  0  0
   47.8402    9.3816   13.0788 H   0  0  0  0  0  0  0  0  0  0  0  0
   46.9918   10.4929   11.9874 H   0  0  0  0  0  0  0  0  0  0  0  0
   47.8954    9.1268   11.3262 H   0  0  0  0  0  0  0  0  0  0  0  0
   44.3493    4.0532    9.5274 H   0  0  0  0  0  0  0  0  0  0  0  0
   42.4087    4.7642   13.2933 H   0  0  0  0  0  0  0  0  0  0  0  0
   42.4846    3.6043   11.1009 H   0  0  0  0  0  0  0  0  0  0  0  0
   44.6365    5.2845   12.5531 H   0  0  0  0  0  0  0  0  0  0  0  0
   45.8214    8.3960   13.2471 H   0  0  0  0  0  0  0  0  0  0  0  0
   45.9631    6.9112   14.0215 H   0  0  0  0  0  0  0  0  0  0  0  0
   47.1860    6.4723   12.8528 H   0  0  0  0  0  0  0  0  0  0  0  0
   45.1461   10.1135   12.3990 H   0  0  0  0  0  0  0  0  0  0  0  0
   44.2938    8.7274   12.3180 H   0  0  0  0  0  0  0  0  0  0  0  0
   46.4675    8.4616   11.4052 H   0  0  0  0  0  0  0  0  0  0  0  0
   46.5030    5.8536   10.4572 H   0  0  0  0  0  0  0  0  0  0  0  0
   43.6597    6.2542   13.6767 H   0  0  0  0  0  0  0  0  0  0  0  0
   47.5741   10.1617   12.8380 H   0  0  0  0  0  0  0  0  0  0  0  0
   48.4206    8.6139   12.9388 H   0  0  0  0  0  0  0  0  0  0  0  0
   47.3639    9.1292   14.2642 H   0  0  0  0  0  0  0  0  0  0  0  0
   44.8477    4.5498    9.1692 H   0  0  0  0  0  0  0  0  0  0  0  0
   42.0168    4.9449   12.3764 H   0  0  0  0  0  0  0  0  0  0  0  0
   42.6039    4.0915   10.1220 H   0  0  0  0  0  0  0  0  0  0  0  0
  4  2  1  0
  3  1  1  0
  4  1  1  0
  5  3  2  0
  6  3  1  0
  4  7  1  0
  8  5  1  0
  9  6  2  0
 10  8  2  0
  9 10  1  0
 12 11  2  0
 13 11  2  0
 14 11  1  0
 15 11  1  0
 19 17  1  0
 18 16  1  0
 19 16  1  0
 20 18  2  0
 21 18  1  0
 19 22  1  0
 23 20  1  0
 24 21  2  0
 25 23  2  0
 24 25  1  0
  1 26  1  0
  1 27  1  0
  2 28  1  0
  2 29  1  0
  4 30  1  1
  5 31  1  0
  6 32  1  0
  7 33  1  0
  7 34  1  0
  7 35  1  0
  8 36  1  0
  9 37  1  0
 10 38  1  0
 14 39  1  0
 15 40  1  0
 16 41  1  0
 16 42  1  0
 17 43  1  0
 17 44  1  0
 19 45  1  1
 20 46  1  0
 21 47  1  0
 22 48  1  0
 22 49  1  0
 22 50  1  0
 23 51  1  0
 24 52  1  0
 25 53  1  0
M  END
> <Uni-Dock RESULT> 
ENERGY=   -6.095  LOWER_BOUND=    3.727  UPPER_BOUND=    5.544
INTER + INTRA:          -6.095
INTER:                  -6.095
INTRA:                   0.000
UNBOUND:                 0.000

$$$$

     RDKit          3D

 53 52  0  0  0  0  0  0  0  0999 V2000
   44.7708    6.4198   12.8808 C   0  0  0  0  0  0  0  0  0  0  0  0
   44.8235    4.8764   10.9206 N   0  0  0  0  0  0  0  0  0  0  0  0
   46.0728    7.1809   12.7721 C   0  0  0  0  0  0  0  0  0  0  0  0
   44.1565    6.0436   11.5144 C   0  0  1  0  0  0  0  0  0  0  0  0
   46.0916    8.5778   12.8909 C   0  0  0  0  0  0  0  0  0  0  0  0
   47.2778    6.5055   12.5397 C   0  0  0  0  0  0  0  0  0  0  0  0
   42.6665    5.7319   11.6682 C   0  0  0  0  0  0  0  0  0  0  0  0
   47.2928    9.2818   12.7884 C   0  0  0  0  0  0  0  0  0  0  0  0
   48.4782    7.2106   12.4362 C   0  0  0  0  0  0  0  0  0  0  0  0
   48.4858    8.5981   12.5622 C   0  0  0  0  0  0  0  0  0  0  0  0
   45.3476    7.1714   12.0477 S   0  0  0  0  0  0  0  0  0  0  0  0
   45.0062    7.2535   10.6504 O   0  0  0  0  0  0  0  0  0  0  0  0
   45.0604    8.2076   13.0066 O   0  0  0  0  0  0  0  0  0  0  0  0
   46.9178    6.8655   12.1675 O   0  0  0  0  0  0  0  0  0  0  0  0
   44.7228    5.7960   12.5872 O   0  0  0  0  0  0  0  0  0  0  0  0
   45.1215    6.0216   13.0058 C   0  0  0  0  0  0  0  0  0  0  0  0
   44.6688    5.3045   10.6613 N   0  0  0  0  0  0  0  0  0  0  0  0
   46.1490    7.0922   12.7126 C   0  0  0  0  0  0  0  0  0  0  0  0
   44.0728    5.8543   11.8856 C   0  0  1  0  0  0  0  0  0  0  0  0
   45.8350    8.4471   12.8859 C   0  0  0  0  0  0  0  0  0  0  0  0
   47.4243    6.7441   12.2471 C   0  0  0  0  0  0  0  0  0  0  0  0
   42.9521    4.9209   12.3405 C   0  0  0  0  0  0  0  0  0  0  0  0
   46.7803    9.4339   12.6014 C   0  0  0  0  0  0  0  0  0  0  0  0
   48.3678    7.7321   11.9628 C   0  0  0  0  0  0  0  0  0  0  0  0
   48.0459    9.0764   12.1400 C   0  0  0  0  0  0  0  0  0  0  0  0
   44.0592    7.0376   13.4451 H   0  0  0  0  0  0  0  0  0  0  0  0
   44.9241    5.5248   13.4990 H   0  0  0  0  0  0  0  0  0  0  0  0
   44.6705    4.0556   11.5046 H   0  0  0  0  0  0  0  0  0  0  0  0
   44.4012    4.6665   10.0171 H   0  0  0  0  0  0  0  0  0  0  0  0
   44.2612    6.8866   10.8206 H   0  0  0  0  0  0  0  0  0  0  0  0
   45.1698    9.1277   13.0647 H   0  0  0  0  0  0  0  0  0  0  0  0
   47.2837    5.4236   12.4267 H   0  0  0  0  0  0  0  0  0  0  0  0
   42.4994    4.8966   12.3576 H   0  0  0  0  0  0  0  0  0  0  0  0
   42.2164    5.4714   10.7037 H   0  0  0  0  0  0  0  0  0  0  0  0
   42.1279    6.6028   12.0572 H   0  0  0  0  0  0  0  0  0  0  0  0
   47.2972   10.3643   12.8830 H   0  0  0  0  0  0  0  0  0  0  0  0
   49.4055    6.6751   12.2519 H   0  0  0  0  0  0  0  0  0  0  0  0
   49.4203    9.1461   12.4797 H   0  0  0  0  0  0  0  0  0  0  0  0
   47.1876    7.0929   13.0813 H   0  0  0  0  0  0  0  0  0  0  0  0
   44.6692    5.1840   11.8240 H   0  0  0  0  0  0  0  0  0  0  0  0
   45.6261    5.0656   13.2004 H   0  0  0  0  0  0  0  0  0  0  0  0
   44.6193    6.2834   13.9469 H   0  0  0  0  0  0  0  0  0  0  0  0
   43.9694    5.2893    9.9202 H   0  0  0  0  0  0  0  0  0  0  0  0
   45.4032    5.9382   10.3410 H   0  0  0  0  0  0  0  0  0  0  0  0
   43.6333    6.8301   11.6452 H   0  0  0  0  0  0  0  0  0  0  0  0
   44.8519    8.7416   13.2460 H   0  0  0  0  0  0  0  0  0  0  0  0
   47.6865    5.6983   12.1000 H   0  0  0  0  0  0  0  0  0  0  0  0
   42.1894    4.8112   11.5614 H   0  0  0  0  0  0  0  0  0  0  0  0
   42.4566    5.3186   13.2327 H   0  0  0  0  0  0  0  0  0  0  0  0
   43.3338    3.9228   12.5838 H   0  0  0  0  0  0  0  0  0  0  0  0
   46.5295   10.4821   12.7409 H   0  0  0  0  0  0  0  0  0  0  0  0
   49.3544    7.4519   11.6030 H   0  0  0  0  0  0  0  0  0  0  0  0
   48.7817    9.8450   11.9197 H   0  0  0  0  0  0  0  0  0  0  0  0
  4  2  1  0
  3  1  1  0
  4  1  1  0
  5  3  2  0
  6  3  1  0
  4  7  1  0
  8  5  1  0
  9  6  2  0
 10  8  2  0
  9 10  1  0
 12 11  2  0
 13 11  2  0
 14 11  1  0
 15 11  1  0
 19 17  1  0
 18 16  1  0
 19 16  1  0
 20 18  2  0
 21 18  1  0
 19 22  1  0
 23 20  1  0
 24 21  2  0
 25 23  2  0
 24 25  1  0
  1 26  1  0
  1 27  1  0
  2 28  1  0
  2 29  1  0
  4 30  1  1
  5 31  1  0
  6 32  1  0
  7 33  1  0
  7 34  1  0
  7 35  1  0
  8 36  1  0
  9 37  1  0
 10 38  1  0
 14 39  1  0
 15 40  1  0
 16 41  1  0
 16 42  1  0
 17 43  1  0
 17 44  1  0
 19 45  1  1
 20 46  1  0
 21 47  1  0
 22 48  1  0
 22 49  1  0
 22 50  1  0
 23 51  1  0
 24 52  1  0
 25 53  1  0
M  END
> <Uni-Dock RESULT> 
ENERGY=   -5.890  LOWER_BOUND=    4.786  UPPER_BOUND=    6.125
INTER + INTRA:          -5.890
INTER:                  -5.890
INTRA:                   0.000
UNBOUND:                 0.000

$$$$

     RDKit          3D

 53 52  0  0  0  0  0  0  0  0999 V2000
   46.6497    7.0412   11.6970 C   0  0  0  0  0  0  0  0  0  0  0  0
   47.4195    7.6206   13.9990 N   0  0  0  0  0  0  0  0  0  0  0  0
   45.4150    6.2008   11.9336 C   0  0  0  0  0  0  0  0  0  0  0  0
   46.8547    8.1520   12.7505 C   0  0  1  0  0  0  0  0  0  0  0  0
   44.2325    6.4603   11.2264 C   0  0  0  0  0  0  0  0  0  0  0  0
   45.4286    5.1588   12.8697 C   0  0  0  0  0  0  0  0  0  0  0  0
   47.7923    9.2330   12.2088 C   0  0  0  0  0  0  0  0  0  0  0  0
   43.0913    5.6866   11.4456 C   0  0  0  0  0  0  0  0  0  0  0  0
   44.2866    4.3866   13.0889 C   0  0  0  0  0  0  0  0  0  0  0  0
   43.1188    4.6494   12.3758 C   0  0  0  0  0  0  0  0  0  0  0  0
   45.5273    7.1661   12.2596 S   0  0  0  0  0  0  0  0  0  0  0  0
   45.2132    8.1767   13.2372 O   0  0  0  0  0  0  0  0  0  0  0  0
   45.0174    7.1666   10.9121 O   0  0  0  0  0  0  0  0  0  0  0  0
   45.1656    5.7320   12.8807 O   0  0  0  0  0  0  0  0  0  0  0  0
   47.1278    7.0800   12.1945 O   0  0  0  0  0  0  0  0  0  0  0  0
   46.8812    6.5919   11.9013 C   0  0  0  0  0  0  0  0  0  0  0  0
   47.0427    7.9829   13.9640 N   0  0  0  0  0  0  0  0  0  0  0  0
   45.4432    6.1466   12.0497 C   0  0  0  0  0  0  0  0  0  0  0  0
   47.1562    7.9877   12.5000 C   0  0  1  0  0  0  0  0  0  0  0  0
   44.4519    6.6439   11.1928 C   0  0  0  0  0  0  0  0  0  0  0  0
   45.0800    5.2431   13.0576 C   0  0  0  0  0  0  0  0  0  0  0  0
   48.5594    8.4612   12.1243 C   0  0  0  0  0  0  0  0  0  0  0  0
   43.1233    6.2422   11.3406 C   0  0  0  0  0  0  0  0  0  0  0  0
   43.7511    4.8431   13.2040 C   0  0  0  0  0  0  0  0  0  0  0  0
   42.7733    5.3424   12.3457 C   0  0  0  0  0  0  0  0  0  0  0  0
   46.5704    7.4926   10.6988 H   0  0  0  0  0  0  0  0  0  0  0  0
   47.5300    6.3862   11.6448 H   0  0  0  0  0  0  0  0  0  0  0  0
   48.3548    7.2544   13.8279 H   0  0  0  0  0  0  0  0  0  0  0  0
   47.5282    8.3779   14.6724 H   0  0  0  0  0  0  0  0  0  0  0  0
   45.8902    8.6192   12.9834 H   0  0  0  0  0  0  0  0  0  0  0  0
   44.1922    7.2674   10.4989 H   0  0  0  0  0  0  0  0  0  0  0  0
   46.3301    4.9517   13.4421 H   0  0  0  0  0  0  0  0  0  0  0  0
   48.7752    8.8215   11.9528 H   0  0  0  0  0  0  0  0  0  0  0  0
   47.9397   10.0319   12.9440 H   0  0  0  0  0  0  0  0  0  0  0  0
   47.3732    9.6908   11.3062 H   0  0  0  0  0  0  0  0  0  0  0  0
   42.1799    5.8948   10.8917 H   0  0  0  0  0  0  0  0  0  0  0  0
   44.3092    3.5838   13.8207 H   0  0  0  0  0  0  0  0  0  0  0  0
   42.2300    4.0490   12.5484 H   0  0  0  0  0  0  0  0  0  0  0  0
   45.1086    5.1000   12.1343 H   0  0  0  0  0  0  0  0  0  0  0  0
   47.4682    7.3644   13.0681 H   0  0  0  0  0  0  0  0  0  0  0  0
   47.5496    5.8461   12.3523 H   0  0  0  0  0  0  0  0  0  0  0  0
   47.1260    6.5935   10.8305 H   0  0  0  0  0  0  0  0  0  0  0  0
   47.1444    8.9339   14.3158 H   0  0  0  0  0  0  0  0  0  0  0  0
   46.0979    7.6892   14.2186 H   0  0  0  0  0  0  0  0  0  0  0  0
   46.4308    8.7077   12.1018 H   0  0  0  0  0  0  0  0  0  0  0  0
   44.7096    7.3460   10.4032 H   0  0  0  0  0  0  0  0  0  0  0  0
   45.8333    4.8496   13.7372 H   0  0  0  0  0  0  0  0  0  0  0  0
   48.7590    9.4612   12.5254 H   0  0  0  0  0  0  0  0  0  0  0  0
   48.6705    8.5147   11.0360 H   0  0  0  0  0  0  0  0  0  0  0  0
   49.3293    7.7823   12.5085 H   0  0  0  0  0  0  0  0  0  0  0  0
   42.3610    6.6307   10.6703 H   0  0  0  0  0  0  0  0  0  0  0  0
   43.4796    4.1413   13.9882 H   0  0  0  0  0  0  0  0  0  0  0  0
   41.7390    5.0292   12.4595 H   0  0  0  0  0  0  0  0  0  0  0  0
  4  2  1  0
  3  1  1  0
  4  1  1  0
  5  3  2  0
  6  3  1  0
  4  7  1  0
  8  5  1  0
  9  6  2  0
 10  8  2  0
  9 10  1  0
 12 11  2  0
 13 11  2  0
 14 11  1  0
 15 11  1  0
 19 17  1  0
 18 16  1  0
 19 16  1  0
 20 18  2  0
 21 18  1  0
 19 22  1  0
 23 20  1  0
 24 21  2  0
 25 23  2  0
 24 25  1  0
  1 26  1  0
  1 27  1  0
  2 28  1  0
  2 29  1  0
  4 30  1  1
  5 31  1  0
  6 32  1  0
  7 33  1  0
  7 34  1  0
  7 35  1  0
  8 36  1  0
  9 37  1  0
 10 38  1  0
 14 39  1  0
 15 40  1  0
 16 41  1  0
 16 42  1  0
 17 43  1  0
 17 44  1  0
 19 45  1  1
 20 46  1  0
 21 47  1  0
 22 48  1  0
 22 49  1  0
 22 50  1  0
 23 51  1  0
 24 52  1  0
 25 53  1  0
M  END
> <Uni-Dock RESULT> 
ENERGY=   -5.650  LOWER_BOUND=    4.947  UPPER_BOUND=    5.954
INTER + INTRA:          -5.650
INTER:                  -5.650
INTRA:                   0.000
UNBOUND:                 0.000

$$$$
