
     RDKit          3D

 53 52  0  0  0  0  0  0  0  0999 V2000
   44.2827    4.3536    8.9615 C   0  0  0  0  0  0  0  0  0  0  0  0
   45.3353    2.1333    9.3835 N   0  0  0  0  0  0  0  0  0  0  0  0
   44.1180    4.7943   10.3991 C   0  0  0  0  0  0  0  0  0  0  0  0
   45.5065    3.4403    8.7361 C   0  0  1  0  0  0  0  0  0  0  0  0
   44.9094    5.8257   10.9227 C   0  0  0  0  0  0  0  0  0  0  0  0
   43.1828    4.1653   11.2320 C   0  0  0  0  0  0  0  0  0  0  0  0
   45.7348    3.2150    7.2424 C   0  0  0  0  0  0  0  0  0  0  0  0
   44.7652    6.2213   12.2535 C   0  0  0  0  0  0  0  0  0  0  0  0
   43.0404    4.5619   12.5624 C   0  0  0  0  0  0  0  0  0  0  0  0
   43.8312    5.5896   13.0727 C   0  0  0  0  0  0  0  0  0  0  0  0
   45.0056    4.1123   10.3164 S   0  0  0  0  0  0  0  0  0  0  0  0
   45.7403    2.8731   10.3120 O   0  0  0  0  0  0  0  0  0  0  0  0
   45.4750    5.3220   10.9425 O   0  0  0  0  0  0  0  0  0  0  0  0
   44.6567    4.4380    8.7849 O   0  0  0  0  0  0  0  0  0  0  0  0
   43.5433    3.8309   10.9133 O   0  0  0  0  0  0  0  0  0  0  0  0
   44.5231    3.0964    9.4906 C   0  0  0  0  0  0  0  0  0  0  0  0
   46.3910    4.6015    8.7633 N   0  0  0  0  0  0  0  0  0  0  0  0
   44.1466    3.8750   10.7308 C   0  0  0  0  0  0  0  0  0  0  0  0
   45.1274    3.9668    8.3663 C   0  0  1  0  0  0  0  0  0  0  0  0
   43.0489    4.7464   10.7180 C   0  0  0  0  0  0  0  0  0  0  0  0
   44.8939    3.7418   11.9092 C   0  0  0  0  0  0  0  0  0  0  0  0
   45.3826    3.1202    7.1200 C   0  0  0  0  0  0  0  0  0  0  0  0
   42.7082    5.4726   11.8602 C   0  0  0  0  0  0  0  0  0  0  0  0
   44.5512    4.4688   13.0504 C   0  0  0  0  0  0  0  0  0  0  0  0
   43.4593    5.3341   13.0256 C   0  0  0  0  0  0  0  0  0  0  0  0
   44.3735    5.2545    8.3398 H   0  0  0  0  0  0  0  0  0  0  0  0
   43.3667    3.8538    8.6188 H   0  0  0  0  0  0  0  0  0  0  0  0
   45.2057    2.2787   10.3863 H   0  0  0  0  0  0  0  0  0  0  0  0
   46.1935    1.5919    9.2878 H   0  0  0  0  0  0  0  0  0  0  0  0
   46.4019    3.9160    9.1544 H   0  0  0  0  0  0  0  0  0  0  0  0
   45.6418    6.3288   10.2957 H   0  0  0  0  0  0  0  0  0  0  0  0
   42.5625    3.3584   10.8468 H   0  0  0  0  0  0  0  0  0  0  0  0
   45.9052    4.1679    6.7297 H   0  0  0  0  0  0  0  0  0  0  0  0
   44.8722    2.7292    6.7724 H   0  0  0  0  0  0  0  0  0  0  0  0
   46.6147    2.5855    7.0684 H   0  0  0  0  0  0  0  0  0  0  0  0
   45.3812    7.0236   12.6511 H   0  0  0  0  0  0  0  0  0  0  0  0
   42.3117    4.0684   13.2000 H   0  0  0  0  0  0  0  0  0  0  0  0
   43.7188    5.8988   14.1084 H   0  0  0  0  0  0  0  0  0  0  0  0
   44.6192    3.5827    8.3090 H   0  0  0  0  0  0  0  0  0  0  0  0
   43.1668    4.6965   11.1755 H   0  0  0  0  0  0  0  0  0  0  0  0
   45.2224    2.2922    9.7569 H   0  0  0  0  0  0  0  0  0  0  0  0
   43.6204    2.5914    9.1215 H   0  0  0  0  0  0  0  0  0  0  0  0
   47.0493    3.8895    9.0763 H   0  0  0  0  0  0  0  0  0  0  0  0
   46.2168    5.1897    9.5810 H   0  0  0  0  0  0  0  0  0  0  0  0
   44.4230    4.7631    8.0983 H   0  0  0  0  0  0  0  0  0  0  0  0
   42.4517    4.8658    9.8168 H   0  0  0  0  0  0  0  0  0  0  0  0
   45.7492    3.0710   11.9469 H   0  0  0  0  0  0  0  0  0  0  0  0
   45.7887    3.7314    6.3061 H   0  0  0  0  0  0  0  0  0  0  0  0
   46.0922    2.3097    7.3212 H   0  0  0  0  0  0  0  0  0  0  0  0
   44.4504    2.6703    6.7615 H   0  0  0  0  0  0  0  0  0  0  0  0
   41.8557    6.1466   11.8404 H   0  0  0  0  0  0  0  0  0  0  0  0
   45.1362    4.3593   13.9599 H   0  0  0  0  0  0  0  0  0  0  0  0
   43.1930    5.8997   13.9146 H   0  0  0  0  0  0  0  0  0  0  0  0
  4  2  1  0
  3  1  1  0
  4  1  1  0
  5  3  2  0
  6  3  1  0
  4  7  1  0
  8  5  1  0
  9  6  2  0
 10  8  2  0
  9 10  1  0
 12 11  2  0
 13 11  2  0
 14 11  1  0
 15 11  1  0
 19 17  1  0
 18 16  1  0
 19 16  1  0
 20 18  2  0
 21 18  1  0
 19 22  1  0
 23 20  1  0
 24 21  2  0
 25 23  2  0
 24 25  1  0
  1 26  1  0
  1 27  1  0
  2 28  1  0
  2 29  1  0
  4 30  1  1
  5 31  1  0
  6 32  1  0
  7 33  1  0
  7 34  1  0
  7 35  1  0
  8 36  1  0
  9 37  1  0
 10 38  1  0
 14 39  1  0
 15 40  1  0
 16 41  1  0
 16 42  1  0
 17 43  1  0
 17 44  1  0
 19 45  1  1
 20 46  1  0
 21 47  1  0
 22 48  1  0
 22 49  1  0
 22 50  1  0
 23 51  1  0
 24 52  1  0
 25 53  1  0
M  END
> <Uni-Dock RESULT> 
ENERGY=   -6.396  LOWER_BOUND=    0.000  UPPER_BOUND=    0.000
INTER + INTRA:          -6.396
INTER:                  -6.396
INTRA:                   0.000
UNBOUND:                 0.000

$$$$

     RDKit          3D

 53 52  0  0  0  0  0  0  0  0999 V2000
   45.5917    3.0886   10.2061 C   0  0  0  0  0  0  0  0  0  0  0  0
   44.8793    4.1736    8.0775 N   0  0  0  0  0  0  0  0  0  0  0  0
   44.7649    3.9192   11.1624 C   0  0  0  0  0  0  0  0  0  0  0  0
   44.9327    2.9089    8.8219 C   0  0  1  0  0  0  0  0  0  0  0  0
   43.6648    3.3579   11.8250 C   0  0  0  0  0  0  0  0  0  0  0  0
   45.0779    5.2668   11.3858 C   0  0  0  0  0  0  0  0  0  0  0  0
   45.7100    1.8897    7.9905 C   0  0  0  0  0  0  0  0  0  0  0  0
   42.8950    4.1302   12.6964 C   0  0  0  0  0  0  0  0  0  0  0  0
   44.3067    6.0375   12.2570 C   0  0  0  0  0  0  0  0  0  0  0  0
   43.2160    5.4692   12.9121 C   0  0  0  0  0  0  0  0  0  0  0  0
   44.2405    3.8565   10.1719 S   0  0  0  0  0  0  0  0  0  0  0  0
   43.8764    4.2295    8.8289 O   0  0  0  0  0  0  0  0  0  0  0  0
   43.2974    3.4076   11.1643 O   0  0  0  0  0  0  0  0  0  0  0  0
   45.3975    2.7534   10.0384 O   0  0  0  0  0  0  0  0  0  0  0  0
   45.0492    5.0740   10.8332 O   0  0  0  0  0  0  0  0  0  0  0  0
   45.2849    4.0620    9.2699 C   0  0  0  0  0  0  0  0  0  0  0  0
   44.0445    1.8859    9.3662 N   0  0  0  0  0  0  0  0  0  0  0  0
   44.6880    4.6569   10.5253 C   0  0  0  0  0  0  0  0  0  0  0  0
   45.3673    2.5194    9.2879 C   0  0  1  0  0  0  0  0  0  0  0  0
   45.4026    4.6382   11.7309 C   0  0  0  0  0  0  0  0  0  0  0  0
   43.4089    5.2295   10.5031 C   0  0  0  0  0  0  0  0  0  0  0  0
   46.0726    2.0118    8.0309 C   0  0  0  0  0  0  0  0  0  0  0  0
   44.8469    5.1783   12.8916 C   0  0  0  0  0  0  0  0  0  0  0  0
   42.8551    5.7693   11.6652 C   0  0  0  0  0  0  0  0  0  0  0  0
   43.5735    5.7432   12.8588 C   0  0  0  0  0  0  0  0  0  0  0  0
   45.7572    2.1058   10.6678 H   0  0  0  0  0  0  0  0  0  0  0  0
   46.5907    3.5318   10.0972 H   0  0  0  0  0  0  0  0  0  0  0  0
   44.3401    4.8507    8.6200 H   0  0  0  0  0  0  0  0  0  0  0  0
   44.3629    4.0354    7.2097 H   0  0  0  0  0  0  0  0  0  0  0  0
   43.9070    2.5412    8.9483 H   0  0  0  0  0  0  0  0  0  0  0  0
   43.4025    2.3143   11.6677 H   0  0  0  0  0  0  0  0  0  0  0  0
   45.9243    5.7237   10.8768 H   0  0  0  0  0  0  0  0  0  0  0  0
   45.7387    0.9190    8.4975 H   0  0  0  0  0  0  0  0  0  0  0  0
   46.7437    2.2124    7.8221 H   0  0  0  0  0  0  0  0  0  0  0  0
   45.2392    1.7368    7.0129 H   0  0  0  0  0  0  0  0  0  0  0  0
   42.0450    3.6865   13.2082 H   0  0  0  0  0  0  0  0  0  0  0  0
   44.5582    7.0815   12.4242 H   0  0  0  0  0  0  0  0  0  0  0  0
   42.6168    6.0695   13.5914 H   0  0  0  0  0  0  0  0  0  0  0  0
   45.8574    2.9185    9.1893 H   0  0  0  0  0  0  0  0  0  0  0  0
   45.0388    4.9350   11.8029 H   0  0  0  0  0  0  0  0  0  0  0  0
   44.7115    4.3950    8.3941 H   0  0  0  0  0  0  0  0  0  0  0  0
   46.2907    4.4839    9.1410 H   0  0  0  0  0  0  0  0  0  0  0  0
   43.4592    2.2177    8.6009 H   0  0  0  0  0  0  0  0  0  0  0  0
   43.5818    2.2035   10.2205 H   0  0  0  0  0  0  0  0  0  0  0  0
   45.9469    2.1919   10.1590 H   0  0  0  0  0  0  0  0  0  0  0  0
   46.3980    4.2016   11.7738 H   0  0  0  0  0  0  0  0  0  0  0  0
   42.8337    5.2590    9.5806 H   0  0  0  0  0  0  0  0  0  0  0  0
   46.1595    0.9195    8.0431 H   0  0  0  0  0  0  0  0  0  0  0  0
   45.5322    2.2983    7.1216 H   0  0  0  0  0  0  0  0  0  0  0  0
   47.0857    2.4228    7.9642 H   0  0  0  0  0  0  0  0  0  0  0  0
   45.4083    5.1584   13.8222 H   0  0  0  0  0  0  0  0  0  0  0  0
   41.8625    6.2115   11.6390 H   0  0  0  0  0  0  0  0  0  0  0  0
   43.1418    6.1638   13.7631 H   0  0  0  0  0  0  0  0  0  0  0  0
  4  2  1  0
  3  1  1  0
  4  1  1  0
  5  3  2  0
  6  3  1  0
  4  7  1  0
  8  5  1  0
  9  6  2  0
 10  8  2  0
  9 10  1  0
 12 11  2  0
 13 11  2  0
 14 11  1  0
 15 11  1  0
 19 17  1  0
 18 16  1  0
 19 16  1  0
 20 18  2  0
 21 18  1  0
 19 22  1  0
 23 20  1  0
 24 21  2  0
 25 23  2  0
 24 25  1  0
  1 26  1  0
  1 27  1  0
  2 28  1  0
  2 29  1  0
  4 30  1  1
  5 31  1  0
  6 32  1  0
  7 33  1  0
  7 34  1  0
  7 35  1  0
  8 36  1  0
  9 37  1  0
 10 38  1  0
 14 39  1  0
 15 40  1  0
 16 41  1  0
 16 42  1  0
 17 43  1  0
 17 44  1  0
 19 45  1  1
 20 46  1  0
 21 47  1  0
 22 48  1  0
 22 49  1  0
 22 50  1  0
 23 51  1  0
 24 52  1  0
 25 53  1  0
M  END
> <Uni-Dock RESULT> 
ENERGY=   -5.891  LOWER_BOUND=    0.917  UPPER_BOUND=    2.130
INTER + INTRA:          -5.891
INTER:                  -5.891
INTRA:                   0.000
UNBOUND:                 0.000

$$$$

     RDKit          3D

 53 52  0  0  0  0  0  0  0  0999 V2000
   45.4444    4.7392    9.0807 C   0  0  0  0  0  0  0  0  0  0  0  0
   43.9766    3.0067    8.0514 N   0  0  0  0  0  0  0  0  0  0  0  0
   44.8094    4.7767   10.4531 C   0  0  0  0  0  0  0  0  0  0  0  0
   45.3593    3.3552    8.4028 C   0  0  1  0  0  0  0  0  0  0  0  0
   45.4857    4.2565   11.5650 C   0  0  0  0  0  0  0  0  0  0  0  0
   43.5283    5.3171   10.6283 C   0  0  0  0  0  0  0  0  0  0  0  0
   46.2031    3.3332    7.1293 C   0  0  0  0  0  0  0  0  0  0  0  0
   44.8919    4.2796   12.8280 C   0  0  0  0  0  0  0  0  0  0  0  0
   42.9361    5.3389   11.8918 C   0  0  0  0  0  0  0  0  0  0  0  0
   43.6179    4.8205   12.9911 C   0  0  0  0  0  0  0  0  0  0  0  0
   44.6837    3.7528   10.0107 S   0  0  0  0  0  0  0  0  0  0  0  0
   44.0636    2.6896    9.2620 O   0  0  0  0  0  0  0  0  0  0  0  0
   45.3120    3.5704   11.2943 O   0  0  0  0  0  0  0  0  0  0  0  0
   45.7419    4.4452    9.0236 O   0  0  0  0  0  0  0  0  0  0  0  0
   43.6133    4.9336   10.1935 O   0  0  0  0  0  0  0  0  0  0  0  0
   44.3116    4.0409    8.6972 C   0  0  0  0  0  0  0  0  0  0  0  0
   46.4665    2.8736    9.2235 N   0  0  0  0  0  0  0  0  0  0  0  0
   43.9646    4.4134   10.1209 C   0  0  0  0  0  0  0  0  0  0  0  0
   45.8298    3.9343    8.4319 C   0  0  1  0  0  0  0  0  0  0  0  0
   44.2109    5.7082   10.5978 C   0  0  0  0  0  0  0  0  0  0  0  0
   43.3979    3.4676   10.9863 C   0  0  0  0  0  0  0  0  0  0  0  0
   46.0909    3.6559    6.9522 C   0  0  0  0  0  0  0  0  0  0  0  0
   43.8998    6.0485   11.9151 C   0  0  0  0  0  0  0  0  0  0  0  0
   43.0874    3.8102   12.3034 C   0  0  0  0  0  0  0  0  0  0  0  0
   43.3388    5.0997   12.7675 C   0  0  0  0  0  0  0  0  0  0  0  0
   46.4968    5.0355    9.1868 H   0  0  0  0  0  0  0  0  0  0  0  0
   44.9888    5.5058    8.4395 H   0  0  0  0  0  0  0  0  0  0  0  0
   43.4142    2.9974    8.9041 H   0  0  0  0  0  0  0  0  0  0  0  0
   43.9483    2.0553    7.6870 H   0  0  0  0  0  0  0  0  0  0  0  0
   45.7440    2.5875    9.0852 H   0  0  0  0  0  0  0  0  0  0  0  0
   46.4808    3.8320   11.4538 H   0  0  0  0  0  0  0  0  0  0  0  0
   42.9836    5.7209    9.7771 H   0  0  0  0  0  0  0  0  0  0  0  0
   47.2520    3.5518    7.3572 H   0  0  0  0  0  0  0  0  0  0  0  0
   45.8544    4.0761    6.4029 H   0  0  0  0  0  0  0  0  0  0  0  0
   46.1684    2.3485    6.6501 H   0  0  0  0  0  0  0  0  0  0  0  0
   45.4242    3.8763   13.6855 H   0  0  0  0  0  0  0  0  0  0  0  0
   41.9426    5.7610   12.0174 H   0  0  0  0  0  0  0  0  0  0  0  0
   43.1567    4.8390   13.9748 H   0  0  0  0  0  0  0  0  0  0  0  0
   45.4194    4.3041    8.1095 H   0  0  0  0  0  0  0  0  0  0  0  0
   43.9330    5.5029   10.9238 H   0  0  0  0  0  0  0  0  0  0  0  0
   43.8190    3.0956    8.4317 H   0  0  0  0  0  0  0  0  0  0  0  0
   43.8731    4.7979    8.0332 H   0  0  0  0  0  0  0  0  0  0  0  0
   45.9960    1.9865    9.0501 H   0  0  0  0  0  0  0  0  0  0  0  0
   46.3160    3.0726   10.2148 H   0  0  0  0  0  0  0  0  0  0  0  0
   46.3161    4.8823    8.6906 H   0  0  0  0  0  0  0  0  0  0  0  0
   44.6478    6.4610    9.9454 H   0  0  0  0  0  0  0  0  0  0  0  0
   43.1946    2.4565   10.6413 H   0  0  0  0  0  0  0  0  0  0  0  0
   47.1658    3.6024    6.7461 H   0  0  0  0  0  0  0  0  0  0  0  0
   45.6376    2.7103    6.6336 H   0  0  0  0  0  0  0  0  0  0  0  0
   45.6747    4.4554    6.3297 H   0  0  0  0  0  0  0  0  0  0  0  0
   44.0953    7.0549   12.2762 H   0  0  0  0  0  0  0  0  0  0  0  0
   42.6482    3.0704   12.9676 H   0  0  0  0  0  0  0  0  0  0  0  0
   43.0966    5.3657   13.7930 H   0  0  0  0  0  0  0  0  0  0  0  0
  4  2  1  0
  3  1  1  0
  4  1  1  0
  5  3  2  0
  6  3  1  0
  4  7  1  0
  8  5  1  0
  9  6  2  0
 10  8  2  0
  9 10  1  0
 12 11  2  0
 13 11  2  0
 14 11  1  0
 15 11  1  0
 19 17  1  0
 18 16  1  0
 19 16  1  0
 20 18  2  0
 21 18  1  0
 19 22  1  0
 23 20  1  0
 24 21  2  0
 25 23  2  0
 24 25  1  0
  1 26  1  0
  1 27  1  0
  2 28  1  0
  2 29  1  0
  4 30  1  1
  5 31  1  0
  6 32  1  0
  7 33  1  0
  7 34  1  0
  7 35  1  0
  8 36  1  0
  9 37  1  0
 10 38  1  0
 14 39  1  0
 15 40  1  0
 16 41  1  0
 16 42  1  0
 17 43  1  0
 17 44  1  0
 19 45  1  1
 20 46  1  0
 21 47  1  0
 22 48  1  0
 22 49  1  0
 22 50  1  0
 23 51  1  0
 24 52  1  0
 25 53  1  0
M  END
> <Uni-Dock RESULT> 
ENERGY=   -5.766  LOWER_BOUND=    0.956  UPPER_BOUND=    1.347
INTER + INTRA:          -5.766
INTER:                  -5.766
INTRA:                   0.000
UNBOUND:                 0.000

$$$$

     RDKit          3D

 53 52  0  0  0  0  0  0  0  0999 V2000
   45.9387    7.1077   11.4652 C   0  0  0  0  0  0  0  0  0  0  0  0
   47.3425    6.4105   13.4040 N   0  0  0  0  0  0  0  0  0  0  0  0
   44.9324    5.9792   11.5067 C   0  0  0  0  0  0  0  0  0  0  0  0
   46.5004    7.4804   12.8537 C   0  0  1  0  0  0  0  0  0  0  0  0
   43.6117    6.2174   11.9111 C   0  0  0  0  0  0  0  0  0  0  0  0
   45.3117    4.6761   11.1573 C   0  0  0  0  0  0  0  0  0  0  0  0
   47.3351    8.7569   12.7653 C   0  0  0  0  0  0  0  0  0  0  0  0
   42.6884    5.1719   11.9620 C   0  0  0  0  0  0  0  0  0  0  0  0
   44.3872    3.6319   11.2093 C   0  0  0  0  0  0  0  0  0  0  0  0
   43.0762    3.8800   11.6112 C   0  0  0  0  0  0  0  0  0  0  0  0
   45.3183    6.1744   12.5425 S   0  0  0  0  0  0  0  0  0  0  0  0
   46.1768    6.0480   13.6924 O   0  0  0  0  0  0  0  0  0  0  0  0
   43.8819    6.2567   12.6179 O   0  0  0  0  0  0  0  0  0  0  0  0
   45.8543    7.4387   11.7132 O   0  0  0  0  0  0  0  0  0  0  0  0
   45.6511    4.9764   11.5288 O   0  0  0  0  0  0  0  0  0  0  0  0
   46.6885    6.3228   12.3254 C   0  0  0  0  0  0  0  0  0  0  0  0
   45.2800    8.2209   13.1600 N   0  0  0  0  0  0  0  0  0  0  0  0
   45.5445    5.3918   11.9928 C   0  0  0  0  0  0  0  0  0  0  0  0
   46.3279    7.8207   12.2118 C   0  0  1  0  0  0  0  0  0  0  0  0
   45.0978    5.2572   10.6711 C   0  0  0  0  0  0  0  0  0  0  0  0
   44.9097    4.6552   13.0023 C   0  0  0  0  0  0  0  0  0  0  0  0
   47.5634    8.6838   12.4644 C   0  0  0  0  0  0  0  0  0  0  0  0
   44.0350    4.4054   10.3664 C   0  0  0  0  0  0  0  0  0  0  0  0
   43.8471    3.8037   12.6952 C   0  0  0  0  0  0  0  0  0  0  0  0
   43.4097    3.6794   11.3781 C   0  0  0  0  0  0  0  0  0  0  0  0
   45.4478    7.9823   11.0174 H   0  0  0  0  0  0  0  0  0  0  0  0
   46.7577    6.8502   10.7800 H   0  0  0  0  0  0  0  0  0  0  0  0
   46.7810    5.5611   13.4865 H   0  0  0  0  0  0  0  0  0  0  0  0
   47.6235    6.6535   14.3530 H   0  0  0  0  0  0  0  0  0  0  0  0
   45.6715    7.6573   13.5499 H   0  0  0  0  0  0  0  0  0  0  0  0
   43.2939    7.2203   12.1869 H   0  0  0  0  0  0  0  0  0  0  0  0
   46.3336    4.4685   10.8462 H   0  0  0  0  0  0  0  0  0  0  0  0
   46.7286    9.5900   12.3936 H   0  0  0  0  0  0  0  0  0  0  0  0
   48.1884    8.6336   12.0888 H   0  0  0  0  0  0  0  0  0  0  0  0
   47.7217    9.0444   13.7495 H   0  0  0  0  0  0  0  0  0  0  0  0
   41.6657    5.3656   12.2743 H   0  0  0  0  0  0  0  0  0  0  0  0
   44.6911    2.6250   10.9355 H   0  0  0  0  0  0  0  0  0  0  0  0
   42.3566    3.0666   11.6501 H   0  0  0  0  0  0  0  0  0  0  0  0
   46.8099    7.5286   11.9092 H   0  0  0  0  0  0  0  0  0  0  0  0
   44.8942    4.9015   10.9114 H   0  0  0  0  0  0  0  0  0  0  0  0
   47.0617    6.1042   13.3351 H   0  0  0  0  0  0  0  0  0  0  0  0
   47.5209    6.0912   11.6473 H   0  0  0  0  0  0  0  0  0  0  0  0
   45.5640    7.9781   14.1080 H   0  0  0  0  0  0  0  0  0  0  0  0
   44.4436    7.6633   12.9749 H   0  0  0  0  0  0  0  0  0  0  0  0
   45.9635    8.0360   11.2004 H   0  0  0  0  0  0  0  0  0  0  0  0
   45.5752    5.8162    9.8694 H   0  0  0  0  0  0  0  0  0  0  0  0
   45.2377    4.7394   14.0358 H   0  0  0  0  0  0  0  0  0  0  0  0
   47.3263    9.7488   12.3624 H   0  0  0  0  0  0  0  0  0  0  0  0
   47.9699    8.5221   13.4692 H   0  0  0  0  0  0  0  0  0  0  0  0
   48.3518    8.4503   11.7406 H   0  0  0  0  0  0  0  0  0  0  0  0
   43.6950    4.3082    9.3385 H   0  0  0  0  0  0  0  0  0  0  0  0
   43.3606    3.2362   13.4842 H   0  0  0  0  0  0  0  0  0  0  0  0
   42.5825    3.0162   11.1397 H   0  0  0  0  0  0  0  0  0  0  0  0
  4  2  1  0
  3  1  1  0
  4  1  1  0
  5  3  2  0
  6  3  1  0
  4  7  1  0
  8  5  1  0
  9  6  2  0
 10  8  2  0
  9 10  1  0
 12 11  2  0
 13 11  2  0
 14 11  1  0
 15 11  1  0
 19 17  1  0
 18 16  1  0
 19 16  1  0
 20 18  2  0
 21 18  1  0
 19 22  1  0
 23 20  1  0
 24 21  2  0
 25 23  2  0
 24 25  1  0
  1 26  1  0
  1 27  1  0
  2 28  1  0
  2 29  1  0
  4 30  1  1
  5 31  1  0
  6 32  1  0
  7 33  1  0
  7 34  1  0
  7 35  1  0
  8 36  1  0
  9 37  1  0
 10 38  1  0
 14 39  1  0
 15 40  1  0
 16 41  1  0
 16 42  1  0
 17 43  1  0
 17 44  1  0
 19 45  1  1
 20 46  1  0
 21 47  1  0
 22 48  1  0
 22 49  1  0
 22 50  1  0
 23 51  1  0
 24 52  1  0
 25 53  1  0
M  END
> <Uni-Dock RESULT> 
ENERGY=   -5.665  LOWER_BOUND=    2.427  UPPER_BOUND=    4.090
INTER + INTRA:          -5.665
INTER:                  -5.665
INTRA:                   0.000
UNBOUND:                 0.000

$$$$

     RDKit          3D

 53 52  0  0  0  0  0  0  0  0999 V2000
   46.1185    6.4003   13.5102 C   0  0  0  0  0  0  0  0  0  0  0  0
   47.1757    7.4353   11.5035 N   0  0  0  0  0  0  0  0  0  0  0  0
   45.1074    5.5281   12.7995 C   0  0  0  0  0  0  0  0  0  0  0  0
   47.4147    6.6206   12.7017 C   0  0  1  0  0  0  0  0  0  0  0  0
   45.2596    4.1350   12.7771 C   0  0  0  0  0  0  0  0  0  0  0  0
   44.0132    6.1031   12.1391 C   0  0  0  0  0  0  0  0  0  0  0  0
   48.4661    7.3202   13.5615 C   0  0  0  0  0  0  0  0  0  0  0  0
   44.3328    3.3333   12.1088 C   0  0  0  0  0  0  0  0  0  0  0  0
   43.0879    5.2998   11.4710 C   0  0  0  0  0  0  0  0  0  0  0  0
   43.2477    3.9156   11.4562 C   0  0  0  0  0  0  0  0  0  0  0  0
   46.0070    5.6688   12.1431 S   0  0  0  0  0  0  0  0  0  0  0  0
   46.8485    6.2784   11.1454 O   0  0  0  0  0  0  0  0  0  0  0  0
   45.8066    4.2472   12.2649 O   0  0  0  0  0  0  0  0  0  0  0  0
   46.5027    6.2328   13.5606 O   0  0  0  0  0  0  0  0  0  0  0  0
   44.5467    6.3255   12.0428 O   0  0  0  0  0  0  0  0  0  0  0  0
   46.2687    7.0317   12.2867 C   0  0  0  0  0  0  0  0  0  0  0  0
   47.8902    5.2939   13.0831 N   0  0  0  0  0  0  0  0  0  0  0  0
   45.1282    6.0830   11.9947 C   0  0  0  0  0  0  0  0  0  0  0  0
   47.2074    6.5510   13.4157 C   0  0  1  0  0  0  0  0  0  0  0  0
   44.0735    5.9363   12.9061 C   0  0  0  0  0  0  0  0  0  0  0  0
   45.1126    5.3314   10.8116 C   0  0  0  0  0  0  0  0  0  0  0  0
   48.2661    7.6122   13.7124 C   0  0  0  0  0  0  0  0  0  0  0  0
   43.0262    5.0528   12.6406 C   0  0  0  0  0  0  0  0  0  0  0  0
   44.0640    4.4485   10.5481 C   0  0  0  0  0  0  0  0  0  0  0  0
   43.0219    4.3090   11.4623 C   0  0  0  0  0  0  0  0  0  0  0  0
   46.3577    5.9260   14.4716 H   0  0  0  0  0  0  0  0  0  0  0  0
   45.6614    7.3655   13.7668 H   0  0  0  0  0  0  0  0  0  0  0  0
   46.4902    6.9588   10.9147 H   0  0  0  0  0  0  0  0  0  0  0  0
   48.0309    7.4869   10.9517 H   0  0  0  0  0  0  0  0  0  0  0  0
   47.8182    5.6516   12.3832 H   0  0  0  0  0  0  0  0  0  0  0  0
   46.1006    3.6660   13.2825 H   0  0  0  0  0  0  0  0  0  0  0  0
   43.8797    7.1831   12.1393 H   0  0  0  0  0  0  0  0  0  0  0  0
   48.6998    6.7219   14.4489 H   0  0  0  0  0  0  0  0  0  0  0  0
   48.1197    8.3034   13.8999 H   0  0  0  0  0  0  0  0  0  0  0  0
   49.3993    7.4628   13.0053 H   0  0  0  0  0  0  0  0  0  0  0  0
   44.4569    2.2536   12.0983 H   0  0  0  0  0  0  0  0  0  0  0  0
   42.2423    5.7553   10.9626 H   0  0  0  0  0  0  0  0  0  0  0  0
   42.5261    3.2907   10.9370 H   0  0  0  0  0  0  0  0  0  0  0  0
   46.9016    7.1126   13.3980 H   0  0  0  0  0  0  0  0  0  0  0  0
   43.9273    5.7248   12.5066 H   0  0  0  0  0  0  0  0  0  0  0  0
   46.8474    7.2077   11.3698 H   0  0  0  0  0  0  0  0  0  0  0  0
   45.8380    8.0058   12.5545 H   0  0  0  0  0  0  0  0  0  0  0  0
   48.3919    5.3984   12.2023 H   0  0  0  0  0  0  0  0  0  0  0  0
   47.1837    4.5757   12.9107 H   0  0  0  0  0  0  0  0  0  0  0  0
   46.6271    6.3843   14.3309 H   0  0  0  0  0  0  0  0  0  0  0  0
   44.0612    6.5098   13.8303 H   0  0  0  0  0  0  0  0  0  0  0  0
   45.9174    5.4276   10.0865 H   0  0  0  0  0  0  0  0  0  0  0  0
   48.9238    7.2937   14.5290 H   0  0  0  0  0  0  0  0  0  0  0  0
   48.8902    7.8159   12.8348 H   0  0  0  0  0  0  0  0  0  0  0  0
   47.7948    8.5533   14.0161 H   0  0  0  0  0  0  0  0  0  0  0  0
   42.2131    4.9452   13.3538 H   0  0  0  0  0  0  0  0  0  0  0  0
   44.0599    3.8697    9.6281 H   0  0  0  0  0  0  0  0  0  0  0  0
   42.2057    3.6215   11.2563 H   0  0  0  0  0  0  0  0  0  0  0  0
  4  2  1  0
  3  1  1  0
  4  1  1  0
  5  3  2  0
  6  3  1  0
  4  7  1  0
  8  5  1  0
  9  6  2  0
 10  8  2  0
  9 10  1  0
 12 11  2  0
 13 11  2  0
 14 11  1  0
 15 11  1  0
 19 17  1  0
 18 16  1  0
 19 16  1  0
 20 18  2  0
 21 18  1  0
 19 22  1  0
 23 20  1  0
 24 21  2  0
 25 23  2  0
 24 25  1  0
  1 26  1  0
  1 27  1  0
  2 28  1  0
  2 29  1  0
  4 30  1  1
  5 31  1  0
  6 32  1  0
  7 33  1  0
  7 34  1  0
  7 35  1  0
  8 36  1  0
  9 37  1  0
 10 38  1  0
 14 39  1  0
 15 40  1  0
 16 41  1  0
 16 42  1  0
 17 43  1  0
 17 44  1  0
 19 45  1  1
 20 46  1  0
 21 47  1  0
 22 48  1  0
 22 49  1  0
 22 50  1  0
 23 51  1  0
 24 52  1  0
 25 53  1  0
M  END
> <Uni-Dock RESULT> 
ENERGY=   -5.475  LOWER_BOUND=    2.326  UPPER_BOUND=    4.195
INTER + INTRA:          -5.475
INTER:                  -5.475
INTRA:                   0.000
UNBOUND:                 0.000

$$$$

     RDKit          3D

 53 52  0  0  0  0  0  0  0  0999 V2000
   44.8622    6.0311   12.9256 C   0  0  0  0  0  0  0  0  0  0  0  0
   45.0467    5.2006   10.5821 N   0  0  0  0  0  0  0  0  0  0  0  0
   46.1949    6.7414   13.0115 C   0  0  0  0  0  0  0  0  0  0  0  0
   44.2590    6.0281   11.5048 C   0  0  1  0  0  0  0  0  0  0  0  0
   46.2546    8.1412   13.0476 C   0  0  0  0  0  0  0  0  0  0  0  0
   47.3894    6.0091   13.0392 C   0  0  0  0  0  0  0  0  0  0  0  0
   42.8284    5.4926   11.5348 C   0  0  0  0  0  0  0  0  0  0  0  0
   47.4862    8.7948   13.1129 C   0  0  0  0  0  0  0  0  0  0  0  0
   48.6199    6.6645   13.1040 C   0  0  0  0  0  0  0  0  0  0  0  0
   48.6680    8.0566   13.1411 C   0  0  0  0  0  0  0  0  0  0  0  0
   45.8330    6.7526   11.9491 S   0  0  0  0  0  0  0  0  0  0  0  0
   45.6585    6.2957   10.5940 O   0  0  0  0  0  0  0  0  0  0  0  0
   46.0968    8.1231   12.3067 O   0  0  0  0  0  0  0  0  0  0  0  0
   44.5436    6.2564   12.7645 O   0  0  0  0  0  0  0  0  0  0  0  0
   46.9882    5.8749   12.6338 O   0  0  0  0  0  0  0  0  0  0  0  0
   45.3730    5.4464   11.7787 C   0  0  0  0  0  0  0  0  0  0  0  0
   43.8161    7.4083   11.6788 N   0  0  0  0  0  0  0  0  0  0  0  0
   46.5768    6.2067   12.2875 C   0  0  0  0  0  0  0  0  0  0  0  0
   44.0209    6.0552   12.2120 C   0  0  1  0  0  0  0  0  0  0  0  0
   46.9168    6.1739   13.6468 C   0  0  0  0  0  0  0  0  0  0  0  0
   47.3662    6.9609   11.4084 C   0  0  0  0  0  0  0  0  0  0  0  0
   42.8667    5.1708   11.7423 C   0  0  0  0  0  0  0  0  0  0  0  0
   48.0221    6.8842   14.1175 C   0  0  0  0  0  0  0  0  0  0  0  0
   48.4713    7.6704   11.8812 C   0  0  0  0  0  0  0  0  0  0  0  0
   48.7987    7.6325   13.2351 C   0  0  0  0  0  0  0  0  0  0  0  0
   44.1701    6.5253   13.6207 H   0  0  0  0  0  0  0  0  0  0  0  0
   44.9646    5.0027   13.2977 H   0  0  0  0  0  0  0  0  0  0  0  0
   45.9982    5.5701   10.5415 H   0  0  0  0  0  0  0  0  0  0  0  0
   44.6707    5.2914    9.6391 H   0  0  0  0  0  0  0  0  0  0  0  0
   44.2361    7.0524   11.1132 H   0  0  0  0  0  0  0  0  0  0  0  0
   45.3410    8.7309   13.0273 H   0  0  0  0  0  0  0  0  0  0  0  0
   47.3656    4.9217   13.0062 H   0  0  0  0  0  0  0  0  0  0  0  0
   42.1987    6.1093   12.1854 H   0  0  0  0  0  0  0  0  0  0  0  0
   42.7921    4.4630   11.9086 H   0  0  0  0  0  0  0  0  0  0  0  0
   42.3811    5.5059   10.5346 H   0  0  0  0  0  0  0  0  0  0  0  0
   47.5235    9.8806   13.1430 H   0  0  0  0  0  0  0  0  0  0  0  0
   49.5406    6.0875   13.1259 H   0  0  0  0  0  0  0  0  0  0  0  0
   49.6264    8.5661   13.1929 H   0  0  0  0  0  0  0  0  0  0  0  0
   44.2094    5.4527   12.3151 H   0  0  0  0  0  0  0  0  0  0  0  0
   47.2918    6.3646   13.4262 H   0  0  0  0  0  0  0  0  0  0  0  0
   45.4164    5.3752   10.6834 H   0  0  0  0  0  0  0  0  0  0  0  0
   45.4466    4.4133   12.1440 H   0  0  0  0  0  0  0  0  0  0  0  0
   43.9093    7.3951   10.6641 H   0  0  0  0  0  0  0  0  0  0  0  0
   44.5728    8.0081   12.0141 H   0  0  0  0  0  0  0  0  0  0  0  0
   43.9787    6.1170   13.3059 H   0  0  0  0  0  0  0  0  0  0  0  0
   46.3215    5.5943   14.3490 H   0  0  0  0  0  0  0  0  0  0  0  0
   47.1259    7.0019   10.3485 H   0  0  0  0  0  0  0  0  0  0  0  0
   41.9023    5.5791   12.0649 H   0  0  0  0  0  0  0  0  0  0  0  0
   42.8473    5.0790   10.6504 H   0  0  0  0  0  0  0  0  0  0  0  0
   42.9562    4.1635   12.1633 H   0  0  0  0  0  0  0  0  0  0  0  0
   48.2774    6.8534   15.1736 H   0  0  0  0  0  0  0  0  0  0  0  0
   49.0780    8.2526   11.1925 H   0  0  0  0  0  0  0  0  0  0  0  0
   49.6594    8.1850   13.6024 H   0  0  0  0  0  0  0  0  0  0  0  0
  4  2  1  0
  3  1  1  0
  4  1  1  0
  5  3  2  0
  6  3  1  0
  4  7  1  0
  8  5  1  0
  9  6  2  0
 10  8  2  0
  9 10  1  0
 12 11  2  0
 13 11  2  0
 14 11  1  0
 15 11  1  0
 19 17  1  0
 18 16  1  0
 19 16  1  0
 20 18  2  0
 21 18  1  0
 19 22  1  0
 23 20  1  0
 24 21  2  0
 25 23  2  0
 24 25  1  0
  1 26  1  0
  1 27  1  0
  2 28  1  0
  2 29  1  0
  4 30  1  1
  5 31  1  0
  6 32  1  0
  7 33  1  0
  7 34  1  0
  7 35  1  0
  8 36  1  0
  9 37  1  0
 10 38  1  0
 14 39  1  0
 15 40  1  0
 16 41  1  0
 16 42  1  0
 17 43  1  0
 17 44  1  0
 19 45  1  1
 20 46  1  0
 21 47  1  0
 22 48  1  0
 22 49  1  0
 22 50  1  0
 23 51  1  0
 24 52  1  0
 25 53  1  0
M  END
> <Uni-Dock RESULT> 
ENERGY=   -5.350  LOWER_BOUND=    2.813  UPPER_BOUND=    4.553
INTER + INTRA:          -5.350
INTER:                  -5.350
INTRA:                   0.000
UNBOUND:                 0.000

$$$$

     RDKit          3D

 53 52  0  0  0  0  0  0  0  0999 V2000
   44.9402    7.2415   11.6147 C   0  0  0  0  0  0  0  0  0  0  0  0
   44.4720    5.4275   13.2596 N   0  0  0  0  0  0  0  0  0  0  0  0
   46.3008    7.6570   12.1286 C   0  0  0  0  0  0  0  0  0  0  0  0
   44.6318    5.7452   11.8348 C   0  0  1  0  0  0  0  0  0  0  0  0
   47.4581    7.3712   11.3915 C   0  0  0  0  0  0  0  0  0  0  0  0
   46.4239    8.3188   13.3578 C   0  0  0  0  0  0  0  0  0  0  0  0
   43.3488    5.3529   11.1040 C   0  0  0  0  0  0  0  0  0  0  0  0
   48.7137    7.7432   11.8744 C   0  0  0  0  0  0  0  0  0  0  0  0
   47.6803    8.6896   13.8392 C   0  0  0  0  0  0  0  0  0  0  0  0
   48.8245    8.4021   13.0976 C   0  0  0  0  0  0  0  0  0  0  0  0
   46.1341    6.5690   12.3488 S   0  0  0  0  0  0  0  0  0  0  0  0
   45.7146    5.4065   13.0890 O   0  0  0  0  0  0  0  0  0  0  0  0
   47.3774    6.6552   11.6259 O   0  0  0  0  0  0  0  0  0  0  0  0
   44.9373    6.9208   11.3402 O   0  0  0  0  0  0  0  0  0  0  0  0
   46.0925    7.8363   13.3316 O   0  0  0  0  0  0  0  0  0  0  0  0
   44.8186    6.5587   12.8135 C   0  0  0  0  0  0  0  0  0  0  0  0
   45.4688    5.3939   10.6913 N   0  0  0  0  0  0  0  0  0  0  0  0
   46.1266    7.2891   13.0176 C   0  0  0  0  0  0  0  0  0  0  0  0
   44.4852    6.2770   11.3315 C   0  0  1  0  0  0  0  0  0  0  0  0
   46.2517    8.6383   12.6592 C   0  0  0  0  0  0  0  0  0  0  0  0
   47.2350    6.6257   13.5618 C   0  0  0  0  0  0  0  0  0  0  0  0
   43.1057    5.6307   11.2123 C   0  0  0  0  0  0  0  0  0  0  0  0
   47.4624    9.3090   12.8384 C   0  0  0  0  0  0  0  0  0  0  0  0
   48.4448    7.2985   13.7404 C   0  0  0  0  0  0  0  0  0  0  0  0
   48.5585    8.6392   13.3783 C   0  0  0  0  0  0  0  0  0  0  0  0
   44.8983    7.4744   10.5421 H   0  0  0  0  0  0  0  0  0  0  0  0
   44.1622    7.8626   12.0787 H   0  0  0  0  0  0  0  0  0  0  0  0
   45.3368    5.6669   13.7478 H   0  0  0  0  0  0  0  0  0  0  0  0
   44.3562    4.4212   13.3723 H   0  0  0  0  0  0  0  0  0  0  0  0
   45.4547    5.1382   11.4379 H   0  0  0  0  0  0  0  0  0  0  0  0
   47.3877    6.8585   10.4349 H   0  0  0  0  0  0  0  0  0  0  0  0
   45.5385    8.5450   13.9486 H   0  0  0  0  0  0  0  0  0  0  0  0
   43.4440    5.5402   10.0289 H   0  0  0  0  0  0  0  0  0  0  0  0
   42.4871    5.9225   11.4701 H   0  0  0  0  0  0  0  0  0  0  0  0
   43.1307    4.2870   11.2346 H   0  0  0  0  0  0  0  0  0  0  0  0
   49.6060    7.5200   11.2954 H   0  0  0  0  0  0  0  0  0  0  0  0
   47.7652    9.2033   14.7931 H   0  0  0  0  0  0  0  0  0  0  0  0
   49.8023    8.6923   13.4724 H   0  0  0  0  0  0  0  0  0  0  0  0
   44.1102    6.5879   11.7461 H   0  0  0  0  0  0  0  0  0  0  0  0
   46.6364    8.5394   12.9198 H   0  0  0  0  0  0  0  0  0  0  0  0
   44.8285    5.6173   13.3794 H   0  0  0  0  0  0  0  0  0  0  0  0
   44.0198    7.1639   13.2629 H   0  0  0  0  0  0  0  0  0  0  0  0
   45.5519    4.5293   11.2241 H   0  0  0  0  0  0  0  0  0  0  0  0
   46.3882    5.8372   10.7462 H   0  0  0  0  0  0  0  0  0  0  0  0
   44.4686    7.2200   10.7723 H   0  0  0  0  0  0  0  0  0  0  0  0
   45.4057    9.1761   12.2370 H   0  0  0  0  0  0  0  0  0  0  0  0
   47.1645    5.5795   13.8504 H   0  0  0  0  0  0  0  0  0  0  0  0
   42.8466    5.4481   10.1633 H   0  0  0  0  0  0  0  0  0  0  0  0
   43.0616    4.6732   11.7435 H   0  0  0  0  0  0  0  0  0  0  0  0
   42.3351    6.2853   11.6336 H   0  0  0  0  0  0  0  0  0  0  0  0
   47.5501   10.3552   12.5566 H   0  0  0  0  0  0  0  0  0  0  0  0
   49.2992    6.7764   14.1632 H   0  0  0  0  0  0  0  0  0  0  0  0
   49.5008    9.1625   13.5177 H   0  0  0  0  0  0  0  0  0  0  0  0
  4  2  1  0
  3  1  1  0
  4  1  1  0
  5  3  2  0
  6  3  1  0
  4  7  1  0
  8  5  1  0
  9  6  2  0
 10  8  2  0
  9 10  1  0
 12 11  2  0
 13 11  2  0
 14 11  1  0
 15 11  1  0
 19 17  1  0
 18 16  1  0
 19 16  1  0
 20 18  2  0
 21 18  1  0
 19 22  1  0
 23 20  1  0
 24 21  2  0
 25 23  2  0
 24 25  1  0
  1 26  1  0
  1 27  1  0
  2 28  1  0
  2 29  1  0
  4 30  1  1
  5 31  1  0
  6 32  1  0
  7 33  1  0
  7 34  1  0
  7 35  1  0
  8 36  1  0
  9 37  1  0
 10 38  1  0
 14 39  1  0
 15 40  1  0
 16 41  1  0
 16 42  1  0
 17 43  1  0
 17 44  1  0
 19 45  1  1
 20 46  1  0
 21 47  1  0
 22 48  1  0
 22 49  1  0
 22 50  1  0
 23 51  1  0
 24 52  1  0
 25 53  1  0
M  END
> <Uni-Dock RESULT> 
ENERGY=   -4.924  LOWER_BOUND=    3.004  UPPER_BOUND=    4.651
INTER + INTRA:          -4.924
INTER:                  -4.924
INTRA:                   0.000
UNBOUND:                 0.000

$$$$

     RDKit          3D

 53 52  0  0  0  0  0  0  0  0999 V2000
   46.0088    6.1176   11.6520 C   0  0  0  0  0  0  0  0  0  0  0  0
   44.3933    8.0022   11.8853 N   0  0  0  0  0  0  0  0  0  0  0  0
   47.1426    6.6993   12.4669 C   0  0  0  0  0  0  0  0  0  0  0  0
   44.6133    6.5711   12.1310 C   0  0  1  0  0  0  0  0  0  0  0  0
   47.4650    6.1645   13.7217 C   0  0  0  0  0  0  0  0  0  0  0  0
   47.8755    7.7924   11.9852 C   0  0  0  0  0  0  0  0  0  0  0  0
   43.5209    5.7823   11.4108 C   0  0  0  0  0  0  0  0  0  0  0  0
   48.5027    6.7118   14.4780 C   0  0  0  0  0  0  0  0  0  0  0  0
   48.9123    8.3385   12.7431 C   0  0  0  0  0  0  0  0  0  0  0  0
   49.2258    7.7982   13.9887 C   0  0  0  0  0  0  0  0  0  0  0  0
   46.1648    7.0944   12.8513 S   0  0  0  0  0  0  0  0  0  0  0  0
   45.0354    7.9818   12.9627 O   0  0  0  0  0  0  0  0  0  0  0  0
   46.8455    6.5152   13.9813 O   0  0  0  0  0  0  0  0  0  0  0  0
   45.7142    5.9080   11.8700 O   0  0  0  0  0  0  0  0  0  0  0  0
   47.2903    7.8172   11.9657 O   0  0  0  0  0  0  0  0  0  0  0  0
   45.4841    7.3992   11.6721 C   0  0  0  0  0  0  0  0  0  0  0  0
   44.6693    5.6149   13.2327 N   0  0  0  0  0  0  0  0  0  0  0  0
   46.8233    7.6147   12.3400 C   0  0  0  0  0  0  0  0  0  0  0  0
   44.9306    5.9656   11.8306 C   0  0  1  0  0  0  0  0  0  0  0  0
   47.9837    7.0321   11.8121 C   0  0  0  0  0  0  0  0  0  0  0  0
   46.9228    8.3946   13.5004 C   0  0  0  0  0  0  0  0  0  0  0  0
   43.6305    5.8094   11.0430 C   0  0  0  0  0  0  0  0  0  0  0  0
   49.2180    7.2230   12.4350 C   0  0  0  0  0  0  0  0  0  0  0  0
   48.1583    8.5844   14.1216 C   0  0  0  0  0  0  0  0  0  0  0  0
   49.3050    7.9984   13.5894 C   0  0  0  0  0  0  0  0  0  0  0  0
   46.0809    5.0229   11.7053 H   0  0  0  0  0  0  0  0  0  0  0  0
   46.1470    6.3678   10.5915 H   0  0  0  0  0  0  0  0  0  0  0  0
   45.1083    8.5341   12.3846 H   0  0  0  0  0  0  0  0  0  0  0  0
   43.5014    8.2832   12.2905 H   0  0  0  0  0  0  0  0  0  0  0  0
   44.5175    6.3890   13.2083 H   0  0  0  0  0  0  0  0  0  0  0  0
   46.9105    5.3163   14.1165 H   0  0  0  0  0  0  0  0  0  0  0  0
   47.6376    8.2264   11.0161 H   0  0  0  0  0  0  0  0  0  0  0  0
   43.6293    4.7092   11.6024 H   0  0  0  0  0  0  0  0  0  0  0  0
   43.5615    5.9367   10.3266 H   0  0  0  0  0  0  0  0  0  0  0  0
   42.5252    6.0800   11.7584 H   0  0  0  0  0  0  0  0  0  0  0  0
   48.7478    6.2896   15.4490 H   0  0  0  0  0  0  0  0  0  0  0  0
   49.4753    9.1857   12.3603 H   0  0  0  0  0  0  0  0  0  0  0  0
   50.0341    8.2231   14.5777 H   0  0  0  0  0  0  0  0  0  0  0  0
   45.0245    6.2705   11.2762 H   0  0  0  0  0  0  0  0  0  0  0  0
   48.1344    7.3487   12.1326 H   0  0  0  0  0  0  0  0  0  0  0  0
   44.7565    8.1252   12.0596 H   0  0  0  0  0  0  0  0  0  0  0  0
   45.5963    7.6356   10.6055 H   0  0  0  0  0  0  0  0  0  0  0  0
   44.0425    6.3029   13.6476 H   0  0  0  0  0  0  0  0  0  0  0  0
   45.5439    5.6927   13.7560 H   0  0  0  0  0  0  0  0  0  0  0  0
   45.6564    5.2450   11.4354 H   0  0  0  0  0  0  0  0  0  0  0  0
   47.9333    6.4244   10.9114 H   0  0  0  0  0  0  0  0  0  0  0  0
   46.0384    8.8597   13.9298 H   0  0  0  0  0  0  0  0  0  0  0  0
   43.2402    4.7889   11.1272 H   0  0  0  0  0  0  0  0  0  0  0  0
   42.8569    6.4983   11.4007 H   0  0  0  0  0  0  0  0  0  0  0  0
   43.7967    6.0125    9.9796 H   0  0  0  0  0  0  0  0  0  0  0  0
   50.1122    6.7664   12.0188 H   0  0  0  0  0  0  0  0  0  0  0  0
   48.2263    9.1907   15.0211 H   0  0  0  0  0  0  0  0  0  0  0  0
   50.2667    8.1468   14.0735 H   0  0  0  0  0  0  0  0  0  0  0  0
  4  2  1  0
  3  1  1  0
  4  1  1  0
  5  3  2  0
  6  3  1  0
  4  7  1  0
  8  5  1  0
  9  6  2  0
 10  8  2  0
  9 10  1  0
 12 11  2  0
 13 11  2  0
 14 11  1  0
 15 11  1  0
 19 17  1  0
 18 16  1  0
 19 16  1  0
 20 18  2  0
 21 18  1  0
 19 22  1  0
 23 20  1  0
 24 21  2  0
 25 23  2  0
 24 25  1  0
  1 26  1  0
  1 27  1  0
  2 28  1  0
  2 29  1  0
  4 30  1  1
  5 31  1  0
  6 32  1  0
  7 33  1  0
  7 34  1  0
  7 35  1  0
  8 36  1  0
  9 37  1  0
 10 38  1  0
 14 39  1  0
 15 40  1  0
 16 41  1  0
 16 42  1  0
 17 43  1  0
 17 44  1  0
 19 45  1  1
 20 46  1  0
 21 47  1  0
 22 48  1  0
 22 49  1  0
 22 50  1  0
 23 51  1  0
 24 52  1  0
 25 53  1  0
M  END
> <Uni-Dock RESULT> 
ENERGY=   -4.750  LOWER_BOUND=    3.453  UPPER_BOUND=    5.191
INTER + INTRA:          -4.750
INTER:                  -4.750
INTRA:                   0.000
UNBOUND:                 0.000

$$$$

     RDKit          3D

 53 52  0  0  0  0  0  0  0  0999 V2000
   49.9733    4.5443   19.9668 C   0  0  0  0  0  0  0  0  0  0  0  0
   48.0294    4.9687   21.4691 N   0  0  0  0  0  0  0  0  0  0  0  0
   49.2128    4.3554   18.6730 C   0  0  0  0  0  0  0  0  0  0  0  0
   49.2860    5.5199   20.9458 C   0  0  1  0  0  0  0  0  0  0  0  0
   49.2778    5.3230   17.6611 C   0  0  0  0  0  0  0  0  0  0  0  0
   48.4189    3.2176   18.4755 C   0  0  0  0  0  0  0  0  0  0  0  0
   50.2076    5.8288   22.1245 C   0  0  0  0  0  0  0  0  0  0  0  0
   48.5640    5.1531   16.4736 C   0  0  0  0  0  0  0  0  0  0  0  0
   47.7056    3.0498   17.2878 C   0  0  0  0  0  0  0  0  0  0  0  0
   47.7785    4.0170   16.2873 C   0  0  0  0  0  0  0  0  0  0  0  0
   48.6417    5.0503   19.3445 S   0  0  0  0  0  0  0  0  0  0  0  0
   47.7013    5.4524   20.3591 O   0  0  0  0  0  0  0  0  0  0  0  0
   48.8167    5.7417   18.0926 O   0  0  0  0  0  0  0  0  0  0  0  0
   50.0699    4.9429   20.0669 O   0  0  0  0  0  0  0  0  0  0  0  0
   48.3641    3.5132   18.9785 O   0  0  0  0  0  0  0  0  0  0  0  0
   48.7394    4.4137   20.5822 C   0  0  0  0  0  0  0  0  0  0  0  0
   49.7807    6.6574   20.1757 N   0  0  0  0  0  0  0  0  0  0  0  0
   48.3862    4.1234   19.1410 C   0  0  0  0  0  0  0  0  0  0  0  0
   49.9788    5.3205   20.7510 C   0  0  1  0  0  0  0  0  0  0  0  0
   49.1957    3.2821   18.3655 C   0  0  0  0  0  0  0  0  0  0  0  0
   47.2480    4.6969   18.5576 C   0  0  0  0  0  0  0  0  0  0  0  0
   50.3227    5.4776   22.2315 C   0  0  0  0  0  0  0  0  0  0  0  0
   48.8747    3.0228   17.0322 C   0  0  0  0  0  0  0  0  0  0  0  0
   46.9286    4.4360   17.2241 C   0  0  0  0  0  0  0  0  0  0  0  0
   47.7419    3.5999   16.4618 C   0  0  0  0  0  0  0  0  0  0  0  0
   50.9769    4.9151   19.7181 H   0  0  0  0  0  0  0  0  0  0  0  0
   50.1332    3.5707   20.4493 H   0  0  0  0  0  0  0  0  0  0  0  0
   47.4015    4.7827   20.6851 H   0  0  0  0  0  0  0  0  0  0  0  0
   47.5625    5.6713   22.0410 H   0  0  0  0  0  0  0  0  0  0  0  0
   49.0595    6.4604   20.4288 H   0  0  0  0  0  0  0  0  0  0  0  0
   49.8872    6.2143   17.7914 H   0  0  0  0  0  0  0  0  0  0  0  0
   48.3499    2.4571   19.2509 H   0  0  0  0  0  0  0  0  0  0  0  0
   51.1435    6.2785   21.7754 H   0  0  0  0  0  0  0  0  0  0  0  0
   50.4588    4.9224   22.6870 H   0  0  0  0  0  0  0  0  0  0  0  0
   49.7393    6.5380   22.8161 H   0  0  0  0  0  0  0  0  0  0  0  0
   48.6218    5.9070   15.6930 H   0  0  0  0  0  0  0  0  0  0  0  0
   47.0934    2.1633   17.1439 H   0  0  0  0  0  0  0  0  0  0  0  0
   47.2238    3.8850   15.3622 H   0  0  0  0  0  0  0  0  0  0  0  0
   49.9019    4.7410   21.0106 H   0  0  0  0  0  0  0  0  0  0  0  0
   48.7953    3.3391   18.1162 H   0  0  0  0  0  0  0  0  0  0  0  0
   47.8760    4.8630   21.0913 H   0  0  0  0  0  0  0  0  0  0  0  0
   48.9126    3.4542   21.0876 H   0  0  0  0  0  0  0  0  0  0  0  0
   48.9493    7.0855   20.5806 H   0  0  0  0  0  0  0  0  0  0  0  0
   49.5770    6.5558   19.1792 H   0  0  0  0  0  0  0  0  0  0  0  0
   50.8398    4.8645   20.2482 H   0  0  0  0  0  0  0  0  0  0  0  0
   50.0832    2.8231   18.7955 H   0  0  0  0  0  0  0  0  0  0  0  0
   46.6016    5.3517   19.1374 H   0  0  0  0  0  0  0  0  0  0  0  0
   51.2155    6.0991   22.3638 H   0  0  0  0  0  0  0  0  0  0  0  0
   49.5015    5.9416   22.7894 H   0  0  0  0  0  0  0  0  0  0  0  0
   50.5293    4.5023   22.6854 H   0  0  0  0  0  0  0  0  0  0  0  0
   49.5090    2.3697   16.4385 H   0  0  0  0  0  0  0  0  0  0  0  0
   46.0440    4.8848   16.7798 H   0  0  0  0  0  0  0  0  0  0  0  0
   47.4925    3.3971   15.4236 H   0  0  0  0  0  0  0  0  0  0  0  0
  4  2  1  0
  3  1  1  0
  4  1  1  0
  5  3  2  0
  6  3  1  0
  4  7  1  0
  8  5  1  0
  9  6  2  0
 10  8  2  0
  9 10  1  0
 12 11  2  0
 13 11  2  0
 14 11  1  0
 15 11  1  0
 19 17  1  0
 18 16  1  0
 19 16  1  0
 20 18  2  0
 21 18  1  0
 19 22  1  0
 23 20  1  0
 24 21  2  0
 25 23  2  0
 24 25  1  0
  1 26  1  0
  1 27  1  0
  2 28  1  0
  2 29  1  0
  4 30  1  1
  5 31  1  0
  6 32  1  0
  7 33  1  0
  7 34  1  0
  7 35  1  0
  8 36  1  0
  9 37  1  0
 10 38  1  0
 14 39  1  0
 15 40  1  0
 16 41  1  0
 16 42  1  0
 17 43  1  0
 17 44  1  0
 19 45  1  1
 20 46  1  0
 21 47  1  0
 22 48  1  0
 22 49  1  0
 22 50  1  0
 23 51  1  0
 24 52  1  0
 25 53  1  0
M  END
> <Uni-Dock RESULT> 
ENERGY=   -4.681  LOWER_BOUND=    8.360  UPPER_BOUND=   10.362
INTER + INTRA:          -4.681
INTER:                  -4.681
INTRA:                   0.000
UNBOUND:                 0.000

$$$$
