
     RDKit          3D

 63 62  0  0  0  0  0  0  0  0999 V2000
    1.6429   -0.2904   -0.3037 C   0  0  0  0  0  0  0  0  0  0  0  0
    1.8093   -1.5076    0.0565 N   0  0  0  0  0  0  0  0  0  0  0  0
    0.4091    0.1511   -0.6911 N   0  0  0  0  0  0  0  0  0  0  0  0
    2.4885    0.7808   -0.3925 N   0  0  0  0  0  0  0  0  0  0  0  0
   -0.7184   -0.7411   -0.8817 C   0  0  0  0  0  0  0  0  0  0  0  0
   -1.9648   -0.0790   -0.3337 C   0  0  0  0  0  0  0  0  0  0  0  0
    3.0734   -2.0465    0.4953 C   0  0  0  0  0  0  0  0  0  0  0  0
    3.8434    0.8473    0.1022 C   0  0  0  0  0  0  0  0  0  0  0  0
   -2.1694   -0.0299    1.0592 C   0  0  0  0  0  0  0  0  0  0  0  0
   -2.9228    0.4990   -1.1829 C   0  0  0  0  0  0  0  0  0  0  0  0
   -3.3164    0.5693    1.5903 C   0  0  0  0  0  0  0  0  0  0  0  0
   -4.0702    1.1004   -0.6491 C   0  0  0  0  0  0  0  0  0  0  0  0
   -4.2672    1.1313    0.7359 C   0  0  0  0  0  0  0  0  0  0  0  0
   -0.0342    0.4319    0.1165 S   0  0  0  0  0  0  0  0  0  0  0  0
   -0.5179    1.3715   -0.8692 O   0  0  0  0  0  0  0  0  0  0  0  0
    0.4130    0.8105    1.4382 O   0  0  0  0  0  0  0  0  0  0  0  0
   -1.1639   -0.7019    0.2653 O   0  0  0  0  0  0  0  0  0  0  0  0
    1.1646   -0.4099   -0.5381 O   0  0  0  0  0  0  0  0  0  0  0  0
   -1.7229    0.0450    0.2180 C   0  0  0  0  0  0  0  0  0  0  0  0
   -2.1646    1.0590    0.8600 N   0  0  0  0  0  0  0  0  0  0  0  0
   -0.3803   -0.1069    0.0008 N   0  0  0  0  0  0  0  0  0  0  0  0
   -2.3375   -1.0356   -0.3540 N   0  0  0  0  0  0  0  0  0  0  0  0
    0.5666    0.8380    0.5681 C   0  0  0  0  0  0  0  0  0  0  0  0
    1.9742    0.3718    0.2767 C   0  0  0  0  0  0  0  0  0  0  0  0
   -3.5631    1.2207    1.1851 C   0  0  0  0  0  0  0  0  0  0  0  0
   -3.7235   -1.0856   -0.7549 C   0  0  0  0  0  0  0  0  0  0  0  0
    2.7513   -0.2214    1.2800 C   0  0  0  0  0  0  0  0  0  0  0  0
    2.5112    0.4979   -1.0140 C   0  0  0  0  0  0  0  0  0  0  0  0
    4.0459   -0.6644    1.0050 C   0  0  0  0  0  0  0  0  0  0  0  0
    3.8043    0.0515   -1.2882 C   0  0  0  0  0  0  0  0  0  0  0  0
    4.5723   -0.5261   -0.2768 C   0  0  0  0  0  0  0  0  0  0  0  0
    0.4275    0.8938   -1.3679 H   0  0  0  0  0  0  0  0  0  0  0  0
    1.9869    1.6506   -0.2210 H   0  0  0  0  0  0  0  0  0  0  0  0
   -0.8343   -0.9597   -1.9544 H   0  0  0  0  0  0  0  0  0  0  0  0
   -0.5914   -1.7119   -0.3770 H   0  0  0  0  0  0  0  0  0  0  0  0
    3.4545   -1.5315    1.3861 H   0  0  0  0  0  0  0  0  0  0  0  0
    3.8187   -2.0388   -0.3053 H   0  0  0  0  0  0  0  0  0  0  0  0
    2.9314   -3.0965    0.7805 H   0  0  0  0  0  0  0  0  0  0  0  0
    4.4855    0.0972   -0.3702 H   0  0  0  0  0  0  0  0  0  0  0  0
    3.8711    0.7351    1.1932 H   0  0  0  0  0  0  0  0  0  0  0  0
    4.2667    1.8277   -0.1414 H   0  0  0  0  0  0  0  0  0  0  0  0
   -1.4264   -0.4648    1.7318 H   0  0  0  0  0  0  0  0  0  0  0  0
   -2.7874    0.4801   -2.2653 H   0  0  0  0  0  0  0  0  0  0  0  0
   -3.4652    0.5937    2.6694 H   0  0  0  0  0  0  0  0  0  0  0  0
   -4.8127    1.5436   -1.3129 H   0  0  0  0  0  0  0  0  0  0  0  0
   -5.1622    1.5966    1.1487 H   0  0  0  0  0  0  0  0  0  0  0  0
   -1.6016   -0.7944   -0.6078 H   0  0  0  0  0  0  0  0  0  0  0  0
    1.7399   -0.7078    0.1951 H   0  0  0  0  0  0  0  0  0  0  0  0
   -0.0768   -1.0614    0.1424 H   0  0  0  0  0  0  0  0  0  0  0  0
   -1.7447   -1.4095   -1.0900 H   0  0  0  0  0  0  0  0  0  0  0  0
    0.4205    1.8344    0.1385 H   0  0  0  0  0  0  0  0  0  0  0  0
    0.4240    0.9229    1.6502 H   0  0  0  0  0  0  0  0  0  0  0  0
   -3.9732    0.3376    1.6816 H   0  0  0  0  0  0  0  0  0  0  0  0
   -3.6676    2.0478    1.8938 H   0  0  0  0  0  0  0  0  0  0  0  0
   -4.1544    1.4778    0.3038 H   0  0  0  0  0  0  0  0  0  0  0  0
   -3.9768   -0.2388   -1.3989 H   0  0  0  0  0  0  0  0  0  0  0  0
   -4.3925   -1.1166    0.1080 H   0  0  0  0  0  0  0  0  0  0  0  0
   -3.8985   -2.0050   -1.3250 H   0  0  0  0  0  0  0  0  0  0  0  0
    2.3535   -0.3401    2.2838 H   0  0  0  0  0  0  0  0  0  0  0  0
    1.9158    0.9426   -1.8093 H   0  0  0  0  0  0  0  0  0  0  0  0
    4.6441   -1.1168    1.7917 H   0  0  0  0  0  0  0  0  0  0  0  0
    4.2124    0.1532   -2.2908 H   0  0  0  0  0  0  0  0  0  0  0  0
    5.5805   -0.8717   -0.4898 H   0  0  0  0  0  0  0  0  0  0  0  0
  2  1  2  0
  3  1  1  0
  4  1  1  0
  5  3  1  0
  6  5  1  0
  7  2  1  0
  8  4  1  0
  9  6  2  0
 10  6  1  0
 11  9  1  0
 12 10  2  0
 13 12  1  0
 11 13  2  0
 15 14  2  0
 16 14  2  0
 17 14  1  0
 18 14  1  0
 20 19  2  0
 21 19  1  0
 22 19  1  0
 23 21  1  0
 24 23  1  0
 25 20  1  0
 26 22  1  0
 27 24  2  0
 28 24  1  0
 29 27  1  0
 30 28  2  0
 31 30  1  0
 29 31  2  0
  3 32  1  0
  4 33  1  0
  5 34  1  0
  5 35  1  0
  7 36  1  0
  7 37  1  0
  7 38  1  0
  8 39  1  0
  8 40  1  0
  8 41  1  0
  9 42  1  0
 10 43  1  0
 11 44  1  0
 12 45  1  0
 13 46  1  0
 17 47  1  0
 18 48  1  0
 21 49  1  0
 22 50  1  0
 23 51  1  0
 23 52  1  0
 25 53  1  0
 25 54  1  0
 25 55  1  0
 26 56  1  0
 26 57  1  0
 26 58  1  0
 27 59  1  0
 28 60  1  0
 29 61  1  0
 30 62  1  0
 31 63  1  0
M  END
$$$$
