
     RDKit          2D

 31 30  0  0  0  0  0  0  0  0999 V2000
    2.3342   -4.9753    0.0000 C   0  0  0  0  0  0  0  0  0  0  0  0
    2.3585   -4.1566    0.0000 N   0  0  0  0  0  0  0  0  0  0  0  0
    1.6276   -5.3846    0.0000 N   0  0  0  0  0  0  0  0  0  0  0  0
    3.0359   -5.3846    0.0000 N   0  0  0  0  0  0  0  0  0  0  0  0
    0.9162   -4.9850    0.0000 C   0  0  0  0  0  0  0  0  0  0  0  0
    0.2145   -5.3846    0.0000 C   0  0  0  0  0  0  0  0  0  0  0  0
    3.0944   -3.7813    0.0000 C   0  0  0  0  0  0  0  0  0  0  0  0
    3.7814   -4.9753    0.0000 C   0  0  0  0  0  0  0  0  0  0  0  0
   -0.5310   -4.9557    0.0000 C   0  0  0  0  0  0  0  0  0  0  0  0
    0.2243   -6.1886    0.0000 C   0  0  0  0  0  0  0  0  0  0  0  0
   -1.2327   -5.3407    0.0000 C   0  0  0  0  0  0  0  0  0  0  0  0
   -0.5310   -6.6125    0.0000 C   0  0  0  0  0  0  0  0  0  0  0  0
   -1.2473   -6.2032    0.0000 C   0  0  0  0  0  0  0  0  0  0  0  0
    4.3563   -2.1831    0.0000 S   0  0  0  0  0  0  0  0  0  0  0  0
    3.9373   -1.4521    0.0000 O   0  0  0  0  0  0  0  0  0  0  0  0
    4.7656   -1.4521    0.0000 O   0  0  0  0  0  0  0  0  0  0  0  0
    5.0726   -2.5924    0.0000 O   0  0  0  0  0  0  0  0  0  0  0  0
    3.6400   -2.5924    0.0000 O   0  0  0  0  0  0  0  0  0  0  0  0
    1.1744   -1.9199    0.0000 C   0  0  0  0  0  0  0  0  0  0  0  0
    1.1987   -1.1013    0.0000 N   0  0  0  0  0  0  0  0  0  0  0  0
    0.4678   -2.3292    0.0000 N   0  0  0  0  0  0  0  0  0  0  0  0
    1.8761   -2.3292    0.0000 N   0  0  0  0  0  0  0  0  0  0  0  0
   -0.2436   -1.9296    0.0000 C   0  0  0  0  0  0  0  0  0  0  0  0
   -0.9453   -2.3292    0.0000 C   0  0  0  0  0  0  0  0  0  0  0  0
    1.9345   -0.7260    0.0000 C   0  0  0  0  0  0  0  0  0  0  0  0
    2.6216   -1.9199    0.0000 C   0  0  0  0  0  0  0  0  0  0  0  0
   -1.6908   -1.9004    0.0000 C   0  0  0  0  0  0  0  0  0  0  0  0
   -0.9356   -3.1332    0.0000 C   0  0  0  0  0  0  0  0  0  0  0  0
   -2.3925   -2.2854    0.0000 C   0  0  0  0  0  0  0  0  0  0  0  0
   -1.6908   -3.5572    0.0000 C   0  0  0  0  0  0  0  0  0  0  0  0
   -2.4071   -3.1479    0.0000 C   0  0  0  0  0  0  0  0  0  0  0  0
  2  1  2  0
  3  1  1  0
  4  1  1  0
  5  3  1  0
  6  5  1  0
  7  2  1  0
  8  4  1  0
  9  6  2  0
 10  6  1  0
 11  9  1  0
 12 10  2  0
 13 12  1  0
 11 13  2  0
 15 14  2  0
 16 14  2  0
 17 14  1  0
 18 14  1  0
 20 19  2  0
 21 19  1  0
 22 19  1  0
 23 21  1  0
 24 23  1  0
 25 20  1  0
 26 22  1  0
 27 24  2  0
 28 24  1  0
 29 27  1  0
 30 28  2  0
 31 30  1  0
 29 31  2  0
M  END
> <chembl_id>
CHEMBL2110368

> <chembl_pref_name>
BETHANIDINE SULFATE
