
     RDKit          3D

 63 62  0  0  0  0  0  0  0  0999 V2000
   -1.7182   -0.1656   -0.0650 C   0  0  0  0  0  0  0  0  0  0  0  0
   -2.2635    0.6472   -0.8870 N   0  0  0  0  0  0  0  0  0  0  0  0
   -0.3589   -0.1767    0.0905 N   0  0  0  0  0  0  0  0  0  0  0  0
   -2.2227   -1.1179    0.7769 N   0  0  0  0  0  0  0  0  0  0  0  0
    0.4877    0.6584   -0.7424 C   0  0  0  0  0  0  0  0  0  0  0  0
    1.9303    0.4587   -0.3418 C   0  0  0  0  0  0  0  0  0  0  0  0
   -3.6856    0.6634   -1.1396 C   0  0  0  0  0  0  0  0  0  0  0  0
   -3.5838   -1.1707    1.2556 C   0  0  0  0  0  0  0  0  0  0  0  0
    2.7716   -0.3774   -1.0893 C   0  0  0  0  0  0  0  0  0  0  0  0
    2.4387    1.0823    0.8073 C   0  0  0  0  0  0  0  0  0  0  0  0
    4.1003   -0.5681   -0.7066 C   0  0  0  0  0  0  0  0  0  0  0  0
    3.7674    0.8902    1.1889 C   0  0  0  0  0  0  0  0  0  0  0  0
    4.5978    0.0685    0.4299 C   0  0  0  0  0  0  0  0  0  0  0  0
   -0.0021    0.3042    0.2752 S   0  0  0  0  0  0  0  0  0  0  0  0
    0.6685    1.5755    0.1772 O   0  0  0  0  0  0  0  0  0  0  0  0
   -0.3652   -0.2972    1.5334 O   0  0  0  0  0  0  0  0  0  0  0  0
    0.9103   -0.7613   -0.5033 O   0  0  0  0  0  0  0  0  0  0  0  0
   -1.3218    0.3257   -0.6372 O   0  0  0  0  0  0  0  0  0  0  0  0
   -1.6839   -0.2051    0.2870 C   0  0  0  0  0  0  0  0  0  0  0  0
   -2.3066   -0.8181   -0.6463 N   0  0  0  0  0  0  0  0  0  0  0  0
   -0.3333    0.0011    0.1991 N   0  0  0  0  0  0  0  0  0  0  0  0
   -2.0831    0.3428    1.4749 N   0  0  0  0  0  0  0  0  0  0  0  0
    0.4188   -0.5238   -0.9279 C   0  0  0  0  0  0  0  0  0  0  0  0
    1.8685   -0.1288   -0.7756 C   0  0  0  0  0  0  0  0  0  0  0  0
   -3.7174   -1.1196   -0.5677 C   0  0  0  0  0  0  0  0  0  0  0  0
   -3.4341    0.7378    1.7960 C   0  0  0  0  0  0  0  0  0  0  0  0
    2.7777   -0.9790   -0.1283 C   0  0  0  0  0  0  0  0  0  0  0  0
    2.3156    1.1182   -1.2374 C   0  0  0  0  0  0  0  0  0  0  0  0
    4.1099   -0.5957    0.0386 C   0  0  0  0  0  0  0  0  0  0  0  0
    3.6484    1.4987   -1.0723 C   0  0  0  0  0  0  0  0  0  0  0  0
    4.5450    0.6412   -0.4355 C   0  0  0  0  0  0  0  0  0  0  0  0
    0.0193   -1.1095    0.2018 H   0  0  0  0  0  0  0  0  0  0  0  0
   -1.5700   -1.2926    1.5342 H   0  0  0  0  0  0  0  0  0  0  0  0
    0.3536    0.4051   -1.8008 H   0  0  0  0  0  0  0  0  0  0  0  0
    0.2261    1.7162   -0.6218 H   0  0  0  0  0  0  0  0  0  0  0  0
   -3.8882    1.3526   -1.9689 H   0  0  0  0  0  0  0  0  0  0  0  0
   -4.0559   -0.3177   -1.4512 H   0  0  0  0  0  0  0  0  0  0  0  0
   -4.2480    1.0328   -0.2768 H   0  0  0  0  0  0  0  0  0  0  0  0
   -3.6655   -1.9344    2.0387 H   0  0  0  0  0  0  0  0  0  0  0  0
   -3.8823   -0.2160    1.6983 H   0  0  0  0  0  0  0  0  0  0  0  0
   -4.2786   -1.4526    0.4607 H   0  0  0  0  0  0  0  0  0  0  0  0
    2.3977   -0.8831   -1.9767 H   0  0  0  0  0  0  0  0  0  0  0  0
    1.7939    1.7209    1.4074 H   0  0  0  0  0  0  0  0  0  0  0  0
    4.7494   -1.2124   -1.2948 H   0  0  0  0  0  0  0  0  0  0  0  0
    4.1548    1.3807    2.0792 H   0  0  0  0  0  0  0  0  0  0  0  0
    5.6325   -0.0823    0.7264 H   0  0  0  0  0  0  0  0  0  0  0  0
    1.8433   -0.5860   -0.2594 H   0  0  0  0  0  0  0  0  0  0  0  0
   -1.7330   -0.5609   -0.5859 H   0  0  0  0  0  0  0  0  0  0  0  0
    0.1336   -0.1943    1.0742 H   0  0  0  0  0  0  0  0  0  0  0  0
   -1.4223    1.0610    1.7562 H   0  0  0  0  0  0  0  0  0  0  0  0
    0.3345   -1.6169   -0.9734 H   0  0  0  0  0  0  0  0  0  0  0  0
    0.0298   -0.1267   -1.8732 H   0  0  0  0  0  0  0  0  0  0  0  0
   -3.9649   -1.6806    0.3380 H   0  0  0  0  0  0  0  0  0  0  0  0
   -3.9899   -1.7594   -1.4154 H   0  0  0  0  0  0  0  0  0  0  0  0
   -4.3306   -0.2167   -0.6421 H   0  0  0  0  0  0  0  0  0  0  0  0
   -3.4360    1.2976    2.7399 H   0  0  0  0  0  0  0  0  0  0  0  0
   -4.0832   -0.1287    1.9372 H   0  0  0  0  0  0  0  0  0  0  0  0
   -3.8448    1.3966    1.0256 H   0  0  0  0  0  0  0  0  0  0  0  0
    2.4515   -1.9448    0.2509 H   0  0  0  0  0  0  0  0  0  0  0  0
    1.6189    1.7995   -1.7235 H   0  0  0  0  0  0  0  0  0  0  0  0
    4.8091   -1.2603    0.5427 H   0  0  0  0  0  0  0  0  0  0  0  0
    3.9867    2.4659   -1.4352 H   0  0  0  0  0  0  0  0  0  0  0  0
    5.5822    0.9381   -0.3049 H   0  0  0  0  0  0  0  0  0  0  0  0
  2  1  2  0
  3  1  1  0
  4  1  1  0
  5  3  1  0
  6  5  1  0
  7  2  1  0
  8  4  1  0
  9  6  2  0
 10  6  1  0
 11  9  1  0
 12 10  2  0
 13 12  1  0
 11 13  2  0
 15 14  2  0
 16 14  2  0
 17 14  1  0
 18 14  1  0
 20 19  2  0
 21 19  1  0
 22 19  1  0
 23 21  1  0
 24 23  1  0
 25 20  1  0
 26 22  1  0
 27 24  2  0
 28 24  1  0
 29 27  1  0
 30 28  2  0
 31 30  1  0
 29 31  2  0
  3 32  1  0
  4 33  1  0
  5 34  1  0
  5 35  1  0
  7 36  1  0
  7 37  1  0
  7 38  1  0
  8 39  1  0
  8 40  1  0
  8 41  1  0
  9 42  1  0
 10 43  1  0
 11 44  1  0
 12 45  1  0
 13 46  1  0
 17 47  1  0
 18 48  1  0
 21 49  1  0
 22 50  1  0
 23 51  1  0
 23 52  1  0
 25 53  1  0
 25 54  1  0
 25 55  1  0
 26 56  1  0
 26 57  1  0
 26 58  1  0
 27 59  1  0
 28 60  1  0
 29 61  1  0
 30 62  1  0
 31 63  1  0
M  END
$$$$
