
     RDKit          3D

 31 30  0  0  0  0  0  0  0  0999 V2000
    1.8876   -0.1831   -0.2452 C   0  0  0  0  0  0  0  0  0  0  0  0
    1.3558   -0.4872    0.8899 N   0  0  0  0  0  0  0  0  0  0  0  0
    1.1635   -0.4593   -1.4386 N   0  0  0  0  0  0  0  0  0  0  0  0
    3.1758    0.4144   -0.2329 N   0  0  0  0  0  0  0  0  0  0  0  0
   -0.0968   -1.1196   -1.4824 C   0  0  0  0  0  0  0  0  0  0  0  0
   -1.1904   -0.4599   -0.7530 C   0  0  0  0  0  0  0  0  0  0  0  0
    2.0472   -0.2299    2.1561 C   0  0  0  0  0  0  0  0  0  0  0  0
    3.6963    1.0961    0.9617 C   0  0  0  0  0  0  0  0  0  0  0  0
   -1.4174   -0.7619    0.5715 C   0  0  0  0  0  0  0  0  0  0  0  0
   -1.9613    0.4579   -1.4491 C   0  0  0  0  0  0  0  0  0  0  0  0
   -2.4479   -0.1274    1.2244 C   0  0  0  0  0  0  0  0  0  0  0  0
   -2.9807    1.0715   -0.7655 C   0  0  0  0  0  0  0  0  0  0  0  0
   -3.2318    0.7885    0.5632 C   0  0  0  0  0  0  0  0  0  0  0  0
   -0.0084    0.0420   -0.0157 S   0  0  0  0  0  0  0  0  0  0  0  0
   -0.1369    1.2736   -0.8619 O   0  0  0  0  0  0  0  0  0  0  0  0
    0.0083    0.4349    1.4368 O   0  0  0  0  0  0  0  0  0  0  0  0
    1.4397   -0.7651   -0.3124 O   0  0  0  0  0  0  0  0  0  0  0  0
   -1.3028   -0.9855   -0.2467 O   0  0  0  0  0  0  0  0  0  0  0  0
    2.1381    0.1707   -0.0417 C   0  0  0  0  0  0  0  0  0  0  0  0
    2.7142   -0.9360   -0.3421 N   0  0  0  0  0  0  0  0  0  0  0  0
    0.7191    0.2311    0.0367 N   0  0  0  0  0  0  0  0  0  0  0  0
    2.9202    1.3390    0.2132 N   0  0  0  0  0  0  0  0  0  0  0  0
   -0.0436   -0.6621   -0.8444 C   0  0  0  0  0  0  0  0  0  0  0  0
   -1.4676   -0.3623   -0.5271 C   0  0  0  0  0  0  0  0  0  0  0  0
    4.1778   -0.9679   -0.4155 C   0  0  0  0  0  0  0  0  0  0  0  0
    4.3482    1.2083    0.2388 C   0  0  0  0  0  0  0  0  0  0  0  0
   -2.1764   -1.0269    0.4513 C   0  0  0  0  0  0  0  0  0  0  0  0
   -2.1798    0.6265   -1.2142 C   0  0  0  0  0  0  0  0  0  0  0  0
   -3.4916   -0.7517    0.7461 C   0  0  0  0  0  0  0  0  0  0  0  0
   -3.4912    0.9067   -0.9260 C   0  0  0  0  0  0  0  0  0  0  0  0
   -4.1674    0.2245    0.0560 C   0  0  0  0  0  0  0  0  0  0  0  0
  2  1  2  0
  3  1  1  0
  4  1  1  0
  5  3  1  0
  6  5  1  0
  7  2  1  0
  8  4  1  0
  9  6  2  0
 10  6  1  0
 11  9  1  0
 12 10  2  0
 13 12  1  0
 11 13  2  0
 15 14  2  0
 16 14  2  0
 17 14  1  0
 18 14  1  0
 20 19  2  0
 21 19  1  0
 22 19  1  0
 23 21  1  0
 24 23  1  0
 25 20  1  0
 26 22  1  0
 27 24  2  0
 28 24  1  0
 29 27  1  0
 30 28  2  0
 31 30  1  0
 29 31  2  0
M  END
