
     RDKit          3D

 63 62  0  0  0  0  0  0  0  0999 V2000
    1.6823    0.3500    0.1480 C   0  0  0  0  0  0  0  0  0  0  0  0
    1.9929    1.5179   -0.2693 N   0  0  0  0  0  0  0  0  0  0  0  0
    0.3835   -0.0793    0.0969 N   0  0  0  0  0  0  0  0  0  0  0  0
    2.4085   -0.6715    0.6936 N   0  0  0  0  0  0  0  0  0  0  0  0
   -0.6745    0.8210   -0.3294 C   0  0  0  0  0  0  0  0  0  0  0  0
   -1.9975    0.0942   -0.2656 C   0  0  0  0  0  0  0  0  0  0  0  0
    3.3364    2.0421   -0.1889 C   0  0  0  0  0  0  0  0  0  0  0  0
    3.8424   -0.8141    0.6346 C   0  0  0  0  0  0  0  0  0  0  0  0
   -2.8866    0.3166    0.7957 C   0  0  0  0  0  0  0  0  0  0  0  0
   -2.3391   -0.8419   -1.2531 C   0  0  0  0  0  0  0  0  0  0  0  0
   -4.0991   -0.3724    0.8585 C   0  0  0  0  0  0  0  0  0  0  0  0
   -3.5516   -1.5297   -1.1882 C   0  0  0  0  0  0  0  0  0  0  0  0
   -4.4315   -1.2935   -0.1336 C   0  0  0  0  0  0  0  0  0  0  0  0
    0.0216    0.4525    0.0460 S   0  0  0  0  0  0  0  0  0  0  0  0
    0.5447    1.2215   -1.0542 O   0  0  0  0  0  0  0  0  0  0  0  0
   -0.4376    1.0306    1.2831 O   0  0  0  0  0  0  0  0  0  0  0  0
    1.1258   -0.6602    0.3871 O   0  0  0  0  0  0  0  0  0  0  0  0
   -1.1786   -0.4607   -0.5008 O   0  0  0  0  0  0  0  0  0  0  0  0
    1.7192    0.1035    0.0598 C   0  0  0  0  0  0  0  0  0  0  0  0
    2.2531    0.3620   -1.0728 N   0  0  0  0  0  0  0  0  0  0  0  0
    0.3606   -0.0217    0.1709 N   0  0  0  0  0  0  0  0  0  0  0  0
    2.2314   -0.0902    1.3123 N   0  0  0  0  0  0  0  0  0  0  0  0
   -0.5000    0.2429   -0.9697 C   0  0  0  0  0  0  0  0  0  0  0  0
   -1.9406    0.0513   -0.5569 C   0  0  0  0  0  0  0  0  0  0  0  0
    3.6745    0.5583   -1.2372 C   0  0  0  0  0  0  0  0  0  0  0  0
    3.6076   -0.3864    1.6256 C   0  0  0  0  0  0  0  0  0  0  0  0
   -2.7618    1.1558   -0.2876 C   0  0  0  0  0  0  0  0  0  0  0  0
   -2.4672   -1.2399   -0.4034 C   0  0  0  0  0  0  0  0  0  0  0  0
   -4.0867    0.9711    0.1117 C   0  0  0  0  0  0  0  0  0  0  0  0
   -3.7918   -1.4222   -0.0039 C   0  0  0  0  0  0  0  0  0  0  0  0
   -4.6011   -0.3168    0.2519 C   0  0  0  0  0  0  0  0  0  0  0  0
    0.1180   -0.5957    0.9263 H   0  0  0  0  0  0  0  0  0  0  0  0
    1.9473   -1.5575    0.5169 H   0  0  0  0  0  0  0  0  0  0  0  0
   -0.5021    1.1659   -1.3563 H   0  0  0  0  0  0  0  0  0  0  0  0
   -0.7047    1.7086    0.3143 H   0  0  0  0  0  0  0  0  0  0  0  0
    3.7108    2.0477    0.8388 H   0  0  0  0  0  0  0  0  0  0  0  0
    3.3289    3.0846   -0.5242 H   0  0  0  0  0  0  0  0  0  0  0  0
    4.0240    1.5044   -0.8473 H   0  0  0  0  0  0  0  0  0  0  0  0
    4.3469   -0.0522    1.2333 H   0  0  0  0  0  0  0  0  0  0  0  0
    4.1261   -1.7860    1.0513 H   0  0  0  0  0  0  0  0  0  0  0  0
    4.2011   -0.7803   -0.3982 H   0  0  0  0  0  0  0  0  0  0  0  0
   -2.6401    1.0300    1.5793 H   0  0  0  0  0  0  0  0  0  0  0  0
   -1.6536   -1.0385   -2.0752 H   0  0  0  0  0  0  0  0  0  0  0  0
   -4.7849   -0.1907    1.6820 H   0  0  0  0  0  0  0  0  0  0  0  0
   -3.8080   -2.2508   -1.9599 H   0  0  0  0  0  0  0  0  0  0  0  0
   -5.3759   -1.8290   -0.0838 H   0  0  0  0  0  0  0  0  0  0  0  0
    1.6241   -0.8352   -0.4381 H   0  0  0  0  0  0  0  0  0  0  0  0
   -1.7000   -0.7486    0.2770 H   0  0  0  0  0  0  0  0  0  0  0  0
    0.0036    0.4134    1.0125 H   0  0  0  0  0  0  0  0  0  0  0  0
    1.6016   -0.6680    1.8586 H   0  0  0  0  0  0  0  0  0  0  0  0
   -0.2692   -0.4381   -1.7981 H   0  0  0  0  0  0  0  0  0  0  0  0
   -0.3490    1.2663   -1.3343 H   0  0  0  0  0  0  0  0  0  0  0  0
    3.8723    0.8541   -2.2728 H   0  0  0  0  0  0  0  0  0  0  0  0
    4.0501    1.3676   -0.6045 H   0  0  0  0  0  0  0  0  0  0  0  0
    4.2365   -0.3627   -1.0599 H   0  0  0  0  0  0  0  0  0  0  0  0
    3.9580   -1.2652    1.0766 H   0  0  0  0  0  0  0  0  0  0  0  0
    3.6951   -0.6078    2.6943 H   0  0  0  0  0  0  0  0  0  0  0  0
    4.2583    0.4676    1.4238 H   0  0  0  0  0  0  0  0  0  0  0  0
   -2.3739    2.1671   -0.3894 H   0  0  0  0  0  0  0  0  0  0  0  0
   -1.8392   -2.1084   -0.5928 H   0  0  0  0  0  0  0  0  0  0  0  0
   -4.7179    1.8326    0.3138 H   0  0  0  0  0  0  0  0  0  0  0  0
   -4.1908   -2.4268    0.1092 H   0  0  0  0  0  0  0  0  0  0  0  0
   -5.6329   -0.4593    0.5625 H   0  0  0  0  0  0  0  0  0  0  0  0
  2  1  2  0
  3  1  1  0
  4  1  1  0
  5  3  1  0
  6  5  1  0
  7  2  1  0
  8  4  1  0
  9  6  2  0
 10  6  1  0
 11  9  1  0
 12 10  2  0
 13 12  1  0
 11 13  2  0
 15 14  2  0
 16 14  2  0
 17 14  1  0
 18 14  1  0
 20 19  2  0
 21 19  1  0
 22 19  1  0
 23 21  1  0
 24 23  1  0
 25 20  1  0
 26 22  1  0
 27 24  2  0
 28 24  1  0
 29 27  1  0
 30 28  2  0
 31 30  1  0
 29 31  2  0
  3 32  1  0
  4 33  1  0
  5 34  1  0
  5 35  1  0
  7 36  1  0
  7 37  1  0
  7 38  1  0
  8 39  1  0
  8 40  1  0
  8 41  1  0
  9 42  1  0
 10 43  1  0
 11 44  1  0
 12 45  1  0
 13 46  1  0
 17 47  1  0
 18 48  1  0
 21 49  1  0
 22 50  1  0
 23 51  1  0
 23 52  1  0
 25 53  1  0
 25 54  1  0
 25 55  1  0
 26 56  1  0
 26 57  1  0
 26 58  1  0
 27 59  1  0
 28 60  1  0
 29 61  1  0
 30 62  1  0
 31 63  1  0
M  END
$$$$
