
     RDKit          3D

 63 62  0  0  0  0  0  0  0  0999 V2000
    1.8353   -0.1860   -0.1725 C   0  0  0  0  0  0  0  0  0  0  0  0
    2.4593    0.0773   -1.2652 N   0  0  0  0  0  0  0  0  0  0  0  0
    0.4843   -0.1164   -0.0846 N   0  0  0  0  0  0  0  0  0  0  0  0
    2.3636   -0.6077    1.0197 N   0  0  0  0  0  0  0  0  0  0  0  0
   -0.3405    0.5199   -1.0828 C   0  0  0  0  0  0  0  0  0  0  0  0
   -1.7912    0.1812   -0.8251 C   0  0  0  0  0  0  0  0  0  0  0  0
    3.9057   -0.0304   -1.3242 C   0  0  0  0  0  0  0  0  0  0  0  0
    2.5145    0.3614    2.1009 C   0  0  0  0  0  0  0  0  0  0  0  0
   -2.6758    1.1355   -0.2966 C   0  0  0  0  0  0  0  0  0  0  0  0
   -2.2673   -1.1103   -1.0964 C   0  0  0  0  0  0  0  0  0  0  0  0
   -4.0113    0.8026   -0.0550 C   0  0  0  0  0  0  0  0  0  0  0  0
   -3.6014   -1.4410   -0.8557 C   0  0  0  0  0  0  0  0  0  0  0  0
   -4.4725   -0.4833   -0.3382 C   0  0  0  0  0  0  0  0  0  0  0  0
   -0.2316    0.2041    0.2695 S   0  0  0  0  0  0  0  0  0  0  0  0
    0.3712    0.5603    1.5271 O   0  0  0  0  0  0  0  0  0  0  0  0
   -1.6150    0.4498   -0.0562 O   0  0  0  0  0  0  0  0  0  0  0  0
    0.0195   -1.3594    0.0139 O   0  0  0  0  0  0  0  0  0  0  0  0
    0.6809    0.8679   -0.8716 O   0  0  0  0  0  0  0  0  0  0  0  0
    1.6950    0.1094   -0.3107 C   0  0  0  0  0  0  0  0  0  0  0  0
    2.1406   -0.9755   -0.8261 N   0  0  0  0  0  0  0  0  0  0  0  0
    0.3535    0.2907   -0.1151 N   0  0  0  0  0  0  0  0  0  0  0  0
    2.3212    1.2413    0.1348 N   0  0  0  0  0  0  0  0  0  0  0  0
   -0.6088   -0.7235   -0.5251 C   0  0  0  0  0  0  0  0  0  0  0  0
   -1.9596   -0.3997    0.0725 C   0  0  0  0  0  0  0  0  0  0  0  0
    3.5428   -1.1522   -1.1226 C   0  0  0  0  0  0  0  0  0  0  0  0
    3.6574    1.2783    0.6831 C   0  0  0  0  0  0  0  0  0  0  0  0
   -3.0877   -0.2336   -0.7409 C   0  0  0  0  0  0  0  0  0  0  0  0
   -2.1064   -0.2903    1.4663 C   0  0  0  0  0  0  0  0  0  0  0  0
   -4.3315    0.0496   -0.1714 C   0  0  0  0  0  0  0  0  0  0  0  0
   -3.3497   -0.0097    2.0323 C   0  0  0  0  0  0  0  0  0  0  0  0
   -4.4595    0.1684    1.2119 C   0  0  0  0  0  0  0  0  0  0  0  0
    0.0953   -0.1676    0.8423 H   0  0  0  0  0  0  0  0  0  0  0  0
    3.2715   -1.0313    0.8713 H   0  0  0  0  0  0  0  0  0  0  0  0
   -0.1931    1.6072   -1.0437 H   0  0  0  0  0  0  0  0  0  0  0  0
   -0.0732    0.1907   -2.0968 H   0  0  0  0  0  0  0  0  0  0  0  0
    4.2760   -0.9762   -0.9187 H   0  0  0  0  0  0  0  0  0  0  0  0
    4.3811    0.8042   -0.7990 H   0  0  0  0  0  0  0  0  0  0  0  0
    4.2214    0.0028   -2.3695 H   0  0  0  0  0  0  0  0  0  0  0  0
    1.6302    0.9980    2.2188 H   0  0  0  0  0  0  0  0  0  0  0  0
    2.6810   -0.1705    3.0428 H   0  0  0  0  0  0  0  0  0  0  0  0
    3.3854    1.0016    1.9111 H   0  0  0  0  0  0  0  0  0  0  0  0
   -2.3297    2.1419   -0.0634 H   0  0  0  0  0  0  0  0  0  0  0  0
   -1.5868   -1.8623   -1.4955 H   0  0  0  0  0  0  0  0  0  0  0  0
   -4.6922    1.5460    0.3520 H   0  0  0  0  0  0  0  0  0  0  0  0
   -3.9590   -2.4448   -1.0659 H   0  0  0  0  0  0  0  0  0  0  0  0
   -5.5104   -0.7425   -0.1499 H   0  0  0  0  0  0  0  0  0  0  0  0
   -0.7962   -1.7187   -0.3942 H   0  0  0  0  0  0  0  0  0  0  0  0
    1.5711    0.9961   -0.4886 H   0  0  0  0  0  0  0  0  0  0  0  0
    0.0349    1.2131   -0.3834 H   0  0  0  0  0  0  0  0  0  0  0  0
    1.6849    1.8178    0.6647 H   0  0  0  0  0  0  0  0  0  0  0  0
   -0.3119   -1.7205   -0.1765 H   0  0  0  0  0  0  0  0  0  0  0  0
   -0.6668   -0.7482   -1.6200 H   0  0  0  0  0  0  0  0  0  0  0  0
    4.1206   -1.3443   -0.2147 H   0  0  0  0  0  0  0  0  0  0  0  0
    3.9606   -0.3003   -1.6658 H   0  0  0  0  0  0  0  0  0  0  0  0
    3.6615   -2.0246   -1.7707 H   0  0  0  0  0  0  0  0  0  0  0  0
    4.4131    1.2231   -0.1067 H   0  0  0  0  0  0  0  0  0  0  0  0
    3.8053    2.2292    1.2035 H   0  0  0  0  0  0  0  0  0  0  0  0
    3.8243    0.4751    1.4104 H   0  0  0  0  0  0  0  0  0  0  0  0
   -3.0107   -0.3378   -1.8203 H   0  0  0  0  0  0  0  0  0  0  0  0
   -1.2433   -0.4419    2.1172 H   0  0  0  0  0  0  0  0  0  0  0  0
   -5.2031    0.1674   -0.8053 H   0  0  0  0  0  0  0  0  0  0  0  0
   -3.4500    0.0592    3.1138 H   0  0  0  0  0  0  0  0  0  0  0  0
   -5.4268    0.3795    1.6560 H   0  0  0  0  0  0  0  0  0  0  0  0
  2  1  2  0
  3  1  1  0
  4  1  1  0
  5  3  1  0
  6  5  1  0
  7  2  1  0
  8  4  1  0
  9  6  2  0
 10  6  1  0
 11  9  1  0
 12 10  2  0
 13 12  1  0
 11 13  2  0
 15 14  2  0
 16 14  2  0
 17 14  1  0
 18 14  1  0
 20 19  2  0
 21 19  1  0
 22 19  1  0
 23 21  1  0
 24 23  1  0
 25 20  1  0
 26 22  1  0
 27 24  2  0
 28 24  1  0
 29 27  1  0
 30 28  2  0
 31 30  1  0
 29 31  2  0
  3 32  1  0
  4 33  1  0
  5 34  1  0
  5 35  1  0
  7 36  1  0
  7 37  1  0
  7 38  1  0
  8 39  1  0
  8 40  1  0
  8 41  1  0
  9 42  1  0
 10 43  1  0
 11 44  1  0
 12 45  1  0
 13 46  1  0
 17 47  1  0
 18 48  1  0
 21 49  1  0
 22 50  1  0
 23 51  1  0
 23 52  1  0
 25 53  1  0
 25 54  1  0
 25 55  1  0
 26 56  1  0
 26 57  1  0
 26 58  1  0
 27 59  1  0
 28 60  1  0
 29 61  1  0
 30 62  1  0
 31 63  1  0
M  END
$$$$
