
     RDKit          3D

 54 57  0  0  0  0  0  0  0  0999 V2000
   44.8521    4.5931   10.1700 C   0  0  0  0  0  0  0  0  0  0  0  0
   44.4363    3.3759   10.7463 C   0  0  0  0  0  0  0  0  0  0  0  0
   44.4109    2.2046   10.0739 N   0  0  0  0  0  0  0  0  0  0  0  0
   44.8378    5.7643   10.9727 C   0  0  0  0  0  0  0  0  0  0  0  0
   44.0296    3.3758   12.0784 C   0  0  0  0  0  0  0  0  0  0  0  0
   44.4223    5.7243   12.3076 C   0  0  0  0  0  0  0  0  0  0  0  0
   44.0145    4.5201   12.8662 C   0  0  0  0  0  0  0  0  0  0  0  0
   45.3318    7.3028   10.3476 Cl  0  0  0  0  0  0  0  0  0  0  0  0
   43.6215    2.1955   12.6536 O   0  0  0  0  0  0  0  0  0  0  0  0
   45.2550    4.5414    8.8170 C   0  0  0  0  0  0  0  0  0  0  0  0
   44.8059    2.2095    8.7828 C   0  0  0  0  0  0  0  0  0  0  0  0
   45.2322    3.3401    8.1164 C   0  0  0  0  0  0  0  0  0  0  0  0
   44.4131    3.3304   10.4355 C   0  0  0  0  0  0  0  0  0  0  0  0
   43.7251    3.0735   11.6289 C   0  0  0  0  0  0  0  0  0  0  0  0
   45.0079    4.6030   10.2668 C   0  0  0  0  0  0  0  0  0  0  0  0
   43.6173    4.0348   12.6385 C   0  0  0  0  0  0  0  0  0  0  0  0
   44.8875    5.5650   11.3025 C   0  0  0  0  0  0  0  0  0  0  0  0
   44.1972    5.2828   12.4798 C   0  0  0  0  0  0  0  0  0  0  0  0
   44.4980    2.3775    9.4796 N   0  0  0  0  0  0  0  0  0  0  0  0
   43.1407    1.8353   11.8048 O   0  0  0  0  0  0  0  0  0  0  0  0
   42.7622    3.6854   14.0965 Cl  0  0  0  0  0  0  0  0  0  0  0  0
   45.5876    7.1459   11.1720 Cl  0  0  0  0  0  0  0  0  0  0  0  0
   45.6957    4.8349    9.0536 C   0  0  0  0  0  0  0  0  0  0  0  0
   45.1642    2.6433    8.3382 C   0  0  0  0  0  0  0  0  0  0  0  0
   45.7759    3.8481    8.0794 C   0  0  0  0  0  0  0  0  0  0  0  0
   45.5037    4.8524    9.4294 C   0  0  0  0  0  0  0  0  0  0  0  0
   44.8351    4.5839   10.6216 C   0  0  0  0  0  0  0  0  0  0  0  0
   45.5891    3.9065    8.4065 C   0  0  0  0  0  0  0  0  0  0  0  0
   44.7858    5.5391   11.5754 N   0  0  0  0  0  0  0  0  0  0  0  0
   44.2347    3.3177   10.7816 C   0  0  0  0  0  0  0  0  0  0  0  0
   44.9941    2.6573    8.5702 C   0  0  0  0  0  0  0  0  0  0  0  0
   44.3177    2.3613    9.7545 C   0  0  0  0  0  0  0  0  0  0  0  0
   46.0867    6.0935    9.2842 O   0  0  0  0  0  0  0  0  0  0  0  0
   46.4175    4.2417    6.9316 Cl  0  0  0  0  0  0  0  0  0  0  0  0
   44.1298    5.2487   12.7212 C   0  0  0  0  0  0  0  0  0  0  0  0
   43.5650    3.0588   11.9845 C   0  0  0  0  0  0  0  0  0  0  0  0
   43.5107    4.0378   12.9701 C   0  0  0  0  0  0  0  0  0  0  0  0
   44.4152    6.6269   12.9134 H   0  0  0  0  0  0  0  0  0  0  0  0
   43.6883    4.4671   13.9006 H   0  0  0  0  0  0  0  0  0  0  0  0
   43.7123    1.5370   11.9312 H   0  0  0  0  0  0  0  0  0  0  0  0
   45.5895    5.4376    8.2996 H   0  0  0  0  0  0  0  0  0  0  0  0
   44.7690    1.2459    8.2819 H   0  0  0  0  0  0  0  0  0  0  0  0
   45.5397    3.2915    7.0777 H   0  0  0  0  0  0  0  0  0  0  0  0
   44.1143    6.0311   13.2636 H   0  0  0  0  0  0  0  0  0  0  0  0
   42.7090    1.8243   12.6772 H   0  0  0  0  0  0  0  0  0  0  0  0
   46.1771    5.7898    8.8553 H   0  0  0  0  0  0  0  0  0  0  0  0
   45.1899    1.8304    7.6182 H   0  0  0  0  0  0  0  0  0  0  0  0
   46.3013    4.0182    7.1467 H   0  0  0  0  0  0  0  0  0  0  0  0
   45.0535    1.9120    7.7811 H   0  0  0  0  0  0  0  0  0  0  0  0
   43.8570    1.3825    9.8710 H   0  0  0  0  0  0  0  0  0  0  0  0
   45.8853    6.5557   10.1259 H   0  0  0  0  0  0  0  0  0  0  0  0
   44.1148    6.0452   13.4605 H   0  0  0  0  0  0  0  0  0  0  0  0
   43.0851    2.0990   12.1588 H   0  0  0  0  0  0  0  0  0  0  0  0
   42.9981    3.8599   13.9090 H   0  0  0  0  0  0  0  0  0  0  0  0
  2  1  1  0
  3  2  2  0
  4  1  1  0
  5  2  1  0
  6  4  2  0
  7  6  1  0
  8  4  1  0
  9  5  1  0
 10  1  2  0
 11 12  2  0
 12 10  1  0
 11  3  1  0
  7  5  2  0
 14 13  2  0
 15 13  1  0
 16 14  1  0
 17 15  2  0
 18 17  1  0
 19 13  1  0
 20 14  1  0
 21 16  1  0
 22 17  1  0
 23 15  1  0
 24 19  2  0
 25 23  2  0
 16 18  2  0
 24 25  1  0
 27 26  2  0
 28 26  1  0
 29 27  1  0
 30 27  1  0
 31 28  2  0
 32 31  1  0
 33 26  1  0
 34 28  1  0
 35 29  2  0
 36 30  1  0
 37 36  2  0
 32 30  2  0
 35 37  1  0
  6 38  1  0
  7 39  1  0
  9 40  1  0
 10 41  1  0
 11 42  1  0
 12 43  1  0
 18 44  1  0
 20 45  1  0
 23 46  1  0
 24 47  1  0
 25 48  1  0
 31 49  1  0
 32 50  1  0
 33 51  1  0
 35 52  1  0
 36 53  1  0
 37 54  1  0
M  END
> <Uni-Dock RESULT> 
ENERGY=  -11.148  LOWER_BOUND=    0.000  UPPER_BOUND=    0.000
INTER + INTRA:         -11.148
INTER:                 -11.148
INTRA:                   0.000
UNBOUND:                 0.000

$$$$

     RDKit          3D

 54 57  0  0  0  0  0  0  0  0999 V2000
   45.2937    5.6143   12.5861 C   0  0  0  0  0  0  0  0  0  0  0  0
   44.5534    6.7345   12.1573 C   0  0  0  0  0  0  0  0  0  0  0  0
   43.3461    6.6435   11.5583 N   0  0  0  0  0  0  0  0  0  0  0  0
   46.5534    5.8293   13.2049 C   0  0  0  0  0  0  0  0  0  0  0  0
   45.0906    8.0034   12.3600 C   0  0  0  0  0  0  0  0  0  0  0  0
   47.0599    7.1197   13.3910 C   0  0  0  0  0  0  0  0  0  0  0  0
   46.3228    8.2169   12.9651 C   0  0  0  0  0  0  0  0  0  0  0  0
   47.5308    4.5119   13.7625 Cl  0  0  0  0  0  0  0  0  0  0  0  0
   44.3793    9.1052   11.9468 O   0  0  0  0  0  0  0  0  0  0  0  0
   44.7067    4.3497   12.3583 C   0  0  0  0  0  0  0  0  0  0  0  0
   42.8293    5.4114   11.3639 C   0  0  0  0  0  0  0  0  0  0  0  0
   43.4640    4.2461   11.7422 C   0  0  0  0  0  0  0  0  0  0  0  0
   44.4342    6.4919   11.9956 C   0  0  0  0  0  0  0  0  0  0  0  0
   44.8166    7.8298   11.8299 C   0  0  0  0  0  0  0  0  0  0  0  0
   45.2691    5.6478   12.7649 C   0  0  0  0  0  0  0  0  0  0  0  0
   45.9878    8.3372   12.4008 C   0  0  0  0  0  0  0  0  0  0  0  0
   46.4532    6.1811   13.3360 C   0  0  0  0  0  0  0  0  0  0  0  0
   46.8098    7.5162   13.1552 C   0  0  0  0  0  0  0  0  0  0  0  0
   43.2946    6.0342   11.4292 N   0  0  0  0  0  0  0  0  0  0  0  0
   44.0097    8.6628   11.0812 O   0  0  0  0  0  0  0  0  0  0  0  0
   46.4295    9.9905   12.1767 Cl  0  0  0  0  0  0  0  0  0  0  0  0
   47.5281    5.2121   14.2911 Cl  0  0  0  0  0  0  0  0  0  0  0  0
   44.8593    4.3032   12.9159 C   0  0  0  0  0  0  0  0  0  0  0  0
   42.9432    4.7439   11.5999 C   0  0  0  0  0  0  0  0  0  0  0  0
   43.6866    3.8449   12.3293 C   0  0  0  0  0  0  0  0  0  0  0  0
   45.0563    4.6767   12.9101 C   0  0  0  0  0  0  0  0  0  0  0  0
   45.4207    6.0126   12.7578 C   0  0  0  0  0  0  0  0  0  0  0  0
   43.9036    4.1582   12.3179 C   0  0  0  0  0  0  0  0  0  0  0  0
   46.5478    6.4571   13.3549 N   0  0  0  0  0  0  0  0  0  0  0  0
   44.5910    6.8483   11.9815 C   0  0  0  0  0  0  0  0  0  0  0  0
   43.0877    4.9885   11.5521 C   0  0  0  0  0  0  0  0  0  0  0  0
   43.4288    6.3311   11.3829 C   0  0  0  0  0  0  0  0  0  0  0  0
   45.8750    3.8693   13.6711 O   0  0  0  0  0  0  0  0  0  0  0  0
   43.4550    2.5039   12.5081 Cl  0  0  0  0  0  0  0  0  0  0  0  0
   46.8749    7.7582   13.1888 C   0  0  0  0  0  0  0  0  0  0  0  0
   44.9672    8.1897   11.8353 C   0  0  0  0  0  0  0  0  0  0  0  0
   46.1263    8.6533   12.4474 C   0  0  0  0  0  0  0  0  0  0  0  0
   48.0256    7.2732   13.8660 H   0  0  0  0  0  0  0  0  0  0  0  0
   46.6977    9.2271   13.1000 H   0  0  0  0  0  0  0  0  0  0  0  0
   43.5616    8.7261   11.5576 H   0  0  0  0  0  0  0  0  0  0  0  0
   45.2142    3.4363   12.6598 H   0  0  0  0  0  0  0  0  0  0  0  0
   41.8572    5.3865   10.8790 H   0  0  0  0  0  0  0  0  0  0  0  0
   43.0062    3.2795   11.5636 H   0  0  0  0  0  0  0  0  0  0  0  0
   47.7205    7.9090   13.5996 H   0  0  0  0  0  0  0  0  0  0  0  0
   44.4164    9.5472   11.0668 H   0  0  0  0  0  0  0  0  0  0  0  0
   45.4518    3.5976   13.4939 H   0  0  0  0  0  0  0  0  0  0  0  0
   42.0164    4.4496   11.1160 H   0  0  0  0  0  0  0  0  0  0  0  0
   43.3657    2.8156   12.4402 H   0  0  0  0  0  0  0  0  0  0  0  0
   42.1873    4.5967   11.0857 H   0  0  0  0  0  0  0  0  0  0  0  0
   42.7841    6.9698   10.7827 H   0  0  0  0  0  0  0  0  0  0  0  0
   46.5976    4.4647   13.9642 H   0  0  0  0  0  0  0  0  0  0  0  0
   47.7886    8.0729   13.6861 H   0  0  0  0  0  0  0  0  0  0  0  0
   44.3631    8.8762   11.2474 H   0  0  0  0  0  0  0  0  0  0  0  0
   46.4372    9.6875   12.3481 H   0  0  0  0  0  0  0  0  0  0  0  0
  2  1  1  0
  3  2  2  0
  4  1  1  0
  5  2  1  0
  6  4  2  0
  7  6  1  0
  8  4  1  0
  9  5  1  0
 10  1  2  0
 11 12  2  0
 12 10  1  0
 11  3  1  0
  7  5  2  0
 14 13  2  0
 15 13  1  0
 16 14  1  0
 17 15  2  0
 18 17  1  0
 19 13  1  0
 20 14  1  0
 21 16  1  0
 22 17  1  0
 23 15  1  0
 24 19  2  0
 25 23  2  0
 16 18  2  0
 24 25  1  0
 27 26  2  0
 28 26  1  0
 29 27  1  0
 30 27  1  0
 31 28  2  0
 32 31  1  0
 33 26  1  0
 34 28  1  0
 35 29  2  0
 36 30  1  0
 37 36  2  0
 32 30  2  0
 35 37  1  0
  6 38  1  0
  7 39  1  0
  9 40  1  0
 10 41  1  0
 11 42  1  0
 12 43  1  0
 18 44  1  0
 20 45  1  0
 23 46  1  0
 24 47  1  0
 25 48  1  0
 31 49  1  0
 32 50  1  0
 33 51  1  0
 35 52  1  0
 36 53  1  0
 37 54  1  0
M  END
> <Uni-Dock RESULT> 
ENERGY=  -10.421  LOWER_BOUND=    2.924  UPPER_BOUND=    4.492
INTER + INTRA:         -10.421
INTER:                 -10.421
INTRA:                   0.000
UNBOUND:                 0.000

$$$$

     RDKit          3D

 54 57  0  0  0  0  0  0  0  0999 V2000
   45.1007    6.4573   12.2399 C   0  0  0  0  0  0  0  0  0  0  0  0
   45.4290    5.1854   12.7510 C   0  0  0  0  0  0  0  0  0  0  0  0
   46.5753    4.9241   13.4162 N   0  0  0  0  0  0  0  0  0  0  0  0
   43.8663    6.6165   11.5563 C   0  0  0  0  0  0  0  0  0  0  0  0
   44.5276    4.1404   12.5628 C   0  0  0  0  0  0  0  0  0  0  0  0
   42.9866    5.5423   11.3871 C   0  0  0  0  0  0  0  0  0  0  0  0
   43.3193    4.2931   11.8943 C   0  0  0  0  0  0  0  0  0  0  0  0
   43.3814    8.1429   10.8958 Cl  0  0  0  0  0  0  0  0  0  0  0  0
   44.8349    2.8943   13.0560 O   0  0  0  0  0  0  0  0  0  0  0  0
   46.0468    7.4838   12.4563 C   0  0  0  0  0  0  0  0  0  0  0  0
   47.4461    5.9401   13.5963 C   0  0  0  0  0  0  0  0  0  0  0  0
   47.2298    7.2243   13.1401 C   0  0  0  0  0  0  0  0  0  0  0  0
   45.7035    5.3390   12.7336 C   0  0  0  0  0  0  0  0  0  0  0  0
   45.1408    4.0807   12.4811 C   0  0  0  0  0  0  0  0  0  0  0  0
   44.9668    6.4881   12.3617 C   0  0  0  0  0  0  0  0  0  0  0  0
   43.8866    3.9422   11.8789 C   0  0  0  0  0  0  0  0  0  0  0  0
   43.6960    6.3271   11.7519 C   0  0  0  0  0  0  0  0  0  0  0  0
   43.1599    5.0631   11.5123 C   0  0  0  0  0  0  0  0  0  0  0  0
   46.9192    5.4365   13.3179 N   0  0  0  0  0  0  0  0  0  0  0  0
   45.8505    2.9523   12.8397 O   0  0  0  0  0  0  0  0  0  0  0  0
   43.2227    2.3769   11.5820 Cl  0  0  0  0  0  0  0  0  0  0  0  0
   42.7322    7.6846   11.2675 Cl  0  0  0  0  0  0  0  0  0  0  0  0
   45.5580    7.7444   12.6281 C   0  0  0  0  0  0  0  0  0  0  0  0
   47.4441    6.6558   13.5528 C   0  0  0  0  0  0  0  0  0  0  0  0
   46.8074    7.8316   13.2288 C   0  0  0  0  0  0  0  0  0  0  0  0
   45.3209    7.4174   12.5048 C   0  0  0  0  0  0  0  0  0  0  0  0
   44.7586    6.1639   12.2744 C   0  0  0  0  0  0  0  0  0  0  0  0
   46.5852    7.5605   13.0788 C   0  0  0  0  0  0  0  0  0  0  0  0
   43.5312    6.0883   11.7157 N   0  0  0  0  0  0  0  0  0  0  0  0
   45.5008    5.0206   12.6371 C   0  0  0  0  0  0  0  0  0  0  0  0
   47.3137    6.4275   13.4352 C   0  0  0  0  0  0  0  0  0  0  0  0
   46.7746    5.1591   13.2157 C   0  0  0  0  0  0  0  0  0  0  0  0
   44.5863    8.5277   12.1461 O   0  0  0  0  0  0  0  0  0  0  0  0
   47.2788    9.1137   13.3629 Cl  0  0  0  0  0  0  0  0  0  0  0  0
   43.0122    4.8580   11.5047 C   0  0  0  0  0  0  0  0  0  0  0  0
   44.9254    3.7654   12.4008 C   0  0  0  0  0  0  0  0  0  0  0  0
   43.6624    3.6809   11.8260 C   0  0  0  0  0  0  0  0  0  0  0  0
   42.0440    5.6750   10.8621 H   0  0  0  0  0  0  0  0  0  0  0  0
   42.6505    3.4461   11.7740 H   0  0  0  0  0  0  0  0  0  0  0  0
   45.7124    3.0175   13.4787 H   0  0  0  0  0  0  0  0  0  0  0  0
   45.8680    8.4933   12.0932 H   0  0  0  0  0  0  0  0  0  0  0  0
   48.3537    5.6840   14.1362 H   0  0  0  0  0  0  0  0  0  0  0  0
   47.9614    8.0063   13.3106 H   0  0  0  0  0  0  0  0  0  0  0  0
   42.1848    4.9572   11.0441 H   0  0  0  0  0  0  0  0  0  0  0  0
   45.3224    2.1714   12.5968 H   0  0  0  0  0  0  0  0  0  0  0  0
   45.0491    8.6701   12.3694 H   0  0  0  0  0  0  0  0  0  0  0  0
   48.4226    6.6546   14.0243 H   0  0  0  0  0  0  0  0  0  0  0  0
   47.2674    8.7908   13.4362 H   0  0  0  0  0  0  0  0  0  0  0  0
   48.2994    6.5257   13.8830 H   0  0  0  0  0  0  0  0  0  0  0  0
   47.3527    4.2817   13.4979 H   0  0  0  0  0  0  0  0  0  0  0  0
   43.7561    8.1593   11.7751 H   0  0  0  0  0  0  0  0  0  0  0  0
   42.0235    4.8439   11.0536 H   0  0  0  0  0  0  0  0  0  0  0  0
   45.4551    2.8524   12.6616 H   0  0  0  0  0  0  0  0  0  0  0  0
   43.1973    2.7203   11.6338 H   0  0  0  0  0  0  0  0  0  0  0  0
  2  1  1  0
  3  2  2  0
  4  1  1  0
  5  2  1  0
  6  4  2  0
  7  6  1  0
  8  4  1  0
  9  5  1  0
 10  1  2  0
 11 12  2  0
 12 10  1  0
 11  3  1  0
  7  5  2  0
 14 13  2  0
 15 13  1  0
 16 14  1  0
 17 15  2  0
 18 17  1  0
 19 13  1  0
 20 14  1  0
 21 16  1  0
 22 17  1  0
 23 15  1  0
 24 19  2  0
 25 23  2  0
 16 18  2  0
 24 25  1  0
 27 26  2  0
 28 26  1  0
 29 27  1  0
 30 27  1  0
 31 28  2  0
 32 31  1  0
 33 26  1  0
 34 28  1  0
 35 29  2  0
 36 30  1  0
 37 36  2  0
 32 30  2  0
 35 37  1  0
  6 38  1  0
  7 39  1  0
  9 40  1  0
 10 41  1  0
 11 42  1  0
 12 43  1  0
 18 44  1  0
 20 45  1  0
 23 46  1  0
 24 47  1  0
 25 48  1  0
 31 49  1  0
 32 50  1  0
 33 51  1  0
 35 52  1  0
 36 53  1  0
 37 54  1  0
M  END
> <Uni-Dock RESULT> 
ENERGY=  -10.089  LOWER_BOUND=    2.731  UPPER_BOUND=    3.984
INTER + INTRA:         -10.089
INTER:                 -10.089
INTRA:                   0.000
UNBOUND:                 0.000

$$$$

     RDKit          3D

 54 57  0  0  0  0  0  0  0  0999 V2000
   45.6841    6.0613   12.8425 C   0  0  0  0  0  0  0  0  0  0  0  0
   44.6941    5.9563   11.8447 C   0  0  0  0  0  0  0  0  0  0  0  0
   44.1502    7.0240   11.2210 N   0  0  0  0  0  0  0  0  0  0  0  0
   46.1846    4.8696   13.4304 C   0  0  0  0  0  0  0  0  0  0  0  0
   44.2505    4.6877   11.4792 C   0  0  0  0  0  0  0  0  0  0  0  0
   45.7137    3.6128   13.0366 C   0  0  0  0  0  0  0  0  0  0  0  0
   44.7382    3.5200   12.0526 C   0  0  0  0  0  0  0  0  0  0  0  0
   47.4013    4.9038   14.6632 Cl  0  0  0  0  0  0  0  0  0  0  0  0
   43.2852    4.5704   10.5071 O   0  0  0  0  0  0  0  0  0  0  0  0
   46.1007    7.3688   13.1780 C   0  0  0  0  0  0  0  0  0  0  0  0
   44.5834    8.2519   11.5785 C   0  0  0  0  0  0  0  0  0  0  0  0
   45.5465    8.4742   12.5413 C   0  0  0  0  0  0  0  0  0  0  0  0
   44.6726    6.2527   11.9492 C   0  0  0  0  0  0  0  0  0  0  0  0
   43.8684    5.1690   11.5716 C   0  0  0  0  0  0  0  0  0  0  0  0
   45.8183    5.9929   12.7375 C   0  0  0  0  0  0  0  0  0  0  0  0
   44.1720    3.8585   11.9528 C   0  0  0  0  0  0  0  0  0  0  0  0
   46.1096    4.6565   13.1142 C   0  0  0  0  0  0  0  0  0  0  0  0
   45.2923    3.5970   12.7245 C   0  0  0  0  0  0  0  0  0  0  0  0
   44.3495    7.5078   11.5629 N   0  0  0  0  0  0  0  0  0  0  0  0
   42.7479    5.4104   10.8023 O   0  0  0  0  0  0  0  0  0  0  0  0
   43.1598    2.5464   11.4703 Cl  0  0  0  0  0  0  0  0  0  0  0  0
   47.4938    4.2562   14.0786 Cl  0  0  0  0  0  0  0  0  0  0  0  0
   46.6115    7.1043   13.1040 C   0  0  0  0  0  0  0  0  0  0  0  0
   45.1354    8.5376   11.9360 C   0  0  0  0  0  0  0  0  0  0  0  0
   46.2692    8.3887   12.7010 C   0  0  0  0  0  0  0  0  0  0  0  0
   46.4275    6.7279   13.0505 C   0  0  0  0  0  0  0  0  0  0  0  0
   45.6347    5.6528   12.6553 C   0  0  0  0  0  0  0  0  0  0  0  0
   46.1126    8.0411   12.6973 C   0  0  0  0  0  0  0  0  0  0  0  0
   45.9901    4.4041   13.0277 N   0  0  0  0  0  0  0  0  0  0  0  0
   44.4877    5.9172   11.8782 C   0  0  0  0  0  0  0  0  0  0  0  0
   44.9783    8.2962   11.9294 C   0  0  0  0  0  0  0  0  0  0  0  0
   44.1660    7.2380   11.5196 C   0  0  0  0  0  0  0  0  0  0  0  0
   47.5461    6.4574   13.8099 O   0  0  0  0  0  0  0  0  0  0  0  0
   47.0959    9.3702   13.1881 Cl  0  0  0  0  0  0  0  0  0  0  0  0
   45.2009    3.3816   12.6288 C   0  0  0  0  0  0  0  0  0  0  0  0
   43.6980    4.8285   11.4865 C   0  0  0  0  0  0  0  0  0  0  0  0
   44.0585    3.5407   11.8666 C   0  0  0  0  0  0  0  0  0  0  0  0
   46.1038    2.7066   13.4932 H   0  0  0  0  0  0  0  0  0  0  0  0
   44.3591    2.5542   11.7323 H   0  0  0  0  0  0  0  0  0  0  0  0
   43.0941    5.4986   10.2509 H   0  0  0  0  0  0  0  0  0  0  0  0
   46.8605    7.5347   13.9382 H   0  0  0  0  0  0  0  0  0  0  0  0
   44.1184    9.0804   11.0510 H   0  0  0  0  0  0  0  0  0  0  0  0
   45.8605    9.4812   12.7926 H   0  0  0  0  0  0  0  0  0  0  0  0
   45.5296    2.5790   13.0217 H   0  0  0  0  0  0  0  0  0  0  0  0
   42.3077    4.5592   10.6313 H   0  0  0  0  0  0  0  0  0  0  0  0
   47.5067    6.9795   13.7090 H   0  0  0  0  0  0  0  0  0  0  0  0
   44.8126    9.5147   11.5884 H   0  0  0  0  0  0  0  0  0  0  0  0
   46.8720    9.2458   12.9779 H   0  0  0  0  0  0  0  0  0  0  0  0
   44.7222    9.3145   11.6478 H   0  0  0  0  0  0  0  0  0  0  0  0
   43.2828    7.4494   10.9204 H   0  0  0  0  0  0  0  0  0  0  0  0
   47.5378    5.4819   13.9144 H   0  0  0  0  0  0  0  0  0  0  0  0
   45.5238    2.3949   12.9505 H   0  0  0  0  0  0  0  0  0  0  0  0
   42.8033    4.9771   10.8869 H   0  0  0  0  0  0  0  0  0  0  0  0
   43.4625    2.6829   11.5751 H   0  0  0  0  0  0  0  0  0  0  0  0
  2  1  1  0
  3  2  2  0
  4  1  1  0
  5  2  1  0
  6  4  2  0
  7  6  1  0
  8  4  1  0
  9  5  1  0
 10  1  2  0
 11 12  2  0
 12 10  1  0
 11  3  1  0
  7  5  2  0
 14 13  2  0
 15 13  1  0
 16 14  1  0
 17 15  2  0
 18 17  1  0
 19 13  1  0
 20 14  1  0
 21 16  1  0
 22 17  1  0
 23 15  1  0
 24 19  2  0
 25 23  2  0
 16 18  2  0
 24 25  1  0
 27 26  2  0
 28 26  1  0
 29 27  1  0
 30 27  1  0
 31 28  2  0
 32 31  1  0
 33 26  1  0
 34 28  1  0
 35 29  2  0
 36 30  1  0
 37 36  2  0
 32 30  2  0
 35 37  1  0
  6 38  1  0
  7 39  1  0
  9 40  1  0
 10 41  1  0
 11 42  1  0
 12 43  1  0
 18 44  1  0
 20 45  1  0
 23 46  1  0
 24 47  1  0
 25 48  1  0
 31 49  1  0
 32 50  1  0
 33 51  1  0
 35 52  1  0
 36 53  1  0
 37 54  1  0
M  END
> <Uni-Dock RESULT> 
ENERGY=   -9.674  LOWER_BOUND=    2.669  UPPER_BOUND=    4.287
INTER + INTRA:          -9.674
INTER:                  -9.674
INTRA:                   0.000
UNBOUND:                 0.000

$$$$

     RDKit          3D

 54 57  0  0  0  0  0  0  0  0999 V2000
   45.2116    6.6815   12.2223 C   0  0  0  0  0  0  0  0  0  0  0  0
   46.2391    6.6491   13.1866 C   0  0  0  0  0  0  0  0  0  0  0  0
   46.9382    7.7410   13.5660 N   0  0  0  0  0  0  0  0  0  0  0  0
   44.5433    5.4706   11.9012 C   0  0  0  0  0  0  0  0  0  0  0  0
   46.5534    5.4300   13.7824 C   0  0  0  0  0  0  0  0  0  0  0  0
   44.8876    4.2651   12.5214 C   0  0  0  0  0  0  0  0  0  0  0  0
   45.9013    4.2437   13.4703 C   0  0  0  0  0  0  0  0  0  0  0  0
   43.2691    5.4170   10.7286 Cl  0  0  0  0  0  0  0  0  0  0  0  0
   47.5535    5.3837   14.7248 O   0  0  0  0  0  0  0  0  0  0  0  0
   44.9303    7.9409   11.6473 C   0  0  0  0  0  0  0  0  0  0  0  0
   46.6300    8.9206   12.9858 C   0  0  0  0  0  0  0  0  0  0  0  0
   45.6448    9.0706   12.0314 C   0  0  0  0  0  0  0  0  0  0  0  0
   46.2886    6.9146   13.0244 C   0  0  0  0  0  0  0  0  0  0  0  0
   46.9826    5.8328   13.5829 C   0  0  0  0  0  0  0  0  0  0  0  0
   45.0767    6.6521   12.3433 C   0  0  0  0  0  0  0  0  0  0  0  0
   46.5077    4.5216   13.4813 C   0  0  0  0  0  0  0  0  0  0  0  0
   44.6113    5.3151   12.2508 C   0  0  0  0  0  0  0  0  0  0  0  0
   45.3218    4.2576   12.8158 C   0  0  0  0  0  0  0  0  0  0  0  0
   46.7768    8.1703   13.1415 N   0  0  0  0  0  0  0  0  0  0  0  0
   48.1663    6.0768   14.2498 O   0  0  0  0  0  0  0  0  0  0  0  0
   47.3877    3.2119   14.1808 Cl  0  0  0  0  0  0  0  0  0  0  0  0
   43.1364    4.9117   11.4334 Cl  0  0  0  0  0  0  0  0  0  0  0  0
   44.3975    7.7617   11.7899 C   0  0  0  0  0  0  0  0  0  0  0  0
   46.0949    9.1982   12.5976 C   0  0  0  0  0  0  0  0  0  0  0  0
   44.9090    9.0468   11.9168 C   0  0  0  0  0  0  0  0  0  0  0  0
   44.5396    7.3828   11.9110 C   0  0  0  0  0  0  0  0  0  0  0  0
   45.2242    6.3142   12.4854 C   0  0  0  0  0  0  0  0  0  0  0  0
   45.0243    8.6897   11.9843 C   0  0  0  0  0  0  0  0  0  0  0  0
   44.7057    5.0713   12.3818 N   0  0  0  0  0  0  0  0  0  0  0  0
   46.4373    6.5787   13.1545 C   0  0  0  0  0  0  0  0  0  0  0  0
   46.2232    8.9451   12.6468 C   0  0  0  0  0  0  0  0  0  0  0  0
   46.9300    7.8933   13.2314 C   0  0  0  0  0  0  0  0  0  0  0  0
   43.3548    7.1122   11.2594 O   0  0  0  0  0  0  0  0  0  0  0  0
   44.1745   10.0107   11.2723 Cl  0  0  0  0  0  0  0  0  0  0  0  0
   45.3930    4.0551   12.9494 C   0  0  0  0  0  0  0  0  0  0  0  0
   47.1171    5.4966   13.7283 C   0  0  0  0  0  0  0  0  0  0  0  0
   46.5886    4.2149   13.6251 C   0  0  0  0  0  0  0  0  0  0  0  0
   44.3694    3.3436   12.2682 H   0  0  0  0  0  0  0  0  0  0  0  0
   46.1841    3.3185   13.9636 H   0  0  0  0  0  0  0  0  0  0  0  0
   47.8653    6.3127   14.7841 H   0  0  0  0  0  0  0  0  0  0  0  0
   44.1519    8.0499   10.8956 H   0  0  0  0  0  0  0  0  0  0  0  0
   47.2176    9.7709   13.3213 H   0  0  0  0  0  0  0  0  0  0  0  0
   45.4353   10.0410   11.5953 H   0  0  0  0  0  0  0  0  0  0  0  0
   44.9514    3.2390   12.7359 H   0  0  0  0  0  0  0  0  0  0  0  0
   48.5143    5.2266   14.5720 H   0  0  0  0  0  0  0  0  0  0  0  0
   43.4602    7.6348   11.2528 H   0  0  0  0  0  0  0  0  0  0  0  0
   46.5482   10.1761   12.7321 H   0  0  0  0  0  0  0  0  0  0  0  0
   44.3943    9.9025   11.4952 H   0  0  0  0  0  0  0  0  0  0  0  0
   46.6113    9.9585   12.7108 H   0  0  0  0  0  0  0  0  0  0  0  0
   47.8650    8.1048   13.7459 H   0  0  0  0  0  0  0  0  0  0  0  0
   43.2441    6.1417   11.3514 H   0  0  0  0  0  0  0  0  0  0  0  0
   44.9399    3.0730   12.8421 H   0  0  0  0  0  0  0  0  0  0  0  0
   48.0563    5.6456   14.2553 H   0  0  0  0  0  0  0  0  0  0  0  0
   47.0972    3.3622   14.0613 H   0  0  0  0  0  0  0  0  0  0  0  0
  2  1  1  0
  3  2  2  0
  4  1  1  0
  5  2  1  0
  6  4  2  0
  7  6  1  0
  8  4  1  0
  9  5  1  0
 10  1  2  0
 11 12  2  0
 12 10  1  0
 11  3  1  0
  7  5  2  0
 14 13  2  0
 15 13  1  0
 16 14  1  0
 17 15  2  0
 18 17  1  0
 19 13  1  0
 20 14  1  0
 21 16  1  0
 22 17  1  0
 23 15  1  0
 24 19  2  0
 25 23  2  0
 16 18  2  0
 24 25  1  0
 27 26  2  0
 28 26  1  0
 29 27  1  0
 30 27  1  0
 31 28  2  0
 32 31  1  0
 33 26  1  0
 34 28  1  0
 35 29  2  0
 36 30  1  0
 37 36  2  0
 32 30  2  0
 35 37  1  0
  6 38  1  0
  7 39  1  0
  9 40  1  0
 10 41  1  0
 11 42  1  0
 12 43  1  0
 18 44  1  0
 20 45  1  0
 23 46  1  0
 24 47  1  0
 25 48  1  0
 31 49  1  0
 32 50  1  0
 33 51  1  0
 35 52  1  0
 36 53  1  0
 37 54  1  0
M  END
> <Uni-Dock RESULT> 
ENERGY=   -9.518  LOWER_BOUND=    3.023  UPPER_BOUND=    4.885
INTER + INTRA:          -9.518
INTER:                  -9.518
INTRA:                   0.000
UNBOUND:                 0.000

$$$$

     RDKit          3D

 54 57  0  0  0  0  0  0  0  0999 V2000
   47.0138    7.0983   12.9484 C   0  0  0  0  0  0  0  0  0  0  0  0
   45.7292    7.6345   12.7265 C   0  0  0  0  0  0  0  0  0  0  0  0
   44.6067    6.8841   12.6852 N   0  0  0  0  0  0  0  0  0  0  0  0
   48.1241    7.9830   12.9714 C   0  0  0  0  0  0  0  0  0  0  0  0
   45.6059    9.0092   12.5395 C   0  0  0  0  0  0  0  0  0  0  0  0
   47.9601    9.3587   12.7794 C   0  0  0  0  0  0  0  0  0  0  0  0
   46.6904    9.8772   12.5614 C   0  0  0  0  0  0  0  0  0  0  0  0
   49.7381    7.4120   13.2374 Cl  0  0  0  0  0  0  0  0  0  0  0  0
   44.3589    9.5459   12.3220 O   0  0  0  0  0  0  0  0  0  0  0  0
   47.0866    5.6996   13.1324 C   0  0  0  0  0  0  0  0  0  0  0  0
   44.7311    5.5520   12.8670 C   0  0  0  0  0  0  0  0  0  0  0  0
   45.9363    4.9188   13.0915 C   0  0  0  0  0  0  0  0  0  0  0  0
   45.7022    7.3283   12.6575 C   0  0  0  0  0  0  0  0  0  0  0  0
   45.3076    8.5896   12.1915 C   0  0  0  0  0  0  0  0  0  0  0  0
   47.0312    7.1704   13.1164 C   0  0  0  0  0  0  0  0  0  0  0  0
   46.1875    9.6760   12.1720 C   0  0  0  0  0  0  0  0  0  0  0  0
   47.9090    8.2846   13.0887 C   0  0  0  0  0  0  0  0  0  0  0  0
   47.4900    9.5284   12.6199 C   0  0  0  0  0  0  0  0  0  0  0  0
   44.8251    6.2990   12.6624 N   0  0  0  0  0  0  0  0  0  0  0  0
   44.0132    8.7556   11.7412 O   0  0  0  0  0  0  0  0  0  0  0  0
   45.6686   11.2163   11.5912 Cl  0  0  0  0  0  0  0  0  0  0  0  0
   49.5512    8.1723   13.6333 Cl  0  0  0  0  0  0  0  0  0  0  0  0
   47.4023    5.8878   13.5809 C   0  0  0  0  0  0  0  0  0  0  0  0
   45.2232    5.0930   13.1145 C   0  0  0  0  0  0  0  0  0  0  0  0
   46.4923    4.8384   13.5810 C   0  0  0  0  0  0  0  0  0  0  0  0
   47.3780    6.2889   13.4508 C   0  0  0  0  0  0  0  0  0  0  0  0
   46.9737    7.5450   13.0047 C   0  0  0  0  0  0  0  0  0  0  0  0
   46.5122    5.1940   13.4449 C   0  0  0  0  0  0  0  0  0  0  0  0
   47.8563    8.5670   13.0342 N   0  0  0  0  0  0  0  0  0  0  0  0
   45.6511    7.6957   12.5383 C   0  0  0  0  0  0  0  0  0  0  0  0
   45.2068    5.3488   12.9832 C   0  0  0  0  0  0  0  0  0  0  0  0
   44.7749    6.5962   12.5302 C   0  0  0  0  0  0  0  0  0  0  0  0
   48.6731    6.1535   13.9044 O   0  0  0  0  0  0  0  0  0  0  0  0
   47.0157    3.6400   13.9979 Cl  0  0  0  0  0  0  0  0  0  0  0  0
   47.4344    9.7738   12.5948 C   0  0  0  0  0  0  0  0  0  0  0  0
   45.2555    8.9633   12.0921 C   0  0  0  0  0  0  0  0  0  0  0  0
   46.1593   10.0193   12.1200 C   0  0  0  0  0  0  0  0  0  0  0  0
   48.8171   10.0273   12.7989 H   0  0  0  0  0  0  0  0  0  0  0  0
   46.5412   10.9421   12.4102 H   0  0  0  0  0  0  0  0  0  0  0  0
   43.7596    8.7687   12.3472 H   0  0  0  0  0  0  0  0  0  0  0  0
   48.0410    5.2087   13.3088 H   0  0  0  0  0  0  0  0  0  0  0  0
   43.8028    4.9888   12.8256 H   0  0  0  0  0  0  0  0  0  0  0  0
   45.9832    3.8445   13.2317 H   0  0  0  0  0  0  0  0  0  0  0  0
   48.1752   10.3718   12.6053 H   0  0  0  0  0  0  0  0  0  0  0  0
   43.9068    9.6805   11.4568 H   0  0  0  0  0  0  0  0  0  0  0  0
   48.4073    5.6933   13.9484 H   0  0  0  0  0  0  0  0  0  0  0  0
   44.4646    4.3161   13.0880 H   0  0  0  0  0  0  0  0  0  0  0  0
   46.7691    3.8523   13.9354 H   0  0  0  0  0  0  0  0  0  0  0  0
   44.5229    4.5039   12.9735 H   0  0  0  0  0  0  0  0  0  0  0  0
   43.7534    6.7051   12.1719 H   0  0  0  0  0  0  0  0  0  0  0  0
   49.0595    7.0498   13.8049 H   0  0  0  0  0  0  0  0  0  0  0  0
   48.1764   10.5668   12.6363 H   0  0  0  0  0  0  0  0  0  0  0  0
   44.2472    9.1336   11.7226 H   0  0  0  0  0  0  0  0  0  0  0  0
   45.8754   11.0090   11.7796 H   0  0  0  0  0  0  0  0  0  0  0  0
  2  1  1  0
  3  2  2  0
  4  1  1  0
  5  2  1  0
  6  4  2  0
  7  6  1  0
  8  4  1  0
  9  5  1  0
 10  1  2  0
 11 12  2  0
 12 10  1  0
 11  3  1  0
  7  5  2  0
 14 13  2  0
 15 13  1  0
 16 14  1  0
 17 15  2  0
 18 17  1  0
 19 13  1  0
 20 14  1  0
 21 16  1  0
 22 17  1  0
 23 15  1  0
 24 19  2  0
 25 23  2  0
 16 18  2  0
 24 25  1  0
 27 26  2  0
 28 26  1  0
 29 27  1  0
 30 27  1  0
 31 28  2  0
 32 31  1  0
 33 26  1  0
 34 28  1  0
 35 29  2  0
 36 30  1  0
 37 36  2  0
 32 30  2  0
 35 37  1  0
  6 38  1  0
  7 39  1  0
  9 40  1  0
 10 41  1  0
 11 42  1  0
 12 43  1  0
 18 44  1  0
 20 45  1  0
 23 46  1  0
 24 47  1  0
 25 48  1  0
 31 49  1  0
 32 50  1  0
 33 51  1  0
 35 52  1  0
 36 53  1  0
 37 54  1  0
M  END
> <Uni-Dock RESULT> 
ENERGY=   -9.220  LOWER_BOUND=    3.950  UPPER_BOUND=    5.506
INTER + INTRA:          -9.220
INTER:                  -9.220
INTRA:                   0.000
UNBOUND:                 0.000

$$$$

     RDKit          3D

 54 57  0  0  0  0  0  0  0  0999 V2000
   45.4665    6.4950   12.6909 C   0  0  0  0  0  0  0  0  0  0  0  0
   46.3468    7.5859   12.8376 C   0  0  0  0  0  0  0  0  0  0  0  0
   47.5141    7.5144   13.5137 N   0  0  0  0  0  0  0  0  0  0  0  0
   44.2653    6.6855   11.9580 C   0  0  0  0  0  0  0  0  0  0  0  0
   45.9994    8.8033   12.2569 C   0  0  0  0  0  0  0  0  0  0  0  0
   43.9509    7.9241   11.3892 C   0  0  0  0  0  0  0  0  0  0  0  0
   44.8249    8.9928   11.5395 C   0  0  0  0  0  0  0  0  0  0  0  0
   43.1257    5.4011   11.7275 Cl  0  0  0  0  0  0  0  0  0  0  0  0
   46.8487    9.8760   12.3921 O   0  0  0  0  0  0  0  0  0  0  0  0
   45.8633    5.2825   13.2976 C   0  0  0  0  0  0  0  0  0  0  0  0
   47.8468    6.3323   14.0750 C   0  0  0  0  0  0  0  0  0  0  0  0
   47.0634    5.1992   13.9958 C   0  0  0  0  0  0  0  0  0  0  0  0
   46.4266    7.3860   13.0676 C   0  0  0  0  0  0  0  0  0  0  0  0
   46.2329    8.7535   12.8306 C   0  0  0  0  0  0  0  0  0  0  0  0
   45.4999    6.4729   12.5117 C   0  0  0  0  0  0  0  0  0  0  0  0
   45.1596    9.2241   12.0682 C   0  0  0  0  0  0  0  0  0  0  0  0
   44.4174    6.9697   11.7410 C   0  0  0  0  0  0  0  0  0  0  0  0
   44.2486    8.3356   11.5209 C   0  0  0  0  0  0  0  0  0  0  0  0
   47.4759    6.9654   13.8099 N   0  0  0  0  0  0  0  0  0  0  0  0
   47.1308    9.6539   13.3681 O   0  0  0  0  0  0  0  0  0  0  0  0
   44.9504   10.9156   11.7957 Cl  0  0  0  0  0  0  0  0  0  0  0  0
   43.2403    5.9161   11.0265 Cl  0  0  0  0  0  0  0  0  0  0  0  0
   45.7194    5.0997   12.7664 C   0  0  0  0  0  0  0  0  0  0  0  0
   47.6456    5.6457   14.0269 C   0  0  0  0  0  0  0  0  0  0  0  0
   46.8009    4.6800   13.5303 C   0  0  0  0  0  0  0  0  0  0  0  0
   45.5770    5.4816   12.6557 C   0  0  0  0  0  0  0  0  0  0  0  0
   45.4013    6.8410   12.4075 C   0  0  0  0  0  0  0  0  0  0  0  0
   46.6301    5.0088   13.4405 C   0  0  0  0  0  0  0  0  0  0  0  0
   44.3633    7.2389   11.6403 N   0  0  0  0  0  0  0  0  0  0  0  0
   46.3213    7.7488   12.9722 C   0  0  0  0  0  0  0  0  0  0  0  0
   47.5359    5.9102   13.9956 C   0  0  0  0  0  0  0  0  0  0  0  0
   47.3838    7.2779   13.7634 C   0  0  0  0  0  0  0  0  0  0  0  0
   44.6714    4.6036   12.0986 O   0  0  0  0  0  0  0  0  0  0  0  0
   46.8451    3.3252   13.7461 Cl  0  0  0  0  0  0  0  0  0  0  0  0
   44.2192    8.5644   11.4174 C   0  0  0  0  0  0  0  0  0  0  0  0
   46.1348    9.1133   12.7159 C   0  0  0  0  0  0  0  0  0  0  0  0
   45.0683    9.5291   11.9269 C   0  0  0  0  0  0  0  0  0  0  0  0
   43.0285    8.0592   10.8300 H   0  0  0  0  0  0  0  0  0  0  0  0
   44.5998    9.9626   11.1058 H   0  0  0  0  0  0  0  0  0  0  0  0
   47.5949    9.5211   12.9223 H   0  0  0  0  0  0  0  0  0  0  0  0
   45.2395    4.3942   13.2302 H   0  0  0  0  0  0  0  0  0  0  0  0
   48.7935    6.3213   14.6084 H   0  0  0  0  0  0  0  0  0  0  0  0
   47.3756    4.2725   14.4645 H   0  0  0  0  0  0  0  0  0  0  0  0
   43.4137    8.6997   10.9281 H   0  0  0  0  0  0  0  0  0  0  0  0
   46.8528   10.5505   13.1105 H   0  0  0  0  0  0  0  0  0  0  0  0
   45.0476    4.3414   12.3708 H   0  0  0  0  0  0  0  0  0  0  0  0
   48.5094    5.3842   14.6313 H   0  0  0  0  0  0  0  0  0  0  0  0
   46.9758    3.6292   13.7302 H   0  0  0  0  0  0  0  0  0  0  0  0
   48.3603    5.5546   14.6087 H   0  0  0  0  0  0  0  0  0  0  0  0
   48.0973    7.9723   14.2021 H   0  0  0  0  0  0  0  0  0  0  0  0
   44.0475    5.1791   11.6065 H   0  0  0  0  0  0  0  0  0  0  0  0
   43.3715    8.8397   10.7954 H   0  0  0  0  0  0  0  0  0  0  0  0
   46.8153    9.8549   13.1271 H   0  0  0  0  0  0  0  0  0  0  0  0
   44.9042   10.5800   11.7152 H   0  0  0  0  0  0  0  0  0  0  0  0
  2  1  1  0
  3  2  2  0
  4  1  1  0
  5  2  1  0
  6  4  2  0
  7  6  1  0
  8  4  1  0
  9  5  1  0
 10  1  2  0
 11 12  2  0
 12 10  1  0
 11  3  1  0
  7  5  2  0
 14 13  2  0
 15 13  1  0
 16 14  1  0
 17 15  2  0
 18 17  1  0
 19 13  1  0
 20 14  1  0
 21 16  1  0
 22 17  1  0
 23 15  1  0
 24 19  2  0
 25 23  2  0
 16 18  2  0
 24 25  1  0
 27 26  2  0
 28 26  1  0
 29 27  1  0
 30 27  1  0
 31 28  2  0
 32 31  1  0
 33 26  1  0
 34 28  1  0
 35 29  2  0
 36 30  1  0
 37 36  2  0
 32 30  2  0
 35 37  1  0
  6 38  1  0
  7 39  1  0
  9 40  1  0
 10 41  1  0
 11 42  1  0
 12 43  1  0
 18 44  1  0
 20 45  1  0
 23 46  1  0
 24 47  1  0
 25 48  1  0
 31 49  1  0
 32 50  1  0
 33 51  1  0
 35 52  1  0
 36 53  1  0
 37 54  1  0
M  END
> <Uni-Dock RESULT> 
ENERGY=   -9.034  LOWER_BOUND=    3.449  UPPER_BOUND=    5.402
INTER + INTRA:          -9.034
INTER:                  -9.034
INTRA:                   0.000
UNBOUND:                 0.000

$$$$

     RDKit          3D

 54 57  0  0  0  0  0  0  0  0999 V2000
   45.0657    6.6232   12.6739 C   0  0  0  0  0  0  0  0  0  0  0  0
   45.9504    5.6011   13.0731 C   0  0  0  0  0  0  0  0  0  0  0  0
   45.5805    4.3093   13.2126 N   0  0  0  0  0  0  0  0  0  0  0  0
   45.5652    7.9475   12.5604 C   0  0  0  0  0  0  0  0  0  0  0  0
   47.2761    5.9355   13.3386 C   0  0  0  0  0  0  0  0  0  0  0  0
   46.9040    8.2444   12.8359 C   0  0  0  0  0  0  0  0  0  0  0  0
   47.7676    7.2302   13.2284 C   0  0  0  0  0  0  0  0  0  0  0  0
   44.5499    9.2653   12.0765 Cl  0  0  0  0  0  0  0  0  0  0  0  0
   48.1502    4.9485   13.7289 O   0  0  0  0  0  0  0  0  0  0  0  0
   43.7324    6.2338   12.4163 C   0  0  0  0  0  0  0  0  0  0  0  0
   44.2944    3.9898   12.9541 C   0  0  0  0  0  0  0  0  0  0  0  0
   43.3422    4.9062   12.5573 C   0  0  0  0  0  0  0  0  0  0  0  0
   45.6627    5.4860   13.1302 C   0  0  0  0  0  0  0  0  0  0  0  0
   46.9413    5.5562   13.6994 C   0  0  0  0  0  0  0  0  0  0  0  0
   45.1426    6.6457   12.5087 C   0  0  0  0  0  0  0  0  0  0  0  0
   47.6993    6.7306   13.6652 C   0  0  0  0  0  0  0  0  0  0  0  0
   45.9268    7.8276   12.4842 C   0  0  0  0  0  0  0  0  0  0  0  0
   47.1961    7.8696   13.0583 C   0  0  0  0  0  0  0  0  0  0  0  0
   44.9568    4.3337   13.1813 N   0  0  0  0  0  0  0  0  0  0  0  0
   47.4592    4.4309   14.3086 O   0  0  0  0  0  0  0  0  0  0  0  0
   49.2711    6.7826   14.3764 Cl  0  0  0  0  0  0  0  0  0  0  0  0
   45.3607    9.2890   11.7424 Cl  0  0  0  0  0  0  0  0  0  0  0  0
   43.8508    6.5467   11.9427 C   0  0  0  0  0  0  0  0  0  0  0  0
   43.7284    4.2856   12.6280 C   0  0  0  0  0  0  0  0  0  0  0  0
   43.1356    5.3575   12.0016 C   0  0  0  0  0  0  0  0  0  0  0  0
   44.2278    6.6628   12.0937 C   0  0  0  0  0  0  0  0  0  0  0  0
   45.5062    6.7203   12.6442 C   0  0  0  0  0  0  0  0  0  0  0  0
   43.4554    5.5016   12.1510 C   0  0  0  0  0  0  0  0  0  0  0  0
   46.2063    7.8721   12.5579 N   0  0  0  0  0  0  0  0  0  0  0  0
   46.0169    5.5651   13.2720 C   0  0  0  0  0  0  0  0  0  0  0  0
   43.9652    4.3635   12.7724 C   0  0  0  0  0  0  0  0  0  0  0  0
   45.2431    4.3929   13.3325 C   0  0  0  0  0  0  0  0  0  0  0  0
   43.7390    7.7981   11.4826 O   0  0  0  0  0  0  0  0  0  0  0  0
   41.8730    5.4335   11.4685 Cl  0  0  0  0  0  0  0  0  0  0  0  0
   47.4438    7.8968   13.1015 C   0  0  0  0  0  0  0  0  0  0  0  0
   47.3034    5.6344   13.8220 C   0  0  0  0  0  0  0  0  0  0  0  0
   48.0291    6.8172   13.7365 C   0  0  0  0  0  0  0  0  0  0  0  0
   47.2761    9.2618   12.7458 H   0  0  0  0  0  0  0  0  0  0  0  0
   48.8106    7.4393   13.4469 H   0  0  0  0  0  0  0  0  0  0  0  0
   47.5996    4.1358   13.7386 H   0  0  0  0  0  0  0  0  0  0  0  0
   42.9884    6.9630   12.1040 H   0  0  0  0  0  0  0  0  0  0  0  0
   44.0422    2.9402   13.0794 H   0  0  0  0  0  0  0  0  0  0  0  0
   42.3210    4.5988   12.3616 H   0  0  0  0  0  0  0  0  0  0  0  0
   47.7840    8.7832   13.0309 H   0  0  0  0  0  0  0  0  0  0  0  0
   48.3453    4.6494   14.6473 H   0  0  0  0  0  0  0  0  0  0  0  0
   43.3880    7.3981   11.4488 H   0  0  0  0  0  0  0  0  0  0  0  0
   43.2228    3.3276   12.7081 H   0  0  0  0  0  0  0  0  0  0  0  0
   42.1449    5.2736   11.5701 H   0  0  0  0  0  0  0  0  0  0  0  0
   43.3735    3.4530   12.8236 H   0  0  0  0  0  0  0  0  0  0  0  0
   45.6306    3.4981   13.8151 H   0  0  0  0  0  0  0  0  0  0  0  0
   44.4618    8.4547   11.5777 H   0  0  0  0  0  0  0  0  0  0  0  0
   47.9710    8.8427   13.0093 H   0  0  0  0  0  0  0  0  0  0  0  0
   47.7442    4.7726   14.3171 H   0  0  0  0  0  0  0  0  0  0  0  0
   49.0266    6.8941   14.1550 H   0  0  0  0  0  0  0  0  0  0  0  0
  2  1  1  0
  3  2  2  0
  4  1  1  0
  5  2  1  0
  6  4  2  0
  7  6  1  0
  8  4  1  0
  9  5  1  0
 10  1  2  0
 11 12  2  0
 12 10  1  0
 11  3  1  0
  7  5  2  0
 14 13  2  0
 15 13  1  0
 16 14  1  0
 17 15  2  0
 18 17  1  0
 19 13  1  0
 20 14  1  0
 21 16  1  0
 22 17  1  0
 23 15  1  0
 24 19  2  0
 25 23  2  0
 16 18  2  0
 24 25  1  0
 27 26  2  0
 28 26  1  0
 29 27  1  0
 30 27  1  0
 31 28  2  0
 32 31  1  0
 33 26  1  0
 34 28  1  0
 35 29  2  0
 36 30  1  0
 37 36  2  0
 32 30  2  0
 35 37  1  0
  6 38  1  0
  7 39  1  0
  9 40  1  0
 10 41  1  0
 11 42  1  0
 12 43  1  0
 18 44  1  0
 20 45  1  0
 23 46  1  0
 24 47  1  0
 25 48  1  0
 31 49  1  0
 32 50  1  0
 33 51  1  0
 35 52  1  0
 36 53  1  0
 37 54  1  0
M  END
> <Uni-Dock RESULT> 
ENERGY=   -8.875  LOWER_BOUND=    3.298  UPPER_BOUND=    4.328
INTER + INTRA:          -8.875
INTER:                  -8.875
INTRA:                   0.000
UNBOUND:                 0.000

$$$$

     RDKit          3D

 54 57  0  0  0  0  0  0  0  0999 V2000
   45.5376    6.2642   12.7040 C   0  0  0  0  0  0  0  0  0  0  0  0
   46.8324    6.3715   13.2506 C   0  0  0  0  0  0  0  0  0  0  0  0
   47.5133    5.3230   13.7622 N   0  0  0  0  0  0  0  0  0  0  0  0
   44.9167    7.4349   12.1940 C   0  0  0  0  0  0  0  0  0  0  0  0
   47.4458    7.6218   13.2662 C   0  0  0  0  0  0  0  0  0  0  0  0
   45.5653    8.6737   12.2274 C   0  0  0  0  0  0  0  0  0  0  0  0
   46.8409    8.7690   12.7680 C   0  0  0  0  0  0  0  0  0  0  0  0
   43.3279    7.3963   11.5043 Cl  0  0  0  0  0  0  0  0  0  0  0  0
   48.7088    7.7412   13.7964 O   0  0  0  0  0  0  0  0  0  0  0  0
   44.9584    4.9758   12.7111 C   0  0  0  0  0  0  0  0  0  0  0  0
   46.9146    4.1129   13.7449 C   0  0  0  0  0  0  0  0  0  0  0  0
   45.6517    3.8902   13.2357 C   0  0  0  0  0  0  0  0  0  0  0  0
   46.7168    6.1031   13.3682 C   0  0  0  0  0  0  0  0  0  0  0  0
   47.4563    7.2309   13.7491 C   0  0  0  0  0  0  0  0  0  0  0  0
   45.5922    6.2920   12.5309 C   0  0  0  0  0  0  0  0  0  0  0  0
   47.1093    8.5170   13.3244 C   0  0  0  0  0  0  0  0  0  0  0  0
   45.2561    7.6047   12.1105 C   0  0  0  0  0  0  0  0  0  0  0  0
   46.0094    8.7091   12.5045 C   0  0  0  0  0  0  0  0  0  0  0  0
   47.0806    4.8734   13.7975 N   0  0  0  0  0  0  0  0  0  0  0  0
   48.5557    7.0588   14.5660 O   0  0  0  0  0  0  0  0  0  0  0  0
   48.0420    9.8848   13.8124 Cl  0  0  0  0  0  0  0  0  0  0  0  0
   43.8940    7.9189   11.0847 Cl  0  0  0  0  0  0  0  0  0  0  0  0
   44.8646    5.1373   12.1621 C   0  0  0  0  0  0  0  0  0  0  0  0
   46.3568    3.8004   13.4204 C   0  0  0  0  0  0  0  0  0  0  0  0
   45.2483    3.8796   12.6094 C   0  0  0  0  0  0  0  0  0  0  0  0
   45.0148    5.5256   12.2335 C   0  0  0  0  0  0  0  0  0  0  0  0
   45.7656    6.6403   12.5997 C   0  0  0  0  0  0  0  0  0  0  0  0
   45.3397    4.2432   12.6786 C   0  0  0  0  0  0  0  0  0  0  0  0
   45.4024    7.8564   12.1376 N   0  0  0  0  0  0  0  0  0  0  0  0
   46.8799    6.4490   13.4430 C   0  0  0  0  0  0  0  0  0  0  0  0
   46.4416    4.0602   13.5114 C   0  0  0  0  0  0  0  0  0  0  0  0
   47.2116    5.1594   13.8942 C   0  0  0  0  0  0  0  0  0  0  0  0
   43.9277    5.7248   11.4088 O   0  0  0  0  0  0  0  0  0  0  0  0
   44.4083    2.8649   12.2235 Cl  0  0  0  0  0  0  0  0  0  0  0  0
   46.1506    8.9188   12.5104 C   0  0  0  0  0  0  0  0  0  0  0  0
   47.6275    7.5770   13.8048 C   0  0  0  0  0  0  0  0  0  0  0  0
   47.2588    8.8315   13.3324 C   0  0  0  0  0  0  0  0  0  0  0  0
   45.0808    9.5640   11.8341 H   0  0  0  0  0  0  0  0  0  0  0  0
   47.3619    9.7211   12.8035 H   0  0  0  0  0  0  0  0  0  0  0  0
   48.9331    6.8285   14.0800 H   0  0  0  0  0  0  0  0  0  0  0  0
   43.9622    4.8094   12.3076 H   0  0  0  0  0  0  0  0  0  0  0  0
   47.4990    3.2994   14.1664 H   0  0  0  0  0  0  0  0  0  0  0  0
   45.2146    2.8979   13.2451 H   0  0  0  0  0  0  0  0  0  0  0  0
   45.7383    9.7082   12.1735 H   0  0  0  0  0  0  0  0  0  0  0  0
   48.9504    7.9329   14.7323 H   0  0  0  0  0  0  0  0  0  0  0  0
   43.9891    5.2070   11.5206 H   0  0  0  0  0  0  0  0  0  0  0  0
   46.7094    2.8473   13.8039 H   0  0  0  0  0  0  0  0  0  0  0  0
   44.6957    2.9896   12.3312 H   0  0  0  0  0  0  0  0  0  0  0  0
   46.7051    3.0664   13.8648 H   0  0  0  0  0  0  0  0  0  0  0  0
   48.0697    5.0043   14.5448 H   0  0  0  0  0  0  0  0  0  0  0  0
   43.9210    6.6924   11.2466 H   0  0  0  0  0  0  0  0  0  0  0  0
   45.8228    9.8770   12.1159 H   0  0  0  0  0  0  0  0  0  0  0  0
   48.4958    7.4849   14.4527 H   0  0  0  0  0  0  0  0  0  0  0  0
   47.8225    9.7187   13.5992 H   0  0  0  0  0  0  0  0  0  0  0  0
  2  1  1  0
  3  2  2  0
  4  1  1  0
  5  2  1  0
  6  4  2  0
  7  6  1  0
  8  4  1  0
  9  5  1  0
 10  1  2  0
 11 12  2  0
 12 10  1  0
 11  3  1  0
  7  5  2  0
 14 13  2  0
 15 13  1  0
 16 14  1  0
 17 15  2  0
 18 17  1  0
 19 13  1  0
 20 14  1  0
 21 16  1  0
 22 17  1  0
 23 15  1  0
 24 19  2  0
 25 23  2  0
 16 18  2  0
 24 25  1  0
 27 26  2  0
 28 26  1  0
 29 27  1  0
 30 27  1  0
 31 28  2  0
 32 31  1  0
 33 26  1  0
 34 28  1  0
 35 29  2  0
 36 30  1  0
 37 36  2  0
 32 30  2  0
 35 37  1  0
  6 38  1  0
  7 39  1  0
  9 40  1  0
 10 41  1  0
 11 42  1  0
 12 43  1  0
 18 44  1  0
 20 45  1  0
 23 46  1  0
 24 47  1  0
 25 48  1  0
 31 49  1  0
 32 50  1  0
 33 51  1  0
 35 52  1  0
 36 53  1  0
 37 54  1  0
M  END
> <Uni-Dock RESULT> 
ENERGY=   -8.832  LOWER_BOUND=    3.079  UPPER_BOUND=    4.885
INTER + INTRA:          -8.832
INTER:                  -8.832
INTRA:                   0.000
UNBOUND:                 0.000

$$$$
