
     RDKit          3D

 54 57  0  0  0  0  0  0  0  0999 V2000
   45.7994    5.7425   12.7702 C   0  0  0  0  0  0  0  0  0  0  0  0
   44.6100    6.3131   12.2735 C   0  0  0  0  0  0  0  0  0  0  0  0
   44.5244    7.5858   11.8286 N   0  0  0  0  0  0  0  0  0  0  0  0
   45.7724    4.3933   13.2114 C   0  0  0  0  0  0  0  0  0  0  0  0
   43.4605    5.5276   12.2373 C   0  0  0  0  0  0  0  0  0  0  0  0
   44.5977    3.6359   13.1594 C   0  0  0  0  0  0  0  0  0  0  0  0
   43.4312    4.2072   12.6683 C   0  0  0  0  0  0  0  0  0  0  0  0
   47.1865    3.6114   13.8366 Cl  0  0  0  0  0  0  0  0  0  0  0  0
   42.2933    6.0710   11.7552 O   0  0  0  0  0  0  0  0  0  0  0  0
   46.9375    6.5792   12.7864 C   0  0  0  0  0  0  0  0  0  0  0  0
   45.6414    8.3435   11.8655 C   0  0  0  0  0  0  0  0  0  0  0  0
   46.8591    7.8910   12.3304 C   0  0  0  0  0  0  0  0  0  0  0  0
   44.7971    6.4078   12.1688 C   0  0  0  0  0  0  0  0  0  0  0  0
   45.6531    7.4996   12.0476 C   0  0  0  0  0  0  0  0  0  0  0  0
   45.2282    5.2775   12.8935 C   0  0  0  0  0  0  0  0  0  0  0  0
   46.9238    7.5090   12.6212 C   0  0  0  0  0  0  0  0  0  0  0  0
   46.5223    5.2954   13.4736 C   0  0  0  0  0  0  0  0  0  0  0  0
   47.3616    6.4026   13.3376 C   0  0  0  0  0  0  0  0  0  0  0  0
   43.5849    6.4895   11.5793 N   0  0  0  0  0  0  0  0  0  0  0  0
   45.2060    8.5913   11.3337 O   0  0  0  0  0  0  0  0  0  0  0  0
   47.9766    8.8654   12.4657 Cl  0  0  0  0  0  0  0  0  0  0  0  0
   47.1329    3.9513   14.3798 Cl  0  0  0  0  0  0  0  0  0  0  0  0
   44.3172    4.2015   12.9822 C   0  0  0  0  0  0  0  0  0  0  0  0
   42.7503    5.4340   11.6932 C   0  0  0  0  0  0  0  0  0  0  0  0
   43.0672    4.2793   12.3773 C   0  0  0  0  0  0  0  0  0  0  0  0
   45.0634    4.2724   12.3842 C   0  0  0  0  0  0  0  0  0  0  0  0
   45.5611    5.5386   12.6838 C   0  0  0  0  0  0  0  0  0  0  0  0
   43.7938    4.0945   11.8320 C   0  0  0  0  0  0  0  0  0  0  0  0
   46.7972    5.6481   13.2169 N   0  0  0  0  0  0  0  0  0  0  0  0
   44.7466    6.6585   12.4155 C   0  0  0  0  0  0  0  0  0  0  0  0
   42.9937    5.2045   11.5692 C   0  0  0  0  0  0  0  0  0  0  0  0
   43.4670    6.4847   11.8595 C   0  0  0  0  0  0  0  0  0  0  0  0
   45.8685    3.1852   12.6507 O   0  0  0  0  0  0  0  0  0  0  0  0
   43.1804    2.5258   11.4621 Cl  0  0  0  0  0  0  0  0  0  0  0  0
   47.2524    6.8899   13.4969 C   0  0  0  0  0  0  0  0  0  0  0  0
   45.2573    7.9266   12.7209 C   0  0  0  0  0  0  0  0  0  0  0  0
   46.5289    8.0461   13.2699 C   0  0  0  0  0  0  0  0  0  0  0  0
   44.5881    2.6035   13.4999 H   0  0  0  0  0  0  0  0  0  0  0  0
   42.5084    3.6366   12.6194 H   0  0  0  0  0  0  0  0  0  0  0  0
   42.5422    6.9897   11.5145 H   0  0  0  0  0  0  0  0  0  0  0  0
   47.8934    6.2141   13.1546 H   0  0  0  0  0  0  0  0  0  0  0  0
   45.5258    9.3596   11.4980 H   0  0  0  0  0  0  0  0  0  0  0  0
   47.7278    8.5400   12.3394 H   0  0  0  0  0  0  0  0  0  0  0  0
   48.3510    6.4013   13.7882 H   0  0  0  0  0  0  0  0  0  0  0  0
   44.3035    8.3401   11.0407 H   0  0  0  0  0  0  0  0  0  0  0  0
   44.5742    3.2937   13.5236 H   0  0  0  0  0  0  0  0  0  0  0  0
   41.7873    5.5473   11.2022 H   0  0  0  0  0  0  0  0  0  0  0  0
   42.3619    3.4580   12.4405 H   0  0  0  0  0  0  0  0  0  0  0  0
   42.0030    5.0791   11.1394 H   0  0  0  0  0  0  0  0  0  0  0  0
   42.8333    7.3440   11.6499 H   0  0  0  0  0  0  0  0  0  0  0  0
   46.6866    3.5758   13.0256 H   0  0  0  0  0  0  0  0  0  0  0  0
   48.2508    6.9315   13.9243 H   0  0  0  0  0  0  0  0  0  0  0  0
   44.6706    8.8226   12.5338 H   0  0  0  0  0  0  0  0  0  0  0  0
   46.9449    9.0172   13.5143 H   0  0  0  0  0  0  0  0  0  0  0  0
  2  1  1  0
  3  2  2  0
  4  1  1  0
  5  2  1  0
  6  4  2  0
  7  6  1  0
  8  4  1  0
  9  5  1  0
 10  1  2  0
 11 12  2  0
 12 10  1  0
 11  3  1  0
  7  5  2  0
 14 13  2  0
 15 13  1  0
 16 14  1  0
 17 15  2  0
 18 17  1  0
 19 13  1  0
 20 14  1  0
 21 16  1  0
 22 17  1  0
 23 15  1  0
 24 19  2  0
 25 23  2  0
 16 18  2  0
 24 25  1  0
 27 26  2  0
 28 26  1  0
 29 27  1  0
 30 27  1  0
 31 28  2  0
 32 31  1  0
 33 26  1  0
 34 28  1  0
 35 29  2  0
 36 30  1  0
 37 36  2  0
 32 30  2  0
 35 37  1  0
  6 38  1  0
  7 39  1  0
  9 40  1  0
 10 41  1  0
 11 42  1  0
 12 43  1  0
 18 44  1  0
 20 45  1  0
 23 46  1  0
 24 47  1  0
 25 48  1  0
 31 49  1  0
 32 50  1  0
 33 51  1  0
 35 52  1  0
 36 53  1  0
 37 54  1  0
M  END
> <Uni-Dock RESULT> 
ENERGY=  -10.267  LOWER_BOUND=    0.000  UPPER_BOUND=    0.000
INTER + INTRA:         -10.267
INTER:                 -10.267
INTRA:                   0.000
UNBOUND:                 0.000

$$$$

     RDKit          3D

 54 57  0  0  0  0  0  0  0  0999 V2000
   44.6766    5.8951   12.0341 C   0  0  0  0  0  0  0  0  0  0  0  0
   45.7755    5.4773   12.8120 C   0  0  0  0  0  0  0  0  0  0  0  0
   46.0454    4.1818   13.0834 N   0  0  0  0  0  0  0  0  0  0  0  0
   44.4904    7.2852   11.8134 C   0  0  0  0  0  0  0  0  0  0  0  0
   46.6304    6.4472   13.3297 C   0  0  0  0  0  0  0  0  0  0  0  0
   45.3711    8.2298   12.3505 C   0  0  0  0  0  0  0  0  0  0  0  0
   46.4507    7.8081   13.1154 C   0  0  0  0  0  0  0  0  0  0  0  0
   43.1678    7.8882   10.8706 Cl  0  0  0  0  0  0  0  0  0  0  0  0
   47.7063    6.0543   14.0901 O   0  0  0  0  0  0  0  0  0  0  0  0
   43.8394    4.8741   11.5318 C   0  0  0  0  0  0  0  0  0  0  0  0
   45.2139    3.2450   12.5793 C   0  0  0  0  0  0  0  0  0  0  0  0
   44.1092    3.5374   11.8060 C   0  0  0  0  0  0  0  0  0  0  0  0
   45.7222    5.3158   12.6507 C   0  0  0  0  0  0  0  0  0  0  0  0
   45.1490    4.0791   12.3656 C   0  0  0  0  0  0  0  0  0  0  0  0
   45.0027    6.4898   12.3465 C   0  0  0  0  0  0  0  0  0  0  0  0
   43.8849    3.9664   11.7885 C   0  0  0  0  0  0  0  0  0  0  0  0
   43.7176    6.3661   11.7595 C   0  0  0  0  0  0  0  0  0  0  0  0
   43.1649    5.1143   11.4835 C   0  0  0  0  0  0  0  0  0  0  0  0
   46.9513    5.3263   13.2099 N   0  0  0  0  0  0  0  0  0  0  0  0
   45.8746    2.9476   12.6734 O   0  0  0  0  0  0  0  0  0  0  0  0
   43.1835    2.4307   11.4392 Cl  0  0  0  0  0  0  0  0  0  0  0  0
   42.7643    7.7543   11.3531 Cl  0  0  0  0  0  0  0  0  0  0  0  0
   45.6348    7.7142   12.6580 C   0  0  0  0  0  0  0  0  0  0  0  0
   47.5126    6.5226   13.4887 C   0  0  0  0  0  0  0  0  0  0  0  0
   46.9006    7.7319   13.2341 C   0  0  0  0  0  0  0  0  0  0  0  0
   45.5864    7.2977   11.7957 C   0  0  0  0  0  0  0  0  0  0  0  0
   44.9168    6.1097   12.0801 C   0  0  0  0  0  0  0  0  0  0  0  0
   46.8495    7.5726   12.3223 C   0  0  0  0  0  0  0  0  0  0  0  0
   43.6963    5.8995   11.5411 N   0  0  0  0  0  0  0  0  0  0  0  0
   45.5471    5.1718   12.9243 C   0  0  0  0  0  0  0  0  0  0  0  0
   47.4673    6.6424   13.1557 C   0  0  0  0  0  0  0  0  0  0  0  0
   46.8193    5.4439   13.4574 C   0  0  0  0  0  0  0  0  0  0  0  0
   44.9605    8.2069   10.9693 O   0  0  0  0  0  0  0  0  0  0  0  0
   47.6761    9.0442   11.9684 Cl  0  0  0  0  0  0  0  0  0  0  0  0
   43.0716    4.7374   11.8356 C   0  0  0  0  0  0  0  0  0  0  0  0
   44.8644    3.9808   13.2034 C   0  0  0  0  0  0  0  0  0  0  0  0
   43.6079    3.7586   12.6518 C   0  0  0  0  0  0  0  0  0  0  0  0
   45.2192    9.2919   12.1753 H   0  0  0  0  0  0  0  0  0  0  0  0
   47.1462    8.5251   13.5415 H   0  0  0  0  0  0  0  0  0  0  0  0
   47.6371    5.0751   14.1090 H   0  0  0  0  0  0  0  0  0  0  0  0
   42.9707    5.1138   10.9230 H   0  0  0  0  0  0  0  0  0  0  0  0
   45.4697    2.2173   12.8229 H   0  0  0  0  0  0  0  0  0  0  0  0
   43.4718    2.7475   11.4245 H   0  0  0  0  0  0  0  0  0  0  0  0
   42.1785    5.0357   11.0333 H   0  0  0  0  0  0  0  0  0  0  0  0
   46.7097    3.2891   13.0600 H   0  0  0  0  0  0  0  0  0  0  0  0
   45.1459    8.6642   12.4543 H   0  0  0  0  0  0  0  0  0  0  0  0
   48.5014    6.4792   13.9377 H   0  0  0  0  0  0  0  0  0  0  0  0
   47.3930    8.6673   13.4765 H   0  0  0  0  0  0  0  0  0  0  0  0
   48.4508    6.8448   13.5722 H   0  0  0  0  0  0  0  0  0  0  0  0
   47.3114    4.7251   14.1092 H   0  0  0  0  0  0  0  0  0  0  0  0
   44.1064    7.7805   10.7430 H   0  0  0  0  0  0  0  0  0  0  0  0
   42.0926    4.6100   11.3812 H   0  0  0  0  0  0  0  0  0  0  0  0
   45.3055    3.2247   13.8481 H   0  0  0  0  0  0  0  0  0  0  0  0
   43.0609    2.8443   12.8538 H   0  0  0  0  0  0  0  0  0  0  0  0
  2  1  1  0
  3  2  2  0
  4  1  1  0
  5  2  1  0
  6  4  2  0
  7  6  1  0
  8  4  1  0
  9  5  1  0
 10  1  2  0
 11 12  2  0
 12 10  1  0
 11  3  1  0
  7  5  2  0
 14 13  2  0
 15 13  1  0
 16 14  1  0
 17 15  2  0
 18 17  1  0
 19 13  1  0
 20 14  1  0
 21 16  1  0
 22 17  1  0
 23 15  1  0
 24 19  2  0
 25 23  2  0
 16 18  2  0
 24 25  1  0
 27 26  2  0
 28 26  1  0
 29 27  1  0
 30 27  1  0
 31 28  2  0
 32 31  1  0
 33 26  1  0
 34 28  1  0
 35 29  2  0
 36 30  1  0
 37 36  2  0
 32 30  2  0
 35 37  1  0
  6 38  1  0
  7 39  1  0
  9 40  1  0
 10 41  1  0
 11 42  1  0
 12 43  1  0
 18 44  1  0
 20 45  1  0
 23 46  1  0
 24 47  1  0
 25 48  1  0
 31 49  1  0
 32 50  1  0
 33 51  1  0
 35 52  1  0
 36 53  1  0
 37 54  1  0
M  END
> <Uni-Dock RESULT> 
ENERGY=   -9.018  LOWER_BOUND=    1.451  UPPER_BOUND=    4.594
INTER + INTRA:          -9.018
INTER:                  -9.018
INTRA:                   0.000
UNBOUND:                 0.000

$$$$

     RDKit          3D

 54 57  0  0  0  0  0  0  0  0999 V2000
   45.4343    5.0840   12.6057 C   0  0  0  0  0  0  0  0  0  0  0  0
   44.8036    6.1212   11.8890 C   0  0  0  0  0  0  0  0  0  0  0  0
   43.6303    5.9687   11.2372 N   0  0  0  0  0  0  0  0  0  0  0  0
   46.6675    5.3588   13.2533 C   0  0  0  0  0  0  0  0  0  0  0  0
   45.4184    7.3702   11.8481 C   0  0  0  0  0  0  0  0  0  0  0  0
   47.2543    6.6268   13.1894 C   0  0  0  0  0  0  0  0  0  0  0  0
   46.6251    7.6419   12.4809 C   0  0  0  0  0  0  0  0  0  0  0  0
   47.5123    4.1447   14.1557 Cl  0  0  0  0  0  0  0  0  0  0  0  0
   44.8145    8.3911   11.1530 O   0  0  0  0  0  0  0  0  0  0  0  0
   44.7715    3.8365   12.6175 C   0  0  0  0  0  0  0  0  0  0  0  0
   43.0379    4.7560   11.2797 C   0  0  0  0  0  0  0  0  0  0  0  0
   43.5630    3.6698   11.9492 C   0  0  0  0  0  0  0  0  0  0  0  0
   44.6447    5.9735   11.9779 C   0  0  0  0  0  0  0  0  0  0  0  0
   43.7375    4.9417   11.7504 C   0  0  0  0  0  0  0  0  0  0  0  0
   45.8936    5.6709   12.5585 C   0  0  0  0  0  0  0  0  0  0  0  0
   44.0268    3.6182   12.0794 C   0  0  0  0  0  0  0  0  0  0  0  0
   46.1796    4.3220   12.8902 C   0  0  0  0  0  0  0  0  0  0  0  0
   45.2529    3.3055   12.6519 C   0  0  0  0  0  0  0  0  0  0  0  0
   44.2767    7.2244   11.6265 N   0  0  0  0  0  0  0  0  0  0  0  0
   42.5241    5.2660   11.1815 O   0  0  0  0  0  0  0  0  0  0  0  0
   42.8971    2.3474   11.7939 Cl  0  0  0  0  0  0  0  0  0  0  0  0
   47.6878    3.8602   13.6064 Cl  0  0  0  0  0  0  0  0  0  0  0  0
   46.7718    6.7580   12.7652 C   0  0  0  0  0  0  0  0  0  0  0  0
   45.1521    8.2294   11.8446 C   0  0  0  0  0  0  0  0  0  0  0  0
   46.3989    8.0487   12.4055 C   0  0  0  0  0  0  0  0  0  0  0  0
   46.2117    6.3413   13.4224 C   0  0  0  0  0  0  0  0  0  0  0  0
   45.5315    5.3883   12.6675 C   0  0  0  0  0  0  0  0  0  0  0  0
   46.0513    7.7091   13.1949 C   0  0  0  0  0  0  0  0  0  0  0  0
   45.7271    4.0788   12.9340 N   0  0  0  0  0  0  0  0  0  0  0  0
   44.6623    5.8359   11.6508 C   0  0  0  0  0  0  0  0  0  0  0  0
   45.1913    8.1453   12.1892 C   0  0  0  0  0  0  0  0  0  0  0  0
   44.4973    7.2125   11.4175 C   0  0  0  0  0  0  0  0  0  0  0  0
   47.0585    5.8919   14.4135 O   0  0  0  0  0  0  0  0  0  0  0  0
   46.8946    8.8864   14.1312 Cl  0  0  0  0  0  0  0  0  0  0  0  0
   45.0531    3.1780   12.1844 C   0  0  0  0  0  0  0  0  0  0  0  0
   43.9837    4.8688   10.8980 C   0  0  0  0  0  0  0  0  0  0  0  0
   44.1808    3.5193   11.1674 C   0  0  0  0  0  0  0  0  0  0  0  0
   48.1990    6.8264   13.6890 H   0  0  0  0  0  0  0  0  0  0  0  0
   47.0637    8.6334   12.4188 H   0  0  0  0  0  0  0  0  0  0  0  0
   43.9960    7.9825   10.7969 H   0  0  0  0  0  0  0  0  0  0  0  0
   45.1928    2.9857   13.1478 H   0  0  0  0  0  0  0  0  0  0  0  0
   42.0967    4.6797   10.7419 H   0  0  0  0  0  0  0  0  0  0  0  0
   43.0477    2.7158   11.9531 H   0  0  0  0  0  0  0  0  0  0  0  0
   45.4868    2.2761   12.9116 H   0  0  0  0  0  0  0  0  0  0  0  0
   42.5668    6.2377   11.0490 H   0  0  0  0  0  0  0  0  0  0  0  0
   47.7538    6.6078   13.2082 H   0  0  0  0  0  0  0  0  0  0  0  0
   44.8107    9.2169   11.5454 H   0  0  0  0  0  0  0  0  0  0  0  0
   47.0670    8.8889   12.5606 H   0  0  0  0  0  0  0  0  0  0  0  0
   45.0580    9.2079   12.0021 H   0  0  0  0  0  0  0  0  0  0  0  0
   43.8285    7.5649   10.6350 H   0  0  0  0  0  0  0  0  0  0  0  0
   46.9904    4.9144   14.3655 H   0  0  0  0  0  0  0  0  0  0  0  0
   45.2402    2.1366   12.4327 H   0  0  0  0  0  0  0  0  0  0  0  0
   43.3022    5.1602   10.1027 H   0  0  0  0  0  0  0  0  0  0  0  0
   43.6664    2.7532   10.5978 H   0  0  0  0  0  0  0  0  0  0  0  0
  2  1  1  0
  3  2  2  0
  4  1  1  0
  5  2  1  0
  6  4  2  0
  7  6  1  0
  8  4  1  0
  9  5  1  0
 10  1  2  0
 11 12  2  0
 12 10  1  0
 11  3  1  0
  7  5  2  0
 14 13  2  0
 15 13  1  0
 16 14  1  0
 17 15  2  0
 18 17  1  0
 19 13  1  0
 20 14  1  0
 21 16  1  0
 22 17  1  0
 23 15  1  0
 24 19  2  0
 25 23  2  0
 16 18  2  0
 24 25  1  0
 27 26  2  0
 28 26  1  0
 29 27  1  0
 30 27  1  0
 31 28  2  0
 32 31  1  0
 33 26  1  0
 34 28  1  0
 35 29  2  0
 36 30  1  0
 37 36  2  0
 32 30  2  0
 35 37  1  0
  6 38  1  0
  7 39  1  0
  9 40  1  0
 10 41  1  0
 11 42  1  0
 12 43  1  0
 18 44  1  0
 20 45  1  0
 23 46  1  0
 24 47  1  0
 25 48  1  0
 31 49  1  0
 32 50  1  0
 33 51  1  0
 35 52  1  0
 36 53  1  0
 37 54  1  0
M  END
> <Uni-Dock RESULT> 
ENERGY=   -8.410  LOWER_BOUND=    0.957  UPPER_BOUND=    3.685
INTER + INTRA:          -8.410
INTER:                  -8.410
INTRA:                   0.000
UNBOUND:                 0.000

$$$$

     RDKit          3D

 54 57  0  0  0  0  0  0  0  0999 V2000
   50.9338    3.7832   17.8975 C   0  0  0  0  0  0  0  0  0  0  0  0
   51.0514    2.4084   17.6088 C   0  0  0  0  0  0  0  0  0  0  0  0
   50.0910    1.6949   16.9818 N   0  0  0  0  0  0  0  0  0  0  0  0
   52.0081    4.4318   18.5615 C   0  0  0  0  0  0  0  0  0  0  0  0
   52.2170    1.7470   17.9878 C   0  0  0  0  0  0  0  0  0  0  0  0
   53.1636    3.7332   18.9265 C   0  0  0  0  0  0  0  0  0  0  0  0
   53.2698    2.3791   18.6376 C   0  0  0  0  0  0  0  0  0  0  0  0
   51.9496    6.1179   18.9558 Cl  0  0  0  0  0  0  0  0  0  0  0  0
   52.3455    0.4062   17.7125 O   0  0  0  0  0  0  0  0  0  0  0  0
   49.7333    4.4086   17.4932 C   0  0  0  0  0  0  0  0  0  0  0  0
   48.9627    2.3404   16.6161 C   0  0  0  0  0  0  0  0  0  0  0  0
   48.7386    3.6821   16.8470 C   0  0  0  0  0  0  0  0  0  0  0  0
   50.9197    2.5159   17.4474 C   0  0  0  0  0  0  0  0  0  0  0  0
   49.6477    2.7583   16.9349 C   0  0  0  0  0  0  0  0  0  0  0  0
   51.5411    3.5079   18.2337 C   0  0  0  0  0  0  0  0  0  0  0  0
   48.9697    3.9524   17.1759 C   0  0  0  0  0  0  0  0  0  0  0  0
   50.8443    4.7196   18.4738 C   0  0  0  0  0  0  0  0  0  0  0  0
   49.5696    4.9383   17.9486 C   0  0  0  0  0  0  0  0  0  0  0  0
   51.4984    1.3298   17.1612 N   0  0  0  0  0  0  0  0  0  0  0  0
   49.0638    1.7711   16.1695 O   0  0  0  0  0  0  0  0  0  0  0  0
   47.3950    4.2434   16.5372 Cl  0  0  0  0  0  0  0  0  0  0  0  0
   51.5315    5.9918   19.4279 Cl  0  0  0  0  0  0  0  0  0  0  0  0
   52.8304    3.2054   18.7256 C   0  0  0  0  0  0  0  0  0  0  0  0
   52.7320    1.0887   17.6551 C   0  0  0  0  0  0  0  0  0  0  0  0
   53.4319    1.9857   18.4344 C   0  0  0  0  0  0  0  0  0  0  0  0
   52.6209    3.7477   17.9630 C   0  0  0  0  0  0  0  0  0  0  0  0
   51.2321    3.6537   17.9079 C   0  0  0  0  0  0  0  0  0  0  0  0
   53.4401    2.6339   17.7717 C   0  0  0  0  0  0  0  0  0  0  0  0
   50.4913    4.7664   18.1010 N   0  0  0  0  0  0  0  0  0  0  0  0
   50.6564    2.3919   17.6512 C   0  0  0  0  0  0  0  0  0  0  0  0
   52.8658    1.3900   17.5185 C   0  0  0  0  0  0  0  0  0  0  0  0
   51.4771    1.2669   17.4579 C   0  0  0  0  0  0  0  0  0  0  0  0
   53.1723    4.9862   18.2146 O   0  0  0  0  0  0  0  0  0  0  0  0
   55.1592    2.7533   17.8404 Cl  0  0  0  0  0  0  0  0  0  0  0  0
   49.1464    4.6434   18.0416 C   0  0  0  0  0  0  0  0  0  0  0  0
   49.2590    2.3093   17.5981 C   0  0  0  0  0  0  0  0  0  0  0  0
   48.4909    3.4510   17.7961 C   0  0  0  0  0  0  0  0  0  0  0  0
   53.9804    4.2397   19.4346 H   0  0  0  0  0  0  0  0  0  0  0  0
   54.1583    1.8183   18.9123 H   0  0  0  0  0  0  0  0  0  0  0  0
   51.5041    0.1759   17.2621 H   0  0  0  0  0  0  0  0  0  0  0  0
   49.5652    5.4668   17.6792 H   0  0  0  0  0  0  0  0  0  0  0  0
   48.2184    1.7273   16.1151 H   0  0  0  0  0  0  0  0  0  0  0  0
   47.8142    4.1543   16.5333 H   0  0  0  0  0  0  0  0  0  0  0  0
   49.0481    5.8725   18.1416 H   0  0  0  0  0  0  0  0  0  0  0  0
   49.7290    1.0496   16.1503 H   0  0  0  0  0  0  0  0  0  0  0  0
   53.3765    3.9180   19.3397 H   0  0  0  0  0  0  0  0  0  0  0  0
   53.1553    0.1214   17.3977 H   0  0  0  0  0  0  0  0  0  0  0  0
   54.4213    1.7454   18.8080 H   0  0  0  0  0  0  0  0  0  0  0  0
   53.4931    0.5149   17.3679 H   0  0  0  0  0  0  0  0  0  0  0  0
   51.0400    0.2905   17.2594 H   0  0  0  0  0  0  0  0  0  0  0  0
   52.3982    5.5816   18.3077 H   0  0  0  0  0  0  0  0  0  0  0  0
   48.5898    5.5629   18.2027 H   0  0  0  0  0  0  0  0  0  0  0  0
   48.7647    1.3608   17.4035 H   0  0  0  0  0  0  0  0  0  0  0  0
   47.4079    3.4111   17.7595 H   0  0  0  0  0  0  0  0  0  0  0  0
  2  1  1  0
  3  2  2  0
  4  1  1  0
  5  2  1  0
  6  4  2  0
  7  6  1  0
  8  4  1  0
  9  5  1  0
 10  1  2  0
 11 12  2  0
 12 10  1  0
 11  3  1  0
  7  5  2  0
 14 13  2  0
 15 13  1  0
 16 14  1  0
 17 15  2  0
 18 17  1  0
 19 13  1  0
 20 14  1  0
 21 16  1  0
 22 17  1  0
 23 15  1  0
 24 19  2  0
 25 23  2  0
 16 18  2  0
 24 25  1  0
 27 26  2  0
 28 26  1  0
 29 27  1  0
 30 27  1  0
 31 28  2  0
 32 31  1  0
 33 26  1  0
 34 28  1  0
 35 29  2  0
 36 30  1  0
 37 36  2  0
 32 30  2  0
 35 37  1  0
  6 38  1  0
  7 39  1  0
  9 40  1  0
 10 41  1  0
 11 42  1  0
 12 43  1  0
 18 44  1  0
 20 45  1  0
 23 46  1  0
 24 47  1  0
 25 48  1  0
 31 49  1  0
 32 50  1  0
 33 51  1  0
 35 52  1  0
 36 53  1  0
 37 54  1  0
M  END
> <Uni-Dock RESULT> 
ENERGY=   -7.961  LOWER_BOUND=    6.967  UPPER_BOUND=    9.231
INTER + INTRA:          -7.961
INTER:                  -7.961
INTRA:                   0.000
UNBOUND:                 0.000

$$$$

     RDKit          3D

 54 57  0  0  0  0  0  0  0  0999 V2000
   45.0760    7.0604   12.4823 C   0  0  0  0  0  0  0  0  0  0  0  0
   44.0883    7.5483   11.6027 C   0  0  0  0  0  0  0  0  0  0  0  0
   42.9845    6.8484   11.2614 N   0  0  0  0  0  0  0  0  0  0  0  0
   46.1958    7.8843   12.7699 C   0  0  0  0  0  0  0  0  0  0  0  0
   44.2548    8.8177   11.0547 C   0  0  0  0  0  0  0  0  0  0  0  0
   46.3280    9.1546   12.1995 C   0  0  0  0  0  0  0  0  0  0  0  0
   45.3496    9.6262   11.3343 C   0  0  0  0  0  0  0  0  0  0  0  0
   47.4570    7.3660   13.8388 Cl  0  0  0  0  0  0  0  0  0  0  0  0
   43.2994    9.3064   10.1953 O   0  0  0  0  0  0  0  0  0  0  0  0
   44.8616    5.7683   13.0116 C   0  0  0  0  0  0  0  0  0  0  0  0
   42.8272    5.6182   11.7953 C   0  0  0  0  0  0  0  0  0  0  0  0
   43.7280    5.0400   12.6660 C   0  0  0  0  0  0  0  0  0  0  0  0
   43.9937    7.4042   11.7616 C   0  0  0  0  0  0  0  0  0  0  0  0
   43.4605    6.1493   12.0450 C   0  0  0  0  0  0  0  0  0  0  0  0
   45.3126    7.6947   12.1673 C   0  0  0  0  0  0  0  0  0  0  0  0
   44.1914    5.1712   12.7179 C   0  0  0  0  0  0  0  0  0  0  0  0
   46.0490    6.6941   12.8513 C   0  0  0  0  0  0  0  0  0  0  0  0
   45.4916    5.4435   13.1235 C   0  0  0  0  0  0  0  0  0  0  0  0
   43.2108    8.2875   11.1054 N   0  0  0  0  0  0  0  0  0  0  0  0
   42.1688    5.8922   11.6368 O   0  0  0  0  0  0  0  0  0  0  0  0
   43.5227    3.6203   13.0644 Cl  0  0  0  0  0  0  0  0  0  0  0  0
   47.6744    6.9646   13.3858 Cl  0  0  0  0  0  0  0  0  0  0  0  0
   45.7988    8.9832   11.8523 C   0  0  0  0  0  0  0  0  0  0  0  0
   43.7221    9.5061   10.8277 C   0  0  0  0  0  0  0  0  0  0  0  0
   44.9976    9.8975   11.1767 C   0  0  0  0  0  0  0  0  0  0  0  0
   45.4571    8.6912   12.6993 C   0  0  0  0  0  0  0  0  0  0  0  0
   45.0724    7.3807   12.4252 C   0  0  0  0  0  0  0  0  0  0  0  0
   44.8407    9.7814   12.0829 C   0  0  0  0  0  0  0  0  0  0  0  0
   45.7058    6.3663   13.0528 N   0  0  0  0  0  0  0  0  0  0  0  0
   44.0309    7.1691   11.4978 C   0  0  0  0  0  0  0  0  0  0  0  0
   43.8125    9.5662   11.1676 C   0  0  0  0  0  0  0  0  0  0  0  0
   43.4068    8.2637   10.8741 C   0  0  0  0  0  0  0  0  0  0  0  0
   46.4762    8.8858   13.6075 O   0  0  0  0  0  0  0  0  0  0  0  0
   45.3191   11.4026   12.4243 Cl  0  0  0  0  0  0  0  0  0  0  0  0
   45.3101    5.1058   12.7660 C   0  0  0  0  0  0  0  0  0  0  0  0
   43.6524    5.8472   11.2299 C   0  0  0  0  0  0  0  0  0  0  0  0
   44.3006    4.7986   11.8726 C   0  0  0  0  0  0  0  0  0  0  0  0
   47.1897    9.7773   12.4265 H   0  0  0  0  0  0  0  0  0  0  0  0
   45.4330   10.6094   10.8807 H   0  0  0  0  0  0  0  0  0  0  0  0
   42.6357    8.5848   10.1449 H   0  0  0  0  0  0  0  0  0  0  0  0
   45.5769    5.3204   13.6974 H   0  0  0  0  0  0  0  0  0  0  0  0
   41.9256    5.0923   11.4930 H   0  0  0  0  0  0  0  0  0  0  0  0
   43.5557    4.0477   13.0677 H   0  0  0  0  0  0  0  0  0  0  0  0
   46.0688    4.6866   13.6487 H   0  0  0  0  0  0  0  0  0  0  0  0
   41.8806    6.7212   11.1971 H   0  0  0  0  0  0  0  0  0  0  0  0
   46.8061    9.2848   12.1308 H   0  0  0  0  0  0  0  0  0  0  0  0
   43.0545   10.1813   10.2989 H   0  0  0  0  0  0  0  0  0  0  0  0
   45.3630   10.8886   10.9309 H   0  0  0  0  0  0  0  0  0  0  0  0
   43.3245   10.4069   10.6808 H   0  0  0  0  0  0  0  0  0  0  0  0
   42.6028    8.1080   10.1578 H   0  0  0  0  0  0  0  0  0  0  0  0
   46.7289    7.9796   13.8859 H   0  0  0  0  0  0  0  0  0  0  0  0
   45.8463    4.3210   13.2931 H   0  0  0  0  0  0  0  0  0  0  0  0
   42.8554    5.6289   10.5234 H   0  0  0  0  0  0  0  0  0  0  0  0
   44.0246    3.7676   11.6810 H   0  0  0  0  0  0  0  0  0  0  0  0
  2  1  1  0
  3  2  2  0
  4  1  1  0
  5  2  1  0
  6  4  2  0
  7  6  1  0
  8  4  1  0
  9  5  1  0
 10  1  2  0
 11 12  2  0
 12 10  1  0
 11  3  1  0
  7  5  2  0
 14 13  2  0
 15 13  1  0
 16 14  1  0
 17 15  2  0
 18 17  1  0
 19 13  1  0
 20 14  1  0
 21 16  1  0
 22 17  1  0
 23 15  1  0
 24 19  2  0
 25 23  2  0
 16 18  2  0
 24 25  1  0
 27 26  2  0
 28 26  1  0
 29 27  1  0
 30 27  1  0
 31 28  2  0
 32 31  1  0
 33 26  1  0
 34 28  1  0
 35 29  2  0
 36 30  1  0
 37 36  2  0
 32 30  2  0
 35 37  1  0
  6 38  1  0
  7 39  1  0
  9 40  1  0
 10 41  1  0
 11 42  1  0
 12 43  1  0
 18 44  1  0
 20 45  1  0
 23 46  1  0
 24 47  1  0
 25 48  1  0
 31 49  1  0
 32 50  1  0
 33 51  1  0
 35 52  1  0
 36 53  1  0
 37 54  1  0
M  END
> <Uni-Dock RESULT> 
ENERGY=   -7.615  LOWER_BOUND=    1.497  UPPER_BOUND=    4.026
INTER + INTRA:          -7.615
INTER:                  -7.615
INTRA:                   0.000
UNBOUND:                 0.000

$$$$

     RDKit          3D

 54 57  0  0  0  0  0  0  0  0999 V2000
   46.5509    7.8073   13.0830 C   0  0  0  0  0  0  0  0  0  0  0  0
   46.7286    6.4158   13.2223 C   0  0  0  0  0  0  0  0  0  0  0  0
   47.6756    5.8617   14.0104 N   0  0  0  0  0  0  0  0  0  0  0  0
   45.5217    8.2778   12.2257 C   0  0  0  0  0  0  0  0  0  0  0  0
   45.8861    5.5638   12.5125 C   0  0  0  0  0  0  0  0  0  0  0  0
   44.6951    7.3904   11.5288 C   0  0  0  0  0  0  0  0  0  0  0  0
   44.8782    6.0214   11.6728 C   0  0  0  0  0  0  0  0  0  0  0  0
   45.2320    9.9703   11.9946 Cl  0  0  0  0  0  0  0  0  0  0  0  0
   46.0478    4.2044   12.6388 O   0  0  0  0  0  0  0  0  0  0  0  0
   47.4298    8.6291   13.8232 C   0  0  0  0  0  0  0  0  0  0  0  0
   48.4900    6.6917   14.6968 C   0  0  0  0  0  0  0  0  0  0  0  0
   48.4081    8.0677   14.6373 C   0  0  0  0  0  0  0  0  0  0  0  0
   46.7890    6.5271   13.4196 C   0  0  0  0  0  0  0  0  0  0  0  0
   47.8094    6.9813   14.2514 C   0  0  0  0  0  0  0  0  0  0  0  0
   46.1250    7.4495   12.5848 C   0  0  0  0  0  0  0  0  0  0  0  0
   48.1945    8.3209   14.2837 C   0  0  0  0  0  0  0  0  0  0  0  0
   46.5230    8.8101   12.6242 C   0  0  0  0  0  0  0  0  0  0  0  0
   47.5493    9.2404   13.4670 C   0  0  0  0  0  0  0  0  0  0  0  0
   46.4852    5.2118   13.4563 N   0  0  0  0  0  0  0  0  0  0  0  0
   48.4415    6.0579   15.0570 O   0  0  0  0  0  0  0  0  0  0  0  0
   49.4591    8.8739   15.3170 Cl  0  0  0  0  0  0  0  0  0  0  0  0
   45.7626   10.0106   11.6335 Cl  0  0  0  0  0  0  0  0  0  0  0  0
   45.0992    6.9305   11.7638 C   0  0  0  0  0  0  0  0  0  0  0  0
   45.4965    4.7651   12.6521 C   0  0  0  0  0  0  0  0  0  0  0  0
   44.7814    5.5769   11.7969 C   0  0  0  0  0  0  0  0  0  0  0  0
   44.9876    7.3947   12.5953 C   0  0  0  0  0  0  0  0  0  0  0  0
   46.3058    7.6155   12.9881 C   0  0  0  0  0  0  0  0  0  0  0  0
   44.4601    6.1070   12.4861 C   0  0  0  0  0  0  0  0  0  0  0  0
   46.7602    8.8844   13.0759 N   0  0  0  0  0  0  0  0  0  0  0  0
   47.1138    6.4965   13.2788 C   0  0  0  0  0  0  0  0  0  0  0  0
   45.2630    5.0055   12.7746 C   0  0  0  0  0  0  0  0  0  0  0  0
   46.5873    5.1974   13.1703 C   0  0  0  0  0  0  0  0  0  0  0  0
   44.2073    8.4961   12.3138 O   0  0  0  0  0  0  0  0  0  0  0  0
   42.8278    5.8368   11.9997 Cl  0  0  0  0  0  0  0  0  0  0  0  0
   48.0436    9.0665   13.4595 C   0  0  0  0  0  0  0  0  0  0  0  0
   48.4376    6.7306   13.6727 C   0  0  0  0  0  0  0  0  0  0  0  0
   48.9114    8.0343   13.7649 C   0  0  0  0  0  0  0  0  0  0  0  0
   43.9100    7.7614   10.8748 H   0  0  0  0  0  0  0  0  0  0  0  0
   44.2474    5.3154   11.1408 H   0  0  0  0  0  0  0  0  0  0  0  0
   46.7982    4.1130   13.2653 H   0  0  0  0  0  0  0  0  0  0  0  0
   47.3579    9.7129   13.7703 H   0  0  0  0  0  0  0  0  0  0  0  0
   49.2359    6.2023   15.3173 H   0  0  0  0  0  0  0  0  0  0  0  0
   49.0867    8.6912   15.2088 H   0  0  0  0  0  0  0  0  0  0  0  0
   47.8431   10.2869   13.4859 H   0  0  0  0  0  0  0  0  0  0  0  0
   47.9966    5.2074   14.8515 H   0  0  0  0  0  0  0  0  0  0  0  0
   44.5394    7.5770   11.0916 H   0  0  0  0  0  0  0  0  0  0  0  0
   45.2891    3.7002   12.7173 H   0  0  0  0  0  0  0  0  0  0  0  0
   43.9955    5.1702   11.1699 H   0  0  0  0  0  0  0  0  0  0  0  0
   44.8639    3.9975   12.6932 H   0  0  0  0  0  0  0  0  0  0  0  0
   47.2048    4.3297   13.3930 H   0  0  0  0  0  0  0  0  0  0  0  0
   44.8035    9.2604   12.4650 H   0  0  0  0  0  0  0  0  0  0  0  0
   48.3672   10.1025   13.5167 H   0  0  0  0  0  0  0  0  0  0  0  0
   49.1025    5.9032   13.9082 H   0  0  0  0  0  0  0  0  0  0  0  0
   49.9322    8.2394   14.0677 H   0  0  0  0  0  0  0  0  0  0  0  0
  2  1  1  0
  3  2  2  0
  4  1  1  0
  5  2  1  0
  6  4  2  0
  7  6  1  0
  8  4  1  0
  9  5  1  0
 10  1  2  0
 11 12  2  0
 12 10  1  0
 11  3  1  0
  7  5  2  0
 14 13  2  0
 15 13  1  0
 16 14  1  0
 17 15  2  0
 18 17  1  0
 19 13  1  0
 20 14  1  0
 21 16  1  0
 22 17  1  0
 23 15  1  0
 24 19  2  0
 25 23  2  0
 16 18  2  0
 24 25  1  0
 27 26  2  0
 28 26  1  0
 29 27  1  0
 30 27  1  0
 31 28  2  0
 32 31  1  0
 33 26  1  0
 34 28  1  0
 35 29  2  0
 36 30  1  0
 37 36  2  0
 32 30  2  0
 35 37  1  0
  6 38  1  0
  7 39  1  0
  9 40  1  0
 10 41  1  0
 11 42  1  0
 12 43  1  0
 18 44  1  0
 20 45  1  0
 23 46  1  0
 24 47  1  0
 25 48  1  0
 31 49  1  0
 32 50  1  0
 33 51  1  0
 35 52  1  0
 36 53  1  0
 37 54  1  0
M  END
> <Uni-Dock RESULT> 
ENERGY=   -7.527  LOWER_BOUND=    1.944  UPPER_BOUND=    3.546
INTER + INTRA:          -7.527
INTER:                  -7.527
INTRA:                   0.000
UNBOUND:                 0.000

$$$$

     RDKit          3D

 54 57  0  0  0  0  0  0  0  0999 V2000
   48.3511    5.6048   16.0792 C   0  0  0  0  0  0  0  0  0  0  0  0
   47.5145    4.6641   15.4451 C   0  0  0  0  0  0  0  0  0  0  0  0
   46.9899    3.5906   16.0755 N   0  0  0  0  0  0  0  0  0  0  0  0
   48.8457    6.6959   15.3171 C   0  0  0  0  0  0  0  0  0  0  0  0
   47.2099    4.8466   14.0985 C   0  0  0  0  0  0  0  0  0  0  0  0
   48.5173    6.8454   13.9657 C   0  0  0  0  0  0  0  0  0  0  0  0
   47.6924    5.9132   13.3502 C   0  0  0  0  0  0  0  0  0  0  0  0
   49.8795    7.8989   16.0141 Cl  0  0  0  0  0  0  0  0  0  0  0  0
   46.3950    3.9369   13.4671 O   0  0  0  0  0  0  0  0  0  0  0  0
   48.6304    5.3759   17.4449 C   0  0  0  0  0  0  0  0  0  0  0  0
   47.2879    3.4178   17.3811 C   0  0  0  0  0  0  0  0  0  0  0  0
   48.0949    4.2734   18.1026 C   0  0  0  0  0  0  0  0  0  0  0  0
   47.4599    4.6834   15.6723 C   0  0  0  0  0  0  0  0  0  0  0  0
   47.5150    4.1299   16.9490 C   0  0  0  0  0  0  0  0  0  0  0  0
   48.3396    5.7355   15.3441 C   0  0  0  0  0  0  0  0  0  0  0  0
   48.4139    4.5846   17.9128 C   0  0  0  0  0  0  0  0  0  0  0  0
   49.2507    6.1920   16.3305 C   0  0  0  0  0  0  0  0  0  0  0  0
   49.2862    5.6202   17.6035 C   0  0  0  0  0  0  0  0  0  0  0  0
   46.5565    4.1778   14.8052 N   0  0  0  0  0  0  0  0  0  0  0  0
   46.6435    3.1025   17.2427 O   0  0  0  0  0  0  0  0  0  0  0  0
   48.4747    3.8931   19.4909 Cl  0  0  0  0  0  0  0  0  0  0  0  0
   50.3664    7.4788   16.0141 Cl  0  0  0  0  0  0  0  0  0  0  0  0
   48.2373    6.2565   14.0350 C   0  0  0  0  0  0  0  0  0  0  0  0
   46.4981    4.7103   13.5655 C   0  0  0  0  0  0  0  0  0  0  0  0
   47.3090    5.7403   13.1372 C   0  0  0  0  0  0  0  0  0  0  0  0
   47.8641    6.6352   14.8329 C   0  0  0  0  0  0  0  0  0  0  0  0
   48.2146    5.6930   15.7973 C   0  0  0  0  0  0  0  0  0  0  0  0
   46.9959    6.3248   13.7849 C   0  0  0  0  0  0  0  0  0  0  0  0
   49.0593    6.0518   16.7882 N   0  0  0  0  0  0  0  0  0  0  0  0
   47.6683    4.3965   15.6959 C   0  0  0  0  0  0  0  0  0  0  0  0
   46.4593    5.0425   13.6899 C   0  0  0  0  0  0  0  0  0  0  0  0
   46.7934    4.0788   14.6422 C   0  0  0  0  0  0  0  0  0  0  0  0
   48.4043    7.8991   14.9423 O   0  0  0  0  0  0  0  0  0  0  0  0
   46.5637    7.4934   12.5926 Cl  0  0  0  0  0  0  0  0  0  0  0  0
   49.3807    5.1156   17.7090 C   0  0  0  0  0  0  0  0  0  0  0  0
   48.0278    3.4573   16.6711 C   0  0  0  0  0  0  0  0  0  0  0  0
   48.8968    3.8205   17.6936 C   0  0  0  0  0  0  0  0  0  0  0  0
   48.9016    7.6846   13.3914 H   0  0  0  0  0  0  0  0  0  0  0  0
   47.4253    6.0108   12.3021 H   0  0  0  0  0  0  0  0  0  0  0  0
   46.1789    3.2861   14.1696 H   0  0  0  0  0  0  0  0  0  0  0  0
   49.2675    6.0557   18.0059 H   0  0  0  0  0  0  0  0  0  0  0  0
   46.8443    2.5419   17.8468 H   0  0  0  0  0  0  0  0  0  0  0  0
   48.3042    4.0902   19.1507 H   0  0  0  0  0  0  0  0  0  0  0  0
   49.9904    5.9811   18.3490 H   0  0  0  0  0  0  0  0  0  0  0  0
   46.1291    2.9732   16.4168 H   0  0  0  0  0  0  0  0  0  0  0  0
   48.8803    7.0691   13.7041 H   0  0  0  0  0  0  0  0  0  0  0  0
   45.7559    4.2703   12.9047 H   0  0  0  0  0  0  0  0  0  0  0  0
   47.2238    6.1343   12.1304 H   0  0  0  0  0  0  0  0  0  0  0  0
   45.7820    4.7884   12.8783 H   0  0  0  0  0  0  0  0  0  0  0  0
   46.3682    3.0808   14.5578 H   0  0  0  0  0  0  0  0  0  0  0  0
   48.9659    7.8538   15.7454 H   0  0  0  0  0  0  0  0  0  0  0  0
   50.0626    5.4470   18.4877 H   0  0  0  0  0  0  0  0  0  0  0  0
   47.6349    2.4441   16.6393 H   0  0  0  0  0  0  0  0  0  0  0  0
   49.1891    3.1104   18.4593 H   0  0  0  0  0  0  0  0  0  0  0  0
  2  1  1  0
  3  2  2  0
  4  1  1  0
  5  2  1  0
  6  4  2  0
  7  6  1  0
  8  4  1  0
  9  5  1  0
 10  1  2  0
 11 12  2  0
 12 10  1  0
 11  3  1  0
  7  5  2  0
 14 13  2  0
 15 13  1  0
 16 14  1  0
 17 15  2  0
 18 17  1  0
 19 13  1  0
 20 14  1  0
 21 16  1  0
 22 17  1  0
 23 15  1  0
 24 19  2  0
 25 23  2  0
 16 18  2  0
 24 25  1  0
 27 26  2  0
 28 26  1  0
 29 27  1  0
 30 27  1  0
 31 28  2  0
 32 31  1  0
 33 26  1  0
 34 28  1  0
 35 29  2  0
 36 30  1  0
 37 36  2  0
 32 30  2  0
 35 37  1  0
  6 38  1  0
  7 39  1  0
  9 40  1  0
 10 41  1  0
 11 42  1  0
 12 43  1  0
 18 44  1  0
 20 45  1  0
 23 46  1  0
 24 47  1  0
 25 48  1  0
 31 49  1  0
 32 50  1  0
 33 51  1  0
 35 52  1  0
 36 53  1  0
 37 54  1  0
M  END
> <Uni-Dock RESULT> 
ENERGY=   -7.389  LOWER_BOUND=    3.336  UPPER_BOUND=    5.396
INTER + INTRA:          -7.389
INTER:                  -7.389
INTRA:                   0.000
UNBOUND:                 0.000

$$$$

     RDKit          3D

 54 57  0  0  0  0  0  0  0  0999 V2000
   45.9577   10.3423   11.8281 C   0  0  0  0  0  0  0  0  0  0  0  0
   45.1698    9.1821   11.9701 C   0  0  0  0  0  0  0  0  0  0  0  0
   43.9436    9.0433   11.4205 N   0  0  0  0  0  0  0  0  0  0  0  0
   47.2333   10.3771   12.4504 C   0  0  0  0  0  0  0  0  0  0  0  0
   45.6779    8.1207   12.7150 C   0  0  0  0  0  0  0  0  0  0  0  0
   47.7095    9.2903   13.1911 C   0  0  0  0  0  0  0  0  0  0  0  0
   46.9258    8.1519   13.3251 C   0  0  0  0  0  0  0  0  0  0  0  0
   48.2683   11.7612   12.3288 Cl  0  0  0  0  0  0  0  0  0  0  0  0
   44.9205    6.9827   12.8618 O   0  0  0  0  0  0  0  0  0  0  0  0
   45.3986   11.3905   11.0637 C   0  0  0  0  0  0  0  0  0  0  0  0
   43.4552   10.0750   10.6991 C   0  0  0  0  0  0  0  0  0  0  0  0
   44.1367   11.2570   10.4939 C   0  0  0  0  0  0  0  0  0  0  0  0
   45.1269    9.2866   11.7647 C   0  0  0  0  0  0  0  0  0  0  0  0
   44.2659   10.0658   10.9961 C   0  0  0  0  0  0  0  0  0  0  0  0
   46.2732    9.8851   12.3271 C   0  0  0  0  0  0  0  0  0  0  0  0
   44.5029   11.4203   10.7657 C   0  0  0  0  0  0  0  0  0  0  0  0
   46.5068   11.2633   12.0877 C   0  0  0  0  0  0  0  0  0  0  0  0
   45.6281   12.0229   11.3134 C   0  0  0  0  0  0  0  0  0  0  0  0
   44.8154    7.9834   11.9333 N   0  0  0  0  0  0  0  0  0  0  0  0
   43.1527    9.4550   10.4584 O   0  0  0  0  0  0  0  0  0  0  0  0
   43.4311   12.3770    9.8127 Cl  0  0  0  0  0  0  0  0  0  0  0  0
   47.8889   12.0795   12.7390 Cl  0  0  0  0  0  0  0  0  0  0  0  0
   47.1087    9.0451   13.0965 C   0  0  0  0  0  0  0  0  0  0  0  0
   45.6465    7.2224   12.6775 C   0  0  0  0  0  0  0  0  0  0  0  0
   46.7937    7.7021   13.2739 C   0  0  0  0  0  0  0  0  0  0  0  0
   47.2479    9.3132   12.1864 C   0  0  0  0  0  0  0  0  0  0  0  0
   46.1084   10.0709   11.9257 C   0  0  0  0  0  0  0  0  0  0  0  0
   47.1735    7.9474   12.4646 C   0  0  0  0  0  0  0  0  0  0  0  0
   46.2430   11.3889   11.6628 N   0  0  0  0  0  0  0  0  0  0  0  0
   44.8551    9.4241   11.9477 C   0  0  0  0  0  0  0  0  0  0  0  0
   45.9327    7.3138   12.4851 C   0  0  0  0  0  0  0  0  0  0  0  0
   44.7747    8.0486   12.2275 C   0  0  0  0  0  0  0  0  0  0  0  0
   48.4674    9.9563   12.1621 O   0  0  0  0  0  0  0  0  0  0  0  0
   48.5859    7.0120   12.7870 Cl  0  0  0  0  0  0  0  0  0  0  0  0
   45.1190   12.0974   11.4138 C   0  0  0  0  0  0  0  0  0  0  0  0
   43.7162   10.1959   11.6841 C   0  0  0  0  0  0  0  0  0  0  0  0
   43.8481   11.5530   11.4129 C   0  0  0  0  0  0  0  0  0  0  0  0
   48.6879    9.3275   13.6636 H   0  0  0  0  0  0  0  0  0  0  0  0
   47.2767    7.2972   13.8958 H   0  0  0  0  0  0  0  0  0  0  0  0
   44.0996    7.1791   12.3603 H   0  0  0  0  0  0  0  0  0  0  0  0
   45.9430   12.3188   10.9071 H   0  0  0  0  0  0  0  0  0  0  0  0
   42.4664    9.9190   10.2762 H   0  0  0  0  0  0  0  0  0  0  0  0
   43.7002   12.0566    9.9058 H   0  0  0  0  0  0  0  0  0  0  0  0
   45.8207   13.0786   11.1388 H   0  0  0  0  0  0  0  0  0  0  0  0
   43.2143    8.5230   10.7602 H   0  0  0  0  0  0  0  0  0  0  0  0
   48.0121    9.4306   13.5639 H   0  0  0  0  0  0  0  0  0  0  0  0
   45.3536    6.1812   12.7842 H   0  0  0  0  0  0  0  0  0  0  0  0
   47.4296    7.0504   13.8630 H   0  0  0  0  0  0  0  0  0  0  0  0
   45.8615    6.2506   12.7005 H   0  0  0  0  0  0  0  0  0  0  0  0
   43.8114    7.5431   12.2462 H   0  0  0  0  0  0  0  0  0  0  0  0
   48.2458   10.8877   11.9477 H   0  0  0  0  0  0  0  0  0  0  0  0
   45.2736   13.1533   11.2074 H   0  0  0  0  0  0  0  0  0  0  0  0
   42.7262    9.7464   11.6887 H   0  0  0  0  0  0  0  0  0  0  0  0
   42.9808   12.1700   11.2061 H   0  0  0  0  0  0  0  0  0  0  0  0
  2  1  1  0
  3  2  2  0
  4  1  1  0
  5  2  1  0
  6  4  2  0
  7  6  1  0
  8  4  1  0
  9  5  1  0
 10  1  2  0
 11 12  2  0
 12 10  1  0
 11  3  1  0
  7  5  2  0
 14 13  2  0
 15 13  1  0
 16 14  1  0
 17 15  2  0
 18 17  1  0
 19 13  1  0
 20 14  1  0
 21 16  1  0
 22 17  1  0
 23 15  1  0
 24 19  2  0
 25 23  2  0
 16 18  2  0
 24 25  1  0
 27 26  2  0
 28 26  1  0
 29 27  1  0
 30 27  1  0
 31 28  2  0
 32 31  1  0
 33 26  1  0
 34 28  1  0
 35 29  2  0
 36 30  1  0
 37 36  2  0
 32 30  2  0
 35 37  1  0
  6 38  1  0
  7 39  1  0
  9 40  1  0
 10 41  1  0
 11 42  1  0
 12 43  1  0
 18 44  1  0
 20 45  1  0
 23 46  1  0
 24 47  1  0
 25 48  1  0
 31 49  1  0
 32 50  1  0
 33 51  1  0
 35 52  1  0
 36 53  1  0
 37 54  1  0
M  END
> <Uni-Dock RESULT> 
ENERGY=   -7.348  LOWER_BOUND=    2.724  UPPER_BOUND=    5.026
INTER + INTRA:          -7.348
INTER:                  -7.348
INTRA:                   0.000
UNBOUND:                 0.000

$$$$
