
     RDKit          3D

 54 57  0  0  0  0  0  0  0  0999 V2000
   45.4009    5.2207   12.8090 C   0  0  0  0  0  0  0  0  0  0  0  0
   44.6810    6.3226   12.2924 C   0  0  0  0  0  0  0  0  0  0  0  0
   43.4382    6.1786   11.7761 N   0  0  0  0  0  0  0  0  0  0  0  0
   46.6999    5.4333   13.3373 C   0  0  0  0  0  0  0  0  0  0  0  0
   45.2940    7.5856   12.3284 C   0  0  0  0  0  0  0  0  0  0  0  0
   47.2771    6.7042   13.3562 C   0  0  0  0  0  0  0  0  0  0  0  0
   46.5729    7.7873   12.8500 C   0  0  0  0  0  0  0  0  0  0  0  0
   47.6497    4.1375   13.9897 Cl  0  0  0  0  0  0  0  0  0  0  0  0
   44.6099    8.6715   11.8305 O   0  0  0  0  0  0  0  0  0  0  0  0
   44.7651    3.9587   12.7628 C   0  0  0  0  0  0  0  0  0  0  0  0
   42.8718    4.9557   11.7531 C   0  0  0  0  0  0  0  0  0  0  0  0
   43.4894    3.8226   12.2307 C   0  0  0  0  0  0  0  0  0  0  0  0
   45.5827    5.4924   12.8523 C   0  0  0  0  0  0  0  0  0  0  0  0
   45.0382    4.2328   12.6145 C   0  0  0  0  0  0  0  0  0  0  0  0
   44.9068    6.6322   12.3701 C   0  0  0  0  0  0  0  0  0  0  0  0
   43.8447    4.0646   11.9139 C   0  0  0  0  0  0  0  0  0  0  0  0
   43.6934    6.4520   11.6584 C   0  0  0  0  0  0  0  0  0  0  0  0
   43.1682    5.1783   11.4331 C   0  0  0  0  0  0  0  0  0  0  0  0
   46.7431    5.5571   13.5402 N   0  0  0  0  0  0  0  0  0  0  0  0
   45.7200    3.1359   13.0973 O   0  0  0  0  0  0  0  0  0  0  0  0
   43.1783    2.5011   11.6245 Cl  0  0  0  0  0  0  0  0  0  0  0  0
   42.7975    7.7951   11.0308 Cl  0  0  0  0  0  0  0  0  0  0  0  0
   45.5069    7.8818   12.6417 C   0  0  0  0  0  0  0  0  0  0  0  0
   47.2762    6.7757   13.7741 C   0  0  0  0  0  0  0  0  0  0  0  0
   46.7018    7.9555   13.3497 C   0  0  0  0  0  0  0  0  0  0  0  0
   45.8569    7.4804   12.5345 C   0  0  0  0  0  0  0  0  0  0  0  0
   44.9172    6.4667   12.3622 C   0  0  0  0  0  0  0  0  0  0  0  0
   47.1090    7.2326   13.0995 C   0  0  0  0  0  0  0  0  0  0  0  0
   43.7220    6.7672   11.8095 N   0  0  0  0  0  0  0  0  0  0  0  0
   45.2573    5.1616   12.7754 C   0  0  0  0  0  0  0  0  0  0  0  0
   47.4394    5.9414   13.5057 C   0  0  0  0  0  0  0  0  0  0  0  0
   46.5171    4.9066   13.3449 C   0  0  0  0  0  0  0  0  0  0  0  0
   45.5132    8.7522   12.1269 O   0  0  0  0  0  0  0  0  0  0  0  0
   48.2703    8.4897   13.3116 Cl  0  0  0  0  0  0  0  0  0  0  0  0
   42.8311    5.7622   11.6554 C   0  0  0  0  0  0  0  0  0  0  0  0
   44.3046    4.1502   12.5973 C   0  0  0  0  0  0  0  0  0  0  0  0
   43.0725    4.4531   12.0289 C   0  0  0  0  0  0  0  0  0  0  0  0
   48.2740    6.8525   13.7644 H   0  0  0  0  0  0  0  0  0  0  0  0
   47.0265    8.7735   12.8671 H   0  0  0  0  0  0  0  0  0  0  0  0
   45.1501    9.4708   11.9195 H   0  0  0  0  0  0  0  0  0  0  0  0
   45.2605    3.0683   13.1425 H   0  0  0  0  0  0  0  0  0  0  0  0
   41.8746    4.9170   11.3247 H   0  0  0  0  0  0  0  0  0  0  0  0
   42.9951    2.8589   12.1917 H   0  0  0  0  0  0  0  0  0  0  0  0
   42.2369    5.0562   10.8858 H   0  0  0  0  0  0  0  0  0  0  0  0
   46.5092    3.5135   13.5422 H   0  0  0  0  0  0  0  0  0  0  0  0
   45.0480    8.8083   12.3037 H   0  0  0  0  0  0  0  0  0  0  0  0
   48.2094    6.7762   14.3309 H   0  0  0  0  0  0  0  0  0  0  0  0
   47.1692    8.9107   13.5625 H   0  0  0  0  0  0  0  0  0  0  0  0
   48.4114    5.7355   13.9472 H   0  0  0  0  0  0  0  0  0  0  0  0
   46.7864    3.9024   13.6660 H   0  0  0  0  0  0  0  0  0  0  0  0
   44.6029    8.6556   11.7742 H   0  0  0  0  0  0  0  0  0  0  0  0
   41.8834    6.0484   11.2070 H   0  0  0  0  0  0  0  0  0  0  0  0
   44.5162    3.1272   12.8986 H   0  0  0  0  0  0  0  0  0  0  0  0
   42.3199    3.6865   11.8814 H   0  0  0  0  0  0  0  0  0  0  0  0
  2  1  1  0
  3  2  2  0
  4  1  1  0
  5  2  1  0
  6  4  2  0
  7  6  1  0
  8  4  1  0
  9  5  1  0
 10  1  2  0
 11 12  2  0
 12 10  1  0
 11  3  1  0
  7  5  2  0
 14 13  2  0
 15 13  1  0
 16 14  1  0
 17 15  2  0
 18 17  1  0
 19 13  1  0
 20 14  1  0
 21 16  1  0
 22 17  1  0
 23 15  1  0
 24 19  2  0
 25 23  2  0
 16 18  2  0
 24 25  1  0
 27 26  2  0
 28 26  1  0
 29 27  1  0
 30 27  1  0
 31 28  2  0
 32 31  1  0
 33 26  1  0
 34 28  1  0
 35 29  2  0
 36 30  1  0
 37 36  2  0
 32 30  2  0
 35 37  1  0
  6 38  1  0
  7 39  1  0
  9 40  1  0
 10 41  1  0
 11 42  1  0
 12 43  1  0
 18 44  1  0
 20 45  1  0
 23 46  1  0
 24 47  1  0
 25 48  1  0
 31 49  1  0
 32 50  1  0
 33 51  1  0
 35 52  1  0
 36 53  1  0
 37 54  1  0
M  END
> <Uni-Dock RESULT> 
ENERGY=  -10.164  LOWER_BOUND=    0.000  UPPER_BOUND=    0.000
INTER + INTRA:         -10.164
INTER:                 -10.164
INTRA:                   0.000
UNBOUND:                 0.000

$$$$

     RDKit          3D

 54 57  0  0  0  0  0  0  0  0999 V2000
   45.8214    5.8086   12.7536 C   0  0  0  0  0  0  0  0  0  0  0  0
   44.7589    6.4235   12.0519 C   0  0  0  0  0  0  0  0  0  0  0  0
   44.7280    7.7600   11.8408 N   0  0  0  0  0  0  0  0  0  0  0  0
   45.7990    4.4033   12.9440 C   0  0  0  0  0  0  0  0  0  0  0  0
   43.7237    5.6039   11.5735 C   0  0  0  0  0  0  0  0  0  0  0  0
   44.7523    3.6206   12.4535 C   0  0  0  0  0  0  0  0  0  0  0  0
   43.7084    4.2213   11.7646 C   0  0  0  0  0  0  0  0  0  0  0  0
   47.0615    3.5710   13.7925 Cl  0  0  0  0  0  0  0  0  0  0  0  0
   42.6798    6.1830   10.8877 O   0  0  0  0  0  0  0  0  0  0  0  0
   46.8528    6.6523   13.2265 C   0  0  0  0  0  0  0  0  0  0  0  0
   45.7338    8.5247   12.3102 C   0  0  0  0  0  0  0  0  0  0  0  0
   46.8108    8.0226   13.0040 C   0  0  0  0  0  0  0  0  0  0  0  0
   45.6137    5.5729   12.6534 C   0  0  0  0  0  0  0  0  0  0  0  0
   46.5101    6.4281   13.2896 C   0  0  0  0  0  0  0  0  0  0  0  0
   44.5371    6.1257   11.9294 C   0  0  0  0  0  0  0  0  0  0  0  0
   46.3753    7.8145   13.2324 C   0  0  0  0  0  0  0  0  0  0  0  0
   44.4076    7.5370   11.8765 C   0  0  0  0  0  0  0  0  0  0  0  0
   45.3198    8.3728   12.5231 C   0  0  0  0  0  0  0  0  0  0  0  0
   45.8247    4.2437   12.7645 N   0  0  0  0  0  0  0  0  0  0  0  0
   47.5532    5.8606   13.9904 O   0  0  0  0  0  0  0  0  0  0  0  0
   47.4902    8.8651   14.0233 Cl  0  0  0  0  0  0  0  0  0  0  0  0
   43.1164    8.3011   11.0108 Cl  0  0  0  0  0  0  0  0  0  0  0  0
   43.6615    5.2093   11.3059 C   0  0  0  0  0  0  0  0  0  0  0  0
   44.9589    3.4092   12.1497 C   0  0  0  0  0  0  0  0  0  0  0  0
   43.8731    3.8392   11.4162 C   0  0  0  0  0  0  0  0  0  0  0  0
   43.8510    5.0493   11.7892 C   0  0  0  0  0  0  0  0  0  0  0  0
   44.6575    6.1570   12.0394 C   0  0  0  0  0  0  0  0  0  0  0  0
   44.2113    3.7684   12.2110 C   0  0  0  0  0  0  0  0  0  0  0  0
   44.2562    7.3719   11.6066 N   0  0  0  0  0  0  0  0  0  0  0  0
   45.8667    5.9602   12.7386 C   0  0  0  0  0  0  0  0  0  0  0  0
   45.4068    3.5800   12.9013 C   0  0  0  0  0  0  0  0  0  0  0  0
   46.2343    4.6721   13.1657 C   0  0  0  0  0  0  0  0  0  0  0  0
   42.6714    5.2539   11.1048 O   0  0  0  0  0  0  0  0  0  0  0  0
   43.2106    2.3989   11.8997 Cl  0  0  0  0  0  0  0  0  0  0  0  0
   45.0604    8.4274   11.8645 C   0  0  0  0  0  0  0  0  0  0  0  0
   46.6698    7.0813   12.9845 C   0  0  0  0  0  0  0  0  0  0  0  0
   46.2622    8.3345   12.5416 C   0  0  0  0  0  0  0  0  0  0  0  0
   44.7482    2.5441   12.6069 H   0  0  0  0  0  0  0  0  0  0  0  0
   42.8968    3.6080   11.3853 H   0  0  0  0  0  0  0  0  0  0  0  0
   42.0439    5.5030   10.6196 H   0  0  0  0  0  0  0  0  0  0  0  0
   47.7004    6.2469   13.7739 H   0  0  0  0  0  0  0  0  0  0  0  0
   45.6413    9.5868   12.1032 H   0  0  0  0  0  0  0  0  0  0  0  0
   47.5974    8.6760   13.3631 H   0  0  0  0  0  0  0  0  0  0  0  0
   45.2072    9.4529   12.4732 H   0  0  0  0  0  0  0  0  0  0  0  0
   47.4267    4.8936   13.8790 H   0  0  0  0  0  0  0  0  0  0  0  0
   42.8069    5.5559   10.7289 H   0  0  0  0  0  0  0  0  0  0  0  0
   45.1704    2.3498   12.2679 H   0  0  0  0  0  0  0  0  0  0  0  0
   43.2056    3.1288   10.9407 H   0  0  0  0  0  0  0  0  0  0  0  0
   45.6987    2.5874   13.2351 H   0  0  0  0  0  0  0  0  0  0  0  0
   47.1655    4.5128   13.7056 H   0  0  0  0  0  0  0  0  0  0  0  0
   42.6579    6.2189   10.9289 H   0  0  0  0  0  0  0  0  0  0  0  0
   44.6991    9.3849   11.4986 H   0  0  0  0  0  0  0  0  0  0  0  0
   47.6115    6.9845   13.5193 H   0  0  0  0  0  0  0  0  0  0  0  0
   46.8676    9.2162   12.7206 H   0  0  0  0  0  0  0  0  0  0  0  0
  2  1  1  0
  3  2  2  0
  4  1  1  0
  5  2  1  0
  6  4  2  0
  7  6  1  0
  8  4  1  0
  9  5  1  0
 10  1  2  0
 11 12  2  0
 12 10  1  0
 11  3  1  0
  7  5  2  0
 14 13  2  0
 15 13  1  0
 16 14  1  0
 17 15  2  0
 18 17  1  0
 19 13  1  0
 20 14  1  0
 21 16  1  0
 22 17  1  0
 23 15  1  0
 24 19  2  0
 25 23  2  0
 16 18  2  0
 24 25  1  0
 27 26  2  0
 28 26  1  0
 29 27  1  0
 30 27  1  0
 31 28  2  0
 32 31  1  0
 33 26  1  0
 34 28  1  0
 35 29  2  0
 36 30  1  0
 37 36  2  0
 32 30  2  0
 35 37  1  0
  6 38  1  0
  7 39  1  0
  9 40  1  0
 10 41  1  0
 11 42  1  0
 12 43  1  0
 18 44  1  0
 20 45  1  0
 23 46  1  0
 24 47  1  0
 25 48  1  0
 31 49  1  0
 32 50  1  0
 33 51  1  0
 35 52  1  0
 36 53  1  0
 37 54  1  0
M  END
> <Uni-Dock RESULT> 
ENERGY=  -10.013  LOWER_BOUND=    1.245  UPPER_BOUND=    3.664
INTER + INTRA:         -10.013
INTER:                 -10.013
INTRA:                   0.000
UNBOUND:                 0.000

$$$$

     RDKit          3D

 54 57  0  0  0  0  0  0  0  0999 V2000
   45.0993    4.5189    9.8622 C   0  0  0  0  0  0  0  0  0  0  0  0
   44.5407    3.2280   10.0063 C   0  0  0  0  0  0  0  0  0  0  0  0
   44.7881    2.2441    9.1104 N   0  0  0  0  0  0  0  0  0  0  0  0
   44.8039    5.5095   10.8333 C   0  0  0  0  0  0  0  0  0  0  0  0
   43.7128    2.9883   11.1150 C   0  0  0  0  0  0  0  0  0  0  0  0
   43.9760    5.2341   11.9230 C   0  0  0  0  0  0  0  0  0  0  0  0
   43.4265    3.9683   12.0670 C   0  0  0  0  0  0  0  0  0  0  0  0
   45.4474    7.1165   10.7314 Cl  0  0  0  0  0  0  0  0  0  0  0  0
   43.1590    1.7379   11.2737 O   0  0  0  0  0  0  0  0  0  0  0  0
   45.9296    4.7384    8.7390 C   0  0  0  0  0  0  0  0  0  0  0  0
   45.5862    2.4997    8.0547 C   0  0  0  0  0  0  0  0  0  0  0  0
   46.1767    3.7213    7.8259 C   0  0  0  0  0  0  0  0  0  0  0  0
   44.9252    4.5124   10.1421 C   0  0  0  0  0  0  0  0  0  0  0  0
   45.5661    4.7765    8.9342 C   0  0  0  0  0  0  0  0  0  0  0  0
   44.3552    3.2394   10.3503 C   0  0  0  0  0  0  0  0  0  0  0  0
   45.6612    3.8202    7.9242 C   0  0  0  0  0  0  0  0  0  0  0  0
   44.4565    2.2727    9.3176 C   0  0  0  0  0  0  0  0  0  0  0  0
   45.1044    2.5623    8.1154 C   0  0  0  0  0  0  0  0  0  0  0  0
   44.8826    5.5006   11.0616 N   0  0  0  0  0  0  0  0  0  0  0  0
   46.1144    6.0292    8.7576 O   0  0  0  0  0  0  0  0  0  0  0  0
   46.4567    4.1565    6.4321 Cl  0  0  0  0  0  0  0  0  0  0  0  0
   43.7857    0.6847    9.4876 Cl  0  0  0  0  0  0  0  0  0  0  0  0
   43.7189    3.0304   11.5940 C   0  0  0  0  0  0  0  0  0  0  0  0
   44.2625    5.2507   12.2350 C   0  0  0  0  0  0  0  0  0  0  0  0
   43.6715    4.0439   12.5453 C   0  0  0  0  0  0  0  0  0  0  0  0
   43.6566    3.5292   11.3882 C   0  0  0  0  0  0  0  0  0  0  0  0
   44.4192    3.3430   10.2375 C   0  0  0  0  0  0  0  0  0  0  0  0
   43.6192    4.7557   12.0537 C   0  0  0  0  0  0  0  0  0  0  0  0
   44.4158    2.1333    9.6369 N   0  0  0  0  0  0  0  0  0  0  0  0
   45.1670    4.4336    9.7464 C   0  0  0  0  0  0  0  0  0  0  0  0
   44.3598    5.8294   11.5640 C   0  0  0  0  0  0  0  0  0  0  0  0
   45.1327    5.6711   10.4129 C   0  0  0  0  0  0  0  0  0  0  0  0
   42.9299    2.4560   11.8589 O   0  0  0  0  0  0  0  0  0  0  0  0
   42.6741    4.9831   13.4781 Cl  0  0  0  0  0  0  0  0  0  0  0  0
   45.1658    1.9836    8.5222 C   0  0  0  0  0  0  0  0  0  0  0  0
   45.9302    4.2348    8.5887 C   0  0  0  0  0  0  0  0  0  0  0  0
   45.9308    2.9919    7.9658 C   0  0  0  0  0  0  0  0  0  0  0  0
   43.7581    6.0034   12.6599 H   0  0  0  0  0  0  0  0  0  0  0  0
   42.7833    3.7594   12.9162 H   0  0  0  0  0  0  0  0  0  0  0  0
   42.6149    1.7175   12.0752 H   0  0  0  0  0  0  0  0  0  0  0  0
   46.3923    5.7071    8.5659 H   0  0  0  0  0  0  0  0  0  0  0  0
   45.7393    1.6634    7.3788 H   0  0  0  0  0  0  0  0  0  0  0  0
   46.8119    3.8814    6.9625 H   0  0  0  0  0  0  0  0  0  0  0  0
   45.1740    1.8106    7.3332 H   0  0  0  0  0  0  0  0  0  0  0  0
   45.9170    6.5039    9.5938 H   0  0  0  0  0  0  0  0  0  0  0  0
   43.2547    2.0757   11.8317 H   0  0  0  0  0  0  0  0  0  0  0  0
   44.2543    6.0760   12.9419 H   0  0  0  0  0  0  0  0  0  0  0  0
   43.1850    3.8918   13.5026 H   0  0  0  0  0  0  0  0  0  0  0  0
   44.3391    6.7897   12.0733 H   0  0  0  0  0  0  0  0  0  0  0  0
   45.7070    6.5167   10.0400 H   0  0  0  0  0  0  0  0  0  0  0  0
   43.1265    1.7337   11.2247 H   0  0  0  0  0  0  0  0  0  0  0  0
   45.1337    0.9950    8.0719 H   0  0  0  0  0  0  0  0  0  0  0  0
   46.5246    5.0426    8.1687 H   0  0  0  0  0  0  0  0  0  0  0  0
   46.5139    2.8151    7.0688 H   0  0  0  0  0  0  0  0  0  0  0  0
  2  1  1  0
  3  2  2  0
  4  1  1  0
  5  2  1  0
  6  4  2  0
  7  6  1  0
  8  4  1  0
  9  5  1  0
 10  1  2  0
 11 12  2  0
 12 10  1  0
 11  3  1  0
  7  5  2  0
 14 13  2  0
 15 13  1  0
 16 14  1  0
 17 15  2  0
 18 17  1  0
 19 13  1  0
 20 14  1  0
 21 16  1  0
 22 17  1  0
 23 15  1  0
 24 19  2  0
 25 23  2  0
 16 18  2  0
 24 25  1  0
 27 26  2  0
 28 26  1  0
 29 27  1  0
 30 27  1  0
 31 28  2  0
 32 31  1  0
 33 26  1  0
 34 28  1  0
 35 29  2  0
 36 30  1  0
 37 36  2  0
 32 30  2  0
 35 37  1  0
  6 38  1  0
  7 39  1  0
  9 40  1  0
 10 41  1  0
 11 42  1  0
 12 43  1  0
 18 44  1  0
 20 45  1  0
 23 46  1  0
 24 47  1  0
 25 48  1  0
 31 49  1  0
 32 50  1  0
 33 51  1  0
 35 52  1  0
 36 53  1  0
 37 54  1  0
M  END
> <Uni-Dock RESULT> 
ENERGY=   -9.591  LOWER_BOUND=    3.164  UPPER_BOUND=    4.802
INTER + INTRA:          -9.591
INTER:                  -9.591
INTRA:                   0.000
UNBOUND:                 0.000

$$$$

     RDKit          3D

 54 57  0  0  0  0  0  0  0  0999 V2000
   44.8861    6.7778   12.3880 C   0  0  0  0  0  0  0  0  0  0  0  0
   45.9641    6.1167   13.0206 C   0  0  0  0  0  0  0  0  0  0  0  0
   47.0401    6.7958   13.4820 N   0  0  0  0  0  0  0  0  0  0  0  0
   43.7853    6.0128   11.9249 C   0  0  0  0  0  0  0  0  0  0  0  0
   45.8906    4.7212   13.1603 C   0  0  0  0  0  0  0  0  0  0  0  0
   43.7474    4.6262   12.0816 C   0  0  0  0  0  0  0  0  0  0  0  0
   44.8038    3.9747   12.7020 C   0  0  0  0  0  0  0  0  0  0  0  0
   42.4237    6.7445   11.1390 Cl  0  0  0  0  0  0  0  0  0  0  0  0
   46.9299    4.0584   13.7734 O   0  0  0  0  0  0  0  0  0  0  0  0
   44.9808    8.1826   12.2579 C   0  0  0  0  0  0  0  0  0  0  0  0
   47.0865    8.1349   13.3356 C   0  0  0  0  0  0  0  0  0  0  0  0
   46.0897    8.8693   12.7351 C   0  0  0  0  0  0  0  0  0  0  0  0
   44.8139    6.4567   12.4062 C   0  0  0  0  0  0  0  0  0  0  0  0
   45.0088    7.8009   12.0989 C   0  0  0  0  0  0  0  0  0  0  0  0
   45.8490    5.7439   13.0459 C   0  0  0  0  0  0  0  0  0  0  0  0
   46.1967    8.4636   12.4047 C   0  0  0  0  0  0  0  0  0  0  0  0
   47.0540    6.4258   13.3533 C   0  0  0  0  0  0  0  0  0  0  0  0
   47.2247    7.7741   13.0347 C   0  0  0  0  0  0  0  0  0  0  0  0
   43.6302    5.8994   12.0714 N   0  0  0  0  0  0  0  0  0  0  0  0
   43.9803    8.4733   11.4735 O   0  0  0  0  0  0  0  0  0  0  0  0
   46.4287   10.1282   12.0204 Cl  0  0  0  0  0  0  0  0  0  0  0  0
   48.3767    5.6288   14.1380 Cl  0  0  0  0  0  0  0  0  0  0  0  0
   45.5936    4.3844   13.3322 C   0  0  0  0  0  0  0  0  0  0  0  0
   43.4351    4.5961   12.3668 C   0  0  0  0  0  0  0  0  0  0  0  0
   44.3767    3.8044   12.9902 C   0  0  0  0  0  0  0  0  0  0  0  0
   45.3845    4.5607   12.8629 C   0  0  0  0  0  0  0  0  0  0  0  0
   45.8099    5.8832   12.9646 C   0  0  0  0  0  0  0  0  0  0  0  0
   44.1712    4.2240   12.2603 C   0  0  0  0  0  0  0  0  0  0  0  0
   46.9938    6.1477   13.5585 N   0  0  0  0  0  0  0  0  0  0  0  0
   44.9798    6.8955   12.4394 C   0  0  0  0  0  0  0  0  0  0  0  0
   43.3554    5.2282   11.7432 C   0  0  0  0  0  0  0  0  0  0  0  0
   43.7568    6.5618   11.8314 C   0  0  0  0  0  0  0  0  0  0  0  0
   46.2043    3.5798   13.3799 O   0  0  0  0  0  0  0  0  0  0  0  0
   43.6473    2.5857   12.1358 Cl  0  0  0  0  0  0  0  0  0  0  0  0
   47.3792    7.4407   13.6421 C   0  0  0  0  0  0  0  0  0  0  0  0
   45.4176    8.2218   12.5474 C   0  0  0  0  0  0  0  0  0  0  0  0
   46.6353    8.5005   13.1575 C   0  0  0  0  0  0  0  0  0  0  0  0
   42.8968    4.0523   11.7216 H   0  0  0  0  0  0  0  0  0  0  0  0
   44.7693    2.8962   12.8213 H   0  0  0  0  0  0  0  0  0  0  0  0
   46.7449    3.1078   13.7996 H   0  0  0  0  0  0  0  0  0  0  0  0
   44.1883    8.7551   11.7819 H   0  0  0  0  0  0  0  0  0  0  0  0
   47.9794    8.6115   13.7296 H   0  0  0  0  0  0  0  0  0  0  0  0
   46.1699    9.9458   12.6393 H   0  0  0  0  0  0  0  0  0  0  0  0
   48.1542    8.2831   13.2769 H   0  0  0  0  0  0  0  0  0  0  0  0
   43.2729    7.8005   11.3719 H   0  0  0  0  0  0  0  0  0  0  0  0
   46.3412    3.7660   13.8242 H   0  0  0  0  0  0  0  0  0  0  0  0
   42.4679    4.1934   12.0781 H   0  0  0  0  0  0  0  0  0  0  0  0
   44.1724    2.7614   13.2063 H   0  0  0  0  0  0  0  0  0  0  0  0
   42.4081    4.9789   11.2715 H   0  0  0  0  0  0  0  0  0  0  0  0
   43.1113    7.3373   11.4241 H   0  0  0  0  0  0  0  0  0  0  0  0
   46.9744    4.0714   13.7371 H   0  0  0  0  0  0  0  0  0  0  0  0
   48.3374    7.6076   14.1270 H   0  0  0  0  0  0  0  0  0  0  0  0
   44.8157    9.0397   12.1589 H   0  0  0  0  0  0  0  0  0  0  0  0
   46.9943    9.5193   13.2523 H   0  0  0  0  0  0  0  0  0  0  0  0
  2  1  1  0
  3  2  2  0
  4  1  1  0
  5  2  1  0
  6  4  2  0
  7  6  1  0
  8  4  1  0
  9  5  1  0
 10  1  2  0
 11 12  2  0
 12 10  1  0
 11  3  1  0
  7  5  2  0
 14 13  2  0
 15 13  1  0
 16 14  1  0
 17 15  2  0
 18 17  1  0
 19 13  1  0
 20 14  1  0
 21 16  1  0
 22 17  1  0
 23 15  1  0
 24 19  2  0
 25 23  2  0
 16 18  2  0
 24 25  1  0
 27 26  2  0
 28 26  1  0
 29 27  1  0
 30 27  1  0
 31 28  2  0
 32 31  1  0
 33 26  1  0
 34 28  1  0
 35 29  2  0
 36 30  1  0
 37 36  2  0
 32 30  2  0
 35 37  1  0
  6 38  1  0
  7 39  1  0
  9 40  1  0
 10 41  1  0
 11 42  1  0
 12 43  1  0
 18 44  1  0
 20 45  1  0
 23 46  1  0
 24 47  1  0
 25 48  1  0
 31 49  1  0
 32 50  1  0
 33 51  1  0
 35 52  1  0
 36 53  1  0
 37 54  1  0
M  END
> <Uni-Dock RESULT> 
ENERGY=   -9.527  LOWER_BOUND=    0.850  UPPER_BOUND=    4.567
INTER + INTRA:          -9.527
INTER:                  -9.527
INTRA:                   0.000
UNBOUND:                 0.000

$$$$

     RDKit          3D

 54 57  0  0  0  0  0  0  0  0999 V2000
   45.2795    6.8764   12.3868 C   0  0  0  0  0  0  0  0  0  0  0  0
   46.1527    5.9803   13.0453 C   0  0  0  0  0  0  0  0  0  0  0  0
   45.9285    4.6456   13.0493 N   0  0  0  0  0  0  0  0  0  0  0  0
   45.5665    8.2651   12.4170 C   0  0  0  0  0  0  0  0  0  0  0  0
   47.2723    6.5151   13.7033 C   0  0  0  0  0  0  0  0  0  0  0  0
   46.6897    8.7602   13.0818 C   0  0  0  0  0  0  0  0  0  0  0  0
   47.5484    7.8832   13.7288 C   0  0  0  0  0  0  0  0  0  0  0  0
   44.5480    9.4309   11.6357 Cl  0  0  0  0  0  0  0  0  0  0  0  0
   48.1350    5.6596   14.3506 O   0  0  0  0  0  0  0  0  0  0  0  0
   44.1589    6.3167   11.7309 C   0  0  0  0  0  0  0  0  0  0  0  0
   44.8467    4.1573   12.4104 C   0  0  0  0  0  0  0  0  0  0  0  0
   43.9385    4.9455   11.7414 C   0  0  0  0  0  0  0  0  0  0  0  0
   45.5297    7.0501   12.5130 C   0  0  0  0  0  0  0  0  0  0  0  0
   44.3291    6.5156   12.0521 C   0  0  0  0  0  0  0  0  0  0  0  0
   46.4473    6.2049   13.1705 C   0  0  0  0  0  0  0  0  0  0  0  0
   44.0068    5.1698   12.2212 C   0  0  0  0  0  0  0  0  0  0  0  0
   46.1114    4.8373   13.3382 C   0  0  0  0  0  0  0  0  0  0  0  0
   44.9010    4.3258   12.8669 C   0  0  0  0  0  0  0  0  0  0  0  0
   45.7550    8.3651   12.3038 N   0  0  0  0  0  0  0  0  0  0  0  0
   43.4506    7.3646   11.4129 O   0  0  0  0  0  0  0  0  0  0  0  0
   42.5179    4.5172   11.6470 Cl  0  0  0  0  0  0  0  0  0  0  0  0
   47.1782    3.7283   14.1335 Cl  0  0  0  0  0  0  0  0  0  0  0  0
   47.6470    6.8033   13.6155 C   0  0  0  0  0  0  0  0  0  0  0  0
   46.9175    8.8894   12.7484 C   0  0  0  0  0  0  0  0  0  0  0  0
   47.8853    8.1569   13.4032 C   0  0  0  0  0  0  0  0  0  0  0  0
   47.2067    7.1185   13.6582 C   0  0  0  0  0  0  0  0  0  0  0  0
   46.2915    6.2197   13.1152 C   0  0  0  0  0  0  0  0  0  0  0  0
   47.0895    8.4953   13.4603 C   0  0  0  0  0  0  0  0  0  0  0  0
   46.4568    4.8983   13.3410 N   0  0  0  0  0  0  0  0  0  0  0  0
   45.2247    6.7324   12.3479 C   0  0  0  0  0  0  0  0  0  0  0  0
   46.0337    8.9960   12.7015 C   0  0  0  0  0  0  0  0  0  0  0  0
   45.1020    8.1183   12.1456 C   0  0  0  0  0  0  0  0  0  0  0  0
   48.2454    6.6057   14.4064 O   0  0  0  0  0  0  0  0  0  0  0  0
   48.2243    9.6055   14.1339 Cl  0  0  0  0  0  0  0  0  0  0  0  0
   45.5523    4.0512   12.8008 C   0  0  0  0  0  0  0  0  0  0  0  0
   44.3104    5.8194   11.8068 C   0  0  0  0  0  0  0  0  0  0  0  0
   44.4751    4.4580   12.0356 C   0  0  0  0  0  0  0  0  0  0  0  0
   46.8974    9.8274   13.0968 H   0  0  0  0  0  0  0  0  0  0  0  0
   48.4205    8.2735   14.2444 H   0  0  0  0  0  0  0  0  0  0  0  0
   48.8559    6.1633   14.7570 H   0  0  0  0  0  0  0  0  0  0  0  0
   43.4461    6.9471   11.2046 H   0  0  0  0  0  0  0  0  0  0  0  0
   44.7318    3.0783   12.4561 H   0  0  0  0  0  0  0  0  0  0  0  0
   43.0821    4.5086   11.2411 H   0  0  0  0  0  0  0  0  0  0  0  0
   44.6577    3.2750   13.0030 H   0  0  0  0  0  0  0  0  0  0  0  0
   43.9010    8.2367   11.4223 H   0  0  0  0  0  0  0  0  0  0  0  0
   48.4060    6.2191   14.1314 H   0  0  0  0  0  0  0  0  0  0  0  0
   47.0528    9.9505   12.5567 H   0  0  0  0  0  0  0  0  0  0  0  0
   48.8037    8.6242   13.7416 H   0  0  0  0  0  0  0  0  0  0  0  0
   45.9314   10.0662   12.5401 H   0  0  0  0  0  0  0  0  0  0  0  0
   44.2818    8.5210   11.5549 H   0  0  0  0  0  0  0  0  0  0  0  0
   48.0991    5.6357   14.3908 H   0  0  0  0  0  0  0  0  0  0  0  0
   45.7235    2.9980   13.0074 H   0  0  0  0  0  0  0  0  0  0  0  0
   43.4703    6.1621   11.2078 H   0  0  0  0  0  0  0  0  0  0  0  0
   43.7800    3.7331   11.6268 H   0  0  0  0  0  0  0  0  0  0  0  0
  2  1  1  0
  3  2  2  0
  4  1  1  0
  5  2  1  0
  6  4  2  0
  7  6  1  0
  8  4  1  0
  9  5  1  0
 10  1  2  0
 11 12  2  0
 12 10  1  0
 11  3  1  0
  7  5  2  0
 14 13  2  0
 15 13  1  0
 16 14  1  0
 17 15  2  0
 18 17  1  0
 19 13  1  0
 20 14  1  0
 21 16  1  0
 22 17  1  0
 23 15  1  0
 24 19  2  0
 25 23  2  0
 16 18  2  0
 24 25  1  0
 27 26  2  0
 28 26  1  0
 29 27  1  0
 30 27  1  0
 31 28  2  0
 32 31  1  0
 33 26  1  0
 34 28  1  0
 35 29  2  0
 36 30  1  0
 37 36  2  0
 32 30  2  0
 35 37  1  0
  6 38  1  0
  7 39  1  0
  9 40  1  0
 10 41  1  0
 11 42  1  0
 12 43  1  0
 18 44  1  0
 20 45  1  0
 23 46  1  0
 24 47  1  0
 25 48  1  0
 31 49  1  0
 32 50  1  0
 33 51  1  0
 35 52  1  0
 36 53  1  0
 37 54  1  0
M  END
> <Uni-Dock RESULT> 
ENERGY=   -8.920  LOWER_BOUND=    1.381  UPPER_BOUND=    3.029
INTER + INTRA:          -8.920
INTER:                  -8.920
INTRA:                   0.000
UNBOUND:                 0.000

$$$$

     RDKit          3D

 54 57  0  0  0  0  0  0  0  0999 V2000
   45.5323    7.3516   12.5799 C   0  0  0  0  0  0  0  0  0  0  0  0
   46.8405    7.6602   13.0189 C   0  0  0  0  0  0  0  0  0  0  0  0
   47.3327    8.9191   12.9510 N   0  0  0  0  0  0  0  0  0  0  0  0
   45.0713    6.0137   12.6758 C   0  0  0  0  0  0  0  0  0  0  0  0
   47.6263    6.6162   13.5334 C   0  0  0  0  0  0  0  0  0  0  0  0
   45.8818    5.0017   13.1932 C   0  0  0  0  0  0  0  0  0  0  0  0
   47.1659    5.3017   13.6248 C   0  0  0  0  0  0  0  0  0  0  0  0
   43.4818    5.5505   12.1604 Cl  0  0  0  0  0  0  0  0  0  0  0  0
   48.9030    6.8958   13.9662 O   0  0  0  0  0  0  0  0  0  0  0  0
   44.7586    8.4174   12.0656 C   0  0  0  0  0  0  0  0  0  0  0  0
   46.5583    9.9036   12.4531 C   0  0  0  0  0  0  0  0  0  0  0  0
   45.2739    9.7055   12.0007 C   0  0  0  0  0  0  0  0  0  0  0  0
   45.6679    7.0768   12.7015 C   0  0  0  0  0  0  0  0  0  0  0  0
   44.9953    8.0817   12.0108 C   0  0  0  0  0  0  0  0  0  0  0  0
   46.9733    7.3264   13.1732 C   0  0  0  0  0  0  0  0  0  0  0  0
   45.5735    9.3275   11.7714 C   0  0  0  0  0  0  0  0  0  0  0  0
   47.5538    8.5964   12.9253 C   0  0  0  0  0  0  0  0  0  0  0  0
   46.8584    9.5873   12.2301 C   0  0  0  0  0  0  0  0  0  0  0  0
   45.0276    5.9021   12.8856 N   0  0  0  0  0  0  0  0  0  0  0  0
   43.7204    7.8104   11.5610 O   0  0  0  0  0  0  0  0  0  0  0  0
   44.7328   10.5655   10.9153 Cl  0  0  0  0  0  0  0  0  0  0  0  0
   49.1512    8.9892   13.4680 Cl  0  0  0  0  0  0  0  0  0  0  0  0
   47.6049    6.2700   13.8663 C   0  0  0  0  0  0  0  0  0  0  0  0
   45.6746    4.9236   13.5548 C   0  0  0  0  0  0  0  0  0  0  0  0
   46.9510    5.0578   14.0594 C   0  0  0  0  0  0  0  0  0  0  0  0
   47.2932    6.1139   13.4498 C   0  0  0  0  0  0  0  0  0  0  0  0
   46.8520    7.3804   13.0735 C   0  0  0  0  0  0  0  0  0  0  0  0
   46.4751    4.9883   13.3385 C   0  0  0  0  0  0  0  0  0  0  0  0
   47.6891    8.4323   13.2042 N   0  0  0  0  0  0  0  0  0  0  0  0
   45.5411    7.5099   12.5690 C   0  0  0  0  0  0  0  0  0  0  0  0
   45.1812    5.1223   12.8395 C   0  0  0  0  0  0  0  0  0  0  0  0
   44.7131    6.3794   12.4548 C   0  0  0  0  0  0  0  0  0  0  0  0
   48.5764    5.9996   13.9417 O   0  0  0  0  0  0  0  0  0  0  0  0
   47.0242    3.4216   13.8053 Cl  0  0  0  0  0  0  0  0  0  0  0  0
   47.2321    9.6485   12.8307 C   0  0  0  0  0  0  0  0  0  0  0  0
   45.1081    8.7882   12.1938 C   0  0  0  0  0  0  0  0  0  0  0  0
   45.9651    9.8749   12.3258 C   0  0  0  0  0  0  0  0  0  0  0  0
   45.5152    3.9802   13.2609 H   0  0  0  0  0  0  0  0  0  0  0  0
   47.7921    4.5109   14.0263 H   0  0  0  0  0  0  0  0  0  0  0  0
   49.3249    6.0871   14.2928 H   0  0  0  0  0  0  0  0  0  0  0  0
   43.7443    8.2519   11.7102 H   0  0  0  0  0  0  0  0  0  0  0  0
   47.0197   10.8865   12.4297 H   0  0  0  0  0  0  0  0  0  0  0  0
   44.6874   10.5279   11.6079 H   0  0  0  0  0  0  0  0  0  0  0  0
   47.3169   10.5561   12.0479 H   0  0  0  0  0  0  0  0  0  0  0  0
   43.5489    6.8883   11.8503 H   0  0  0  0  0  0  0  0  0  0  0  0
   48.6120    6.3832   14.2616 H   0  0  0  0  0  0  0  0  0  0  0  0
   45.1188    3.9978   13.6775 H   0  0  0  0  0  0  0  0  0  0  0  0
   47.4287    4.2416   14.5904 H   0  0  0  0  0  0  0  0  0  0  0  0
   44.5342    4.2534   12.7479 H   0  0  0  0  0  0  0  0  0  0  0  0
   43.7008    6.4717   12.0665 H   0  0  0  0  0  0  0  0  0  0  0  0
   48.9277    6.9152   13.9164 H   0  0  0  0  0  0  0  0  0  0  0  0
   47.9380   10.4657   12.9527 H   0  0  0  0  0  0  0  0  0  0  0  0
   44.1070    8.9429   11.7990 H   0  0  0  0  0  0  0  0  0  0  0  0
   45.6515   10.8734   12.0419 H   0  0  0  0  0  0  0  0  0  0  0  0
  2  1  1  0
  3  2  2  0
  4  1  1  0
  5  2  1  0
  6  4  2  0
  7  6  1  0
  8  4  1  0
  9  5  1  0
 10  1  2  0
 11 12  2  0
 12 10  1  0
 11  3  1  0
  7  5  2  0
 14 13  2  0
 15 13  1  0
 16 14  1  0
 17 15  2  0
 18 17  1  0
 19 13  1  0
 20 14  1  0
 21 16  1  0
 22 17  1  0
 23 15  1  0
 24 19  2  0
 25 23  2  0
 16 18  2  0
 24 25  1  0
 27 26  2  0
 28 26  1  0
 29 27  1  0
 30 27  1  0
 31 28  2  0
 32 31  1  0
 33 26  1  0
 34 28  1  0
 35 29  2  0
 36 30  1  0
 37 36  2  0
 32 30  2  0
 35 37  1  0
  6 38  1  0
  7 39  1  0
  9 40  1  0
 10 41  1  0
 11 42  1  0
 12 43  1  0
 18 44  1  0
 20 45  1  0
 23 46  1  0
 24 47  1  0
 25 48  1  0
 31 49  1  0
 32 50  1  0
 33 51  1  0
 35 52  1  0
 36 53  1  0
 37 54  1  0
M  END
> <Uni-Dock RESULT> 
ENERGY=   -8.653  LOWER_BOUND=    1.743  UPPER_BOUND=    4.292
INTER + INTRA:          -8.653
INTER:                  -8.653
INTRA:                   0.000
UNBOUND:                 0.000

$$$$

     RDKit          3D

 54 57  0  0  0  0  0  0  0  0999 V2000
   47.5678    8.2988   21.6205 C   0  0  0  0  0  0  0  0  0  0  0  0
   47.6676    7.2422   20.6862 C   0  0  0  0  0  0  0  0  0  0  0  0
   47.7200    7.4760   19.3542 N   0  0  0  0  0  0  0  0  0  0  0  0
   47.5166    7.9921   23.0043 C   0  0  0  0  0  0  0  0  0  0  0  0
   47.7115    5.9282   21.1798 C   0  0  0  0  0  0  0  0  0  0  0  0
   47.5628    6.6726   23.4578 C   0  0  0  0  0  0  0  0  0  0  0  0
   47.6607    5.6338   22.5433 C   0  0  0  0  0  0  0  0  0  0  0  0
   47.3942    9.2272   24.2152 Cl  0  0  0  0  0  0  0  0  0  0  0  0
   47.8086    4.8850   20.2866 O   0  0  0  0  0  0  0  0  0  0  0  0
   47.5250    9.6135   21.1020 C   0  0  0  0  0  0  0  0  0  0  0  0
   47.6761    8.7463   18.9058 C   0  0  0  0  0  0  0  0  0  0  0  0
   47.5796    9.8418   19.7330 C   0  0  0  0  0  0  0  0  0  0  0  0
   47.5869    8.0150   21.7872 C   0  0  0  0  0  0  0  0  0  0  0  0
   47.3376    9.2810   21.2632 C   0  0  0  0  0  0  0  0  0  0  0  0
   47.7060    6.9208   20.9056 C   0  0  0  0  0  0  0  0  0  0  0  0
   47.2021    9.4995   19.8930 C   0  0  0  0  0  0  0  0  0  0  0  0
   47.5668    7.1521   19.5133 C   0  0  0  0  0  0  0  0  0  0  0  0
   47.3170    8.4312   19.0130 C   0  0  0  0  0  0  0  0  0  0  0  0
   47.7028    7.9000   23.1278 N   0  0  0  0  0  0  0  0  0  0  0  0
   47.2257   10.3326   22.1480 O   0  0  0  0  0  0  0  0  0  0  0  0
   46.8936   11.0706   19.2536 Cl  0  0  0  0  0  0  0  0  0  0  0  0
   47.6982    5.8672   18.3590 Cl  0  0  0  0  0  0  0  0  0  0  0  0
   47.9588    5.6622   21.4949 C   0  0  0  0  0  0  0  0  0  0  0  0
   47.9446    6.6749   23.6420 C   0  0  0  0  0  0  0  0  0  0  0  0
   48.0793    5.5369   22.8748 C   0  0  0  0  0  0  0  0  0  0  0  0
   47.6261    5.9835   21.7798 C   0  0  0  0  0  0  0  0  0  0  0  0
   47.6583    7.0792   20.9202 C   0  0  0  0  0  0  0  0  0  0  0  0
   47.5264    6.1385   23.1634 C   0  0  0  0  0  0  0  0  0  0  0  0
   47.7558    6.8667   19.5900 N   0  0  0  0  0  0  0  0  0  0  0  0
   47.5874    8.3717   21.4806 C   0  0  0  0  0  0  0  0  0  0  0  0
   47.4566    7.4176   23.7113 C   0  0  0  0  0  0  0  0  0  0  0  0
   47.4867    8.5333   22.8736 C   0  0  0  0  0  0  0  0  0  0  0  0
   47.6962    4.7250   21.2205 O   0  0  0  0  0  0  0  0  0  0  0  0
   47.4867    4.7800   24.2250 Cl  0  0  0  0  0  0  0  0  0  0  0  0
   47.7849    7.9499   18.7817 C   0  0  0  0  0  0  0  0  0  0  0  0
   47.6207    9.4661   20.6068 C   0  0  0  0  0  0  0  0  0  0  0  0
   47.7209    9.2539   19.2365 C   0  0  0  0  0  0  0  0  0  0  0  0
   47.5226    6.4522   24.5219 H   0  0  0  0  0  0  0  0  0  0  0  0
   47.6962    4.6095   22.9013 H   0  0  0  0  0  0  0  0  0  0  0  0
   47.8287    4.0425   20.7645 H   0  0  0  0  0  0  0  0  0  0  0  0
   47.4487   10.4735   21.7630 H   0  0  0  0  0  0  0  0  0  0  0  0
   47.7227    8.8566   17.8264 H   0  0  0  0  0  0  0  0  0  0  0  0
   47.5474   10.8463   19.3276 H   0  0  0  0  0  0  0  0  0  0  0  0
   47.2129    8.5926   17.9430 H   0  0  0  0  0  0  0  0  0  0  0  0
   47.3576    9.9255   23.0314 H   0  0  0  0  0  0  0  0  0  0  0  0
   48.0639    4.7688   20.8832 H   0  0  0  0  0  0  0  0  0  0  0  0
   48.0297    6.6333   24.7247 H   0  0  0  0  0  0  0  0  0  0  0  0
   48.2734    4.5743   23.3354 H   0  0  0  0  0  0  0  0  0  0  0  0
   47.3787    7.5516   24.7874 H   0  0  0  0  0  0  0  0  0  0  0  0
   47.4316    9.5272   23.3130 H   0  0  0  0  0  0  0  0  0  0  0  0
   47.7589    4.8919   20.2558 H   0  0  0  0  0  0  0  0  0  0  0  0
   47.8639    7.7330   17.7196 H   0  0  0  0  0  0  0  0  0  0  0  0
   47.5690   10.4833   20.9870 H   0  0  0  0  0  0  0  0  0  0  0  0
   47.7483   10.0857   18.5413 H   0  0  0  0  0  0  0  0  0  0  0  0
  2  1  1  0
  3  2  2  0
  4  1  1  0
  5  2  1  0
  6  4  2  0
  7  6  1  0
  8  4  1  0
  9  5  1  0
 10  1  2  0
 11 12  2  0
 12 10  1  0
 11  3  1  0
  7  5  2  0
 14 13  2  0
 15 13  1  0
 16 14  1  0
 17 15  2  0
 18 17  1  0
 19 13  1  0
 20 14  1  0
 21 16  1  0
 22 17  1  0
 23 15  1  0
 24 19  2  0
 25 23  2  0
 16 18  2  0
 24 25  1  0
 27 26  2  0
 28 26  1  0
 29 27  1  0
 30 27  1  0
 31 28  2  0
 32 31  1  0
 33 26  1  0
 34 28  1  0
 35 29  2  0
 36 30  1  0
 37 36  2  0
 32 30  2  0
 35 37  1  0
  6 38  1  0
  7 39  1  0
  9 40  1  0
 10 41  1  0
 11 42  1  0
 12 43  1  0
 18 44  1  0
 20 45  1  0
 23 46  1  0
 24 47  1  0
 25 48  1  0
 31 49  1  0
 32 50  1  0
 33 51  1  0
 35 52  1  0
 36 53  1  0
 37 54  1  0
M  END
> <Uni-Dock RESULT> 
ENERGY=   -8.622  LOWER_BOUND=    8.002  UPPER_BOUND=    9.911
INTER + INTRA:          -8.622
INTER:                  -8.622
INTRA:                   0.000
UNBOUND:                 0.000

$$$$

     RDKit          3D

 54 57  0  0  0  0  0  0  0  0999 V2000
   46.0962    8.9823   12.3161 C   0  0  0  0  0  0  0  0  0  0  0  0
   44.9135    8.3431   11.8779 C   0  0  0  0  0  0  0  0  0  0  0  0
   44.6956    7.0258   12.0992 N   0  0  0  0  0  0  0  0  0  0  0  0
   46.2687   10.3656   12.0551 C   0  0  0  0  0  0  0  0  0  0  0  0
   43.9587    9.1175   11.1992 C   0  0  0  0  0  0  0  0  0  0  0  0
   45.2968   11.1034   11.3770 C   0  0  0  0  0  0  0  0  0  0  0  0
   44.1352   10.4788   10.9459 C   0  0  0  0  0  0  0  0  0  0  0  0
   47.6882   11.2253   12.5577 Cl  0  0  0  0  0  0  0  0  0  0  0  0
   42.8001    8.5142   10.7642 O   0  0  0  0  0  0  0  0  0  0  0  0
   47.0439    8.1839   12.9971 C   0  0  0  0  0  0  0  0  0  0  0  0
   45.6277    6.3043   12.7530 C   0  0  0  0  0  0  0  0  0  0  0  0
   46.8098    6.8330   13.2187 C   0  0  0  0  0  0  0  0  0  0  0  0
   45.9025    9.2088   12.1752 C   0  0  0  0  0  0  0  0  0  0  0  0
   46.9116    8.3780   12.6557 C   0  0  0  0  0  0  0  0  0  0  0  0
   44.6945    8.6320   11.7314 C   0  0  0  0  0  0  0  0  0  0  0  0
   46.7638    6.9928   12.7112 C   0  0  0  0  0  0  0  0  0  0  0  0
   44.5527    7.2222   11.7915 C   0  0  0  0  0  0  0  0  0  0  0  0
   45.5796    6.4110   12.2775 C   0  0  0  0  0  0  0  0  0  0  0  0
   46.1362   10.5388   12.1591 N   0  0  0  0  0  0  0  0  0  0  0  0
   48.0820    8.9687   13.0829 O   0  0  0  0  0  0  0  0  0  0  0  0
   48.0189    5.9724   13.3078 Cl  0  0  0  0  0  0  0  0  0  0  0  0
   43.1043    6.4295   11.2678 Cl  0  0  0  0  0  0  0  0  0  0  0  0
   43.7085    9.5244   11.2552 C   0  0  0  0  0  0  0  0  0  0  0  0
   45.1614   11.3498   11.6943 C   0  0  0  0  0  0  0  0  0  0  0  0
   43.9427   10.8951   11.2359 C   0  0  0  0  0  0  0  0  0  0  0  0
   44.2190    9.6635   11.1323 C   0  0  0  0  0  0  0  0  0  0  0  0
   44.8521    8.6018   11.7743 C   0  0  0  0  0  0  0  0  0  0  0  0
   44.7933   10.9345   11.0748 C   0  0  0  0  0  0  0  0  0  0  0  0
   44.2472    7.3944   11.7973 N   0  0  0  0  0  0  0  0  0  0  0  0
   46.1059    8.8357   12.3768 C   0  0  0  0  0  0  0  0  0  0  0  0
   46.0320   11.1596   11.6716 C   0  0  0  0  0  0  0  0  0  0  0  0
   46.6888   10.1140   12.3218 C   0  0  0  0  0  0  0  0  0  0  0  0
   42.9937    9.4230   10.5471 O   0  0  0  0  0  0  0  0  0  0  0  0
   44.0071   12.2470   10.2791 Cl  0  0  0  0  0  0  0  0  0  0  0  0
   44.8863    6.3839   12.4281 C   0  0  0  0  0  0  0  0  0  0  0  0
   46.7332    7.7608   13.0197 C   0  0  0  0  0  0  0  0  0  0  0  0
   46.1157    6.5155   13.0467 C   0  0  0  0  0  0  0  0  0  0  0  0
   45.4424   12.1635   11.1838 H   0  0  0  0  0  0  0  0  0  0  0  0
   43.3826   11.0572   10.4189 H   0  0  0  0  0  0  0  0  0  0  0  0
   42.2383    9.1638   10.3158 H   0  0  0  0  0  0  0  0  0  0  0  0
   47.9755    8.6100   13.3618 H   0  0  0  0  0  0  0  0  0  0  0  0
   45.3843    5.2554   12.8939 H   0  0  0  0  0  0  0  0  0  0  0  0
   47.5310    6.2143   13.7399 H   0  0  0  0  0  0  0  0  0  0  0  0
   45.4559    5.3317   12.3174 H   0  0  0  0  0  0  0  0  0  0  0  0
   47.9373    9.9295   12.9437 H   0  0  0  0  0  0  0  0  0  0  0  0
   42.7495    9.1584   10.8951 H   0  0  0  0  0  0  0  0  0  0  0  0
   45.3963   12.4109   11.7012 H   0  0  0  0  0  0  0  0  0  0  0  0
   43.1911   11.5872   10.8720 H   0  0  0  0  0  0  0  0  0  0  0  0
   46.4898   12.1450   11.6339 H   0  0  0  0  0  0  0  0  0  0  0  0
   47.6556   10.3018   12.7842 H   0  0  0  0  0  0  0  0  0  0  0  0
   42.8217    8.4740   10.7270 H   0  0  0  0  0  0  0  0  0  0  0  0
   44.3642    5.4307   12.4223 H   0  0  0  0  0  0  0  0  0  0  0  0
   47.7004    7.8874   13.4998 H   0  0  0  0  0  0  0  0  0  0  0  0
   46.5825    5.6692   13.5384 H   0  0  0  0  0  0  0  0  0  0  0  0
  2  1  1  0
  3  2  2  0
  4  1  1  0
  5  2  1  0
  6  4  2  0
  7  6  1  0
  8  4  1  0
  9  5  1  0
 10  1  2  0
 11 12  2  0
 12 10  1  0
 11  3  1  0
  7  5  2  0
 14 13  2  0
 15 13  1  0
 16 14  1  0
 17 15  2  0
 18 17  1  0
 19 13  1  0
 20 14  1  0
 21 16  1  0
 22 17  1  0
 23 15  1  0
 24 19  2  0
 25 23  2  0
 16 18  2  0
 24 25  1  0
 27 26  2  0
 28 26  1  0
 29 27  1  0
 30 27  1  0
 31 28  2  0
 32 31  1  0
 33 26  1  0
 34 28  1  0
 35 29  2  0
 36 30  1  0
 37 36  2  0
 32 30  2  0
 35 37  1  0
  6 38  1  0
  7 39  1  0
  9 40  1  0
 10 41  1  0
 11 42  1  0
 12 43  1  0
 18 44  1  0
 20 45  1  0
 23 46  1  0
 24 47  1  0
 25 48  1  0
 31 49  1  0
 32 50  1  0
 33 51  1  0
 35 52  1  0
 36 53  1  0
 37 54  1  0
M  END
> <Uni-Dock RESULT> 
ENERGY=   -8.477  LOWER_BOUND=    2.301  UPPER_BOUND=    4.170
INTER + INTRA:          -8.477
INTER:                  -8.477
INTRA:                   0.000
UNBOUND:                 0.000

$$$$

     RDKit          3D

 54 57  0  0  0  0  0  0  0  0999 V2000
   47.9137    7.2076   20.0329 C   0  0  0  0  0  0  0  0  0  0  0  0
   47.6807    7.2474   21.4269 C   0  0  0  0  0  0  0  0  0  0  0  0
   47.8784    6.1615   22.2103 N   0  0  0  0  0  0  0  0  0  0  0  0
   47.6888    8.3776   19.2634 C   0  0  0  0  0  0  0  0  0  0  0  0
   47.2336    8.4556   21.9861 C   0  0  0  0  0  0  0  0  0  0  0  0
   47.2440    9.5613   19.8547 C   0  0  0  0  0  0  0  0  0  0  0  0
   47.0145    9.6033   21.2224 C   0  0  0  0  0  0  0  0  0  0  0  0
   47.9499    8.4142   17.5495 Cl  0  0  0  0  0  0  0  0  0  0  0  0
   47.0009    8.5153   23.3416 O   0  0  0  0  0  0  0  0  0  0  0  0
   48.3632    5.9815   19.4910 C   0  0  0  0  0  0  0  0  0  0  0  0
   48.3078    5.0136   21.6492 C   0  0  0  0  0  0  0  0  0  0  0  0
   48.5628    4.8735   20.3043 C   0  0  0  0  0  0  0  0  0  0  0  0
   47.8231    7.5142   20.1137 C   0  0  0  0  0  0  0  0  0  0  0  0
   48.0628    6.2575   19.5634 C   0  0  0  0  0  0  0  0  0  0  0  0
   47.5923    7.6210   21.5008 C   0  0  0  0  0  0  0  0  0  0  0  0
   48.0814    5.1016   20.3425 C   0  0  0  0  0  0  0  0  0  0  0  0
   47.6131    6.4401   22.2859 C   0  0  0  0  0  0  0  0  0  0  0  0
   47.8557    5.1918   21.7100 C   0  0  0  0  0  0  0  0  0  0  0  0
   47.8242    8.5770   19.2806 N   0  0  0  0  0  0  0  0  0  0  0  0
   48.2852    6.1823   18.2047 O   0  0  0  0  0  0  0  0  0  0  0  0
   48.3792    3.5500   19.6521 Cl  0  0  0  0  0  0  0  0  0  0  0  0
   47.3400    6.4783   23.9960 Cl  0  0  0  0  0  0  0  0  0  0  0  0
   47.3552    8.9206   22.0012 C   0  0  0  0  0  0  0  0  0  0  0  0
   47.5924    9.7984   19.8083 C   0  0  0  0  0  0  0  0  0  0  0  0
   47.3550   10.0194   21.1487 C   0  0  0  0  0  0  0  0  0  0  0  0
   47.1435    8.8242   21.5103 C   0  0  0  0  0  0  0  0  0  0  0  0
   47.6029    7.5165   21.3723 C   0  0  0  0  0  0  0  0  0  0  0  0
   47.0362    9.6840   20.4159 C   0  0  0  0  0  0  0  0  0  0  0  0
   47.6852    6.7310   22.4680 N   0  0  0  0  0  0  0  0  0  0  0  0
   47.9646    7.0665   20.0853 C   0  0  0  0  0  0  0  0  0  0  0  0
   47.3949    9.2341   19.1471 C   0  0  0  0  0  0  0  0  0  0  0  0
   47.8583    7.9285   18.9797 C   0  0  0  0  0  0  0  0  0  0  0  0
   46.7929    9.2529   22.7732 O   0  0  0  0  0  0  0  0  0  0  0  0
   46.4671   11.3026   20.5900 Cl  0  0  0  0  0  0  0  0  0  0  0  0
   48.1347    5.4670   22.3020 C   0  0  0  0  0  0  0  0  0  0  0  0
   48.4252    5.7497   19.9584 C   0  0  0  0  0  0  0  0  0  0  0  0
   48.5122    4.9362   21.0825 C   0  0  0  0  0  0  0  0  0  0  0  0
   47.0758   10.4509   19.2523 H   0  0  0  0  0  0  0  0  0  0  0  0
   46.6686   10.5264   21.6772 H   0  0  0  0  0  0  0  0  0  0  0  0
   46.6987    9.4029   23.5856 H   0  0  0  0  0  0  0  0  0  0  0  0
   48.5624    5.8796   18.4269 H   0  0  0  0  0  0  0  0  0  0  0  0
   48.4439    4.1857   22.3388 H   0  0  0  0  0  0  0  0  0  0  0  0
   48.9072    3.9302   19.8968 H   0  0  0  0  0  0  0  0  0  0  0  0
   47.8686    4.2955   22.3250 H   0  0  0  0  0  0  0  0  0  0  0  0
   48.2209    7.1110   17.8935 H   0  0  0  0  0  0  0  0  0  0  0  0
   47.1687    9.0872   23.0599 H   0  0  0  0  0  0  0  0  0  0  0  0
   47.6033   10.6215   19.0987 H   0  0  0  0  0  0  0  0  0  0  0  0
   47.1739   11.0205   21.5246 H   0  0  0  0  0  0  0  0  0  0  0  0
   47.3159    9.8940   18.2867 H   0  0  0  0  0  0  0  0  0  0  0  0
   48.1356    7.5883   17.9840 H   0  0  0  0  0  0  0  0  0  0  0  0
   46.9583    8.4749   23.3475 H   0  0  0  0  0  0  0  0  0  0  0  0
   48.1848    4.8706   23.2092 H   0  0  0  0  0  0  0  0  0  0  0  0
   48.7169    5.3533   18.9890 H   0  0  0  0  0  0  0  0  0  0  0  0
   48.8658    3.9138   21.0082 H   0  0  0  0  0  0  0  0  0  0  0  0
  2  1  1  0
  3  2  2  0
  4  1  1  0
  5  2  1  0
  6  4  2  0
  7  6  1  0
  8  4  1  0
  9  5  1  0
 10  1  2  0
 11 12  2  0
 12 10  1  0
 11  3  1  0
  7  5  2  0
 14 13  2  0
 15 13  1  0
 16 14  1  0
 17 15  2  0
 18 17  1  0
 19 13  1  0
 20 14  1  0
 21 16  1  0
 22 17  1  0
 23 15  1  0
 24 19  2  0
 25 23  2  0
 16 18  2  0
 24 25  1  0
 27 26  2  0
 28 26  1  0
 29 27  1  0
 30 27  1  0
 31 28  2  0
 32 31  1  0
 33 26  1  0
 34 28  1  0
 35 29  2  0
 36 30  1  0
 37 36  2  0
 32 30  2  0
 35 37  1  0
  6 38  1  0
  7 39  1  0
  9 40  1  0
 10 41  1  0
 11 42  1  0
 12 43  1  0
 18 44  1  0
 20 45  1  0
 23 46  1  0
 24 47  1  0
 25 48  1  0
 31 49  1  0
 32 50  1  0
 33 51  1  0
 35 52  1  0
 36 53  1  0
 37 54  1  0
M  END
> <Uni-Dock RESULT> 
ENERGY=   -8.366  LOWER_BOUND=    7.577  UPPER_BOUND=    9.231
INTER + INTRA:          -8.366
INTER:                  -8.366
INTRA:                   0.000
UNBOUND:                 0.000

$$$$
