
     RDKit          3D

 54 57  0  0  0  0  0  0  0  0999 V2000
   45.3592    5.1326   12.6873 C   0  0  0  0  0  0  0  0  0  0  0  0
   44.8523    6.3550   12.2018 C   0  0  0  0  0  0  0  0  0  0  0  0
   43.6405    6.4786   11.6178 N   0  0  0  0  0  0  0  0  0  0  0  0
   46.6477    5.1209   13.2836 C   0  0  0  0  0  0  0  0  0  0  0  0
   45.6381    7.4978   12.3287 C   0  0  0  0  0  0  0  0  0  0  0  0
   47.4075    6.2902   13.3931 C   0  0  0  0  0  0  0  0  0  0  0  0
   46.8992    7.4894   12.9117 C   0  0  0  0  0  0  0  0  0  0  0  0
   47.3492    3.6646   13.9070 Cl  0  0  0  0  0  0  0  0  0  0  0  0
   45.1564    8.6970   11.8596 O   0  0  0  0  0  0  0  0  0  0  0  0
   44.5249    4.0028   12.5353 C   0  0  0  0  0  0  0  0  0  0  0  0
   42.8821    5.3680   11.4970 C   0  0  0  0  0  0  0  0  0  0  0  0
   43.2755    4.1201   11.9353 C   0  0  0  0  0  0  0  0  0  0  0  0
   44.7427    6.2313   12.0700 C   0  0  0  0  0  0  0  0  0  0  0  0
   43.9056    5.2030   11.6162 C   0  0  0  0  0  0  0  0  0  0  0  0
   45.8167    5.8911   12.9258 C   0  0  0  0  0  0  0  0  0  0  0  0
   44.1087    3.8704   11.9871 C   0  0  0  0  0  0  0  0  0  0  0  0
   46.0063    4.5333   13.2909 C   0  0  0  0  0  0  0  0  0  0  0  0
   45.1583    3.5303   12.8248 C   0  0  0  0  0  0  0  0  0  0  0  0
   44.5173    7.5098   11.6914 N   0  0  0  0  0  0  0  0  0  0  0  0
   42.8544    5.5229   10.7807 O   0  0  0  0  0  0  0  0  0  0  0  0
   43.0587    2.6280   11.4101 Cl  0  0  0  0  0  0  0  0  0  0  0  0
   47.2981    4.0360   14.3348 Cl  0  0  0  0  0  0  0  0  0  0  0  0
   46.6449    6.9479   13.3684 C   0  0  0  0  0  0  0  0  0  0  0  0
   45.3333    8.4854   12.1382 C   0  0  0  0  0  0  0  0  0  0  0  0
   46.4032    8.2571   12.9726 C   0  0  0  0  0  0  0  0  0  0  0  0
   46.4590    6.6154   13.2413 C   0  0  0  0  0  0  0  0  0  0  0  0
   45.6420    5.5750   12.8047 C   0  0  0  0  0  0  0  0  0  0  0  0
   46.1952    7.9451   12.9087 C   0  0  0  0  0  0  0  0  0  0  0  0
   45.9480    4.3080   13.1587 N   0  0  0  0  0  0  0  0  0  0  0  0
   44.5232    5.8925   12.0067 C   0  0  0  0  0  0  0  0  0  0  0  0
   45.0886    8.2527   12.1201 C   0  0  0  0  0  0  0  0  0  0  0  0
   44.2528    7.2302   11.6688 C   0  0  0  0  0  0  0  0  0  0  0  0
   47.5498    6.2930   14.0208 O   0  0  0  0  0  0  0  0  0  0  0  0
   47.2084    9.2310   13.4507 Cl  0  0  0  0  0  0  0  0  0  0  0  0
   45.1364    3.3201   12.7198 C   0  0  0  0  0  0  0  0  0  0  0  0
   43.7087    4.8383   11.5734 C   0  0  0  0  0  0  0  0  0  0  0  0
   44.0184    3.5319   11.9344 C   0  0  0  0  0  0  0  0  0  0  0  0
   48.3931    6.2700   13.8515 H   0  0  0  0  0  0  0  0  0  0  0  0
   47.4728    8.4085   12.9867 H   0  0  0  0  0  0  0  0  0  0  0  0
   44.2719    8.4711   11.4984 H   0  0  0  0  0  0  0  0  0  0  0  0
   44.8432    3.0230   12.8839 H   0  0  0  0  0  0  0  0  0  0  0  0
   41.9160    5.5146   11.0214 H   0  0  0  0  0  0  0  0  0  0  0  0
   42.6288    3.2582   11.8147 H   0  0  0  0  0  0  0  0  0  0  0  0
   45.3175    2.4949   13.1141 H   0  0  0  0  0  0  0  0  0  0  0  0
   42.3792    4.7019   10.5622 H   0  0  0  0  0  0  0  0  0  0  0  0
   47.4893    6.7603   14.0280 H   0  0  0  0  0  0  0  0  0  0  0  0
   45.0902    9.4859   11.7923 H   0  0  0  0  0  0  0  0  0  0  0  0
   47.0337    9.0726   13.3076 H   0  0  0  0  0  0  0  0  0  0  0  0
   44.8722    9.2844   11.8543 H   0  0  0  0  0  0  0  0  0  0  0  0
   43.3917    7.4825   11.0537 H   0  0  0  0  0  0  0  0  0  0  0  0
   47.5076    5.3164   14.1043 H   0  0  0  0  0  0  0  0  0  0  0  0
   45.4195    2.3171   13.0278 H   0  0  0  0  0  0  0  0  0  0  0  0
   42.8341    5.0284   10.9562 H   0  0  0  0  0  0  0  0  0  0  0  0
   43.4025    2.7002   11.6107 H   0  0  0  0  0  0  0  0  0  0  0  0
  2  1  1  0
  3  2  2  0
  4  1  1  0
  5  2  1  0
  6  4  2  0
  7  6  1  0
  8  4  1  0
  9  5  1  0
 10  1  2  0
 11 12  2  0
 12 10  1  0
 11  3  1  0
  7  5  2  0
 14 13  2  0
 15 13  1  0
 16 14  1  0
 17 15  2  0
 18 17  1  0
 19 13  1  0
 20 14  1  0
 21 16  1  0
 22 17  1  0
 23 15  1  0
 24 19  2  0
 25 23  2  0
 16 18  2  0
 24 25  1  0
 27 26  2  0
 28 26  1  0
 29 27  1  0
 30 27  1  0
 31 28  2  0
 32 31  1  0
 33 26  1  0
 34 28  1  0
 35 29  2  0
 36 30  1  0
 37 36  2  0
 32 30  2  0
 35 37  1  0
  6 38  1  0
  7 39  1  0
  9 40  1  0
 10 41  1  0
 11 42  1  0
 12 43  1  0
 18 44  1  0
 20 45  1  0
 23 46  1  0
 24 47  1  0
 25 48  1  0
 31 49  1  0
 32 50  1  0
 33 51  1  0
 35 52  1  0
 36 53  1  0
 37 54  1  0
M  END
> <Uni-Dock RESULT> 
ENERGY=   -9.963  LOWER_BOUND=    0.000  UPPER_BOUND=    0.000
INTER + INTRA:          -9.963
INTER:                  -9.963
INTRA:                   0.000
UNBOUND:                 0.000

$$$$

     RDKit          3D

 54 57  0  0  0  0  0  0  0  0999 V2000
   45.7860    6.0785   12.8456 C   0  0  0  0  0  0  0  0  0  0  0  0
   44.5701    6.2335   12.1496 C   0  0  0  0  0  0  0  0  0  0  0  0
   44.1773    7.3977   11.5882 N   0  0  0  0  0  0  0  0  0  0  0  0
   46.0963    4.8067   13.3953 C   0  0  0  0  0  0  0  0  0  0  0  0
   43.7265    5.1317   12.0317 C   0  0  0  0  0  0  0  0  0  0  0  0
   45.2229    3.7231   13.2560 C   0  0  0  0  0  0  0  0  0  0  0  0
   44.0274    3.8860   12.5686 C   0  0  0  0  0  0  0  0  0  0  0  0
   47.5676    4.5255   14.2659 Cl  0  0  0  0  0  0  0  0  0  0  0  0
   42.5373    5.2683   11.3554 O   0  0  0  0  0  0  0  0  0  0  0  0
   46.6067    7.2247   12.9378 C   0  0  0  0  0  0  0  0  0  0  0  0
   44.9983    8.4632   11.7050 C   0  0  0  0  0  0  0  0  0  0  0  0
   46.2106    8.4278   12.3630 C   0  0  0  0  0  0  0  0  0  0  0  0
   44.5875    6.4354   12.2097 C   0  0  0  0  0  0  0  0  0  0  0  0
   45.1375    7.7084   12.4120 C   0  0  0  0  0  0  0  0  0  0  0  0
   45.3287    5.3101   12.6408 C   0  0  0  0  0  0  0  0  0  0  0  0
   46.3835    7.8839   13.0214 C   0  0  0  0  0  0  0  0  0  0  0  0
   46.5911    5.5087   13.2571 C   0  0  0  0  0  0  0  0  0  0  0  0
   47.1146    6.7864   13.4459 C   0  0  0  0  0  0  0  0  0  0  0  0
   43.3794    6.3020   11.6167 N   0  0  0  0  0  0  0  0  0  0  0  0
   44.4234    8.8138   11.9954 O   0  0  0  0  0  0  0  0  0  0  0  0
   47.0321    9.4662   13.2554 Cl  0  0  0  0  0  0  0  0  0  0  0  0
   47.5595    4.1821   13.8124 Cl  0  0  0  0  0  0  0  0  0  0  0  0
   44.7502    4.0384   12.4242 C   0  0  0  0  0  0  0  0  0  0  0  0
   42.8666    5.0692   11.4307 C   0  0  0  0  0  0  0  0  0  0  0  0
   43.5087    3.9143   11.8141 C   0  0  0  0  0  0  0  0  0  0  0  0
   44.9353    4.3768   12.5361 C   0  0  0  0  0  0  0  0  0  0  0  0
   45.5045    5.6304   12.7487 C   0  0  0  0  0  0  0  0  0  0  0  0
   43.7199    4.2264   11.8665 C   0  0  0  0  0  0  0  0  0  0  0  0
   46.6830    5.7132   13.4033 N   0  0  0  0  0  0  0  0  0  0  0  0
   44.8203    6.7661   12.2676 C   0  0  0  0  0  0  0  0  0  0  0  0
   43.0486    5.3519   11.3935 C   0  0  0  0  0  0  0  0  0  0  0  0
   43.5957    6.6202   11.5924 C   0  0  0  0  0  0  0  0  0  0  0  0
   45.6131    3.2738   13.0108 O   0  0  0  0  0  0  0  0  0  0  0  0
   43.0178    2.6731   11.6048 Cl  0  0  0  0  0  0  0  0  0  0  0  0
   47.2099    6.9433   13.5942 C   0  0  0  0  0  0  0  0  0  0  0  0
   45.4019    8.0215   12.4871 C   0  0  0  0  0  0  0  0  0  0  0  0
   46.6148    8.1134   13.1603 C   0  0  0  0  0  0  0  0  0  0  0  0
   45.4702    2.7535   13.6809 H   0  0  0  0  0  0  0  0  0  0  0  0
   43.3353    3.0577   12.4491 H   0  0  0  0  0  0  0  0  0  0  0  0
   42.5345    6.2077   11.0703 H   0  0  0  0  0  0  0  0  0  0  0  0
   47.5607    7.1876   13.4585 H   0  0  0  0  0  0  0  0  0  0  0  0
   44.6419    9.3777   11.2385 H   0  0  0  0  0  0  0  0  0  0  0  0
   46.8344    9.3123   12.4291 H   0  0  0  0  0  0  0  0  0  0  0  0
   48.0833    6.9211   13.9199 H   0  0  0  0  0  0  0  0  0  0  0  0
   44.9426    9.6091   12.2090 H   0  0  0  0  0  0  0  0  0  0  0  0
   45.2632    3.1294   12.7300 H   0  0  0  0  0  0  0  0  0  0  0  0
   41.8937    5.0413   10.9487 H   0  0  0  0  0  0  0  0  0  0  0  0
   43.0585    2.9430   11.6447 H   0  0  0  0  0  0  0  0  0  0  0  0
   42.1012    5.2481   10.8704 H   0  0  0  0  0  0  0  0  0  0  0  0
   43.0625    7.4918   11.2187 H   0  0  0  0  0  0  0  0  0  0  0  0
   46.4177    3.6462   13.4308 H   0  0  0  0  0  0  0  0  0  0  0  0
   48.1582    6.9635   14.1249 H   0  0  0  0  0  0  0  0  0  0  0  0
   44.9159    8.9288   12.1368 H   0  0  0  0  0  0  0  0  0  0  0  0
   47.0837    9.0743   13.3416 H   0  0  0  0  0  0  0  0  0  0  0  0
  2  1  1  0
  3  2  2  0
  4  1  1  0
  5  2  1  0
  6  4  2  0
  7  6  1  0
  8  4  1  0
  9  5  1  0
 10  1  2  0
 11 12  2  0
 12 10  1  0
 11  3  1  0
  7  5  2  0
 14 13  2  0
 15 13  1  0
 16 14  1  0
 17 15  2  0
 18 17  1  0
 19 13  1  0
 20 14  1  0
 21 16  1  0
 22 17  1  0
 23 15  1  0
 24 19  2  0
 25 23  2  0
 16 18  2  0
 24 25  1  0
 27 26  2  0
 28 26  1  0
 29 27  1  0
 30 27  1  0
 31 28  2  0
 32 31  1  0
 33 26  1  0
 34 28  1  0
 35 29  2  0
 36 30  1  0
 37 36  2  0
 32 30  2  0
 35 37  1  0
  6 38  1  0
  7 39  1  0
  9 40  1  0
 10 41  1  0
 11 42  1  0
 12 43  1  0
 18 44  1  0
 20 45  1  0
 23 46  1  0
 24 47  1  0
 25 48  1  0
 31 49  1  0
 32 50  1  0
 33 51  1  0
 35 52  1  0
 36 53  1  0
 37 54  1  0
M  END
> <Uni-Dock RESULT> 
ENERGY=   -9.772  LOWER_BOUND=    0.811  UPPER_BOUND=    3.667
INTER + INTRA:          -9.772
INTER:                  -9.772
INTRA:                   0.000
UNBOUND:                 0.000

$$$$

     RDKit          3D

 54 57  0  0  0  0  0  0  0  0999 V2000
   44.3295    3.8043   10.6564 C   0  0  0  0  0  0  0  0  0  0  0  0
   45.1151    4.5220    9.7319 C   0  0  0  0  0  0  0  0  0  0  0  0
   45.5420    5.7863    9.9416 N   0  0  0  0  0  0  0  0  0  0  0  0
   43.9377    2.4793   10.3299 C   0  0  0  0  0  0  0  0  0  0  0  0
   45.4723    3.8992    8.5385 C   0  0  0  0  0  0  0  0  0  0  0  0
   44.3164    1.8875    9.1205 C   0  0  0  0  0  0  0  0  0  0  0  0
   45.0903    2.6028    8.2164 C   0  0  0  0  0  0  0  0  0  0  0  0
   42.9725    1.5241   11.4060 Cl  0  0  0  0  0  0  0  0  0  0  0  0
   46.2383    4.5873    7.6274 O   0  0  0  0  0  0  0  0  0  0  0  0
   43.9935    4.4791   11.8512 C   0  0  0  0  0  0  0  0  0  0  0  0
   45.1932    6.3861   11.0999 C   0  0  0  0  0  0  0  0  0  0  0  0
   44.4285    5.7810   12.0761 C   0  0  0  0  0  0  0  0  0  0  0  0
   45.0254    4.6913    9.8213 C   0  0  0  0  0  0  0  0  0  0  0  0
   44.5902    5.5860   10.8083 C   0  0  0  0  0  0  0  0  0  0  0  0
   44.6862    3.3248    9.9605 C   0  0  0  0  0  0  0  0  0  0  0  0
   43.8400    5.1606   11.9087 C   0  0  0  0  0  0  0  0  0  0  0  0
   43.9243    2.9127   11.0841 C   0  0  0  0  0  0  0  0  0  0  0  0
   43.5044    3.8242   12.0511 C   0  0  0  0  0  0  0  0  0  0  0  0
   45.7496    5.1370    8.7698 N   0  0  0  0  0  0  0  0  0  0  0  0
   44.9152    6.9217   10.6832 O   0  0  0  0  0  0  0  0  0  0  0  0
   43.3198    6.2891   13.1065 Cl  0  0  0  0  0  0  0  0  0  0  0  0
   43.4686    1.2575   11.3261 Cl  0  0  0  0  0  0  0  0  0  0  0  0
   45.1382    2.4447    8.9506 C   0  0  0  0  0  0  0  0  0  0  0  0
   46.1594    4.2612    7.8304 C   0  0  0  0  0  0  0  0  0  0  0  0
   45.8813    2.9145    7.8754 C   0  0  0  0  0  0  0  0  0  0  0  0
   44.9614    2.6609    9.2392 C   0  0  0  0  0  0  0  0  0  0  0  0
   44.5169    3.5291   10.2338 C   0  0  0  0  0  0  0  0  0  0  0  0
   45.7643    3.1010    8.1856 C   0  0  0  0  0  0  0  0  0  0  0  0
   43.7421    3.0451   11.2287 N   0  0  0  0  0  0  0  0  0  0  0  0
   44.8981    4.8850   10.1578 C   0  0  0  0  0  0  0  0  0  0  0  0
   46.1376    4.4415    8.1157 C   0  0  0  0  0  0  0  0  0  0  0  0
   45.7066    5.3335    9.0987 C   0  0  0  0  0  0  0  0  0  0  0  0
   44.5825    1.3378    9.3239 O   0  0  0  0  0  0  0  0  0  0  0  0
   46.3131    2.0239    6.9557 Cl  0  0  0  0  0  0  0  0  0  0  0  0
   43.3265    3.9120   12.1790 C   0  0  0  0  0  0  0  0  0  0  0  0
   44.4452    5.7489   11.1633 C   0  0  0  0  0  0  0  0  0  0  0  0
   43.6474    5.2568   12.1900 C   0  0  0  0  0  0  0  0  0  0  0  0
   44.0108    0.8721    8.8805 H   0  0  0  0  0  0  0  0  0  0  0  0
   45.3951    2.1620    7.2718 H   0  0  0  0  0  0  0  0  0  0  0  0
   46.3860    5.4592    8.0538 H   0  0  0  0  0  0  0  0  0  0  0  0
   43.3902    3.9943   12.6152 H   0  0  0  0  0  0  0  0  0  0  0  0
   45.5586    7.4019   11.2255 H   0  0  0  0  0  0  0  0  0  0  0  0
   44.1752    6.3062   12.9903 H   0  0  0  0  0  0  0  0  0  0  0  0
   42.9212    3.4918   12.9060 H   0  0  0  0  0  0  0  0  0  0  0  0
   44.5398    7.3983   11.4444 H   0  0  0  0  0  0  0  0  0  0  0  0
   44.9146    1.3810    8.9923 H   0  0  0  0  0  0  0  0  0  0  0  0
   46.7358    4.6921    7.0169 H   0  0  0  0  0  0  0  0  0  0  0  0
   46.2313    2.2461    7.0972 H   0  0  0  0  0  0  0  0  0  0  0  0
   46.7627    4.7967    7.3003 H   0  0  0  0  0  0  0  0  0  0  0  0
   46.0045    6.3779    9.0337 H   0  0  0  0  0  0  0  0  0  0  0  0
   44.0352    1.2942   10.1369 H   0  0  0  0  0  0  0  0  0  0  0  0
   42.7058    3.4804   12.9597 H   0  0  0  0  0  0  0  0  0  0  0  0
   44.7102    6.8033   11.1519 H   0  0  0  0  0  0  0  0  0  0  0  0
   43.2854    5.9067   12.9790 H   0  0  0  0  0  0  0  0  0  0  0  0
  2  1  1  0
  3  2  2  0
  4  1  1  0
  5  2  1  0
  6  4  2  0
  7  6  1  0
  8  4  1  0
  9  5  1  0
 10  1  2  0
 11 12  2  0
 12 10  1  0
 11  3  1  0
  7  5  2  0
 14 13  2  0
 15 13  1  0
 16 14  1  0
 17 15  2  0
 18 17  1  0
 19 13  1  0
 20 14  1  0
 21 16  1  0
 22 17  1  0
 23 15  1  0
 24 19  2  0
 25 23  2  0
 16 18  2  0
 24 25  1  0
 27 26  2  0
 28 26  1  0
 29 27  1  0
 30 27  1  0
 31 28  2  0
 32 31  1  0
 33 26  1  0
 34 28  1  0
 35 29  2  0
 36 30  1  0
 37 36  2  0
 32 30  2  0
 35 37  1  0
  6 38  1  0
  7 39  1  0
  9 40  1  0
 10 41  1  0
 11 42  1  0
 12 43  1  0
 18 44  1  0
 20 45  1  0
 23 46  1  0
 24 47  1  0
 25 48  1  0
 31 49  1  0
 32 50  1  0
 33 51  1  0
 35 52  1  0
 36 53  1  0
 37 54  1  0
M  END
> <Uni-Dock RESULT> 
ENERGY=   -9.764  LOWER_BOUND=    2.887  UPPER_BOUND=    4.660
INTER + INTRA:          -9.764
INTER:                  -9.764
INTRA:                   0.000
UNBOUND:                 0.000

$$$$

     RDKit          3D

 54 57  0  0  0  0  0  0  0  0999 V2000
   45.1029    6.5749   12.2636 C   0  0  0  0  0  0  0  0  0  0  0  0
   45.6725    5.3496   12.6649 C   0  0  0  0  0  0  0  0  0  0  0  0
   46.7805    5.2600   13.4324 N   0  0  0  0  0  0  0  0  0  0  0  0
   43.9356    6.5487   11.4558 C   0  0  0  0  0  0  0  0  0  0  0  0
   45.0648    4.1668   12.2510 C   0  0  0  0  0  0  0  0  0  0  0  0
   43.3538    5.3399   11.0600 C   0  0  0  0  0  0  0  0  0  0  0  0
   43.9226    4.1381   11.4604 C   0  0  0  0  0  0  0  0  0  0  0  0
   43.1686    8.0057   10.9166 Cl  0  0  0  0  0  0  0  0  0  0  0  0
   45.6096    2.9642   12.6348 O   0  0  0  0  0  0  0  0  0  0  0  0
   45.7557    7.7459   12.7089 C   0  0  0  0  0  0  0  0  0  0  0  0
   47.3663    6.4093   13.8313 C   0  0  0  0  0  0  0  0  0  0  0  0
   46.8972    7.6638   13.4995 C   0  0  0  0  0  0  0  0  0  0  0  0
   45.8519    5.4613   12.6725 C   0  0  0  0  0  0  0  0  0  0  0  0
   46.7556    6.4847   12.9885 C   0  0  0  0  0  0  0  0  0  0  0  0
   44.6002    5.8212   12.1197 C   0  0  0  0  0  0  0  0  0  0  0  0
   46.4486    7.8312   12.7714 C   0  0  0  0  0  0  0  0  0  0  0  0
   44.3073    7.1929   11.9069 C   0  0  0  0  0  0  0  0  0  0  0  0
   45.2250    8.1906   12.2305 C   0  0  0  0  0  0  0  0  0  0  0  0
   46.1814    4.1689   12.8956 N   0  0  0  0  0  0  0  0  0  0  0  0
   47.9799    6.1456   13.5285 O   0  0  0  0  0  0  0  0  0  0  0  0
   47.5849    9.0671   13.1722 Cl  0  0  0  0  0  0  0  0  0  0  0  0
   42.7969    7.7147   11.2341 Cl  0  0  0  0  0  0  0  0  0  0  0  0
   43.7081    4.7689   11.8105 C   0  0  0  0  0  0  0  0  0  0  0  0
   45.2989    3.1983   12.5851 C   0  0  0  0  0  0  0  0  0  0  0  0
   44.0581    3.4453   12.0443 C   0  0  0  0  0  0  0  0  0  0  0  0
   43.9403    5.0942   11.8500 C   0  0  0  0  0  0  0  0  0  0  0  0
   44.8201    6.1302   12.1553 C   0  0  0  0  0  0  0  0  0  0  0  0
   44.2458    3.7629   12.1373 C   0  0  0  0  0  0  0  0  0  0  0  0
   44.4694    7.3991   11.8532 N   0  0  0  0  0  0  0  0  0  0  0  0
   46.0471    5.8064   12.7710 C   0  0  0  0  0  0  0  0  0  0  0  0
   45.4594    3.4491   12.7455 C   0  0  0  0  0  0  0  0  0  0  0  0
   46.3598    4.4670   13.0627 C   0  0  0  0  0  0  0  0  0  0  0  0
   42.7438    5.4227   11.2483 O   0  0  0  0  0  0  0  0  0  0  0  0
   43.1546    2.4825   11.7581 Cl  0  0  0  0  0  0  0  0  0  0  0  0
   45.3440    8.3825   12.1618 C   0  0  0  0  0  0  0  0  0  0  0  0
   46.9240    6.8562   13.0735 C   0  0  0  0  0  0  0  0  0  0  0  0
   46.5688    8.1644   12.7650 C   0  0  0  0  0  0  0  0  0  0  0  0
   42.4599    5.3311   10.4413 H   0  0  0  0  0  0  0  0  0  0  0  0
   43.4868    3.1886   11.1641 H   0  0  0  0  0  0  0  0  0  0  0  0
   46.3897    3.2197   13.1734 H   0  0  0  0  0  0  0  0  0  0  0  0
   45.3788    8.7306   12.4423 H   0  0  0  0  0  0  0  0  0  0  0  0
   48.2541    6.2891   14.4465 H   0  0  0  0  0  0  0  0  0  0  0  0
   47.4044    8.5575   13.8455 H   0  0  0  0  0  0  0  0  0  0  0  0
   44.9848    9.2370   12.0612 H   0  0  0  0  0  0  0  0  0  0  0  0
   48.4798    6.9657   13.6868 H   0  0  0  0  0  0  0  0  0  0  0  0
   42.7287    4.9713   11.3829 H   0  0  0  0  0  0  0  0  0  0  0  0
   45.6334    2.1859   12.7922 H   0  0  0  0  0  0  0  0  0  0  0  0
   43.3798    2.6331   11.8098 H   0  0  0  0  0  0  0  0  0  0  0  0
   45.7090    2.4161   12.9746 H   0  0  0  0  0  0  0  0  0  0  0  0
   47.3043    4.2100   13.5374 H   0  0  0  0  0  0  0  0  0  0  0  0
   42.7776    6.3992   11.1594 H   0  0  0  0  0  0  0  0  0  0  0  0
   45.0217    9.3872   11.9014 H   0  0  0  0  0  0  0  0  0  0  0  0
   47.8825    6.6612   13.5482 H   0  0  0  0  0  0  0  0  0  0  0  0
   47.2315    8.9928   12.9899 H   0  0  0  0  0  0  0  0  0  0  0  0
  2  1  1  0
  3  2  2  0
  4  1  1  0
  5  2  1  0
  6  4  2  0
  7  6  1  0
  8  4  1  0
  9  5  1  0
 10  1  2  0
 11 12  2  0
 12 10  1  0
 11  3  1  0
  7  5  2  0
 14 13  2  0
 15 13  1  0
 16 14  1  0
 17 15  2  0
 18 17  1  0
 19 13  1  0
 20 14  1  0
 21 16  1  0
 22 17  1  0
 23 15  1  0
 24 19  2  0
 25 23  2  0
 16 18  2  0
 24 25  1  0
 27 26  2  0
 28 26  1  0
 29 27  1  0
 30 27  1  0
 31 28  2  0
 32 31  1  0
 33 26  1  0
 34 28  1  0
 35 29  2  0
 36 30  1  0
 37 36  2  0
 32 30  2  0
 35 37  1  0
  6 38  1  0
  7 39  1  0
  9 40  1  0
 10 41  1  0
 11 42  1  0
 12 43  1  0
 18 44  1  0
 20 45  1  0
 23 46  1  0
 24 47  1  0
 25 48  1  0
 31 49  1  0
 32 50  1  0
 33 51  1  0
 35 52  1  0
 36 53  1  0
 37 54  1  0
M  END
> <Uni-Dock RESULT> 
ENERGY=   -9.142  LOWER_BOUND=    1.415  UPPER_BOUND=    4.638
INTER + INTRA:          -9.142
INTER:                  -9.142
INTRA:                   0.000
UNBOUND:                 0.000

$$$$

     RDKit          3D

 54 57  0  0  0  0  0  0  0  0999 V2000
   45.0671    4.3433    9.8931 C   0  0  0  0  0  0  0  0  0  0  0  0
   44.4292    3.1928   10.3994 C   0  0  0  0  0  0  0  0  0  0  0  0
   44.4919    1.9832    9.8013 N   0  0  0  0  0  0  0  0  0  0  0  0
   44.9326    5.5635   10.6064 C   0  0  0  0  0  0  0  0  0  0  0  0
   43.6949    3.3040   11.5775 C   0  0  0  0  0  0  0  0  0  0  0  0
   44.1862    5.6357   11.7870 C   0  0  0  0  0  0  0  0  0  0  0  0
   43.5615    4.4966   12.2775 C   0  0  0  0  0  0  0  0  0  0  0  0
   45.6820    7.0262   10.0577 Cl  0  0  0  0  0  0  0  0  0  0  0  0
   43.0674    2.1900   12.0829 O   0  0  0  0  0  0  0  0  0  0  0  0
   45.7994    4.1792    8.6962 C   0  0  0  0  0  0  0  0  0  0  0  0
   45.2050    1.8801    8.6593 C   0  0  0  0  0  0  0  0  0  0  0  0
   45.8698    2.9376    8.0731 C   0  0  0  0  0  0  0  0  0  0  0  0
   44.4278    3.1320   10.1969 C   0  0  0  0  0  0  0  0  0  0  0  0
   44.8837    2.8424    8.9037 C   0  0  0  0  0  0  0  0  0  0  0  0
   44.7308    4.4008   10.7446 C   0  0  0  0  0  0  0  0  0  0  0  0
   45.6195    3.7680    8.1578 C   0  0  0  0  0  0  0  0  0  0  0  0
   45.4787    5.3264    9.9721 C   0  0  0  0  0  0  0  0  0  0  0  0
   45.9198    5.0121    8.6880 C   0  0  0  0  0  0  0  0  0  0  0  0
   43.7183    2.2131   10.8905 N   0  0  0  0  0  0  0  0  0  0  0  0
   44.5940    1.6076    8.3589 O   0  0  0  0  0  0  0  0  0  0  0  0
   46.1660    3.3790    6.5675 Cl  0  0  0  0  0  0  0  0  0  0  0  0
   45.8904    6.9002   10.5718 Cl  0  0  0  0  0  0  0  0  0  0  0  0
   44.2588    4.6661   12.0505 C   0  0  0  0  0  0  0  0  0  0  0  0
   43.2883    2.5100   12.1332 C   0  0  0  0  0  0  0  0  0  0  0  0
   43.5311    3.7142   12.7529 C   0  0  0  0  0  0  0  0  0  0  0  0
   44.3816    4.6477   11.6686 C   0  0  0  0  0  0  0  0  0  0  0  0
   44.8465    4.3849   10.3820 C   0  0  0  0  0  0  0  0  0  0  0  0
   43.7056    3.6822   12.4164 C   0  0  0  0  0  0  0  0  0  0  0  0
   45.4941    5.3592    9.7069 N   0  0  0  0  0  0  0  0  0  0  0  0
   44.6190    3.1041    9.8369 C   0  0  0  0  0  0  0  0  0  0  0  0
   43.4837    2.4187   11.8727 C   0  0  0  0  0  0  0  0  0  0  0  0
   43.9386    2.1279   10.5858 C   0  0  0  0  0  0  0  0  0  0  0  0
   44.6098    5.9032   12.1911 O   0  0  0  0  0  0  0  0  0  0  0  0
   43.1312    4.0104   14.0090 Cl  0  0  0  0  0  0  0  0  0  0  0  0
   45.9332    5.0740    8.4606 C   0  0  0  0  0  0  0  0  0  0  0  0
   45.0908    2.8512    8.5423 C   0  0  0  0  0  0  0  0  0  0  0  0
   45.7581    3.8498    7.8422 C   0  0  0  0  0  0  0  0  0  0  0  0
   44.0896    6.5752   12.3254 H   0  0  0  0  0  0  0  0  0  0  0  0
   42.9773    4.5310   13.1923 H   0  0  0  0  0  0  0  0  0  0  0  0
   43.2924    1.4811   11.4421 H   0  0  0  0  0  0  0  0  0  0  0  0
   46.3203    5.0185    8.2411 H   0  0  0  0  0  0  0  0  0  0  0  0
   45.2276    0.8893    8.2136 H   0  0  0  0  0  0  0  0  0  0  0  0
   46.4295    2.8029    7.1542 H   0  0  0  0  0  0  0  0  0  0  0  0
   46.4918    5.7327    8.1094 H   0  0  0  0  0  0  0  0  0  0  0  0
   44.9798    1.5715    7.4659 H   0  0  0  0  0  0  0  0  0  0  0  0
   44.4542    5.6204   12.5345 H   0  0  0  0  0  0  0  0  0  0  0  0
   42.7256    1.7235   12.6277 H   0  0  0  0  0  0  0  0  0  0  0  0
   43.1657    3.9101   13.7543 H   0  0  0  0  0  0  0  0  0  0  0  0
   42.9585    1.6580   12.4449 H   0  0  0  0  0  0  0  0  0  0  0  0
   43.7596    1.1379   10.1717 H   0  0  0  0  0  0  0  0  0  0  0  0
   45.0915    6.3775   11.4801 H   0  0  0  0  0  0  0  0  0  0  0  0
   46.4484    5.8859    7.9542 H   0  0  0  0  0  0  0  0  0  0  0  0
   44.9418    1.8806    8.0756 H   0  0  0  0  0  0  0  0  0  0  0  0
   46.1321    3.6768    6.8391 H   0  0  0  0  0  0  0  0  0  0  0  0
  2  1  1  0
  3  2  2  0
  4  1  1  0
  5  2  1  0
  6  4  2  0
  7  6  1  0
  8  4  1  0
  9  5  1  0
 10  1  2  0
 11 12  2  0
 12 10  1  0
 11  3  1  0
  7  5  2  0
 14 13  2  0
 15 13  1  0
 16 14  1  0
 17 15  2  0
 18 17  1  0
 19 13  1  0
 20 14  1  0
 21 16  1  0
 22 17  1  0
 23 15  1  0
 24 19  2  0
 25 23  2  0
 16 18  2  0
 24 25  1  0
 27 26  2  0
 28 26  1  0
 29 27  1  0
 30 27  1  0
 31 28  2  0
 32 31  1  0
 33 26  1  0
 34 28  1  0
 35 29  2  0
 36 30  1  0
 37 36  2  0
 32 30  2  0
 35 37  1  0
  6 38  1  0
  7 39  1  0
  9 40  1  0
 10 41  1  0
 11 42  1  0
 12 43  1  0
 18 44  1  0
 20 45  1  0
 23 46  1  0
 24 47  1  0
 25 48  1  0
 31 49  1  0
 32 50  1  0
 33 51  1  0
 35 52  1  0
 36 53  1  0
 37 54  1  0
M  END
> <Uni-Dock RESULT> 
ENERGY=   -9.131  LOWER_BOUND=    2.991  UPPER_BOUND=    4.580
INTER + INTRA:          -9.131
INTER:                  -9.131
INTRA:                   0.000
UNBOUND:                 0.000

$$$$

     RDKit          3D

 54 57  0  0  0  0  0  0  0  0999 V2000
   44.9426    6.2858   12.3191 C   0  0  0  0  0  0  0  0  0  0  0  0
   46.1355    6.5864   13.0073 C   0  0  0  0  0  0  0  0  0  0  0  0
   46.5934    7.8443   13.1882 N   0  0  0  0  0  0  0  0  0  0  0  0
   44.5581    4.9252   12.1893 C   0  0  0  0  0  0  0  0  0  0  0  0
   46.8845    5.5350   13.5298 C   0  0  0  0  0  0  0  0  0  0  0  0
   45.3373    3.8962   12.7282 C   0  0  0  0  0  0  0  0  0  0  0  0
   46.5108    4.2027   13.4043 C   0  0  0  0  0  0  0  0  0  0  0  0
   43.1086    4.4639   11.3600 Cl  0  0  0  0  0  0  0  0  0  0  0  0
   48.0502    5.8133   14.2035 O   0  0  0  0  0  0  0  0  0  0  0  0
   44.2189    7.3861   11.8080 C   0  0  0  0  0  0  0  0  0  0  0  0
   45.8639    8.8605   12.6799 C   0  0  0  0  0  0  0  0  0  0  0  0
   44.6823    8.6850   11.9893 C   0  0  0  0  0  0  0  0  0  0  0  0
   46.1366    6.7584   12.8842 C   0  0  0  0  0  0  0  0  0  0  0  0
   45.6970    7.9262   12.2463 C   0  0  0  0  0  0  0  0  0  0  0  0
   45.3291    5.6004   12.7905 C   0  0  0  0  0  0  0  0  0  0  0  0
   44.4963    7.9674   11.5314 C   0  0  0  0  0  0  0  0  0  0  0  0
   44.1141    5.6621   12.0606 C   0  0  0  0  0  0  0  0  0  0  0  0
   43.7008    6.8373   11.4356 C   0  0  0  0  0  0  0  0  0  0  0  0
   47.3036    6.7537   13.5675 N   0  0  0  0  0  0  0  0  0  0  0  0
   46.4765    9.0622   12.3309 O   0  0  0  0  0  0  0  0  0  0  0  0
   43.9841    9.4225   10.7574 Cl  0  0  0  0  0  0  0  0  0  0  0  0
   43.0700    4.2874   11.8994 Cl  0  0  0  0  0  0  0  0  0  0  0  0
   45.7966    4.4368   13.4434 C   0  0  0  0  0  0  0  0  0  0  0  0
   47.7099    5.6207   14.1747 C   0  0  0  0  0  0  0  0  0  0  0  0
   46.9969    4.4445   14.1421 C   0  0  0  0  0  0  0  0  0  0  0  0
   45.6434    4.7306   13.2165 C   0  0  0  0  0  0  0  0  0  0  0  0
   45.1838    5.8779   12.5738 C   0  0  0  0  0  0  0  0  0  0  0  0
   46.8132    4.7344   13.9781 C   0  0  0  0  0  0  0  0  0  0  0  0
   44.0450    5.8129   11.8505 N   0  0  0  0  0  0  0  0  0  0  0  0
   45.9331    7.0654   12.7075 C   0  0  0  0  0  0  0  0  0  0  0  0
   47.5492    5.9104   14.1065 C   0  0  0  0  0  0  0  0  0  0  0  0
   47.1120    7.0747   13.4735 C   0  0  0  0  0  0  0  0  0  0  0  0
   44.9028    3.5756   13.0786 O   0  0  0  0  0  0  0  0  0  0  0  0
   47.3797    3.3125   14.7725 Cl  0  0  0  0  0  0  0  0  0  0  0  0
   43.6245    6.9426   11.2387 C   0  0  0  0  0  0  0  0  0  0  0  0
   45.4614    8.2129   12.0569 C   0  0  0  0  0  0  0  0  0  0  0  0
   44.2898    8.1524   11.3109 C   0  0  0  0  0  0  0  0  0  0  0  0
   45.0336    2.8576   12.6230 H   0  0  0  0  0  0  0  0  0  0  0  0
   47.1302    3.4189   13.8301 H   0  0  0  0  0  0  0  0  0  0  0  0
   48.1141    6.7925   14.1701 H   0  0  0  0  0  0  0  0  0  0  0  0
   43.2883    7.2383   11.2648 H   0  0  0  0  0  0  0  0  0  0  0  0
   46.2702    9.8541   12.8494 H   0  0  0  0  0  0  0  0  0  0  0  0
   44.1331    9.5351   11.6004 H   0  0  0  0  0  0  0  0  0  0  0  0
   42.7671    6.8676   10.8803 H   0  0  0  0  0  0  0  0  0  0  0  0
   46.0309    9.7738   11.8383 H   0  0  0  0  0  0  0  0  0  0  0  0
   45.2278    3.5101   13.4136 H   0  0  0  0  0  0  0  0  0  0  0  0
   48.6558    5.6934   14.7035 H   0  0  0  0  0  0  0  0  0  0  0  0
   47.3619    3.5565   14.6451 H   0  0  0  0  0  0  0  0  0  0  0  0
   48.4619    5.9265   14.6970 H   0  0  0  0  0  0  0  0  0  0  0  0
   47.6949    7.9871   13.5810 H   0  0  0  0  0  0  0  0  0  0  0  0
   44.1488    3.8381   12.5084 H   0  0  0  0  0  0  0  0  0  0  0  0
   42.7048    6.8452   10.6680 H   0  0  0  0  0  0  0  0  0  0  0  0
   46.0012    9.1540   12.1276 H   0  0  0  0  0  0  0  0  0  0  0  0
   43.9058    9.0278   10.7988 H   0  0  0  0  0  0  0  0  0  0  0  0
  2  1  1  0
  3  2  2  0
  4  1  1  0
  5  2  1  0
  6  4  2  0
  7  6  1  0
  8  4  1  0
  9  5  1  0
 10  1  2  0
 11 12  2  0
 12 10  1  0
 11  3  1  0
  7  5  2  0
 14 13  2  0
 15 13  1  0
 16 14  1  0
 17 15  2  0
 18 17  1  0
 19 13  1  0
 20 14  1  0
 21 16  1  0
 22 17  1  0
 23 15  1  0
 24 19  2  0
 25 23  2  0
 16 18  2  0
 24 25  1  0
 27 26  2  0
 28 26  1  0
 29 27  1  0
 30 27  1  0
 31 28  2  0
 32 31  1  0
 33 26  1  0
 34 28  1  0
 35 29  2  0
 36 30  1  0
 37 36  2  0
 32 30  2  0
 35 37  1  0
  6 38  1  0
  7 39  1  0
  9 40  1  0
 10 41  1  0
 11 42  1  0
 12 43  1  0
 18 44  1  0
 20 45  1  0
 23 46  1  0
 24 47  1  0
 25 48  1  0
 31 49  1  0
 32 50  1  0
 33 51  1  0
 35 52  1  0
 36 53  1  0
 37 54  1  0
M  END
> <Uni-Dock RESULT> 
ENERGY=   -8.952  LOWER_BOUND=    1.352  UPPER_BOUND=    3.756
INTER + INTRA:          -8.952
INTER:                  -8.952
INTRA:                   0.000
UNBOUND:                 0.000

$$$$

     RDKit          3D

 54 57  0  0  0  0  0  0  0  0999 V2000
   44.7307    5.8322   12.1265 C   0  0  0  0  0  0  0  0  0  0  0  0
   45.9421    5.5656   12.7960 C   0  0  0  0  0  0  0  0  0  0  0  0
   46.4226    4.3191   12.9968 N   0  0  0  0  0  0  0  0  0  0  0  0
   44.3230    7.1835   11.9729 C   0  0  0  0  0  0  0  0  0  0  0  0
   46.6859    6.6400   13.2774 C   0  0  0  0  0  0  0  0  0  0  0  0
   45.0977    8.2364   12.4705 C   0  0  0  0  0  0  0  0  0  0  0  0
   46.2895    7.9633   13.1286 C   0  0  0  0  0  0  0  0  0  0  0  0
   42.8496    7.6037   11.1640 Cl  0  0  0  0  0  0  0  0  0  0  0  0
   47.8696    6.3949   13.9325 O   0  0  0  0  0  0  0  0  0  0  0  0
   44.0130    4.7095   11.6572 C   0  0  0  0  0  0  0  0  0  0  0  0
   45.6981    3.2805   12.5283 C   0  0  0  0  0  0  0  0  0  0  0  0
   44.4998    3.4222   11.8591 C   0  0  0  0  0  0  0  0  0  0  0  0
   45.8495    5.3813   12.8429 C   0  0  0  0  0  0  0  0  0  0  0  0
   45.1689    4.1676   12.6764 C   0  0  0  0  0  0  0  0  0  0  0  0
   45.2779    6.5505   12.2878 C   0  0  0  0  0  0  0  0  0  0  0  0
   43.9567    4.0921   11.9842 C   0  0  0  0  0  0  0  0  0  0  0  0
   44.0471    6.4533   11.5888 C   0  0  0  0  0  0  0  0  0  0  0  0
   43.3914    5.2328   11.4381 C   0  0  0  0  0  0  0  0  0  0  0  0
   47.0205    5.4184   13.5184 N   0  0  0  0  0  0  0  0  0  0  0  0
   45.7171    3.0203   13.2137 O   0  0  0  0  0  0  0  0  0  0  0  0
   43.1443    2.5807   11.7974 Cl  0  0  0  0  0  0  0  0  0  0  0  0
   43.2829    7.8390   10.8803 Cl  0  0  0  0  0  0  0  0  0  0  0  0
   45.9856    7.7606   12.4706 C   0  0  0  0  0  0  0  0  0  0  0  0
   47.6606    6.5953   13.6681 C   0  0  0  0  0  0  0  0  0  0  0  0
   47.1874    7.7858   13.1663 C   0  0  0  0  0  0  0  0  0  0  0  0
   45.7358    7.4496   12.4246 C   0  0  0  0  0  0  0  0  0  0  0  0
   45.0396    6.2565   12.2449 C   0  0  0  0  0  0  0  0  0  0  0  0
   46.9764    7.4866   13.0632 C   0  0  0  0  0  0  0  0  0  0  0  0
   43.8428    6.2832   11.6194 N   0  0  0  0  0  0  0  0  0  0  0  0
   45.6190    5.0644   12.7274 C   0  0  0  0  0  0  0  0  0  0  0  0
   47.5438    6.3059   13.5378 C   0  0  0  0  0  0  0  0  0  0  0  0
   46.8684    5.0961   13.3713 C   0  0  0  0  0  0  0  0  0  0  0  0
   45.1596    8.6085   11.9489 O   0  0  0  0  0  0  0  0  0  0  0  0
   47.8360    8.9652   13.2842 Cl  0  0  0  0  0  0  0  0  0  0  0  0
   43.1913    5.1095   11.4600 C   0  0  0  0  0  0  0  0  0  0  0  0
   44.9099    3.8707   12.5411 C   0  0  0  0  0  0  0  0  0  0  0  0
   43.6776    3.8916   11.8980 C   0  0  0  0  0  0  0  0  0  0  0  0
   44.7762    9.2676   12.3474 H   0  0  0  0  0  0  0  0  0  0  0  0
   46.9058    8.7661   13.5225 H   0  0  0  0  0  0  0  0  0  0  0  0
   47.9475    5.4163   13.9209 H   0  0  0  0  0  0  0  0  0  0  0  0
   43.0691    4.8307   11.1307 H   0  0  0  0  0  0  0  0  0  0  0  0
   46.1228    2.2973   12.7125 H   0  0  0  0  0  0  0  0  0  0  0  0
   43.9554    2.5551   11.5022 H   0  0  0  0  0  0  0  0  0  0  0  0
   42.4491    5.1758   10.8997 H   0  0  0  0  0  0  0  0  0  0  0  0
   45.1241    2.2758   13.0093 H   0  0  0  0  0  0  0  0  0  0  0  0
   45.6057    8.6984   12.0713 H   0  0  0  0  0  0  0  0  0  0  0  0
   48.5939    6.5466   14.2214 H   0  0  0  0  0  0  0  0  0  0  0  0
   47.7358    8.7095   13.3108 H   0  0  0  0  0  0  0  0  0  0  0  0
   48.5096    6.3214   14.0367 H   0  0  0  0  0  0  0  0  0  0  0  0
   47.3213    4.1806   13.7459 H   0  0  0  0  0  0  0  0  0  0  0  0
   44.3117    8.3128   11.5537 H   0  0  0  0  0  0  0  0  0  0  0  0
   42.2329    5.1773   10.9520 H   0  0  0  0  0  0  0  0  0  0  0  0
   45.3117    2.9240   12.8940 H   0  0  0  0  0  0  0  0  0  0  0  0
   43.1110    2.9801   11.7427 H   0  0  0  0  0  0  0  0  0  0  0  0
  2  1  1  0
  3  2  2  0
  4  1  1  0
  5  2  1  0
  6  4  2  0
  7  6  1  0
  8  4  1  0
  9  5  1  0
 10  1  2  0
 11 12  2  0
 12 10  1  0
 11  3  1  0
  7  5  2  0
 14 13  2  0
 15 13  1  0
 16 14  1  0
 17 15  2  0
 18 17  1  0
 19 13  1  0
 20 14  1  0
 21 16  1  0
 22 17  1  0
 23 15  1  0
 24 19  2  0
 25 23  2  0
 16 18  2  0
 24 25  1  0
 27 26  2  0
 28 26  1  0
 29 27  1  0
 30 27  1  0
 31 28  2  0
 32 31  1  0
 33 26  1  0
 34 28  1  0
 35 29  2  0
 36 30  1  0
 37 36  2  0
 32 30  2  0
 35 37  1  0
  6 38  1  0
  7 39  1  0
  9 40  1  0
 10 41  1  0
 11 42  1  0
 12 43  1  0
 18 44  1  0
 20 45  1  0
 23 46  1  0
 24 47  1  0
 25 48  1  0
 31 49  1  0
 32 50  1  0
 33 51  1  0
 35 52  1  0
 36 53  1  0
 37 54  1  0
M  END
> <Uni-Dock RESULT> 
ENERGY=   -8.856  LOWER_BOUND=    1.398  UPPER_BOUND=    2.884
INTER + INTRA:          -8.856
INTER:                  -8.856
INTRA:                   0.000
UNBOUND:                 0.000

$$$$

     RDKit          3D

 54 57  0  0  0  0  0  0  0  0999 V2000
   44.6222    3.4348   10.0302 C   0  0  0  0  0  0  0  0  0  0  0  0
   45.0559    4.7759   10.0144 C   0  0  0  0  0  0  0  0  0  0  0  0
   45.6907    5.3403    8.9641 N   0  0  0  0  0  0  0  0  0  0  0  0
   43.9643    2.9476   11.1902 C   0  0  0  0  0  0  0  0  0  0  0  0
   44.8198    5.5641   11.1380 C   0  0  0  0  0  0  0  0  0  0  0  0
   43.7452    3.7704   12.2999 C   0  0  0  0  0  0  0  0  0  0  0  0
   44.1764    5.0901   12.2746 C   0  0  0  0  0  0  0  0  0  0  0  0
   43.3979    1.3137   11.2972 Cl  0  0  0  0  0  0  0  0  0  0  0  0
   45.2373    6.8740   11.1367 O   0  0  0  0  0  0  0  0  0  0  0  0
   44.8849    2.6768    8.8674 C   0  0  0  0  0  0  0  0  0  0  0  0
   45.9175    4.5723    7.8770 C   0  0  0  0  0  0  0  0  0  0  0  0
   45.5379    3.2492    7.7809 C   0  0  0  0  0  0  0  0  0  0  0  0
   45.2004    4.7039    9.8779 C   0  0  0  0  0  0  0  0  0  0  0  0
   45.7579    4.0540    8.7685 C   0  0  0  0  0  0  0  0  0  0  0  0
   44.3148    3.9742   10.7055 C   0  0  0  0  0  0  0  0  0  0  0  0
   45.4603    2.7211    8.4696 C   0  0  0  0  0  0  0  0  0  0  0  0
   44.0253    2.6226   10.3856 C   0  0  0  0  0  0  0  0  0  0  0  0
   44.5940    2.0008    9.2756 C   0  0  0  0  0  0  0  0  0  0  0  0
   45.5101    5.9944   10.1377 N   0  0  0  0  0  0  0  0  0  0  0  0
   46.6233    4.7560    7.9538 O   0  0  0  0  0  0  0  0  0  0  0  0
   46.1644    1.9507    7.0949 Cl  0  0  0  0  0  0  0  0  0  0  0  0
   42.9510    1.6618   11.3494 Cl  0  0  0  0  0  0  0  0  0  0  0  0
   43.7672    4.6544   11.8173 C   0  0  0  0  0  0  0  0  0  0  0  0
   44.9638    6.6027   11.2096 C   0  0  0  0  0  0  0  0  0  0  0  0
   44.0929    5.9799   12.0737 C   0  0  0  0  0  0  0  0  0  0  0  0
   43.9237    4.4136   11.5365 C   0  0  0  0  0  0  0  0  0  0  0  0
   44.4637    3.7447   10.4405 C   0  0  0  0  0  0  0  0  0  0  0  0
   44.1862    5.7637   11.7750 C   0  0  0  0  0  0  0  0  0  0  0  0
   44.1738    2.4376   10.2618 N   0  0  0  0  0  0  0  0  0  0  0  0
   45.2953    4.4666    9.5592 C   0  0  0  0  0  0  0  0  0  0  0  0
   45.0085    6.4716   10.9010 C   0  0  0  0  0  0  0  0  0  0  0  0
   45.5630    5.8266    9.7947 C   0  0  0  0  0  0  0  0  0  0  0  0
   43.1122    3.6978   12.3912 O   0  0  0  0  0  0  0  0  0  0  0  0
   43.5162    6.5892   13.1328 Cl  0  0  0  0  0  0  0  0  0  0  0  0
   44.7128    1.8160    9.1891 C   0  0  0  0  0  0  0  0  0  0  0  0
   45.8328    3.7837    8.4604 C   0  0  0  0  0  0  0  0  0  0  0  0
   45.5382    2.4383    8.2710 C   0  0  0  0  0  0  0  0  0  0  0  0
   43.2405    3.3872   13.1833 H   0  0  0  0  0  0  0  0  0  0  0  0
   44.0163    5.7456   13.1255 H   0  0  0  0  0  0  0  0  0  0  0  0
   45.6554    6.9876   10.2557 H   0  0  0  0  0  0  0  0  0  0  0  0
   44.5821    1.6344    8.8005 H   0  0  0  0  0  0  0  0  0  0  0  0
   46.4305    5.0678    7.0570 H   0  0  0  0  0  0  0  0  0  0  0  0
   45.7435    2.6747    6.8846 H   0  0  0  0  0  0  0  0  0  0  0  0
   44.3616    0.9645    9.0446 H   0  0  0  0  0  0  0  0  0  0  0  0
   46.9154    4.1635    7.2388 H   0  0  0  0  0  0  0  0  0  0  0  0
   43.0793    4.1559   12.4966 H   0  0  0  0  0  0  0  0  0  0  0  0
   45.2590    7.6379   11.3538 H   0  0  0  0  0  0  0  0  0  0  0  0
   43.6773    6.5081   12.9240 H   0  0  0  0  0  0  0  0  0  0  0  0
   45.2205    7.5235   11.0756 H   0  0  0  0  0  0  0  0  0  0  0  0
   46.2035    6.3896    9.1191 H   0  0  0  0  0  0  0  0  0  0  0  0
   43.0914    2.7955   12.0064 H   0  0  0  0  0  0  0  0  0  0  0  0
   44.4535    0.7658    9.0840 H   0  0  0  0  0  0  0  0  0  0  0  0
   46.4799    4.2934    7.7508 H   0  0  0  0  0  0  0  0  0  0  0  0
   45.9428    1.8894    7.4278 H   0  0  0  0  0  0  0  0  0  0  0  0
  2  1  1  0
  3  2  2  0
  4  1  1  0
  5  2  1  0
  6  4  2  0
  7  6  1  0
  8  4  1  0
  9  5  1  0
 10  1  2  0
 11 12  2  0
 12 10  1  0
 11  3  1  0
  7  5  2  0
 14 13  2  0
 15 13  1  0
 16 14  1  0
 17 15  2  0
 18 17  1  0
 19 13  1  0
 20 14  1  0
 21 16  1  0
 22 17  1  0
 23 15  1  0
 24 19  2  0
 25 23  2  0
 16 18  2  0
 24 25  1  0
 27 26  2  0
 28 26  1  0
 29 27  1  0
 30 27  1  0
 31 28  2  0
 32 31  1  0
 33 26  1  0
 34 28  1  0
 35 29  2  0
 36 30  1  0
 37 36  2  0
 32 30  2  0
 35 37  1  0
  6 38  1  0
  7 39  1  0
  9 40  1  0
 10 41  1  0
 11 42  1  0
 12 43  1  0
 18 44  1  0
 20 45  1  0
 23 46  1  0
 24 47  1  0
 25 48  1  0
 31 49  1  0
 32 50  1  0
 33 51  1  0
 35 52  1  0
 36 53  1  0
 37 54  1  0
M  END
> <Uni-Dock RESULT> 
ENERGY=   -8.795  LOWER_BOUND=    2.773  UPPER_BOUND=    3.847
INTER + INTRA:          -8.795
INTER:                  -8.795
INTRA:                   0.000
UNBOUND:                 0.000

$$$$

     RDKit          3D

 54 57  0  0  0  0  0  0  0  0999 V2000
   47.6371    7.3557   20.4743 C   0  0  0  0  0  0  0  0  0  0  0  0
   47.4839    7.8385   21.7897 C   0  0  0  0  0  0  0  0  0  0  0  0
   47.1523    9.1155   22.0798 N   0  0  0  0  0  0  0  0  0  0  0  0
   47.9881    5.9927   20.2879 C   0  0  0  0  0  0  0  0  0  0  0  0
   47.6837    6.9566   22.8489 C   0  0  0  0  0  0  0  0  0  0  0  0
   48.1805    5.1371   21.3775 C   0  0  0  0  0  0  0  0  0  0  0  0
   48.0272    5.6223   22.6695 C   0  0  0  0  0  0  0  0  0  0  0  0
   48.1972    5.3143   18.7074 Cl  0  0  0  0  0  0  0  0  0  0  0  0
   47.5376    7.4136   24.1373 O   0  0  0  0  0  0  0  0  0  0  0  0
   47.4240    8.2885   19.4349 C   0  0  0  0  0  0  0  0  0  0  0  0
   46.9597    9.9669   21.0497 C   0  0  0  0  0  0  0  0  0  0  0  0
   47.0822    9.6055   19.7237 C   0  0  0  0  0  0  0  0  0  0  0  0
   47.5371    8.0242   21.7037 C   0  0  0  0  0  0  0  0  0  0  0  0
   47.5353    9.1235   20.8346 C   0  0  0  0  0  0  0  0  0  0  0  0
   47.6120    6.7276   21.1423 C   0  0  0  0  0  0  0  0  0  0  0  0
   47.6050    8.9655   19.4472 C   0  0  0  0  0  0  0  0  0  0  0  0
   47.6820    6.5879   19.7322 C   0  0  0  0  0  0  0  0  0  0  0  0
   47.6785    7.6990   18.8909 C   0  0  0  0  0  0  0  0  0  0  0  0
   47.4684    8.2132   23.0410 N   0  0  0  0  0  0  0  0  0  0  0  0
   47.4625   10.3933   21.3708 O   0  0  0  0  0  0  0  0  0  0  0  0
   47.6006   10.3413   18.4050 Cl  0  0  0  0  0  0  0  0  0  0  0  0
   47.7760    5.0345   18.9679 Cl  0  0  0  0  0  0  0  0  0  0  0  0
   47.6120    5.6371   22.0421 C   0  0  0  0  0  0  0  0  0  0  0  0
   47.4714    7.1433   23.8611 C   0  0  0  0  0  0  0  0  0  0  0  0
   47.5411    5.8441   23.4136 C   0  0  0  0  0  0  0  0  0  0  0  0
   47.6493    5.9146   21.7541 C   0  0  0  0  0  0  0  0  0  0  0  0
   47.6490    6.9899   20.8686 C   0  0  0  0  0  0  0  0  0  0  0  0
   47.5129    6.0975   23.1312 C   0  0  0  0  0  0  0  0  0  0  0  0
   47.7847    6.7508   19.5462 N   0  0  0  0  0  0  0  0  0  0  0  0
   47.5058    8.2905   21.3955 C   0  0  0  0  0  0  0  0  0  0  0  0
   47.3719    7.3845   23.6458 C   0  0  0  0  0  0  0  0  0  0  0  0
   47.3681    8.4803   22.7817 C   0  0  0  0  0  0  0  0  0  0  0  0
   47.7899    4.6479   21.2277 O   0  0  0  0  0  0  0  0  0  0  0  0
   47.5137    4.7642   24.2250 Cl  0  0  0  0  0  0  0  0  0  0  0  0
   47.7806    7.8146   18.7122 C   0  0  0  0  0  0  0  0  0  0  0  0
   47.5069    9.3642   20.4957 C   0  0  0  0  0  0  0  0  0  0  0  0
   47.6462    9.1246   19.1334 C   0  0  0  0  0  0  0  0  0  0  0  0
   48.4491    4.0950   21.2236 H   0  0  0  0  0  0  0  0  0  0  0  0
   48.1720    4.9749   23.5293 H   0  0  0  0  0  0  0  0  0  0  0  0
   47.2996    8.3596   24.0266 H   0  0  0  0  0  0  0  0  0  0  0  0
   47.5228    7.9947   18.3924 H   0  0  0  0  0  0  0  0  0  0  0  0
   46.6947   10.9829   21.3301 H   0  0  0  0  0  0  0  0  0  0  0  0
   46.9169   10.3278   18.9321 H   0  0  0  0  0  0  0  0  0  0  0  0
   47.7327    7.5744   17.8125 H   0  0  0  0  0  0  0  0  0  0  0  0
   47.4718   11.0337   20.6377 H   0  0  0  0  0  0  0  0  0  0  0  0
   47.6674    4.6124   21.6814 H   0  0  0  0  0  0  0  0  0  0  0  0
   47.4139    7.3733   24.9210 H   0  0  0  0  0  0  0  0  0  0  0  0
   47.5407    5.0134   24.1097 H   0  0  0  0  0  0  0  0  0  0  0  0
   47.2648    7.5402   24.7164 H   0  0  0  0  0  0  0  0  0  0  0  0
   47.2573    9.4806   23.1950 H   0  0  0  0  0  0  0  0  0  0  0  0
   47.8655    4.7946   20.2606 H   0  0  0  0  0  0  0  0  0  0  0  0
   47.8923    7.5765   17.6577 H   0  0  0  0  0  0  0  0  0  0  0  0
   47.3998   10.3867   20.8495 H   0  0  0  0  0  0  0  0  0  0  0  0
   47.6498    9.9400   18.4184 H   0  0  0  0  0  0  0  0  0  0  0  0
  2  1  1  0
  3  2  2  0
  4  1  1  0
  5  2  1  0
  6  4  2  0
  7  6  1  0
  8  4  1  0
  9  5  1  0
 10  1  2  0
 11 12  2  0
 12 10  1  0
 11  3  1  0
  7  5  2  0
 14 13  2  0
 15 13  1  0
 16 14  1  0
 17 15  2  0
 18 17  1  0
 19 13  1  0
 20 14  1  0
 21 16  1  0
 22 17  1  0
 23 15  1  0
 24 19  2  0
 25 23  2  0
 16 18  2  0
 24 25  1  0
 27 26  2  0
 28 26  1  0
 29 27  1  0
 30 27  1  0
 31 28  2  0
 32 31  1  0
 33 26  1  0
 34 28  1  0
 35 29  2  0
 36 30  1  0
 37 36  2  0
 32 30  2  0
 35 37  1  0
  6 38  1  0
  7 39  1  0
  9 40  1  0
 10 41  1  0
 11 42  1  0
 12 43  1  0
 18 44  1  0
 20 45  1  0
 23 46  1  0
 24 47  1  0
 25 48  1  0
 31 49  1  0
 32 50  1  0
 33 51  1  0
 35 52  1  0
 36 53  1  0
 37 54  1  0
M  END
> <Uni-Dock RESULT> 
ENERGY=   -8.533  LOWER_BOUND=    8.126  UPPER_BOUND=    9.794
INTER + INTRA:          -8.533
INTER:                  -8.533
INTRA:                   0.000
UNBOUND:                 0.000

$$$$
