
     RDKit          3D

 54 57  0  0  0  0  0  0  0  0999 V2000
   45.1669    4.3451   10.0643 C   0  0  0  0  0  0  0  0  0  0  0  0
   44.3489    3.2093   10.2304 C   0  0  0  0  0  0  0  0  0  0  0  0
   44.1849    2.2648    9.2786 N   0  0  0  0  0  0  0  0  0  0  0  0
   45.2647    5.2736   11.1341 C   0  0  0  0  0  0  0  0  0  0  0  0
   43.6726    3.0478   11.4371 C   0  0  0  0  0  0  0  0  0  0  0  0
   44.5696    5.0769   12.3318 C   0  0  0  0  0  0  0  0  0  0  0  0
   43.7664    3.9546   12.4856 C   0  0  0  0  0  0  0  0  0  0  0  0
   46.2460    6.6967   11.0178 Cl  0  0  0  0  0  0  0  0  0  0  0  0
   42.8713    1.9446   11.6130 O   0  0  0  0  0  0  0  0  0  0  0  0
   45.8315    4.4637    8.8234 C   0  0  0  0  0  0  0  0  0  0  0  0
   44.8425    2.4255    8.1103 C   0  0  0  0  0  0  0  0  0  0  0  0
   45.6688    3.4964    7.8372 C   0  0  0  0  0  0  0  0  0  0  0  0
   44.5500    3.1354   10.2103 C   0  0  0  0  0  0  0  0  0  0  0  0
   44.9383    2.7003    8.9457 C   0  0  0  0  0  0  0  0  0  0  0  0
   44.7652    4.4828   10.5665 C   0  0  0  0  0  0  0  0  0  0  0  0
   45.5336    3.5568    8.0207 C   0  0  0  0  0  0  0  0  0  0  0  0
   45.3713    5.3471    9.6194 C   0  0  0  0  0  0  0  0  0  0  0  0
   45.7517    4.8864    8.3578 C   0  0  0  0  0  0  0  0  0  0  0  0
   43.9810    2.2338   11.0393 N   0  0  0  0  0  0  0  0  0  0  0  0
   44.7159    1.3781    8.6242 O   0  0  0  0  0  0  0  0  0  0  0  0
   46.0110    3.0089    6.4572 Cl  0  0  0  0  0  0  0  0  0  0  0  0
   45.6732    7.0161    9.9719 Cl  0  0  0  0  0  0  0  0  0  0  0  0
   44.3509    4.8655   11.8615 C   0  0  0  0  0  0  0  0  0  0  0  0
   43.6022    2.6495   12.2671 C   0  0  0  0  0  0  0  0  0  0  0  0
   43.7643    3.9420   12.7201 C   0  0  0  0  0  0  0  0  0  0  0  0
   44.2442    4.9150   11.4065 C   0  0  0  0  0  0  0  0  0  0  0  0
   44.8410    4.3895   10.2628 C   0  0  0  0  0  0  0  0  0  0  0  0
   43.5047    4.1173   12.2812 C   0  0  0  0  0  0  0  0  0  0  0  0
   45.5447    5.2109    9.4538 N   0  0  0  0  0  0  0  0  0  0  0  0
   44.6833    3.0132    9.9978 C   0  0  0  0  0  0  0  0  0  0  0  0
   43.3522    2.7583   12.0144 C   0  0  0  0  0  0  0  0  0  0  0  0
   43.9395    2.2052   10.8756 C   0  0  0  0  0  0  0  0  0  0  0  0
   44.4052    6.2618   11.6552 O   0  0  0  0  0  0  0  0  0  0  0  0
   42.7669    4.7707   13.6964 Cl  0  0  0  0  0  0  0  0  0  0  0  0
   46.1120    4.6717    8.3516 C   0  0  0  0  0  0  0  0  0  0  0  0
   45.2878    2.4957    8.8449 C   0  0  0  0  0  0  0  0  0  0  0  0
   46.0133    3.3360    8.0081 C   0  0  0  0  0  0  0  0  0  0  0  0
   44.6516    5.7941   13.1447 H   0  0  0  0  0  0  0  0  0  0  0  0
   43.2183    3.7829   13.4072 H   0  0  0  0  0  0  0  0  0  0  0  0
   42.9540    1.4552   10.7660 H   0  0  0  0  0  0  0  0  0  0  0  0
   46.4809    5.3113    8.6168 H   0  0  0  0  0  0  0  0  0  0  0  0
   44.6809    1.6422    7.3747 H   0  0  0  0  0  0  0  0  0  0  0  0
   46.1751    3.5797    6.8820 H   0  0  0  0  0  0  0  0  0  0  0  0
   46.2153    5.5612    7.6425 H   0  0  0  0  0  0  0  0  0  0  0  0
   44.2959    0.9977    9.4257 H   0  0  0  0  0  0  0  0  0  0  0  0
   44.4820    5.8871   12.2120 H   0  0  0  0  0  0  0  0  0  0  0  0
   43.1498    1.8882   12.8970 H   0  0  0  0  0  0  0  0  0  0  0  0
   43.4434    4.2274   13.7160 H   0  0  0  0  0  0  0  0  0  0  0  0
   42.7787    2.1264   12.6879 H   0  0  0  0  0  0  0  0  0  0  0  0
   43.8137    1.1428   10.6775 H   0  0  0  0  0  0  0  0  0  0  0  0
   44.9525    6.5824   10.9068 H   0  0  0  0  0  0  0  0  0  0  0  0
   46.6683    5.3679    7.7295 H   0  0  0  0  0  0  0  0  0  0  0  0
   45.1970    1.4417    8.5943 H   0  0  0  0  0  0  0  0  0  0  0  0
   46.4899    2.9577    7.1105 H   0  0  0  0  0  0  0  0  0  0  0  0
  2  1  1  0
  3  2  2  0
  4  1  1  0
  5  2  1  0
  6  4  2  0
  7  6  1  0
  8  4  1  0
  9  5  1  0
 10  1  2  0
 11 12  2  0
 12 10  1  0
 11  3  1  0
  7  5  2  0
 14 13  2  0
 15 13  1  0
 16 14  1  0
 17 15  2  0
 18 17  1  0
 19 13  1  0
 20 14  1  0
 21 16  1  0
 22 17  1  0
 23 15  1  0
 24 19  2  0
 25 23  2  0
 16 18  2  0
 24 25  1  0
 27 26  2  0
 28 26  1  0
 29 27  1  0
 30 27  1  0
 31 28  2  0
 32 31  1  0
 33 26  1  0
 34 28  1  0
 35 29  2  0
 36 30  1  0
 37 36  2  0
 32 30  2  0
 35 37  1  0
  6 38  1  0
  7 39  1  0
  9 40  1  0
 10 41  1  0
 11 42  1  0
 12 43  1  0
 18 44  1  0
 20 45  1  0
 23 46  1  0
 24 47  1  0
 25 48  1  0
 31 49  1  0
 32 50  1  0
 33 51  1  0
 35 52  1  0
 36 53  1  0
 37 54  1  0
M  END
> <Uni-Dock RESULT> 
ENERGY=   -9.785  LOWER_BOUND=    0.000  UPPER_BOUND=    0.000
INTER + INTRA:          -9.785
INTER:                  -9.785
INTRA:                   0.000
UNBOUND:                 0.000

$$$$

     RDKit          3D

 54 57  0  0  0  0  0  0  0  0999 V2000
   45.3993    5.2427   12.7838 C   0  0  0  0  0  0  0  0  0  0  0  0
   44.7179    6.1171   11.9131 C   0  0  0  0  0  0  0  0  0  0  0  0
   43.7047    5.7267   11.1094 N   0  0  0  0  0  0  0  0  0  0  0  0
   46.4503    5.7638   13.5837 C   0  0  0  0  0  0  0  0  0  0  0  0
   45.1059    7.4541   11.8761 C   0  0  0  0  0  0  0  0  0  0  0  0
   46.8112    7.1136   13.5186 C   0  0  0  0  0  0  0  0  0  0  0  0
   46.1337    7.9669   12.6576 C   0  0  0  0  0  0  0  0  0  0  0  0
   47.3416    4.7624   14.6812 Cl  0  0  0  0  0  0  0  0  0  0  0  0
   44.4500    8.3183   11.0315 O   0  0  0  0  0  0  0  0  0  0  0  0
   44.9691    3.8972   12.7850 C   0  0  0  0  0  0  0  0  0  0  0  0
   43.3321    4.4295   11.1486 C   0  0  0  0  0  0  0  0  0  0  0  0
   43.9268    3.4858   11.9609 C   0  0  0  0  0  0  0  0  0  0  0  0
   44.5727    6.0523   12.0581 C   0  0  0  0  0  0  0  0  0  0  0  0
   43.7407    4.9983   11.6891 C   0  0  0  0  0  0  0  0  0  0  0  0
   45.7893    5.7673   12.7119 C   0  0  0  0  0  0  0  0  0  0  0  0
   44.0740    3.6693   11.9467 C   0  0  0  0  0  0  0  0  0  0  0  0
   46.1205    4.4127   12.9699 C   0  0  0  0  0  0  0  0  0  0  0  0
   45.2690    3.3738   12.5900 C   0  0  0  0  0  0  0  0  0  0  0  0
   44.1664    7.3069   11.7670 N   0  0  0  0  0  0  0  0  0  0  0  0
   42.5575    5.3058   11.0513 O   0  0  0  0  0  0  0  0  0  0  0  0
   43.0373    2.3710   11.4862 Cl  0  0  0  0  0  0  0  0  0  0  0  0
   47.5935    3.9713   13.7677 Cl  0  0  0  0  0  0  0  0  0  0  0  0
   46.5909    6.8765   13.0615 C   0  0  0  0  0  0  0  0  0  0  0  0
   44.9689    8.3334   12.1222 C   0  0  0  0  0  0  0  0  0  0  0  0
   46.1784    8.1711   12.7647 C   0  0  0  0  0  0  0  0  0  0  0  0
   46.5676    6.5125   12.7653 C   0  0  0  0  0  0  0  0  0  0  0  0
   45.6060    5.5166   12.6110 C   0  0  0  0  0  0  0  0  0  0  0  0
   46.3284    7.8308   12.3742 C   0  0  0  0  0  0  0  0  0  0  0  0
   45.8952    4.2584   13.0081 N   0  0  0  0  0  0  0  0  0  0  0  0
   44.3637    5.8680   12.0430 C   0  0  0  0  0  0  0  0  0  0  0  0
   45.0993    8.1723   11.8136 C   0  0  0  0  0  0  0  0  0  0  0  0
   44.1175    7.1945   11.6474 C   0  0  0  0  0  0  0  0  0  0  0  0
   47.7782    6.1570   13.3217 O   0  0  0  0  0  0  0  0  0  0  0  0
   47.5209    9.0617   12.5663 Cl  0  0  0  0  0  0  0  0  0  0  0  0
   44.9418    3.3140   12.8455 C   0  0  0  0  0  0  0  0  0  0  0  0
   43.4042    4.8585   11.8927 C   0  0  0  0  0  0  0  0  0  0  0  0
   43.6959    3.5614   12.2994 C   0  0  0  0  0  0  0  0  0  0  0  0
   47.6175    7.5023   14.1355 H   0  0  0  0  0  0  0  0  0  0  0  0
   46.3981    9.0181   12.5917 H   0  0  0  0  0  0  0  0  0  0  0  0
   43.7799    7.7533   10.5894 H   0  0  0  0  0  0  0  0  0  0  0  0
   45.4437    3.1600   13.4285 H   0  0  0  0  0  0  0  0  0  0  0  0
   42.5138    4.1610   10.4859 H   0  0  0  0  0  0  0  0  0  0  0  0
   43.5903    2.4550   11.9555 H   0  0  0  0  0  0  0  0  0  0  0  0
   45.5369    2.3403   12.7948 H   0  0  0  0  0  0  0  0  0  0  0  0
   42.5588    6.2856   10.9906 H   0  0  0  0  0  0  0  0  0  0  0  0
   47.5440    6.7407   13.5682 H   0  0  0  0  0  0  0  0  0  0  0  0
   44.5991    9.3229   11.8669 H   0  0  0  0  0  0  0  0  0  0  0  0
   46.7878    9.0283   13.0296 H   0  0  0  0  0  0  0  0  0  0  0  0
   44.9006    9.1956   11.5051 H   0  0  0  0  0  0  0  0  0  0  0  0
   43.1616    7.4728   11.2086 H   0  0  0  0  0  0  0  0  0  0  0  0
   47.6889    5.1970   13.5027 H   0  0  0  0  0  0  0  0  0  0  0  0
   45.2167    2.3165   13.1783 H   0  0  0  0  0  0  0  0  0  0  0  0
   42.4306    5.0760   11.4606 H   0  0  0  0  0  0  0  0  0  0  0  0
   42.9688    2.7640   12.1930 H   0  0  0  0  0  0  0  0  0  0  0  0
  2  1  1  0
  3  2  2  0
  4  1  1  0
  5  2  1  0
  6  4  2  0
  7  6  1  0
  8  4  1  0
  9  5  1  0
 10  1  2  0
 11 12  2  0
 12 10  1  0
 11  3  1  0
  7  5  2  0
 14 13  2  0
 15 13  1  0
 16 14  1  0
 17 15  2  0
 18 17  1  0
 19 13  1  0
 20 14  1  0
 21 16  1  0
 22 17  1  0
 23 15  1  0
 24 19  2  0
 25 23  2  0
 16 18  2  0
 24 25  1  0
 27 26  2  0
 28 26  1  0
 29 27  1  0
 30 27  1  0
 31 28  2  0
 32 31  1  0
 33 26  1  0
 34 28  1  0
 35 29  2  0
 36 30  1  0
 37 36  2  0
 32 30  2  0
 35 37  1  0
  6 38  1  0
  7 39  1  0
  9 40  1  0
 10 41  1  0
 11 42  1  0
 12 43  1  0
 18 44  1  0
 20 45  1  0
 23 46  1  0
 24 47  1  0
 25 48  1  0
 31 49  1  0
 32 50  1  0
 33 51  1  0
 35 52  1  0
 36 53  1  0
 37 54  1  0
M  END
> <Uni-Dock RESULT> 
ENERGY=   -9.209  LOWER_BOUND=    2.905  UPPER_BOUND=    4.420
INTER + INTRA:          -9.209
INTER:                  -9.209
INTRA:                   0.000
UNBOUND:                 0.000

$$$$

     RDKit          3D

 54 57  0  0  0  0  0  0  0  0999 V2000
   44.7871    5.9163   11.9846 C   0  0  0  0  0  0  0  0  0  0  0  0
   45.7325    5.3135   12.8388 C   0  0  0  0  0  0  0  0  0  0  0  0
   45.7082    4.0038   13.1693 N   0  0  0  0  0  0  0  0  0  0  0  0
   44.9107    7.3031   11.7063 C   0  0  0  0  0  0  0  0  0  0  0  0
   46.7465    6.1052   13.3722 C   0  0  0  0  0  0  0  0  0  0  0  0
   45.9435    8.0656   12.2613 C   0  0  0  0  0  0  0  0  0  0  0  0
   46.8699    7.4623   13.1017 C   0  0  0  0  0  0  0  0  0  0  0  0
   43.7944    8.1265   10.6681 Cl  0  0  0  0  0  0  0  0  0  0  0  0
   47.6756    5.5304   14.2069 O   0  0  0  0  0  0  0  0  0  0  0  0
   43.7787    5.0718   11.4693 C   0  0  0  0  0  0  0  0  0  0  0  0
   44.7233    3.2401   12.6498 C   0  0  0  0  0  0  0  0  0  0  0  0
   43.7454    3.7221   11.8039 C   0  0  0  0  0  0  0  0  0  0  0  0
   45.7594    5.2217   12.6461 C   0  0  0  0  0  0  0  0  0  0  0  0
   45.1304    3.9966   12.4385 C   0  0  0  0  0  0  0  0  0  0  0  0
   45.0732    6.4082   12.3142 C   0  0  0  0  0  0  0  0  0  0  0  0
   43.8424    3.9076   11.9124 C   0  0  0  0  0  0  0  0  0  0  0  0
   43.7635    6.3084   11.7796 C   0  0  0  0  0  0  0  0  0  0  0  0
   43.1547    5.0680   11.5810 C   0  0  0  0  0  0  0  0  0  0  0  0
   47.0081    5.2092   13.1603 N   0  0  0  0  0  0  0  0  0  0  0  0
   45.8244    2.8527   12.7718 O   0  0  0  0  0  0  0  0  0  0  0  0
   43.0718    2.3862   11.6589 Cl  0  0  0  0  0  0  0  0  0  0  0  0
   42.8480    7.7131   11.3443 Cl  0  0  0  0  0  0  0  0  0  0  0  0
   45.7616    7.6195   12.5468 C   0  0  0  0  0  0  0  0  0  0  0  0
   47.6234    6.3940   13.3639 C   0  0  0  0  0  0  0  0  0  0  0  0
   47.0477    7.6138   13.0761 C   0  0  0  0  0  0  0  0  0  0  0  0
   45.4048    7.3576   12.7048 C   0  0  0  0  0  0  0  0  0  0  0  0
   44.9153    6.1242   12.2810 C   0  0  0  0  0  0  0  0  0  0  0  0
   46.6229    7.4724   13.3766 C   0  0  0  0  0  0  0  0  0  0  0  0
   43.7299    6.0757   11.6355 N   0  0  0  0  0  0  0  0  0  0  0  0
   45.6843    4.9720   12.5465 C   0  0  0  0  0  0  0  0  0  0  0  0
   47.3783    6.3308   13.6361 C   0  0  0  0  0  0  0  0  0  0  0  0
   46.9119    5.0820   13.2228 C   0  0  0  0  0  0  0  0  0  0  0  0
   44.6444    8.4770   12.4397 O   0  0  0  0  0  0  0  0  0  0  0  0
   47.2264    9.0007   13.9001 Cl  0  0  0  0  0  0  0  0  0  0  0  0
   43.2813    4.8645   11.2366 C   0  0  0  0  0  0  0  0  0  0  0  0
   45.1823    3.7371   12.1158 C   0  0  0  0  0  0  0  0  0  0  0  0
   43.9627    3.6806   11.4508 C   0  0  0  0  0  0  0  0  0  0  0  0
   46.0289    9.1269   12.0417 H   0  0  0  0  0  0  0  0  0  0  0  0
   47.6794    8.0361   13.5431 H   0  0  0  0  0  0  0  0  0  0  0  0
   47.3999    4.5895   14.2547 H   0  0  0  0  0  0  0  0  0  0  0  0
   43.0119    5.4603   10.8032 H   0  0  0  0  0  0  0  0  0  0  0  0
   44.7432    2.1939   12.9428 H   0  0  0  0  0  0  0  0  0  0  0  0
   42.9750    3.0669   11.4130 H   0  0  0  0  0  0  0  0  0  0  0  0
   42.1500    5.0078   11.1701 H   0  0  0  0  0  0  0  0  0  0  0  0
   46.6855    3.1784   13.1124 H   0  0  0  0  0  0  0  0  0  0  0  0
   45.3010    8.5779   12.3173 H   0  0  0  0  0  0  0  0  0  0  0  0
   48.6259    6.3323   13.7788 H   0  0  0  0  0  0  0  0  0  0  0  0
   47.5833    8.5391   13.2577 H   0  0  0  0  0  0  0  0  0  0  0  0
   48.3287    6.4069   14.1585 H   0  0  0  0  0  0  0  0  0  0  0  0
   47.5104    4.1976   13.4310 H   0  0  0  0  0  0  0  0  0  0  0  0
   43.8567    8.1288   11.9698 H   0  0  0  0  0  0  0  0  0  0  0  0
   42.3243    4.8718   10.7215 H   0  0  0  0  0  0  0  0  0  0  0  0
   45.7354    2.8185   12.2950 H   0  0  0  0  0  0  0  0  0  0  0  0
   43.5545    2.7362   11.1082 H   0  0  0  0  0  0  0  0  0  0  0  0
  2  1  1  0
  3  2  2  0
  4  1  1  0
  5  2  1  0
  6  4  2  0
  7  6  1  0
  8  4  1  0
  9  5  1  0
 10  1  2  0
 11 12  2  0
 12 10  1  0
 11  3  1  0
  7  5  2  0
 14 13  2  0
 15 13  1  0
 16 14  1  0
 17 15  2  0
 18 17  1  0
 19 13  1  0
 20 14  1  0
 21 16  1  0
 22 17  1  0
 23 15  1  0
 24 19  2  0
 25 23  2  0
 16 18  2  0
 24 25  1  0
 27 26  2  0
 28 26  1  0
 29 27  1  0
 30 27  1  0
 31 28  2  0
 32 31  1  0
 33 26  1  0
 34 28  1  0
 35 29  2  0
 36 30  1  0
 37 36  2  0
 32 30  2  0
 35 37  1  0
  6 38  1  0
  7 39  1  0
  9 40  1  0
 10 41  1  0
 11 42  1  0
 12 43  1  0
 18 44  1  0
 20 45  1  0
 23 46  1  0
 24 47  1  0
 25 48  1  0
 31 49  1  0
 32 50  1  0
 33 51  1  0
 35 52  1  0
 36 53  1  0
 37 54  1  0
M  END
> <Uni-Dock RESULT> 
ENERGY=   -9.163  LOWER_BOUND=    2.779  UPPER_BOUND=    4.145
INTER + INTRA:          -9.163
INTER:                  -9.163
INTRA:                   0.000
UNBOUND:                 0.000

$$$$

     RDKit          3D

 54 57  0  0  0  0  0  0  0  0999 V2000
   44.6041    4.6027   10.7684 C   0  0  0  0  0  0  0  0  0  0  0  0
   44.5373    3.2394   10.4169 C   0  0  0  0  0  0  0  0  0  0  0  0
   44.0572    2.2815   11.2396 N   0  0  0  0  0  0  0  0  0  0  0  0
   45.1283    5.5228    9.8225 C   0  0  0  0  0  0  0  0  0  0  0  0
   44.9886    2.8549    9.1567 C   0  0  0  0  0  0  0  0  0  0  0  0
   45.5720    5.0983    8.5659 C   0  0  0  0  0  0  0  0  0  0  0  0
   45.5019    3.7528    8.2291 C   0  0  0  0  0  0  0  0  0  0  0  0
   45.2478    7.2161   10.1690 Cl  0  0  0  0  0  0  0  0  0  0  0  0
   44.9294    1.5283    8.8004 O   0  0  0  0  0  0  0  0  0  0  0  0
   44.1345    4.9423   12.0567 C   0  0  0  0  0  0  0  0  0  0  0  0
   43.6208    2.6589   12.4604 C   0  0  0  0  0  0  0  0  0  0  0  0
   43.6384    3.9630   12.9110 C   0  0  0  0  0  0  0  0  0  0  0  0
   44.3338    3.3044   10.4418 C   0  0  0  0  0  0  0  0  0  0  0  0
   43.7340    3.0415   11.6708 C   0  0  0  0  0  0  0  0  0  0  0  0
   45.0137    4.5264   10.2596 C   0  0  0  0  0  0  0  0  0  0  0  0
   43.7853    3.9501   12.7270 C   0  0  0  0  0  0  0  0  0  0  0  0
   45.0610    5.4448   11.3392 C   0  0  0  0  0  0  0  0  0  0  0  0
   44.4515    5.1575   12.5618 C   0  0  0  0  0  0  0  0  0  0  0  0
   44.2318    2.3645    9.4775 N   0  0  0  0  0  0  0  0  0  0  0  0
   43.0760    1.8391   11.8212 O   0  0  0  0  0  0  0  0  0  0  0  0
   43.0396    3.6156   14.2451 Cl  0  0  0  0  0  0  0  0  0  0  0  0
   45.8738    6.9686   11.2038 Cl  0  0  0  0  0  0  0  0  0  0  0  0
   45.6016    4.7368    8.9926 C   0  0  0  0  0  0  0  0  0  0  0  0
   44.8113    2.6136    8.2833 C   0  0  0  0  0  0  0  0  0  0  0  0
   45.5004    3.7730    7.9951 C   0  0  0  0  0  0  0  0  0  0  0  0
   45.7069    4.6484    9.4420 C   0  0  0  0  0  0  0  0  0  0  0  0
   44.8902    4.4611   10.5548 C   0  0  0  0  0  0  0  0  0  0  0  0
   45.8039    3.6890    8.4328 C   0  0  0  0  0  0  0  0  0  0  0  0
   44.8373    5.4252   11.4993 N   0  0  0  0  0  0  0  0  0  0  0  0
   44.1492    3.2646   10.6473 C   0  0  0  0  0  0  0  0  0  0  0  0
   45.0695    2.5089    8.5295 C   0  0  0  0  0  0  0  0  0  0  0  0
   44.2432    2.2950    9.6336 C   0  0  0  0  0  0  0  0  0  0  0  0
   46.4266    5.8219    9.3625 O   0  0  0  0  0  0  0  0  0  0  0  0
   46.8158    3.9237    7.0563 Cl  0  0  0  0  0  0  0  0  0  0  0  0
   44.0359    5.2145   12.5673 C   0  0  0  0  0  0  0  0  0  0  0  0
   43.3313    3.0869   11.7706 C   0  0  0  0  0  0  0  0  0  0  0  0
   43.2726    4.0756   12.7463 C   0  0  0  0  0  0  0  0  0  0  0  0
   45.9716    5.8111    7.8490 H   0  0  0  0  0  0  0  0  0  0  0  0
   45.8410    3.4023    7.2589 H   0  0  0  0  0  0  0  0  0  0  0  0
   44.5426    1.0892    9.5887 H   0  0  0  0  0  0  0  0  0  0  0  0
   44.1522    5.9729   12.4036 H   0  0  0  0  0  0  0  0  0  0  0  0
   43.2436    1.8557   13.0877 H   0  0  0  0  0  0  0  0  0  0  0  0
   43.2761    4.2149   13.9014 H   0  0  0  0  0  0  0  0  0  0  0  0
   44.4964    5.8719   13.3801 H   0  0  0  0  0  0  0  0  0  0  0  0
   43.1825    1.3908   10.9544 H   0  0  0  0  0  0  0  0  0  0  0  0
   46.1437    5.6540    8.7725 H   0  0  0  0  0  0  0  0  0  0  0  0
   44.7020    1.8280    7.5403 H   0  0  0  0  0  0  0  0  0  0  0  0
   45.9488    3.9265    7.0197 H   0  0  0  0  0  0  0  0  0  0  0  0
   45.1363    1.7540    7.7501 H   0  0  0  0  0  0  0  0  0  0  0  0
   43.6745    1.3697    9.6982 H   0  0  0  0  0  0  0  0  0  0  0  0
   46.1845    6.3102   10.1783 H   0  0  0  0  0  0  0  0  0  0  0  0
   44.0236    6.0152   13.3021 H   0  0  0  0  0  0  0  0  0  0  0  0
   42.7394    2.1830   11.8907 H   0  0  0  0  0  0  0  0  0  0  0  0
   42.6465    3.9601   13.6242 H   0  0  0  0  0  0  0  0  0  0  0  0
  2  1  1  0
  3  2  2  0
  4  1  1  0
  5  2  1  0
  6  4  2  0
  7  6  1  0
  8  4  1  0
  9  5  1  0
 10  1  2  0
 11 12  2  0
 12 10  1  0
 11  3  1  0
  7  5  2  0
 14 13  2  0
 15 13  1  0
 16 14  1  0
 17 15  2  0
 18 17  1  0
 19 13  1  0
 20 14  1  0
 21 16  1  0
 22 17  1  0
 23 15  1  0
 24 19  2  0
 25 23  2  0
 16 18  2  0
 24 25  1  0
 27 26  2  0
 28 26  1  0
 29 27  1  0
 30 27  1  0
 31 28  2  0
 32 31  1  0
 33 26  1  0
 34 28  1  0
 35 29  2  0
 36 30  1  0
 37 36  2  0
 32 30  2  0
 35 37  1  0
  6 38  1  0
  7 39  1  0
  9 40  1  0
 10 41  1  0
 11 42  1  0
 12 43  1  0
 18 44  1  0
 20 45  1  0
 23 46  1  0
 24 47  1  0
 25 48  1  0
 31 49  1  0
 32 50  1  0
 33 51  1  0
 35 52  1  0
 36 53  1  0
 37 54  1  0
M  END
> <Uni-Dock RESULT> 
ENERGY=   -9.160  LOWER_BOUND=    0.795  UPPER_BOUND=    3.713
INTER + INTRA:          -9.160
INTER:                  -9.160
INTRA:                   0.000
UNBOUND:                 0.000

$$$$

     RDKit          3D

 54 57  0  0  0  0  0  0  0  0999 V2000
   45.6219    6.4879   12.5349 C   0  0  0  0  0  0  0  0  0  0  0  0
   44.3121    6.6404   12.0369 C   0  0  0  0  0  0  0  0  0  0  0  0
   43.7708    7.8370   11.7210 N   0  0  0  0  0  0  0  0  0  0  0  0
   46.0867    5.1799   12.8334 C   0  0  0  0  0  0  0  0  0  0  0  0
   43.5315    5.5007   11.8595 C   0  0  0  0  0  0  0  0  0  0  0  0
   45.2726    4.0588   12.6417 C   0  0  0  0  0  0  0  0  0  0  0  0
   43.9836    4.2197   12.1505 C   0  0  0  0  0  0  0  0  0  0  0  0
   47.6816    4.8987   13.4491 Cl  0  0  0  0  0  0  0  0  0  0  0  0
   42.2520    5.6346   11.3744 O   0  0  0  0  0  0  0  0  0  0  0  0
   46.3734    7.6730   12.6972 C   0  0  0  0  0  0  0  0  0  0  0  0
   44.5312    8.9392   11.8948 C   0  0  0  0  0  0  0  0  0  0  0  0
   45.8246    8.9098   12.3748 C   0  0  0  0  0  0  0  0  0  0  0  0
   44.4436    6.7049   11.8793 C   0  0  0  0  0  0  0  0  0  0  0  0
   44.6703    8.0745   11.7695 C   0  0  0  0  0  0  0  0  0  0  0  0
   45.3054    5.9309   12.6836 C   0  0  0  0  0  0  0  0  0  0  0  0
   45.7240    8.7040   12.4307 C   0  0  0  0  0  0  0  0  0  0  0  0
   46.3746    6.5793   13.3527 C   0  0  0  0  0  0  0  0  0  0  0  0
   46.5807    7.9541   13.2262 C   0  0  0  0  0  0  0  0  0  0  0  0
   43.3980    6.1834   11.2021 N   0  0  0  0  0  0  0  0  0  0  0  0
   43.8123    8.8069   10.9766 O   0  0  0  0  0  0  0  0  0  0  0  0
   45.9968   10.4004   12.2886 Cl  0  0  0  0  0  0  0  0  0  0  0  0
   47.4811    5.7069   14.3604 Cl  0  0  0  0  0  0  0  0  0  0  0  0
   45.0257    4.5483   12.7564 C   0  0  0  0  0  0  0  0  0  0  0  0
   43.1728    4.8558   11.3046 C   0  0  0  0  0  0  0  0  0  0  0  0
   43.9506    4.0048   12.0615 C   0  0  0  0  0  0  0  0  0  0  0  0
   45.0104    4.9451   13.0077 C   0  0  0  0  0  0  0  0  0  0  0  0
   45.3512    6.2542   12.6752 C   0  0  0  0  0  0  0  0  0  0  0  0
   43.8723    4.3278   12.4862 C   0  0  0  0  0  0  0  0  0  0  0  0
   46.4649    6.7984   13.2117 N   0  0  0  0  0  0  0  0  0  0  0  0
   44.5127    6.9589   11.7866 C   0  0  0  0  0  0  0  0  0  0  0  0
   43.0476    5.0289   11.6088 C   0  0  0  0  0  0  0  0  0  0  0  0
   43.3651    6.3419   11.2583 C   0  0  0  0  0  0  0  0  0  0  0  0
   45.8376    4.2661   13.8773 O   0  0  0  0  0  0  0  0  0  0  0  0
   43.4528    2.7070   12.8997 Cl  0  0  0  0  0  0  0  0  0  0  0  0
   46.7693    8.0704   12.8699 C   0  0  0  0  0  0  0  0  0  0  0  0
   44.8651    8.2746   11.4593 C   0  0  0  0  0  0  0  0  0  0  0  0
   46.0103    8.8404   12.0083 C   0  0  0  0  0  0  0  0  0  0  0  0
   45.6384    3.0617   12.8734 H   0  0  0  0  0  0  0  0  0  0  0  0
   43.3352    3.3627   11.9944 H   0  0  0  0  0  0  0  0  0  0  0  0
   42.1495    6.6019   11.2425 H   0  0  0  0  0  0  0  0  0  0  0  0
   47.3922    7.6403   13.0763 H   0  0  0  0  0  0  0  0  0  0  0  0
   44.0551    9.8788   11.6280 H   0  0  0  0  0  0  0  0  0  0  0  0
   46.3943    9.8243   12.4964 H   0  0  0  0  0  0  0  0  0  0  0  0
   47.4050    8.4368   13.7455 H   0  0  0  0  0  0  0  0  0  0  0  0
   43.1727    8.1468   10.6320 H   0  0  0  0  0  0  0  0  0  0  0  0
   45.6437    3.8830   13.3557 H   0  0  0  0  0  0  0  0  0  0  0  0
   42.3208    4.4837   10.7418 H   0  0  0  0  0  0  0  0  0  0  0  0
   43.7288    2.9444   12.1119 H   0  0  0  0  0  0  0  0  0  0  0  0
   42.1584    4.5592   11.1957 H   0  0  0  0  0  0  0  0  0  0  0  0
   42.7138    6.8794   10.5724 H   0  0  0  0  0  0  0  0  0  0  0  0
   46.5466    4.9100   14.0894 H   0  0  0  0  0  0  0  0  0  0  0  0
   47.6730    8.4682   13.3243 H   0  0  0  0  0  0  0  0  0  0  0  0
   44.2532    8.8618   10.7791 H   0  0  0  0  0  0  0  0  0  0  0  0
   46.3028    9.8569   11.7693 H   0  0  0  0  0  0  0  0  0  0  0  0
  2  1  1  0
  3  2  2  0
  4  1  1  0
  5  2  1  0
  6  4  2  0
  7  6  1  0
  8  4  1  0
  9  5  1  0
 10  1  2  0
 11 12  2  0
 12 10  1  0
 11  3  1  0
  7  5  2  0
 14 13  2  0
 15 13  1  0
 16 14  1  0
 17 15  2  0
 18 17  1  0
 19 13  1  0
 20 14  1  0
 21 16  1  0
 22 17  1  0
 23 15  1  0
 24 19  2  0
 25 23  2  0
 16 18  2  0
 24 25  1  0
 27 26  2  0
 28 26  1  0
 29 27  1  0
 30 27  1  0
 31 28  2  0
 32 31  1  0
 33 26  1  0
 34 28  1  0
 35 29  2  0
 36 30  1  0
 37 36  2  0
 32 30  2  0
 35 37  1  0
  6 38  1  0
  7 39  1  0
  9 40  1  0
 10 41  1  0
 11 42  1  0
 12 43  1  0
 18 44  1  0
 20 45  1  0
 23 46  1  0
 24 47  1  0
 25 48  1  0
 31 49  1  0
 32 50  1  0
 33 51  1  0
 35 52  1  0
 36 53  1  0
 37 54  1  0
M  END
> <Uni-Dock RESULT> 
ENERGY=   -9.153  LOWER_BOUND=    3.199  UPPER_BOUND=    4.632
INTER + INTRA:          -9.153
INTER:                  -9.153
INTRA:                   0.000
UNBOUND:                 0.000

$$$$

     RDKit          3D

 54 57  0  0  0  0  0  0  0  0999 V2000
   45.5462    6.0582   12.5618 C   0  0  0  0  0  0  0  0  0  0  0  0
   46.3709    6.9934   13.2192 C   0  0  0  0  0  0  0  0  0  0  0  0
   47.3035    6.6495   14.1340 N   0  0  0  0  0  0  0  0  0  0  0  0
   44.5991    6.5343   11.6171 C   0  0  0  0  0  0  0  0  0  0  0  0
   46.2201    8.3437   12.9130 C   0  0  0  0  0  0  0  0  0  0  0  0
   44.4771    7.8990   11.3361 C   0  0  0  0  0  0  0  0  0  0  0  0
   45.2943    8.8123   11.9891 C   0  0  0  0  0  0  0  0  0  0  0  0
   43.5451    5.4571   10.7625 Cl  0  0  0  0  0  0  0  0  0  0  0  0
   47.0178    9.2669   13.5466 O   0  0  0  0  0  0  0  0  0  0  0  0
   45.7373    4.7017   12.9065 C   0  0  0  0  0  0  0  0  0  0  0  0
   47.4461    5.3393   14.4278 C   0  0  0  0  0  0  0  0  0  0  0  0
   46.6950    4.3378   13.8473 C   0  0  0  0  0  0  0  0  0  0  0  0
   46.5023    6.8714   13.1004 C   0  0  0  0  0  0  0  0  0  0  0  0
   47.1406    5.8170   13.7487 C   0  0  0  0  0  0  0  0  0  0  0  0
   45.2531    6.6422   12.4875 C   0  0  0  0  0  0  0  0  0  0  0  0
   46.5817    4.5412   13.8103 C   0  0  0  0  0  0  0  0  0  0  0  0
   44.6919    5.3415   12.5550 C   0  0  0  0  0  0  0  0  0  0  0  0
   45.3519    4.3011   13.2112 C   0  0  0  0  0  0  0  0  0  0  0  0
   47.1202    8.0722   13.0924 N   0  0  0  0  0  0  0  0  0  0  0  0
   48.3607    6.0693   14.3392 O   0  0  0  0  0  0  0  0  0  0  0  0
   47.3795    3.2420   14.6153 Cl  0  0  0  0  0  0  0  0  0  0  0  0
   43.1627    4.9706   11.8306 Cl  0  0  0  0  0  0  0  0  0  0  0  0
   44.6543    7.7489   11.8457 C   0  0  0  0  0  0  0  0  0  0  0  0
   46.5063    9.0987   12.4653 C   0  0  0  0  0  0  0  0  0  0  0  0
   45.2853    8.9882   11.8337 C   0  0  0  0  0  0  0  0  0  0  0  0
   44.6152    7.4709   12.2226 C   0  0  0  0  0  0  0  0  0  0  0  0
   45.3905    6.3971   12.6539 C   0  0  0  0  0  0  0  0  0  0  0  0
   45.0798    8.7854   12.2892 C   0  0  0  0  0  0  0  0  0  0  0  0
   44.8871    5.1469   12.5648 N   0  0  0  0  0  0  0  0  0  0  0  0
   46.6764    6.6641   13.1685 C   0  0  0  0  0  0  0  0  0  0  0  0
   46.3508    9.0432   12.7983 C   0  0  0  0  0  0  0  0  0  0  0  0
   47.1493    7.9863   13.2377 C   0  0  0  0  0  0  0  0  0  0  0  0
   43.3598    7.1977   11.7216 O   0  0  0  0  0  0  0  0  0  0  0  0
   44.1176   10.1129   11.7544 Cl  0  0  0  0  0  0  0  0  0  0  0  0
   45.6632    4.1257   12.9913 C   0  0  0  0  0  0  0  0  0  0  0  0
   47.4472    5.5767   13.5992 C   0  0  0  0  0  0  0  0  0  0  0  0
   46.9346    4.2874   13.5101 C   0  0  0  0  0  0  0  0  0  0  0  0
   43.7486    8.2528   10.6109 H   0  0  0  0  0  0  0  0  0  0  0  0
   45.2158    9.8762   11.7856 H   0  0  0  0  0  0  0  0  0  0  0  0
   47.5812    8.7245   14.1399 H   0  0  0  0  0  0  0  0  0  0  0  0
   45.1407    3.9189   12.4439 H   0  0  0  0  0  0  0  0  0  0  0  0
   48.2073    5.1095   15.1684 H   0  0  0  0  0  0  0  0  0  0  0  0
   46.8482    3.2990   14.1178 H   0  0  0  0  0  0  0  0  0  0  0  0
   44.9089    3.3092   13.2543 H   0  0  0  0  0  0  0  0  0  0  0  0
   48.5291    7.0194   14.1588 H   0  0  0  0  0  0  0  0  0  0  0  0
   43.6908    7.6542   11.3496 H   0  0  0  0  0  0  0  0  0  0  0  0
   47.0424   10.0438   12.4858 H   0  0  0  0  0  0  0  0  0  0  0  0
   44.8326    9.8431   11.3432 H   0  0  0  0  0  0  0  0  0  0  0  0
   46.7243   10.0626   12.8554 H   0  0  0  0  0  0  0  0  0  0  0  0
   48.1400    8.1997   13.6334 H   0  0  0  0  0  0  0  0  0  0  0  0
   43.2813    6.2218   11.7842 H   0  0  0  0  0  0  0  0  0  0  0  0
   45.2191    3.1378   12.9015 H   0  0  0  0  0  0  0  0  0  0  0  0
   48.4450    5.7274   14.0040 H   0  0  0  0  0  0  0  0  0  0  0  0
   47.5131    3.4306   13.8373 H   0  0  0  0  0  0  0  0  0  0  0  0
  2  1  1  0
  3  2  2  0
  4  1  1  0
  5  2  1  0
  6  4  2  0
  7  6  1  0
  8  4  1  0
  9  5  1  0
 10  1  2  0
 11 12  2  0
 12 10  1  0
 11  3  1  0
  7  5  2  0
 14 13  2  0
 15 13  1  0
 16 14  1  0
 17 15  2  0
 18 17  1  0
 19 13  1  0
 20 14  1  0
 21 16  1  0
 22 17  1  0
 23 15  1  0
 24 19  2  0
 25 23  2  0
 16 18  2  0
 24 25  1  0
 27 26  2  0
 28 26  1  0
 29 27  1  0
 30 27  1  0
 31 28  2  0
 32 31  1  0
 33 26  1  0
 34 28  1  0
 35 29  2  0
 36 30  1  0
 37 36  2  0
 32 30  2  0
 35 37  1  0
  6 38  1  0
  7 39  1  0
  9 40  1  0
 10 41  1  0
 11 42  1  0
 12 43  1  0
 18 44  1  0
 20 45  1  0
 23 46  1  0
 24 47  1  0
 25 48  1  0
 31 49  1  0
 32 50  1  0
 33 51  1  0
 35 52  1  0
 36 53  1  0
 37 54  1  0
M  END
> <Uni-Dock RESULT> 
ENERGY=   -9.119  LOWER_BOUND=    3.499  UPPER_BOUND=    5.422
INTER + INTRA:          -9.119
INTER:                  -9.119
INTRA:                   0.000
UNBOUND:                 0.000

$$$$

     RDKit          3D

 54 57  0  0  0  0  0  0  0  0999 V2000
   45.2427    7.2320   12.5417 C   0  0  0  0  0  0  0  0  0  0  0  0
   46.5827    7.3671   12.9576 C   0  0  0  0  0  0  0  0  0  0  0  0
   47.2867    8.5139   12.8387 N   0  0  0  0  0  0  0  0  0  0  0  0
   44.6010    5.9775   12.7159 C   0  0  0  0  0  0  0  0  0  0  0  0
   47.2183    6.2635   13.5213 C   0  0  0  0  0  0  0  0  0  0  0  0
   45.2728    4.8915   13.2865 C   0  0  0  0  0  0  0  0  0  0  0  0
   46.5929    5.0348   13.6930 C   0  0  0  0  0  0  0  0  0  0  0  0
   42.9567    5.7211   12.2339 Cl  0  0  0  0  0  0  0  0  0  0  0  0
   48.5252    6.3810   13.9315 O   0  0  0  0  0  0  0  0  0  0  0  0
   44.6425    8.3792   11.9765 C   0  0  0  0  0  0  0  0  0  0  0  0
   46.6665    9.5812   12.2915 C   0  0  0  0  0  0  0  0  0  0  0  0
   45.3593    9.5644   11.8497 C   0  0  0  0  0  0  0  0  0  0  0  0
   46.4679    7.4993   13.0828 C   0  0  0  0  0  0  0  0  0  0  0  0
   46.4237    8.8402   12.7094 C   0  0  0  0  0  0  0  0  0  0  0  0
   45.4781    6.6204   12.5964 C   0  0  0  0  0  0  0  0  0  0  0  0
   45.4301    9.3403   11.8690 C   0  0  0  0  0  0  0  0  0  0  0  0
   44.4711    7.1376   11.7421 C   0  0  0  0  0  0  0  0  0  0  0  0
   44.4488    8.4862   11.3825 C   0  0  0  0  0  0  0  0  0  0  0  0
   47.4681    7.1060   13.9006 N   0  0  0  0  0  0  0  0  0  0  0  0
   47.4039    9.6769   13.1995 O   0  0  0  0  0  0  0  0  0  0  0  0
   45.3835   11.0022   11.4122 Cl  0  0  0  0  0  0  0  0  0  0  0  0
   43.2170    6.1306   11.0988 Cl  0  0  0  0  0  0  0  0  0  0  0  0
   45.5748    5.2730   13.0091 C   0  0  0  0  0  0  0  0  0  0  0  0
   47.5165    5.8069   14.2663 C   0  0  0  0  0  0  0  0  0  0  0  0
   46.6023    4.8614   13.8512 C   0  0  0  0  0  0  0  0  0  0  0  0
   45.6293    5.5530   12.6356 C   0  0  0  0  0  0  0  0  0  0  0  0
   45.4745    6.9298   12.4919 C   0  0  0  0  0  0  0  0  0  0  0  0
   46.7017    5.0045   13.3409 C   0  0  0  0  0  0  0  0  0  0  0  0
   44.4162    7.4020   11.7980 N   0  0  0  0  0  0  0  0  0  0  0  0
   46.4363    7.7766   13.0813 C   0  0  0  0  0  0  0  0  0  0  0  0
   47.6488    5.8458   13.9211 C   0  0  0  0  0  0  0  0  0  0  0  0
   47.5184    7.2293   13.7928 C   0  0  0  0  0  0  0  0  0  0  0  0
   44.6829    4.7352   12.0551 O   0  0  0  0  0  0  0  0  0  0  0  0
   46.8908    3.2995   13.5172 Cl  0  0  0  0  0  0  0  0  0  0  0  0
   44.2932    8.7426   11.6758 C   0  0  0  0  0  0  0  0  0  0  0  0
   46.2705    9.1593   12.9304 C   0  0  0  0  0  0  0  0  0  0  0  0
   45.1833    9.6515   12.2172 C   0  0  0  0  0  0  0  0  0  0  0  0
   44.7721    3.9352   13.4152 H   0  0  0  0  0  0  0  0  0  0  0  0
   47.1327    4.2044   14.1382 H   0  0  0  0  0  0  0  0  0  0  0  0
   48.7567    7.3110   13.7191 H   0  0  0  0  0  0  0  0  0  0  0  0
   43.6116    8.3568   11.6309 H   0  0  0  0  0  0  0  0  0  0  0  0
   47.2707   10.4812   12.2158 H   0  0  0  0  0  0  0  0  0  0  0  0
   44.9064   10.4494   11.4170 H   0  0  0  0  0  0  0  0  0  0  0  0
   43.6702    8.8678   10.7266 H   0  0  0  0  0  0  0  0  0  0  0  0
   47.9689    9.0955   13.7530 H   0  0  0  0  0  0  0  0  0  0  0  0
   44.8499    4.5327   12.6775 H   0  0  0  0  0  0  0  0  0  0  0  0
   48.3387    5.5393   14.9246 H   0  0  0  0  0  0  0  0  0  0  0  0
   46.6839    3.8289   14.1729 H   0  0  0  0  0  0  0  0  0  0  0  0
   48.4885    5.4310   14.4730 H   0  0  0  0  0  0  0  0  0  0  0  0
   48.2640    7.8763   14.2501 H   0  0  0  0  0  0  0  0  0  0  0  0
   44.0531    5.3566   11.6312 H   0  0  0  0  0  0  0  0  0  0  0  0
   43.4280    9.0785   11.1102 H   0  0  0  0  0  0  0  0  0  0  0  0
   46.9832    9.8559   13.3649 H   0  0  0  0  0  0  0  0  0  0  0  0
   45.0346   10.7178   12.0876 H   0  0  0  0  0  0  0  0  0  0  0  0
  2  1  1  0
  3  2  2  0
  4  1  1  0
  5  2  1  0
  6  4  2  0
  7  6  1  0
  8  4  1  0
  9  5  1  0
 10  1  2  0
 11 12  2  0
 12 10  1  0
 11  3  1  0
  7  5  2  0
 14 13  2  0
 15 13  1  0
 16 14  1  0
 17 15  2  0
 18 17  1  0
 19 13  1  0
 20 14  1  0
 21 16  1  0
 22 17  1  0
 23 15  1  0
 24 19  2  0
 25 23  2  0
 16 18  2  0
 24 25  1  0
 27 26  2  0
 28 26  1  0
 29 27  1  0
 30 27  1  0
 31 28  2  0
 32 31  1  0
 33 26  1  0
 34 28  1  0
 35 29  2  0
 36 30  1  0
 37 36  2  0
 32 30  2  0
 35 37  1  0
  6 38  1  0
  7 39  1  0
  9 40  1  0
 10 41  1  0
 11 42  1  0
 12 43  1  0
 18 44  1  0
 20 45  1  0
 23 46  1  0
 24 47  1  0
 25 48  1  0
 31 49  1  0
 32 50  1  0
 33 51  1  0
 35 52  1  0
 36 53  1  0
 37 54  1  0
M  END
> <Uni-Dock RESULT> 
ENERGY=   -8.980  LOWER_BOUND=    3.719  UPPER_BOUND=    5.579
INTER + INTRA:          -8.980
INTER:                  -8.980
INTRA:                   0.000
UNBOUND:                 0.000

$$$$

     RDKit          3D

 54 57  0  0  0  0  0  0  0  0999 V2000
   44.8631    6.3886   12.4005 C   0  0  0  0  0  0  0  0  0  0  0  0
   45.8356    5.4098   12.6887 C   0  0  0  0  0  0  0  0  0  0  0  0
   47.1150    5.7034   13.0079 N   0  0  0  0  0  0  0  0  0  0  0  0
   43.5475    5.9638   12.0769 C   0  0  0  0  0  0  0  0  0  0  0  0
   45.4629    4.0687   12.6433 C   0  0  0  0  0  0  0  0  0  0  0  0
   43.2110    4.6067   12.0415 C   0  0  0  0  0  0  0  0  0  0  0  0
   44.1764    3.6501   12.3271 C   0  0  0  0  0  0  0  0  0  0  0  0
   42.2895    7.0968   11.7091 Cl  0  0  0  0  0  0  0  0  0  0  0  0
   46.4011    3.1033   12.9222 O   0  0  0  0  0  0  0  0  0  0  0  0
   45.2901    7.7338   12.4597 C   0  0  0  0  0  0  0  0  0  0  0  0
   47.4719    7.0050   13.0506 C   0  0  0  0  0  0  0  0  0  0  0  0
   46.6054    8.0461   12.7874 C   0  0  0  0  0  0  0  0  0  0  0  0
   45.8083    5.5218   12.8703 C   0  0  0  0  0  0  0  0  0  0  0  0
   46.7230    6.5402   13.1264 C   0  0  0  0  0  0  0  0  0  0  0  0
   44.6296    5.8239   12.1575 C   0  0  0  0  0  0  0  0  0  0  0  0
   46.5086    7.8499   12.6993 C   0  0  0  0  0  0  0  0  0  0  0  0
   44.4196    7.1587   11.7267 C   0  0  0  0  0  0  0  0  0  0  0  0
   45.3522    8.1619   11.9962 C   0  0  0  0  0  0  0  0  0  0  0  0
   46.1012    4.2837   13.3232 N   0  0  0  0  0  0  0  0  0  0  0  0
   47.8667    6.2167   13.8253 O   0  0  0  0  0  0  0  0  0  0  0  0
   47.6470    9.1042   13.0212 Cl  0  0  0  0  0  0  0  0  0  0  0  0
   43.0008    7.6189   10.8458 Cl  0  0  0  0  0  0  0  0  0  0  0  0
   43.7402    4.7508   11.9281 C   0  0  0  0  0  0  0  0  0  0  0  0
   45.2182    3.2918   13.0780 C   0  0  0  0  0  0  0  0  0  0  0  0
   44.0358    3.4734   12.3918 C   0  0  0  0  0  0  0  0  0  0  0  0
   44.0448    5.0350   11.7107 C   0  0  0  0  0  0  0  0  0  0  0  0
   44.8497    6.0615   12.1994 C   0  0  0  0  0  0  0  0  0  0  0  0
   44.3164    3.6941   11.9876 C   0  0  0  0  0  0  0  0  0  0  0  0
   44.5368    7.3404   11.8979 N   0  0  0  0  0  0  0  0  0  0  0  0
   45.9638    5.7183   12.9933 C   0  0  0  0  0  0  0  0  0  0  0  0
   45.4183    3.3609   12.7725 C   0  0  0  0  0  0  0  0  0  0  0  0
   46.2418    4.3692   13.2754 C   0  0  0  0  0  0  0  0  0  0  0  0
   42.9586    5.3827   10.9357 O   0  0  0  0  0  0  0  0  0  0  0  0
   43.3182    2.4253   11.3812 Cl  0  0  0  0  0  0  0  0  0  0  0  0
   45.3366    8.3144   12.3867 C   0  0  0  0  0  0  0  0  0  0  0  0
   46.7660    6.7586   13.4794 C   0  0  0  0  0  0  0  0  0  0  0  0
   46.4492    8.0771   13.1725 C   0  0  0  0  0  0  0  0  0  0  0  0
   42.2006    4.2922   11.7925 H   0  0  0  0  0  0  0  0  0  0  0  0
   43.9361    2.5913   12.3052 H   0  0  0  0  0  0  0  0  0  0  0  0
   47.2167    3.6150   13.1136 H   0  0  0  0  0  0  0  0  0  0  0  0
   44.6002    8.5481   12.2506 H   0  0  0  0  0  0  0  0  0  0  0  0
   48.5098    7.1937   13.3114 H   0  0  0  0  0  0  0  0  0  0  0  0
   46.9415    9.0758   12.8350 H   0  0  0  0  0  0  0  0  0  0  0  0
   45.1770    9.1806   11.6594 H   0  0  0  0  0  0  0  0  0  0  0  0
   47.7804    5.2557   14.0062 H   0  0  0  0  0  0  0  0  0  0  0  0
   42.8092    4.9017   11.3858 H   0  0  0  0  0  0  0  0  0  0  0  0
   45.4980    2.3144   13.4621 H   0  0  0  0  0  0  0  0  0  0  0  0
   43.3585    2.6440   12.2200 H   0  0  0  0  0  0  0  0  0  0  0  0
   45.6405    2.3203   12.9955 H   0  0  0  0  0  0  0  0  0  0  0  0
   47.0994    4.0970   13.8871 H   0  0  0  0  0  0  0  0  0  0  0  0
   42.9939    6.3623   10.8950 H   0  0  0  0  0  0  0  0  0  0  0  0
   45.0483    9.3278   12.1198 H   0  0  0  0  0  0  0  0  0  0  0  0
   47.6366    6.5487   14.0959 H   0  0  0  0  0  0  0  0  0  0  0  0
   47.0556    8.8986   13.5376 H   0  0  0  0  0  0  0  0  0  0  0  0
  2  1  1  0
  3  2  2  0
  4  1  1  0
  5  2  1  0
  6  4  2  0
  7  6  1  0
  8  4  1  0
  9  5  1  0
 10  1  2  0
 11 12  2  0
 12 10  1  0
 11  3  1  0
  7  5  2  0
 14 13  2  0
 15 13  1  0
 16 14  1  0
 17 15  2  0
 18 17  1  0
 19 13  1  0
 20 14  1  0
 21 16  1  0
 22 17  1  0
 23 15  1  0
 24 19  2  0
 25 23  2  0
 16 18  2  0
 24 25  1  0
 27 26  2  0
 28 26  1  0
 29 27  1  0
 30 27  1  0
 31 28  2  0
 32 31  1  0
 33 26  1  0
 34 28  1  0
 35 29  2  0
 36 30  1  0
 37 36  2  0
 32 30  2  0
 35 37  1  0
  6 38  1  0
  7 39  1  0
  9 40  1  0
 10 41  1  0
 11 42  1  0
 12 43  1  0
 18 44  1  0
 20 45  1  0
 23 46  1  0
 24 47  1  0
 25 48  1  0
 31 49  1  0
 32 50  1  0
 33 51  1  0
 35 52  1  0
 36 53  1  0
 37 54  1  0
M  END
> <Uni-Dock RESULT> 
ENERGY=   -8.668  LOWER_BOUND=    2.964  UPPER_BOUND=    4.399
INTER + INTRA:          -8.668
INTER:                  -8.668
INTRA:                   0.000
UNBOUND:                 0.000

$$$$

     RDKit          3D

 54 57  0  0  0  0  0  0  0  0999 V2000
   50.9507    3.9001   17.6875 C   0  0  0  0  0  0  0  0  0  0  0  0
   50.8336    2.4962   17.6413 C   0  0  0  0  0  0  0  0  0  0  0  0
   49.6709    1.8542   17.3944 N   0  0  0  0  0  0  0  0  0  0  0  0
   52.2247    4.4666   17.9559 C   0  0  0  0  0  0  0  0  0  0  0  0
   51.9732    1.7264   17.8610 C   0  0  0  0  0  0  0  0  0  0  0  0
   53.3469    3.6600   18.1713 C   0  0  0  0  0  0  0  0  0  0  0  0
   53.2211    2.2779   18.1237 C   0  0  0  0  0  0  0  0  0  0  0  0
   52.4611    6.1812   18.0313 Cl  0  0  0  0  0  0  0  0  0  0  0  0
   51.8737    0.3558   17.8189 O   0  0  0  0  0  0  0  0  0  0  0  0
   49.7670    4.6363   17.4584 C   0  0  0  0  0  0  0  0  0  0  0  0
   48.5685    2.6045   17.1821 C   0  0  0  0  0  0  0  0  0  0  0  0
   48.5651    3.9843   17.2034 C   0  0  0  0  0  0  0  0  0  0  0  0
   50.7890    2.5661   17.4428 C   0  0  0  0  0  0  0  0  0  0  0  0
   49.4439    2.7130   17.1136 C   0  0  0  0  0  0  0  0  0  0  0  0
   51.4826    3.6636   17.9936 C   0  0  0  0  0  0  0  0  0  0  0  0
   48.7618    3.9126   17.3120 C   0  0  0  0  0  0  0  0  0  0  0  0
   50.7810    4.8800   18.1920 C   0  0  0  0  0  0  0  0  0  0  0  0
   49.4322    5.0018   17.8535 C   0  0  0  0  0  0  0  0  0  0  0  0
   51.3657    1.3665   17.2149 N   0  0  0  0  0  0  0  0  0  0  0  0
   48.7905    1.6239   16.5768 O   0  0  0  0  0  0  0  0  0  0  0  0
   47.0962    4.0849   16.9012 Cl  0  0  0  0  0  0  0  0  0  0  0  0
   51.5536    6.2781   18.8625 Cl  0  0  0  0  0  0  0  0  0  0  0  0
   52.8439    3.4548   18.3072 C   0  0  0  0  0  0  0  0  0  0  0  0
   52.6700    1.2177   17.5321 C   0  0  0  0  0  0  0  0  0  0  0  0
   53.4439    2.2218   18.0750 C   0  0  0  0  0  0  0  0  0  0  0  0
   52.4214    3.5152   18.5039 C   0  0  0  0  0  0  0  0  0  0  0  0
   51.1630    3.6968   17.9348 C   0  0  0  0  0  0  0  0  0  0  0  0
   53.0745    2.2823   18.4632 C   0  0  0  0  0  0  0  0  0  0  0  0
   50.5804    4.9133   18.0058 N   0  0  0  0  0  0  0  0  0  0  0  0
   50.5480    2.5948   17.3050 C   0  0  0  0  0  0  0  0  0  0  0  0
   52.4622    1.1972   17.8397 C   0  0  0  0  0  0  0  0  0  0  0  0
   51.2015    1.3507   17.2611 C   0  0  0  0  0  0  0  0  0  0  0  0
   53.0127    4.5997   19.1169 O   0  0  0  0  0  0  0  0  0  0  0  0
   54.6324    2.0605   19.1687 Cl  0  0  0  0  0  0  0  0  0  0  0  0
   49.3593    5.0583   17.4443 C   0  0  0  0  0  0  0  0  0  0  0  0
   49.2827    2.7889   16.7362 C   0  0  0  0  0  0  0  0  0  0  0  0
   48.6777    4.0387   16.8059 C   0  0  0  0  0  0  0  0  0  0  0  0
   54.3178    4.1041   18.3760 H   0  0  0  0  0  0  0  0  0  0  0  0
   54.0796    1.6336   18.2882 H   0  0  0  0  0  0  0  0  0  0  0  0
   50.9254    0.1939   17.6231 H   0  0  0  0  0  0  0  0  0  0  0  0
   49.7736    5.7236   17.4771 H   0  0  0  0  0  0  0  0  0  0  0  0
   47.6569    2.0461   16.9877 H   0  0  0  0  0  0  0  0  0  0  0  0
   47.6520    4.5416   17.0266 H   0  0  0  0  0  0  0  0  0  0  0  0
   48.9080    5.9411   18.0116 H   0  0  0  0  0  0  0  0  0  0  0  0
   49.4745    0.9207   16.5402 H   0  0  0  0  0  0  0  0  0  0  0  0
   53.4482    4.2517   18.7354 H   0  0  0  0  0  0  0  0  0  0  0  0
   53.0887    0.2353   17.3303 H   0  0  0  0  0  0  0  0  0  0  0  0
   54.4885    2.0530   18.3129 H   0  0  0  0  0  0  0  0  0  0  0  0
   52.9606    0.2317   17.8011 H   0  0  0  0  0  0  0  0  0  0  0  0
   50.7332    0.4963   16.7770 H   0  0  0  0  0  0  0  0  0  0  0  0
   52.3606    5.3246   19.0082 H   0  0  0  0  0  0  0  0  0  0  0  0
   48.9279    6.0526   17.5245 H   0  0  0  0  0  0  0  0  0  0  0  0
   48.7649    1.9724   16.2388 H   0  0  0  0  0  0  0  0  0  0  0  0
   47.6989    4.2123   16.3727 H   0  0  0  0  0  0  0  0  0  0  0  0
  2  1  1  0
  3  2  2  0
  4  1  1  0
  5  2  1  0
  6  4  2  0
  7  6  1  0
  8  4  1  0
  9  5  1  0
 10  1  2  0
 11 12  2  0
 12 10  1  0
 11  3  1  0
  7  5  2  0
 14 13  2  0
 15 13  1  0
 16 14  1  0
 17 15  2  0
 18 17  1  0
 19 13  1  0
 20 14  1  0
 21 16  1  0
 22 17  1  0
 23 15  1  0
 24 19  2  0
 25 23  2  0
 16 18  2  0
 24 25  1  0
 27 26  2  0
 28 26  1  0
 29 27  1  0
 30 27  1  0
 31 28  2  0
 32 31  1  0
 33 26  1  0
 34 28  1  0
 35 29  2  0
 36 30  1  0
 37 36  2  0
 32 30  2  0
 35 37  1  0
  6 38  1  0
  7 39  1  0
  9 40  1  0
 10 41  1  0
 11 42  1  0
 12 43  1  0
 18 44  1  0
 20 45  1  0
 23 46  1  0
 24 47  1  0
 25 48  1  0
 31 49  1  0
 32 50  1  0
 33 51  1  0
 35 52  1  0
 36 53  1  0
 37 54  1  0
M  END
> <Uni-Dock RESULT> 
ENERGY=   -8.423  LOWER_BOUND=    9.069  UPPER_BOUND=   10.236
INTER + INTRA:          -8.423
INTER:                  -8.423
INTRA:                   0.000
UNBOUND:                 0.000

$$$$
