
     RDKit          3D

 54 57  0  0  0  0  0  0  0  0999 V2000
   45.2619    6.4415   12.4121 C   0  0  0  0  0  0  0  0  0  0  0  0
   45.4391    5.0700   12.6852 C   0  0  0  0  0  0  0  0  0  0  0  0
   46.5016    4.5766   13.3579 N   0  0  0  0  0  0  0  0  0  0  0  0
   44.1050    6.8471   11.6959 C   0  0  0  0  0  0  0  0  0  0  0  0
   44.4711    4.1732   12.2401 C   0  0  0  0  0  0  0  0  0  0  0  0
   43.1543    5.9160   11.2651 C   0  0  0  0  0  0  0  0  0  0  0  0
   43.3381    4.5671   11.5392 C   0  0  0  0  0  0  0  0  0  0  0  0
   43.8060    8.5109   11.3162 Cl  0  0  0  0  0  0  0  0  0  0  0  0
   44.6310    2.8324   12.4994 O   0  0  0  0  0  0  0  0  0  0  0  0
   46.2706    7.3106   12.8840 C   0  0  0  0  0  0  0  0  0  0  0  0
   47.4375    5.4498   13.7875 C   0  0  0  0  0  0  0  0  0  0  0  0
   47.3681    6.8118   13.5778 C   0  0  0  0  0  0  0  0  0  0  0  0
   45.0407    6.0326   12.0143 C   0  0  0  0  0  0  0  0  0  0  0  0
   46.1009    6.7982   11.5355 C   0  0  0  0  0  0  0  0  0  0  0  0
   45.2611    5.1639   13.1032 C   0  0  0  0  0  0  0  0  0  0  0  0
   47.3738    6.7321   12.1001 C   0  0  0  0  0  0  0  0  0  0  0  0
   46.5590    5.1028   13.6716 C   0  0  0  0  0  0  0  0  0  0  0  0
   47.6052    5.8809   13.1731 C   0  0  0  0  0  0  0  0  0  0  0  0
   43.8433    6.1634   11.4038 N   0  0  0  0  0  0  0  0  0  0  0  0
   45.8572    7.6388   10.4700 O   0  0  0  0  0  0  0  0  0  0  0  0
   48.6801    7.6840   11.5003 Cl  0  0  0  0  0  0  0  0  0  0  0  0
   46.9190    4.0643   15.0104 Cl  0  0  0  0  0  0  0  0  0  0  0  0
   44.1488    4.4133   13.5447 C   0  0  0  0  0  0  0  0  0  0  0  0
   42.8113    5.4236   11.8635 C   0  0  0  0  0  0  0  0  0  0  0  0
   42.9128    4.5433   12.9204 C   0  0  0  0  0  0  0  0  0  0  0  0
   46.5829    5.3850   13.5284 C   0  0  0  0  0  0  0  0  0  0  0  0
   45.4655    5.1164   12.7412 C   0  0  0  0  0  0  0  0  0  0  0  0
   47.0688    6.6830   13.6946 C   0  0  0  0  0  0  0  0  0  0  0  0
   45.0417    3.8398   12.6177 N   0  0  0  0  0  0  0  0  0  0  0  0
   44.8210    6.1966   12.1032 C   0  0  0  0  0  0  0  0  0  0  0  0
   46.4281    7.7461   13.0619 C   0  0  0  0  0  0  0  0  0  0  0  0
   45.3063    7.5059   12.2674 C   0  0  0  0  0  0  0  0  0  0  0  0
   47.2047    4.3211   14.1472 O   0  0  0  0  0  0  0  0  0  0  0  0
   48.4525    7.0125   14.6698 Cl  0  0  0  0  0  0  0  0  0  0  0  0
   43.9548    3.6109   11.8472 C   0  0  0  0  0  0  0  0  0  0  0  0
   43.6983    5.9147   11.3141 C   0  0  0  0  0  0  0  0  0  0  0  0
   43.2572    4.6028   11.1830 C   0  0  0  0  0  0  0  0  0  0  0  0
   42.2719    6.2374   10.7173 H   0  0  0  0  0  0  0  0  0  0  0  0
   42.6122    3.8278   11.2137 H   0  0  0  0  0  0  0  0  0  0  0  0
   45.4785    2.7867   12.9927 H   0  0  0  0  0  0  0  0  0  0  0  0
   46.2078    8.3830   12.7141 H   0  0  0  0  0  0  0  0  0  0  0  0
   48.2734    5.0086   14.3236 H   0  0  0  0  0  0  0  0  0  0  0  0
   48.1469    7.4719   13.9434 H   0  0  0  0  0  0  0  0  0  0  0  0
   48.5948    5.8230   13.6195 H   0  0  0  0  0  0  0  0  0  0  0  0
   44.9076    7.5033   10.2623 H   0  0  0  0  0  0  0  0  0  0  0  0
   44.2365    3.7208   14.3791 H   0  0  0  0  0  0  0  0  0  0  0  0
   41.8690    5.5635   11.3403 H   0  0  0  0  0  0  0  0  0  0  0  0
   42.0539    3.9709   13.2530 H   0  0  0  0  0  0  0  0  0  0  0  0
   46.7968    8.7616   13.1835 H   0  0  0  0  0  0  0  0  0  0  0  0
   44.8142    8.3440   11.7782 H   0  0  0  0  0  0  0  0  0  0  0  0
   46.6776    3.5402   13.8735 H   0  0  0  0  0  0  0  0  0  0  0  0
   43.6489    2.5706   11.7757 H   0  0  0  0  0  0  0  0  0  0  0  0
   43.1649    6.7108   10.8006 H   0  0  0  0  0  0  0  0  0  0  0  0
   42.3908    4.3608   10.5776 H   0  0  0  0  0  0  0  0  0  0  0  0
  2  1  1  0
  3  2  2  0
  4  1  1  0
  5  2  1  0
  6  4  2  0
  7  6  1  0
  8  4  1  0
  9  5  1  0
 10  1  2  0
 11 12  2  0
 12 10  1  0
 11  3  1  0
  7  5  2  0
 14 13  2  0
 15 13  1  0
 16 14  1  0
 17 15  2  0
 18 17  1  0
 19 13  1  0
 20 14  1  0
 21 16  1  0
 22 17  1  0
 23 15  1  0
 24 19  2  0
 25 23  2  0
 16 18  2  0
 24 25  1  0
 27 26  2  0
 28 26  1  0
 29 27  1  0
 30 27  1  0
 31 28  2  0
 32 31  1  0
 33 26  1  0
 34 28  1  0
 35 29  2  0
 36 30  1  0
 37 36  2  0
 32 30  2  0
 35 37  1  0
  6 38  1  0
  7 39  1  0
  9 40  1  0
 10 41  1  0
 11 42  1  0
 12 43  1  0
 18 44  1  0
 20 45  1  0
 23 46  1  0
 24 47  1  0
 25 48  1  0
 31 49  1  0
 32 50  1  0
 33 51  1  0
 35 52  1  0
 36 53  1  0
 37 54  1  0
M  END
> <Uni-Dock RESULT> 
ENERGY=   -8.119  LOWER_BOUND=    0.000  UPPER_BOUND=    0.000
INTER + INTRA:          -8.119
INTER:                  -8.119
INTRA:                   0.000
UNBOUND:                 0.000

$$$$

     RDKit          3D

 54 57  0  0  0  0  0  0  0  0999 V2000
   45.8514    5.6726   13.1279 C   0  0  0  0  0  0  0  0  0  0  0  0
   46.0697    6.7669   12.2666 C   0  0  0  0  0  0  0  0  0  0  0  0
   45.1439    7.2248   11.3960 N   0  0  0  0  0  0  0  0  0  0  0  0
   46.8976    5.2779   14.0028 C   0  0  0  0  0  0  0  0  0  0  0  0
   47.3027    7.4129   12.3122 C   0  0  0  0  0  0  0  0  0  0  0  0
   48.1230    5.9521   14.0195 C   0  0  0  0  0  0  0  0  0  0  0  0
   48.3283    7.0290   13.1672 C   0  0  0  0  0  0  0  0  0  0  0  0
   46.7172    3.9449   15.0948 Cl  0  0  0  0  0  0  0  0  0  0  0  0
   47.5296    8.4818   11.4777 O   0  0  0  0  0  0  0  0  0  0  0  0
   44.5854    5.0512   13.0441 C   0  0  0  0  0  0  0  0  0  0  0  0
   43.9500    6.5955   11.3554 C   0  0  0  0  0  0  0  0  0  0  0  0
   43.6258    5.5156   12.1508 C   0  0  0  0  0  0  0  0  0  0  0  0
   46.4190    5.7768   12.9246 C   0  0  0  0  0  0  0  0  0  0  0  0
   45.8322    4.6086   12.4444 C   0  0  0  0  0  0  0  0  0  0  0  0
   45.8461    7.0199   12.5849 C   0  0  0  0  0  0  0  0  0  0  0  0
   44.6953    4.6308   11.6379 C   0  0  0  0  0  0  0  0  0  0  0  0
   44.6896    7.0333   11.7641 C   0  0  0  0  0  0  0  0  0  0  0  0
   44.1204    5.8479   11.2955 C   0  0  0  0  0  0  0  0  0  0  0  0
   47.5185    5.6567   13.6992 N   0  0  0  0  0  0  0  0  0  0  0  0
   46.4131    3.4074   12.7919 O   0  0  0  0  0  0  0  0  0  0  0  0
   43.9760    3.1791   11.0482 Cl  0  0  0  0  0  0  0  0  0  0  0  0
   43.9207    8.5138   11.2981 Cl  0  0  0  0  0  0  0  0  0  0  0  0
   46.4848    8.1693   13.1011 C   0  0  0  0  0  0  0  0  0  0  0  0
   48.0922    6.7859   14.1680 C   0  0  0  0  0  0  0  0  0  0  0  0
   47.6175    8.0527   13.8995 C   0  0  0  0  0  0  0  0  0  0  0  0
   44.6699    6.7345   11.8694 C   0  0  0  0  0  0  0  0  0  0  0  0
   45.9968    6.7617   12.2922 C   0  0  0  0  0  0  0  0  0  0  0  0
   43.7715    5.7718   12.3326 C   0  0  0  0  0  0  0  0  0  0  0  0
   46.8198    7.7177   11.8090 N   0  0  0  0  0  0  0  0  0  0  0  0
   46.4261    5.7830   13.2127 C   0  0  0  0  0  0  0  0  0  0  0  0
   44.2012    4.8075   13.2418 C   0  0  0  0  0  0  0  0  0  0  0  0
   45.5253    4.8111   13.6824 C   0  0  0  0  0  0  0  0  0  0  0  0
   44.2616    7.6962   10.9694 O   0  0  0  0  0  0  0  0  0  0  0  0
   42.1292    5.7407   11.8073 Cl  0  0  0  0  0  0  0  0  0  0  0  0
   48.1017    7.7181   12.2380 C   0  0  0  0  0  0  0  0  0  0  0  0
   47.7627    5.8200   13.6309 C   0  0  0  0  0  0  0  0  0  0  0  0
   48.6146    6.8015   13.1372 C   0  0  0  0  0  0  0  0  0  0  0  0
   48.9175    5.6416   14.6936 H   0  0  0  0  0  0  0  0  0  0  0  0
   49.2722    7.5660   13.1643 H   0  0  0  0  0  0  0  0  0  0  0  0
   46.6904    8.5724   10.9765 H   0  0  0  0  0  0  0  0  0  0  0  0
   44.3385    4.2004   13.6750 H   0  0  0  0  0  0  0  0  0  0  0  0
   43.2369    6.9977   10.6410 H   0  0  0  0  0  0  0  0  0  0  0  0
   42.6518    5.0445   12.0801 H   0  0  0  0  0  0  0  0  0  0  0  0
   43.2337    5.8745   10.6670 H   0  0  0  0  0  0  0  0  0  0  0  0
   47.1804    3.6580   13.3504 H   0  0  0  0  0  0  0  0  0  0  0  0
   46.1046    9.1654   12.8849 H   0  0  0  0  0  0  0  0  0  0  0  0
   48.9737    6.6379   14.7862 H   0  0  0  0  0  0  0  0  0  0  0  0
   48.1139    8.9299   14.2997 H   0  0  0  0  0  0  0  0  0  0  0  0
   43.5112    4.0524   13.6100 H   0  0  0  0  0  0  0  0  0  0  0  0
   45.8494    4.0532   14.3925 H   0  0  0  0  0  0  0  0  0  0  0  0
   45.0654    8.2358   10.8105 H   0  0  0  0  0  0  0  0  0  0  0  0
   48.7281    8.5038   11.8242 H   0  0  0  0  0  0  0  0  0  0  0  0
   48.1446    5.0889   14.3391 H   0  0  0  0  0  0  0  0  0  0  0  0
   49.6528    6.8496   13.4466 H   0  0  0  0  0  0  0  0  0  0  0  0
  2  1  1  0
  3  2  2  0
  4  1  1  0
  5  2  1  0
  6  4  2  0
  7  6  1  0
  8  4  1  0
  9  5  1  0
 10  1  2  0
 11 12  2  0
 12 10  1  0
 11  3  1  0
  7  5  2  0
 14 13  2  0
 15 13  1  0
 16 14  1  0
 17 15  2  0
 18 17  1  0
 19 13  1  0
 20 14  1  0
 21 16  1  0
 22 17  1  0
 23 15  1  0
 24 19  2  0
 25 23  2  0
 16 18  2  0
 24 25  1  0
 27 26  2  0
 28 26  1  0
 29 27  1  0
 30 27  1  0
 31 28  2  0
 32 31  1  0
 33 26  1  0
 34 28  1  0
 35 29  2  0
 36 30  1  0
 37 36  2  0
 32 30  2  0
 35 37  1  0
  6 38  1  0
  7 39  1  0
  9 40  1  0
 10 41  1  0
 11 42  1  0
 12 43  1  0
 18 44  1  0
 20 45  1  0
 23 46  1  0
 24 47  1  0
 25 48  1  0
 31 49  1  0
 32 50  1  0
 33 51  1  0
 35 52  1  0
 36 53  1  0
 37 54  1  0
M  END
> <Uni-Dock RESULT> 
ENERGY=   -7.871  LOWER_BOUND=    1.473  UPPER_BOUND=    4.534
INTER + INTRA:          -7.871
INTER:                  -7.871
INTRA:                   0.000
UNBOUND:                 0.000

$$$$

     RDKit          3D

 54 57  0  0  0  0  0  0  0  0999 V2000
   45.9590    5.8594   12.6641 C   0  0  0  0  0  0  0  0  0  0  0  0
   44.7035    6.4549   12.4271 C   0  0  0  0  0  0  0  0  0  0  0  0
   44.5381    7.7758   12.1977 N   0  0  0  0  0  0  0  0  0  0  0  0
   46.0138    4.4593   12.8938 C   0  0  0  0  0  0  0  0  0  0  0  0
   43.5719    5.6432   12.4286 C   0  0  0  0  0  0  0  0  0  0  0  0
   44.8545    3.6768   12.8876 C   0  0  0  0  0  0  0  0  0  0  0  0
   43.6224    4.2730   12.6530 C   0  0  0  0  0  0  0  0  0  0  0  0
   47.5127    3.6438   13.1935 Cl  0  0  0  0  0  0  0  0  0  0  0  0
   42.3408    6.2105   12.1989 O   0  0  0  0  0  0  0  0  0  0  0  0
   47.0759    6.7243   12.6525 C   0  0  0  0  0  0  0  0  0  0  0  0
   45.6380    8.5589   12.1971 C   0  0  0  0  0  0  0  0  0  0  0  0
   46.9153    8.0858   12.4170 C   0  0  0  0  0  0  0  0  0  0  0  0
   45.4644    5.6158   12.9294 C   0  0  0  0  0  0  0  0  0  0  0  0
   46.3685    6.2048   13.8099 C   0  0  0  0  0  0  0  0  0  0  0  0
   44.8111    6.4248   11.9768 C   0  0  0  0  0  0  0  0  0  0  0  0
   46.6474    7.5704   13.7780 C   0  0  0  0  0  0  0  0  0  0  0  0
   45.1007    7.8129   11.9513 C   0  0  0  0  0  0  0  0  0  0  0  0
   46.0113    8.3792   12.8450 C   0  0  0  0  0  0  0  0  0  0  0  0
   45.2581    4.2855   13.0352 N   0  0  0  0  0  0  0  0  0  0  0  0
   46.9926    5.3904   14.7309 O   0  0  0  0  0  0  0  0  0  0  0  0
   47.7683    8.2905   14.8723 Cl  0  0  0  0  0  0  0  0  0  0  0  0
   44.3449    8.8802   10.8155 Cl  0  0  0  0  0  0  0  0  0  0  0  0
   43.9057    5.7716   11.1112 C   0  0  0  0  0  0  0  0  0  0  0  0
   44.3825    3.7083   12.1843 C   0  0  0  0  0  0  0  0  0  0  0  0
   43.6887    4.4018   11.2148 C   0  0  0  0  0  0  0  0  0  0  0  0
   45.3605    7.7128   12.1036 C   0  0  0  0  0  0  0  0  0  0  0  0
   44.7613    6.4877   12.3875 C   0  0  0  0  0  0  0  0  0  0  0  0
   46.7423    7.8913   12.1887 C   0  0  0  0  0  0  0  0  0  0  0  0
   43.4189    6.3753   12.2878 N   0  0  0  0  0  0  0  0  0  0  0  0
   45.5883    5.4107   12.7691 C   0  0  0  0  0  0  0  0  0  0  0  0
   47.5541    6.8239   12.5663 C   0  0  0  0  0  0  0  0  0  0  0  0
   46.9806    5.5852   12.8564 C   0  0  0  0  0  0  0  0  0  0  0  0
   44.5421    8.7583   11.7315 O   0  0  0  0  0  0  0  0  0  0  0  0
   47.4812    9.4092   11.8367 Cl  0  0  0  0  0  0  0  0  0  0  0  0
   42.8669    5.1739   12.5696 C   0  0  0  0  0  0  0  0  0  0  0  0
   44.9748    4.1835   13.0522 C   0  0  0  0  0  0  0  0  0  0  0  0
   43.5936    4.0615   12.9514 C   0  0  0  0  0  0  0  0  0  0  0  0
   44.9077    2.6054   13.0645 H   0  0  0  0  0  0  0  0  0  0  0  0
   42.7103    3.6837   12.6439 H   0  0  0  0  0  0  0  0  0  0  0  0
   42.5402    7.1630   12.0694 H   0  0  0  0  0  0  0  0  0  0  0  0
   48.0792    6.3427   12.8269 H   0  0  0  0  0  0  0  0  0  0  0  0
   45.4573    9.6136   12.0083 H   0  0  0  0  0  0  0  0  0  0  0  0
   47.7671    8.7566   12.4063 H   0  0  0  0  0  0  0  0  0  0  0  0
   46.2228    9.4450   12.8131 H   0  0  0  0  0  0  0  0  0  0  0  0
   46.6332    4.4950   14.5505 H   0  0  0  0  0  0  0  0  0  0  0  0
   43.3619    6.3253   10.3489 H   0  0  0  0  0  0  0  0  0  0  0  0
   44.2506    2.6367   12.3084 H   0  0  0  0  0  0  0  0  0  0  0  0
   42.9955    3.8926   10.5544 H   0  0  0  0  0  0  0  0  0  0  0  0
   48.6317    6.9502   12.6363 H   0  0  0  0  0  0  0  0  0  0  0  0
   47.6247    4.7589   13.1502 H   0  0  0  0  0  0  0  0  0  0  0  0
   43.6384    8.3767   11.7498 H   0  0  0  0  0  0  0  0  0  0  0  0
   41.7851    5.1284   12.4766 H   0  0  0  0  0  0  0  0  0  0  0  0
   45.5663    3.3215   13.3509 H   0  0  0  0  0  0  0  0  0  0  0  0
   43.0971    3.1215   13.1657 H   0  0  0  0  0  0  0  0  0  0  0  0
  2  1  1  0
  3  2  2  0
  4  1  1  0
  5  2  1  0
  6  4  2  0
  7  6  1  0
  8  4  1  0
  9  5  1  0
 10  1  2  0
 11 12  2  0
 12 10  1  0
 11  3  1  0
  7  5  2  0
 14 13  2  0
 15 13  1  0
 16 14  1  0
 17 15  2  0
 18 17  1  0
 19 13  1  0
 20 14  1  0
 21 16  1  0
 22 17  1  0
 23 15  1  0
 24 19  2  0
 25 23  2  0
 16 18  2  0
 24 25  1  0
 27 26  2  0
 28 26  1  0
 29 27  1  0
 30 27  1  0
 31 28  2  0
 32 31  1  0
 33 26  1  0
 34 28  1  0
 35 29  2  0
 36 30  1  0
 37 36  2  0
 32 30  2  0
 35 37  1  0
  6 38  1  0
  7 39  1  0
  9 40  1  0
 10 41  1  0
 11 42  1  0
 12 43  1  0
 18 44  1  0
 20 45  1  0
 23 46  1  0
 24 47  1  0
 25 48  1  0
 31 49  1  0
 32 50  1  0
 33 51  1  0
 35 52  1  0
 36 53  1  0
 37 54  1  0
M  END
> <Uni-Dock RESULT> 
ENERGY=   -7.497  LOWER_BOUND=    1.197  UPPER_BOUND=    3.139
INTER + INTRA:          -7.497
INTER:                  -7.497
INTRA:                   0.000
UNBOUND:                 0.000

$$$$

     RDKit          3D

 54 57  0  0  0  0  0  0  0  0999 V2000
   49.8902    4.5213   18.2740 C   0  0  0  0  0  0  0  0  0  0  0  0
   49.8023    3.4266   17.3904 C   0  0  0  0  0  0  0  0  0  0  0  0
   50.8226    2.5713   17.1616 N   0  0  0  0  0  0  0  0  0  0  0  0
   48.7529    5.3556   18.4367 C   0  0  0  0  0  0  0  0  0  0  0  0
   48.6030    3.2116   16.7158 C   0  0  0  0  0  0  0  0  0  0  0  0
   47.5650    5.1072   17.7412 C   0  0  0  0  0  0  0  0  0  0  0  0
   47.4885    4.0260   16.8731 C   0  0  0  0  0  0  0  0  0  0  0  0
   48.7711    6.7225   19.5011 Cl  0  0  0  0  0  0  0  0  0  0  0  0
   48.5030    2.1476   15.8508 O   0  0  0  0  0  0  0  0  0  0  0  0
   51.1268    4.6971   18.9340 C   0  0  0  0  0  0  0  0  0  0  0  0
   51.9833    2.7837   17.8178 C   0  0  0  0  0  0  0  0  0  0  0  0
   52.1830    3.8215   18.7049 C   0  0  0  0  0  0  0  0  0  0  0  0
   49.5248    4.5677   17.7855 C   0  0  0  0  0  0  0  0  0  0  0  0
   50.6383    5.4037   17.7627 C   0  0  0  0  0  0  0  0  0  0  0  0
   49.7174    3.1708   17.7681 C   0  0  0  0  0  0  0  0  0  0  0  0
   51.9382    4.9013   17.7231 C   0  0  0  0  0  0  0  0  0  0  0  0
   51.0429    2.6683   17.7278 C   0  0  0  0  0  0  0  0  0  0  0  0
   52.1428    3.5276   17.7056 C   0  0  0  0  0  0  0  0  0  0  0  0
   48.3046    5.1451   17.8235 N   0  0  0  0  0  0  0  0  0  0  0  0
   50.4208    6.7651   17.7804 O   0  0  0  0  0  0  0  0  0  0  0  0
   53.3107    5.9444   17.6951 Cl  0  0  0  0  0  0  0  0  0  0  0  0
   51.3720    0.9678   17.7040 Cl  0  0  0  0  0  0  0  0  0  0  0  0
   48.5510    2.3743   17.7927 C   0  0  0  0  0  0  0  0  0  0  0  0
   47.2207    4.3398   17.8458 C   0  0  0  0  0  0  0  0  0  0  0  0
   47.2914    2.9625   17.8319 C   0  0  0  0  0  0  0  0  0  0  0  0
   51.1055    2.9589   17.8391 C   0  0  0  0  0  0  0  0  0  0  0  0
   49.8467    3.4130   17.4523 C   0  0  0  0  0  0  0  0  0  0  0  0
   51.8849    3.6557   18.7640 C   0  0  0  0  0  0  0  0  0  0  0  0
   49.1386    2.6959   16.5529 N   0  0  0  0  0  0  0  0  0  0  0  0
   49.3633    4.6100   18.0205 C   0  0  0  0  0  0  0  0  0  0  0  0
   51.4022    4.8375   19.3220 C   0  0  0  0  0  0  0  0  0  0  0  0
   50.1443    5.3156   18.9526 C   0  0  0  0  0  0  0  0  0  0  0  0
   51.5676    1.7876   17.2769 O   0  0  0  0  0  0  0  0  0  0  0  0
   53.4430    3.0910   19.2409 Cl  0  0  0  0  0  0  0  0  0  0  0  0
   47.9204    3.1621   16.1974 C   0  0  0  0  0  0  0  0  0  0  0  0
   48.0962    5.0571   17.6242 C   0  0  0  0  0  0  0  0  0  0  0  0
   47.3624    4.3234   16.6989 C   0  0  0  0  0  0  0  0  0  0  0  0
   46.6999    5.7523   17.8732 H   0  0  0  0  0  0  0  0  0  0  0  0
   46.5758    3.8156   16.3234 H   0  0  0  0  0  0  0  0  0  0  0  0
   49.3866    1.7222   15.8965 H   0  0  0  0  0  0  0  0  0  0  0  0
   51.2754    5.5181   19.6316 H   0  0  0  0  0  0  0  0  0  0  0  0
   52.7754    2.0715   17.6031 H   0  0  0  0  0  0  0  0  0  0  0  0
   53.1355    3.9492   19.2072 H   0  0  0  0  0  0  0  0  0  0  0  0
   53.1530    3.1272   17.6748 H   0  0  0  0  0  0  0  0  0  0  0  0
   49.4440    6.8575   17.8075 H   0  0  0  0  0  0  0  0  0  0  0  0
   48.6146    1.2883   17.7815 H   0  0  0  0  0  0  0  0  0  0  0  0
   46.2620    4.8508   17.8761 H   0  0  0  0  0  0  0  0  0  0  0  0
   46.3910    2.3585   17.8510 H   0  0  0  0  0  0  0  0  0  0  0  0
   51.9997    5.3894   20.0434 H   0  0  0  0  0  0  0  0  0  0  0  0
   49.7778    6.2396   19.3950 H   0  0  0  0  0  0  0  0  0  0  0  0
   50.8454    1.5064   16.6754 H   0  0  0  0  0  0  0  0  0  0  0  0
   47.3859    2.5545   15.4721 H   0  0  0  0  0  0  0  0  0  0  0  0
   47.6768    5.9736   18.0317 H   0  0  0  0  0  0  0  0  0  0  0  0
   46.3797    4.6501   16.3773 H   0  0  0  0  0  0  0  0  0  0  0  0
  2  1  1  0
  3  2  2  0
  4  1  1  0
  5  2  1  0
  6  4  2  0
  7  6  1  0
  8  4  1  0
  9  5  1  0
 10  1  2  0
 11 12  2  0
 12 10  1  0
 11  3  1  0
  7  5  2  0
 14 13  2  0
 15 13  1  0
 16 14  1  0
 17 15  2  0
 18 17  1  0
 19 13  1  0
 20 14  1  0
 21 16  1  0
 22 17  1  0
 23 15  1  0
 24 19  2  0
 25 23  2  0
 16 18  2  0
 24 25  1  0
 27 26  2  0
 28 26  1  0
 29 27  1  0
 30 27  1  0
 31 28  2  0
 32 31  1  0
 33 26  1  0
 34 28  1  0
 35 29  2  0
 36 30  1  0
 37 36  2  0
 32 30  2  0
 35 37  1  0
  6 38  1  0
  7 39  1  0
  9 40  1  0
 10 41  1  0
 11 42  1  0
 12 43  1  0
 18 44  1  0
 20 45  1  0
 23 46  1  0
 24 47  1  0
 25 48  1  0
 31 49  1  0
 32 50  1  0
 33 51  1  0
 35 52  1  0
 36 53  1  0
 37 54  1  0
M  END
> <Uni-Dock RESULT> 
ENERGY=   -7.355  LOWER_BOUND=    5.672  UPPER_BOUND=    7.274
INTER + INTRA:          -7.355
INTER:                  -7.355
INTRA:                   0.000
UNBOUND:                 0.000

$$$$

     RDKit          3D

 54 57  0  0  0  0  0  0  0  0999 V2000
   46.0859    6.7754   12.4401 C   0  0  0  0  0  0  0  0  0  0  0  0
   46.8110    6.2300   13.5188 C   0  0  0  0  0  0  0  0  0  0  0  0
   46.6922    4.9461   13.9217 N   0  0  0  0  0  0  0  0  0  0  0  0
   46.2912    8.1397   12.1047 C   0  0  0  0  0  0  0  0  0  0  0  0
   47.6974    7.0538   14.2080 C   0  0  0  0  0  0  0  0  0  0  0  0
   47.1908    8.9359   12.8212 C   0  0  0  0  0  0  0  0  0  0  0  0
   47.9006    8.3890   13.8821 C   0  0  0  0  0  0  0  0  0  0  0  0
   45.4434    8.8930   10.7950 Cl  0  0  0  0  0  0  0  0  0  0  0  0
   48.4114    6.5352   15.2623 O   0  0  0  0  0  0  0  0  0  0  0  0
   45.2000    5.9001   11.7732 C   0  0  0  0  0  0  0  0  0  0  0  0
   45.8317    4.1511   13.2504 C   0  0  0  0  0  0  0  0  0  0  0  0
   45.0710    4.5765   12.1808 C   0  0  0  0  0  0  0  0  0  0  0  0
   46.2381    7.1418   12.9059 C   0  0  0  0  0  0  0  0  0  0  0  0
   44.8732    6.8961   12.7788 C   0  0  0  0  0  0  0  0  0  0  0  0
   47.1027    6.0664   13.1971 C   0  0  0  0  0  0  0  0  0  0  0  0
   44.3355    5.6189   12.9307 C   0  0  0  0  0  0  0  0  0  0  0  0
   46.5473    4.7705   13.3500 C   0  0  0  0  0  0  0  0  0  0  0  0
   45.1752    4.5503   13.2176 C   0  0  0  0  0  0  0  0  0  0  0  0
   46.6673    8.4116   12.7418 N   0  0  0  0  0  0  0  0  0  0  0  0
   44.0511    7.9657   12.4939 O   0  0  0  0  0  0  0  0  0  0  0  0
   42.6442    5.3246   12.7715 Cl  0  0  0  0  0  0  0  0  0  0  0  0
   47.5346    3.3930   13.7082 Cl  0  0  0  0  0  0  0  0  0  0  0  0
   48.4759    6.3767   13.3142 C   0  0  0  0  0  0  0  0  0  0  0  0
   47.9898    8.6564   12.8639 C   0  0  0  0  0  0  0  0  0  0  0  0
   48.9245    7.6823   13.1463 C   0  0  0  0  0  0  0  0  0  0  0  0
   46.3115    4.9042   13.1851 C   0  0  0  0  0  0  0  0  0  0  0  0
   46.7986    6.1797   13.4612 C   0  0  0  0  0  0  0  0  0  0  0  0
   45.4020    4.6737   12.1516 C   0  0  0  0  0  0  0  0  0  0  0  0
   47.6771    6.3412   14.4745 N   0  0  0  0  0  0  0  0  0  0  0  0
   46.3501    7.2542   12.6652 C   0  0  0  0  0  0  0  0  0  0  0  0
   44.9625    5.7390   11.3686 C   0  0  0  0  0  0  0  0  0  0  0  0
   45.4342    7.0274   11.6229 C   0  0  0  0  0  0  0  0  0  0  0  0
   46.7570    3.8616   13.9699 O   0  0  0  0  0  0  0  0  0  0  0  0
   44.8007    3.0934   11.8121 Cl  0  0  0  0  0  0  0  0  0  0  0  0
   48.1319    7.5908   14.7180 C   0  0  0  0  0  0  0  0  0  0  0  0
   46.8467    8.5324   12.9520 C   0  0  0  0  0  0  0  0  0  0  0  0
   47.7511    8.7051   13.9936 C   0  0  0  0  0  0  0  0  0  0  0  0
   47.3406    9.9795   12.5559 H   0  0  0  0  0  0  0  0  0  0  0  0
   48.6038    8.9897   14.4514 H   0  0  0  0  0  0  0  0  0  0  0  0
   48.1156    5.6003   15.3107 H   0  0  0  0  0  0  0  0  0  0  0  0
   44.6041    6.2441   10.9310 H   0  0  0  0  0  0  0  0  0  0  0  0
   45.7689    3.1272   13.6090 H   0  0  0  0  0  0  0  0  0  0  0  0
   44.3934    3.8980   11.6745 H   0  0  0  0  0  0  0  0  0  0  0  0
   44.7644    3.5510   13.3377 H   0  0  0  0  0  0  0  0  0  0  0  0
   44.6588    8.7345   12.4378 H   0  0  0  0  0  0  0  0  0  0  0  0
   49.2074    5.6031   13.5373 H   0  0  0  0  0  0  0  0  0  0  0  0
   48.2862    9.6925   12.7233 H   0  0  0  0  0  0  0  0  0  0  0  0
   49.9768    7.9292   13.2345 H   0  0  0  0  0  0  0  0  0  0  0  0
   44.2543    5.5724   10.5607 H   0  0  0  0  0  0  0  0  0  0  0  0
   45.0839    7.8515   11.0049 H   0  0  0  0  0  0  0  0  0  0  0  0
   47.3732    4.2836   14.6060 H   0  0  0  0  0  0  0  0  0  0  0  0
   48.8362    7.6747   15.5413 H   0  0  0  0  0  0  0  0  0  0  0  0
   46.5333    9.3949   12.3689 H   0  0  0  0  0  0  0  0  0  0  0  0
   48.1487    9.6850   14.2338 H   0  0  0  0  0  0  0  0  0  0  0  0
  2  1  1  0
  3  2  2  0
  4  1  1  0
  5  2  1  0
  6  4  2  0
  7  6  1  0
  8  4  1  0
  9  5  1  0
 10  1  2  0
 11 12  2  0
 12 10  1  0
 11  3  1  0
  7  5  2  0
 14 13  2  0
 15 13  1  0
 16 14  1  0
 17 15  2  0
 18 17  1  0
 19 13  1  0
 20 14  1  0
 21 16  1  0
 22 17  1  0
 23 15  1  0
 24 19  2  0
 25 23  2  0
 16 18  2  0
 24 25  1  0
 27 26  2  0
 28 26  1  0
 29 27  1  0
 30 27  1  0
 31 28  2  0
 32 31  1  0
 33 26  1  0
 34 28  1  0
 35 29  2  0
 36 30  1  0
 37 36  2  0
 32 30  2  0
 35 37  1  0
  6 38  1  0
  7 39  1  0
  9 40  1  0
 10 41  1  0
 11 42  1  0
 12 43  1  0
 18 44  1  0
 20 45  1  0
 23 46  1  0
 24 47  1  0
 25 48  1  0
 31 49  1  0
 32 50  1  0
 33 51  1  0
 35 52  1  0
 36 53  1  0
 37 54  1  0
M  END
> <Uni-Dock RESULT> 
ENERGY=   -6.193  LOWER_BOUND=    1.666  UPPER_BOUND=    3.871
INTER + INTRA:          -6.193
INTER:                  -6.193
INTRA:                   0.000
UNBOUND:                 0.000

$$$$

     RDKit          3D

 54 57  0  0  0  0  0  0  0  0999 V2000
   47.9719    8.6276   20.5329 C   0  0  0  0  0  0  0  0  0  0  0  0
   47.6923    7.9135   19.3502 C   0  0  0  0  0  0  0  0  0  0  0  0
   47.6076    8.4937   18.1332 N   0  0  0  0  0  0  0  0  0  0  0  0
   48.0371    7.9131   21.7581 C   0  0  0  0  0  0  0  0  0  0  0  0
   47.4924    6.5380   19.4358 C   0  0  0  0  0  0  0  0  0  0  0  0
   47.8302    6.5305   21.8039 C   0  0  0  0  0  0  0  0  0  0  0  0
   47.5555    5.8361   20.6332 C   0  0  0  0  0  0  0  0  0  0  0  0
   48.3748    8.7090   23.2594 Cl  0  0  0  0  0  0  0  0  0  0  0  0
   47.2188    5.8286   18.2902 O   0  0  0  0  0  0  0  0  0  0  0  0
   48.1669   10.0199   20.3939 C   0  0  0  0  0  0  0  0  0  0  0  0
   47.8023    9.8275   18.0549 C   0  0  0  0  0  0  0  0  0  0  0  0
   48.0816   10.6261   19.1449 C   0  0  0  0  0  0  0  0  0  0  0  0
   47.6170    8.1305   20.5678 C   0  0  0  0  0  0  0  0  0  0  0  0
   46.9661    9.3321   20.8356 C   0  0  0  0  0  0  0  0  0  0  0  0
   48.1511    7.9137   19.2807 C   0  0  0  0  0  0  0  0  0  0  0  0
   46.8265   10.3276   19.8696 C   0  0  0  0  0  0  0  0  0  0  0  0
   48.0046    8.9315   18.3041 C   0  0  0  0  0  0  0  0  0  0  0  0
   47.3476   10.1277   18.5977 C   0  0  0  0  0  0  0  0  0  0  0  0
   47.7037    7.2252   21.5660 N   0  0  0  0  0  0  0  0  0  0  0  0
   46.4535    9.5174   22.1021 O   0  0  0  0  0  0  0  0  0  0  0  0
   46.0188   11.8122   20.2107 Cl  0  0  0  0  0  0  0  0  0  0  0  0
   48.6292    8.7501   16.6987 Cl  0  0  0  0  0  0  0  0  0  0  0  0
   48.7997    6.6768   19.0685 C   0  0  0  0  0  0  0  0  0  0  0  0
   48.3337    6.0578   21.3125 C   0  0  0  0  0  0  0  0  0  0  0  0
   48.8925    5.7401   20.0923 C   0  0  0  0  0  0  0  0  0  0  0  0
   47.9619    9.1085   18.5641 C   0  0  0  0  0  0  0  0  0  0  0  0
   47.7411    7.9727   19.3398 C   0  0  0  0  0  0  0  0  0  0  0  0
   48.2772   10.3405   19.1396 C   0  0  0  0  0  0  0  0  0  0  0  0
   47.4391    6.8079   18.7262 N   0  0  0  0  0  0  0  0  0  0  0  0
   47.8432    8.0895   20.7417 C   0  0  0  0  0  0  0  0  0  0  0  0
   48.3767   10.4498   20.5250 C   0  0  0  0  0  0  0  0  0  0  0  0
   48.1606    9.3281   21.3264 C   0  0  0  0  0  0  0  0  0  0  0  0
   47.8593    8.9822   17.1948 O   0  0  0  0  0  0  0  0  0  0  0  0
   48.5500   11.7449   18.1767 Cl  0  0  0  0  0  0  0  0  0  0  0  0
   47.2304    5.7233   19.5057 C   0  0  0  0  0  0  0  0  0  0  0  0
   47.6191    6.9408   21.5117 C   0  0  0  0  0  0  0  0  0  0  0  0
   47.3080    5.7390   20.8860 C   0  0  0  0  0  0  0  0  0  0  0  0
   47.8825    5.9930   22.7475 H   0  0  0  0  0  0  0  0  0  0  0  0
   47.3917    4.7626   20.6467 H   0  0  0  0  0  0  0  0  0  0  0  0
   47.2229    6.5103   17.5838 H   0  0  0  0  0  0  0  0  0  0  0  0
   48.3866   10.6418   21.2586 H   0  0  0  0  0  0  0  0  0  0  0  0
   47.7247   10.2506   17.0571 H   0  0  0  0  0  0  0  0  0  0  0  0
   48.2298   11.6940   19.0293 H   0  0  0  0  0  0  0  0  0  0  0  0
   47.2432   10.8986   17.8384 H   0  0  0  0  0  0  0  0  0  0  0  0
   46.6780    8.6908   22.5813 H   0  0  0  0  0  0  0  0  0  0  0  0
   49.2382    6.4332   18.1032 H   0  0  0  0  0  0  0  0  0  0  0  0
   48.3778    5.3623   22.1464 H   0  0  0  0  0  0  0  0  0  0  0  0
   49.3887    4.7883   19.9379 H   0  0  0  0  0  0  0  0  0  0  0  0
   48.6217   11.4038   20.9853 H   0  0  0  0  0  0  0  0  0  0  0  0
   48.2411    9.4256   22.4071 H   0  0  0  0  0  0  0  0  0  0  0  0
   47.6338    8.0377   17.0550 H   0  0  0  0  0  0  0  0  0  0  0  0
   46.9904    4.8082   18.9710 H   0  0  0  0  0  0  0  0  0  0  0  0
   47.6855    6.9763   22.5963 H   0  0  0  0  0  0  0  0  0  0  0  0
   47.1305    4.8372   21.4616 H   0  0  0  0  0  0  0  0  0  0  0  0
  2  1  1  0
  3  2  2  0
  4  1  1  0
  5  2  1  0
  6  4  2  0
  7  6  1  0
  8  4  1  0
  9  5  1  0
 10  1  2  0
 11 12  2  0
 12 10  1  0
 11  3  1  0
  7  5  2  0
 14 13  2  0
 15 13  1  0
 16 14  1  0
 17 15  2  0
 18 17  1  0
 19 13  1  0
 20 14  1  0
 21 16  1  0
 22 17  1  0
 23 15  1  0
 24 19  2  0
 25 23  2  0
 16 18  2  0
 24 25  1  0
 27 26  2  0
 28 26  1  0
 29 27  1  0
 30 27  1  0
 31 28  2  0
 32 31  1  0
 33 26  1  0
 34 28  1  0
 35 29  2  0
 36 30  1  0
 37 36  2  0
 32 30  2  0
 35 37  1  0
  6 38  1  0
  7 39  1  0
  9 40  1  0
 10 41  1  0
 11 42  1  0
 12 43  1  0
 18 44  1  0
 20 45  1  0
 23 46  1  0
 24 47  1  0
 25 48  1  0
 31 49  1  0
 32 50  1  0
 33 51  1  0
 35 52  1  0
 36 53  1  0
 37 54  1  0
M  END
> <Uni-Dock RESULT> 
ENERGY=   -6.146  LOWER_BOUND=    6.988  UPPER_BOUND=    8.724
INTER + INTRA:          -6.146
INTER:                  -6.146
INTRA:                   0.000
UNBOUND:                 0.000

$$$$

     RDKit          3D

 54 57  0  0  0  0  0  0  0  0999 V2000
   47.9731   10.3100   18.2591 C   0  0  0  0  0  0  0  0  0  0  0  0
   48.0366   11.6797   18.5859 C   0  0  0  0  0  0  0  0  0  0  0  0
   48.5028   12.6253   17.7414 N   0  0  0  0  0  0  0  0  0  0  0  0
   47.4641    9.4040   19.2266 C   0  0  0  0  0  0  0  0  0  0  0  0
   47.5969   12.0838   19.8440 C   0  0  0  0  0  0  0  0  0  0  0  0
   47.0318    9.8483   20.4804 C   0  0  0  0  0  0  0  0  0  0  0  0
   47.0983   11.1997   20.7927 C   0  0  0  0  0  0  0  0  0  0  0  0
   47.3499    7.7043   18.9110 Cl  0  0  0  0  0  0  0  0  0  0  0  0
   47.6531   13.4168   20.1765 O   0  0  0  0  0  0  0  0  0  0  0  0
   48.4306    9.9503   16.9718 C   0  0  0  0  0  0  0  0  0  0  0  0
   48.9279   12.2288   16.5227 C   0  0  0  0  0  0  0  0  0  0  0  0
   48.9122   10.9170   16.0953 C   0  0  0  0  0  0  0  0  0  0  0  0
   48.0654   10.4679   18.8429 C   0  0  0  0  0  0  0  0  0  0  0  0
   49.1466    9.8389   18.2307 C   0  0  0  0  0  0  0  0  0  0  0  0
   47.6360   11.7196   18.3553 C   0  0  0  0  0  0  0  0  0  0  0  0
   49.8176   10.4093   17.1500 C   0  0  0  0  0  0  0  0  0  0  0  0
   48.3242   12.2925   17.2556 C   0  0  0  0  0  0  0  0  0  0  0  0
   49.4055   11.6417   16.6592 C   0  0  0  0  0  0  0  0  0  0  0  0
   47.4779    9.8391   19.8836 N   0  0  0  0  0  0  0  0  0  0  0  0
   49.5451    8.6162   18.7279 O   0  0  0  0  0  0  0  0  0  0  0  0
   51.1553    9.6230   16.3986 Cl  0  0  0  0  0  0  0  0  0  0  0  0
   47.8650   13.8255   16.5924 Cl  0  0  0  0  0  0  0  0  0  0  0  0
   46.5351   12.3085   19.0161 C   0  0  0  0  0  0  0  0  0  0  0  0
   46.4288   10.4439   20.4816 C   0  0  0  0  0  0  0  0  0  0  0  0
   45.9254   11.6663   20.0885 C   0  0  0  0  0  0  0  0  0  0  0  0
   48.4118   11.9903   17.2144 C   0  0  0  0  0  0  0  0  0  0  0  0
   48.0205   11.6663   18.5114 C   0  0  0  0  0  0  0  0  0  0  0  0
   48.6124   11.0095   16.2416 C   0  0  0  0  0  0  0  0  0  0  0  0
   47.8419   12.6590   19.4099 N   0  0  0  0  0  0  0  0  0  0  0  0
   47.8267   10.3065   18.8321 C   0  0  0  0  0  0  0  0  0  0  0  0
   48.4195    9.6679   16.5641 C   0  0  0  0  0  0  0  0  0  0  0  0
   48.0274    9.3147   17.8559 C   0  0  0  0  0  0  0  0  0  0  0  0
   48.5982   13.3228   16.9126 O   0  0  0  0  0  0  0  0  0  0  0  0
   49.0968   11.4137   14.6366 Cl  0  0  0  0  0  0  0  0  0  0  0  0
   47.4621   12.3131   20.6604 C   0  0  0  0  0  0  0  0  0  0  0  0
   47.4333    9.9925   20.1394 C   0  0  0  0  0  0  0  0  0  0  0  0
   47.2478   11.0097   21.0687 C   0  0  0  0  0  0  0  0  0  0  0  0
   46.6436    9.1460   21.2139 H   0  0  0  0  0  0  0  0  0  0  0  0
   46.7679   11.5655   21.7604 H   0  0  0  0  0  0  0  0  0  0  0  0
   48.0288   13.8440   19.3764 H   0  0  0  0  0  0  0  0  0  0  0  0
   48.4146    8.9137   16.6432 H   0  0  0  0  0  0  0  0  0  0  0  0
   49.2941   13.0227   15.8774 H   0  0  0  0  0  0  0  0  0  0  0  0
   49.2653   10.6496   15.1055 H   0  0  0  0  0  0  0  0  0  0  0  0
   49.9231   12.0937   15.8168 H   0  0  0  0  0  0  0  0  0  0  0  0
   48.9270    8.4393   19.4695 H   0  0  0  0  0  0  0  0  0  0  0  0
   46.1435   13.2731   18.7004 H   0  0  0  0  0  0  0  0  0  0  0  0
   45.9901    9.8993   21.3135 H   0  0  0  0  0  0  0  0  0  0  0  0
   45.0799   12.1114   20.6013 H   0  0  0  0  0  0  0  0  0  0  0  0
   48.5726    8.8947   15.8154 H   0  0  0  0  0  0  0  0  0  0  0  0
   47.8798    8.2638   18.0962 H   0  0  0  0  0  0  0  0  0  0  0  0
   48.3967   13.7913   17.7506 H   0  0  0  0  0  0  0  0  0  0  0  0
   47.3301   13.1425   21.3501 H   0  0  0  0  0  0  0  0  0  0  0  0
   47.2704    8.9601   20.4387 H   0  0  0  0  0  0  0  0  0  0  0  0
   46.9436   10.7904   22.0862 H   0  0  0  0  0  0  0  0  0  0  0  0
  2  1  1  0
  3  2  2  0
  4  1  1  0
  5  2  1  0
  6  4  2  0
  7  6  1  0
  8  4  1  0
  9  5  1  0
 10  1  2  0
 11 12  2  0
 12 10  1  0
 11  3  1  0
  7  5  2  0
 14 13  2  0
 15 13  1  0
 16 14  1  0
 17 15  2  0
 18 17  1  0
 19 13  1  0
 20 14  1  0
 21 16  1  0
 22 17  1  0
 23 15  1  0
 24 19  2  0
 25 23  2  0
 16 18  2  0
 24 25  1  0
 27 26  2  0
 28 26  1  0
 29 27  1  0
 30 27  1  0
 31 28  2  0
 32 31  1  0
 33 26  1  0
 34 28  1  0
 35 29  2  0
 36 30  1  0
 37 36  2  0
 32 30  2  0
 35 37  1  0
  6 38  1  0
  7 39  1  0
  9 40  1  0
 10 41  1  0
 11 42  1  0
 12 43  1  0
 18 44  1  0
 20 45  1  0
 23 46  1  0
 24 47  1  0
 25 48  1  0
 31 49  1  0
 32 50  1  0
 33 51  1  0
 35 52  1  0
 36 53  1  0
 37 54  1  0
M  END
> <Uni-Dock RESULT> 
ENERGY=   -6.078  LOWER_BOUND=    7.060  UPPER_BOUND=    9.066
INTER + INTRA:          -6.078
INTER:                  -6.078
INTRA:                   0.000
UNBOUND:                 0.000

$$$$

     RDKit          3D

 54 57  0  0  0  0  0  0  0  0999 V2000
   47.8021    7.9530   20.4800 C   0  0  0  0  0  0  0  0  0  0  0  0
   48.1441    6.6512   20.8986 C   0  0  0  0  0  0  0  0  0  0  0  0
   48.1047    6.2499   22.1879 N   0  0  0  0  0  0  0  0  0  0  0  0
   47.8807    8.2641   19.0968 C   0  0  0  0  0  0  0  0  0  0  0  0
   48.5440    5.7272   19.9365 C   0  0  0  0  0  0  0  0  0  0  0  0
   48.2872    7.3083   18.1599 C   0  0  0  0  0  0  0  0  0  0  0  0
   48.6218    6.0286   18.5824 C   0  0  0  0  0  0  0  0  0  0  0  0
   47.4796    9.8377   18.4932 Cl  0  0  0  0  0  0  0  0  0  0  0  0
   48.8805    4.4537   20.3305 O   0  0  0  0  0  0  0  0  0  0  0  0
   47.4030    8.8533   21.4929 C   0  0  0  0  0  0  0  0  0  0  0  0
   47.7163    7.1491   23.1172 C   0  0  0  0  0  0  0  0  0  0  0  0
   47.3593    8.4491   22.8231 C   0  0  0  0  0  0  0  0  0  0  0  0
   48.2263    7.6456   20.1639 C   0  0  0  0  0  0  0  0  0  0  0  0
   48.7044    8.7561   20.8550 C   0  0  0  0  0  0  0  0  0  0  0  0
   47.6881    6.5653   20.8934 C   0  0  0  0  0  0  0  0  0  0  0  0
   48.6671    8.8323   22.2465 C   0  0  0  0  0  0  0  0  0  0  0  0
   47.6541    6.6511   22.3086 C   0  0  0  0  0  0  0  0  0  0  0  0
   48.1398    7.7757   22.9778 C   0  0  0  0  0  0  0  0  0  0  0  0
   48.3040    7.6614   18.8159 N   0  0  0  0  0  0  0  0  0  0  0  0
   49.2252    9.7977   20.1167 O   0  0  0  0  0  0  0  0  0  0  0  0
   49.2615   10.2115   23.0933 Cl  0  0  0  0  0  0  0  0  0  0  0  0
   47.0110    5.3717   23.2834 Cl  0  0  0  0  0  0  0  0  0  0  0  0
   47.2192    5.4674   20.1383 C   0  0  0  0  0  0  0  0  0  0  0  0
   47.8420    6.5874   18.1399 C   0  0  0  0  0  0  0  0  0  0  0  0
   47.2962    5.4773   18.7497 C   0  0  0  0  0  0  0  0  0  0  0  0
   47.6790    6.9605   22.2427 C   0  0  0  0  0  0  0  0  0  0  0  0
   48.0870    6.6831   20.9400 C   0  0  0  0  0  0  0  0  0  0  0  0
   47.2071    8.2215   22.6112 C   0  0  0  0  0  0  0  0  0  0  0  0
   48.5347    5.4438   20.6428 N   0  0  0  0  0  0  0  0  0  0  0  0
   48.0141    7.7154   19.9817 C   0  0  0  0  0  0  0  0  0  0  0  0
   47.1374    9.2373   21.6603 C   0  0  0  0  0  0  0  0  0  0  0  0
   47.5395    8.9872   20.3477 C   0  0  0  0  0  0  0  0  0  0  0  0
   47.7547    5.9436   23.1709 O   0  0  0  0  0  0  0  0  0  0  0  0
   46.7027    8.5620   24.2248 Cl  0  0  0  0  0  0  0  0  0  0  0  0
   48.9234    5.2052   19.3702 C   0  0  0  0  0  0  0  0  0  0  0  0
   48.4270    7.4250   18.6748 C   0  0  0  0  0  0  0  0  0  0  0  0
   48.8888    6.1514   18.3627 C   0  0  0  0  0  0  0  0  0  0  0  0
   48.3438    7.5570   17.1031 H   0  0  0  0  0  0  0  0  0  0  0  0
   48.9399    5.2718   17.8715 H   0  0  0  0  0  0  0  0  0  0  0  0
   48.7550    4.4667   21.3040 H   0  0  0  0  0  0  0  0  0  0  0  0
   47.1234    9.8762   21.2520 H   0  0  0  0  0  0  0  0  0  0  0  0
   47.6995    6.7825   24.1400 H   0  0  0  0  0  0  0  0  0  0  0  0
   47.0542    9.1335   23.6068 H   0  0  0  0  0  0  0  0  0  0  0  0
   48.1068    7.8267   24.0633 H   0  0  0  0  0  0  0  0  0  0  0  0
   49.1385    9.5051   19.1839 H   0  0  0  0  0  0  0  0  0  0  0  0
   46.7899    4.5950   20.6263 H   0  0  0  0  0  0  0  0  0  0  0  0
   47.9261    6.6471   17.0580 H   0  0  0  0  0  0  0  0  0  0  0  0
   46.9385    4.6387   18.1625 H   0  0  0  0  0  0  0  0  0  0  0  0
   46.7717   10.2237   21.9349 H   0  0  0  0  0  0  0  0  0  0  0  0
   47.4806    9.7883   19.6137 H   0  0  0  0  0  0  0  0  0  0  0  0
   48.1101    5.1811   22.6661 H   0  0  0  0  0  0  0  0  0  0  0  0
   49.2763    4.1959   19.1755 H   0  0  0  0  0  0  0  0  0  0  0  0
   48.3912    8.1848   17.8981 H   0  0  0  0  0  0  0  0  0  0  0  0
   49.2136    5.9037   17.3582 H   0  0  0  0  0  0  0  0  0  0  0  0
  2  1  1  0
  3  2  2  0
  4  1  1  0
  5  2  1  0
  6  4  2  0
  7  6  1  0
  8  4  1  0
  9  5  1  0
 10  1  2  0
 11 12  2  0
 12 10  1  0
 11  3  1  0
  7  5  2  0
 14 13  2  0
 15 13  1  0
 16 14  1  0
 17 15  2  0
 18 17  1  0
 19 13  1  0
 20 14  1  0
 21 16  1  0
 22 17  1  0
 23 15  1  0
 24 19  2  0
 25 23  2  0
 16 18  2  0
 24 25  1  0
 27 26  2  0
 28 26  1  0
 29 27  1  0
 30 27  1  0
 31 28  2  0
 32 31  1  0
 33 26  1  0
 34 28  1  0
 35 29  2  0
 36 30  1  0
 37 36  2  0
 32 30  2  0
 35 37  1  0
  6 38  1  0
  7 39  1  0
  9 40  1  0
 10 41  1  0
 11 42  1  0
 12 43  1  0
 18 44  1  0
 20 45  1  0
 23 46  1  0
 24 47  1  0
 25 48  1  0
 31 49  1  0
 32 50  1  0
 33 51  1  0
 35 52  1  0
 36 53  1  0
 37 54  1  0
M  END
> <Uni-Dock RESULT> 
ENERGY=   -6.041  LOWER_BOUND=    7.440  UPPER_BOUND=    9.032
INTER + INTRA:          -6.041
INTER:                  -6.041
INTRA:                   0.000
UNBOUND:                 0.000

$$$$

     RDKit          3D

 54 57  0  0  0  0  0  0  0  0999 V2000
   48.0929    7.2983   19.8924 C   0  0  0  0  0  0  0  0  0  0  0  0
   48.3029    7.3142   21.2862 C   0  0  0  0  0  0  0  0  0  0  0  0
   47.9844    8.3639   22.0747 N   0  0  0  0  0  0  0  0  0  0  0  0
   48.4666    6.1391   19.1627 C   0  0  0  0  0  0  0  0  0  0  0  0
   48.8678    6.1915   21.8861 C   0  0  0  0  0  0  0  0  0  0  0  0
   49.0317    5.0303   19.8012 C   0  0  0  0  0  0  0  0  0  0  0  0
   49.2344    5.0558   21.1747 C   0  0  0  0  0  0  0  0  0  0  0  0
   48.2451    6.0321   17.4477 Cl  0  0  0  0  0  0  0  0  0  0  0  0
   49.0783    6.1930   23.2448 O   0  0  0  0  0  0  0  0  0  0  0  0
   47.5175    8.4602   19.3314 C   0  0  0  0  0  0  0  0  0  0  0  0
   47.4369    9.4501   21.4887 C   0  0  0  0  0  0  0  0  0  0  0  0
   47.1863    9.5459   20.1352 C   0  0  0  0  0  0  0  0  0  0  0  0
   48.5646    6.9830   20.1213 C   0  0  0  0  0  0  0  0  0  0  0  0
   48.9199    8.0817   19.3428 C   0  0  0  0  0  0  0  0  0  0  0  0
   47.8557    7.1954   21.3218 C   0  0  0  0  0  0  0  0  0  0  0  0
   48.5959    9.3858   19.7144 C   0  0  0  0  0  0  0  0  0  0  0  0
   47.5302    8.5251   21.6922 C   0  0  0  0  0  0  0  0  0  0  0  0
   47.8979    9.6099   20.8942 C   0  0  0  0  0  0  0  0  0  0  0  0
   48.9217    5.7574   19.6808 N   0  0  0  0  0  0  0  0  0  0  0  0
   49.6125    7.8450   18.1744 O   0  0  0  0  0  0  0  0  0  0  0  0
   49.0402   10.7398   18.7440 Cl  0  0  0  0  0  0  0  0  0  0  0  0
   46.6620    8.8781   23.1489 Cl  0  0  0  0  0  0  0  0  0  0  0  0
   47.5231    6.0434   22.0686 C   0  0  0  0  0  0  0  0  0  0  0  0
   48.5801    4.6878   20.4313 C   0  0  0  0  0  0  0  0  0  0  0  0
   47.8877    4.7783   21.6207 C   0  0  0  0  0  0  0  0  0  0  0  0
   47.5772    8.5723   21.3819 C   0  0  0  0  0  0  0  0  0  0  0  0
   48.2393    7.3524   21.2640 C   0  0  0  0  0  0  0  0  0  0  0  0
   47.0751    9.2457   20.2670 C   0  0  0  0  0  0  0  0  0  0  0  0
   48.7035    6.7476   22.3791 N   0  0  0  0  0  0  0  0  0  0  0  0
   48.3971    6.7982   19.9766 C   0  0  0  0  0  0  0  0  0  0  0  0
   47.2340    8.6934   18.9978 C   0  0  0  0  0  0  0  0  0  0  0  0
   47.8933    7.4724   18.8504 C   0  0  0  0  0  0  0  0  0  0  0  0
   47.4288    9.1042   22.6453 O   0  0  0  0  0  0  0  0  0  0  0  0
   46.2558   10.7558   20.4160 Cl  0  0  0  0  0  0  0  0  0  0  0  0
   49.3417    5.5649   22.2324 C   0  0  0  0  0  0  0  0  0  0  0  0
   49.0646    5.5711   19.8701 C   0  0  0  0  0  0  0  0  0  0  0  0
   49.5446    4.9437   21.0141 C   0  0  0  0  0  0  0  0  0  0  0  0
   49.3142    4.1476   19.2329 H   0  0  0  0  0  0  0  0  0  0  0  0
   49.6717    4.2056   21.6899 H   0  0  0  0  0  0  0  0  0  0  0  0
   48.7532    7.0733   23.5331 H   0  0  0  0  0  0  0  0  0  0  0  0
   47.3235    8.5270   18.2633 H   0  0  0  0  0  0  0  0  0  0  0  0
   47.1971   10.2694   22.1610 H   0  0  0  0  0  0  0  0  0  0  0  0
   46.7444   10.4414   19.7128 H   0  0  0  0  0  0  0  0  0  0  0  0
   47.6411   10.6235   21.1916 H   0  0  0  0  0  0  0  0  0  0  0  0
   49.7136    6.8692   18.1421 H   0  0  0  0  0  0  0  0  0  0  0  0
   46.9768    6.1227   23.0060 H   0  0  0  0  0  0  0  0  0  0  0  0
   48.8892    3.7240   20.0356 H   0  0  0  0  0  0  0  0  0  0  0  0
   47.6364    3.8889   22.1878 H   0  0  0  0  0  0  0  0  0  0  0  0
   46.8475    9.2081   18.1216 H   0  0  0  0  0  0  0  0  0  0  0  0
   48.0114    7.0509   17.8543 H   0  0  0  0  0  0  0  0  0  0  0  0
   47.8596    8.4497   23.2357 H   0  0  0  0  0  0  0  0  0  0  0  0
   49.6983    5.1140   23.1546 H   0  0  0  0  0  0  0  0  0  0  0  0
   49.2130    5.1007   18.9013 H   0  0  0  0  0  0  0  0  0  0  0  0
   50.0643    3.9937   20.9559 H   0  0  0  0  0  0  0  0  0  0  0  0
  2  1  1  0
  3  2  2  0
  4  1  1  0
  5  2  1  0
  6  4  2  0
  7  6  1  0
  8  4  1  0
  9  5  1  0
 10  1  2  0
 11 12  2  0
 12 10  1  0
 11  3  1  0
  7  5  2  0
 14 13  2  0
 15 13  1  0
 16 14  1  0
 17 15  2  0
 18 17  1  0
 19 13  1  0
 20 14  1  0
 21 16  1  0
 22 17  1  0
 23 15  1  0
 24 19  2  0
 25 23  2  0
 16 18  2  0
 24 25  1  0
 27 26  2  0
 28 26  1  0
 29 27  1  0
 30 27  1  0
 31 28  2  0
 32 31  1  0
 33 26  1  0
 34 28  1  0
 35 29  2  0
 36 30  1  0
 37 36  2  0
 32 30  2  0
 35 37  1  0
  6 38  1  0
  7 39  1  0
  9 40  1  0
 10 41  1  0
 11 42  1  0
 12 43  1  0
 18 44  1  0
 20 45  1  0
 23 46  1  0
 24 47  1  0
 25 48  1  0
 31 49  1  0
 32 50  1  0
 33 51  1  0
 35 52  1  0
 36 53  1  0
 37 54  1  0
M  END
> <Uni-Dock RESULT> 
ENERGY=   -5.971  LOWER_BOUND=    7.360  UPPER_BOUND=    9.189
INTER + INTRA:          -5.971
INTER:                  -5.971
INTRA:                   0.000
UNBOUND:                 0.000

$$$$
