
     RDKit          3D

 54 57  0  0  0  0  0  0  0  0999 V2000
   45.7727    5.7934   12.9000 C   0  0  0  0  0  0  0  0  0  0  0  0
   44.8679    6.6775   12.2781 C   0  0  0  0  0  0  0  0  0  0  0  0
   45.0043    8.0212   12.3036 N   0  0  0  0  0  0  0  0  0  0  0  0
   45.5295    4.3974   12.8082 C   0  0  0  0  0  0  0  0  0  0  0  0
   43.7749    6.1424   11.6010 C   0  0  0  0  0  0  0  0  0  0  0  0
   44.4199    3.8978   12.1188 C   0  0  0  0  0  0  0  0  0  0  0  0
   43.5344    4.7771   11.5095 C   0  0  0  0  0  0  0  0  0  0  0  0
   46.5882    3.2386   13.5417 Cl  0  0  0  0  0  0  0  0  0  0  0  0
   42.8843    6.9929   10.9898 O   0  0  0  0  0  0  0  0  0  0  0  0
   46.8646    6.3844   13.5739 C   0  0  0  0  0  0  0  0  0  0  0  0
   46.0655    8.5355   12.9614 C   0  0  0  0  0  0  0  0  0  0  0  0
   47.0133    7.7670   13.6055 C   0  0  0  0  0  0  0  0  0  0  0  0
   44.7076    6.5903   12.2920 C   0  0  0  0  0  0  0  0  0  0  0  0
   45.4607    7.7413   12.0242 C   0  0  0  0  0  0  0  0  0  0  0  0
   45.3773    5.4595   12.8160 C   0  0  0  0  0  0  0  0  0  0  0  0
   46.8377    7.7921   12.2611 C   0  0  0  0  0  0  0  0  0  0  0  0
   46.7748    5.5307   13.0495 C   0  0  0  0  0  0  0  0  0  0  0  0
   47.4997    6.6886   12.7741 C   0  0  0  0  0  0  0  0  0  0  0  0
   43.3770    6.5757   12.0509 N   0  0  0  0  0  0  0  0  0  0  0  0
   44.8181    8.8508   11.5127 O   0  0  0  0  0  0  0  0  0  0  0  0
   47.7355    9.2262   11.9200 Cl  0  0  0  0  0  0  0  0  0  0  0  0
   47.6673    4.1889   13.6894 Cl  0  0  0  0  0  0  0  0  0  0  0  0
   44.5933    4.3123   13.0768 C   0  0  0  0  0  0  0  0  0  0  0  0
   42.6693    5.4591   12.3149 C   0  0  0  0  0  0  0  0  0  0  0  0
   43.2274    4.3097   12.8248 C   0  0  0  0  0  0  0  0  0  0  0  0
   45.4398    7.8642   12.4738 C   0  0  0  0  0  0  0  0  0  0  0  0
   44.8339    6.6255   12.2760 C   0  0  0  0  0  0  0  0  0  0  0  0
   46.6711    7.9841   13.1204 C   0  0  0  0  0  0  0  0  0  0  0  0
   43.6417    6.5722   11.6434 N   0  0  0  0  0  0  0  0  0  0  0  0
   45.4964    5.4733   12.7483 C   0  0  0  0  0  0  0  0  0  0  0  0
   47.3208    6.8425   13.5849 C   0  0  0  0  0  0  0  0  0  0  0  0
   46.7366    5.5886   13.4002 C   0  0  0  0  0  0  0  0  0  0  0  0
   44.7830    8.9834   12.0079 O   0  0  0  0  0  0  0  0  0  0  0  0
   47.4188    9.5189   13.3638 Cl  0  0  0  0  0  0  0  0  0  0  0  0
   43.0787    5.3559   11.4665 C   0  0  0  0  0  0  0  0  0  0  0  0
   44.8777    4.2332   12.5439 C   0  0  0  0  0  0  0  0  0  0  0  0
   43.6504    4.1717   11.8934 C   0  0  0  0  0  0  0  0  0  0  0  0
   44.2430    2.8271   12.0546 H   0  0  0  0  0  0  0  0  0  0  0  0
   42.6668    4.4100   10.9694 H   0  0  0  0  0  0  0  0  0  0  0  0
   43.2434    7.8869   11.1792 H   0  0  0  0  0  0  0  0  0  0  0  0
   47.6071    5.7708   14.0789 H   0  0  0  0  0  0  0  0  0  0  0  0
   46.1346    9.6198   12.9556 H   0  0  0  0  0  0  0  0  0  0  0  0
   47.8484    8.2289   14.1204 H   0  0  0  0  0  0  0  0  0  0  0  0
   48.5699    6.7265   12.9588 H   0  0  0  0  0  0  0  0  0  0  0  0
   45.4796    9.5537   11.3865 H   0  0  0  0  0  0  0  0  0  0  0  0
   45.0410    3.4068   13.4800 H   0  0  0  0  0  0  0  0  0  0  0  0
   41.6073    5.5225   12.0959 H   0  0  0  0  0  0  0  0  0  0  0  0
   42.6196    3.4341   13.0221 H   0  0  0  0  0  0  0  0  0  0  0  0
   48.2802    6.9226   14.0900 H   0  0  0  0  0  0  0  0  0  0  0  0
   47.2533    4.7042   13.7672 H   0  0  0  0  0  0  0  0  0  0  0  0
   43.9611    8.6312   11.6040 H   0  0  0  0  0  0  0  0  0  0  0  0
   42.1207    5.3595   10.9534 H   0  0  0  0  0  0  0  0  0  0  0  0
   45.3457    3.3143   12.8883 H   0  0  0  0  0  0  0  0  0  0  0  0
   43.1529    3.2231   11.7242 H   0  0  0  0  0  0  0  0  0  0  0  0
  2  1  1  0
  3  2  2  0
  4  1  1  0
  5  2  1  0
  6  4  2  0
  7  6  1  0
  8  4  1  0
  9  5  1  0
 10  1  2  0
 11 12  2  0
 12 10  1  0
 11  3  1  0
  7  5  2  0
 14 13  2  0
 15 13  1  0
 16 14  1  0
 17 15  2  0
 18 17  1  0
 19 13  1  0
 20 14  1  0
 21 16  1  0
 22 17  1  0
 23 15  1  0
 24 19  2  0
 25 23  2  0
 16 18  2  0
 24 25  1  0
 27 26  2  0
 28 26  1  0
 29 27  1  0
 30 27  1  0
 31 28  2  0
 32 31  1  0
 33 26  1  0
 34 28  1  0
 35 29  2  0
 36 30  1  0
 37 36  2  0
 32 30  2  0
 35 37  1  0
  6 38  1  0
  7 39  1  0
  9 40  1  0
 10 41  1  0
 11 42  1  0
 12 43  1  0
 18 44  1  0
 20 45  1  0
 23 46  1  0
 24 47  1  0
 25 48  1  0
 31 49  1  0
 32 50  1  0
 33 51  1  0
 35 52  1  0
 36 53  1  0
 37 54  1  0
M  END
> <Uni-Dock RESULT> 
ENERGY=   -9.635  LOWER_BOUND=    0.000  UPPER_BOUND=    0.000
INTER + INTRA:          -9.635
INTER:                  -9.635
INTRA:                   0.000
UNBOUND:                 0.000

$$$$

     RDKit          3D

 54 57  0  0  0  0  0  0  0  0999 V2000
   45.2199    6.6665   12.1675 C   0  0  0  0  0  0  0  0  0  0  0  0
   45.4872    5.3953   12.7150 C   0  0  0  0  0  0  0  0  0  0  0  0
   46.7028    5.0224   13.1712 N   0  0  0  0  0  0  0  0  0  0  0  0
   43.9026    6.9491   11.7188 C   0  0  0  0  0  0  0  0  0  0  0  0
   44.4470    4.4724   12.7915 C   0  0  0  0  0  0  0  0  0  0  0  0
   42.8837    5.9955   11.8125 C   0  0  0  0  0  0  0  0  0  0  0  0
   43.1573    4.7461   12.3534 C   0  0  0  0  0  0  0  0  0  0  0  0
   43.4842    8.4840   11.0328 Cl  0  0  0  0  0  0  0  0  0  0  0  0
   44.6934    3.2287   13.3232 O   0  0  0  0  0  0  0  0  0  0  0  0
   46.3070    7.5668   12.1116 C   0  0  0  0  0  0  0  0  0  0  0  0
   47.7082    5.9205   13.0949 C   0  0  0  0  0  0  0  0  0  0  0  0
   47.5622    7.1918   12.5789 C   0  0  0  0  0  0  0  0  0  0  0  0
   45.3739    5.2850   12.6227 C   0  0  0  0  0  0  0  0  0  0  0  0
   46.4667    5.4870   13.4763 C   0  0  0  0  0  0  0  0  0  0  0  0
   44.7883    6.4160   12.0066 C   0  0  0  0  0  0  0  0  0  0  0  0
   46.9800    6.7633   13.7262 C   0  0  0  0  0  0  0  0  0  0  0  0
   45.3234    7.7027   12.2726 C   0  0  0  0  0  0  0  0  0  0  0  0
   46.4114    7.8750   13.1263 C   0  0  0  0  0  0  0  0  0  0  0  0
   44.9028    4.0366   12.4033 N   0  0  0  0  0  0  0  0  0  0  0  0
   47.0463    4.3910   14.0832 O   0  0  0  0  0  0  0  0  0  0  0  0
   48.3275    6.9768   14.7834 Cl  0  0  0  0  0  0  0  0  0  0  0  0
   44.6623    9.1370   11.5570 Cl  0  0  0  0  0  0  0  0  0  0  0  0
   43.6875    6.1833   11.1504 C   0  0  0  0  0  0  0  0  0  0  0  0
   43.8506    3.8622   11.5788 C   0  0  0  0  0  0  0  0  0  0  0  0
   43.2128    4.8962   10.9331 C   0  0  0  0  0  0  0  0  0  0  0  0
   46.7540    5.5091   13.1095 C   0  0  0  0  0  0  0  0  0  0  0  0
   45.4319    5.3834   12.6891 C   0  0  0  0  0  0  0  0  0  0  0  0
   47.4579    6.7065   12.9703 C   0  0  0  0  0  0  0  0  0  0  0  0
   44.8023    4.1993   12.8499 N   0  0  0  0  0  0  0  0  0  0  0  0
   44.8043    6.5059   12.1097 C   0  0  0  0  0  0  0  0  0  0  0  0
   46.8328    7.8119   12.3972 C   0  0  0  0  0  0  0  0  0  0  0  0
   45.5087    7.7142   11.9671 C   0  0  0  0  0  0  0  0  0  0  0  0
   47.3572    4.4053   13.6744 O   0  0  0  0  0  0  0  0  0  0  0  0
   49.0946    6.8591   13.4918 Cl  0  0  0  0  0  0  0  0  0  0  0  0
   43.5199    4.1083   12.4321 C   0  0  0  0  0  0  0  0  0  0  0  0
   43.4748    6.3679   11.6905 C   0  0  0  0  0  0  0  0  0  0  0  0
   42.8212    5.1516   11.8533 C   0  0  0  0  0  0  0  0  0  0  0  0
   41.8786    6.2223   11.4659 H   0  0  0  0  0  0  0  0  0  0  0  0
   42.3807    3.9916   12.4352 H   0  0  0  0  0  0  0  0  0  0  0  0
   45.6458    3.2575   13.5600 H   0  0  0  0  0  0  0  0  0  0  0  0
   46.1828    8.5671   11.7032 H   0  0  0  0  0  0  0  0  0  0  0  0
   48.6672    5.5773   13.4733 H   0  0  0  0  0  0  0  0  0  0  0  0
   48.4021    7.8766   12.5398 H   0  0  0  0  0  0  0  0  0  0  0  0
   46.8093    8.8677   13.3194 H   0  0  0  0  0  0  0  0  0  0  0  0
   47.7834    4.7044   14.6364 H   0  0  0  0  0  0  0  0  0  0  0  0
   43.1879    7.0054   10.6431 H   0  0  0  0  0  0  0  0  0  0  0  0
   43.5289    2.8326   11.4515 H   0  0  0  0  0  0  0  0  0  0  0  0
   42.3695    4.7096   10.2782 H   0  0  0  0  0  0  0  0  0  0  0  0
   47.3702    8.7501   12.2832 H   0  0  0  0  0  0  0  0  0  0  0  0
   45.0310    8.5840   11.5212 H   0  0  0  0  0  0  0  0  0  0  0  0
   46.6622    3.7130   13.6545 H   0  0  0  0  0  0  0  0  0  0  0  0
   43.0524    3.1385   12.5806 H   0  0  0  0  0  0  0  0  0  0  0  0
   42.9446    7.2021   11.2377 H   0  0  0  0  0  0  0  0  0  0  0  0
   41.7923    5.0216   11.5364 H   0  0  0  0  0  0  0  0  0  0  0  0
  2  1  1  0
  3  2  2  0
  4  1  1  0
  5  2  1  0
  6  4  2  0
  7  6  1  0
  8  4  1  0
  9  5  1  0
 10  1  2  0
 11 12  2  0
 12 10  1  0
 11  3  1  0
  7  5  2  0
 14 13  2  0
 15 13  1  0
 16 14  1  0
 17 15  2  0
 18 17  1  0
 19 13  1  0
 20 14  1  0
 21 16  1  0
 22 17  1  0
 23 15  1  0
 24 19  2  0
 25 23  2  0
 16 18  2  0
 24 25  1  0
 27 26  2  0
 28 26  1  0
 29 27  1  0
 30 27  1  0
 31 28  2  0
 32 31  1  0
 33 26  1  0
 34 28  1  0
 35 29  2  0
 36 30  1  0
 37 36  2  0
 32 30  2  0
 35 37  1  0
  6 38  1  0
  7 39  1  0
  9 40  1  0
 10 41  1  0
 11 42  1  0
 12 43  1  0
 18 44  1  0
 20 45  1  0
 23 46  1  0
 24 47  1  0
 25 48  1  0
 31 49  1  0
 32 50  1  0
 33 51  1  0
 35 52  1  0
 36 53  1  0
 37 54  1  0
M  END
> <Uni-Dock RESULT> 
ENERGY=   -9.255  LOWER_BOUND=    2.121  UPPER_BOUND=    3.030
INTER + INTRA:          -9.255
INTER:                  -9.255
INTRA:                   0.000
UNBOUND:                 0.000

$$$$

     RDKit          3D

 54 57  0  0  0  0  0  0  0  0999 V2000
   44.8657    6.6493   12.2529 C   0  0  0  0  0  0  0  0  0  0  0  0
   45.9100    5.8489   12.7587 C   0  0  0  0  0  0  0  0  0  0  0  0
   45.7572    4.5480   13.0892 N   0  0  0  0  0  0  0  0  0  0  0  0
   45.1414    8.0064   11.9390 C   0  0  0  0  0  0  0  0  0  0  0  0
   47.1666    6.4250   12.9283 C   0  0  0  0  0  0  0  0  0  0  0  0
   46.4172    8.5492   12.1232 C   0  0  0  0  0  0  0  0  0  0  0  0
   47.4392    7.7525   12.6221 C   0  0  0  0  0  0  0  0  0  0  0  0
   43.9189    9.0625   11.3129 Cl  0  0  0  0  0  0  0  0  0  0  0  0
   48.1945    5.6562   13.4208 O   0  0  0  0  0  0  0  0  0  0  0  0
   43.6106    6.0194   12.0991 C   0  0  0  0  0  0  0  0  0  0  0  0
   44.5372    3.9938   12.9231 C   0  0  0  0  0  0  0  0  0  0  0  0
   43.4437    4.6805   12.4367 C   0  0  0  0  0  0  0  0  0  0  0  0
   46.0119    5.9677   12.8537 C   0  0  0  0  0  0  0  0  0  0  0  0
   45.6589    4.6576   12.5035 C   0  0  0  0  0  0  0  0  0  0  0  0
   45.2070    7.0281   12.3750 C   0  0  0  0  0  0  0  0  0  0  0  0
   44.5453    4.3837   11.7036 C   0  0  0  0  0  0  0  0  0  0  0  0
   44.0812    6.7300   11.5647 C   0  0  0  0  0  0  0  0  0  0  0  0
   43.7529    5.4172   11.2315 C   0  0  0  0  0  0  0  0  0  0  0  0
   47.0958    6.1967   13.6293 N   0  0  0  0  0  0  0  0  0  0  0  0
   46.4369    3.6147   12.9648 O   0  0  0  0  0  0  0  0  0  0  0  0
   44.1386    2.7579   11.2910 Cl  0  0  0  0  0  0  0  0  0  0  0  0
   43.0461    7.9725   10.9395 Cl  0  0  0  0  0  0  0  0  0  0  0  0
   45.5860    8.3393   12.7435 C   0  0  0  0  0  0  0  0  0  0  0  0
   47.4196    7.4640   13.9557 C   0  0  0  0  0  0  0  0  0  0  0  0
   46.7015    8.5617   13.5406 C   0  0  0  0  0  0  0  0  0  0  0  0
   45.3408    4.6481   12.8446 C   0  0  0  0  0  0  0  0  0  0  0  0
   45.9364    5.9048   12.7654 C   0  0  0  0  0  0  0  0  0  0  0  0
   44.0250    4.4320   12.4316 C   0  0  0  0  0  0  0  0  0  0  0  0
   47.2132    6.0528   13.1803 N   0  0  0  0  0  0  0  0  0  0  0  0
   45.1748    6.9753   12.2519 C   0  0  0  0  0  0  0  0  0  0  0  0
   43.2775    5.4932   11.9253 C   0  0  0  0  0  0  0  0  0  0  0  0
   43.8492    6.7631   11.8346 C   0  0  0  0  0  0  0  0  0  0  0  0
   46.0949    3.6093   13.3482 O   0  0  0  0  0  0  0  0  0  0  0  0
   43.2902    2.8750   12.5308 Cl  0  0  0  0  0  0  0  0  0  0  0  0
   47.7636    7.2842   13.0912 C   0  0  0  0  0  0  0  0  0  0  0  0
   45.7840    8.2345   12.1770 C   0  0  0  0  0  0  0  0  0  0  0  0
   47.0981    8.3932   12.6026 C   0  0  0  0  0  0  0  0  0  0  0  0
   46.6175    9.5896   11.8796 H   0  0  0  0  0  0  0  0  0  0  0  0
   48.4368    8.1542   12.7726 H   0  0  0  0  0  0  0  0  0  0  0  0
   47.7838    4.7758   13.5629 H   0  0  0  0  0  0  0  0  0  0  0  0
   42.7540    6.5684   11.7148 H   0  0  0  0  0  0  0  0  0  0  0  0
   44.4611    2.9463   13.2017 H   0  0  0  0  0  0  0  0  0  0  0  0
   42.4839    4.1892   12.3217 H   0  0  0  0  0  0  0  0  0  0  0  0
   42.8870    5.2060   10.6097 H   0  0  0  0  0  0  0  0  0  0  0  0
   46.0566    2.7822   12.6333 H   0  0  0  0  0  0  0  0  0  0  0  0
   45.0138    9.2028   12.4118 H   0  0  0  0  0  0  0  0  0  0  0  0
   48.3017    7.5692   14.5805 H   0  0  0  0  0  0  0  0  0  0  0  0
   46.9986    9.5639   13.8274 H   0  0  0  0  0  0  0  0  0  0  0  0
   42.2517    5.3378   11.6003 H   0  0  0  0  0  0  0  0  0  0  0  0
   43.2558    7.5840   11.4376 H   0  0  0  0  0  0  0  0  0  0  0  0
   46.9612    4.0189   13.5587 H   0  0  0  0  0  0  0  0  0  0  0  0
   48.7918    7.3578   13.4357 H   0  0  0  0  0  0  0  0  0  0  0  0
   45.2413    9.0930   11.7892 H   0  0  0  0  0  0  0  0  0  0  0  0
   47.5901    9.3584   12.5540 H   0  0  0  0  0  0  0  0  0  0  0  0
  2  1  1  0
  3  2  2  0
  4  1  1  0
  5  2  1  0
  6  4  2  0
  7  6  1  0
  8  4  1  0
  9  5  1  0
 10  1  2  0
 11 12  2  0
 12 10  1  0
 11  3  1  0
  7  5  2  0
 14 13  2  0
 15 13  1  0
 16 14  1  0
 17 15  2  0
 18 17  1  0
 19 13  1  0
 20 14  1  0
 21 16  1  0
 22 17  1  0
 23 15  1  0
 24 19  2  0
 25 23  2  0
 16 18  2  0
 24 25  1  0
 27 26  2  0
 28 26  1  0
 29 27  1  0
 30 27  1  0
 31 28  2  0
 32 31  1  0
 33 26  1  0
 34 28  1  0
 35 29  2  0
 36 30  1  0
 37 36  2  0
 32 30  2  0
 35 37  1  0
  6 38  1  0
  7 39  1  0
  9 40  1  0
 10 41  1  0
 11 42  1  0
 12 43  1  0
 18 44  1  0
 20 45  1  0
 23 46  1  0
 24 47  1  0
 25 48  1  0
 31 49  1  0
 32 50  1  0
 33 51  1  0
 35 52  1  0
 36 53  1  0
 37 54  1  0
M  END
> <Uni-Dock RESULT> 
ENERGY=   -9.013  LOWER_BOUND=    2.211  UPPER_BOUND=    4.578
INTER + INTRA:          -9.013
INTER:                  -9.013
INTRA:                   0.000
UNBOUND:                 0.000

$$$$

     RDKit          3D

 54 57  0  0  0  0  0  0  0  0999 V2000
   44.9478    4.5884   10.1493 C   0  0  0  0  0  0  0  0  0  0  0  0
   44.4174    3.2905   10.2947 C   0  0  0  0  0  0  0  0  0  0  0  0
   44.3663    2.3906    9.2885 N   0  0  0  0  0  0  0  0  0  0  0  0
   44.9502    5.4512   11.2771 C   0  0  0  0  0  0  0  0  0  0  0  0
   43.9190    2.9116   11.5388 C   0  0  0  0  0  0  0  0  0  0  0  0
   44.4404    5.0342   12.5109 C   0  0  0  0  0  0  0  0  0  0  0  0
   43.9201    3.7536   12.6439 C   0  0  0  0  0  0  0  0  0  0  0  0
   45.5818    7.0621   11.1897 Cl  0  0  0  0  0  0  0  0  0  0  0  0
   43.3988    1.6487   11.6951 O   0  0  0  0  0  0  0  0  0  0  0  0
   45.4406    4.9250    8.8689 C   0  0  0  0  0  0  0  0  0  0  0  0
   44.8506    2.7624    8.0841 C   0  0  0  0  0  0  0  0  0  0  0  0
   45.3921    4.0051    7.8267 C   0  0  0  0  0  0  0  0  0  0  0  0
   44.2852    3.3127   10.4194 C   0  0  0  0  0  0  0  0  0  0  0  0
   44.9296    2.5518    9.4348 C   0  0  0  0  0  0  0  0  0  0  0  0
   44.6979    4.6531   10.6056 C   0  0  0  0  0  0  0  0  0  0  0  0
   45.9550    3.0833    8.6468 C   0  0  0  0  0  0  0  0  0  0  0  0
   45.7400    5.1743    9.7963 C   0  0  0  0  0  0  0  0  0  0  0  0
   46.3640    4.3949    8.8239 C   0  0  0  0  0  0  0  0  0  0  0  0
   43.2970    2.7668   11.1638 N   0  0  0  0  0  0  0  0  0  0  0  0
   44.5354    1.2427    9.2440 O   0  0  0  0  0  0  0  0  0  0  0  0
   46.7277    2.1182    7.4425 Cl  0  0  0  0  0  0  0  0  0  0  0  0
   46.3023    6.8060    9.9631 Cl  0  0  0  0  0  0  0  0  0  0  0  0
   44.0310    5.3976   11.6055 C   0  0  0  0  0  0  0  0  0  0  0  0
   42.6889    3.5146   12.1063 C   0  0  0  0  0  0  0  0  0  0  0  0
   43.0175    4.8256   12.3636 C   0  0  0  0  0  0  0  0  0  0  0  0
   44.6596    2.7423    9.1054 C   0  0  0  0  0  0  0  0  0  0  0  0
   44.3958    3.3158   10.3472 C   0  0  0  0  0  0  0  0  0  0  0  0
   45.3374    3.4396    8.1039 C   0  0  0  0  0  0  0  0  0  0  0  0
   43.7359    2.5919   11.2771 N   0  0  0  0  0  0  0  0  0  0  0  0
   44.8324    4.6366   10.5808 C   0  0  0  0  0  0  0  0  0  0  0  0
   45.7661    4.7440    8.3403 C   0  0  0  0  0  0  0  0  0  0  0  0
   45.5153    5.3433    9.5754 C   0  0  0  0  0  0  0  0  0  0  0  0
   44.2282    1.4508    8.8886 O   0  0  0  0  0  0  0  0  0  0  0  0
   45.6626    2.7270    6.5676 Cl  0  0  0  0  0  0  0  0  0  0  0  0
   43.4947    3.1756   12.4723 C   0  0  0  0  0  0  0  0  0  0  0  0
   44.5615    5.2031   11.8330 C   0  0  0  0  0  0  0  0  0  0  0  0
   43.8825    4.4630   12.7944 C   0  0  0  0  0  0  0  0  0  0  0  0
   44.4471    5.7028   13.3681 H   0  0  0  0  0  0  0  0  0  0  0  0
   43.5194    3.4101   13.5930 H   0  0  0  0  0  0  0  0  0  0  0  0
   43.4987    1.2406   10.8077 H   0  0  0  0  0  0  0  0  0  0  0  0
   45.8659    5.9070    8.6749 H   0  0  0  0  0  0  0  0  0  0  0  0
   44.7888    2.0071    7.3054 H   0  0  0  0  0  0  0  0  0  0  0  0
   45.7682    4.2551    6.8409 H   0  0  0  0  0  0  0  0  0  0  0  0
   47.1607    4.8096    8.2122 H   0  0  0  0  0  0  0  0  0  0  0  0
   45.0785    0.8627    8.5310 H   0  0  0  0  0  0  0  0  0  0  0  0
   44.2957    6.4337   11.8037 H   0  0  0  0  0  0  0  0  0  0  0  0
   41.9058    3.0086   12.6634 H   0  0  0  0  0  0  0  0  0  0  0  0
   42.5014    5.3897   13.1319 H   0  0  0  0  0  0  0  0  0  0  0  0
   46.2950    5.2977    7.5684 H   0  0  0  0  0  0  0  0  0  0  0  0
   45.8549    6.3623    9.7485 H   0  0  0  0  0  0  0  0  0  0  0  0
   43.7920    1.1968    9.7299 H   0  0  0  0  0  0  0  0  0  0  0  0
   42.9616    2.5577   13.1901 H   0  0  0  0  0  0  0  0  0  0  0  0
   44.8760    6.2177   12.0646 H   0  0  0  0  0  0  0  0  0  0  0  0
   43.6619    4.8808   13.7705 H   0  0  0  0  0  0  0  0  0  0  0  0
  2  1  1  0
  3  2  2  0
  4  1  1  0
  5  2  1  0
  6  4  2  0
  7  6  1  0
  8  4  1  0
  9  5  1  0
 10  1  2  0
 11 12  2  0
 12 10  1  0
 11  3  1  0
  7  5  2  0
 14 13  2  0
 15 13  1  0
 16 14  1  0
 17 15  2  0
 18 17  1  0
 19 13  1  0
 20 14  1  0
 21 16  1  0
 22 17  1  0
 23 15  1  0
 24 19  2  0
 25 23  2  0
 16 18  2  0
 24 25  1  0
 27 26  2  0
 28 26  1  0
 29 27  1  0
 30 27  1  0
 31 28  2  0
 32 31  1  0
 33 26  1  0
 34 28  1  0
 35 29  2  0
 36 30  1  0
 37 36  2  0
 32 30  2  0
 35 37  1  0
  6 38  1  0
  7 39  1  0
  9 40  1  0
 10 41  1  0
 11 42  1  0
 12 43  1  0
 18 44  1  0
 20 45  1  0
 23 46  1  0
 24 47  1  0
 25 48  1  0
 31 49  1  0
 32 50  1  0
 33 51  1  0
 35 52  1  0
 36 53  1  0
 37 54  1  0
M  END
> <Uni-Dock RESULT> 
ENERGY=   -8.447  LOWER_BOUND=    3.456  UPPER_BOUND=    4.983
INTER + INTRA:          -8.447
INTER:                  -8.447
INTRA:                   0.000
UNBOUND:                 0.000

$$$$

     RDKit          3D

 54 57  0  0  0  0  0  0  0  0999 V2000
   46.3315    5.8877   13.0405 C   0  0  0  0  0  0  0  0  0  0  0  0
   45.9002    7.1333   12.5412 C   0  0  0  0  0  0  0  0  0  0  0  0
   44.8846    7.2708   11.6611 N   0  0  0  0  0  0  0  0  0  0  0  0
   47.4107    5.8628   13.9630 C   0  0  0  0  0  0  0  0  0  0  0  0
   46.5521    8.2851   12.9749 C   0  0  0  0  0  0  0  0  0  0  0  0
   48.0406    7.0417   14.3751 C   0  0  0  0  0  0  0  0  0  0  0  0
   47.6082    8.2639   13.8773 C   0  0  0  0  0  0  0  0  0  0  0  0
   48.0063    4.3779   14.6277 Cl  0  0  0  0  0  0  0  0  0  0  0  0
   46.1420    9.5069   12.4961 O   0  0  0  0  0  0  0  0  0  0  0  0
   45.6390    4.7496   12.5707 C   0  0  0  0  0  0  0  0  0  0  0  0
   44.2557    6.1514   11.2434 C   0  0  0  0  0  0  0  0  0  0  0  0
   44.5921    4.8812   11.6645 C   0  0  0  0  0  0  0  0  0  0  0  0
   46.0540    7.2325   12.5368 C   0  0  0  0  0  0  0  0  0  0  0  0
   44.7118    7.0315   12.1879 C   0  0  0  0  0  0  0  0  0  0  0  0
   46.7409    6.1805   13.1872 C   0  0  0  0  0  0  0  0  0  0  0  0
   44.0503    5.8315   12.4660 C   0  0  0  0  0  0  0  0  0  0  0  0
   46.0526    4.9705   13.4607 C   0  0  0  0  0  0  0  0  0  0  0  0
   44.7169    4.7974   13.1026 C   0  0  0  0  0  0  0  0  0  0  0  0
   46.6631    8.4060   12.2527 N   0  0  0  0  0  0  0  0  0  0  0  0
   44.0313    8.0508   11.5529 O   0  0  0  0  0  0  0  0  0  0  0  0
   42.3961    5.6170   12.0225 Cl  0  0  0  0  0  0  0  0  0  0  0  0
   46.8238    3.6355   14.2540 Cl  0  0  0  0  0  0  0  0  0  0  0  0
   48.0937    6.4103   13.5277 C   0  0  0  0  0  0  0  0  0  0  0  0
   47.9550    8.5807   12.5961 C   0  0  0  0  0  0  0  0  0  0  0  0
   48.7082    7.6200   13.2306 C   0  0  0  0  0  0  0  0  0  0  0  0
   44.8422    6.8007   11.8040 C   0  0  0  0  0  0  0  0  0  0  0  0
   45.9543    7.1510   12.5662 C   0  0  0  0  0  0  0  0  0  0  0  0
   44.3975    5.4803   11.7182 C   0  0  0  0  0  0  0  0  0  0  0  0
   46.3373    8.4455   12.6110 N   0  0  0  0  0  0  0  0  0  0  0  0
   46.6366    6.1316   13.2626 C   0  0  0  0  0  0  0  0  0  0  0  0
   45.0754    4.4775   12.4082 C   0  0  0  0  0  0  0  0  0  0  0  0
   46.1929    4.8002   13.1795 C   0  0  0  0  0  0  0  0  0  0  0  0
   44.1832    7.8055   11.1278 O   0  0  0  0  0  0  0  0  0  0  0  0
   43.0203    5.0495   10.7739 Cl  0  0  0  0  0  0  0  0  0  0  0  0
   47.4202    8.7543   13.3590 C   0  0  0  0  0  0  0  0  0  0  0  0
   47.7535    6.4955   14.0257 C   0  0  0  0  0  0  0  0  0  0  0  0
   48.1528    7.8264   14.0758 C   0  0  0  0  0  0  0  0  0  0  0  0
   48.8660    7.0115   15.0818 H   0  0  0  0  0  0  0  0  0  0  0  0
   48.0834    9.1908   14.1843 H   0  0  0  0  0  0  0  0  0  0  0  0
   45.4025    9.2866   11.8890 H   0  0  0  0  0  0  0  0  0  0  0  0
   45.9111    3.7520   12.9081 H   0  0  0  0  0  0  0  0  0  0  0  0
   43.4458    6.3099   10.5365 H   0  0  0  0  0  0  0  0  0  0  0  0
   44.0552    4.0130   11.2989 H   0  0  0  0  0  0  0  0  0  0  0  0
   44.2042    3.8640   13.3194 H   0  0  0  0  0  0  0  0  0  0  0  0
   43.1212    7.7494   11.3838 H   0  0  0  0  0  0  0  0  0  0  0  0
   48.6835    5.6464   14.0292 H   0  0  0  0  0  0  0  0  0  0  0  0
   48.3755    9.5477   12.3359 H   0  0  0  0  0  0  0  0  0  0  0  0
   49.7448    7.8039   13.4883 H   0  0  0  0  0  0  0  0  0  0  0  0
   44.7390    3.4453   12.3495 H   0  0  0  0  0  0  0  0  0  0  0  0
   46.7142    4.0087   13.7138 H   0  0  0  0  0  0  0  0  0  0  0  0
   44.6861    8.6178   11.3512 H   0  0  0  0  0  0  0  0  0  0  0  0
   47.6928    9.8063   13.3666 H   0  0  0  0  0  0  0  0  0  0  0  0
   48.3150    5.7487   14.5816 H   0  0  0  0  0  0  0  0  0  0  0  0
   49.0141    8.1313   14.6598 H   0  0  0  0  0  0  0  0  0  0  0  0
  2  1  1  0
  3  2  2  0
  4  1  1  0
  5  2  1  0
  6  4  2  0
  7  6  1  0
  8  4  1  0
  9  5  1  0
 10  1  2  0
 11 12  2  0
 12 10  1  0
 11  3  1  0
  7  5  2  0
 14 13  2  0
 15 13  1  0
 16 14  1  0
 17 15  2  0
 18 17  1  0
 19 13  1  0
 20 14  1  0
 21 16  1  0
 22 17  1  0
 23 15  1  0
 24 19  2  0
 25 23  2  0
 16 18  2  0
 24 25  1  0
 27 26  2  0
 28 26  1  0
 29 27  1  0
 30 27  1  0
 31 28  2  0
 32 31  1  0
 33 26  1  0
 34 28  1  0
 35 29  2  0
 36 30  1  0
 37 36  2  0
 32 30  2  0
 35 37  1  0
  6 38  1  0
  7 39  1  0
  9 40  1  0
 10 41  1  0
 11 42  1  0
 12 43  1  0
 18 44  1  0
 20 45  1  0
 23 46  1  0
 24 47  1  0
 25 48  1  0
 31 49  1  0
 32 50  1  0
 33 51  1  0
 35 52  1  0
 36 53  1  0
 37 54  1  0
M  END
> <Uni-Dock RESULT> 
ENERGY=   -8.235  LOWER_BOUND=    1.568  UPPER_BOUND=    3.710
INTER + INTRA:          -8.235
INTER:                  -8.235
INTRA:                   0.000
UNBOUND:                 0.000

$$$$

     RDKit          3D

 54 57  0  0  0  0  0  0  0  0999 V2000
   46.0242    6.4878   12.7281 C   0  0  0  0  0  0  0  0  0  0  0  0
   45.0272    7.2638   12.1029 C   0  0  0  0  0  0  0  0  0  0  0  0
   44.0264    6.7352   11.3654 N   0  0  0  0  0  0  0  0  0  0  0  0
   47.0293    7.1517   13.4800 C   0  0  0  0  0  0  0  0  0  0  0  0
   45.0721    8.6479   12.2503 C   0  0  0  0  0  0  0  0  0  0  0  0
   47.0409    8.5448   13.6051 C   0  0  0  0  0  0  0  0  0  0  0  0
   46.0542    9.3002   12.9853 C   0  0  0  0  0  0  0  0  0  0  0  0
   48.2928    6.2784   14.2815 Cl  0  0  0  0  0  0  0  0  0  0  0  0
   44.1061    9.4171   11.6460 O   0  0  0  0  0  0  0  0  0  0  0  0
   45.9353    5.0894   12.5489 C   0  0  0  0  0  0  0  0  0  0  0  0
   43.9869    5.3928   11.2252 C   0  0  0  0  0  0  0  0  0  0  0  0
   44.9085    4.5360   11.7913 C   0  0  0  0  0  0  0  0  0  0  0  0
   45.1147    7.4190   12.0609 C   0  0  0  0  0  0  0  0  0  0  0  0
   44.0150    6.5586   11.9428 C   0  0  0  0  0  0  0  0  0  0  0  0
   46.2514    6.9588   12.7666 C   0  0  0  0  0  0  0  0  0  0  0  0
   44.0200    5.2761   12.4997 C   0  0  0  0  0  0  0  0  0  0  0  0
   46.2373    5.6545   13.3244 C   0  0  0  0  0  0  0  0  0  0  0  0
   45.1296    4.8192   13.1919 C   0  0  0  0  0  0  0  0  0  0  0  0
   45.0760    8.6533   11.5098 N   0  0  0  0  0  0  0  0  0  0  0  0
   42.9003    6.9966   11.2564 O   0  0  0  0  0  0  0  0  0  0  0  0
   42.6482    4.2416   12.3356 Cl  0  0  0  0  0  0  0  0  0  0  0  0
   47.5900    5.0179   14.2028 Cl  0  0  0  0  0  0  0  0  0  0  0  0
   47.3462    7.8472   12.8704 C   0  0  0  0  0  0  0  0  0  0  0  0
   46.1437    9.4668   11.6340 C   0  0  0  0  0  0  0  0  0  0  0  0
   47.2943    9.1126   12.3000 C   0  0  0  0  0  0  0  0  0  0  0  0
   44.2203    6.3389   11.5861 C   0  0  0  0  0  0  0  0  0  0  0  0
   45.0675    7.3090   12.1168 C   0  0  0  0  0  0  0  0  0  0  0  0
   44.4549    4.9760   11.7759 C   0  0  0  0  0  0  0  0  0  0  0  0
   44.7890    8.6127   11.8998 N   0  0  0  0  0  0  0  0  0  0  0  0
   46.1868    6.8844   12.8628 C   0  0  0  0  0  0  0  0  0  0  0  0
   45.5621    4.5625   12.5136 C   0  0  0  0  0  0  0  0  0  0  0  0
   46.4276    5.5130   13.0569 C   0  0  0  0  0  0  0  0  0  0  0  0
   43.1294    6.7658   10.8587 O   0  0  0  0  0  0  0  0  0  0  0  0
   43.4043    3.7774   11.1176 Cl  0  0  0  0  0  0  0  0  0  0  0  0
   45.6296    9.5305   12.4275 C   0  0  0  0  0  0  0  0  0  0  0  0
   47.0317    7.8686   13.3916 C   0  0  0  0  0  0  0  0  0  0  0  0
   46.7505    9.2123   13.1717 C   0  0  0  0  0  0  0  0  0  0  0  0
   47.8150    9.0431   14.1832 H   0  0  0  0  0  0  0  0  0  0  0  0
   46.0449   10.3828   13.0699 H   0  0  0  0  0  0  0  0  0  0  0  0
   43.5317    8.7622   11.1931 H   0  0  0  0  0  0  0  0  0  0  0  0
   46.6662    4.4215   12.9990 H   0  0  0  0  0  0  0  0  0  0  0  0
   43.1654    5.0125   10.6243 H   0  0  0  0  0  0  0  0  0  0  0  0
   44.8328    3.4638   11.6488 H   0  0  0  0  0  0  0  0  0  0  0  0
   45.1351    3.8227   13.6253 H   0  0  0  0  0  0  0  0  0  0  0  0
   42.2367    6.2845   11.2686 H   0  0  0  0  0  0  0  0  0  0  0  0
   48.2529    7.5608   13.3984 H   0  0  0  0  0  0  0  0  0  0  0  0
   46.0391   10.4412   11.1658 H   0  0  0  0  0  0  0  0  0  0  0  0
   48.1294    9.7994   12.3752 H   0  0  0  0  0  0  0  0  0  0  0  0
   45.7558    3.5040   12.6686 H   0  0  0  0  0  0  0  0  0  0  0  0
   47.2890    5.1782   13.6312 H   0  0  0  0  0  0  0  0  0  0  0  0
   43.1948    7.7446   10.8760 H   0  0  0  0  0  0  0  0  0  0  0  0
   45.3680   10.5664   12.2285 H   0  0  0  0  0  0  0  0  0  0  0  0
   47.9081    7.5953   13.9741 H   0  0  0  0  0  0  0  0  0  0  0  0
   47.3904    9.9914   13.5713 H   0  0  0  0  0  0  0  0  0  0  0  0
  2  1  1  0
  3  2  2  0
  4  1  1  0
  5  2  1  0
  6  4  2  0
  7  6  1  0
  8  4  1  0
  9  5  1  0
 10  1  2  0
 11 12  2  0
 12 10  1  0
 11  3  1  0
  7  5  2  0
 14 13  2  0
 15 13  1  0
 16 14  1  0
 17 15  2  0
 18 17  1  0
 19 13  1  0
 20 14  1  0
 21 16  1  0
 22 17  1  0
 23 15  1  0
 24 19  2  0
 25 23  2  0
 16 18  2  0
 24 25  1  0
 27 26  2  0
 28 26  1  0
 29 27  1  0
 30 27  1  0
 31 28  2  0
 32 31  1  0
 33 26  1  0
 34 28  1  0
 35 29  2  0
 36 30  1  0
 37 36  2  0
 32 30  2  0
 35 37  1  0
  6 38  1  0
  7 39  1  0
  9 40  1  0
 10 41  1  0
 11 42  1  0
 12 43  1  0
 18 44  1  0
 20 45  1  0
 23 46  1  0
 24 47  1  0
 25 48  1  0
 31 49  1  0
 32 50  1  0
 33 51  1  0
 35 52  1  0
 36 53  1  0
 37 54  1  0
M  END
> <Uni-Dock RESULT> 
ENERGY=   -8.107  LOWER_BOUND=    1.302  UPPER_BOUND=    3.715
INTER + INTRA:          -8.107
INTER:                  -8.107
INTRA:                   0.000
UNBOUND:                 0.000

$$$$

     RDKit          3D

 54 57  0  0  0  0  0  0  0  0999 V2000
   47.4961    8.3637   20.9052 C   0  0  0  0  0  0  0  0  0  0  0  0
   47.7364    8.2117   19.5245 C   0  0  0  0  0  0  0  0  0  0  0  0
   47.5076    9.1865   18.6177 N   0  0  0  0  0  0  0  0  0  0  0  0
   47.7738    7.2700   21.7671 C   0  0  0  0  0  0  0  0  0  0  0  0
   48.2359    6.9949   19.0667 C   0  0  0  0  0  0  0  0  0  0  0  0
   48.2751    6.0628   21.2695 C   0  0  0  0  0  0  0  0  0  0  0  0
   48.5085    5.9231   19.9077 C   0  0  0  0  0  0  0  0  0  0  0  0
   47.5087    7.3678   23.4764 Cl  0  0  0  0  0  0  0  0  0  0  0  0
   48.4750    6.8326   17.7226 O   0  0  0  0  0  0  0  0  0  0  0  0
   46.9898    9.6157   21.3197 C   0  0  0  0  0  0  0  0  0  0  0  0
   47.0233   10.3645   19.0662 C   0  0  0  0  0  0  0  0  0  0  0  0
   46.7510   10.6254   20.3934 C   0  0  0  0  0  0  0  0  0  0  0  0
   47.7027    8.0342   19.4951 C   0  0  0  0  0  0  0  0  0  0  0  0
   47.9261    9.3358   19.0266 C   0  0  0  0  0  0  0  0  0  0  0  0
   47.5469    7.8422   20.8882 C   0  0  0  0  0  0  0  0  0  0  0  0
   47.9969   10.4292   19.8952 C   0  0  0  0  0  0  0  0  0  0  0  0
   47.6218    8.9641   21.7532 C   0  0  0  0  0  0  0  0  0  0  0  0
   47.8452   10.2483   21.2602 C   0  0  0  0  0  0  0  0  0  0  0  0
   47.6400    6.9993   18.6270 N   0  0  0  0  0  0  0  0  0  0  0  0
   48.0797    9.5355   17.6694 O   0  0  0  0  0  0  0  0  0  0  0  0
   48.2735   12.0197   19.2846 Cl  0  0  0  0  0  0  0  0  0  0  0  0
   47.4414    8.8116   23.4710 Cl  0  0  0  0  0  0  0  0  0  0  0  0
   47.3225    6.5191   21.3332 C   0  0  0  0  0  0  0  0  0  0  0  0
   47.4242    5.7542   19.0966 C   0  0  0  0  0  0  0  0  0  0  0  0
   47.2603    5.4645   20.4315 C   0  0  0  0  0  0  0  0  0  0  0  0
   47.4689    9.4259   19.0473 C   0  0  0  0  0  0  0  0  0  0  0  0
   47.7400    8.1520   19.5417 C   0  0  0  0  0  0  0  0  0  0  0  0
   47.1021   10.4773   19.8890 C   0  0  0  0  0  0  0  0  0  0  0  0
   48.0904    7.1743   18.6783 N   0  0  0  0  0  0  0  0  0  0  0  0
   47.6359    7.9376   20.9319 C   0  0  0  0  0  0  0  0  0  0  0  0
   47.0008   10.2596   21.2614 C   0  0  0  0  0  0  0  0  0  0  0  0
   47.2668    8.9932   21.7841 C   0  0  0  0  0  0  0  0  0  0  0  0
   47.5738    9.6237   17.6867 O   0  0  0  0  0  0  0  0  0  0  0  0
   46.7671   12.0532   19.2740 Cl  0  0  0  0  0  0  0  0  0  0  0  0
   48.3472    5.9489   19.1881 C   0  0  0  0  0  0  0  0  0  0  0  0
   47.9108    6.6528   21.4178 C   0  0  0  0  0  0  0  0  0  0  0  0
   48.2719    5.6420   20.5341 C   0  0  0  0  0  0  0  0  0  0  0  0
   48.4843    5.2317   21.9382 H   0  0  0  0  0  0  0  0  0  0  0  0
   48.8974    4.9944   19.5008 H   0  0  0  0  0  0  0  0  0  0  0  0
   48.2172    7.6952   17.3310 H   0  0  0  0  0  0  0  0  0  0  0  0
   46.7780    9.8125   22.3682 H   0  0  0  0  0  0  0  0  0  0  0  0
   46.8548   11.1185   18.3021 H   0  0  0  0  0  0  0  0  0  0  0  0
   46.3626   11.5892   20.7030 H   0  0  0  0  0  0  0  0  0  0  0  0
   47.8998   11.0972   21.9366 H   0  0  0  0  0  0  0  0  0  0  0  0
   48.2253   10.4858   17.5166 H   0  0  0  0  0  0  0  0  0  0  0  0
   47.1938    6.2970   22.3900 H   0  0  0  0  0  0  0  0  0  0  0  0
   47.3865    4.9753   18.3406 H   0  0  0  0  0  0  0  0  0  0  0  0
   47.0887    4.4474   20.7648 H   0  0  0  0  0  0  0  0  0  0  0  0
   46.7161   11.0702   21.9275 H   0  0  0  0  0  0  0  0  0  0  0  0
   47.1846    8.8351   22.8574 H   0  0  0  0  0  0  0  0  0  0  0  0
   47.8396    8.7473   17.3345 H   0  0  0  0  0  0  0  0  0  0  0  0
   48.6252    5.1929   18.4585 H   0  0  0  0  0  0  0  0  0  0  0  0
   47.8453    6.4341   22.4808 H   0  0  0  0  0  0  0  0  0  0  0  0
   48.4892    4.6401   20.8874 H   0  0  0  0  0  0  0  0  0  0  0  0
  2  1  1  0
  3  2  2  0
  4  1  1  0
  5  2  1  0
  6  4  2  0
  7  6  1  0
  8  4  1  0
  9  5  1  0
 10  1  2  0
 11 12  2  0
 12 10  1  0
 11  3  1  0
  7  5  2  0
 14 13  2  0
 15 13  1  0
 16 14  1  0
 17 15  2  0
 18 17  1  0
 19 13  1  0
 20 14  1  0
 21 16  1  0
 22 17  1  0
 23 15  1  0
 24 19  2  0
 25 23  2  0
 16 18  2  0
 24 25  1  0
 27 26  2  0
 28 26  1  0
 29 27  1  0
 30 27  1  0
 31 28  2  0
 32 31  1  0
 33 26  1  0
 34 28  1  0
 35 29  2  0
 36 30  1  0
 37 36  2  0
 32 30  2  0
 35 37  1  0
  6 38  1  0
  7 39  1  0
  9 40  1  0
 10 41  1  0
 11 42  1  0
 12 43  1  0
 18 44  1  0
 20 45  1  0
 23 46  1  0
 24 47  1  0
 25 48  1  0
 31 49  1  0
 32 50  1  0
 33 51  1  0
 35 52  1  0
 36 53  1  0
 37 54  1  0
M  END
> <Uni-Dock RESULT> 
ENERGY=   -7.544  LOWER_BOUND=    7.336  UPPER_BOUND=    8.529
INTER + INTRA:          -7.544
INTER:                  -7.544
INTRA:                   0.000
UNBOUND:                 0.000

$$$$

     RDKit          3D

 54 57  0  0  0  0  0  0  0  0999 V2000
   47.6230    7.6810   21.2980 C   0  0  0  0  0  0  0  0  0  0  0  0
   47.8233    6.4077   21.8686 C   0  0  0  0  0  0  0  0  0  0  0  0
   47.8160    5.2621   21.1527 N   0  0  0  0  0  0  0  0  0  0  0  0
   47.6515    8.8181   22.1481 C   0  0  0  0  0  0  0  0  0  0  0  0
   48.0403    6.3212   23.2415 C   0  0  0  0  0  0  0  0  0  0  0  0
   47.8726    8.6907   23.5233 C   0  0  0  0  0  0  0  0  0  0  0  0
   48.0688    7.4318   24.0757 C   0  0  0  0  0  0  0  0  0  0  0  0
   47.4152   10.4205   21.5335 Cl  0  0  0  0  0  0  0  0  0  0  0  0
   48.2371    5.0857   23.8116 O   0  0  0  0  0  0  0  0  0  0  0  0
   47.4070    7.7163   19.9024 C   0  0  0  0  0  0  0  0  0  0  0  0
   47.6051    5.3509   19.8220 C   0  0  0  0  0  0  0  0  0  0  0  0
   47.3977    6.5420   19.1570 C   0  0  0  0  0  0  0  0  0  0  0  0
   47.7510    6.4246   22.0359 C   0  0  0  0  0  0  0  0  0  0  0  0
   48.2573    5.6410   20.9904 C   0  0  0  0  0  0  0  0  0  0  0  0
   47.5568    7.8066   21.8028 C   0  0  0  0  0  0  0  0  0  0  0  0
   48.5690    6.1899   19.7428 C   0  0  0  0  0  0  0  0  0  0  0  0
   47.8789    8.3448   20.5303 C   0  0  0  0  0  0  0  0  0  0  0  0
   48.3814    7.5421   19.5077 C   0  0  0  0  0  0  0  0  0  0  0  0
   47.4602    5.8610   23.2303 N   0  0  0  0  0  0  0  0  0  0  0  0
   48.4509    4.2914   21.2062 O   0  0  0  0  0  0  0  0  0  0  0  0
   49.1912    5.1959   18.4763 Cl  0  0  0  0  0  0  0  0  0  0  0  0
   47.6697   10.0270   20.1661 Cl  0  0  0  0  0  0  0  0  0  0  0  0
   47.0449    8.5732   22.8746 C   0  0  0  0  0  0  0  0  0  0  0  0
   46.9738    6.6312   24.2241 C   0  0  0  0  0  0  0  0  0  0  0  0
   46.7501    7.9827   24.0968 C   0  0  0  0  0  0  0  0  0  0  0  0
   47.8314    5.6094   20.8027 C   0  0  0  0  0  0  0  0  0  0  0  0
   47.8135    6.4403   21.9206 C   0  0  0  0  0  0  0  0  0  0  0  0
   47.7071    6.1173   19.5084 C   0  0  0  0  0  0  0  0  0  0  0  0
   47.9381    5.8910   23.1482 N   0  0  0  0  0  0  0  0  0  0  0  0
   47.6649    7.8286   21.7203 C   0  0  0  0  0  0  0  0  0  0  0  0
   47.5605    7.4895   19.3167 C   0  0  0  0  0  0  0  0  0  0  0  0
   47.5392    8.3453   20.4188 C   0  0  0  0  0  0  0  0  0  0  0  0
   47.9772    4.2541   21.0108 O   0  0  0  0  0  0  0  0  0  0  0  0
   47.7296    5.0861   18.1264 Cl  0  0  0  0  0  0  0  0  0  0  0  0
   47.9170    6.7230   24.2134 C   0  0  0  0  0  0  0  0  0  0  0  0
   47.6482    8.6545   22.8516 C   0  0  0  0  0  0  0  0  0  0  0  0
   47.7760    8.0950   24.1180 C   0  0  0  0  0  0  0  0  0  0  0  0
   47.8925    9.5678   24.1652 H   0  0  0  0  0  0  0  0  0  0  0  0
   48.2420    7.3110   25.1409 H   0  0  0  0  0  0  0  0  0  0  0  0
   48.1769    4.4638   23.0542 H   0  0  0  0  0  0  0  0  0  0  0  0
   47.2444    8.6598   19.3865 H   0  0  0  0  0  0  0  0  0  0  0  0
   47.6077    4.4051   19.2871 H   0  0  0  0  0  0  0  0  0  0  0  0
   47.2328    6.5600   18.0855 H   0  0  0  0  0  0  0  0  0  0  0  0
   48.6230    7.9703   18.5385 H   0  0  0  0  0  0  0  0  0  0  0  0
   48.8036    3.9003   20.3874 H   0  0  0  0  0  0  0  0  0  0  0  0
   46.8704    9.6413   22.7672 H   0  0  0  0  0  0  0  0  0  0  0  0
   46.7642    6.1089   25.1530 H   0  0  0  0  0  0  0  0  0  0  0  0
   46.3574    8.5636   24.9233 H   0  0  0  0  0  0  0  0  0  0  0  0
   47.4627    7.8974   18.3137 H   0  0  0  0  0  0  0  0  0  0  0  0
   47.4243    9.4150   20.2568 H   0  0  0  0  0  0  0  0  0  0  0  0
   48.0420    4.1644   21.9857 H   0  0  0  0  0  0  0  0  0  0  0  0
   48.0202    6.2389   25.1810 H   0  0  0  0  0  0  0  0  0  0  0  0
   47.5361    9.7314   22.7529 H   0  0  0  0  0  0  0  0  0  0  0  0
   47.7658    8.7146   25.0079 H   0  0  0  0  0  0  0  0  0  0  0  0
  2  1  1  0
  3  2  2  0
  4  1  1  0
  5  2  1  0
  6  4  2  0
  7  6  1  0
  8  4  1  0
  9  5  1  0
 10  1  2  0
 11 12  2  0
 12 10  1  0
 11  3  1  0
  7  5  2  0
 14 13  2  0
 15 13  1  0
 16 14  1  0
 17 15  2  0
 18 17  1  0
 19 13  1  0
 20 14  1  0
 21 16  1  0
 22 17  1  0
 23 15  1  0
 24 19  2  0
 25 23  2  0
 16 18  2  0
 24 25  1  0
 27 26  2  0
 28 26  1  0
 29 27  1  0
 30 27  1  0
 31 28  2  0
 32 31  1  0
 33 26  1  0
 34 28  1  0
 35 29  2  0
 36 30  1  0
 37 36  2  0
 32 30  2  0
 35 37  1  0
  6 38  1  0
  7 39  1  0
  9 40  1  0
 10 41  1  0
 11 42  1  0
 12 43  1  0
 18 44  1  0
 20 45  1  0
 23 46  1  0
 24 47  1  0
 25 48  1  0
 31 49  1  0
 32 50  1  0
 33 51  1  0
 35 52  1  0
 36 53  1  0
 37 54  1  0
M  END
> <Uni-Dock RESULT> 
ENERGY=   -7.471  LOWER_BOUND=    8.675  UPPER_BOUND=   10.211
INTER + INTRA:          -7.471
INTER:                  -7.471
INTRA:                   0.000
UNBOUND:                 0.000

$$$$

     RDKit          3D

 54 57  0  0  0  0  0  0  0  0999 V2000
   47.7918    7.3556   20.9094 C   0  0  0  0  0  0  0  0  0  0  0  0
   47.8489    7.7772   19.5656 C   0  0  0  0  0  0  0  0  0  0  0  0
   48.2866    6.9918   18.5574 N   0  0  0  0  0  0  0  0  0  0  0  0
   47.3134    8.2674   21.8873 C   0  0  0  0  0  0  0  0  0  0  0  0
   47.4335    9.0700   19.2562 C   0  0  0  0  0  0  0  0  0  0  0  0
   46.9049    9.5586   21.5374 C   0  0  0  0  0  0  0  0  0  0  0  0
   46.9651    9.9643   20.2107 C   0  0  0  0  0  0  0  0  0  0  0  0
   47.2090    7.8349   23.5617 Cl  0  0  0  0  0  0  0  0  0  0  0  0
   47.4839    9.4946   17.9495 O   0  0  0  0  0  0  0  0  0  0  0  0
   48.2238    6.0366   21.1721 C   0  0  0  0  0  0  0  0  0  0  0  0
   48.6884    5.7392   18.8621 C   0  0  0  0  0  0  0  0  0  0  0  0
   48.6761    5.2205   20.1407 C   0  0  0  0  0  0  0  0  0  0  0  0
   47.8845    7.9563   19.5790 C   0  0  0  0  0  0  0  0  0  0  0  0
   47.7936    6.7751   18.8305 C   0  0  0  0  0  0  0  0  0  0  0  0
   47.7349    7.8716   20.9834 C   0  0  0  0  0  0  0  0  0  0  0  0
   47.5617    5.5360   19.4353 C   0  0  0  0  0  0  0  0  0  0  0  0
   47.5002    6.6053   21.5783 C   0  0  0  0  0  0  0  0  0  0  0  0
   47.4143    5.4459   20.8098 C   0  0  0  0  0  0  0  0  0  0  0  0
   48.1096    9.1381   18.9616 N   0  0  0  0  0  0  0  0  0  0  0  0
   47.9379    6.8454   17.4595 O   0  0  0  0  0  0  0  0  0  0  0  0
   47.4553    4.1001   18.4835 Cl  0  0  0  0  0  0  0  0  0  0  0  0
   47.3061    6.4183   23.2912 Cl  0  0  0  0  0  0  0  0  0  0  0  0
   47.8312    9.0783   21.7136 C   0  0  0  0  0  0  0  0  0  0  0  0
   48.1939   10.2638   19.6985 C   0  0  0  0  0  0  0  0  0  0  0  0
   48.0626   10.2861   21.0678 C   0  0  0  0  0  0  0  0  0  0  0  0
   48.2377    6.6730   18.9306 C   0  0  0  0  0  0  0  0  0  0  0  0
   47.8405    7.8325   19.5928 C   0  0  0  0  0  0  0  0  0  0  0  0
   48.4380    5.4709   19.6113 C   0  0  0  0  0  0  0  0  0  0  0  0
   47.6624    8.9662   18.8806 N   0  0  0  0  0  0  0  0  0  0  0  0
   47.6405    7.7714   20.9877 C   0  0  0  0  0  0  0  0  0  0  0  0
   48.2389    5.4166   20.9892 C   0  0  0  0  0  0  0  0  0  0  0  0
   47.8409    6.5632   21.6781 C   0  0  0  0  0  0  0  0  0  0  0  0
   48.4301    6.7447   17.5671 O   0  0  0  0  0  0  0  0  0  0  0  0
   48.9296    4.0371   18.7889 Cl  0  0  0  0  0  0  0  0  0  0  0  0
   47.2770   10.0749   19.5512 C   0  0  0  0  0  0  0  0  0  0  0  0
   47.2414    8.9434   21.6431 C   0  0  0  0  0  0  0  0  0  0  0  0
   47.0564   10.1136   20.9155 C   0  0  0  0  0  0  0  0  0  0  0  0
   46.5403   10.2488   22.2940 H   0  0  0  0  0  0  0  0  0  0  0  0
   46.6528   10.9622   19.9179 H   0  0  0  0  0  0  0  0  0  0  0  0
   47.8374    8.7189   17.4626 H   0  0  0  0  0  0  0  0  0  0  0  0
   48.2107    5.6360   22.1832 H   0  0  0  0  0  0  0  0  0  0  0  0
   49.0321    5.1440   18.0205 H   0  0  0  0  0  0  0  0  0  0  0  0
   49.0095    4.2069   20.3335 H   0  0  0  0  0  0  0  0  0  0  0  0
   47.2341    4.4835   21.2814 H   0  0  0  0  0  0  0  0  0  0  0  0
   47.8482    5.9460   17.0981 H   0  0  0  0  0  0  0  0  0  0  0  0
   47.7264    9.0888   22.7961 H   0  0  0  0  0  0  0  0  0  0  0  0
   48.3760   11.1734   19.1335 H   0  0  0  0  0  0  0  0  0  0  0  0
   48.1377   11.2154   21.6206 H   0  0  0  0  0  0  0  0  0  0  0  0
   48.3916    4.4864   21.5309 H   0  0  0  0  0  0  0  0  0  0  0  0
   47.6886    6.5087   22.7540 H   0  0  0  0  0  0  0  0  0  0  0  0
   48.2275    7.6781   17.3428 H   0  0  0  0  0  0  0  0  0  0  0  0
   47.1456   10.9636   18.9396 H   0  0  0  0  0  0  0  0  0  0  0  0
   47.0736    8.9507   22.7172 H   0  0  0  0  0  0  0  0  0  0  0  0
   46.7477   11.0326   21.4014 H   0  0  0  0  0  0  0  0  0  0  0  0
  2  1  1  0
  3  2  2  0
  4  1  1  0
  5  2  1  0
  6  4  2  0
  7  6  1  0
  8  4  1  0
  9  5  1  0
 10  1  2  0
 11 12  2  0
 12 10  1  0
 11  3  1  0
  7  5  2  0
 14 13  2  0
 15 13  1  0
 16 14  1  0
 17 15  2  0
 18 17  1  0
 19 13  1  0
 20 14  1  0
 21 16  1  0
 22 17  1  0
 23 15  1  0
 24 19  2  0
 25 23  2  0
 16 18  2  0
 24 25  1  0
 27 26  2  0
 28 26  1  0
 29 27  1  0
 30 27  1  0
 31 28  2  0
 32 31  1  0
 33 26  1  0
 34 28  1  0
 35 29  2  0
 36 30  1  0
 37 36  2  0
 32 30  2  0
 35 37  1  0
  6 38  1  0
  7 39  1  0
  9 40  1  0
 10 41  1  0
 11 42  1  0
 12 43  1  0
 18 44  1  0
 20 45  1  0
 23 46  1  0
 24 47  1  0
 25 48  1  0
 31 49  1  0
 32 50  1  0
 33 51  1  0
 35 52  1  0
 36 53  1  0
 37 54  1  0
M  END
> <Uni-Dock RESULT> 
ENERGY=   -7.430  LOWER_BOUND=    7.150  UPPER_BOUND=    8.849
INTER + INTRA:          -7.430
INTER:                  -7.430
INTRA:                   0.000
UNBOUND:                 0.000

$$$$
