
     RDKit          3D

 54 57  0  0  0  0  0  0  0  0999 V2000
   44.8404    6.7922   12.3301 C   0  0  0  0  0  0  0  0  0  0  0  0
   45.6147    5.6893   12.7437 C   0  0  0  0  0  0  0  0  0  0  0  0
   46.7856    5.8089   13.4067 N   0  0  0  0  0  0  0  0  0  0  0  0
   43.6245    6.5474   11.6391 C   0  0  0  0  0  0  0  0  0  0  0  0
   45.1523    4.4074   12.4560 C   0  0  0  0  0  0  0  0  0  0  0  0
   43.1932    5.2446   11.3685 C   0  0  0  0  0  0  0  0  0  0  0  0
   43.9631    4.1647   11.7801 C   0  0  0  0  0  0  0  0  0  0  0  0
   42.6103    7.8419   11.0942 Cl  0  0  0  0  0  0  0  0  0  0  0  0
   45.8973    3.3222   12.8534 O   0  0  0  0  0  0  0  0  0  0  0  0
   45.3515    8.0709   12.6454 C   0  0  0  0  0  0  0  0  0  0  0  0
   47.2298    7.0535   13.6834 C   0  0  0  0  0  0  0  0  0  0  0  0
   46.5563    8.2040   13.3277 C   0  0  0  0  0  0  0  0  0  0  0  0
   44.6672    6.2881   12.1558 C   0  0  0  0  0  0  0  0  0  0  0  0
   43.8971    5.1372   12.0087 C   0  0  0  0  0  0  0  0  0  0  0  0
   45.8659    6.2193   12.8954 C   0  0  0  0  0  0  0  0  0  0  0  0
   44.2752    3.9187   12.5708 C   0  0  0  0  0  0  0  0  0  0  0  0
   46.2431    4.9759   13.4636 C   0  0  0  0  0  0  0  0  0  0  0  0
   45.4533    3.8363   13.3017 C   0  0  0  0  0  0  0  0  0  0  0  0
   44.2208    7.4230   11.5758 N   0  0  0  0  0  0  0  0  0  0  0  0
   42.7300    5.2331   11.2806 O   0  0  0  0  0  0  0  0  0  0  0  0
   43.3150    2.4990   12.3832 Cl  0  0  0  0  0  0  0  0  0  0  0  0
   47.6983    4.8004   14.3868 Cl  0  0  0  0  0  0  0  0  0  0  0  0
   46.6043    7.4181   13.0102 C   0  0  0  0  0  0  0  0  0  0  0  0
   44.9632    8.5424   11.7147 C   0  0  0  0  0  0  0  0  0  0  0  0
   46.1502    8.5903   12.4153 C   0  0  0  0  0  0  0  0  0  0  0  0
   45.2764    4.4008   12.2864 C   0  0  0  0  0  0  0  0  0  0  0  0
   45.7663    5.6944   12.4511 C   0  0  0  0  0  0  0  0  0  0  0  0
   44.0229    4.1568   11.7228 C   0  0  0  0  0  0  0  0  0  0  0  0
   46.9868    5.8683   13.0028 N   0  0  0  0  0  0  0  0  0  0  0  0
   44.9609    6.7736   12.0314 C   0  0  0  0  0  0  0  0  0  0  0  0
   43.2317    5.2267   11.3102 C   0  0  0  0  0  0  0  0  0  0  0  0
   43.6975    6.5333   11.4632 C   0  0  0  0  0  0  0  0  0  0  0  0
   46.0726    3.3538   12.7003 O   0  0  0  0  0  0  0  0  0  0  0  0
   43.4190    2.5542   11.5203 Cl  0  0  0  0  0  0  0  0  0  0  0  0
   47.4348    7.1352   13.1495 C   0  0  0  0  0  0  0  0  0  0  0  0
   45.4637    8.0699   12.2019 C   0  0  0  0  0  0  0  0  0  0  0  0
   46.7193    8.2554   12.7692 C   0  0  0  0  0  0  0  0  0  0  0  0
   42.2605    5.0683   10.8386 H   0  0  0  0  0  0  0  0  0  0  0  0
   43.6464    3.1453   11.5800 H   0  0  0  0  0  0  0  0  0  0  0  0
   46.6750    3.7208   13.3007 H   0  0  0  0  0  0  0  0  0  0  0  0
   44.8138    8.9725   12.3610 H   0  0  0  0  0  0  0  0  0  0  0  0
   48.1749    7.1014   14.2175 H   0  0  0  0  0  0  0  0  0  0  0  0
   46.9557    9.1817   13.5736 H   0  0  0  0  0  0  0  0  0  0  0  0
   45.7558    2.8902   13.7434 H   0  0  0  0  0  0  0  0  0  0  0  0
   42.6921    6.1729   11.0000 H   0  0  0  0  0  0  0  0  0  0  0  0
   47.5399    7.4482   13.5645 H   0  0  0  0  0  0  0  0  0  0  0  0
   44.5630    9.4292   11.2305 H   0  0  0  0  0  0  0  0  0  0  0  0
   46.7110    9.5148   12.4985 H   0  0  0  0  0  0  0  0  0  0  0  0
   42.2536    5.0498   10.8698 H   0  0  0  0  0  0  0  0  0  0  0  0
   43.0708    7.3607   11.1372 H   0  0  0  0  0  0  0  0  0  0  0  0
   46.8801    3.7875   13.0505 H   0  0  0  0  0  0  0  0  0  0  0  0
   48.4207    7.2287   13.5973 H   0  0  0  0  0  0  0  0  0  0  0  0
   44.8833    8.9366   11.8953 H   0  0  0  0  0  0  0  0  0  0  0  0
   47.1288    9.2494   12.9109 H   0  0  0  0  0  0  0  0  0  0  0  0
  2  1  1  0
  3  2  2  0
  4  1  1  0
  5  2  1  0
  6  4  2  0
  7  6  1  0
  8  4  1  0
  9  5  1  0
 10  1  2  0
 11 12  2  0
 12 10  1  0
 11  3  1  0
  7  5  2  0
 14 13  2  0
 15 13  1  0
 16 14  1  0
 17 15  2  0
 18 17  1  0
 19 13  1  0
 20 14  1  0
 21 16  1  0
 22 17  1  0
 23 15  1  0
 24 19  2  0
 25 23  2  0
 16 18  2  0
 24 25  1  0
 27 26  2  0
 28 26  1  0
 29 27  1  0
 30 27  1  0
 31 28  2  0
 32 31  1  0
 33 26  1  0
 34 28  1  0
 35 29  2  0
 36 30  1  0
 37 36  2  0
 32 30  2  0
 35 37  1  0
  6 38  1  0
  7 39  1  0
  9 40  1  0
 10 41  1  0
 11 42  1  0
 12 43  1  0
 18 44  1  0
 20 45  1  0
 23 46  1  0
 24 47  1  0
 25 48  1  0
 31 49  1  0
 32 50  1  0
 33 51  1  0
 35 52  1  0
 36 53  1  0
 37 54  1  0
M  END
> <Uni-Dock RESULT> 
ENERGY=   -9.319  LOWER_BOUND=    0.000  UPPER_BOUND=    0.000
INTER + INTRA:          -9.319
INTER:                  -9.319
INTRA:                   0.000
UNBOUND:                 0.000

$$$$

     RDKit          3D

 54 57  0  0  0  0  0  0  0  0999 V2000
   45.3030    5.0781   12.8174 C   0  0  0  0  0  0  0  0  0  0  0  0
   44.9506    6.3164   12.2434 C   0  0  0  0  0  0  0  0  0  0  0  0
   43.7847    6.5315   11.5959 N   0  0  0  0  0  0  0  0  0  0  0  0
   46.5565    4.9666   13.4749 C   0  0  0  0  0  0  0  0  0  0  0  0
   45.8482    7.3763   12.3468 C   0  0  0  0  0  0  0  0  0  0  0  0
   47.4317    6.0546   13.5582 C   0  0  0  0  0  0  0  0  0  0  0  0
   47.0753    7.2703   12.9895 C   0  0  0  0  0  0  0  0  0  0  0  0
   47.0713    3.4839   14.2084 Cl  0  0  0  0  0  0  0  0  0  0  0  0
   45.5176    8.5900   11.7915 O   0  0  0  0  0  0  0  0  0  0  0  0
   44.3598    4.0347   12.6862 C   0  0  0  0  0  0  0  0  0  0  0  0
   42.9177    5.5011   11.4982 C   0  0  0  0  0  0  0  0  0  0  0  0
   43.1566    4.2467   12.0211 C   0  0  0  0  0  0  0  0  0  0  0  0
   45.6998    5.4745   12.8196 C   0  0  0  0  0  0  0  0  0  0  0  0
   46.6009    6.4351   13.2719 C   0  0  0  0  0  0  0  0  0  0  0  0
   44.5228    5.8944   12.1661 C   0  0  0  0  0  0  0  0  0  0  0  0
   46.3746    7.7997   13.0984 C   0  0  0  0  0  0  0  0  0  0  0  0
   44.3005    7.2845   11.9938 C   0  0  0  0  0  0  0  0  0  0  0  0
   45.2196    8.2277   12.4566 C   0  0  0  0  0  0  0  0  0  0  0  0
   46.0037    4.1761   13.0327 N   0  0  0  0  0  0  0  0  0  0  0  0
   47.7434    5.9964   13.9073 O   0  0  0  0  0  0  0  0  0  0  0  0
   47.4963    8.9817   13.6619 Cl  0  0  0  0  0  0  0  0  0  0  0  0
   42.8828    7.8890   11.2032 Cl  0  0  0  0  0  0  0  0  0  0  0  0
   43.6473    4.8754   11.7298 C   0  0  0  0  0  0  0  0  0  0  0  0
   45.1339    3.2398   12.5963 C   0  0  0  0  0  0  0  0  0  0  0  0
   43.9543    3.5363   11.9461 C   0  0  0  0  0  0  0  0  0  0  0  0
   45.9201    7.3341   12.1538 C   0  0  0  0  0  0  0  0  0  0  0  0
   45.1014    6.2230   11.9656 C   0  0  0  0  0  0  0  0  0  0  0  0
   47.0922    7.2628   12.9084 C   0  0  0  0  0  0  0  0  0  0  0  0
   43.9792    6.3530   11.2251 N   0  0  0  0  0  0  0  0  0  0  0  0
   45.4826    5.0022   12.5604 C   0  0  0  0  0  0  0  0  0  0  0  0
   47.4638    6.0544   13.4936 C   0  0  0  0  0  0  0  0  0  0  0  0
   46.6623    4.9250   13.3215 C   0  0  0  0  0  0  0  0  0  0  0  0
   45.5373    8.5221   11.5675 O   0  0  0  0  0  0  0  0  0  0  0  0
   48.1039    8.6402   13.1398 Cl  0  0  0  0  0  0  0  0  0  0  0  0
   43.2052    5.2570   11.0605 C   0  0  0  0  0  0  0  0  0  0  0  0
   44.6517    3.8916   12.3644 C   0  0  0  0  0  0  0  0  0  0  0  0
   43.4953    4.0190   11.6033 C   0  0  0  0  0  0  0  0  0  0  0  0
   48.3891    5.9584   14.0640 H   0  0  0  0  0  0  0  0  0  0  0  0
   47.7402    8.1273   13.0428 H   0  0  0  0  0  0  0  0  0  0  0  0
   44.6301    8.4369   11.4009 H   0  0  0  0  0  0  0  0  0  0  0  0
   44.5564    3.0490   13.1015 H   0  0  0  0  0  0  0  0  0  0  0  0
   41.9939    5.7197   10.9696 H   0  0  0  0  0  0  0  0  0  0  0  0
   42.4271    3.4514   11.9159 H   0  0  0  0  0  0  0  0  0  0  0  0
   45.0352    9.2899   12.3170 H   0  0  0  0  0  0  0  0  0  0  0  0
   47.6667    5.0179   13.9025 H   0  0  0  0  0  0  0  0  0  0  0  0
   42.7185    5.1169   11.2176 H   0  0  0  0  0  0  0  0  0  0  0  0
   45.4221    2.2102   12.7909 H   0  0  0  0  0  0  0  0  0  0  0  0
   43.2876    2.7477   11.6144 H   0  0  0  0  0  0  0  0  0  0  0  0
   48.3744    5.9859   14.0837 H   0  0  0  0  0  0  0  0  0  0  0  0
   46.9626    3.9868   13.7832 H   0  0  0  0  0  0  0  0  0  0  0  0
   44.6990    8.3051   11.1060 H   0  0  0  0  0  0  0  0  0  0  0  0
   42.3129    5.4066   10.4582 H   0  0  0  0  0  0  0  0  0  0  0  0
   44.8996    2.9273   12.8010 H   0  0  0  0  0  0  0  0  0  0  0  0
   42.8372    3.1732   11.4382 H   0  0  0  0  0  0  0  0  0  0  0  0
  2  1  1  0
  3  2  2  0
  4  1  1  0
  5  2  1  0
  6  4  2  0
  7  6  1  0
  8  4  1  0
  9  5  1  0
 10  1  2  0
 11 12  2  0
 12 10  1  0
 11  3  1  0
  7  5  2  0
 14 13  2  0
 15 13  1  0
 16 14  1  0
 17 15  2  0
 18 17  1  0
 19 13  1  0
 20 14  1  0
 21 16  1  0
 22 17  1  0
 23 15  1  0
 24 19  2  0
 25 23  2  0
 16 18  2  0
 24 25  1  0
 27 26  2  0
 28 26  1  0
 29 27  1  0
 30 27  1  0
 31 28  2  0
 32 31  1  0
 33 26  1  0
 34 28  1  0
 35 29  2  0
 36 30  1  0
 37 36  2  0
 32 30  2  0
 35 37  1  0
  6 38  1  0
  7 39  1  0
  9 40  1  0
 10 41  1  0
 11 42  1  0
 12 43  1  0
 18 44  1  0
 20 45  1  0
 23 46  1  0
 24 47  1  0
 25 48  1  0
 31 49  1  0
 32 50  1  0
 33 51  1  0
 35 52  1  0
 36 53  1  0
 37 54  1  0
M  END
> <Uni-Dock RESULT> 
ENERGY=   -9.279  LOWER_BOUND=    1.663  UPPER_BOUND=    4.586
INTER + INTRA:          -9.279
INTER:                  -9.279
INTRA:                   0.000
UNBOUND:                 0.000

$$$$

     RDKit          3D

 54 57  0  0  0  0  0  0  0  0999 V2000
   44.5317    6.4399   11.9166 C   0  0  0  0  0  0  0  0  0  0  0  0
   45.4899    5.7679   12.7022 C   0  0  0  0  0  0  0  0  0  0  0  0
   45.4413    4.4434   12.9636 N   0  0  0  0  0  0  0  0  0  0  0  0
   44.6833    7.8361   11.7077 C   0  0  0  0  0  0  0  0  0  0  0  0
   46.5436    6.5036   13.2389 C   0  0  0  0  0  0  0  0  0  0  0  0
   45.7559    8.5410   12.2638 C   0  0  0  0  0  0  0  0  0  0  0  0
   46.6946    7.8698   13.0362 C   0  0  0  0  0  0  0  0  0  0  0  0
   43.5540    8.7424   10.7564 Cl  0  0  0  0  0  0  0  0  0  0  0  0
   47.4857    5.8612   14.0071 O   0  0  0  0  0  0  0  0  0  0  0  0
   43.4828    5.6504   11.3948 C   0  0  0  0  0  0  0  0  0  0  0  0
   44.4180    3.7342   12.4411 C   0  0  0  0  0  0  0  0  0  0  0  0
   43.4243    4.2859   11.6587 C   0  0  0  0  0  0  0  0  0  0  0  0
   44.9148    6.7618   12.1699 C   0  0  0  0  0  0  0  0  0  0  0  0
   45.9945    7.6192   12.3658 C   0  0  0  0  0  0  0  0  0  0  0  0
   45.0563    5.3975   12.4975 C   0  0  0  0  0  0  0  0  0  0  0  0
   47.2116    7.1696   12.8759 C   0  0  0  0  0  0  0  0  0  0  0  0
   46.2977    4.9487   13.0159 C   0  0  0  0  0  0  0  0  0  0  0  0
   47.3651    5.8285   13.2029 C   0  0  0  0  0  0  0  0  0  0  0  0
   43.7755    7.2877   11.6707 N   0  0  0  0  0  0  0  0  0  0  0  0
   45.8284    8.9481   12.0370 O   0  0  0  0  0  0  0  0  0  0  0  0
   48.5428    8.2389   13.1150 Cl  0  0  0  0  0  0  0  0  0  0  0  0
   46.5596    3.2909   13.4448 Cl  0  0  0  0  0  0  0  0  0  0  0  0
   43.9277    4.5770   12.2773 C   0  0  0  0  0  0  0  0  0  0  0  0
   42.7249    6.4614   11.4786 C   0  0  0  0  0  0  0  0  0  0  0  0
   42.7514    5.1122   11.7635 C   0  0  0  0  0  0  0  0  0  0  0  0
   46.4398    6.5193   13.4210 C   0  0  0  0  0  0  0  0  0  0  0  0
   45.3110    5.8393   12.9696 C   0  0  0  0  0  0  0  0  0  0  0  0
   46.6603    7.8624   13.1116 C   0  0  0  0  0  0  0  0  0  0  0  0
   45.1518    4.5396   13.3013 N   0  0  0  0  0  0  0  0  0  0  0  0
   44.3771    6.5425   12.1805 C   0  0  0  0  0  0  0  0  0  0  0  0
   45.7344    8.5519   12.3318 C   0  0  0  0  0  0  0  0  0  0  0  0
   44.5944    7.8955   11.8659 C   0  0  0  0  0  0  0  0  0  0  0  0
   47.3458    5.8215   14.1917 O   0  0  0  0  0  0  0  0  0  0  0  0
   48.0589    8.7016   13.6719 Cl  0  0  0  0  0  0  0  0  0  0  0  0
   44.0464    3.9070   12.8484 C   0  0  0  0  0  0  0  0  0  0  0  0
   43.2458    5.8486   11.7322 C   0  0  0  0  0  0  0  0  0  0  0  0
   43.0762    4.5108   12.0702 C   0  0  0  0  0  0  0  0  0  0  0  0
   45.8626    9.6100   12.0976 H   0  0  0  0  0  0  0  0  0  0  0  0
   47.5348    8.3981   13.4771 H   0  0  0  0  0  0  0  0  0  0  0  0
   47.1860    4.9263   14.0153 H   0  0  0  0  0  0  0  0  0  0  0  0
   42.7038    6.0937   10.7790 H   0  0  0  0  0  0  0  0  0  0  0  0
   44.4195    2.6737   12.6773 H   0  0  0  0  0  0  0  0  0  0  0  0
   42.6228    3.6726   11.2622 H   0  0  0  0  0  0  0  0  0  0  0  0
   48.3106    5.4693   13.6013 H   0  0  0  0  0  0  0  0  0  0  0  0
   44.9055    9.0060   11.7077 H   0  0  0  0  0  0  0  0  0  0  0  0
   43.9561    3.5135   12.5045 H   0  0  0  0  0  0  0  0  0  0  0  0
   41.8314    6.9307   11.0756 H   0  0  0  0  0  0  0  0  0  0  0  0
   41.8804    4.4893   11.5915 H   0  0  0  0  0  0  0  0  0  0  0  0
   45.8947    9.5982   12.0838 H   0  0  0  0  0  0  0  0  0  0  0  0
   43.8784    8.4442   11.2578 H   0  0  0  0  0  0  0  0  0  0  0  0
   46.9632    4.9205   14.2589 H   0  0  0  0  0  0  0  0  0  0  0  0
   43.9586    2.8633   13.1388 H   0  0  0  0  0  0  0  0  0  0  0  0
   42.4953    6.3438   11.1210 H   0  0  0  0  0  0  0  0  0  0  0  0
   42.2085    3.9537   11.7346 H   0  0  0  0  0  0  0  0  0  0  0  0
  2  1  1  0
  3  2  2  0
  4  1  1  0
  5  2  1  0
  6  4  2  0
  7  6  1  0
  8  4  1  0
  9  5  1  0
 10  1  2  0
 11 12  2  0
 12 10  1  0
 11  3  1  0
  7  5  2  0
 14 13  2  0
 15 13  1  0
 16 14  1  0
 17 15  2  0
 18 17  1  0
 19 13  1  0
 20 14  1  0
 21 16  1  0
 22 17  1  0
 23 15  1  0
 24 19  2  0
 25 23  2  0
 16 18  2  0
 24 25  1  0
 27 26  2  0
 28 26  1  0
 29 27  1  0
 30 27  1  0
 31 28  2  0
 32 31  1  0
 33 26  1  0
 34 28  1  0
 35 29  2  0
 36 30  1  0
 37 36  2  0
 32 30  2  0
 35 37  1  0
  6 38  1  0
  7 39  1  0
  9 40  1  0
 10 41  1  0
 11 42  1  0
 12 43  1  0
 18 44  1  0
 20 45  1  0
 23 46  1  0
 24 47  1  0
 25 48  1  0
 31 49  1  0
 32 50  1  0
 33 51  1  0
 35 52  1  0
 36 53  1  0
 37 54  1  0
M  END
> <Uni-Dock RESULT> 
ENERGY=   -9.209  LOWER_BOUND=    1.637  UPPER_BOUND=    3.660
INTER + INTRA:          -9.209
INTER:                  -9.209
INTRA:                   0.000
UNBOUND:                 0.000

$$$$

     RDKit          3D

 54 57  0  0  0  0  0  0  0  0999 V2000
   46.0945    6.4963   12.7332 C   0  0  0  0  0  0  0  0  0  0  0  0
   44.8041    6.7030   12.2048 C   0  0  0  0  0  0  0  0  0  0  0  0
   44.3497    7.9095   11.8014 N   0  0  0  0  0  0  0  0  0  0  0  0
   46.4654    5.1831   13.1254 C   0  0  0  0  0  0  0  0  0  0  0  0
   43.9496    5.6092   12.0907 C   0  0  0  0  0  0  0  0  0  0  0  0
   45.5787    4.1092   12.9953 C   0  0  0  0  0  0  0  0  0  0  0  0
   44.3097    4.3231   12.4736 C   0  0  0  0  0  0  0  0  0  0  0  0
   48.0299    4.8373   13.7842 Cl  0  0  0  0  0  0  0  0  0  0  0  0
   42.6880    5.7960   11.5770 O   0  0  0  0  0  0  0  0  0  0  0  0
   46.9233    7.6364   12.8285 C   0  0  0  0  0  0  0  0  0  0  0  0
   45.1816    8.9670   11.9138 C   0  0  0  0  0  0  0  0  0  0  0  0
   46.4641    8.8828   12.4158 C   0  0  0  0  0  0  0  0  0  0  0  0
   45.7469    6.0565   12.7483 C   0  0  0  0  0  0  0  0  0  0  0  0
   45.1834    4.8119   12.4786 C   0  0  0  0  0  0  0  0  0  0  0  0
   45.1289    7.2138   12.2310 C   0  0  0  0  0  0  0  0  0  0  0  0
   44.0267    4.6751   11.7126 C   0  0  0  0  0  0  0  0  0  0  0  0
   43.9526    7.0656   11.4528 C   0  0  0  0  0  0  0  0  0  0  0  0
   43.4075    5.8063   11.1968 C   0  0  0  0  0  0  0  0  0  0  0  0
   46.8684    6.0907   13.4996 N   0  0  0  0  0  0  0  0  0  0  0  0
   45.8083    3.6972   12.9969 O   0  0  0  0  0  0  0  0  0  0  0  0
   43.3365    3.1297   11.3842 Cl  0  0  0  0  0  0  0  0  0  0  0  0
   43.1285    8.4319   10.7785 Cl  0  0  0  0  0  0  0  0  0  0  0  0
   45.7457    8.4471   12.5375 C   0  0  0  0  0  0  0  0  0  0  0  0
   47.4196    7.2947   13.7646 C   0  0  0  0  0  0  0  0  0  0  0  0
   46.9008    8.4893   13.3108 C   0  0  0  0  0  0  0  0  0  0  0  0
   43.8580    5.6619   12.2725 C   0  0  0  0  0  0  0  0  0  0  0  0
   44.6934    6.7506   12.5116 C   0  0  0  0  0  0  0  0  0  0  0  0
   44.2643    4.3529   12.5366 C   0  0  0  0  0  0  0  0  0  0  0  0
   44.2448    7.9946   12.2360 N   0  0  0  0  0  0  0  0  0  0  0  0
   45.9800    6.5049   13.0347 C   0  0  0  0  0  0  0  0  0  0  0  0
   45.5363    4.1161   13.0532 C   0  0  0  0  0  0  0  0  0  0  0  0
   46.3942    5.1883   13.3025 C   0  0  0  0  0  0  0  0  0  0  0  0
   42.6025    5.9145   11.7610 O   0  0  0  0  0  0  0  0  0  0  0  0
   43.2279    3.0069   12.2395 Cl  0  0  0  0  0  0  0  0  0  0  0  0
   45.0784    9.0307   12.4787 C   0  0  0  0  0  0  0  0  0  0  0  0
   46.8113    7.6072   13.2711 C   0  0  0  0  0  0  0  0  0  0  0  0
   46.3554    8.8900   12.9896 C   0  0  0  0  0  0  0  0  0  0  0  0
   45.8728    3.1076   13.2987 H   0  0  0  0  0  0  0  0  0  0  0  0
   43.6060    3.5032   12.3642 H   0  0  0  0  0  0  0  0  0  0  0  0
   42.6534    6.7570   11.3796 H   0  0  0  0  0  0  0  0  0  0  0  0
   47.9330    7.5607   13.2255 H   0  0  0  0  0  0  0  0  0  0  0  0
   44.7741    9.9165   11.5775 H   0  0  0  0  0  0  0  0  0  0  0  0
   47.0937    9.7629   12.4855 H   0  0  0  0  0  0  0  0  0  0  0  0
   42.5051    5.7089   10.5984 H   0  0  0  0  0  0  0  0  0  0  0  0
   46.5814    4.0540   13.4853 H   0  0  0  0  0  0  0  0  0  0  0  0
   45.3307    9.3855   12.1760 H   0  0  0  0  0  0  0  0  0  0  0  0
   48.3201    7.2706   14.3725 H   0  0  0  0  0  0  0  0  0  0  0  0
   47.3806    9.4319   13.5507 H   0  0  0  0  0  0  0  0  0  0  0  0
   45.8647    3.1013   13.2633 H   0  0  0  0  0  0  0  0  0  0  0  0
   47.3852    4.9911   13.7060 H   0  0  0  0  0  0  0  0  0  0  0  0
   42.5702    6.8908   11.6698 H   0  0  0  0  0  0  0  0  0  0  0  0
   44.6772   10.0128   12.2429 H   0  0  0  0  0  0  0  0  0  0  0  0
   47.8124    7.4730   13.6735 H   0  0  0  0  0  0  0  0  0  0  0  0
   46.9813    9.7581   13.1646 H   0  0  0  0  0  0  0  0  0  0  0  0
  2  1  1  0
  3  2  2  0
  4  1  1  0
  5  2  1  0
  6  4  2  0
  7  6  1  0
  8  4  1  0
  9  5  1  0
 10  1  2  0
 11 12  2  0
 12 10  1  0
 11  3  1  0
  7  5  2  0
 14 13  2  0
 15 13  1  0
 16 14  1  0
 17 15  2  0
 18 17  1  0
 19 13  1  0
 20 14  1  0
 21 16  1  0
 22 17  1  0
 23 15  1  0
 24 19  2  0
 25 23  2  0
 16 18  2  0
 24 25  1  0
 27 26  2  0
 28 26  1  0
 29 27  1  0
 30 27  1  0
 31 28  2  0
 32 31  1  0
 33 26  1  0
 34 28  1  0
 35 29  2  0
 36 30  1  0
 37 36  2  0
 32 30  2  0
 35 37  1  0
  6 38  1  0
  7 39  1  0
  9 40  1  0
 10 41  1  0
 11 42  1  0
 12 43  1  0
 18 44  1  0
 20 45  1  0
 23 46  1  0
 24 47  1  0
 25 48  1  0
 31 49  1  0
 32 50  1  0
 33 51  1  0
 35 52  1  0
 36 53  1  0
 37 54  1  0
M  END
> <Uni-Dock RESULT> 
ENERGY=   -9.014  LOWER_BOUND=    0.527  UPPER_BOUND=    2.949
INTER + INTRA:          -9.014
INTER:                  -9.014
INTRA:                   0.000
UNBOUND:                 0.000

$$$$

     RDKit          3D

 54 57  0  0  0  0  0  0  0  0999 V2000
   46.1003    6.4841   12.7390 C   0  0  0  0  0  0  0  0  0  0  0  0
   44.8113    6.6939   12.2084 C   0  0  0  0  0  0  0  0  0  0  0  0
   44.3603    7.9015   11.8047 N   0  0  0  0  0  0  0  0  0  0  0  0
   46.4676    5.1698   13.1313 C   0  0  0  0  0  0  0  0  0  0  0  0
   43.9546    5.6019   12.0923 C   0  0  0  0  0  0  0  0  0  0  0  0
   45.5787    4.0980   12.9992 C   0  0  0  0  0  0  0  0  0  0  0  0
   44.3111    4.3149   12.4753 C   0  0  0  0  0  0  0  0  0  0  0  0
   48.0301    4.8202   13.7928 Cl  0  0  0  0  0  0  0  0  0  0  0  0
   42.6943    5.7918   11.5765 O   0  0  0  0  0  0  0  0  0  0  0  0
   46.9315    7.6222   12.8363 C   0  0  0  0  0  0  0  0  0  0  0  0
   45.1944    8.9571   11.9190 C   0  0  0  0  0  0  0  0  0  0  0  0
   46.4759    8.8698   12.4232 C   0  0  0  0  0  0  0  0  0  0  0  0
   45.7517    6.0450   12.7533 C   0  0  0  0  0  0  0  0  0  0  0  0
   45.1859    4.8017   12.4821 C   0  0  0  0  0  0  0  0  0  0  0  0
   45.1372    7.2039   12.2354 C   0  0  0  0  0  0  0  0  0  0  0  0
   44.0303    4.6679   11.7139 C   0  0  0  0  0  0  0  0  0  0  0  0
   43.9620    7.0586   11.4550 C   0  0  0  0  0  0  0  0  0  0  0  0
   43.4145    5.8007   11.1975 C   0  0  0  0  0  0  0  0  0  0  0  0
   46.8720    6.0763   13.5066 N   0  0  0  0  0  0  0  0  0  0  0  0
   45.8074    3.6855   13.0010 O   0  0  0  0  0  0  0  0  0  0  0  0
   43.3372    3.1241   11.3837 Cl  0  0  0  0  0  0  0  0  0  0  0  0
   43.1422    8.4271   10.7798 Cl  0  0  0  0  0  0  0  0  0  0  0  0
   45.7562    8.4357   12.5435 C   0  0  0  0  0  0  0  0  0  0  0  0
   47.4253    7.2790   13.7731 C   0  0  0  0  0  0  0  0  0  0  0  0
   46.9101    8.4750   13.3188 C   0  0  0  0  0  0  0  0  0  0  0  0
   43.8628    5.6548   12.2739 C   0  0  0  0  0  0  0  0  0  0  0  0
   44.7002    6.7416   12.5150 C   0  0  0  0  0  0  0  0  0  0  0  0
   44.2657    4.3448   12.5383 C   0  0  0  0  0  0  0  0  0  0  0  0
   44.2549    7.9866   12.2392 N   0  0  0  0  0  0  0  0  0  0  0  0
   45.9853    6.4927   13.0403 C   0  0  0  0  0  0  0  0  0  0  0  0
   45.5363    4.1050   13.0571 C   0  0  0  0  0  0  0  0  0  0  0  0
   46.3961    5.1751   13.3083 C   0  0  0  0  0  0  0  0  0  0  0  0
   42.6088    5.9104   11.7603 O   0  0  0  0  0  0  0  0  0  0  0  0
   43.2268    3.0013   12.2387 Cl  0  0  0  0  0  0  0  0  0  0  0  0
   45.0904    9.0207   12.4838 C   0  0  0  0  0  0  0  0  0  0  0  0
   46.8187    7.5931   13.2787 C   0  0  0  0  0  0  0  0  0  0  0  0
   46.3661    8.8771   12.9969 C   0  0  0  0  0  0  0  0  0  0  0  0
   45.8700    3.0955   13.3027 H   0  0  0  0  0  0  0  0  0  0  0  0
   43.6058    3.4966   12.3644 H   0  0  0  0  0  0  0  0  0  0  0  0
   42.6623    6.7530   11.3794 H   0  0  0  0  0  0  0  0  0  0  0  0
   47.9403    7.5441   13.2350 H   0  0  0  0  0  0  0  0  0  0  0  0
   44.7896    9.9076   11.5824 H   0  0  0  0  0  0  0  0  0  0  0  0
   47.1073    9.7485   12.4944 H   0  0  0  0  0  0  0  0  0  0  0  0
   42.5130    5.7055   10.5975 H   0  0  0  0  0  0  0  0  0  0  0  0
   46.5804    4.0403   13.4909 H   0  0  0  0  0  0  0  0  0  0  0  0
   45.3440    9.3751   12.1816 H   0  0  0  0  0  0  0  0  0  0  0  0
   48.3247    7.2526   14.3826 H   0  0  0  0  0  0  0  0  0  0  0  0
   47.3916    9.4164   13.5600 H   0  0  0  0  0  0  0  0  0  0  0  0
   45.8620    3.0893   13.2672 H   0  0  0  0  0  0  0  0  0  0  0  0
   47.3859    4.9756   13.7135 H   0  0  0  0  0  0  0  0  0  0  0  0
   42.5788    6.8869   11.6695 H   0  0  0  0  0  0  0  0  0  0  0  0
   44.6918   10.0039   12.2476 H   0  0  0  0  0  0  0  0  0  0  0  0
   47.8187    7.4565   13.6828 H   0  0  0  0  0  0  0  0  0  0  0  0
   46.9937    9.7437   13.1733 H   0  0  0  0  0  0  0  0  0  0  0  0
  2  1  1  0
  3  2  2  0
  4  1  1  0
  5  2  1  0
  6  4  2  0
  7  6  1  0
  8  4  1  0
  9  5  1  0
 10  1  2  0
 11 12  2  0
 12 10  1  0
 11  3  1  0
  7  5  2  0
 14 13  2  0
 15 13  1  0
 16 14  1  0
 17 15  2  0
 18 17  1  0
 19 13  1  0
 20 14  1  0
 21 16  1  0
 22 17  1  0
 23 15  1  0
 24 19  2  0
 25 23  2  0
 16 18  2  0
 24 25  1  0
 27 26  2  0
 28 26  1  0
 29 27  1  0
 30 27  1  0
 31 28  2  0
 32 31  1  0
 33 26  1  0
 34 28  1  0
 35 29  2  0
 36 30  1  0
 37 36  2  0
 32 30  2  0
 35 37  1  0
  6 38  1  0
  7 39  1  0
  9 40  1  0
 10 41  1  0
 11 42  1  0
 12 43  1  0
 18 44  1  0
 20 45  1  0
 23 46  1  0
 24 47  1  0
 25 48  1  0
 31 49  1  0
 32 50  1  0
 33 51  1  0
 35 52  1  0
 36 53  1  0
 37 54  1  0
M  END
> <Uni-Dock RESULT> 
ENERGY=   -9.008  LOWER_BOUND=    0.523  UPPER_BOUND=    2.948
INTER + INTRA:          -9.008
INTER:                  -9.008
INTRA:                   0.000
UNBOUND:                 0.000

$$$$

     RDKit          3D

 54 57  0  0  0  0  0  0  0  0999 V2000
   44.2667    3.7791   11.2396 C   0  0  0  0  0  0  0  0  0  0  0  0
   44.9005    4.7853   10.4827 C   0  0  0  0  0  0  0  0  0  0  0  0
   45.1492    6.0262   10.9549 N   0  0  0  0  0  0  0  0  0  0  0  0
   44.0563    2.5093   10.6401 C   0  0  0  0  0  0  0  0  0  0  0  0
   45.2925    4.4891    9.1795 C   0  0  0  0  0  0  0  0  0  0  0  0
   44.4645    2.2498    9.3277 C   0  0  0  0  0  0  0  0  0  0  0  0
   45.0880    3.2476    8.5903 C   0  0  0  0  0  0  0  0  0  0  0  0
   43.2858    1.2148   11.4958 Cl  0  0  0  0  0  0  0  0  0  0  0  0
   45.9118    5.4609    8.4295 O   0  0  0  0  0  0  0  0  0  0  0  0
   43.8884    4.1282   12.5552 C   0  0  0  0  0  0  0  0  0  0  0  0
   44.7674    6.3088   12.2188 C   0  0  0  0  0  0  0  0  0  0  0  0
   44.1402    5.4035   13.0501 C   0  0  0  0  0  0  0  0  0  0  0  0
   44.3651    3.6592   10.7007 C   0  0  0  0  0  0  0  0  0  0  0  0
   44.9005    3.0707    9.5577 C   0  0  0  0  0  0  0  0  0  0  0  0
   44.7526    4.9721   11.0398 C   0  0  0  0  0  0  0  0  0  0  0  0
   45.8082    3.7402    8.7383 C   0  0  0  0  0  0  0  0  0  0  0  0
   45.6763    5.6458   10.2007 C   0  0  0  0  0  0  0  0  0  0  0  0
   46.1987    5.0337    9.0601 C   0  0  0  0  0  0  0  0  0  0  0  0
   43.4929    2.9336   11.4330 N   0  0  0  0  0  0  0  0  0  0  0  0
   44.5042    1.7863    9.2499 O   0  0  0  0  0  0  0  0  0  0  0  0
   46.4656    3.0032    7.3250 Cl  0  0  0  0  0  0  0  0  0  0  0  0
   46.2071    7.2592   10.5412 Cl  0  0  0  0  0  0  0  0  0  0  0  0
   44.1768    5.5160   12.2094 C   0  0  0  0  0  0  0  0  0  0  0  0
   42.9702    3.4988   12.5425 C   0  0  0  0  0  0  0  0  0  0  0  0
   43.2778    4.7741   12.9681 C   0  0  0  0  0  0  0  0  0  0  0  0
   45.1165    4.5779    9.1065 C   0  0  0  0  0  0  0  0  0  0  0  0
   44.6051    4.8754   10.3676 C   0  0  0  0  0  0  0  0  0  0  0  0
   45.0267    3.2959    8.5616 C   0  0  0  0  0  0  0  0  0  0  0  0
   44.7218    6.1346   10.8423 N   0  0  0  0  0  0  0  0  0  0  0  0
   43.9834    3.8417   11.0986 C   0  0  0  0  0  0  0  0  0  0  0  0
   44.4115    2.2788    9.2883 C   0  0  0  0  0  0  0  0  0  0  0  0
   43.8903    2.5487   10.5544 C   0  0  0  0  0  0  0  0  0  0  0  0
   45.7221    5.5964    8.4011 O   0  0  0  0  0  0  0  0  0  0  0  0
   45.6609    2.9305    7.0001 Cl  0  0  0  0  0  0  0  0  0  0  0  0
   44.2157    6.3923   12.0690 C   0  0  0  0  0  0  0  0  0  0  0  0
   43.4728    4.1524   12.3655 C   0  0  0  0  0  0  0  0  0  0  0  0
   43.5897    5.4466   12.8597 C   0  0  0  0  0  0  0  0  0  0  0  0
   44.2986    1.2740    8.8782 H   0  0  0  0  0  0  0  0  0  0  0  0
   45.4127    3.0670    7.5697 H   0  0  0  0  0  0  0  0  0  0  0  0
   45.9505    6.2351    9.0319 H   0  0  0  0  0  0  0  0  0  0  0  0
   43.3944    3.4081   13.2035 H   0  0  0  0  0  0  0  0  0  0  0  0
   44.9875    7.3180   12.5559 H   0  0  0  0  0  0  0  0  0  0  0  0
   43.8532    5.6798   14.0586 H   0  0  0  0  0  0  0  0  0  0  0  0
   46.9060    5.5631    8.4267 H   0  0  0  0  0  0  0  0  0  0  0  0
   43.8769    1.5449    9.9651 H   0  0  0  0  0  0  0  0  0  0  0  0
   44.4242    6.5228   12.5389 H   0  0  0  0  0  0  0  0  0  0  0  0
   42.2739    2.8762   13.0980 H   0  0  0  0  0  0  0  0  0  0  0  0
   42.8312    5.1842   13.8673 H   0  0  0  0  0  0  0  0  0  0  0  0
   44.3352    1.2762    8.8750 H   0  0  0  0  0  0  0  0  0  0  0  0
   43.4122    1.7465   11.1125 H   0  0  0  0  0  0  0  0  0  0  0  0
   45.6538    6.3752    8.9940 H   0  0  0  0  0  0  0  0  0  0  0  0
   44.3312    7.4174   12.4115 H   0  0  0  0  0  0  0  0  0  0  0  0
   42.9842    3.3924   12.9702 H   0  0  0  0  0  0  0  0  0  0  0  0
   43.2020    5.7101   13.8375 H   0  0  0  0  0  0  0  0  0  0  0  0
  2  1  1  0
  3  2  2  0
  4  1  1  0
  5  2  1  0
  6  4  2  0
  7  6  1  0
  8  4  1  0
  9  5  1  0
 10  1  2  0
 11 12  2  0
 12 10  1  0
 11  3  1  0
  7  5  2  0
 14 13  2  0
 15 13  1  0
 16 14  1  0
 17 15  2  0
 18 17  1  0
 19 13  1  0
 20 14  1  0
 21 16  1  0
 22 17  1  0
 23 15  1  0
 24 19  2  0
 25 23  2  0
 16 18  2  0
 24 25  1  0
 27 26  2  0
 28 26  1  0
 29 27  1  0
 30 27  1  0
 31 28  2  0
 32 31  1  0
 33 26  1  0
 34 28  1  0
 35 29  2  0
 36 30  1  0
 37 36  2  0
 32 30  2  0
 35 37  1  0
  6 38  1  0
  7 39  1  0
  9 40  1  0
 10 41  1  0
 11 42  1  0
 12 43  1  0
 18 44  1  0
 20 45  1  0
 23 46  1  0
 24 47  1  0
 25 48  1  0
 31 49  1  0
 32 50  1  0
 33 51  1  0
 35 52  1  0
 36 53  1  0
 37 54  1  0
M  END
> <Uni-Dock RESULT> 
ENERGY=   -8.522  LOWER_BOUND=    2.679  UPPER_BOUND=    4.043
INTER + INTRA:          -8.522
INTER:                  -8.522
INTRA:                   0.000
UNBOUND:                 0.000

$$$$

     RDKit          3D

 54 57  0  0  0  0  0  0  0  0999 V2000
   45.4458    6.0853   12.3867 C   0  0  0  0  0  0  0  0  0  0  0  0
   46.3985    6.8907   13.0429 C   0  0  0  0  0  0  0  0  0  0  0  0
   47.4109    6.3911   13.7848 N   0  0  0  0  0  0  0  0  0  0  0  0
   44.4234    6.7200   11.6333 C   0  0  0  0  0  0  0  0  0  0  0  0
   46.2947    8.2744   12.9229 C   0  0  0  0  0  0  0  0  0  0  0  0
   44.3522    8.1136   11.5363 C   0  0  0  0  0  0  0  0  0  0  0  0
   45.2955    8.8983   12.1864 C   0  0  0  0  0  0  0  0  0  0  0  0
   43.2114    5.8093   10.7948 Cl  0  0  0  0  0  0  0  0  0  0  0  0
   47.2171    9.0724   13.5576 O   0  0  0  0  0  0  0  0  0  0  0  0
   45.5938    4.6886   12.5387 C   0  0  0  0  0  0  0  0  0  0  0  0
   47.5076    5.0492   13.8982 C   0  0  0  0  0  0  0  0  0  0  0  0
   46.6330    4.1649   13.3006 C   0  0  0  0  0  0  0  0  0  0  0  0
   45.3542    6.6384   12.3737 C   0  0  0  0  0  0  0  0  0  0  0  0
   45.2206    7.9416   11.9012 C   0  0  0  0  0  0  0  0  0  0  0  0
   46.4938    6.2990   13.1319 C   0  0  0  0  0  0  0  0  0  0  0  0
   46.1796    8.9211   12.1549 C   0  0  0  0  0  0  0  0  0  0  0  0
   47.4643    7.3016   13.3854 C   0  0  0  0  0  0  0  0  0  0  0  0
   47.3070    8.6010   12.9003 C   0  0  0  0  0  0  0  0  0  0  0  0
   44.3743    5.7577   12.0778 N   0  0  0  0  0  0  0  0  0  0  0  0
   44.0966    8.2458   11.1626 O   0  0  0  0  0  0  0  0  0  0  0  0
   46.0053   10.5320   11.5656 Cl  0  0  0  0  0  0  0  0  0  0  0  0
   48.8939    6.9731   14.3068 Cl  0  0  0  0  0  0  0  0  0  0  0  0
   46.5742    4.9631   13.5838 C   0  0  0  0  0  0  0  0  0  0  0  0
   44.4980    4.4924   12.5332 C   0  0  0  0  0  0  0  0  0  0  0  0
   45.5684    4.0510   13.2826 C   0  0  0  0  0  0  0  0  0  0  0  0
   46.1950    8.2828   13.1078 C   0  0  0  0  0  0  0  0  0  0  0  0
   46.1978    6.9038   13.3040 C   0  0  0  0  0  0  0  0  0  0  0  0
   45.2704    8.9025   12.2655 C   0  0  0  0  0  0  0  0  0  0  0  0
   47.1173    6.3608   14.1312 N   0  0  0  0  0  0  0  0  0  0  0  0
   45.2337    6.1292   12.6259 C   0  0  0  0  0  0  0  0  0  0  0  0
   44.3203    8.1325   11.5982 C   0  0  0  0  0  0  0  0  0  0  0  0
   44.3001    6.7484   11.7763 C   0  0  0  0  0  0  0  0  0  0  0  0
   47.1422    9.0297   13.7761 O   0  0  0  0  0  0  0  0  0  0  0  0
   45.2693   10.6101   12.0245 Cl  0  0  0  0  0  0  0  0  0  0  0  0
   47.0948    5.0200   14.3014 C   0  0  0  0  0  0  0  0  0  0  0  0
   45.2460    4.7435   12.8308 C   0  0  0  0  0  0  0  0  0  0  0  0
   46.1899    4.1787   13.6810 C   0  0  0  0  0  0  0  0  0  0  0  0
   43.5652    8.5895   10.9567 H   0  0  0  0  0  0  0  0  0  0  0  0
   45.2583    9.9819   12.1240 H   0  0  0  0  0  0  0  0  0  0  0  0
   47.8132    8.4338   14.0056 H   0  0  0  0  0  0  0  0  0  0  0  0
   44.8997    3.9989   12.0640 H   0  0  0  0  0  0  0  0  0  0  0  0
   48.3363    4.6926   14.5038 H   0  0  0  0  0  0  0  0  0  0  0  0
   46.7538    3.0942   13.4224 H   0  0  0  0  0  0  0  0  0  0  0  0
   48.0598    9.3587   13.1029 H   0  0  0  0  0  0  0  0  0  0  0  0
   43.5912    7.4050   11.1272 H   0  0  0  0  0  0  0  0  0  0  0  0
   47.4217    4.6222   14.1746 H   0  0  0  0  0  0  0  0  0  0  0  0
   43.6848    3.8214   12.2696 H   0  0  0  0  0  0  0  0  0  0  0  0
   45.6223    3.0236   13.6257 H   0  0  0  0  0  0  0  0  0  0  0  0
   43.5948    8.6031   10.9395 H   0  0  0  0  0  0  0  0  0  0  0  0
   43.5536    6.1574   11.2500 H   0  0  0  0  0  0  0  0  0  0  0  0
   47.6551    8.3682   14.2879 H   0  0  0  0  0  0  0  0  0  0  0  0
   47.8515    4.6259   14.9748 H   0  0  0  0  0  0  0  0  0  0  0  0
   44.5246    4.1009   12.3322 H   0  0  0  0  0  0  0  0  0  0  0  0
   46.2184    3.1087   13.8547 H   0  0  0  0  0  0  0  0  0  0  0  0
  2  1  1  0
  3  2  2  0
  4  1  1  0
  5  2  1  0
  6  4  2  0
  7  6  1  0
  8  4  1  0
  9  5  1  0
 10  1  2  0
 11 12  2  0
 12 10  1  0
 11  3  1  0
  7  5  2  0
 14 13  2  0
 15 13  1  0
 16 14  1  0
 17 15  2  0
 18 17  1  0
 19 13  1  0
 20 14  1  0
 21 16  1  0
 22 17  1  0
 23 15  1  0
 24 19  2  0
 25 23  2  0
 16 18  2  0
 24 25  1  0
 27 26  2  0
 28 26  1  0
 29 27  1  0
 30 27  1  0
 31 28  2  0
 32 31  1  0
 33 26  1  0
 34 28  1  0
 35 29  2  0
 36 30  1  0
 37 36  2  0
 32 30  2  0
 35 37  1  0
  6 38  1  0
  7 39  1  0
  9 40  1  0
 10 41  1  0
 11 42  1  0
 12 43  1  0
 18 44  1  0
 20 45  1  0
 23 46  1  0
 24 47  1  0
 25 48  1  0
 31 49  1  0
 32 50  1  0
 33 51  1  0
 35 52  1  0
 36 53  1  0
 37 54  1  0
M  END
> <Uni-Dock RESULT> 
ENERGY=   -8.405  LOWER_BOUND=    1.965  UPPER_BOUND=    3.791
INTER + INTRA:          -8.405
INTER:                  -8.405
INTRA:                   0.000
UNBOUND:                 0.000

$$$$

     RDKit          3D

 54 57  0  0  0  0  0  0  0  0999 V2000
   49.6961    3.3011   17.8078 C   0  0  0  0  0  0  0  0  0  0  0  0
   49.5505    4.5588   18.4274 C   0  0  0  0  0  0  0  0  0  0  0  0
   48.3657    5.1966   18.5470 N   0  0  0  0  0  0  0  0  0  0  0  0
   50.9916    2.7241   17.7387 C   0  0  0  0  0  0  0  0  0  0  0  0
   50.6845    5.1801   18.9447 C   0  0  0  0  0  0  0  0  0  0  0  0
   52.1072    3.3793   18.2702 C   0  0  0  0  0  0  0  0  0  0  0  0
   51.9533    4.6180   18.8786 C   0  0  0  0  0  0  0  0  0  0  0  0
   51.2634    1.1827   16.9959 Cl  0  0  0  0  0  0  0  0  0  0  0  0
   50.5574    6.4072   19.5518 O   0  0  0  0  0  0  0  0  0  0  0  0
   48.5171    2.7120   17.2993 C   0  0  0  0  0  0  0  0  0  0  0  0
   47.2691    4.5904   18.0441 C   0  0  0  0  0  0  0  0  0  0  0  0
   47.2927    3.3612   17.4177 C   0  0  0  0  0  0  0  0  0  0  0  0
   50.1704    3.5599   17.9582 C   0  0  0  0  0  0  0  0  0  0  0  0
   51.3563    3.8552   18.6259 C   0  0  0  0  0  0  0  0  0  0  0  0
   49.0248    4.3391   18.2215 C   0  0  0  0  0  0  0  0  0  0  0  0
   51.4453    4.8978   19.5471 C   0  0  0  0  0  0  0  0  0  0  0  0
   49.1242    5.3978   19.1598 C   0  0  0  0  0  0  0  0  0  0  0  0
   50.3250    5.6734   19.8161 C   0  0  0  0  0  0  0  0  0  0  0  0
   50.1794    2.5312   17.0835 N   0  0  0  0  0  0  0  0  0  0  0  0
   52.4608    3.0774   18.3493 O   0  0  0  0  0  0  0  0  0  0  0  0
   52.9182    5.2558   20.3688 Cl  0  0  0  0  0  0  0  0  0  0  0  0
   47.7681    6.4048   19.5439 Cl  0  0  0  0  0  0  0  0  0  0  0  0
   47.8519    3.9926   17.5146 C   0  0  0  0  0  0  0  0  0  0  0  0
   49.0325    2.2400   16.4328 C   0  0  0  0  0  0  0  0  0  0  0  0
   47.8544    2.9343   16.6123 C   0  0  0  0  0  0  0  0  0  0  0  0
   50.7016    5.2949   18.7693 C   0  0  0  0  0  0  0  0  0  0  0  0
   49.6115    4.7017   18.1367 C   0  0  0  0  0  0  0  0  0  0  0  0
   51.9505    4.6733   18.8165 C   0  0  0  0  0  0  0  0  0  0  0  0
   48.4274    5.3514   18.1235 N   0  0  0  0  0  0  0  0  0  0  0  0
   49.7931    3.4398   17.5332 C   0  0  0  0  0  0  0  0  0  0  0  0
   52.1241    3.4269   18.2187 C   0  0  0  0  0  0  0  0  0  0  0  0
   51.0491    2.8094   17.5779 C   0  0  0  0  0  0  0  0  0  0  0  0
   50.5120    6.5285   19.3557 O   0  0  0  0  0  0  0  0  0  0  0  0
   53.2982    5.4101   19.6006 Cl  0  0  0  0  0  0  0  0  0  0  0  0
   47.3883    4.7503   17.5018 C   0  0  0  0  0  0  0  0  0  0  0  0
   48.6901    2.8529   16.8999 C   0  0  0  0  0  0  0  0  0  0  0  0
   47.4686    3.5166   16.8829 C   0  0  0  0  0  0  0  0  0  0  0  0
   53.0948    2.9286   18.2120 H   0  0  0  0  0  0  0  0  0  0  0  0
   52.8064    5.1437   19.2976 H   0  0  0  0  0  0  0  0  0  0  0  0
   49.5981    6.6052   19.4855 H   0  0  0  0  0  0  0  0  0  0  0  0
   48.5451    1.7426   16.8070 H   0  0  0  0  0  0  0  0  0  0  0  0
   46.3391    5.1396   18.1629 H   0  0  0  0  0  0  0  0  0  0  0  0
   46.3829    2.9162   17.0302 H   0  0  0  0  0  0  0  0  0  0  0  0
   50.3855    6.4885   20.5329 H   0  0  0  0  0  0  0  0  0  0  0  0
   52.1438    2.4284   17.6846 H   0  0  0  0  0  0  0  0  0  0  0  0
   46.9262    4.5449   17.6614 H   0  0  0  0  0  0  0  0  0  0  0  0
   49.0898    1.4047   15.7400 H   0  0  0  0  0  0  0  0  0  0  0  0
   46.9583    2.6617   16.0655 H   0  0  0  0  0  0  0  0  0  0  0  0
   53.0918    2.9324   18.2485 H   0  0  0  0  0  0  0  0  0  0  0  0
   51.1965    1.8361   17.1146 H   0  0  0  0  0  0  0  0  0  0  0  0
   49.5686    6.7359   19.1836 H   0  0  0  0  0  0  0  0  0  0  0  0
   46.4555    5.3079   17.5152 H   0  0  0  0  0  0  0  0  0  0  0  0
   48.7762    1.8814   16.4194 H   0  0  0  0  0  0  0  0  0  0  0  0
   46.6013    3.0817   16.3988 H   0  0  0  0  0  0  0  0  0  0  0  0
  2  1  1  0
  3  2  2  0
  4  1  1  0
  5  2  1  0
  6  4  2  0
  7  6  1  0
  8  4  1  0
  9  5  1  0
 10  1  2  0
 11 12  2  0
 12 10  1  0
 11  3  1  0
  7  5  2  0
 14 13  2  0
 15 13  1  0
 16 14  1  0
 17 15  2  0
 18 17  1  0
 19 13  1  0
 20 14  1  0
 21 16  1  0
 22 17  1  0
 23 15  1  0
 24 19  2  0
 25 23  2  0
 16 18  2  0
 24 25  1  0
 27 26  2  0
 28 26  1  0
 29 27  1  0
 30 27  1  0
 31 28  2  0
 32 31  1  0
 33 26  1  0
 34 28  1  0
 35 29  2  0
 36 30  1  0
 37 36  2  0
 32 30  2  0
 35 37  1  0
  6 38  1  0
  7 39  1  0
  9 40  1  0
 10 41  1  0
 11 42  1  0
 12 43  1  0
 18 44  1  0
 20 45  1  0
 23 46  1  0
 24 47  1  0
 25 48  1  0
 31 49  1  0
 32 50  1  0
 33 51  1  0
 35 52  1  0
 36 53  1  0
 37 54  1  0
M  END
> <Uni-Dock RESULT> 
ENERGY=   -7.598  LOWER_BOUND=    6.674  UPPER_BOUND=    8.821
INTER + INTRA:          -7.598
INTER:                  -7.598
INTRA:                   0.000
UNBOUND:                 0.000

$$$$

     RDKit          3D

 54 57  0  0  0  0  0  0  0  0999 V2000
   48.1181    6.9551   20.1671 C   0  0  0  0  0  0  0  0  0  0  0  0
   47.7774    7.4418   21.4454 C   0  0  0  0  0  0  0  0  0  0  0  0
   47.8960    6.7115   22.5756 N   0  0  0  0  0  0  0  0  0  0  0  0
   47.9522    7.8125   19.0476 C   0  0  0  0  0  0  0  0  0  0  0  0
   47.2930    8.7431   21.5537 C   0  0  0  0  0  0  0  0  0  0  0  0
   47.4624    9.1141   19.1967 C   0  0  0  0  0  0  0  0  0  0  0  0
   47.1297    9.5844   20.4602 C   0  0  0  0  0  0  0  0  0  0  0  0
   48.3452    7.2981   17.4406 Cl  0  0  0  0  0  0  0  0  0  0  0  0
   46.9568    9.2311   22.7944 O   0  0  0  0  0  0  0  0  0  0  0  0
   48.6046    5.6300   20.1095 C   0  0  0  0  0  0  0  0  0  0  0  0
   48.3660    5.4505   22.4658 C   0  0  0  0  0  0  0  0  0  0  0  0
   48.7301    4.8703   21.2679 C   0  0  0  0  0  0  0  0  0  0  0  0
   47.8722    7.4589   20.1833 C   0  0  0  0  0  0  0  0  0  0  0  0
   47.6779    8.8345   20.0868 C   0  0  0  0  0  0  0  0  0  0  0  0
   47.9807    6.8712   21.4607 C   0  0  0  0  0  0  0  0  0  0  0  0
   47.5874    9.6486   21.2149 C   0  0  0  0  0  0  0  0  0  0  0  0
   47.8874    7.7067   22.6029 C   0  0  0  0  0  0  0  0  0  0  0  0
   47.6925    9.0834   22.4792 C   0  0  0  0  0  0  0  0  0  0  0  0
   47.9475    6.7513   19.0356 N   0  0  0  0  0  0  0  0  0  0  0  0
   47.5752    9.3824   18.8256 O   0  0  0  0  0  0  0  0  0  0  0  0
   47.3467   11.3509   21.0851 Cl  0  0  0  0  0  0  0  0  0  0  0  0
   48.0096    7.0702   24.2093 Cl  0  0  0  0  0  0  0  0  0  0  0  0
   48.1769    5.4728   21.4956 C   0  0  0  0  0  0  0  0  0  0  0  0
   48.1357    5.4170   19.1226 C   0  0  0  0  0  0  0  0  0  0  0  0
   48.2553    4.7382   20.3173 C   0  0  0  0  0  0  0  0  0  0  0  0
   47.0960    8.6696   21.5551 C   0  0  0  0  0  0  0  0  0  0  0  0
   47.4689    7.3369   21.3959 C   0  0  0  0  0  0  0  0  0  0  0  0
   47.0539    9.5540   20.4761 C   0  0  0  0  0  0  0  0  0  0  0  0
   47.4911    6.5282   22.4775 N   0  0  0  0  0  0  0  0  0  0  0  0
   47.8093    6.8870   20.1031 C   0  0  0  0  0  0  0  0  0  0  0  0
   47.3911    9.1041   19.2014 C   0  0  0  0  0  0  0  0  0  0  0  0
   47.7685    7.7738   19.0128 C   0  0  0  0  0  0  0  0  0  0  0  0
   46.7655    9.0979   22.8235 O   0  0  0  0  0  0  0  0  0  0  0  0
   46.5920   11.2034   20.6764 Cl  0  0  0  0  0  0  0  0  0  0  0  0
   47.8570    5.2403   22.2911 C   0  0  0  0  0  0  0  0  0  0  0  0
   48.1826    5.5451   19.9548 C   0  0  0  0  0  0  0  0  0  0  0  0
   48.2074    4.7077   21.0643 C   0  0  0  0  0  0  0  0  0  0  0  0
   47.3392    9.7624   18.3328 H   0  0  0  0  0  0  0  0  0  0  0  0
   46.7477   10.5916   20.5979 H   0  0  0  0  0  0  0  0  0  0  0  0
   47.1488    8.4842   23.4018 H   0  0  0  0  0  0  0  0  0  0  0  0
   48.8893    5.1807   19.1609 H   0  0  0  0  0  0  0  0  0  0  0  0
   48.4445    4.9009   23.3998 H   0  0  0  0  0  0  0  0  0  0  0  0
   49.1026    3.8526   21.2327 H   0  0  0  0  0  0  0  0  0  0  0  0
   47.6230    9.7108   23.3643 H   0  0  0  0  0  0  0  0  0  0  0  0
   47.6697    8.6179   18.2172 H   0  0  0  0  0  0  0  0  0  0  0  0
   48.2703    4.9442   22.4418 H   0  0  0  0  0  0  0  0  0  0  0  0
   48.1895    4.8917   18.1728 H   0  0  0  0  0  0  0  0  0  0  0  0
   48.4058    3.6643   20.3352 H   0  0  0  0  0  0  0  0  0  0  0  0
   47.3623    9.7831   18.3529 H   0  0  0  0  0  0  0  0  0  0  0  0
   48.0296    7.4339   18.0129 H   0  0  0  0  0  0  0  0  0  0  0  0
   46.8749    8.3004   23.3845 H   0  0  0  0  0  0  0  0  0  0  0  0
   47.8609    4.6257   23.1875 H   0  0  0  0  0  0  0  0  0  0  0  0
   48.4543    5.1475   18.9801 H   0  0  0  0  0  0  0  0  0  0  0  0
   48.4931    3.6656   20.9735 H   0  0  0  0  0  0  0  0  0  0  0  0
  2  1  1  0
  3  2  2  0
  4  1  1  0
  5  2  1  0
  6  4  2  0
  7  6  1  0
  8  4  1  0
  9  5  1  0
 10  1  2  0
 11 12  2  0
 12 10  1  0
 11  3  1  0
  7  5  2  0
 14 13  2  0
 15 13  1  0
 16 14  1  0
 17 15  2  0
 18 17  1  0
 19 13  1  0
 20 14  1  0
 21 16  1  0
 22 17  1  0
 23 15  1  0
 24 19  2  0
 25 23  2  0
 16 18  2  0
 24 25  1  0
 27 26  2  0
 28 26  1  0
 29 27  1  0
 30 27  1  0
 31 28  2  0
 32 31  1  0
 33 26  1  0
 34 28  1  0
 35 29  2  0
 36 30  1  0
 37 36  2  0
 32 30  2  0
 35 37  1  0
  6 38  1  0
  7 39  1  0
  9 40  1  0
 10 41  1  0
 11 42  1  0
 12 43  1  0
 18 44  1  0
 20 45  1  0
 23 46  1  0
 24 47  1  0
 25 48  1  0
 31 49  1  0
 32 50  1  0
 33 51  1  0
 35 52  1  0
 36 53  1  0
 37 54  1  0
M  END
> <Uni-Dock RESULT> 
ENERGY=   -7.511  LOWER_BOUND=    7.877  UPPER_BOUND=    9.746
INTER + INTRA:          -7.511
INTER:                  -7.511
INTRA:                   0.000
UNBOUND:                 0.000

$$$$
