
     RDKit          3D

 54 57  0  0  0  0  0  0  0  0999 V2000
   44.8240    4.7955   10.1842 C   0  0  0  0  0  0  0  0  0  0  0  0
   44.2615    3.5526   10.5390 C   0  0  0  0  0  0  0  0  0  0  0  0
   44.3741    2.4410    9.7797 N   0  0  0  0  0  0  0  0  0  0  0  0
   44.6420    5.8981   11.0602 C   0  0  0  0  0  0  0  0  0  0  0  0
   43.5518    3.4611   11.7338 C   0  0  0  0  0  0  0  0  0  0  0  0
   43.9223    5.7667   12.2523 C   0  0  0  0  0  0  0  0  0  0  0  0
   43.3721    4.5381   12.5929 C   0  0  0  0  0  0  0  0  0  0  0  0
   45.2979    7.4616   10.7044 Cl  0  0  0  0  0  0  0  0  0  0  0  0
   42.9976    2.2551   12.0925 O   0  0  0  0  0  0  0  0  0  0  0  0
   45.5341    4.8372    8.9636 C   0  0  0  0  0  0  0  0  0  0  0  0
   45.0630    2.5346    8.6223 C   0  0  0  0  0  0  0  0  0  0  0  0
   45.6553    3.6978    8.1751 C   0  0  0  0  0  0  0  0  0  0  0  0
   44.8017    4.7995   10.5480 C   0  0  0  0  0  0  0  0  0  0  0  0
   45.5742    4.8090    9.3789 C   0  0  0  0  0  0  0  0  0  0  0  0
   44.1117    3.6109   10.8844 C   0  0  0  0  0  0  0  0  0  0  0  0
   45.6741    3.6853    8.5531 C   0  0  0  0  0  0  0  0  0  0  0  0
   44.2255    2.4813   10.0336 C   0  0  0  0  0  0  0  0  0  0  0  0
   45.0012    2.5184    8.8763 C   0  0  0  0  0  0  0  0  0  0  0  0
   44.7271    5.9045   11.3241 N   0  0  0  0  0  0  0  0  0  0  0  0
   46.2519    5.9629    9.0406 O   0  0  0  0  0  0  0  0  0  0  0  0
   46.6346    3.7310    7.1198 Cl  0  0  0  0  0  0  0  0  0  0  0  0
   43.4116    0.9893   10.3763 Cl  0  0  0  0  0  0  0  0  0  0  0  0
   43.3400    3.6294   12.0688 C   0  0  0  0  0  0  0  0  0  0  0  0
   43.9788    5.8761   12.4449 C   0  0  0  0  0  0  0  0  0  0  0  0
   43.2715    4.7706   12.8575 C   0  0  0  0  0  0  0  0  0  0  0  0
   43.8061    3.2197   11.6281 C   0  0  0  0  0  0  0  0  0  0  0  0
   44.3835    3.4845   10.3791 C   0  0  0  0  0  0  0  0  0  0  0  0
   43.7637    4.1907   12.6370 C   0  0  0  0  0  0  0  0  0  0  0  0
   44.4253    2.5474    9.4036 N   0  0  0  0  0  0  0  0  0  0  0  0
   44.9249    4.7751   10.1727 C   0  0  0  0  0  0  0  0  0  0  0  0
   44.2994    5.4544   12.4204 C   0  0  0  0  0  0  0  0  0  0  0  0
   44.8797    5.7463   11.1887 C   0  0  0  0  0  0  0  0  0  0  0  0
   43.2690    1.9697   11.8611 O   0  0  0  0  0  0  0  0  0  0  0  0
   43.0458    3.8361   14.1666 Cl  0  0  0  0  0  0  0  0  0  0  0  0
   44.9946    2.8613    8.2210 C   0  0  0  0  0  0  0  0  0  0  0  0
   45.5079    5.0639    8.9312 C   0  0  0  0  0  0  0  0  0  0  0  0
   45.5447    4.0942    7.9383 C   0  0  0  0  0  0  0  0  0  0  0  0
   43.7889    6.6174   12.9160 H   0  0  0  0  0  0  0  0  0  0  0  0
   42.8097    4.4147   13.5138 H   0  0  0  0  0  0  0  0  0  0  0  0
   43.2443    1.6537   11.3568 H   0  0  0  0  0  0  0  0  0  0  0  0
   45.9977    5.7586    8.6189 H   0  0  0  0  0  0  0  0  0  0  0  0
   45.1276    1.6165    8.0446 H   0  0  0  0  0  0  0  0  0  0  0  0
   46.1985    3.7212    7.2369 H   0  0  0  0  0  0  0  0  0  0  0  0
   45.0777    1.6440    8.2353 H   0  0  0  0  0  0  0  0  0  0  0  0
   46.7335    5.8002    8.2105 H   0  0  0  0  0  0  0  0  0  0  0  0
   42.7831    2.7518   12.3891 H   0  0  0  0  0  0  0  0  0  0  0  0
   43.9674    6.7997   13.0165 H   0  0  0  0  0  0  0  0  0  0  0  0
   42.6820    4.7926   13.7670 H   0  0  0  0  0  0  0  0  0  0  0  0
   44.2695    6.2119   13.1990 H   0  0  0  0  0  0  0  0  0  0  0  0
   45.2980    6.7374   11.0238 H   0  0  0  0  0  0  0  0  0  0  0  0
   42.9160    1.9622   12.7680 H   0  0  0  0  0  0  0  0  0  0  0  0
   44.9937    2.0632    7.4841 H   0  0  0  0  0  0  0  0  0  0  0  0
   45.9355    6.0432    8.7311 H   0  0  0  0  0  0  0  0  0  0  0  0
   45.9903    4.2951    6.9710 H   0  0  0  0  0  0  0  0  0  0  0  0
  2  1  1  0
  3  2  2  0
  4  1  1  0
  5  2  1  0
  6  4  2  0
  7  6  1  0
  8  4  1  0
  9  5  1  0
 10  1  2  0
 11 12  2  0
 12 10  1  0
 11  3  1  0
  7  5  2  0
 14 13  2  0
 15 13  1  0
 16 14  1  0
 17 15  2  0
 18 17  1  0
 19 13  1  0
 20 14  1  0
 21 16  1  0
 22 17  1  0
 23 15  1  0
 24 19  2  0
 25 23  2  0
 16 18  2  0
 24 25  1  0
 27 26  2  0
 28 26  1  0
 29 27  1  0
 30 27  1  0
 31 28  2  0
 32 31  1  0
 33 26  1  0
 34 28  1  0
 35 29  2  0
 36 30  1  0
 37 36  2  0
 32 30  2  0
 35 37  1  0
  6 38  1  0
  7 39  1  0
  9 40  1  0
 10 41  1  0
 11 42  1  0
 12 43  1  0
 18 44  1  0
 20 45  1  0
 23 46  1  0
 24 47  1  0
 25 48  1  0
 31 49  1  0
 32 50  1  0
 33 51  1  0
 35 52  1  0
 36 53  1  0
 37 54  1  0
M  END
> <Uni-Dock RESULT> 
ENERGY=  -10.215  LOWER_BOUND=    0.000  UPPER_BOUND=    0.000
INTER + INTRA:         -10.215
INTER:                 -10.215
INTRA:                   0.000
UNBOUND:                 0.000

$$$$

     RDKit          3D

 54 57  0  0  0  0  0  0  0  0999 V2000
   45.0383    6.4805   12.2511 C   0  0  0  0  0  0  0  0  0  0  0  0
   45.6908    5.3094   12.6868 C   0  0  0  0  0  0  0  0  0  0  0  0
   46.8614    5.3167   13.3609 N   0  0  0  0  0  0  0  0  0  0  0  0
   43.8103    6.3528   11.5500 C   0  0  0  0  0  0  0  0  0  0  0  0
   45.1016    4.0782   12.4100 C   0  0  0  0  0  0  0  0  0  0  0  0
   43.2496    5.0978   11.2909 C   0  0  0  0  0  0  0  0  0  0  0  0
   43.9001    3.9501   11.7242 C   0  0  0  0  0  0  0  0  0  0  0  0
   42.9400    7.7374   10.9781 Cl  0  0  0  0  0  0  0  0  0  0  0  0
   45.7269    2.9276   12.8288 O   0  0  0  0  0  0  0  0  0  0  0  0
   45.6755    7.7040   12.5560 C   0  0  0  0  0  0  0  0  0  0  0  0
   47.4288    6.5127   13.6269 C   0  0  0  0  0  0  0  0  0  0  0  0
   46.8810    7.7215   13.2497 C   0  0  0  0  0  0  0  0  0  0  0  0
   44.7748    6.2319   12.2915 C   0  0  0  0  0  0  0  0  0  0  0  0
   45.3715    7.4413   12.6722 C   0  0  0  0  0  0  0  0  0  0  0  0
   45.4524    5.0272   12.5937 C   0  0  0  0  0  0  0  0  0  0  0  0
   46.6026    7.4790   13.3337 C   0  0  0  0  0  0  0  0  0  0  0  0
   46.7006    5.0861   13.2653 C   0  0  0  0  0  0  0  0  0  0  0  0
   47.2715    6.3033   13.6327 C   0  0  0  0  0  0  0  0  0  0  0  0
   43.5827    6.2320   11.6528 N   0  0  0  0  0  0  0  0  0  0  0  0
   44.7196    8.6231   12.3827 O   0  0  0  0  0  0  0  0  0  0  0  0
   47.3099    8.9862   13.7886 Cl  0  0  0  0  0  0  0  0  0  0  0  0
   47.5923    3.6556   13.6709 Cl  0  0  0  0  0  0  0  0  0  0  0  0
   44.8277    3.8222   12.1982 C   0  0  0  0  0  0  0  0  0  0  0  0
   43.0244    5.0585   11.2945 C   0  0  0  0  0  0  0  0  0  0  0  0
   43.6032    3.8354   11.5429 C   0  0  0  0  0  0  0  0  0  0  0  0
   45.2342    4.1721   12.7382 C   0  0  0  0  0  0  0  0  0  0  0  0
   45.8073    5.4495   12.7957 C   0  0  0  0  0  0  0  0  0  0  0  0
   43.9374    3.9717   12.2478 C   0  0  0  0  0  0  0  0  0  0  0  0
   47.0599    5.6447   13.2693 N   0  0  0  0  0  0  0  0  0  0  0  0
   45.0245    6.5354   12.3379 C   0  0  0  0  0  0  0  0  0  0  0  0
   43.1798    5.0476   11.8014 C   0  0  0  0  0  0  0  0  0  0  0  0
   43.7233    6.3288   11.8465 C   0  0  0  0  0  0  0  0  0  0  0  0
   45.9723    3.0916   13.1775 O   0  0  0  0  0  0  0  0  0  0  0  0
   43.2569    2.3860   12.1888 Cl  0  0  0  0  0  0  0  0  0  0  0  0
   47.5581    6.8986   13.3000 C   0  0  0  0  0  0  0  0  0  0  0  0
   45.5762    7.8230   12.3855 C   0  0  0  0  0  0  0  0  0  0  0  0
   46.8624    8.0106   12.8734 C   0  0  0  0  0  0  0  0  0  0  0  0
   42.3087    5.0113   10.7531 H   0  0  0  0  0  0  0  0  0  0  0  0
   43.4820    2.9661   11.5334 H   0  0  0  0  0  0  0  0  0  0  0  0
   46.5374    3.2499   13.2794 H   0  0  0  0  0  0  0  0  0  0  0  0
   45.2363    8.6521   12.2545 H   0  0  0  0  0  0  0  0  0  0  0  0
   48.3688    6.4703   14.1706 H   0  0  0  0  0  0  0  0  0  0  0  0
   47.3767    8.6561   13.4876 H   0  0  0  0  0  0  0  0  0  0  0  0
   48.2287    6.3308   14.1468 H   0  0  0  0  0  0  0  0  0  0  0  0
   45.2648    9.3593   12.7117 H   0  0  0  0  0  0  0  0  0  0  0  0
   45.2909    2.8586   12.3977 H   0  0  0  0  0  0  0  0  0  0  0  0
   42.0678    5.1380   10.7861 H   0  0  0  0  0  0  0  0  0  0  0  0
   43.1180    2.9158   11.2365 H   0  0  0  0  0  0  0  0  0  0  0  0
   42.1733    4.8985   11.4198 H   0  0  0  0  0  0  0  0  0  0  0  0
   43.1260    7.1683   11.4958 H   0  0  0  0  0  0  0  0  0  0  0  0
   45.4261    2.2938   13.0665 H   0  0  0  0  0  0  0  0  0  0  0  0
   48.5679    6.9826   13.6916 H   0  0  0  0  0  0  0  0  0  0  0  0
   45.0086    8.6850   12.0435 H   0  0  0  0  0  0  0  0  0  0  0  0
   47.3092    8.9969   12.9195 H   0  0  0  0  0  0  0  0  0  0  0  0
  2  1  1  0
  3  2  2  0
  4  1  1  0
  5  2  1  0
  6  4  2  0
  7  6  1  0
  8  4  1  0
  9  5  1  0
 10  1  2  0
 11 12  2  0
 12 10  1  0
 11  3  1  0
  7  5  2  0
 14 13  2  0
 15 13  1  0
 16 14  1  0
 17 15  2  0
 18 17  1  0
 19 13  1  0
 20 14  1  0
 21 16  1  0
 22 17  1  0
 23 15  1  0
 24 19  2  0
 25 23  2  0
 16 18  2  0
 24 25  1  0
 27 26  2  0
 28 26  1  0
 29 27  1  0
 30 27  1  0
 31 28  2  0
 32 31  1  0
 33 26  1  0
 34 28  1  0
 35 29  2  0
 36 30  1  0
 37 36  2  0
 32 30  2  0
 35 37  1  0
  6 38  1  0
  7 39  1  0
  9 40  1  0
 10 41  1  0
 11 42  1  0
 12 43  1  0
 18 44  1  0
 20 45  1  0
 23 46  1  0
 24 47  1  0
 25 48  1  0
 31 49  1  0
 32 50  1  0
 33 51  1  0
 35 52  1  0
 36 53  1  0
 37 54  1  0
M  END
> <Uni-Dock RESULT> 
ENERGY=   -9.922  LOWER_BOUND=    2.716  UPPER_BOUND=    4.138
INTER + INTRA:          -9.922
INTER:                  -9.922
INTRA:                   0.000
UNBOUND:                 0.000

$$$$

     RDKit          3D

 54 57  0  0  0  0  0  0  0  0999 V2000
   45.9402    6.5270   12.9942 C   0  0  0  0  0  0  0  0  0  0  0  0
   44.7836    6.8702   12.2650 C   0  0  0  0  0  0  0  0  0  0  0  0
   44.5377    8.1153   11.8026 N   0  0  0  0  0  0  0  0  0  0  0  0
   46.0940    5.1849   13.4313 C   0  0  0  0  0  0  0  0  0  0  0  0
   43.8425    5.8769   12.0054 C   0  0  0  0  0  0  0  0  0  0  0  0
   45.1261    4.2148   13.1508 C   0  0  0  0  0  0  0  0  0  0  0  0
   43.9903    4.5629   12.4317 C   0  0  0  0  0  0  0  0  0  0  0  0
   47.4826    4.6743   14.3326 Cl  0  0  0  0  0  0  0  0  0  0  0  0
   42.7096    6.1973   11.2954 O   0  0  0  0  0  0  0  0  0  0  0  0
   46.8642    7.5689   13.2316 C   0  0  0  0  0  0  0  0  0  0  0  0
   45.4529    9.0750   12.0567 C   0  0  0  0  0  0  0  0  0  0  0  0
   46.6197    8.8542   12.7594 C   0  0  0  0  0  0  0  0  0  0  0  0
   45.8319    6.2185   12.8332 C   0  0  0  0  0  0  0  0  0  0  0  0
   46.7802    7.2381   12.9899 C   0  0  0  0  0  0  0  0  0  0  0  0
   44.5986    6.5403   12.2189 C   0  0  0  0  0  0  0  0  0  0  0  0
   46.5347    8.5450   12.5580 C   0  0  0  0  0  0  0  0  0  0  0  0
   44.3682    7.8720   11.7875 C   0  0  0  0  0  0  0  0  0  0  0  0
   45.3294    8.8671   11.9559 C   0  0  0  0  0  0  0  0  0  0  0  0
   46.1025    4.9649   13.2625 N   0  0  0  0  0  0  0  0  0  0  0  0
   47.9871    6.9359   13.5877 O   0  0  0  0  0  0  0  0  0  0  0  0
   47.7248    9.7775   12.7665 Cl  0  0  0  0  0  0  0  0  0  0  0  0
   42.8840    8.3459   11.0268 Cl  0  0  0  0  0  0  0  0  0  0  0  0
   43.6606    5.4926   12.0737 C   0  0  0  0  0  0  0  0  0  0  0  0
   45.1776    3.9973   13.1030 C   0  0  0  0  0  0  0  0  0  0  0  0
   43.9503    4.2092   12.5187 C   0  0  0  0  0  0  0  0  0  0  0  0
   43.9678    6.1108   11.7530 C   0  0  0  0  0  0  0  0  0  0  0  0
   44.8939    7.0482   12.2296 C   0  0  0  0  0  0  0  0  0  0  0  0
   44.1428    4.7364   11.9599 C   0  0  0  0  0  0  0  0  0  0  0  0
   44.7261    8.3761   12.0304 N   0  0  0  0  0  0  0  0  0  0  0  0
   46.0183    6.5535   12.9315 C   0  0  0  0  0  0  0  0  0  0  0  0
   45.2521    4.2646   12.6511 C   0  0  0  0  0  0  0  0  0  0  0  0
   46.1893    5.1728   13.1366 C   0  0  0  0  0  0  0  0  0  0  0  0
   42.8598    6.5614   11.0641 O   0  0  0  0  0  0  0  0  0  0  0  0
   42.9851    3.6043   11.3609 Cl  0  0  0  0  0  0  0  0  0  0  0  0
   45.6522    9.2307   12.5133 C   0  0  0  0  0  0  0  0  0  0  0  0
   46.9586    7.4718   13.4181 C   0  0  0  0  0  0  0  0  0  0  0  0
   46.7755    8.8318   13.2074 C   0  0  0  0  0  0  0  0  0  0  0  0
   45.2538    3.1899   13.4902 H   0  0  0  0  0  0  0  0  0  0  0  0
   43.2268    3.8251   12.2033 H   0  0  0  0  0  0  0  0  0  0  0  0
   42.8146    7.1542   11.1024 H   0  0  0  0  0  0  0  0  0  0  0  0
   47.7813    7.3857   13.7866 H   0  0  0  0  0  0  0  0  0  0  0  0
   45.2136   10.0604   11.6661 H   0  0  0  0  0  0  0  0  0  0  0  0
   47.3236    9.6596   12.9373 H   0  0  0  0  0  0  0  0  0  0  0  0
   45.1368    9.8826   11.6197 H   0  0  0  0  0  0  0  0  0  0  0  0
   48.5231    7.7479   13.6178 H   0  0  0  0  0  0  0  0  0  0  0  0
   42.6920    5.6673   11.6108 H   0  0  0  0  0  0  0  0  0  0  0  0
   45.4659    3.0171   13.4718 H   0  0  0  0  0  0  0  0  0  0  0  0
   43.2363    3.4008   12.4109 H   0  0  0  0  0  0  0  0  0  0  0  0
   45.3935    3.1996   12.8150 H   0  0  0  0  0  0  0  0  0  0  0  0
   47.0565    4.7985   13.6773 H   0  0  0  0  0  0  0  0  0  0  0  0
   42.3314    5.7846   10.8103 H   0  0  0  0  0  0  0  0  0  0  0  0
   45.4550   10.2810   12.3177 H   0  0  0  0  0  0  0  0  0  0  0  0
   47.8369    7.1340   13.9627 H   0  0  0  0  0  0  0  0  0  0  0  0
   47.4894    9.5600   13.5744 H   0  0  0  0  0  0  0  0  0  0  0  0
  2  1  1  0
  3  2  2  0
  4  1  1  0
  5  2  1  0
  6  4  2  0
  7  6  1  0
  8  4  1  0
  9  5  1  0
 10  1  2  0
 11 12  2  0
 12 10  1  0
 11  3  1  0
  7  5  2  0
 14 13  2  0
 15 13  1  0
 16 14  1  0
 17 15  2  0
 18 17  1  0
 19 13  1  0
 20 14  1  0
 21 16  1  0
 22 17  1  0
 23 15  1  0
 24 19  2  0
 25 23  2  0
 16 18  2  0
 24 25  1  0
 27 26  2  0
 28 26  1  0
 29 27  1  0
 30 27  1  0
 31 28  2  0
 32 31  1  0
 33 26  1  0
 34 28  1  0
 35 29  2  0
 36 30  1  0
 37 36  2  0
 32 30  2  0
 35 37  1  0
  6 38  1  0
  7 39  1  0
  9 40  1  0
 10 41  1  0
 11 42  1  0
 12 43  1  0
 18 44  1  0
 20 45  1  0
 23 46  1  0
 24 47  1  0
 25 48  1  0
 31 49  1  0
 32 50  1  0
 33 51  1  0
 35 52  1  0
 36 53  1  0
 37 54  1  0
M  END
> <Uni-Dock RESULT> 
ENERGY=   -9.322  LOWER_BOUND=    2.960  UPPER_BOUND=    4.758
INTER + INTRA:          -9.322
INTER:                  -9.322
INTRA:                   0.000
UNBOUND:                 0.000

$$$$

     RDKit          3D

 54 57  0  0  0  0  0  0  0  0999 V2000
   44.5730    5.9857   12.0933 C   0  0  0  0  0  0  0  0  0  0  0  0
   45.7081    5.5370   12.7985 C   0  0  0  0  0  0  0  0  0  0  0  0
   45.9625    4.2339   13.0472 N   0  0  0  0  0  0  0  0  0  0  0  0
   44.4076    7.3812   11.8902 C   0  0  0  0  0  0  0  0  0  0  0  0
   46.6176    6.4830   13.2650 C   0  0  0  0  0  0  0  0  0  0  0  0
   45.3435    8.3010   12.3744 C   0  0  0  0  0  0  0  0  0  0  0  0
   46.4584    7.8490   13.0678 C   0  0  0  0  0  0  0  0  0  0  0  0
   43.0436    8.0215   11.0351 Cl  0  0  0  0  0  0  0  0  0  0  0  0
   47.7292    6.0597   13.9545 O   0  0  0  0  0  0  0  0  0  0  0  0
   43.6808    4.9882   11.6408 C   0  0  0  0  0  0  0  0  0  0  0  0
   45.0780    3.3204   12.5930 C   0  0  0  0  0  0  0  0  0  0  0  0
   43.9343    3.6439   11.8922 C   0  0  0  0  0  0  0  0  0  0  0  0
   44.8264    6.2428   12.0429 C   0  0  0  0  0  0  0  0  0  0  0  0
   43.9930    5.2417   11.5262 C   0  0  0  0  0  0  0  0  0  0  0  0
   45.9106    5.8530   12.8642 C   0  0  0  0  0  0  0  0  0  0  0  0
   44.2092    3.8883   11.8024 C   0  0  0  0  0  0  0  0  0  0  0  0
   46.1133    4.4748   13.1331 C   0  0  0  0  0  0  0  0  0  0  0  0
   45.2686    3.4996   12.6059 C   0  0  0  0  0  0  0  0  0  0  0  0
   44.5884    7.5427   11.7554 N   0  0  0  0  0  0  0  0  0  0  0  0
   42.9322    5.6101   10.7235 O   0  0  0  0  0  0  0  0  0  0  0  0
   43.1632    2.6804   11.1498 Cl  0  0  0  0  0  0  0  0  0  0  0  0
   47.4180    3.9169   14.1293 Cl  0  0  0  0  0  0  0  0  0  0  0  0
   46.7349    6.8833   13.3718 C   0  0  0  0  0  0  0  0  0  0  0  0
   45.4012    8.4914   12.2617 C   0  0  0  0  0  0  0  0  0  0  0  0
   46.4801    8.2147   13.0693 C   0  0  0  0  0  0  0  0  0  0  0  0
   46.7134    6.1781   13.0862 C   0  0  0  0  0  0  0  0  0  0  0  0
   45.6434    5.3485   12.7251 C   0  0  0  0  0  0  0  0  0  0  0  0
   46.7343    7.5372   12.7474 C   0  0  0  0  0  0  0  0  0  0  0  0
   45.6219    4.0354   13.0516 N   0  0  0  0  0  0  0  0  0  0  0  0
   44.5790    5.9367   12.0022 C   0  0  0  0  0  0  0  0  0  0  0  0
   45.6819    8.1016   12.0370 C   0  0  0  0  0  0  0  0  0  0  0  0
   44.6047    7.3015   11.6647 C   0  0  0  0  0  0  0  0  0  0  0  0
   47.7677    5.6345   13.7921 O   0  0  0  0  0  0  0  0  0  0  0  0
   48.0664    8.5355   13.2057 Cl  0  0  0  0  0  0  0  0  0  0  0  0
   44.5637    3.2867   12.6761 C   0  0  0  0  0  0  0  0  0  0  0  0
   43.4972    5.1270   11.6298 C   0  0  0  0  0  0  0  0  0  0  0  0
   43.4866    3.7812   11.9706 C   0  0  0  0  0  0  0  0  0  0  0  0
   45.2072    9.3676   12.2132 H   0  0  0  0  0  0  0  0  0  0  0  0
   47.1969    8.5464   13.4521 H   0  0  0  0  0  0  0  0  0  0  0  0
   47.6372    5.0825   13.9738 H   0  0  0  0  0  0  0  0  0  0  0  0
   42.7816    5.2525   11.0891 H   0  0  0  0  0  0  0  0  0  0  0  0
   45.3230    2.2855   12.8161 H   0  0  0  0  0  0  0  0  0  0  0  0
   43.2547    2.8720   11.5485 H   0  0  0  0  0  0  0  0  0  0  0  0
   45.4380    2.4479   12.8217 H   0  0  0  0  0  0  0  0  0  0  0  0
   42.4611    4.8024   10.4530 H   0  0  0  0  0  0  0  0  0  0  0  0
   47.5863    6.6574   14.0098 H   0  0  0  0  0  0  0  0  0  0  0  0
   45.1477    9.5115   11.9876 H   0  0  0  0  0  0  0  0  0  0  0  0
   47.1075    9.0103   13.4546 H   0  0  0  0  0  0  0  0  0  0  0  0
   45.6922    9.1553   11.7714 H   0  0  0  0  0  0  0  0  0  0  0  0
   43.7828    7.7481   11.1084 H   0  0  0  0  0  0  0  0  0  0  0  0
   48.4131    6.3443   13.9559 H   0  0  0  0  0  0  0  0  0  0  0  0
   44.6118    2.2423   12.9709 H   0  0  0  0  0  0  0  0  0  0  0  0
   42.6587    5.5390   11.0736 H   0  0  0  0  0  0  0  0  0  0  0  0
   42.6609    3.1363   11.6932 H   0  0  0  0  0  0  0  0  0  0  0  0
  2  1  1  0
  3  2  2  0
  4  1  1  0
  5  2  1  0
  6  4  2  0
  7  6  1  0
  8  4  1  0
  9  5  1  0
 10  1  2  0
 11 12  2  0
 12 10  1  0
 11  3  1  0
  7  5  2  0
 14 13  2  0
 15 13  1  0
 16 14  1  0
 17 15  2  0
 18 17  1  0
 19 13  1  0
 20 14  1  0
 21 16  1  0
 22 17  1  0
 23 15  1  0
 24 19  2  0
 25 23  2  0
 16 18  2  0
 24 25  1  0
 27 26  2  0
 28 26  1  0
 29 27  1  0
 30 27  1  0
 31 28  2  0
 32 31  1  0
 33 26  1  0
 34 28  1  0
 35 29  2  0
 36 30  1  0
 37 36  2  0
 32 30  2  0
 35 37  1  0
  6 38  1  0
  7 39  1  0
  9 40  1  0
 10 41  1  0
 11 42  1  0
 12 43  1  0
 18 44  1  0
 20 45  1  0
 23 46  1  0
 24 47  1  0
 25 48  1  0
 31 49  1  0
 32 50  1  0
 33 51  1  0
 35 52  1  0
 36 53  1  0
 37 54  1  0
M  END
> <Uni-Dock RESULT> 
ENERGY=   -9.263  LOWER_BOUND=    2.639  UPPER_BOUND=    4.044
INTER + INTRA:          -9.263
INTER:                  -9.263
INTRA:                   0.000
UNBOUND:                 0.000

$$$$

     RDKit          3D

 54 57  0  0  0  0  0  0  0  0999 V2000
   45.3368    6.4468   12.3663 C   0  0  0  0  0  0  0  0  0  0  0  0
   46.4753    6.6830   13.1632 C   0  0  0  0  0  0  0  0  0  0  0  0
   46.9631    7.9170   13.4166 N   0  0  0  0  0  0  0  0  0  0  0  0
   44.9136    5.1061   12.1673 C   0  0  0  0  0  0  0  0  0  0  0  0
   47.1350    5.5903   13.7205 C   0  0  0  0  0  0  0  0  0  0  0  0
   45.6028    4.0343   12.7441 C   0  0  0  0  0  0  0  0  0  0  0  0
   46.7232    4.2775   13.5276 C   0  0  0  0  0  0  0  0  0  0  0  0
   43.5259    4.7229   11.2035 Cl  0  0  0  0  0  0  0  0  0  0  0  0
   48.2469    5.8058   14.4998 O   0  0  0  0  0  0  0  0  0  0  0  0
   44.7031    7.5869   11.8239 C   0  0  0  0  0  0  0  0  0  0  0  0
   46.3204    8.9732   12.8742 C   0  0  0  0  0  0  0  0  0  0  0  0
   45.1981    8.8615   12.0793 C   0  0  0  0  0  0  0  0  0  0  0  0
   45.3565    6.1628   12.5939 C   0  0  0  0  0  0  0  0  0  0  0  0
   44.6873    7.3036   12.1311 C   0  0  0  0  0  0  0  0  0  0  0  0
   46.5742    6.3387   13.2927 C   0  0  0  0  0  0  0  0  0  0  0  0
   45.1917    8.5902   12.3434 C   0  0  0  0  0  0  0  0  0  0  0  0
   47.0698    7.6520   13.4979 C   0  0  0  0  0  0  0  0  0  0  0  0
   46.3834    8.7697   13.0266 C   0  0  0  0  0  0  0  0  0  0  0  0
   44.8400    4.9329   12.3712 N   0  0  0  0  0  0  0  0  0  0  0  0
   43.4984    7.1444   11.4482 O   0  0  0  0  0  0  0  0  0  0  0  0
   44.3419    9.9745   11.7597 Cl  0  0  0  0  0  0  0  0  0  0  0  0
   48.5534    7.9508   14.3439 Cl  0  0  0  0  0  0  0  0  0  0  0  0
   47.2280    5.1708   13.7481 C   0  0  0  0  0  0  0  0  0  0  0  0
   45.4984    3.8473   12.8241 C   0  0  0  0  0  0  0  0  0  0  0  0
   46.6873    3.9132   13.5131 C   0  0  0  0  0  0  0  0  0  0  0  0
   47.0464    5.8927   13.9072 C   0  0  0  0  0  0  0  0  0  0  0  0
   46.4068    6.8836   13.1507 C   0  0  0  0  0  0  0  0  0  0  0  0
   46.5756    4.5736   13.9357 C   0  0  0  0  0  0  0  0  0  0  0  0
   46.8604    8.1583   13.1223 N   0  0  0  0  0  0  0  0  0  0  0  0
   45.2620    6.5015   12.4125 C   0  0  0  0  0  0  0  0  0  0  0  0
   45.4498    4.2124   13.2056 C   0  0  0  0  0  0  0  0  0  0  0  0
   44.7935    5.1760   12.4443 C   0  0  0  0  0  0  0  0  0  0  0  0
   48.1662    6.2334   14.6388 O   0  0  0  0  0  0  0  0  0  0  0  0
   47.3842    3.3733   14.8772 Cl  0  0  0  0  0  0  0  0  0  0  0  0
   46.2021    9.0689   12.3749 C   0  0  0  0  0  0  0  0  0  0  0  0
   44.6049    7.4753   11.6479 C   0  0  0  0  0  0  0  0  0  0  0  0
   45.0799    8.7797   11.6268 C   0  0  0  0  0  0  0  0  0  0  0  0
   45.2701    3.0115   12.5854 H   0  0  0  0  0  0  0  0  0  0  0  0
   47.2726    3.4597   13.9845 H   0  0  0  0  0  0  0  0  0  0  0  0
   48.3507    6.7821   14.4983 H   0  0  0  0  0  0  0  0  0  0  0  0
   43.8189    7.4893   11.1983 H   0  0  0  0  0  0  0  0  0  0  0  0
   46.7477    9.9454   13.1046 H   0  0  0  0  0  0  0  0  0  0  0  0
   44.7178    9.7419   11.6669 H   0  0  0  0  0  0  0  0  0  0  0  0
   46.7769    9.7691   13.1923 H   0  0  0  0  0  0  0  0  0  0  0  0
   43.1698    8.0265   11.2003 H   0  0  0  0  0  0  0  0  0  0  0  0
   48.1678    5.2302   14.2922 H   0  0  0  0  0  0  0  0  0  0  0  0
   45.0229    2.8949   12.6077 H   0  0  0  0  0  0  0  0  0  0  0  0
   47.1826    3.0132   13.8590 H   0  0  0  0  0  0  0  0  0  0  0  0
   45.0798    3.1907   13.2235 H   0  0  0  0  0  0  0  0  0  0  0  0
   43.9122    4.8883   11.8742 H   0  0  0  0  0  0  0  0  0  0  0  0
   48.4766    5.4330   15.0973 H   0  0  0  0  0  0  0  0  0  0  0  0
   46.6201   10.0713   12.3978 H   0  0  0  0  0  0  0  0  0  0  0  0
   43.7217    7.2239   11.0658 H   0  0  0  0  0  0  0  0  0  0  0  0
   44.5881    9.5490   11.0429 H   0  0  0  0  0  0  0  0  0  0  0  0
  2  1  1  0
  3  2  2  0
  4  1  1  0
  5  2  1  0
  6  4  2  0
  7  6  1  0
  8  4  1  0
  9  5  1  0
 10  1  2  0
 11 12  2  0
 12 10  1  0
 11  3  1  0
  7  5  2  0
 14 13  2  0
 15 13  1  0
 16 14  1  0
 17 15  2  0
 18 17  1  0
 19 13  1  0
 20 14  1  0
 21 16  1  0
 22 17  1  0
 23 15  1  0
 24 19  2  0
 25 23  2  0
 16 18  2  0
 24 25  1  0
 27 26  2  0
 28 26  1  0
 29 27  1  0
 30 27  1  0
 31 28  2  0
 32 31  1  0
 33 26  1  0
 34 28  1  0
 35 29  2  0
 36 30  1  0
 37 36  2  0
 32 30  2  0
 35 37  1  0
  6 38  1  0
  7 39  1  0
  9 40  1  0
 10 41  1  0
 11 42  1  0
 12 43  1  0
 18 44  1  0
 20 45  1  0
 23 46  1  0
 24 47  1  0
 25 48  1  0
 31 49  1  0
 32 50  1  0
 33 51  1  0
 35 52  1  0
 36 53  1  0
 37 54  1  0
M  END
> <Uni-Dock RESULT> 
ENERGY=   -9.246  LOWER_BOUND=    3.130  UPPER_BOUND=    5.176
INTER + INTRA:          -9.246
INTER:                  -9.246
INTRA:                   0.000
UNBOUND:                 0.000

$$$$

     RDKit          3D

 54 57  0  0  0  0  0  0  0  0999 V2000
   46.7144    6.7337   13.1829 C   0  0  0  0  0  0  0  0  0  0  0  0
   45.4735    6.5123   12.5517 C   0  0  0  0  0  0  0  0  0  0  0  0
   44.8648    5.3071   12.5094 N   0  0  0  0  0  0  0  0  0  0  0  0
   47.2609    8.0441   13.1651 C   0  0  0  0  0  0  0  0  0  0  0  0
   44.8383    7.5892   11.9383 C   0  0  0  0  0  0  0  0  0  0  0  0
   46.5924    9.1008   12.5383 C   0  0  0  0  0  0  0  0  0  0  0  0
   45.3706    8.8724   11.9193 C   0  0  0  0  0  0  0  0  0  0  0  0
   48.7797    8.4074   13.9153 Cl  0  0  0  0  0  0  0  0  0  0  0  0
   43.6275    7.3878   11.3188 O   0  0  0  0  0  0  0  0  0  0  0  0
   47.3185    5.6105   13.7904 C   0  0  0  0  0  0  0  0  0  0  0  0
   45.4845    4.2660   13.1055 C   0  0  0  0  0  0  0  0  0  0  0  0
   46.6994    4.3655   13.7520 C   0  0  0  0  0  0  0  0  0  0  0  0
   46.5426    7.0551   13.1912 C   0  0  0  0  0  0  0  0  0  0  0  0
   47.0917    5.9544   13.8623 C   0  0  0  0  0  0  0  0  0  0  0  0
   45.3623    6.8578   12.4363 C   0  0  0  0  0  0  0  0  0  0  0  0
   46.5050    4.6868   13.8010 C   0  0  0  0  0  0  0  0  0  0  0  0
   44.7820    5.5642   12.3862 C   0  0  0  0  0  0  0  0  0  0  0  0
   45.3494    4.4865   13.0638 C   0  0  0  0  0  0  0  0  0  0  0  0
   47.1362    8.2676   13.2721 N   0  0  0  0  0  0  0  0  0  0  0  0
   48.2430    6.1348   14.6020 O   0  0  0  0  0  0  0  0  0  0  0  0
   47.2075    3.3520   14.6400 Cl  0  0  0  0  0  0  0  0  0  0  0  0
   43.3372    5.2414   11.4839 Cl  0  0  0  0  0  0  0  0  0  0  0  0
   44.8302    7.9853   11.7695 C   0  0  0  0  0  0  0  0  0  0  0  0
   46.5931    9.3146   12.6194 C   0  0  0  0  0  0  0  0  0  0  0  0
   45.4491    9.2253   11.8604 C   0  0  0  0  0  0  0  0  0  0  0  0
   44.6701    7.3533   12.1624 C   0  0  0  0  0  0  0  0  0  0  0  0
   45.4873    6.3267   12.6540 C   0  0  0  0  0  0  0  0  0  0  0  0
   45.0329    8.7010   12.2834 C   0  0  0  0  0  0  0  0  0  0  0  0
   45.1381    5.0244   12.5379 N   0  0  0  0  0  0  0  0  0  0  0  0
   46.6988    6.7027   13.2805 C   0  0  0  0  0  0  0  0  0  0  0  0
   46.2259    9.0558   12.9012 C   0  0  0  0  0  0  0  0  0  0  0  0
   47.0584    8.0569   13.3994 C   0  0  0  0  0  0  0  0  0  0  0  0
   43.4812    7.0194   11.5458 O   0  0  0  0  0  0  0  0  0  0  0  0
   44.0058    9.9449   11.6681 Cl  0  0  0  0  0  0  0  0  0  0  0  0
   45.9665    4.0801   13.0310 C   0  0  0  0  0  0  0  0  0  0  0  0
   47.5332    5.6935   13.7803 C   0  0  0  0  0  0  0  0  0  0  0  0
   47.1641    4.3610   13.6551 C   0  0  0  0  0  0  0  0  0  0  0  0
   47.0198   10.1005   12.5306 H   0  0  0  0  0  0  0  0  0  0  0  0
   44.8352    9.6789   11.4270 H   0  0  0  0  0  0  0  0  0  0  0  0
   43.4494    6.4318   11.4535 H   0  0  0  0  0  0  0  0  0  0  0  0
   48.2764    5.6983   14.2978 H   0  0  0  0  0  0  0  0  0  0  0  0
   44.9587    3.3168   13.0465 H   0  0  0  0  0  0  0  0  0  0  0  0
   47.1562    3.4983   14.2157 H   0  0  0  0  0  0  0  0  0  0  0  0
   44.8921    3.5017   13.0150 H   0  0  0  0  0  0  0  0  0  0  0  0
   48.4868    5.2797   14.9982 H   0  0  0  0  0  0  0  0  0  0  0  0
   43.9254    7.9076   11.1710 H   0  0  0  0  0  0  0  0  0  0  0  0
   47.1249   10.2551   12.7311 H   0  0  0  0  0  0  0  0  0  0  0  0
   45.0473   10.0944   11.3521 H   0  0  0  0  0  0  0  0  0  0  0  0
   46.5129   10.0994   12.9981 H   0  0  0  0  0  0  0  0  0  0  0  0
   47.9918    8.3398   13.8825 H   0  0  0  0  0  0  0  0  0  0  0  0
   43.0473    7.8457   11.2696 H   0  0  0  0  0  0  0  0  0  0  0  0
   45.6248    3.0568   12.9037 H   0  0  0  0  0  0  0  0  0  0  0  0
   48.4731    5.9389   14.2687 H   0  0  0  0  0  0  0  0  0  0  0  0
   47.7934    3.5641   14.0340 H   0  0  0  0  0  0  0  0  0  0  0  0
  2  1  1  0
  3  2  2  0
  4  1  1  0
  5  2  1  0
  6  4  2  0
  7  6  1  0
  8  4  1  0
  9  5  1  0
 10  1  2  0
 11 12  2  0
 12 10  1  0
 11  3  1  0
  7  5  2  0
 14 13  2  0
 15 13  1  0
 16 14  1  0
 17 15  2  0
 18 17  1  0
 19 13  1  0
 20 14  1  0
 21 16  1  0
 22 17  1  0
 23 15  1  0
 24 19  2  0
 25 23  2  0
 16 18  2  0
 24 25  1  0
 27 26  2  0
 28 26  1  0
 29 27  1  0
 30 27  1  0
 31 28  2  0
 32 31  1  0
 33 26  1  0
 34 28  1  0
 35 29  2  0
 36 30  1  0
 37 36  2  0
 32 30  2  0
 35 37  1  0
  6 38  1  0
  7 39  1  0
  9 40  1  0
 10 41  1  0
 11 42  1  0
 12 43  1  0
 18 44  1  0
 20 45  1  0
 23 46  1  0
 24 47  1  0
 25 48  1  0
 31 49  1  0
 32 50  1  0
 33 51  1  0
 35 52  1  0
 36 53  1  0
 37 54  1  0
M  END
> <Uni-Dock RESULT> 
ENERGY=   -9.092  LOWER_BOUND=    3.356  UPPER_BOUND=    4.783
INTER + INTRA:          -9.092
INTER:                  -9.092
INTRA:                   0.000
UNBOUND:                 0.000

$$$$

     RDKit          3D

 54 57  0  0  0  0  0  0  0  0999 V2000
   44.5655    3.1740   10.0996 C   0  0  0  0  0  0  0  0  0  0  0  0
   44.9442    4.5303   10.1632 C   0  0  0  0  0  0  0  0  0  0  0  0
   45.6267    5.1591    9.1816 N   0  0  0  0  0  0  0  0  0  0  0  0
   43.8493    2.6171   11.1918 C   0  0  0  0  0  0  0  0  0  0  0  0
   44.5989    5.2644   11.2952 C   0  0  0  0  0  0  0  0  0  0  0  0
   43.5206    3.3871   12.3123 C   0  0  0  0  0  0  0  0  0  0  0  0
   43.8981    4.7222   12.3654 C   0  0  0  0  0  0  0  0  0  0  0  0
   43.3438    0.9600   11.1991 Cl  0  0  0  0  0  0  0  0  0  0  0  0
   44.9618    6.5884   11.3709 O   0  0  0  0  0  0  0  0  0  0  0  0
   44.9387    2.4725    8.9315 C   0  0  0  0  0  0  0  0  0  0  0  0
   45.9593    4.4433    8.0860 C   0  0  0  0  0  0  0  0  0  0  0  0
   45.6417    3.1115    7.9155 C   0  0  0  0  0  0  0  0  0  0  0  0
   44.3225    3.3323   10.3205 C   0  0  0  0  0  0  0  0  0  0  0  0
   44.6234    2.6695    9.1231 C   0  0  0  0  0  0  0  0  0  0  0  0
   44.7899    4.6573   10.4876 C   0  0  0  0  0  0  0  0  0  0  0  0
   45.3641    3.2825    8.1080 C   0  0  0  0  0  0  0  0  0  0  0  0
   45.5399    5.2620    9.4462 C   0  0  0  0  0  0  0  0  0  0  0  0
   45.8248    4.5794    8.2649 C   0  0  0  0  0  0  0  0  0  0  0  0
   43.6036    2.7093   11.2818 N   0  0  0  0  0  0  0  0  0  0  0  0
   44.1726    1.3765    8.9488 O   0  0  0  0  0  0  0  0  0  0  0  0
   45.7171    2.4374    6.6451 Cl  0  0  0  0  0  0  0  0  0  0  0  0
   46.1474    6.8808    9.5743 Cl  0  0  0  0  0  0  0  0  0  0  0  0
   44.4720    5.3019   11.7050 C   0  0  0  0  0  0  0  0  0  0  0  0
   43.3241    3.3632   12.4269 C   0  0  0  0  0  0  0  0  0  0  0  0
   43.7328    4.6514   12.6845 C   0  0  0  0  0  0  0  0  0  0  0  0
   44.5493    5.3824   10.9520 C   0  0  0  0  0  0  0  0  0  0  0  0
   44.9881    4.4977    9.9580 C   0  0  0  0  0  0  0  0  0  0  0  0
   43.6707    4.9721   11.9631 C   0  0  0  0  0  0  0  0  0  0  0  0
   45.8367    4.8927    8.9807 N   0  0  0  0  0  0  0  0  0  0  0  0
   44.5092    3.1676   10.0128 C   0  0  0  0  0  0  0  0  0  0  0  0
   43.2083    3.6624   12.0046 C   0  0  0  0  0  0  0  0  0  0  0  0
   43.6275    2.7607   11.0299 C   0  0  0  0  0  0  0  0  0  0  0  0
   44.9983    6.6874   10.9265 O   0  0  0  0  0  0  0  0  0  0  0  0
   43.1466    6.0845   13.1751 Cl  0  0  0  0  0  0  0  0  0  0  0  0
   46.2243    3.9950    8.0506 C   0  0  0  0  0  0  0  0  0  0  0  0
   44.9341    2.2639    9.0293 C   0  0  0  0  0  0  0  0  0  0  0  0
   45.8050    2.6811    8.0317 C   0  0  0  0  0  0  0  0  0  0  0  0
   42.9718    2.9506   13.1433 H   0  0  0  0  0  0  0  0  0  0  0  0
   43.6529    5.3375   13.2260 H   0  0  0  0  0  0  0  0  0  0  0  0
   45.4349    6.7522   10.5263 H   0  0  0  0  0  0  0  0  0  0  0  0
   44.6841    1.4228    8.8057 H   0  0  0  0  0  0  0  0  0  0  0  0
   46.5073    4.9895    7.3230 H   0  0  0  0  0  0  0  0  0  0  0  0
   45.9321    2.5805    7.0157 H   0  0  0  0  0  0  0  0  0  0  0  0
   46.4008    5.0574    7.4769 H   0  0  0  0  0  0  0  0  0  0  0  0
   44.4656    1.0680    8.0733 H   0  0  0  0  0  0  0  0  0  0  0  0
   44.7984    6.3205   11.9021 H   0  0  0  0  0  0  0  0  0  0  0  0
   42.7432    2.7994   13.1511 H   0  0  0  0  0  0  0  0  0  0  0  0
   43.4850    5.1389   13.6204 H   0  0  0  0  0  0  0  0  0  0  0  0
   42.5267    3.3380   12.7864 H   0  0  0  0  0  0  0  0  0  0  0  0
   43.2625    1.7360   11.0666 H   0  0  0  0  0  0  0  0  0  0  0  0
   44.5979    7.1544   11.6807 H   0  0  0  0  0  0  0  0  0  0  0  0
   46.9054    4.3792    7.2965 H   0  0  0  0  0  0  0  0  0  0  0  0
   44.5901    1.2326    9.0347 H   0  0  0  0  0  0  0  0  0  0  0  0
   46.1467    1.9999    7.2612 H   0  0  0  0  0  0  0  0  0  0  0  0
  2  1  1  0
  3  2  2  0
  4  1  1  0
  5  2  1  0
  6  4  2  0
  7  6  1  0
  8  4  1  0
  9  5  1  0
 10  1  2  0
 11 12  2  0
 12 10  1  0
 11  3  1  0
  7  5  2  0
 14 13  2  0
 15 13  1  0
 16 14  1  0
 17 15  2  0
 18 17  1  0
 19 13  1  0
 20 14  1  0
 21 16  1  0
 22 17  1  0
 23 15  1  0
 24 19  2  0
 25 23  2  0
 16 18  2  0
 24 25  1  0
 27 26  2  0
 28 26  1  0
 29 27  1  0
 30 27  1  0
 31 28  2  0
 32 31  1  0
 33 26  1  0
 34 28  1  0
 35 29  2  0
 36 30  1  0
 37 36  2  0
 32 30  2  0
 35 37  1  0
  6 38  1  0
  7 39  1  0
  9 40  1  0
 10 41  1  0
 11 42  1  0
 12 43  1  0
 18 44  1  0
 20 45  1  0
 23 46  1  0
 24 47  1  0
 25 48  1  0
 31 49  1  0
 32 50  1  0
 33 51  1  0
 35 52  1  0
 36 53  1  0
 37 54  1  0
M  END
> <Uni-Dock RESULT> 
ENERGY=   -9.058  LOWER_BOUND=    1.278  UPPER_BOUND=    2.915
INTER + INTRA:          -9.058
INTER:                  -9.058
INTRA:                   0.000
UNBOUND:                 0.000

$$$$

     RDKit          3D

 54 57  0  0  0  0  0  0  0  0999 V2000
   45.6282    4.9273   12.5911 C   0  0  0  0  0  0  0  0  0  0  0  0
   44.9285    6.0694   12.1516 C   0  0  0  0  0  0  0  0  0  0  0  0
   43.7257    6.0151   11.5392 N   0  0  0  0  0  0  0  0  0  0  0  0
   46.8872    5.1040   13.2234 C   0  0  0  0  0  0  0  0  0  0  0  0
   45.5034    7.3211   12.3572 C   0  0  0  0  0  0  0  0  0  0  0  0
   47.4322    6.3783   13.4121 C   0  0  0  0  0  0  0  0  0  0  0  0
   46.7350    7.4970   12.9756 C   0  0  0  0  0  0  0  0  0  0  0  0
   47.8160    3.7577   13.7948 Cl  0  0  0  0  0  0  0  0  0  0  0  0
   44.8322    8.4437   11.9336 O   0  0  0  0  0  0  0  0  0  0  0  0
   45.0039    3.6814   12.3597 C   0  0  0  0  0  0  0  0  0  0  0  0
   43.1722    4.7994   11.3420 C   0  0  0  0  0  0  0  0  0  0  0  0
   43.7654    3.6155   11.7299 C   0  0  0  0  0  0  0  0  0  0  0  0
   45.7424    5.1994   12.8052 C   0  0  0  0  0  0  0  0  0  0  0  0
   45.0767    3.9765   12.6469 C   0  0  0  0  0  0  0  0  0  0  0  0
   45.1414    6.3627   12.2690 C   0  0  0  0  0  0  0  0  0  0  0  0
   43.8508    3.8862   11.9806 C   0  0  0  0  0  0  0  0  0  0  0  0
   43.8974    6.2505   11.5962 C   0  0  0  0  0  0  0  0  0  0  0  0
   43.2568    5.0210   11.4532 C   0  0  0  0  0  0  0  0  0  0  0  0
   46.9271    5.2507   13.4554 N   0  0  0  0  0  0  0  0  0  0  0  0
   45.6533    2.8349   13.1660 O   0  0  0  0  0  0  0  0  0  0  0  0
   43.0574    2.3637   11.8033 Cl  0  0  0  0  0  0  0  0  0  0  0  0
   43.0973    7.6280   10.9120 Cl  0  0  0  0  0  0  0  0  0  0  0  0
   45.8347    7.5824   12.4430 C   0  0  0  0  0  0  0  0  0  0  0  0
   47.5525    6.4363   13.5976 C   0  0  0  0  0  0  0  0  0  0  0  0
   47.0509    7.6221   13.1128 C   0  0  0  0  0  0  0  0  0  0  0  0
   45.1543    7.2414   12.4340 C   0  0  0  0  0  0  0  0  0  0  0  0
   44.7712    5.9286   12.1286 C   0  0  0  0  0  0  0  0  0  0  0  0
   46.2753    7.5119   13.2294 C   0  0  0  0  0  0  0  0  0  0  0  0
   43.6885    5.6657   11.3605 N   0  0  0  0  0  0  0  0  0  0  0  0
   45.5620    4.8805   12.6555 C   0  0  0  0  0  0  0  0  0  0  0  0
   47.0430    6.4725   13.7403 C   0  0  0  0  0  0  0  0  0  0  0  0
   46.6864    5.1574   13.4533 C   0  0  0  0  0  0  0  0  0  0  0  0
   44.4033    8.2866   11.9351 O   0  0  0  0  0  0  0  0  0  0  0  0
   46.7236    9.1399   13.5894 Cl  0  0  0  0  0  0  0  0  0  0  0  0
   43.3691    4.3806   11.1006 C   0  0  0  0  0  0  0  0  0  0  0  0
   45.1988    3.5585   12.3638 C   0  0  0  0  0  0  0  0  0  0  0  0
   44.0859    3.3016   11.5745 C   0  0  0  0  0  0  0  0  0  0  0  0
   48.3970    6.5023   13.8976 H   0  0  0  0  0  0  0  0  0  0  0  0
   47.1403    8.4953   13.1123 H   0  0  0  0  0  0  0  0  0  0  0  0
   44.0072    8.0897   11.5361 H   0  0  0  0  0  0  0  0  0  0  0  0
   45.4789    2.7532   12.6688 H   0  0  0  0  0  0  0  0  0  0  0  0
   42.2053    4.8040   10.8463 H   0  0  0  0  0  0  0  0  0  0  0  0
   43.2793    2.6634   11.5484 H   0  0  0  0  0  0  0  0  0  0  0  0
   42.3040    4.9525   10.9348 H   0  0  0  0  0  0  0  0  0  0  0  0
   45.0674    2.0826   12.9703 H   0  0  0  0  0  0  0  0  0  0  0  0
   45.4324    8.5162   12.0571 H   0  0  0  0  0  0  0  0  0  0  0  0
   48.4983    6.3990   14.1305 H   0  0  0  0  0  0  0  0  0  0  0  0
   47.5884    8.5533   13.2503 H   0  0  0  0  0  0  0  0  0  0  0  0
   47.9138    6.6759   14.3578 H   0  0  0  0  0  0  0  0  0  0  0  0
   47.2908    4.3467   13.8558 H   0  0  0  0  0  0  0  0  0  0  0  0
   44.8080    9.1166   12.2425 H   0  0  0  0  0  0  0  0  0  0  0  0
   42.4894    4.2423   10.4785 H   0  0  0  0  0  0  0  0  0  0  0  0
   45.7792    2.7236   12.7486 H   0  0  0  0  0  0  0  0  0  0  0  0
   43.7863    2.2877   11.3360 H   0  0  0  0  0  0  0  0  0  0  0  0
  2  1  1  0
  3  2  2  0
  4  1  1  0
  5  2  1  0
  6  4  2  0
  7  6  1  0
  8  4  1  0
  9  5  1  0
 10  1  2  0
 11 12  2  0
 12 10  1  0
 11  3  1  0
  7  5  2  0
 14 13  2  0
 15 13  1  0
 16 14  1  0
 17 15  2  0
 18 17  1  0
 19 13  1  0
 20 14  1  0
 21 16  1  0
 22 17  1  0
 23 15  1  0
 24 19  2  0
 25 23  2  0
 16 18  2  0
 24 25  1  0
 27 26  2  0
 28 26  1  0
 29 27  1  0
 30 27  1  0
 31 28  2  0
 32 31  1  0
 33 26  1  0
 34 28  1  0
 35 29  2  0
 36 30  1  0
 37 36  2  0
 32 30  2  0
 35 37  1  0
  6 38  1  0
  7 39  1  0
  9 40  1  0
 10 41  1  0
 11 42  1  0
 12 43  1  0
 18 44  1  0
 20 45  1  0
 23 46  1  0
 24 47  1  0
 25 48  1  0
 31 49  1  0
 32 50  1  0
 33 51  1  0
 35 52  1  0
 36 53  1  0
 37 54  1  0
M  END
> <Uni-Dock RESULT> 
ENERGY=   -9.044  LOWER_BOUND=    2.534  UPPER_BOUND=    4.279
INTER + INTRA:          -9.044
INTER:                  -9.044
INTRA:                   0.000
UNBOUND:                 0.000

$$$$

     RDKit          3D

 54 57  0  0  0  0  0  0  0  0999 V2000
   45.4160    6.5883   12.6034 C   0  0  0  0  0  0  0  0  0  0  0  0
   46.4043    7.4674   13.0907 C   0  0  0  0  0  0  0  0  0  0  0  0
   47.4769    7.0596   13.8034 N   0  0  0  0  0  0  0  0  0  0  0  0
   44.3305    7.1293   11.8649 C   0  0  0  0  0  0  0  0  0  0  0  0
   46.2722    8.8284   12.8261 C   0  0  0  0  0  0  0  0  0  0  0  0
   44.2326    8.5028   11.6195 C   0  0  0  0  0  0  0  0  0  0  0  0
   45.2113    9.3605   12.1039 C   0  0  0  0  0  0  0  0  0  0  0  0
   43.0714    6.1237   11.2284 Cl  0  0  0  0  0  0  0  0  0  0  0  0
   47.2286    9.6975   13.2954 O   0  0  0  0  0  0  0  0  0  0  0  0
   45.5947    5.2183   12.8978 C   0  0  0  0  0  0  0  0  0  0  0  0
   47.6007    5.7393   14.0575 C   0  0  0  0  0  0  0  0  0  0  0  0
   46.6960    4.7888   13.6310 C   0  0  0  0  0  0  0  0  0  0  0  0
   45.4107    6.8748   12.3780 C   0  0  0  0  0  0  0  0  0  0  0  0
   45.6415    5.5111   12.6028 C   0  0  0  0  0  0  0  0  0  0  0  0
   46.3048    7.8085   12.9531 C   0  0  0  0  0  0  0  0  0  0  0  0
   46.7202    5.0636   13.3715 C   0  0  0  0  0  0  0  0  0  0  0  0
   47.3933    7.3349   13.7300 C   0  0  0  0  0  0  0  0  0  0  0  0
   47.5994    5.9722   13.9376 C   0  0  0  0  0  0  0  0  0  0  0  0
   44.3573    7.2729   11.6291 N   0  0  0  0  0  0  0  0  0  0  0  0
   44.7759    4.5909   12.0467 O   0  0  0  0  0  0  0  0  0  0  0  0
   46.9756    3.3762   13.6289 Cl  0  0  0  0  0  0  0  0  0  0  0  0
   48.5319    8.4144   14.4676 Cl  0  0  0  0  0  0  0  0  0  0  0  0
   46.0481    9.1774   12.7102 C   0  0  0  0  0  0  0  0  0  0  0  0
   44.1516    8.5892   11.4239 C   0  0  0  0  0  0  0  0  0  0  0  0
   44.9629    9.5736   11.9392 C   0  0  0  0  0  0  0  0  0  0  0  0
   46.5831    8.6404   12.7799 C   0  0  0  0  0  0  0  0  0  0  0  0
   46.5068    7.2853   13.1281 C   0  0  0  0  0  0  0  0  0  0  0  0
   45.6705    9.2213   11.8899 C   0  0  0  0  0  0  0  0  0  0  0  0
   47.3877    6.7227   13.9877 N   0  0  0  0  0  0  0  0  0  0  0  0
   45.4688    6.5209   12.5452 C   0  0  0  0  0  0  0  0  0  0  0  0
   44.6559    8.4584   11.3247 C   0  0  0  0  0  0  0  0  0  0  0  0
   44.5552    7.1088   11.6524 C   0  0  0  0  0  0  0  0  0  0  0  0
   47.5847    9.4136   13.3316 O   0  0  0  0  0  0  0  0  0  0  0  0
   45.7890   10.8941   11.4789 Cl  0  0  0  0  0  0  0  0  0  0  0  0
   47.2635    5.4122   14.2850 C   0  0  0  0  0  0  0  0  0  0  0  0
   45.3719    5.1628   12.8782 C   0  0  0  0  0  0  0  0  0  0  0  0
   46.2816    4.5971   13.7613 C   0  0  0  0  0  0  0  0  0  0  0  0
   43.3972    8.9065   11.0528 H   0  0  0  0  0  0  0  0  0  0  0  0
   45.1542   10.4301   11.9245 H   0  0  0  0  0  0  0  0  0  0  0  0
   47.8659    9.1164   13.7645 H   0  0  0  0  0  0  0  0  0  0  0  0
   44.8764    4.4760   12.5575 H   0  0  0  0  0  0  0  0  0  0  0  0
   48.4780    5.4573   14.6335 H   0  0  0  0  0  0  0  0  0  0  0  0
   46.8407    3.7392   13.8614 H   0  0  0  0  0  0  0  0  0  0  0  0
   48.4384    5.6261   14.5356 H   0  0  0  0  0  0  0  0  0  0  0  0
   45.0770    3.7000   12.2980 H   0  0  0  0  0  0  0  0  0  0  0  0
   46.6936    9.9505   13.1207 H   0  0  0  0  0  0  0  0  0  0  0  0
   43.2869    8.8321   10.8131 H   0  0  0  0  0  0  0  0  0  0  0  0
   44.7595   10.6211   11.7485 H   0  0  0  0  0  0  0  0  0  0  0  0
   43.9448    8.9033   10.6338 H   0  0  0  0  0  0  0  0  0  0  0  0
   43.7589    6.5154   11.2072 H   0  0  0  0  0  0  0  0  0  0  0  0
   47.4881   10.3174   12.9838 H   0  0  0  0  0  0  0  0  0  0  0  0
   48.0032    5.0265   14.9807 H   0  0  0  0  0  0  0  0  0  0  0  0
   44.5892    4.5395   12.4528 H   0  0  0  0  0  0  0  0  0  0  0  0
   46.2260    3.5494   14.0332 H   0  0  0  0  0  0  0  0  0  0  0  0
  2  1  1  0
  3  2  2  0
  4  1  1  0
  5  2  1  0
  6  4  2  0
  7  6  1  0
  8  4  1  0
  9  5  1  0
 10  1  2  0
 11 12  2  0
 12 10  1  0
 11  3  1  0
  7  5  2  0
 14 13  2  0
 15 13  1  0
 16 14  1  0
 17 15  2  0
 18 17  1  0
 19 13  1  0
 20 14  1  0
 21 16  1  0
 22 17  1  0
 23 15  1  0
 24 19  2  0
 25 23  2  0
 16 18  2  0
 24 25  1  0
 27 26  2  0
 28 26  1  0
 29 27  1  0
 30 27  1  0
 31 28  2  0
 32 31  1  0
 33 26  1  0
 34 28  1  0
 35 29  2  0
 36 30  1  0
 37 36  2  0
 32 30  2  0
 35 37  1  0
  6 38  1  0
  7 39  1  0
  9 40  1  0
 10 41  1  0
 11 42  1  0
 12 43  1  0
 18 44  1  0
 20 45  1  0
 23 46  1  0
 24 47  1  0
 25 48  1  0
 31 49  1  0
 32 50  1  0
 33 51  1  0
 35 52  1  0
 36 53  1  0
 37 54  1  0
M  END
> <Uni-Dock RESULT> 
ENERGY=   -8.752  LOWER_BOUND=    3.512  UPPER_BOUND=    5.524
INTER + INTRA:          -8.752
INTER:                  -8.752
INTRA:                   0.000
UNBOUND:                 0.000

$$$$
