
     RDKit          3D

 54 57  0  0  0  0  0  0  0  0999 V2000
   44.4465    3.2002   10.3156 C   0  0  0  0  0  0  0  0  0  0  0  0
   44.9494    4.5020   10.0885 C   0  0  0  0  0  0  0  0  0  0  0  0
   45.6813    4.7978    8.9891 N   0  0  0  0  0  0  0  0  0  0  0  0
   43.6857    2.9502   11.4861 C   0  0  0  0  0  0  0  0  0  0  0  0
   44.6677    5.4931   11.0428 C   0  0  0  0  0  0  0  0  0  0  0  0
   43.4259    3.9613   12.4131 C   0  0  0  0  0  0  0  0  0  0  0  0
   43.9180    5.2396   12.1927 C   0  0  0  0  0  0  0  0  0  0  0  0
   43.0329    1.3833   11.8403 Cl  0  0  0  0  0  0  0  0  0  0  0  0
   45.1480    6.7672   10.8405 O   0  0  0  0  0  0  0  0  0  0  0  0
   44.7420    2.2181    9.3422 C   0  0  0  0  0  0  0  0  0  0  0  0
   45.9379    3.8289    8.0880 C   0  0  0  0  0  0  0  0  0  0  0  0
   45.4940    2.5328    8.2178 C   0  0  0  0  0  0  0  0  0  0  0  0
   44.4984    3.3428   10.1903 C   0  0  0  0  0  0  0  0  0  0  0  0
   45.0477    3.1791    8.9211 C   0  0  0  0  0  0  0  0  0  0  0  0
   44.6279    4.5896   10.8365 C   0  0  0  0  0  0  0  0  0  0  0  0
   45.7221    4.2108    8.2696 C   0  0  0  0  0  0  0  0  0  0  0  0
   45.3155    5.6336   10.1665 C   0  0  0  0  0  0  0  0  0  0  0  0
   45.8573    5.4441    8.8941 C   0  0  0  0  0  0  0  0  0  0  0  0
   43.8629    2.2869   10.7425 N   0  0  0  0  0  0  0  0  0  0  0  0
   44.9062    1.9498    8.3129 O   0  0  0  0  0  0  0  0  0  0  0  0
   46.3989    3.9985    6.6983 Cl  0  0  0  0  0  0  0  0  0  0  0  0
   45.5215    7.1963   10.8851 Cl  0  0  0  0  0  0  0  0  0  0  0  0
   44.0508    4.6957   12.1214 C   0  0  0  0  0  0  0  0  0  0  0  0
   43.3281    2.4393   11.9731 C   0  0  0  0  0  0  0  0  0  0  0  0
   43.3950    3.6121   12.6957 C   0  0  0  0  0  0  0  0  0  0  0  0
   45.5487    4.4947    9.0712 C   0  0  0  0  0  0  0  0  0  0  0  0
   44.8608    4.5377   10.2818 C   0  0  0  0  0  0  0  0  0  0  0  0
   45.6251    3.3261    8.3116 C   0  0  0  0  0  0  0  0  0  0  0  0
   44.8214    5.6976   10.9728 N   0  0  0  0  0  0  0  0  0  0  0  0
   44.2312    3.3601   10.7360 C   0  0  0  0  0  0  0  0  0  0  0  0
   45.0014    2.1659    8.7653 C   0  0  0  0  0  0  0  0  0  0  0  0
   44.3052    2.1804    9.9747 C   0  0  0  0  0  0  0  0  0  0  0  0
   46.1601    5.6519    8.6373 O   0  0  0  0  0  0  0  0  0  0  0  0
   46.4774    3.2758    6.8132 Cl  0  0  0  0  0  0  0  0  0  0  0  0
   44.1462    5.7079   12.1439 C   0  0  0  0  0  0  0  0  0  0  0  0
   43.5425    3.4152   11.9547 C   0  0  0  0  0  0  0  0  0  0  0  0
   43.4982    4.6060   12.6707 C   0  0  0  0  0  0  0  0  0  0  0  0
   42.8410    3.7552   13.3062 H   0  0  0  0  0  0  0  0  0  0  0  0
   43.7130    6.0222   12.9168 H   0  0  0  0  0  0  0  0  0  0  0  0
   44.8787    7.3414   11.5728 H   0  0  0  0  0  0  0  0  0  0  0  0
   44.3872    1.1961    9.4528 H   0  0  0  0  0  0  0  0  0  0  0  0
   46.5303    4.1395    7.2323 H   0  0  0  0  0  0  0  0  0  0  0  0
   45.7248    1.7859    7.4672 H   0  0  0  0  0  0  0  0  0  0  0  0
   46.3817    6.2541    8.3933 H   0  0  0  0  0  0  0  0  0  0  0  0
   44.4058    1.4104    8.9626 H   0  0  0  0  0  0  0  0  0  0  0  0
   44.1077    5.6242   12.6855 H   0  0  0  0  0  0  0  0  0  0  0  0
   42.8275    1.5623   12.3747 H   0  0  0  0  0  0  0  0  0  0  0  0
   42.9492    3.6851   13.6816 H   0  0  0  0  0  0  0  0  0  0  0  0
   45.0536    1.2494    8.1828 H   0  0  0  0  0  0  0  0  0  0  0  0
   43.8221    1.2684   10.3189 H   0  0  0  0  0  0  0  0  0  0  0  0
   45.9590    6.3091    9.3373 H   0  0  0  0  0  0  0  0  0  0  0  0
   44.1401    6.6609   12.6663 H   0  0  0  0  0  0  0  0  0  0  0  0
   43.0400    2.5358   12.3500 H   0  0  0  0  0  0  0  0  0  0  0  0
   42.9711    4.6721   13.6160 H   0  0  0  0  0  0  0  0  0  0  0  0
  2  1  1  0
  3  2  2  0
  4  1  1  0
  5  2  1  0
  6  4  2  0
  7  6  1  0
  8  4  1  0
  9  5  1  0
 10  1  2  0
 11 12  2  0
 12 10  1  0
 11  3  1  0
  7  5  2  0
 14 13  2  0
 15 13  1  0
 16 14  1  0
 17 15  2  0
 18 17  1  0
 19 13  1  0
 20 14  1  0
 21 16  1  0
 22 17  1  0
 23 15  1  0
 24 19  2  0
 25 23  2  0
 16 18  2  0
 24 25  1  0
 27 26  2  0
 28 26  1  0
 29 27  1  0
 30 27  1  0
 31 28  2  0
 32 31  1  0
 33 26  1  0
 34 28  1  0
 35 29  2  0
 36 30  1  0
 37 36  2  0
 32 30  2  0
 35 37  1  0
  6 38  1  0
  7 39  1  0
  9 40  1  0
 10 41  1  0
 11 42  1  0
 12 43  1  0
 18 44  1  0
 20 45  1  0
 23 46  1  0
 24 47  1  0
 25 48  1  0
 31 49  1  0
 32 50  1  0
 33 51  1  0
 35 52  1  0
 36 53  1  0
 37 54  1  0
M  END
> <Uni-Dock RESULT> 
ENERGY=  -11.478  LOWER_BOUND=    0.000  UPPER_BOUND=    0.000
INTER + INTRA:         -11.478
INTER:                 -11.478
INTRA:                   0.000
UNBOUND:                 0.000

$$$$

     RDKit          3D

 54 57  0  0  0  0  0  0  0  0999 V2000
   44.4238    6.6981   11.9416 C   0  0  0  0  0  0  0  0  0  0  0  0
   45.3649    5.9318   12.6670 C   0  0  0  0  0  0  0  0  0  0  0  0
   45.2009    4.6019   12.8574 N   0  0  0  0  0  0  0  0  0  0  0  0
   44.6493    8.0883   11.7748 C   0  0  0  0  0  0  0  0  0  0  0  0
   46.4879    6.5920   13.1916 C   0  0  0  0  0  0  0  0  0  0  0  0
   45.7782    8.7103   12.3112 C   0  0  0  0  0  0  0  0  0  0  0  0
   46.7035    7.9608   13.0234 C   0  0  0  0  0  0  0  0  0  0  0  0
   43.5456    9.0997   10.8998 Cl  0  0  0  0  0  0  0  0  0  0  0  0
   47.4164    5.8641   13.9010 O   0  0  0  0  0  0  0  0  0  0  0  0
   43.3008    6.0134   11.4223 C   0  0  0  0  0  0  0  0  0  0  0  0
   44.1145    3.9917   12.3436 C   0  0  0  0  0  0  0  0  0  0  0  0
   43.1426    4.6484   11.6237 C   0  0  0  0  0  0  0  0  0  0  0  0
   44.5164    6.5272   11.9719 C   0  0  0  0  0  0  0  0  0  0  0  0
   43.9930    5.2500   11.7863 C   0  0  0  0  0  0  0  0  0  0  0  0
   45.6644    6.6862   12.7754 C   0  0  0  0  0  0  0  0  0  0  0  0
   44.5698    4.1235   12.3709 C   0  0  0  0  0  0  0  0  0  0  0  0
   46.2446    5.5348   13.3663 C   0  0  0  0  0  0  0  0  0  0  0  0
   45.7007    4.2652   13.1648 C   0  0  0  0  0  0  0  0  0  0  0  0
   43.8901    7.5586   11.3657 N   0  0  0  0  0  0  0  0  0  0  0  0
   42.8702    5.1239   10.9960 O   0  0  0  0  0  0  0  0  0  0  0  0
   43.9145    2.5463   12.1353 Cl  0  0  0  0  0  0  0  0  0  0  0  0
   47.6548    5.6373   14.3672 Cl  0  0  0  0  0  0  0  0  0  0  0  0
   46.1491    8.0043   12.9269 C   0  0  0  0  0  0  0  0  0  0  0  0
   44.3927    8.7996   11.5419 C   0  0  0  0  0  0  0  0  0  0  0  0
   45.5087    9.0710   12.3055 C   0  0  0  0  0  0  0  0  0  0  0  0
   44.9916    4.8119   12.6891 C   0  0  0  0  0  0  0  0  0  0  0  0
   45.4564    6.1251   12.6946 C   0  0  0  0  0  0  0  0  0  0  0  0
   43.8158    4.4522   12.0283 C   0  0  0  0  0  0  0  0  0  0  0  0
   46.6009    6.4130   13.3514 N   0  0  0  0  0  0  0  0  0  0  0  0
   44.7063    7.1034   12.0092 C   0  0  0  0  0  0  0  0  0  0  0  0
   43.0790    5.4228   11.3530 C   0  0  0  0  0  0  0  0  0  0  0  0
   43.5213    6.7463   11.3420 C   0  0  0  0  0  0  0  0  0  0  0  0
   45.7331    3.8643   13.3625 O   0  0  0  0  0  0  0  0  0  0  0  0
   43.2429    2.8257   12.0233 Cl  0  0  0  0  0  0  0  0  0  0  0  0
   47.0263    7.6961   13.3387 C   0  0  0  0  0  0  0  0  0  0  0  0
   45.1832    8.4205   12.0214 C   0  0  0  0  0  0  0  0  0  0  0  0
   46.3607    8.7233   12.6958 C   0  0  0  0  0  0  0  0  0  0  0  0
   45.9384    9.7772   12.1755 H   0  0  0  0  0  0  0  0  0  0  0  0
   47.5796    8.4495   13.4385 H   0  0  0  0  0  0  0  0  0  0  0  0
   48.1320    6.4446   14.2003 H   0  0  0  0  0  0  0  0  0  0  0  0
   42.5375    6.5402   10.8546 H   0  0  0  0  0  0  0  0  0  0  0  0
   44.0500    2.9248   12.5362 H   0  0  0  0  0  0  0  0  0  0  0  0
   42.2850    4.1163   11.2291 H   0  0  0  0  0  0  0  0  0  0  0  0
   46.1569    3.3920   13.6246 H   0  0  0  0  0  0  0  0  0  0  0  0
   42.6660    6.0407   10.7112 H   0  0  0  0  0  0  0  0  0  0  0  0
   47.0300    8.2107   13.5310 H   0  0  0  0  0  0  0  0  0  0  0  0
   43.8546    9.5959   11.0345 H   0  0  0  0  0  0  0  0  0  0  0  0
   45.8742   10.0860   12.4165 H   0  0  0  0  0  0  0  0  0  0  0  0
   42.1616    5.1552   10.8346 H   0  0  0  0  0  0  0  0  0  0  0  0
   42.9376    7.4956   10.8114 H   0  0  0  0  0  0  0  0  0  0  0  0
   46.4917    4.3665   13.7296 H   0  0  0  0  0  0  0  0  0  0  0  0
   47.9506    7.8827   13.8791 H   0  0  0  0  0  0  0  0  0  0  0  0
   44.6431    9.2127   11.5089 H   0  0  0  0  0  0  0  0  0  0  0  0
   46.7488    9.7355   12.7187 H   0  0  0  0  0  0  0  0  0  0  0  0
  2  1  1  0
  3  2  2  0
  4  1  1  0
  5  2  1  0
  6  4  2  0
  7  6  1  0
  8  4  1  0
  9  5  1  0
 10  1  2  0
 11 12  2  0
 12 10  1  0
 11  3  1  0
  7  5  2  0
 14 13  2  0
 15 13  1  0
 16 14  1  0
 17 15  2  0
 18 17  1  0
 19 13  1  0
 20 14  1  0
 21 16  1  0
 22 17  1  0
 23 15  1  0
 24 19  2  0
 25 23  2  0
 16 18  2  0
 24 25  1  0
 27 26  2  0
 28 26  1  0
 29 27  1  0
 30 27  1  0
 31 28  2  0
 32 31  1  0
 33 26  1  0
 34 28  1  0
 35 29  2  0
 36 30  1  0
 37 36  2  0
 32 30  2  0
 35 37  1  0
  6 38  1  0
  7 39  1  0
  9 40  1  0
 10 41  1  0
 11 42  1  0
 12 43  1  0
 18 44  1  0
 20 45  1  0
 23 46  1  0
 24 47  1  0
 25 48  1  0
 31 49  1  0
 32 50  1  0
 33 51  1  0
 35 52  1  0
 36 53  1  0
 37 54  1  0
M  END
> <Uni-Dock RESULT> 
ENERGY=  -10.368  LOWER_BOUND=    3.054  UPPER_BOUND=    4.601
INTER + INTRA:         -10.368
INTER:                 -10.368
INTRA:                   0.000
UNBOUND:                 0.000

$$$$

     RDKit          3D

 54 57  0  0  0  0  0  0  0  0999 V2000
   45.2190    4.9675   12.8386 C   0  0  0  0  0  0  0  0  0  0  0  0
   45.3764    6.3491   12.5831 C   0  0  0  0  0  0  0  0  0  0  0  0
   46.4554    7.0344   13.0283 N   0  0  0  0  0  0  0  0  0  0  0  0
   44.0669    4.3028   12.3465 C   0  0  0  0  0  0  0  0  0  0  0  0
   44.3740    7.0015   11.8470 C   0  0  0  0  0  0  0  0  0  0  0  0
   43.0907    4.9849   11.6180 C   0  0  0  0  0  0  0  0  0  0  0  0
   43.2426    6.3407   11.3656 C   0  0  0  0  0  0  0  0  0  0  0  0
   43.7970    2.6112   12.6154 Cl  0  0  0  0  0  0  0  0  0  0  0  0
   44.5082    8.3467   11.5872 O   0  0  0  0  0  0  0  0  0  0  0  0
   46.2400    4.3307   13.5814 C   0  0  0  0  0  0  0  0  0  0  0  0
   47.4037    6.3852   13.7326 C   0  0  0  0  0  0  0  0  0  0  0  0
   47.3428    5.0437   14.0334 C   0  0  0  0  0  0  0  0  0  0  0  0
   45.3366    5.1218   12.8057 C   0  0  0  0  0  0  0  0  0  0  0  0
   46.6096    5.3283   13.3312 C   0  0  0  0  0  0  0  0  0  0  0  0
   44.6267    6.2210   12.2800 C   0  0  0  0  0  0  0  0  0  0  0  0
   47.2038    6.5892   13.3533 C   0  0  0  0  0  0  0  0  0  0  0  0
   45.2386    7.5003   12.3065 C   0  0  0  0  0  0  0  0  0  0  0  0
   46.5162    7.6810   12.8390 C   0  0  0  0  0  0  0  0  0  0  0  0
   44.8427    3.8651   12.8272 N   0  0  0  0  0  0  0  0  0  0  0  0
   47.2808    4.2359   13.8385 O   0  0  0  0  0  0  0  0  0  0  0  0
   48.7804    6.8351   14.0062 Cl  0  0  0  0  0  0  0  0  0  0  0  0
   44.4397    8.9051   11.6827 Cl  0  0  0  0  0  0  0  0  0  0  0  0
   43.3410    5.9502   11.7611 C   0  0  0  0  0  0  0  0  0  0  0  0
   43.6087    3.6584   12.3191 C   0  0  0  0  0  0  0  0  0  0  0  0
   42.8265    4.6584   11.7802 C   0  0  0  0  0  0  0  0  0  0  0  0
   46.3896    6.7031   13.0752 C   0  0  0  0  0  0  0  0  0  0  0  0
   45.1820    6.3243   12.4932 C   0  0  0  0  0  0  0  0  0  0  0  0
   47.2078    5.7833   13.7333 C   0  0  0  0  0  0  0  0  0  0  0  0
   44.4327    7.2592   11.8698 N   0  0  0  0  0  0  0  0  0  0  0  0
   44.7921    4.9716   12.5810 C   0  0  0  0  0  0  0  0  0  0  0  0
   46.8175    4.4485   13.8170 C   0  0  0  0  0  0  0  0  0  0  0  0
   45.6126    4.0411   13.2427 C   0  0  0  0  0  0  0  0  0  0  0  0
   46.7604    8.0281   12.9831 O   0  0  0  0  0  0  0  0  0  0  0  0
   48.7022    6.2553   14.4529 Cl  0  0  0  0  0  0  0  0  0  0  0  0
   43.2661    6.8608   11.3148 C   0  0  0  0  0  0  0  0  0  0  0  0
   43.5759    4.6021   11.9922 C   0  0  0  0  0  0  0  0  0  0  0  0
   42.8000    5.5597   11.3490 C   0  0  0  0  0  0  0  0  0  0  0  0
   42.2123    4.4625   11.2467 H   0  0  0  0  0  0  0  0  0  0  0  0
   42.4804    6.8664   10.7986 H   0  0  0  0  0  0  0  0  0  0  0  0
   43.7488    8.6610   11.0742 H   0  0  0  0  0  0  0  0  0  0  0  0
   46.1838    3.2701   13.8147 H   0  0  0  0  0  0  0  0  0  0  0  0
   48.2392    6.9989   14.0566 H   0  0  0  0  0  0  0  0  0  0  0  0
   48.1295    4.5631   14.6031 H   0  0  0  0  0  0  0  0  0  0  0  0
   46.9720    8.6679   12.8523 H   0  0  0  0  0  0  0  0  0  0  0  0
   46.6623    3.4850   13.7077 H   0  0  0  0  0  0  0  0  0  0  0  0
   42.7298    6.7443   11.3377 H   0  0  0  0  0  0  0  0  0  0  0  0
   43.2552    2.6314   12.3588 H   0  0  0  0  0  0  0  0  0  0  0  0
   41.8405    4.4418   11.3840 H   0  0  0  0  0  0  0  0  0  0  0  0
   47.4459    3.7226   14.3268 H   0  0  0  0  0  0  0  0  0  0  0  0
   45.3181    2.9962   13.3144 H   0  0  0  0  0  0  0  0  0  0  0  0
   46.0286    8.4501   12.4842 H   0  0  0  0  0  0  0  0  0  0  0  0
   42.6956    7.6449   10.8239 H   0  0  0  0  0  0  0  0  0  0  0  0
   43.2288    3.5725   12.0313 H   0  0  0  0  0  0  0  0  0  0  0  0
   41.8552    5.2968   10.8861 H   0  0  0  0  0  0  0  0  0  0  0  0
  2  1  1  0
  3  2  2  0
  4  1  1  0
  5  2  1  0
  6  4  2  0
  7  6  1  0
  8  4  1  0
  9  5  1  0
 10  1  2  0
 11 12  2  0
 12 10  1  0
 11  3  1  0
  7  5  2  0
 14 13  2  0
 15 13  1  0
 16 14  1  0
 17 15  2  0
 18 17  1  0
 19 13  1  0
 20 14  1  0
 21 16  1  0
 22 17  1  0
 23 15  1  0
 24 19  2  0
 25 23  2  0
 16 18  2  0
 24 25  1  0
 27 26  2  0
 28 26  1  0
 29 27  1  0
 30 27  1  0
 31 28  2  0
 32 31  1  0
 33 26  1  0
 34 28  1  0
 35 29  2  0
 36 30  1  0
 37 36  2  0
 32 30  2  0
 35 37  1  0
  6 38  1  0
  7 39  1  0
  9 40  1  0
 10 41  1  0
 11 42  1  0
 12 43  1  0
 18 44  1  0
 20 45  1  0
 23 46  1  0
 24 47  1  0
 25 48  1  0
 31 49  1  0
 32 50  1  0
 33 51  1  0
 35 52  1  0
 36 53  1  0
 37 54  1  0
M  END
> <Uni-Dock RESULT> 
ENERGY=   -9.974  LOWER_BOUND=    3.201  UPPER_BOUND=    4.127
INTER + INTRA:          -9.974
INTER:                  -9.974
INTRA:                   0.000
UNBOUND:                 0.000

$$$$

     RDKit          3D

 54 57  0  0  0  0  0  0  0  0999 V2000
   45.9054    5.9354   12.8410 C   0  0  0  0  0  0  0  0  0  0  0  0
   44.7726    6.3763   12.1189 C   0  0  0  0  0  0  0  0  0  0  0  0
   43.8656    5.5041   11.6203 N   0  0  0  0  0  0  0  0  0  0  0  0
   46.8215    6.8964   13.3395 C   0  0  0  0  0  0  0  0  0  0  0  0
   44.6089    7.7582   11.9292 C   0  0  0  0  0  0  0  0  0  0  0  0
   46.6256    8.2629   13.1310 C   0  0  0  0  0  0  0  0  0  0  0  0
   45.5148    8.6985   12.4229 C   0  0  0  0  0  0  0  0  0  0  0  0
   48.2351    6.4406   14.2343 Cl  0  0  0  0  0  0  0  0  0  0  0  0
   43.5125    8.2083   11.2290 O   0  0  0  0  0  0  0  0  0  0  0  0
   46.0505    4.5402   13.0202 C   0  0  0  0  0  0  0  0  0  0  0  0
   44.0455    4.1827   11.8160 C   0  0  0  0  0  0  0  0  0  0  0  0
   45.1136    3.6543   12.5041 C   0  0  0  0  0  0  0  0  0  0  0  0
   45.7173    5.9111   12.7887 C   0  0  0  0  0  0  0  0  0  0  0  0
   45.0508    4.7015   12.6089 C   0  0  0  0  0  0  0  0  0  0  0  0
   45.1723    7.0831   12.2248 C   0  0  0  0  0  0  0  0  0  0  0  0
   43.8607    4.6141   11.8882 C   0  0  0  0  0  0  0  0  0  0  0  0
   43.9612    6.9851   11.4930 C   0  0  0  0  0  0  0  0  0  0  0  0
   43.3124    5.7604   11.3271 C   0  0  0  0  0  0  0  0  0  0  0  0
   46.8639    5.8984   13.5020 N   0  0  0  0  0  0  0  0  0  0  0  0
   45.6062    3.5716   13.1712 O   0  0  0  0  0  0  0  0  0  0  0  0
   43.0429    3.1121   11.6709 Cl  0  0  0  0  0  0  0  0  0  0  0  0
   43.2213    8.3728   10.7666 Cl  0  0  0  0  0  0  0  0  0  0  0  0
   45.8922    8.2791   12.4404 C   0  0  0  0  0  0  0  0  0  0  0  0
   47.5149    7.0681   13.6798 C   0  0  0  0  0  0  0  0  0  0  0  0
   47.0738    8.2730   13.1740 C   0  0  0  0  0  0  0  0  0  0  0  0
   44.1476    5.4280   11.7962 C   0  0  0  0  0  0  0  0  0  0  0  0
   44.8656    6.5686   12.1485 C   0  0  0  0  0  0  0  0  0  0  0  0
   44.5661    4.1512   12.1745 C   0  0  0  0  0  0  0  0  0  0  0  0
   44.4112    7.7776   11.7535 N   0  0  0  0  0  0  0  0  0  0  0  0
   46.0438    6.4098   12.9075 C   0  0  0  0  0  0  0  0  0  0  0  0
   45.7307    4.0005   12.9242 C   0  0  0  0  0  0  0  0  0  0  0  0
   46.4697    5.1260   13.2912 C   0  0  0  0  0  0  0  0  0  0  0  0
   42.9976    5.5956   11.0541 O   0  0  0  0  0  0  0  0  0  0  0  0
   43.6751    2.7410   11.7369 Cl  0  0  0  0  0  0  0  0  0  0  0  0
   45.1297    8.8656   12.1107 C   0  0  0  0  0  0  0  0  0  0  0  0
   46.7577    7.5637   13.2560 C   0  0  0  0  0  0  0  0  0  0  0  0
   46.2952    8.8111   12.8524 C   0  0  0  0  0  0  0  0  0  0  0  0
   47.3363    8.9886   13.5190 H   0  0  0  0  0  0  0  0  0  0  0  0
   45.3673    9.7623   12.2636 H   0  0  0  0  0  0  0  0  0  0  0  0
   43.5289    9.1756   11.1767 H   0  0  0  0  0  0  0  0  0  0  0  0
   46.8978    4.1312   13.5653 H   0  0  0  0  0  0  0  0  0  0  0  0
   43.2783    3.5442   11.3878 H   0  0  0  0  0  0  0  0  0  0  0  0
   45.2175    2.5838   12.6371 H   0  0  0  0  0  0  0  0  0  0  0  0
   42.3847    5.7013   10.7634 H   0  0  0  0  0  0  0  0  0  0  0  0
   46.4210    3.8928   13.6143 H   0  0  0  0  0  0  0  0  0  0  0  0
   45.5380    9.2259   12.0382 H   0  0  0  0  0  0  0  0  0  0  0  0
   48.4318    7.0068   14.2601 H   0  0  0  0  0  0  0  0  0  0  0  0
   47.6326    9.1866   13.3442 H   0  0  0  0  0  0  0  0  0  0  0  0
   46.0671    3.0114   13.2250 H   0  0  0  0  0  0  0  0  0  0  0  0
   47.3775    4.9960   13.8766 H   0  0  0  0  0  0  0  0  0  0  0  0
   42.9314    6.5660   10.9259 H   0  0  0  0  0  0  0  0  0  0  0  0
   44.7282    9.8171   11.7721 H   0  0  0  0  0  0  0  0  0  0  0  0
   47.6722    7.4970   13.8401 H   0  0  0  0  0  0  0  0  0  0  0  0
   46.8312    9.7178   13.1105 H   0  0  0  0  0  0  0  0  0  0  0  0
  2  1  1  0
  3  2  2  0
  4  1  1  0
  5  2  1  0
  6  4  2  0
  7  6  1  0
  8  4  1  0
  9  5  1  0
 10  1  2  0
 11 12  2  0
 12 10  1  0
 11  3  1  0
  7  5  2  0
 14 13  2  0
 15 13  1  0
 16 14  1  0
 17 15  2  0
 18 17  1  0
 19 13  1  0
 20 14  1  0
 21 16  1  0
 22 17  1  0
 23 15  1  0
 24 19  2  0
 25 23  2  0
 16 18  2  0
 24 25  1  0
 27 26  2  0
 28 26  1  0
 29 27  1  0
 30 27  1  0
 31 28  2  0
 32 31  1  0
 33 26  1  0
 34 28  1  0
 35 29  2  0
 36 30  1  0
 37 36  2  0
 32 30  2  0
 35 37  1  0
  6 38  1  0
  7 39  1  0
  9 40  1  0
 10 41  1  0
 11 42  1  0
 12 43  1  0
 18 44  1  0
 20 45  1  0
 23 46  1  0
 24 47  1  0
 25 48  1  0
 31 49  1  0
 32 50  1  0
 33 51  1  0
 35 52  1  0
 36 53  1  0
 37 54  1  0
M  END
> <Uni-Dock RESULT> 
ENERGY=   -9.704  LOWER_BOUND=    2.877  UPPER_BOUND=    4.405
INTER + INTRA:          -9.704
INTER:                  -9.704
INTRA:                   0.000
UNBOUND:                 0.000

$$$$

     RDKit          3D

 54 57  0  0  0  0  0  0  0  0999 V2000
   44.8248    6.5142   12.3833 C   0  0  0  0  0  0  0  0  0  0  0  0
   45.8616    5.7726   12.9950 C   0  0  0  0  0  0  0  0  0  0  0  0
   47.0109    6.3613   13.4005 N   0  0  0  0  0  0  0  0  0  0  0  0
   43.6430    5.8423   11.9793 C   0  0  0  0  0  0  0  0  0  0  0  0
   45.6677    4.3932   13.1742 C   0  0  0  0  0  0  0  0  0  0  0  0
   43.4860    4.4688   12.1739 C   0  0  0  0  0  0  0  0  0  0  0  0
   44.5017    3.7384   12.7740 C   0  0  0  0  0  0  0  0  0  0  0  0
   42.3248    6.6766   11.2224 Cl  0  0  0  0  0  0  0  0  0  0  0  0
   46.6649    3.6529   13.7680 O   0  0  0  0  0  0  0  0  0  0  0  0
   45.0410    7.9012   12.2128 C   0  0  0  0  0  0  0  0  0  0  0  0
   47.1724    7.6869   13.2172 C   0  0  0  0  0  0  0  0  0  0  0  0
   46.2242    8.4949   12.6326 C   0  0  0  0  0  0  0  0  0  0  0  0
   44.9743    6.5046   12.5109 C   0  0  0  0  0  0  0  0  0  0  0  0
   45.8495    7.5336   12.8495 C   0  0  0  0  0  0  0  0  0  0  0  0
   45.3440    5.1724   12.7890 C   0  0  0  0  0  0  0  0  0  0  0  0
   47.0806    7.2865   13.4554 C   0  0  0  0  0  0  0  0  0  0  0  0
   46.5981    4.9302   13.4055 C   0  0  0  0  0  0  0  0  0  0  0  0
   47.4578    5.9793   13.7351 C   0  0  0  0  0  0  0  0  0  0  0  0
   43.8037    6.8402   11.9271 N   0  0  0  0  0  0  0  0  0  0  0  0
   45.4626    8.8263   12.5661 O   0  0  0  0  0  0  0  0  0  0  0  0
   48.1576    8.5671   13.8709 Cl  0  0  0  0  0  0  0  0  0  0  0  0
   47.1326    3.3262   13.7830 Cl  0  0  0  0  0  0  0  0  0  0  0  0
   44.4161    4.1722   12.4232 C   0  0  0  0  0  0  0  0  0  0  0  0
   42.9507    5.8469   11.5964 C   0  0  0  0  0  0  0  0  0  0  0  0
   43.2088    4.5109   11.8216 C   0  0  0  0  0  0  0  0  0  0  0  0
   46.7453    6.5130   13.2496 C   0  0  0  0  0  0  0  0  0  0  0  0
   45.7286    5.6082   12.9526 C   0  0  0  0  0  0  0  0  0  0  0  0
   46.6217    7.8745   12.9679 C   0  0  0  0  0  0  0  0  0  0  0  0
   45.9056    4.3023   13.2485 N   0  0  0  0  0  0  0  0  0  0  0  0
   44.5506    6.0989   12.3517 C   0  0  0  0  0  0  0  0  0  0  0  0
   45.4559    8.3535   12.3743 C   0  0  0  0  0  0  0  0  0  0  0  0
   44.4211    7.4695   12.0659 C   0  0  0  0  0  0  0  0  0  0  0  0
   47.8922    6.0218   13.8369 O   0  0  0  0  0  0  0  0  0  0  0  0
   47.8822    8.9922   13.3369 Cl  0  0  0  0  0  0  0  0  0  0  0  0
   44.9011    3.4489   12.9482 C   0  0  0  0  0  0  0  0  0  0  0  0
   43.5349    5.1801   12.0574 C   0  0  0  0  0  0  0  0  0  0  0  0
   43.7111    3.8345   12.3595 C   0  0  0  0  0  0  0  0  0  0  0  0
   42.5744    3.9666   11.8592 H   0  0  0  0  0  0  0  0  0  0  0  0
   44.3745    2.6706   12.9230 H   0  0  0  0  0  0  0  0  0  0  0  0
   46.3959    2.7240   13.8263 H   0  0  0  0  0  0  0  0  0  0  0  0
   44.2862    8.5324   11.7497 H   0  0  0  0  0  0  0  0  0  0  0  0
   48.1187    8.0892   13.5669 H   0  0  0  0  0  0  0  0  0  0  0  0
   46.3976    9.5571   12.5056 H   0  0  0  0  0  0  0  0  0  0  0  0
   48.4160    5.7776   14.2074 H   0  0  0  0  0  0  0  0  0  0  0  0
   44.5779    8.7326   12.1515 H   0  0  0  0  0  0  0  0  0  0  0  0
   44.6267    3.1203   12.6040 H   0  0  0  0  0  0  0  0  0  0  0  0
   42.0227    6.1667   11.1296 H   0  0  0  0  0  0  0  0  0  0  0  0
   42.4909    3.7493   11.5376 H   0  0  0  0  0  0  0  0  0  0  0  0
   45.3475    9.4117   12.1499 H   0  0  0  0  0  0  0  0  0  0  0  0
   43.5154    7.8550   11.6024 H   0  0  0  0  0  0  0  0  0  0  0  0
   47.7259    5.0589   13.9245 H   0  0  0  0  0  0  0  0  0  0  0  0
   45.0857    2.4087   13.2032 H   0  0  0  0  0  0  0  0  0  0  0  0
   42.6070    5.5059   11.5940 H   0  0  0  0  0  0  0  0  0  0  0  0
   42.9387    3.1054   12.1409 H   0  0  0  0  0  0  0  0  0  0  0  0
  2  1  1  0
  3  2  2  0
  4  1  1  0
  5  2  1  0
  6  4  2  0
  7  6  1  0
  8  4  1  0
  9  5  1  0
 10  1  2  0
 11 12  2  0
 12 10  1  0
 11  3  1  0
  7  5  2  0
 14 13  2  0
 15 13  1  0
 16 14  1  0
 17 15  2  0
 18 17  1  0
 19 13  1  0
 20 14  1  0
 21 16  1  0
 22 17  1  0
 23 15  1  0
 24 19  2  0
 25 23  2  0
 16 18  2  0
 24 25  1  0
 27 26  2  0
 28 26  1  0
 29 27  1  0
 30 27  1  0
 31 28  2  0
 32 31  1  0
 33 26  1  0
 34 28  1  0
 35 29  2  0
 36 30  1  0
 37 36  2  0
 32 30  2  0
 35 37  1  0
  6 38  1  0
  7 39  1  0
  9 40  1  0
 10 41  1  0
 11 42  1  0
 12 43  1  0
 18 44  1  0
 20 45  1  0
 23 46  1  0
 24 47  1  0
 25 48  1  0
 31 49  1  0
 32 50  1  0
 33 51  1  0
 35 52  1  0
 36 53  1  0
 37 54  1  0
M  END
> <Uni-Dock RESULT> 
ENERGY=   -9.570  LOWER_BOUND=    3.414  UPPER_BOUND=    4.899
INTER + INTRA:          -9.570
INTER:                  -9.570
INTRA:                   0.000
UNBOUND:                 0.000

$$$$

     RDKit          3D

 54 57  0  0  0  0  0  0  0  0999 V2000
   46.0578    6.6798   12.9329 C   0  0  0  0  0  0  0  0  0  0  0  0
   44.9145    6.2121   12.2449 C   0  0  0  0  0  0  0  0  0  0  0  0
   44.0781    7.0594   11.6013 N   0  0  0  0  0  0  0  0  0  0  0  0
   46.8976    5.7441   13.5891 C   0  0  0  0  0  0  0  0  0  0  0  0
   44.6646    4.8302   12.2454 C   0  0  0  0  0  0  0  0  0  0  0  0
   46.6169    4.3767   13.5680 C   0  0  0  0  0  0  0  0  0  0  0  0
   45.4958    3.9149   12.8936 C   0  0  0  0  0  0  0  0  0  0  0  0
   48.3181    6.2335   14.4548 Cl  0  0  0  0  0  0  0  0  0  0  0  0
   43.5567    4.3542   11.5813 O   0  0  0  0  0  0  0  0  0  0  0  0
   46.2903    8.0745   12.9196 C   0  0  0  0  0  0  0  0  0  0  0  0
   44.3400    8.3815   11.6157 C   0  0  0  0  0  0  0  0  0  0  0  0
   45.4253    8.9348   12.2559 C   0  0  0  0  0  0  0  0  0  0  0  0
   45.9295    6.6978   12.7848 C   0  0  0  0  0  0  0  0  0  0  0  0
   45.4865    7.8835   12.2041 C   0  0  0  0  0  0  0  0  0  0  0  0
   45.1786    5.5196   12.5931 C   0  0  0  0  0  0  0  0  0  0  0  0
   44.3227    7.9412   11.4387 C   0  0  0  0  0  0  0  0  0  0  0  0
   43.9959    5.5873   11.8131 C   0  0  0  0  0  0  0  0  0  0  0  0
   43.5731    6.7886   11.2416 C   0  0  0  0  0  0  0  0  0  0  0  0
   47.0683    6.7385   13.5095 N   0  0  0  0  0  0  0  0  0  0  0  0
   46.2402    9.0201   12.4079 O   0  0  0  0  0  0  0  0  0  0  0  0
   43.7822    9.4140   10.7239 Cl  0  0  0  0  0  0  0  0  0  0  0  0
   43.0130    4.1901   11.5262 Cl  0  0  0  0  0  0  0  0  0  0  0  0
   45.6771    4.3486   13.2059 C   0  0  0  0  0  0  0  0  0  0  0  0
   47.5031    5.5920   14.0752 C   0  0  0  0  0  0  0  0  0  0  0  0
   46.8492    4.3837   13.9536 C   0  0  0  0  0  0  0  0  0  0  0  0
   44.3590    7.1424   11.7758 C   0  0  0  0  0  0  0  0  0  0  0  0
   44.9803    6.0231   12.3252 C   0  0  0  0  0  0  0  0  0  0  0  0
   44.8885    8.4248   11.9285 C   0  0  0  0  0  0  0  0  0  0  0  0
   44.4206    4.8073   12.1441 N   0  0  0  0  0  0  0  0  0  0  0  0
   46.1748    6.2098   13.0516 C   0  0  0  0  0  0  0  0  0  0  0  0
   46.0687    8.6032   12.6471 C   0  0  0  0  0  0  0  0  0  0  0  0
   46.7124    7.4995   13.2084 C   0  0  0  0  0  0  0  0  0  0  0  0
   43.1918    6.9476   11.0679 O   0  0  0  0  0  0  0  0  0  0  0  0
   44.1171    9.8086   11.2472 Cl  0  0  0  0  0  0  0  0  0  0  0  0
   45.0469    3.7404   12.6893 C   0  0  0  0  0  0  0  0  0  0  0  0
   46.7908    5.0772   13.5995 C   0  0  0  0  0  0  0  0  0  0  0  0
   46.2197    3.8229   13.4166 C   0  0  0  0  0  0  0  0  0  0  0  0
   47.2697    3.6706   14.0755 H   0  0  0  0  0  0  0  0  0  0  0  0
   45.2821    2.8505   12.8802 H   0  0  0  0  0  0  0  0  0  0  0  0
   43.5109    3.3900   11.6649 H   0  0  0  0  0  0  0  0  0  0  0  0
   47.1504    8.5033   13.4282 H   0  0  0  0  0  0  0  0  0  0  0  0
   43.6261    8.9993   11.0788 H   0  0  0  0  0  0  0  0  0  0  0  0
   45.5964   10.0049   12.2409 H   0  0  0  0  0  0  0  0  0  0  0  0
   42.6642    6.8246   10.6462 H   0  0  0  0  0  0  0  0  0  0  0  0
   46.9900    8.7208   12.9661 H   0  0  0  0  0  0  0  0  0  0  0  0
   45.1558    3.3991   13.1056 H   0  0  0  0  0  0  0  0  0  0  0  0
   48.4230    5.6753   14.6479 H   0  0  0  0  0  0  0  0  0  0  0  0
   47.2389    3.4894   14.4273 H   0  0  0  0  0  0  0  0  0  0  0  0
   46.4912    9.5969   12.7731 H   0  0  0  0  0  0  0  0  0  0  0  0
   47.6334    7.6510   13.7674 H   0  0  0  0  0  0  0  0  0  0  0  0
   43.0420    5.9789   11.1100 H   0  0  0  0  0  0  0  0  0  0  0  0
   44.5624    2.7826   12.5191 H   0  0  0  0  0  0  0  0  0  0  0  0
   47.7131    5.1657   14.1683 H   0  0  0  0  0  0  0  0  0  0  0  0
   46.6787    2.9324   13.8315 H   0  0  0  0  0  0  0  0  0  0  0  0
  2  1  1  0
  3  2  2  0
  4  1  1  0
  5  2  1  0
  6  4  2  0
  7  6  1  0
  8  4  1  0
  9  5  1  0
 10  1  2  0
 11 12  2  0
 12 10  1  0
 11  3  1  0
  7  5  2  0
 14 13  2  0
 15 13  1  0
 16 14  1  0
 17 15  2  0
 18 17  1  0
 19 13  1  0
 20 14  1  0
 21 16  1  0
 22 17  1  0
 23 15  1  0
 24 19  2  0
 25 23  2  0
 16 18  2  0
 24 25  1  0
 27 26  2  0
 28 26  1  0
 29 27  1  0
 30 27  1  0
 31 28  2  0
 32 31  1  0
 33 26  1  0
 34 28  1  0
 35 29  2  0
 36 30  1  0
 37 36  2  0
 32 30  2  0
 35 37  1  0
  6 38  1  0
  7 39  1  0
  9 40  1  0
 10 41  1  0
 11 42  1  0
 12 43  1  0
 18 44  1  0
 20 45  1  0
 23 46  1  0
 24 47  1  0
 25 48  1  0
 31 49  1  0
 32 50  1  0
 33 51  1  0
 35 52  1  0
 36 53  1  0
 37 54  1  0
M  END
> <Uni-Dock RESULT> 
ENERGY=   -9.416  LOWER_BOUND=    3.104  UPPER_BOUND=    4.976
INTER + INTRA:          -9.416
INTER:                  -9.416
INTRA:                   0.000
UNBOUND:                 0.000

$$$$

     RDKit          3D

 54 57  0  0  0  0  0  0  0  0999 V2000
   46.0909    5.8483   13.0054 C   0  0  0  0  0  0  0  0  0  0  0  0
   45.0940    6.6323   12.3804 C   0  0  0  0  0  0  0  0  0  0  0  0
   45.2174    7.9751   12.2634 N   0  0  0  0  0  0  0  0  0  0  0  0
   45.9060    4.4452   13.0985 C   0  0  0  0  0  0  0  0  0  0  0  0
   43.9586    5.9763   11.8776 C   0  0  0  0  0  0  0  0  0  0  0  0
   44.7632    3.8278   12.5867 C   0  0  0  0  0  0  0  0  0  0  0  0
   43.7834    4.5947   11.9728 C   0  0  0  0  0  0  0  0  0  0  0  0
   47.0789    3.4118   13.8489 Cl  0  0  0  0  0  0  0  0  0  0  0  0
   42.9763    6.7215   11.2653 O   0  0  0  0  0  0  0  0  0  0  0  0
   47.2253    6.5292   13.5043 C   0  0  0  0  0  0  0  0  0  0  0  0
   46.3169    8.5810   12.7542 C   0  0  0  0  0  0  0  0  0  0  0  0
   47.3416    7.9074   13.3788 C   0  0  0  0  0  0  0  0  0  0  0  0
   46.0408    6.0059   12.8987 C   0  0  0  0  0  0  0  0  0  0  0  0
   46.6620    7.2522   12.9091 C   0  0  0  0  0  0  0  0  0  0  0  0
   44.7333    5.8972   12.3817 C   0  0  0  0  0  0  0  0  0  0  0  0
   46.0303    8.3963   12.4237 C   0  0  0  0  0  0  0  0  0  0  0  0
   44.0981    7.0662   11.8900 C   0  0  0  0  0  0  0  0  0  0  0  0
   44.7425    8.3042   11.9116 C   0  0  0  0  0  0  0  0  0  0  0  0
   46.7309    4.9541   13.3899 N   0  0  0  0  0  0  0  0  0  0  0  0
   47.9403    7.3293   13.4204 O   0  0  0  0  0  0  0  0  0  0  0  0
   46.8076    9.9351   12.4409 Cl  0  0  0  0  0  0  0  0  0  0  0  0
   42.4939    7.0250   11.2375 Cl  0  0  0  0  0  0  0  0  0  0  0  0
   44.1552    4.6085   12.3973 C   0  0  0  0  0  0  0  0  0  0  0  0
   46.1339    3.7429   13.3826 C   0  0  0  0  0  0  0  0  0  0  0  0
   44.8604    3.5212   12.9018 C   0  0  0  0  0  0  0  0  0  0  0  0
   45.4392    7.7611   12.4094 C   0  0  0  0  0  0  0  0  0  0  0  0
   44.9938    6.4418   12.3684 C   0  0  0  0  0  0  0  0  0  0  0  0
   46.6723    8.1025   12.9674 C   0  0  0  0  0  0  0  0  0  0  0  0
   43.7912    6.1725   11.8157 N   0  0  0  0  0  0  0  0  0  0  0  0
   45.8239    5.4381   12.9096 C   0  0  0  0  0  0  0  0  0  0  0  0
   47.4880    7.1069   13.5005 C   0  0  0  0  0  0  0  0  0  0  0  0
   47.0669    5.7767   13.4728 C   0  0  0  0  0  0  0  0  0  0  0  0
   44.6191    8.7337   11.8774 O   0  0  0  0  0  0  0  0  0  0  0  0
   47.2210    9.7367   13.0167 Cl  0  0  0  0  0  0  0  0  0  0  0  0
   43.3866    4.8828   11.7907 C   0  0  0  0  0  0  0  0  0  0  0  0
   45.3659    4.1151   12.8629 C   0  0  0  0  0  0  0  0  0  0  0  0
   44.1289    3.8313   12.2953 C   0  0  0  0  0  0  0  0  0  0  0  0
   44.6347    2.7510   12.6651 H   0  0  0  0  0  0  0  0  0  0  0  0
   42.8967    4.1095   11.5765 H   0  0  0  0  0  0  0  0  0  0  0  0
   42.2586    6.1417   10.9695 H   0  0  0  0  0  0  0  0  0  0  0  0
   48.0305    5.9890   13.9966 H   0  0  0  0  0  0  0  0  0  0  0  0
   46.3467    9.6589   12.6243 H   0  0  0  0  0  0  0  0  0  0  0  0
   48.2077    8.4367   13.7584 H   0  0  0  0  0  0  0  0  0  0  0  0
   44.2424    9.1913   11.5311 H   0  0  0  0  0  0  0  0  0  0  0  0
   48.1532    6.4096   13.6891 H   0  0  0  0  0  0  0  0  0  0  0  0
   43.1500    4.4414   12.0163 H   0  0  0  0  0  0  0  0  0  0  0  0
   46.7288    2.9285   13.7878 H   0  0  0  0  0  0  0  0  0  0  0  0
   44.4241    2.5285   12.9175 H   0  0  0  0  0  0  0  0  0  0  0  0
   48.4506    7.3600   13.9378 H   0  0  0  0  0  0  0  0  0  0  0  0
   47.7124    5.0078   13.8921 H   0  0  0  0  0  0  0  0  0  0  0  0
   43.8334    8.2401   11.5587 H   0  0  0  0  0  0  0  0  0  0  0  0
   42.4137    4.7117   11.3373 H   0  0  0  0  0  0  0  0  0  0  0  0
   45.9667    3.3036   13.2661 H   0  0  0  0  0  0  0  0  0  0  0  0
   43.7540    2.8149   12.2481 H   0  0  0  0  0  0  0  0  0  0  0  0
  2  1  1  0
  3  2  2  0
  4  1  1  0
  5  2  1  0
  6  4  2  0
  7  6  1  0
  8  4  1  0
  9  5  1  0
 10  1  2  0
 11 12  2  0
 12 10  1  0
 11  3  1  0
  7  5  2  0
 14 13  2  0
 15 13  1  0
 16 14  1  0
 17 15  2  0
 18 17  1  0
 19 13  1  0
 20 14  1  0
 21 16  1  0
 22 17  1  0
 23 15  1  0
 24 19  2  0
 25 23  2  0
 16 18  2  0
 24 25  1  0
 27 26  2  0
 28 26  1  0
 29 27  1  0
 30 27  1  0
 31 28  2  0
 32 31  1  0
 33 26  1  0
 34 28  1  0
 35 29  2  0
 36 30  1  0
 37 36  2  0
 32 30  2  0
 35 37  1  0
  6 38  1  0
  7 39  1  0
  9 40  1  0
 10 41  1  0
 11 42  1  0
 12 43  1  0
 18 44  1  0
 20 45  1  0
 23 46  1  0
 24 47  1  0
 25 48  1  0
 31 49  1  0
 32 50  1  0
 33 51  1  0
 35 52  1  0
 36 53  1  0
 37 54  1  0
M  END
> <Uni-Dock RESULT> 
ENERGY=   -9.109  LOWER_BOUND=    3.306  UPPER_BOUND=    4.694
INTER + INTRA:          -9.109
INTER:                  -9.109
INTRA:                   0.000
UNBOUND:                 0.000

$$$$

     RDKit          3D

 54 57  0  0  0  0  0  0  0  0999 V2000
   44.9800    5.8698   12.1969 C   0  0  0  0  0  0  0  0  0  0  0  0
   46.0236    6.4838   12.9270 C   0  0  0  0  0  0  0  0  0  0  0  0
   46.2154    7.8234   12.8997 N   0  0  0  0  0  0  0  0  0  0  0  0
   44.8283    4.4613   12.2644 C   0  0  0  0  0  0  0  0  0  0  0  0
   46.8667    5.6603   13.6906 C   0  0  0  0  0  0  0  0  0  0  0  0
   45.6865    3.6746   13.0348 C   0  0  0  0  0  0  0  0  0  0  0  0
   46.7114    4.2744   13.7523 C   0  0  0  0  0  0  0  0  0  0  0  0
   43.5757    3.6297   11.4005 Cl  0  0  0  0  0  0  0  0  0  0  0  0
   47.8889    6.2384   14.4089 O   0  0  0  0  0  0  0  0  0  0  0  0
   44.1432    6.7176   11.4350 C   0  0  0  0  0  0  0  0  0  0  0  0
   45.3924    8.5919   12.1590 C   0  0  0  0  0  0  0  0  0  0  0  0
   44.3492    8.0909   11.4144 C   0  0  0  0  0  0  0  0  0  0  0  0
   45.0492    6.0246   12.2968 C   0  0  0  0  0  0  0  0  0  0  0  0
   44.7622    7.3665   12.0596 C   0  0  0  0  0  0  0  0  0  0  0  0
   46.1886    5.6927   13.0585 C   0  0  0  0  0  0  0  0  0  0  0  0
   45.5675    8.3922   12.5525 C   0  0  0  0  0  0  0  0  0  0  0  0
   47.0023    6.7424   13.5561 C   0  0  0  0  0  0  0  0  0  0  0  0
   46.6930    8.0800   13.3043 C   0  0  0  0  0  0  0  0  0  0  0  0
   44.2116    5.1004   11.7790 N   0  0  0  0  0  0  0  0  0  0  0  0
   43.6421    7.6621   11.3118 O   0  0  0  0  0  0  0  0  0  0  0  0
   45.2041   10.0508   12.2536 Cl  0  0  0  0  0  0  0  0  0  0  0  0
   48.4199    6.4264   14.5003 Cl  0  0  0  0  0  0  0  0  0  0  0  0
   46.4282    4.3161   13.2658 C   0  0  0  0  0  0  0  0  0  0  0  0
   44.4845    3.7974   12.0055 C   0  0  0  0  0  0  0  0  0  0  0  0
   45.5696    3.3592   12.7353 C   0  0  0  0  0  0  0  0  0  0  0  0
   45.9747    7.6477   12.7341 C   0  0  0  0  0  0  0  0  0  0  0  0
   46.0708    6.2788   12.9744 C   0  0  0  0  0  0  0  0  0  0  0  0
   44.9701    8.1822   11.9258 C   0  0  0  0  0  0  0  0  0  0  0  0
   47.0648    5.8201   13.7654 N   0  0  0  0  0  0  0  0  0  0  0  0
   45.1192    5.4261   12.3771 C   0  0  0  0  0  0  0  0  0  0  0  0
   44.0329    7.3351   11.3383 C   0  0  0  0  0  0  0  0  0  0  0  0
   44.1052    5.9595   11.5621 C   0  0  0  0  0  0  0  0  0  0  0  0
   46.9105    8.4714   13.3232 O   0  0  0  0  0  0  0  0  0  0  0  0
   44.8537    9.8772   11.6300 Cl  0  0  0  0  0  0  0  0  0  0  0  0
   47.1317    4.4870   13.9799 C   0  0  0  0  0  0  0  0  0  0  0  0
   45.2256    4.0516   12.6257 C   0  0  0  0  0  0  0  0  0  0  0  0
   46.2465    3.5731   13.4391 C   0  0  0  0  0  0  0  0  0  0  0  0
   45.5584    2.5956   13.0773 H   0  0  0  0  0  0  0  0  0  0  0  0
   47.3760    3.6580   14.3498 H   0  0  0  0  0  0  0  0  0  0  0  0
   48.3851    5.5556   14.8846 H   0  0  0  0  0  0  0  0  0  0  0  0
   43.3211    6.3131   10.8494 H   0  0  0  0  0  0  0  0  0  0  0  0
   45.6067    9.6564   12.1855 H   0  0  0  0  0  0  0  0  0  0  0  0
   43.7124    8.7475   10.8331 H   0  0  0  0  0  0  0  0  0  0  0  0
   47.3265    8.8736   13.6926 H   0  0  0  0  0  0  0  0  0  0  0  0
   43.2569    6.7870   11.0899 H   0  0  0  0  0  0  0  0  0  0  0  0
   47.2864    3.9781   13.8427 H   0  0  0  0  0  0  0  0  0  0  0  0
   43.7822    3.0922   11.5689 H   0  0  0  0  0  0  0  0  0  0  0  0
   45.7462    2.3005   12.8898 H   0  0  0  0  0  0  0  0  0  0  0  0
   43.2457    7.7392   10.7068 H   0  0  0  0  0  0  0  0  0  0  0  0
   43.3679    5.3077   11.0981 H   0  0  0  0  0  0  0  0  0  0  0  0
   47.4890    7.8595   13.8265 H   0  0  0  0  0  0  0  0  0  0  0  0
   47.9463    4.1618   14.6218 H   0  0  0  0  0  0  0  0  0  0  0  0
   44.5179    3.3508   12.1897 H   0  0  0  0  0  0  0  0  0  0  0  0
   46.3483    2.5134   13.6455 H   0  0  0  0  0  0  0  0  0  0  0  0
  2  1  1  0
  3  2  2  0
  4  1  1  0
  5  2  1  0
  6  4  2  0
  7  6  1  0
  8  4  1  0
  9  5  1  0
 10  1  2  0
 11 12  2  0
 12 10  1  0
 11  3  1  0
  7  5  2  0
 14 13  2  0
 15 13  1  0
 16 14  1  0
 17 15  2  0
 18 17  1  0
 19 13  1  0
 20 14  1  0
 21 16  1  0
 22 17  1  0
 23 15  1  0
 24 19  2  0
 25 23  2  0
 16 18  2  0
 24 25  1  0
 27 26  2  0
 28 26  1  0
 29 27  1  0
 30 27  1  0
 31 28  2  0
 32 31  1  0
 33 26  1  0
 34 28  1  0
 35 29  2  0
 36 30  1  0
 37 36  2  0
 32 30  2  0
 35 37  1  0
  6 38  1  0
  7 39  1  0
  9 40  1  0
 10 41  1  0
 11 42  1  0
 12 43  1  0
 18 44  1  0
 20 45  1  0
 23 46  1  0
 24 47  1  0
 25 48  1  0
 31 49  1  0
 32 50  1  0
 33 51  1  0
 35 52  1  0
 36 53  1  0
 37 54  1  0
M  END
> <Uni-Dock RESULT> 
ENERGY=   -9.104  LOWER_BOUND=    2.940  UPPER_BOUND=    4.562
INTER + INTRA:          -9.104
INTER:                  -9.104
INTRA:                   0.000
UNBOUND:                 0.000

$$$$

     RDKit          3D

 54 57  0  0  0  0  0  0  0  0999 V2000
   46.6326    7.5686   13.0150 C   0  0  0  0  0  0  0  0  0  0  0  0
   45.5402    6.7887   12.5707 C   0  0  0  0  0  0  0  0  0  0  0  0
   45.5062    5.4477   12.7509 N   0  0  0  0  0  0  0  0  0  0  0  0
   46.6120    8.9700   12.7980 C   0  0  0  0  0  0  0  0  0  0  0  0
   44.4779    7.4470   11.9300 C   0  0  0  0  0  0  0  0  0  0  0  0
   45.5379    9.5898   12.1568 C   0  0  0  0  0  0  0  0  0  0  0  0
   44.4645    8.8270   11.7197 C   0  0  0  0  0  0  0  0  0  0  0  0
   47.9104    9.9984   13.3110 Cl  0  0  0  0  0  0  0  0  0  0  0  0
   43.4046    6.7060   11.4898 O   0  0  0  0  0  0  0  0  0  0  0  0
   47.6910    6.8855   13.6575 C   0  0  0  0  0  0  0  0  0  0  0  0
   46.5382    4.8396   13.3689 C   0  0  0  0  0  0  0  0  0  0  0  0
   47.6456    5.5091   13.8371 C   0  0  0  0  0  0  0  0  0  0  0  0
   46.5154    7.4121   13.0373 C   0  0  0  0  0  0  0  0  0  0  0  0
   46.8742    6.1675   13.5489 C   0  0  0  0  0  0  0  0  0  0  0  0
   45.3379    7.5227   12.2693 C   0  0  0  0  0  0  0  0  0  0  0  0
   46.1043    5.0271   13.3248 C   0  0  0  0  0  0  0  0  0  0  0  0
   44.5606    6.3575   12.0462 C   0  0  0  0  0  0  0  0  0  0  0  0
   44.9420    5.1212   12.5701 C   0  0  0  0  0  0  0  0  0  0  0  0
   47.3233    8.4602   13.3065 N   0  0  0  0  0  0  0  0  0  0  0  0
   48.0303    6.0884   14.2961 O   0  0  0  0  0  0  0  0  0  0  0  0
   46.5566    3.4905   13.9623 Cl  0  0  0  0  0  0  0  0  0  0  0  0
   43.1004    6.4014   11.1152 Cl  0  0  0  0  0  0  0  0  0  0  0  0
   45.0256    8.8095   11.7774 C   0  0  0  0  0  0  0  0  0  0  0  0
   46.9808    9.6698   12.8132 C   0  0  0  0  0  0  0  0  0  0  0  0
   45.8533    9.8932   12.0509 C   0  0  0  0  0  0  0  0  0  0  0  0
   45.7551    5.6607   12.8454 C   0  0  0  0  0  0  0  0  0  0  0  0
   45.4738    6.9791   12.4942 C   0  0  0  0  0  0  0  0  0  0  0  0
   46.9212    5.3166   13.5311 C   0  0  0  0  0  0  0  0  0  0  0  0
   44.3290    7.2511   11.8310 N   0  0  0  0  0  0  0  0  0  0  0  0
   46.4030    7.9791   12.8492 C   0  0  0  0  0  0  0  0  0  0  0  0
   47.8356    6.3086   13.8790 C   0  0  0  0  0  0  0  0  0  0  0  0
   47.5792    7.6378   13.5399 C   0  0  0  0  0  0  0  0  0  0  0  0
   44.8394    4.6918   12.4931 O   0  0  0  0  0  0  0  0  0  0  0  0
   47.2669    3.6836   13.9645 Cl  0  0  0  0  0  0  0  0  0  0  0  0
   44.0841    8.5398   11.5041 C   0  0  0  0  0  0  0  0  0  0  0  0
   46.1097    9.3012   12.4909 C   0  0  0  0  0  0  0  0  0  0  0  0
   44.9330    9.5877   11.8081 C   0  0  0  0  0  0  0  0  0  0  0  0
   45.5355   10.6653   11.9970 H   0  0  0  0  0  0  0  0  0  0  0  0
   43.6317    9.3140   11.2217 H   0  0  0  0  0  0  0  0  0  0  0  0
   42.7523    7.2869   11.0706 H   0  0  0  0  0  0  0  0  0  0  0  0
   48.5624    7.4225   14.0244 H   0  0  0  0  0  0  0  0  0  0  0  0
   46.4415    3.7633   13.4779 H   0  0  0  0  0  0  0  0  0  0  0  0
   48.4525    4.9781   14.3284 H   0  0  0  0  0  0  0  0  0  0  0  0
   44.3356    4.2370   12.3904 H   0  0  0  0  0  0  0  0  0  0  0  0
   48.3796    7.0057   14.3062 H   0  0  0  0  0  0  0  0  0  0  0  0
   44.1344    8.9780   11.1767 H   0  0  0  0  0  0  0  0  0  0  0  0
   47.6616   10.4813   13.0566 H   0  0  0  0  0  0  0  0  0  0  0  0
   45.6210   10.8843   11.6773 H   0  0  0  0  0  0  0  0  0  0  0  0
   48.7474    6.0533   14.4131 H   0  0  0  0  0  0  0  0  0  0  0  0
   48.3004    8.4038   13.8168 H   0  0  0  0  0  0  0  0  0  0  0  0
   44.1285    5.1866   12.0324 H   0  0  0  0  0  0  0  0  0  0  0  0
   43.1526    8.7132   10.9716 H   0  0  0  0  0  0  0  0  0  0  0  0
   46.7923   10.1098   12.7404 H   0  0  0  0  0  0  0  0  0  0  0  0
   44.6852   10.6035   11.5207 H   0  0  0  0  0  0  0  0  0  0  0  0
  2  1  1  0
  3  2  2  0
  4  1  1  0
  5  2  1  0
  6  4  2  0
  7  6  1  0
  8  4  1  0
  9  5  1  0
 10  1  2  0
 11 12  2  0
 12 10  1  0
 11  3  1  0
  7  5  2  0
 14 13  2  0
 15 13  1  0
 16 14  1  0
 17 15  2  0
 18 17  1  0
 19 13  1  0
 20 14  1  0
 21 16  1  0
 22 17  1  0
 23 15  1  0
 24 19  2  0
 25 23  2  0
 16 18  2  0
 24 25  1  0
 27 26  2  0
 28 26  1  0
 29 27  1  0
 30 27  1  0
 31 28  2  0
 32 31  1  0
 33 26  1  0
 34 28  1  0
 35 29  2  0
 36 30  1  0
 37 36  2  0
 32 30  2  0
 35 37  1  0
  6 38  1  0
  7 39  1  0
  9 40  1  0
 10 41  1  0
 11 42  1  0
 12 43  1  0
 18 44  1  0
 20 45  1  0
 23 46  1  0
 24 47  1  0
 25 48  1  0
 31 49  1  0
 32 50  1  0
 33 51  1  0
 35 52  1  0
 36 53  1  0
 37 54  1  0
M  END
> <Uni-Dock RESULT> 
ENERGY=   -8.829  LOWER_BOUND=    3.519  UPPER_BOUND=    5.596
INTER + INTRA:          -8.829
INTER:                  -8.829
INTRA:                   0.000
UNBOUND:                 0.000

$$$$
