
     RDKit          3D

129139  0  0  0  0  0  0  0  0999 V2000
   -1.7048   -0.7963   -0.5540 C   0  0  0  0  0  0  0  0  0  0  0  0
   -0.7745   -1.8399   -0.7999 C   0  0  0  0  0  0  0  0  0  0  0  0
   -1.8363   -0.0900    0.6655 C   0  0  0  0  0  0  0  0  0  0  0  0
   -2.5673   -0.4419   -1.6141 C   0  0  0  0  0  0  0  0  0  0  0  0
   -2.7831    0.9292    0.8349 C   0  0  0  0  0  0  0  0  0  0  0  0
   -3.6244    1.2743   -0.2322 C   0  0  0  0  0  0  0  0  0  0  0  0
   -3.5143    0.5832   -1.4446 C   0  0  0  0  0  0  0  0  0  0  0  0
   -0.6894   -2.4923   -1.9951 N   0  0  0  0  0  0  0  0  0  0  0  0
    3.5000   -0.5218   -0.5157 C   0  0  0  0  0  0  0  0  0  0  0  0
    0.2070   -2.3202    0.2509 C   0  0  0  0  0  0  0  0  0  0  0  0
    3.7480    0.1405    0.7018 C   0  0  0  0  0  0  0  0  0  0  0  0
    2.3466   -1.3065   -0.6523 C   0  0  0  0  0  0  0  0  0  0  0  0
    1.4364   -1.4500    0.4071 C   0  0  0  0  0  0  0  0  0  0  0  0
    2.8479   -0.0058    1.7610 C   0  0  0  0  0  0  0  0  0  0  0  0
    1.7093   -0.8013    1.6165 C   0  0  0  0  0  0  0  0  0  0  0  0
   -1.5354   -2.1220   -2.9708 C   0  0  0  0  0  0  0  0  0  0  0  0
   -2.9570    1.6430    1.9967 O   0  0  0  0  0  0  0  0  0  0  0  0
   -4.5184    2.2864    0.0054 O   0  0  0  0  0  0  0  0  0  0  0  0
    4.4409   -0.3438   -1.5015 O   0  0  0  0  0  0  0  0  0  0  0  0
    4.8949    0.8937    0.7609 O   0  0  0  0  0  0  0  0  0  0  0  0
   -2.4762   -1.1202   -2.8314 C   0  0  0  0  0  0  0  0  0  0  0  0
   -2.1896    1.2628    3.1285 C   0  0  0  0  0  0  0  0  0  0  0  0
    4.2048   -0.9715   -2.7540 C   0  0  0  0  0  0  0  0  0  0  0  0
   -5.3259    2.7335   -1.0753 C   0  0  0  0  0  0  0  0  0  0  0  0
    5.1375    1.6360    1.9478 C   0  0  0  0  0  0  0  0  0  0  0  0
   -0.0578   -0.3062    0.7315 C   0  0  2  0  0  0  0  0  0  0  0  0
   -0.6586    0.7863   -0.0923 C   0  0  0  0  0  0  0  0  0  0  0  0
    0.7646   -1.2019   -0.2071 C   0  0  2  0  0  0  0  0  0  0  0  0
   -1.9581    1.0244    0.2812 C   0  0  0  0  0  0  0  0  0  0  0  0
   -1.3752   -0.8929    1.2971 C   0  0  1  0  0  0  0  0  0  0  0  0
   -2.4066    0.1621    1.2435 O   0  0  0  0  0  0  0  0  0  0  0  0
    1.8582   -0.2840   -0.8423 C   0  0  1  0  0  0  0  0  0  0  0  0
   -0.0770    1.4081   -1.1858 C   0  0  0  0  0  0  0  0  0  0  0  0
   -0.1127   -1.9459   -1.1885 C   0  0  0  0  0  0  0  0  0  0  0  0
    1.2496    0.8966   -1.6850 C   0  0  0  0  0  0  0  0  0  0  0  0
    2.7857    0.2544    0.1917 N   0  0  0  0  0  0  0  0  0  0  0  0
    0.8538    0.2695    1.8312 C   0  0  0  0  0  0  0  0  0  0  0  0
   -1.3278   -2.3854   -0.8188 C   0  0  0  0  0  0  0  0  0  0  0  0
   -1.8553   -2.1828    0.5766 C   0  0  2  0  0  0  0  0  0  0  0  0
   -2.7024    1.9995   -0.3419 C   0  0  0  0  0  0  0  0  0  0  0  0
    2.0896    0.9805    1.2650 C   0  0  0  0  0  0  0  0  0  0  0  0
   -0.8227    2.4016   -1.8320 C   0  0  0  0  0  0  0  0  0  0  0  0
   -2.1288    2.7048   -1.3981 C   0  0  0  0  0  0  0  0  0  0  0  0
   -3.9837    2.2560    0.0297 O   0  0  0  0  0  0  0  0  0  0  0  0
   -3.2740   -2.2711    0.5667 O   0  0  0  0  0  0  0  0  0  0  0  0
    3.6907   -0.7647    0.7267 C   0  0  0  0  0  0  0  0  0  0  0  0
   -0.6738    0.7114    0.4585 C   0  0  2  0  0  0  0  0  0  0  0  0
    0.5262   -0.0498   -0.0192 C   0  0  0  0  0  0  0  0  0  0  0  0
   -1.8176    0.5056   -0.5409 C   0  0  2  0  0  0  0  0  0  0  0  0
    1.6883    0.6272    0.2939 C   0  0  0  0  0  0  0  0  0  0  0  0
    0.0063    2.0943    0.5237 C   0  0  1  0  0  0  0  0  0  0  0  0
    1.4323    1.8740    0.8189 O   0  0  0  0  0  0  0  0  0  0  0  0
   -2.0259   -1.0491   -0.6372 C   0  0  2  0  0  0  0  0  0  0  0  0
   -2.2700   -1.6775    0.6905 N   0  0  0  0  0  0  0  0  0  0  0  0
    0.5288   -1.2281   -0.7424 C   0  0  0  0  0  0  0  0  0  0  0  0
   -1.5791    1.2078   -1.8532 C   0  0  0  0  0  0  0  0  0  0  0  0
   -0.7835   -1.7624   -1.2556 C   0  0  0  0  0  0  0  0  0  0  0  0
   -1.0862    0.1810    1.8552 C   0  0  0  0  0  0  0  0  0  0  0  0
   -0.8207    2.3116   -1.9373 C   0  0  0  0  0  0  0  0  0  0  0  0
   -0.1531    2.9666   -0.7617 C   0  0  2  0  0  0  0  0  0  0  0  0
    2.9343    0.0889    0.0212 C   0  0  0  0  0  0  0  0  0  0  0  0
   -2.3171   -0.7362    1.8075 C   0  0  0  0  0  0  0  0  0  0  0  0
    1.7700   -1.7799   -1.0562 C   0  0  0  0  0  0  0  0  0  0  0  0
    2.9617   -1.1382   -0.6570 C   0  0  0  0  0  0  0  0  0  0  0  0
   -3.4358   -2.5562    0.6730 C   0  0  0  0  0  0  0  0  0  0  0  0
    1.0906    3.5051   -1.2162 O   0  0  0  0  0  0  0  0  0  0  0  0
    4.0202    0.8206    0.4050 O   0  0  0  0  0  0  0  0  0  0  0  0
    5.2675    0.1390    0.4098 C   0  0  0  0  0  0  0  0  0  0  0  0
   -1.1823   -0.3482    1.4877 H   0  0  0  0  0  0  0  0  0  0  0  0
   -4.1677    0.8274   -2.2774 H   0  0  0  0  0  0  0  0  0  0  0  0
   -0.3104   -2.4441    1.2066 H   0  0  0  0  0  0  0  0  0  0  0  0
    0.5460   -3.3313   -0.0141 H   0  0  0  0  0  0  0  0  0  0  0  0
    2.1306   -1.8240   -1.5823 H   0  0  0  0  0  0  0  0  0  0  0  0
    3.0037    0.4846    2.7167 H   0  0  0  0  0  0  0  0  0  0  0  0
    1.0305   -0.9057    2.4658 H   0  0  0  0  0  0  0  0  0  0  0  0
   -1.4379   -2.6695   -3.9044 H   0  0  0  0  0  0  0  0  0  0  0  0
   -3.1250   -0.8803   -3.6675 H   0  0  0  0  0  0  0  0  0  0  0  0
   -1.1227    1.4317    2.9526 H   0  0  0  0  0  0  0  0  0  0  0  0
   -2.3870    0.2232    3.4124 H   0  0  0  0  0  0  0  0  0  0  0  0
   -2.4929    1.8975    3.9672 H   0  0  0  0  0  0  0  0  0  0  0  0
    5.0429   -0.7240   -3.4124 H   0  0  0  0  0  0  0  0  0  0  0  0
    3.2912   -0.5863   -3.2207 H   0  0  0  0  0  0  0  0  0  0  0  0
    4.1724   -2.0609   -2.6525 H   0  0  0  0  0  0  0  0  0  0  0  0
   -4.7147    3.0625   -1.9198 H   0  0  0  0  0  0  0  0  0  0  0  0
   -6.0367    1.9590   -1.3732 H   0  0  0  0  0  0  0  0  0  0  0  0
   -5.8999    3.5973   -0.7281 H   0  0  0  0  0  0  0  0  0  0  0  0
    5.2787    0.9741    2.8081 H   0  0  0  0  0  0  0  0  0  0  0  0
    6.0670    2.1970    1.8088 H   0  0  0  0  0  0  0  0  0  0  0  0
    4.3375    2.3611    2.1334 H   0  0  0  0  0  0  0  0  0  0  0  0
    1.2630   -1.9880    0.3771 H   0  0  0  0  0  0  0  0  0  0  0  0
   -1.2662   -1.1354    2.3632 H   0  0  0  0  0  0  0  0  0  0  0  0
    2.4618   -0.8719   -1.5470 H   0  0  0  0  0  0  0  0  0  0  0  0
    0.2654   -2.1605   -2.1842 H   0  0  0  0  0  0  0  0  0  0  0  0
    1.9684    1.7232   -1.7568 H   0  0  0  0  0  0  0  0  0  0  0  0
    1.0892    0.5264   -2.7062 H   0  0  0  0  0  0  0  0  0  0  0  0
    1.1817   -0.5510    2.4856 H   0  0  0  0  0  0  0  0  0  0  0  0
    0.3022    0.9748    2.4674 H   0  0  0  0  0  0  0  0  0  0  0  0
   -1.9284   -2.9658   -1.5124 H   0  0  0  0  0  0  0  0  0  0  0  0
   -1.4982   -3.0418    1.1605 H   0  0  0  0  0  0  0  0  0  0  0  0
    2.7837    1.2070    2.0839 H   0  0  0  0  0  0  0  0  0  0  0  0
    1.7973    1.9666    0.8836 H   0  0  0  0  0  0  0  0  0  0  0  0
   -0.4105    2.9245   -2.6926 H   0  0  0  0  0  0  0  0  0  0  0  0
   -2.7090    3.4707   -1.9127 H   0  0  0  0  0  0  0  0  0  0  0  0
   -4.1267    1.7448    0.8531 H   0  0  0  0  0  0  0  0  0  0  0  0
   -3.5849   -1.6436   -0.1153 H   0  0  0  0  0  0  0  0  0  0  0  0
    3.1786   -1.5165    1.3335 H   0  0  0  0  0  0  0  0  0  0  0  0
    4.2233   -1.2765   -0.0819 H   0  0  0  0  0  0  0  0  0  0  0  0
    4.4579   -0.2958    1.3522 H   0  0  0  0  0  0  0  0  0  0  0  0
   -2.7426    0.9524   -0.1475 H   0  0  0  0  0  0  0  0  0  0  0  0
   -0.3869    2.6807    1.3636 H   0  0  0  0  0  0  0  0  0  0  0  0
   -2.8825   -1.2301   -1.3005 H   0  0  0  0  0  0  0  0  0  0  0  0
   -2.0667    0.8223   -2.7452 H   0  0  0  0  0  0  0  0  0  0  0  0
   -0.8024   -1.6099   -2.3436 H   0  0  0  0  0  0  0  0  0  0  0  0
   -0.8357   -2.8462   -1.0865 H   0  0  0  0  0  0  0  0  0  0  0  0
   -1.3383    1.0215    2.5173 H   0  0  0  0  0  0  0  0  0  0  0  0
   -0.2566   -0.3541    2.3391 H   0  0  0  0  0  0  0  0  0  0  0  0
   -0.6996    2.8040   -2.8984 H   0  0  0  0  0  0  0  0  0  0  0  0
   -0.7789    3.8315   -0.4981 H   0  0  0  0  0  0  0  0  0  0  0  0
   -2.3620   -1.2854    2.7553 H   0  0  0  0  0  0  0  0  0  0  0  0
   -3.2306   -0.1277    1.7640 H   0  0  0  0  0  0  0  0  0  0  0  0
    1.8248   -2.7017   -1.6326 H   0  0  0  0  0  0  0  0  0  0  0  0
    3.9014   -1.6082   -0.9340 H   0  0  0  0  0  0  0  0  0  0  0  0
   -4.3582   -2.0146    0.4352 H   0  0  0  0  0  0  0  0  0  0  0  0
   -3.3008   -3.3546   -0.0614 H   0  0  0  0  0  0  0  0  0  0  0  0
   -3.5684   -3.0437    1.6444 H   0  0  0  0  0  0  0  0  0  0  0  0
    1.7900    3.0591   -0.6946 H   0  0  0  0  0  0  0  0  0  0  0  0
    5.2171   -0.7839    1.0000 H   0  0  0  0  0  0  0  0  0  0  0  0
    6.0070    0.7952    0.8832 H   0  0  0  0  0  0  0  0  0  0  0  0
    5.6068   -0.0625   -0.6125 H   0  0  0  0  0  0  0  0  0  0  0  0
  2  1  1  0
  3  1  2  0
  4  1  1  0
  5  3  1  0
  6  7  1  0
  7  4  2  0
  8  2  2  0
  9 12  2  0
 10  2  1  0
 11 14  2  0
 12 13  1  0
 13 10  1  0
 14 15  1  0
 15 13  2  0
 16 21  2  0
 17  5  1  0
 18  6  1  0
 19  9  1  0
 20 11  1  0
 21  4  1  0
 22 17  1  0
 23 19  1  0
 24 18  1  0
 25 20  1  0
 16  8  1  0
  6  5  2  0
 11  9  1  0
 27 26  1  0
 28 26  1  0
 29 27  2  0
 30 26  1  0
 30 31  1  0
 32 28  1  0
 33 27  1  0
 28 34  1  0
 32 35  1  0
 36 41  1  0
 26 37  1  1
 38 39  1  0
 39 30  1  0
 40 29  1  0
 41 37  1  0
 42 33  2  0
 43 42  1  0
 44 40  1  0
 39 45  1  0
 46 36  1  0
 29 31  1  0
 32 36  1  0
 38 34  2  0
 35 33  1  0
 43 40  2  0
 48 47  1  0
 49 47  1  0
 50 48  2  0
 51 47  1  0
 52 51  1  0
 53 49  1  0
 54 62  1  0
 55 48  1  0
 49 56  1  0
 53 57  1  0
 47 58  1  1
 59 60  1  0
 60 51  1  0
 61 50  1  0
 62 58  1  0
 63 55  2  0
 64 63  1  0
 65 54  1  0
 60 66  1  0
 67 61  1  0
 68 67  1  0
 52 50  1  0
 53 54  1  0
 59 56  2  0
 57 55  1  0
 64 61  2  0
  3 69  1  0
  7 70  1  0
 10 71  1  0
 10 72  1  0
 12 73  1  0
 14 74  1  0
 15 75  1  0
 16 76  1  0
 21 77  1  0
 22 78  1  0
 22 79  1  0
 22 80  1  0
 23 81  1  0
 23 82  1  0
 23 83  1  0
 24 84  1  0
 24 85  1  0
 24 86  1  0
 25 87  1  0
 25 88  1  0
 25 89  1  0
 28 90  1  1
 30 91  1  1
 32 92  1  6
 34 93  1  0
 35 94  1  0
 35 95  1  0
 37 96  1  0
 37 97  1  0
 38 98  1  0
 39 99  1  1
 41100  1  0
 41101  1  0
 42102  1  0
 43103  1  0
 44104  1  0
 45105  1  0
 46106  1  0
 46107  1  0
 46108  1  0
 49109  1  1
 51110  1  1
 53111  1  6
 56112  1  0
 57113  1  0
 57114  1  0
 58115  1  0
 58116  1  0
 59117  1  0
 60118  1  1
 62119  1  0
 62120  1  0
 63121  1  0
 64122  1  0
 65123  1  0
 65124  1  0
 65125  1  0
 66126  1  0
 68127  1  0
 68128  1  0
 68129  1  0
M  END
$$$$
