
     RDKit          3D

129139  0  0  0  0  0  0  0  0999 V2000
    1.5602   -1.0864    0.0945 C   0  0  0  0  0  0  0  0  0  0  0  0
    0.4475   -1.8750    0.4860 C   0  0  0  0  0  0  0  0  0  0  0  0
    1.9739    0.1139    0.7233 C   0  0  0  0  0  0  0  0  0  0  0  0
    2.3135   -1.5438   -1.0082 C   0  0  0  0  0  0  0  0  0  0  0  0
    3.0903    0.8353    0.2809 C   0  0  0  0  0  0  0  0  0  0  0  0
    3.8199    0.3718   -0.8253 C   0  0  0  0  0  0  0  0  0  0  0  0
    3.4275   -0.8119   -1.4571 C   0  0  0  0  0  0  0  0  0  0  0  0
    0.1008   -3.0342   -0.1427 N   0  0  0  0  0  0  0  0  0  0  0  0
   -3.6813   -0.1980   -0.0286 C   0  0  0  0  0  0  0  0  0  0  0  0
   -0.4778   -1.4791    1.6206 C   0  0  0  0  0  0  0  0  0  0  0  0
   -3.6823    1.1541    0.3645 C   0  0  0  0  0  0  0  0  0  0  0  0
   -2.6369   -1.0345    0.3834 C   0  0  0  0  0  0  0  0  0  0  0  0
   -1.5978   -0.5519    1.1970 C   0  0  0  0  0  0  0  0  0  0  0  0
   -2.6540    1.6342    1.1824 C   0  0  0  0  0  0  0  0  0  0  0  0
   -1.6227    0.7869    1.5983 C   0  0  0  0  0  0  0  0  0  0  0  0
    0.8493   -3.4285   -1.1885 C   0  0  0  0  0  0  0  0  0  0  0  0
    3.5383    2.0000    0.8541 O   0  0  0  0  0  0  0  0  0  0  0  0
    4.8968    1.1352   -1.2013 O   0  0  0  0  0  0  0  0  0  0  0  0
   -4.7299   -0.5991   -0.8202 O   0  0  0  0  0  0  0  0  0  0  0  0
   -4.7341    1.9150   -0.0826 O   0  0  0  0  0  0  0  0  0  0  0  0
    1.9449   -2.7282   -1.6521 C   0  0  0  0  0  0  0  0  0  0  0  0
    2.9161    2.4319    2.0556 C   0  0  0  0  0  0  0  0  0  0  0  0
   -4.8145   -1.9800   -1.1433 C   0  0  0  0  0  0  0  0  0  0  0  0
    5.6201    0.7379   -2.3574 C   0  0  0  0  0  0  0  0  0  0  0  0
   -4.6458    3.3215    0.0964 C   0  0  0  0  0  0  0  0  0  0  0  0
    0.0313    0.9000    0.2539 C   0  0  2  0  0  0  0  0  0  0  0  0
    0.7815   -0.3511   -0.0703 C   0  0  0  0  0  0  0  0  0  0  0  0
   -1.0384    1.1307   -0.8232 C   0  0  2  0  0  0  0  0  0  0  0  0
    2.1192   -0.2077    0.2224 C   0  0  0  0  0  0  0  0  0  0  0  0
    1.2381    1.8593    0.2819 C   0  0  1  0  0  0  0  0  0  0  0  0
    2.4315    1.0648    0.6289 O   0  0  0  0  0  0  0  0  0  0  0  0
   -1.9498   -0.1421   -0.8200 C   0  0  1  0  0  0  0  0  0  0  0  0
    0.2623   -1.4838   -0.6730 C   0  0  0  0  0  0  0  0  0  0  0  0
   -0.4341    1.4859   -2.1611 C   0  0  0  0  0  0  0  0  0  0  0  0
   -1.1554   -1.4479   -1.1817 C   0  0  0  0  0  0  0  0  0  0  0  0
   -2.6577   -0.1612    0.4895 N   0  0  0  0  0  0  0  0  0  0  0  0
   -0.6443    0.7606    1.6324 C   0  0  0  0  0  0  0  0  0  0  0  0
    0.7218    2.1624   -2.2464 C   0  0  0  0  0  0  0  0  0  0  0  0
    1.4863    2.6376   -1.0442 C   0  0  2  0  0  0  0  0  0  0  0  0
    2.9910   -1.2566    0.0309 C   0  0  0  0  0  0  0  0  0  0  0  0
   -1.7553   -0.3001    1.6386 C   0  0  0  0  0  0  0  0  0  0  0  0
    1.1348   -2.5557   -0.8747 C   0  0  0  0  0  0  0  0  0  0  0  0
    2.4925   -2.4489   -0.5055 C   0  0  0  0  0  0  0  0  0  0  0  0
    4.3101   -1.1049    0.3288 O   0  0  0  0  0  0  0  0  0  0  0  0
    2.8689    2.6758   -1.3912 O   0  0  0  0  0  0  0  0  0  0  0  0
   -3.7392   -1.1405    0.5456 C   0  0  0  0  0  0  0  0  0  0  0  0
   -0.6593    0.9963    0.2617 C   0  0  2  0  0  0  0  0  0  0  0  0
    0.3282   -0.1267    0.1458 C   0  0  0  0  0  0  0  0  0  0  0  0
   -1.6068    0.9545   -0.9481 C   0  0  2  0  0  0  0  0  0  0  0  0
    1.5622    0.2550    0.6314 C   0  0  0  0  0  0  0  0  0  0  0  0
    0.3771    2.1364    0.3345 C   0  0  1  0  0  0  0  0  0  0  0  0
    1.5922    1.5907    0.9622 O   0  0  0  0  0  0  0  0  0  0  0  0
   -2.2605   -0.4776   -0.9151 C   0  0  2  0  0  0  0  0  0  0  0  0
   -3.0827   -0.6486    0.3166 N   0  0  0  0  0  0  0  0  0  0  0  0
    0.1072   -1.3614   -0.4326 C   0  0  0  0  0  0  0  0  0  0  0  0
   -0.9165    1.3290   -2.2369 C   0  0  0  0  0  0  0  0  0  0  0  0
   -1.1763   -1.5831   -1.1830 C   0  0  0  0  0  0  0  0  0  0  0  0
   -1.4443    0.8060    1.5833 C   0  0  0  0  0  0  0  0  0  0  0  0
    0.1416    2.1538   -2.2592 C   0  0  0  0  0  0  0  0  0  0  0  0
    0.7288    2.7952   -1.0354 C   0  0  2  0  0  0  0  0  0  0  0  0
    2.6255   -0.6283    0.6770 C   0  0  0  0  0  0  0  0  0  0  0  0
   -2.8949    0.3715    1.3486 C   0  0  0  0  0  0  0  0  0  0  0  0
    1.1620   -2.2733   -0.4048 C   0  0  0  0  0  0  0  0  0  0  0  0
    2.4041   -1.9166    0.1678 C   0  0  0  0  0  0  0  0  0  0  0  0
   -3.1596   -1.9922    0.8695 C   0  0  0  0  0  0  0  0  0  0  0  0
    2.1377    2.9059   -1.2401 O   0  0  0  0  0  0  0  0  0  0  0  0
    3.7977   -0.1504    1.1859 O   0  0  0  0  0  0  0  0  0  0  0  0
    4.9006   -1.0463    1.2095 C   0  0  0  0  0  0  0  0  0  0  0  0
    1.4085    0.4806    1.5699 H   0  0  0  0  0  0  0  0  0  0  0  0
    3.9834   -1.1906   -2.3090 H   0  0  0  0  0  0  0  0  0  0  0  0
    0.0924   -1.0539    2.4540 H   0  0  0  0  0  0  0  0  0  0  0  0
   -0.9316   -2.3879    2.0404 H   0  0  0  0  0  0  0  0  0  0  0  0
   -2.5995   -2.0764    0.0766 H   0  0  0  0  0  0  0  0  0  0  0  0
   -2.6313    2.6645    1.5214 H   0  0  0  0  0  0  0  0  0  0  0  0
   -0.8422    1.1887    2.2396 H   0  0  0  0  0  0  0  0  0  0  0  0
    0.5340   -4.3537   -1.6634 H   0  0  0  0  0  0  0  0  0  0  0  0
    2.4988   -3.1087   -2.5041 H   0  0  0  0  0  0  0  0  0  0  0  0
    2.9970    1.6720    2.8401 H   0  0  0  0  0  0  0  0  0  0  0  0
    3.4436    3.3255    2.4034 H   0  0  0  0  0  0  0  0  0  0  0  0
    1.8720    2.7101    1.8789 H   0  0  0  0  0  0  0  0  0  0  0  0
   -4.8822   -2.5962   -0.2404 H   0  0  0  0  0  0  0  0  0  0  0  0
   -5.7332   -2.1329   -1.7181 H   0  0  0  0  0  0  0  0  0  0  0  0
   -3.9736   -2.2888   -1.7731 H   0  0  0  0  0  0  0  0  0  0  0  0
    4.9780    0.7338   -3.2444 H   0  0  0  0  0  0  0  0  0  0  0  0
    6.4125    1.4739   -2.5249 H   0  0  0  0  0  0  0  0  0  0  0  0
    6.0974   -0.2359   -2.2080 H   0  0  0  0  0  0  0  0  0  0  0  0
   -4.7089    3.5865    1.1567 H   0  0  0  0  0  0  0  0  0  0  0  0
   -3.7355    3.7249   -0.3597 H   0  0  0  0  0  0  0  0  0  0  0  0
   -5.5018    3.7774   -0.4107 H   0  0  0  0  0  0  0  0  0  0  0  0
   -1.6609    1.9951   -0.5450 H   0  0  0  0  0  0  0  0  0  0  0  0
    1.1283    2.5982    1.0855 H   0  0  0  0  0  0  0  0  0  0  0  0
   -2.7180   -0.0032   -1.5937 H   0  0  0  0  0  0  0  0  0  0  0  0
   -0.9734    1.2219   -3.0668 H   0  0  0  0  0  0  0  0  0  0  0  0
   -1.1049   -1.5070   -2.2778 H   0  0  0  0  0  0  0  0  0  0  0  0
   -1.6881   -2.3433   -0.8486 H   0  0  0  0  0  0  0  0  0  0  0  0
    0.0860    0.5125    2.4134 H   0  0  0  0  0  0  0  0  0  0  0  0
   -1.0805    1.7294    1.9107 H   0  0  0  0  0  0  0  0  0  0  0  0
    1.1157    2.4397   -3.2209 H   0  0  0  0  0  0  0  0  0  0  0  0
    1.1829    3.6800   -0.8844 H   0  0  0  0  0  0  0  0  0  0  0  0
   -1.3170   -1.3048    1.6772 H   0  0  0  0  0  0  0  0  0  0  0  0
   -2.3253   -0.1788    2.5682 H   0  0  0  0  0  0  0  0  0  0  0  0
    0.7801   -3.4699   -1.3453 H   0  0  0  0  0  0  0  0  0  0  0  0
    3.1496   -3.2954   -0.6824 H   0  0  0  0  0  0  0  0  0  0  0  0
    4.7673   -1.9433    0.1604 H   0  0  0  0  0  0  0  0  0  0  0  0
    3.3015    1.9710   -0.8675 H   0  0  0  0  0  0  0  0  0  0  0  0
   -4.4282   -1.0068   -0.2955 H   0  0  0  0  0  0  0  0  0  0  0  0
   -3.3793   -2.1737    0.5390 H   0  0  0  0  0  0  0  0  0  0  0  0
   -4.3309   -0.9982    1.4563 H   0  0  0  0  0  0  0  0  0  0  0  0
   -2.4016    1.7058   -0.8343 H   0  0  0  0  0  0  0  0  0  0  0  0
    0.0257    2.9367    0.9975 H   0  0  0  0  0  0  0  0  0  0  0  0
   -2.9742   -0.5433   -1.7474 H   0  0  0  0  0  0  0  0  0  0  0  0
   -1.3222    0.9495   -3.1715 H   0  0  0  0  0  0  0  0  0  0  0  0
   -1.5577   -2.5915   -0.9989 H   0  0  0  0  0  0  0  0  0  0  0  0
   -0.9318   -1.5560   -2.2541 H   0  0  0  0  0  0  0  0  0  0  0  0
   -1.4788    1.7505    2.1410 H   0  0  0  0  0  0  0  0  0  0  0  0
   -0.9581    0.0782    2.2466 H   0  0  0  0  0  0  0  0  0  0  0  0
    0.5891    2.4264   -3.2123 H   0  0  0  0  0  0  0  0  0  0  0  0
    0.3477    3.8240   -1.0169 H   0  0  0  0  0  0  0  0  0  0  0  0
   -3.3415    0.0660    2.3037 H   0  0  0  0  0  0  0  0  0  0  0  0
   -3.4792    1.2540    1.0544 H   0  0  0  0  0  0  0  0  0  0  0  0
    1.0464   -3.2584   -0.8512 H   0  0  0  0  0  0  0  0  0  0  0  0
    3.1920   -2.6634    0.1600 H   0  0  0  0  0  0  0  0  0  0  0  0
   -2.2107   -2.3165    1.3094 H   0  0  0  0  0  0  0  0  0  0  0  0
   -3.4710   -2.7123    0.1054 H   0  0  0  0  0  0  0  0  0  0  0  0
   -3.9253   -2.0446    1.6524 H   0  0  0  0  0  0  0  0  0  0  0  0
    2.5624    2.3900   -0.5256 H   0  0  0  0  0  0  0  0  0  0  0  0
    5.7543   -0.5150    1.6425 H   0  0  0  0  0  0  0  0  0  0  0  0
    4.6910   -1.9139    1.8442 H   0  0  0  0  0  0  0  0  0  0  0  0
    5.1797   -1.3558    0.1967 H   0  0  0  0  0  0  0  0  0  0  0  0
  2  1  1  0
  3  1  2  0
  4  1  1  0
  5  3  1  0
  6  7  1  0
  7  4  2  0
  8  2  2  0
  9 12  2  0
 10  2  1  0
 11 14  2  0
 12 13  1  0
 13 10  1  0
 14 15  1  0
 15 13  2  0
 16 21  2  0
 17  5  1  0
 18  6  1  0
 19  9  1  0
 20 11  1  0
 21  4  1  0
 22 17  1  0
 23 19  1  0
 24 18  1  0
 25 20  1  0
 16  8  1  0
  6  5  2  0
 11  9  1  0
 27 26  1  0
 28 26  1  0
 29 27  2  0
 30 26  1  0
 30 31  1  0
 32 28  1  0
 33 27  1  0
 28 34  1  0
 32 35  1  0
 36 41  1  0
 26 37  1  1
 38 39  1  0
 39 30  1  0
 40 29  1  0
 41 37  1  0
 42 33  2  0
 43 42  1  0
 44 40  1  0
 39 45  1  0
 46 36  1  0
 29 31  1  0
 32 36  1  0
 38 34  2  0
 35 33  1  0
 43 40  2  0
 48 47  1  0
 49 47  1  0
 50 48  2  0
 51 47  1  0
 52 51  1  0
 53 49  1  0
 54 62  1  0
 55 48  1  0
 49 56  1  0
 53 57  1  0
 47 58  1  1
 59 60  1  0
 60 51  1  0
 61 50  1  0
 62 58  1  0
 63 55  2  0
 64 63  1  0
 65 54  1  0
 60 66  1  0
 67 61  1  0
 68 67  1  0
 52 50  1  0
 53 54  1  0
 59 56  2  0
 57 55  1  0
 64 61  2  0
  3 69  1  0
  7 70  1  0
 10 71  1  0
 10 72  1  0
 12 73  1  0
 14 74  1  0
 15 75  1  0
 16 76  1  0
 21 77  1  0
 22 78  1  0
 22 79  1  0
 22 80  1  0
 23 81  1  0
 23 82  1  0
 23 83  1  0
 24 84  1  0
 24 85  1  0
 24 86  1  0
 25 87  1  0
 25 88  1  0
 25 89  1  0
 28 90  1  1
 30 91  1  1
 32 92  1  6
 34 93  1  0
 35 94  1  0
 35 95  1  0
 37 96  1  0
 37 97  1  0
 38 98  1  0
 39 99  1  1
 41100  1  0
 41101  1  0
 42102  1  0
 43103  1  0
 44104  1  0
 45105  1  0
 46106  1  0
 46107  1  0
 46108  1  0
 49109  1  1
 51110  1  1
 53111  1  6
 56112  1  0
 57113  1  0
 57114  1  0
 58115  1  0
 58116  1  0
 59117  1  0
 60118  1  1
 62119  1  0
 62120  1  0
 63121  1  0
 64122  1  0
 65123  1  0
 65124  1  0
 65125  1  0
 66126  1  0
 68127  1  0
 68128  1  0
 68129  1  0
M  END
$$$$
