
     RDKit          3D

129139  0  0  0  0  0  0  0  0999 V2000
    1.5604    0.7149    0.9618 C   0  0  0  0  0  0  0  0  0  0  0  0
    0.5929    1.5315    1.6023 C   0  0  0  0  0  0  0  0  0  0  0  0
    1.4194   -0.6718    0.7092 C   0  0  0  0  0  0  0  0  0  0  0  0
    2.7559    1.3417    0.5512 C   0  0  0  0  0  0  0  0  0  0  0  0
    2.4243   -1.4130    0.0741 C   0  0  0  0  0  0  0  0  0  0  0  0
    3.6060   -0.7720   -0.3326 C   0  0  0  0  0  0  0  0  0  0  0  0
    3.7603    0.5967   -0.0918 C   0  0  0  0  0  0  0  0  0  0  0  0
    0.7777    2.8614    1.8318 N   0  0  0  0  0  0  0  0  0  0  0  0
   -3.3085   -0.5596   -0.3004 C   0  0  0  0  0  0  0  0  0  0  0  0
   -0.7453    0.9940    2.0745 C   0  0  0  0  0  0  0  0  0  0  0  0
   -3.7412    0.5545   -1.0367 C   0  0  0  0  0  0  0  0  0  0  0  0
   -2.3551   -0.4181    0.7154 C   0  0  0  0  0  0  0  0  0  0  0  0
   -1.7748    0.8300    0.9757 C   0  0  0  0  0  0  0  0  0  0  0  0
   -3.1700    1.8014   -0.7706 C   0  0  0  0  0  0  0  0  0  0  0  0
   -2.1957    1.9365    0.2242 C   0  0  0  0  0  0  0  0  0  0  0  0
    1.9340    3.4142    1.4232 C   0  0  0  0  0  0  0  0  0  0  0  0
    2.3467   -2.7578   -0.1947 O   0  0  0  0  0  0  0  0  0  0  0  0
    4.5424   -1.5657   -0.9472 O   0  0  0  0  0  0  0  0  0  0  0  0
   -3.9019   -1.7730   -0.5566 O   0  0  0  0  0  0  0  0  0  0  0  0
   -4.6958    0.3194   -1.9933 O   0  0  0  0  0  0  0  0  0  0  0  0
    2.9359    2.7081    0.7882 C   0  0  0  0  0  0  0  0  0  0  0  0
    1.1993   -3.4617    0.2593 C   0  0  0  0  0  0  0  0  0  0  0  0
   -2.9546   -2.8128   -0.7921 C   0  0  0  0  0  0  0  0  0  0  0  0
    5.7493   -0.9542   -1.3763 C   0  0  0  0  0  0  0  0  0  0  0  0
   -5.2597    1.4496   -2.6432 C   0  0  0  0  0  0  0  0  0  0  0  0
   -0.1840    0.6978    0.6125 C   0  0  2  0  0  0  0  0  0  0  0  0
    0.9322   -0.1829    0.1375 C   0  0  0  0  0  0  0  0  0  0  0  0
   -1.2947    0.7188   -0.4422 C   0  0  2  0  0  0  0  0  0  0  0  0
    2.1483    0.3090    0.5627 C   0  0  0  0  0  0  0  0  0  0  0  0
    0.6693    1.9675    0.8049 C   0  0  1  0  0  0  0  0  0  0  0  0
    2.0256    1.5322    1.1808 O   0  0  0  0  0  0  0  0  0  0  0  0
   -1.6903   -0.7838   -0.6782 C   0  0  1  0  0  0  0  0  0  0  0  0
    0.8229   -1.2948   -0.6792 C   0  0  0  0  0  0  0  0  0  0  0  0
   -0.9144    1.4859   -1.6828 C   0  0  0  0  0  0  0  0  0  0  0  0
   -0.5138   -1.6048   -1.3024 C   0  0  0  0  0  0  0  0  0  0  0  0
   -2.0754   -1.4764    0.5820 N   0  0  0  0  0  0  0  0  0  0  0  0
   -0.7344    0.1343    1.9472 C   0  0  0  0  0  0  0  0  0  0  0  0
   -0.0008    2.4670   -1.6624 C   0  0  0  0  0  0  0  0  0  0  0  0
    0.7339    2.9172   -0.4335 C   0  0  2  0  0  0  0  0  0  0  0  0
    3.3130   -0.3735    0.2966 C   0  0  0  0  0  0  0  0  0  0  0  0
   -2.0591   -0.6283    1.7736 C   0  0  0  0  0  0  0  0  0  0  0  0
    1.9977   -1.9928   -0.9714 C   0  0  0  0  0  0  0  0  0  0  0  0
    3.2355   -1.5465   -0.4633 C   0  0  0  0  0  0  0  0  0  0  0  0
    4.5044    0.1131    0.7394 O   0  0  0  0  0  0  0  0  0  0  0  0
    2.0747    3.2128   -0.8311 O   0  0  0  0  0  0  0  0  0  0  0  0
   -3.3469   -2.1823    0.4478 C   0  0  0  0  0  0  0  0  0  0  0  0
   -0.5514    0.5824    0.5638 C   0  0  2  0  0  0  0  0  0  0  0  0
    0.5507   -0.2060   -0.0824 C   0  0  0  0  0  0  0  0  0  0  0  0
   -1.6802    0.7551   -0.4624 C   0  0  2  0  0  0  0  0  0  0  0  0
    1.7850    0.2520    0.3323 C   0  0  0  0  0  0  0  0  0  0  0  0
    0.2971    1.8211    0.9289 C   0  0  1  0  0  0  0  0  0  0  0  0
    1.6789    1.3686    1.1239 O   0  0  0  0  0  0  0  0  0  0  0  0
   -2.1061   -0.6957   -0.8846 C   0  0  2  0  0  0  0  0  0  0  0  0
   -2.5117   -1.5364    0.2754 N   0  0  0  0  0  0  0  0  0  0  0  0
    0.4076   -1.2025   -1.0315 C   0  0  0  0  0  0  0  0  0  0  0  0
   -1.2862    1.6603   -1.6056 C   0  0  0  0  0  0  0  0  0  0  0  0
   -0.9548   -1.4555   -1.6219 C   0  0  0  0  0  0  0  0  0  0  0  0
   -1.0600   -0.1879    1.8072 C   0  0  0  0  0  0  0  0  0  0  0  0
   -0.4144    2.6661   -1.4324 C   0  0  0  0  0  0  0  0  0  0  0  0
    0.1899    2.9976   -0.0923 C   0  0  2  0  0  0  0  0  0  0  0  0
    2.9565   -0.3625   -0.0768 C   0  0  0  0  0  0  0  0  0  0  0  0
   -2.4203   -0.8665    1.5723 C   0  0  0  0  0  0  0  0  0  0  0  0
    1.5722   -1.8289   -1.4750 C   0  0  0  0  0  0  0  0  0  0  0  0
    2.8336   -1.4276   -0.9818 C   0  0  0  0  0  0  0  0  0  0  0  0
   -3.8300   -2.1332    0.0826 C   0  0  0  0  0  0  0  0  0  0  0  0
    1.4366    3.6608   -0.2759 O   0  0  0  0  0  0  0  0  0  0  0  0
    4.1229    0.1389    0.4235 O   0  0  0  0  0  0  0  0  0  0  0  0
    5.3240   -0.5086    0.0327 C   0  0  0  0  0  0  0  0  0  0  0  0
    0.5068   -1.1655    1.0173 H   0  0  0  0  0  0  0  0  0  0  0  0
    4.6663    1.1101   -0.3994 H   0  0  0  0  0  0  0  0  0  0  0  0
   -0.5910    0.0519    2.6144 H   0  0  0  0  0  0  0  0  0  0  0  0
   -1.1650    1.6804    2.8220 H   0  0  0  0  0  0  0  0  0  0  0  0
   -2.0803   -1.2789    1.3178 H   0  0  0  0  0  0  0  0  0  0  0  0
   -3.4562    2.6924   -1.3195 H   0  0  0  0  0  0  0  0  0  0  0  0
   -1.7683    2.9198    0.4173 H   0  0  0  0  0  0  0  0  0  0  0  0
    2.0398    4.4757    1.6265 H   0  0  0  0  0  0  0  0  0  0  0  0
    3.8422    3.2236    0.4857 H   0  0  0  0  0  0  0  0  0  0  0  0
    1.1067   -3.4077    1.3503 H   0  0  0  0  0  0  0  0  0  0  0  0
    0.2917   -3.0960   -0.2349 H   0  0  0  0  0  0  0  0  0  0  0  0
    1.3231   -4.5151   -0.0118 H   0  0  0  0  0  0  0  0  0  0  0  0
   -2.6092   -3.2372    0.1583 H   0  0  0  0  0  0  0  0  0  0  0  0
   -2.1023   -2.4690   -1.3930 H   0  0  0  0  0  0  0  0  0  0  0  0
   -3.4617   -3.6060   -1.3510 H   0  0  0  0  0  0  0  0  0  0  0  0
    6.3753   -1.7308   -1.8279 H   0  0  0  0  0  0  0  0  0  0  0  0
    6.3039   -0.5338   -0.5290 H   0  0  0  0  0  0  0  0  0  0  0  0
    5.5560   -0.1939   -2.1414 H   0  0  0  0  0  0  0  0  0  0  0  0
   -6.0491    1.0900   -3.3098 H   0  0  0  0  0  0  0  0  0  0  0  0
   -5.7179    2.1348   -1.9229 H   0  0  0  0  0  0  0  0  0  0  0  0
   -4.5128    1.9610   -3.2582 H   0  0  0  0  0  0  0  0  0  0  0  0
   -2.1739    1.2486   -0.0494 H   0  0  0  0  0  0  0  0  0  0  0  0
    0.2917    2.5591    1.6488 H   0  0  0  0  0  0  0  0  0  0  0  0
   -2.5279   -0.8048   -1.3880 H   0  0  0  0  0  0  0  0  0  0  0  0
   -1.4314    1.2565   -2.6126 H   0  0  0  0  0  0  0  0  0  0  0  0
   -0.4532   -1.3580   -2.3716 H   0  0  0  0  0  0  0  0  0  0  0  0
   -0.7181   -2.6813   -1.2367 H   0  0  0  0  0  0  0  0  0  0  0  0
   -0.0043   -0.5237    2.4366 H   0  0  0  0  0  0  0  0  0  0  0  0
   -0.9283    0.9547    2.6506 H   0  0  0  0  0  0  0  0  0  0  0  0
    0.2201    3.0100   -2.5789 H   0  0  0  0  0  0  0  0  0  0  0  0
    0.2856    3.8772   -0.1380 H   0  0  0  0  0  0  0  0  0  0  0  0
   -2.8902    0.0887    1.7446 H   0  0  0  0  0  0  0  0  0  0  0  0
   -2.2152   -1.2411    2.6711 H   0  0  0  0  0  0  0  0  0  0  0  0
    1.9658   -2.8744   -1.6080 H   0  0  0  0  0  0  0  0  0  0  0  0
    4.1321   -2.1076   -0.7106 H   0  0  0  0  0  0  0  0  0  0  0  0
    5.1973   -0.5321    0.5295 H   0  0  0  0  0  0  0  0  0  0  0  0
    2.6564    2.7920   -0.1637 H   0  0  0  0  0  0  0  0  0  0  0  0
   -4.1797   -1.4911    0.2729 H   0  0  0  0  0  0  0  0  0  0  0  0
   -3.5642   -2.7668    1.3481 H   0  0  0  0  0  0  0  0  0  0  0  0
   -3.3060   -2.8952   -0.3830 H   0  0  0  0  0  0  0  0  0  0  0  0
   -2.5423    1.2470    0.0078 H   0  0  0  0  0  0  0  0  0  0  0  0
   -0.0116    2.2247    1.9017 H   0  0  0  0  0  0  0  0  0  0  0  0
   -2.9452   -0.6070   -1.5886 H   0  0  0  0  0  0  0  0  0  0  0  0
   -1.7408    1.5003   -2.5801 H   0  0  0  0  0  0  0  0  0  0  0  0
   -0.9336   -1.1120   -2.6637 H   0  0  0  0  0  0  0  0  0  0  0  0
   -1.1574   -2.5331   -1.6474 H   0  0  0  0  0  0  0  0  0  0  0  0
   -0.3339   -0.9430    2.1366 H   0  0  0  0  0  0  0  0  0  0  0  0
   -1.1903    0.5008    2.6514 H   0  0  0  0  0  0  0  0  0  0  0  0
   -0.1770    3.3075   -2.2763 H   0  0  0  0  0  0  0  0  0  0  0  0
   -0.4820    3.7438    0.3519 H   0  0  0  0  0  0  0  0  0  0  0  0
   -3.2159   -0.1176    1.6780 H   0  0  0  0  0  0  0  0  0  0  0  0
   -2.5764   -1.5951    2.3773 H   0  0  0  0  0  0  0  0  0  0  0  0
    1.5174   -2.6208   -2.2184 H   0  0  0  0  0  0  0  0  0  0  0  0
    3.7056   -1.9501   -1.3586 H   0  0  0  0  0  0  0  0  0  0  0  0
   -3.8589   -2.7158   -0.8441 H   0  0  0  0  0  0  0  0  0  0  0  0
   -4.0641   -2.8280    0.8959 H   0  0  0  0  0  0  0  0  0  0  0  0
   -4.6188   -1.3733    0.0381 H   0  0  0  0  0  0  0  0  0  0  0  0
    1.3150    4.3609   -0.9366 H   0  0  0  0  0  0  0  0  0  0  0  0
    5.3317   -1.5560    0.3525 H   0  0  0  0  0  0  0  0  0  0  0  0
    5.4834   -0.4225   -1.0477 H   0  0  0  0  0  0  0  0  0  0  0  0
    6.1554   -0.0021    0.5321 H   0  0  0  0  0  0  0  0  0  0  0  0
  2  1  1  0
  3  1  2  0
  4  1  1  0
  5  3  1  0
  6  7  1  0
  7  4  2  0
  8  2  2  0
  9 12  2  0
 10  2  1  0
 11 14  2  0
 12 13  1  0
 13 10  1  0
 14 15  1  0
 15 13  2  0
 16 21  2  0
 17  5  1  0
 18  6  1  0
 19  9  1  0
 20 11  1  0
 21  4  1  0
 22 17  1  0
 23 19  1  0
 24 18  1  0
 25 20  1  0
 16  8  1  0
  6  5  2  0
 11  9  1  0
 27 26  1  0
 28 26  1  0
 29 27  2  0
 30 26  1  0
 30 31  1  0
 32 28  1  0
 33 27  1  0
 28 34  1  0
 32 35  1  0
 36 41  1  0
 26 37  1  1
 38 39  1  0
 39 30  1  0
 40 29  1  0
 41 37  1  0
 42 33  2  0
 43 42  1  0
 44 40  1  0
 39 45  1  0
 46 36  1  0
 29 31  1  0
 32 36  1  0
 38 34  2  0
 35 33  1  0
 43 40  2  0
 48 47  1  0
 49 47  1  0
 50 48  2  0
 51 47  1  0
 52 51  1  0
 53 49  1  0
 54 62  1  0
 55 48  1  0
 49 56  1  0
 53 57  1  0
 47 58  1  1
 59 60  1  0
 60 51  1  0
 61 50  1  0
 62 58  1  0
 63 55  2  0
 64 63  1  0
 65 54  1  0
 60 66  1  0
 67 61  1  0
 68 67  1  0
 52 50  1  0
 53 54  1  0
 59 56  2  0
 57 55  1  0
 64 61  2  0
  3 69  1  0
  7 70  1  0
 10 71  1  0
 10 72  1  0
 12 73  1  0
 14 74  1  0
 15 75  1  0
 16 76  1  0
 21 77  1  0
 22 78  1  0
 22 79  1  0
 22 80  1  0
 23 81  1  0
 23 82  1  0
 23 83  1  0
 24 84  1  0
 24 85  1  0
 24 86  1  0
 25 87  1  0
 25 88  1  0
 25 89  1  0
 28 90  1  1
 30 91  1  1
 32 92  1  6
 34 93  1  0
 35 94  1  0
 35 95  1  0
 37 96  1  0
 37 97  1  0
 38 98  1  0
 39 99  1  1
 41100  1  0
 41101  1  0
 42102  1  0
 43103  1  0
 44104  1  0
 45105  1  0
 46106  1  0
 46107  1  0
 46108  1  0
 49109  1  1
 51110  1  1
 53111  1  6
 56112  1  0
 57113  1  0
 57114  1  0
 58115  1  0
 58116  1  0
 59117  1  0
 60118  1  1
 62119  1  0
 62120  1  0
 63121  1  0
 64122  1  0
 65123  1  0
 65124  1  0
 65125  1  0
 66126  1  0
 68127  1  0
 68128  1  0
 68129  1  0
M  END
$$$$
