
     RDKit          3D

129139  0  0  0  0  0  0  0  0999 V2000
   -1.2628    0.1308    1.4143 C   0  0  0  0  0  0  0  0  0  0  0  0
   -0.0131   -0.1549    2.0258 C   0  0  0  0  0  0  0  0  0  0  0  0
   -1.5310    1.2382    0.5690 C   0  0  0  0  0  0  0  0  0  0  0  0
   -2.3205   -0.7678    1.6712 C   0  0  0  0  0  0  0  0  0  0  0  0
   -2.7888    1.4402   -0.0125 C   0  0  0  0  0  0  0  0  0  0  0  0
   -3.8268    0.5334    0.2530 C   0  0  0  0  0  0  0  0  0  0  0  0
   -3.5850   -0.5583    1.0918 C   0  0  0  0  0  0  0  0  0  0  0  0
    0.1849   -1.2285    2.8408 N   0  0  0  0  0  0  0  0  0  0  0  0
    2.6319   -0.4221   -1.5804 C   0  0  0  0  0  0  0  0  0  0  0  0
    1.2213    0.7001    1.8125 C   0  0  0  0  0  0  0  0  0  0  0  0
    3.9814   -0.6523   -1.2551 C   0  0  0  0  0  0  0  0  0  0  0  0
    1.7428    0.0153   -0.5891 C   0  0  0  0  0  0  0  0  0  0  0  0
    2.1666    0.2010    0.7366 C   0  0  0  0  0  0  0  0  0  0  0  0
    4.4084   -0.4660    0.0625 C   0  0  0  0  0  0  0  0  0  0  0  0
    3.5093   -0.0453    1.0472 C   0  0  0  0  0  0  0  0  0  0  0  0
   -0.8534   -2.0540    3.0572 C   0  0  0  0  0  0  0  0  0  0  0  0
   -3.0993    2.4852   -0.8472 O   0  0  0  0  0  0  0  0  0  0  0  0
   -5.0298    0.7989   -0.3524 O   0  0  0  0  0  0  0  0  0  0  0  0
    2.2781   -0.6223   -2.8931 O   0  0  0  0  0  0  0  0  0  0  0  0
    4.7911   -1.0611   -2.2854 O   0  0  0  0  0  0  0  0  0  0  0  0
   -2.1041   -1.8699    2.5030 C   0  0  0  0  0  0  0  0  0  0  0  0
   -2.0668    3.4010   -1.1835 C   0  0  0  0  0  0  0  0  0  0  0  0
    0.8909   -0.7416   -3.1782 C   0  0  0  0  0  0  0  0  0  0  0  0
   -6.1074   -0.0932   -0.1084 C   0  0  0  0  0  0  0  0  0  0  0  0
    6.1667   -1.2650   -1.9987 C   0  0  0  0  0  0  0  0  0  0  0  0
    0.3605    0.8227   -0.2892 C   0  0  2  0  0  0  0  0  0  0  0  0
   -0.8882   -0.0017   -0.3970 C   0  0  0  0  0  0  0  0  0  0  0  0
    1.1723    0.3277    0.9137 C   0  0  2  0  0  0  0  0  0  0  0  0
   -1.9457    0.7737   -0.8225 C   0  0  0  0  0  0  0  0  0  0  0  0
   -0.3379    2.1952   -0.1843 C   0  0  1  0  0  0  0  0  0  0  0  0
   -1.6142    2.1032   -0.9123 O   0  0  0  0  0  0  0  0  0  0  0  0
    1.4253   -1.2010    0.6612 C   0  0  1  0  0  0  0  0  0  0  0  0
   -1.0390   -1.3309   -0.0380 C   0  0  0  0  0  0  0  0  0  0  0  0
    0.5218    0.6615    2.2335 C   0  0  0  0  0  0  0  0  0  0  0  0
    0.0965   -2.0242    0.6693 C   0  0  0  0  0  0  0  0  0  0  0  0
    2.0855   -1.4636   -0.6472 N   0  0  0  0  0  0  0  0  0  0  0  0
    1.1865    0.6675   -1.5909 C   0  0  0  0  0  0  0  0  0  0  0  0
   -0.2759    1.7306    2.3775 C   0  0  0  0  0  0  0  0  0  0  0  0
   -0.5856    2.6980    1.2717 C   0  0  2  0  0  0  0  0  0  0  0  0
   -3.1880    0.2158   -1.0289 C   0  0  0  0  0  0  0  0  0  0  0  0
    2.3981   -0.2647   -1.4221 C   0  0  0  0  0  0  0  0  0  0  0  0
   -2.2944   -1.9108   -0.2395 C   0  0  0  0  0  0  0  0  0  0  0  0
   -3.3609   -1.1447   -0.7546 C   0  0  0  0  0  0  0  0  0  0  0  0
   -4.2199    0.9954   -1.4519 O   0  0  0  0  0  0  0  0  0  0  0  0
   -1.9211    3.1624    1.4668 O   0  0  0  0  0  0  0  0  0  0  0  0
    3.2531   -2.3293   -0.5073 C   0  0  0  0  0  0  0  0  0  0  0  0
   -0.7829   -0.8683   -0.3871 C   0  0  2  0  0  0  0  0  0  0  0  0
    0.3514    0.0933   -0.1877 C   0  0  0  0  0  0  0  0  0  0  0  0
   -1.7217   -0.7818    0.8278 C   0  0  2  0  0  0  0  0  0  0  0  0
    1.5289   -0.4262   -0.6854 C   0  0  0  0  0  0  0  0  0  0  0  0
    0.0816   -2.1367   -0.5471 C   0  0  1  0  0  0  0  0  0  0  0  0
    1.3785   -1.7261   -1.1093 O   0  0  0  0  0  0  0  0  0  0  0  0
   -2.1755    0.7239    0.8973 C   0  0  2  0  0  0  0  0  0  0  0  0
   -2.9658    1.0856   -0.3129 N   0  0  0  0  0  0  0  0  0  0  0  0
    0.2960    1.3054    0.4722 C   0  0  0  0  0  0  0  0  0  0  0  0
   -1.0907   -1.3344    2.0833 C   0  0  0  0  0  0  0  0  0  0  0  0
   -0.9543    1.6546    1.2307 C   0  0  0  0  0  0  0  0  0  0  0  0
   -1.5209   -0.4700   -1.6891 C   0  0  0  0  0  0  0  0  0  0  0  0
   -0.1704   -2.3103    2.0380 C   0  0  0  0  0  0  0  0  0  0  0  0
    0.2966   -2.9535    0.7639 C   0  0  2  0  0  0  0  0  0  0  0  0
    2.7067    0.2993   -0.6601 C   0  0  0  0  0  0  0  0  0  0  0  0
   -2.9041    0.1319   -1.4200 C   0  0  0  0  0  0  0  0  0  0  0  0
    1.4685    2.0599    0.5149 C   0  0  0  0  0  0  0  0  0  0  0  0
    2.6587    1.5697   -0.0678 C   0  0  0  0  0  0  0  0  0  0  0  0
   -2.8819    2.4672   -0.7601 C   0  0  0  0  0  0  0  0  0  0  0  0
    1.6592   -3.3381    0.9432 O   0  0  0  0  0  0  0  0  0  0  0  0
    3.8102   -0.3059   -1.1861 O   0  0  0  0  0  0  0  0  0  0  0  0
    5.0242    0.4317   -1.1548 C   0  0  0  0  0  0  0  0  0  0  0  0
   -0.7351    1.9447    0.3651 H   0  0  0  0  0  0  0  0  0  0  0  0
   -4.3754   -1.2697    1.3098 H   0  0  0  0  0  0  0  0  0  0  0  0
    0.9667    1.7456    1.6116 H   0  0  0  0  0  0  0  0  0  0  0  0
    1.7546    0.7336    2.7729 H   0  0  0  0  0  0  0  0  0  0  0  0
    0.7095    0.2190   -0.8419 H   0  0  0  0  0  0  0  0  0  0  0  0
    5.4363   -0.6427    0.3602 H   0  0  0  0  0  0  0  0  0  0  0  0
    3.8708    0.0863    2.0652 H   0  0  0  0  0  0  0  0  0  0  0  0
   -0.6473   -2.8987    3.7083 H   0  0  0  0  0  0  0  0  0  0  0  0
   -2.8936   -2.5815    2.7222 H   0  0  0  0  0  0  0  0  0  0  0  0
   -1.7085    3.9342   -0.2970 H   0  0  0  0  0  0  0  0  0  0  0  0
   -2.4874    4.1428   -1.8692 H   0  0  0  0  0  0  0  0  0  0  0  0
   -1.2448    2.8974   -1.7030 H   0  0  0  0  0  0  0  0  0  0  0  0
    0.3904    0.2281   -3.0917 H   0  0  0  0  0  0  0  0  0  0  0  0
    0.4114   -1.4925   -2.5411 H   0  0  0  0  0  0  0  0  0  0  0  0
    0.7905   -1.0742   -4.2159 H   0  0  0  0  0  0  0  0  0  0  0  0
   -6.9764    0.2732   -0.6632 H   0  0  0  0  0  0  0  0  0  0  0  0
   -6.3737   -0.1098    0.9533 H   0  0  0  0  0  0  0  0  0  0  0  0
   -5.8783   -1.0987   -0.4760 H   0  0  0  0  0  0  0  0  0  0  0  0
    6.6613   -1.5642   -2.9277 H   0  0  0  0  0  0  0  0  0  0  0  0
    6.3038   -2.0747   -1.2745 H   0  0  0  0  0  0  0  0  0  0  0  0
    6.6406   -0.3401   -1.6540 H   0  0  0  0  0  0  0  0  0  0  0  0
    2.1457    0.8383    0.9446 H   0  0  0  0  0  0  0  0  0  0  0  0
    0.2470    2.9685   -0.6981 H   0  0  0  0  0  0  0  0  0  0  0  0
    2.0566   -1.5766    1.4788 H   0  0  0  0  0  0  0  0  0  0  0  0
    0.7416    0.0358    3.0953 H   0  0  0  0  0  0  0  0  0  0  0  0
   -0.2059   -2.1772    1.7133 H   0  0  0  0  0  0  0  0  0  0  0  0
    0.2552   -3.0194    0.2355 H   0  0  0  0  0  0  0  0  0  0  0  0
    1.5774    1.6424   -1.9075 H   0  0  0  0  0  0  0  0  0  0  0  0
    0.5645    0.3030   -2.4192 H   0  0  0  0  0  0  0  0  0  0  0  0
   -0.7003    1.9564    3.3532 H   0  0  0  0  0  0  0  0  0  0  0  0
    0.0623    3.5676    1.4385 H   0  0  0  0  0  0  0  0  0  0  0  0
    2.7481   -0.5474   -2.4227 H   0  0  0  0  0  0  0  0  0  0  0  0
    3.2224    0.2917   -0.9559 H   0  0  0  0  0  0  0  0  0  0  0  0
   -2.4638   -2.9518    0.0256 H   0  0  0  0  0  0  0  0  0  0  0  0
   -4.3262   -1.6220   -0.8946 H   0  0  0  0  0  0  0  0  0  0  0  0
   -5.0111    0.4408   -1.5414 H   0  0  0  0  0  0  0  0  0  0  0  0
   -2.4277    2.8848    0.6766 H   0  0  0  0  0  0  0  0  0  0  0  0
    3.6556   -2.5985   -1.4900 H   0  0  0  0  0  0  0  0  0  0  0  0
    2.9802   -3.2686   -0.0133 H   0  0  0  0  0  0  0  0  0  0  0  0
    4.0496   -1.8505    0.0733 H   0  0  0  0  0  0  0  0  0  0  0  0
   -2.6106   -1.4086    0.6671 H   0  0  0  0  0  0  0  0  0  0  0  0
   -0.3622   -2.8188   -1.2829 H   0  0  0  0  0  0  0  0  0  0  0  0
   -2.8755    0.8286    1.7375 H   0  0  0  0  0  0  0  0  0  0  0  0
   -1.4271   -0.9556    3.0451 H   0  0  0  0  0  0  0  0  0  0  0  0
   -0.7263    1.5307    2.2987 H   0  0  0  0  0  0  0  0  0  0  0  0
   -1.1927    2.7149    1.1061 H   0  0  0  0  0  0  0  0  0  0  0  0
   -1.6733   -1.3530   -2.3221 H   0  0  0  0  0  0  0  0  0  0  0  0
   -0.9361    0.2382   -2.2903 H   0  0  0  0  0  0  0  0  0  0  0  0
    0.2359   -2.7097    2.9642 H   0  0  0  0  0  0  0  0  0  0  0  0
   -0.2710   -3.8884    0.6712 H   0  0  0  0  0  0  0  0  0  0  0  0
   -3.2978    0.5646   -2.3486 H   0  0  0  0  0  0  0  0  0  0  0  0
   -3.6003   -0.6866   -1.1924 H   0  0  0  0  0  0  0  0  0  0  0  0
    1.4835    3.0202    1.0258 H   0  0  0  0  0  0  0  0  0  0  0  0
    3.5432    2.1956   -0.0020 H   0  0  0  0  0  0  0  0  0  0  0  0
   -1.9021    2.7075   -1.1863 H   0  0  0  0  0  0  0  0  0  0  0  0
   -3.1004    3.1591    0.0600 H   0  0  0  0  0  0  0  0  0  0  0  0
   -3.6377    2.6718   -1.5272 H   0  0  0  0  0  0  0  0  0  0  0  0
    2.1825   -2.7928    0.3229 H   0  0  0  0  0  0  0  0  0  0  0  0
    5.8044   -0.1871   -1.6091 H   0  0  0  0  0  0  0  0  0  0  0  0
    4.9427    1.3512   -1.7439 H   0  0  0  0  0  0  0  0  0  0  0  0
    5.3288    0.6472   -0.1253 H   0  0  0  0  0  0  0  0  0  0  0  0
  2  1  1  0
  3  1  2  0
  4  1  1  0
  5  3  1  0
  6  7  1  0
  7  4  2  0
  8  2  2  0
  9 12  2  0
 10  2  1  0
 11 14  2  0
 12 13  1  0
 13 10  1  0
 14 15  1  0
 15 13  2  0
 16 21  2  0
 17  5  1  0
 18  6  1  0
 19  9  1  0
 20 11  1  0
 21  4  1  0
 22 17  1  0
 23 19  1  0
 24 18  1  0
 25 20  1  0
 16  8  1  0
  6  5  2  0
 11  9  1  0
 27 26  1  0
 28 26  1  0
 29 27  2  0
 30 26  1  0
 30 31  1  0
 32 28  1  0
 33 27  1  0
 28 34  1  0
 32 35  1  0
 36 41  1  0
 26 37  1  6
 38 39  1  0
 39 30  1  0
 40 29  1  0
 41 37  1  0
 42 33  2  0
 43 42  1  0
 44 40  1  0
 39 45  1  0
 46 36  1  0
 29 31  1  0
 32 36  1  0
 38 34  2  0
 35 33  1  0
 43 40  2  0
 48 47  1  0
 49 47  1  0
 50 48  2  0
 51 47  1  0
 52 51  1  0
 53 49  1  0
 54 62  1  0
 55 48  1  0
 49 56  1  0
 53 57  1  0
 47 58  1  6
 59 60  1  0
 60 51  1  0
 61 50  1  0
 62 58  1  0
 63 55  2  0
 64 63  1  0
 65 54  1  0
 60 66  1  0
 67 61  1  0
 68 67  1  0
 52 50  1  0
 53 54  1  0
 59 56  2  0
 57 55  1  0
 64 61  2  0
  3 69  1  0
  7 70  1  0
 10 71  1  0
 10 72  1  0
 12 73  1  0
 14 74  1  0
 15 75  1  0
 16 76  1  0
 21 77  1  0
 22 78  1  0
 22 79  1  0
 22 80  1  0
 23 81  1  0
 23 82  1  0
 23 83  1  0
 24 84  1  0
 24 85  1  0
 24 86  1  0
 25 87  1  0
 25 88  1  0
 25 89  1  0
 28 90  1  1
 30 91  1  6
 32 92  1  1
 34 93  1  0
 35 94  1  0
 35 95  1  0
 37 96  1  0
 37 97  1  0
 38 98  1  0
 39 99  1  1
 41100  1  0
 41101  1  0
 42102  1  0
 43103  1  0
 44104  1  0
 45105  1  0
 46106  1  0
 46107  1  0
 46108  1  0
 49109  1  6
 51110  1  6
 53111  1  1
 56112  1  0
 57113  1  0
 57114  1  0
 58115  1  0
 58116  1  0
 59117  1  0
 60118  1  6
 62119  1  0
 62120  1  0
 63121  1  0
 64122  1  0
 65123  1  0
 65124  1  0
 65125  1  0
 66126  1  0
 68127  1  0
 68128  1  0
 68129  1  0
M  END
$$$$
