
     RDKit          3D

129139  0  0  0  0  0  0  0  0999 V2000
    1.5624   -0.9583   -0.8318 C   0  0  0  0  0  0  0  0  0  0  0  0
    0.5485   -1.7168   -1.4715 C   0  0  0  0  0  0  0  0  0  0  0  0
    1.5828    0.4549   -0.7274 C   0  0  0  0  0  0  0  0  0  0  0  0
    2.6348   -1.6760   -0.2601 C   0  0  0  0  0  0  0  0  0  0  0  0
    2.6266    1.1342   -0.0861 C   0  0  0  0  0  0  0  0  0  0  0  0
    3.6810    0.4028    0.4838 C   0  0  0  0  0  0  0  0  0  0  0  0
    3.6769   -0.9921    0.3910 C   0  0  0  0  0  0  0  0  0  0  0  0
    0.5786   -3.0767   -1.5538 N   0  0  0  0  0  0  0  0  0  0  0  0
   -3.2250    0.9146   -0.0568 C   0  0  0  0  0  0  0  0  0  0  0  0
   -0.6731   -1.0771   -2.1032 C   0  0  0  0  0  0  0  0  0  0  0  0
   -3.8599   -0.1074    0.6739 C   0  0  0  0  0  0  0  0  0  0  0  0
   -2.2022    0.5981   -0.9615 C   0  0  0  0  0  0  0  0  0  0  0  0
   -1.7711   -0.7272   -1.1211 C   0  0  0  0  0  0  0  0  0  0  0  0
   -3.4340   -1.4287    0.5111 C   0  0  0  0  0  0  0  0  0  0  0  0
   -2.3989   -1.7337   -0.3767 C   0  0  0  0  0  0  0  0  0  0  0  0
    1.6208   -3.7164   -0.9942 C   0  0  0  0  0  0  0  0  0  0  0  0
    2.7030    2.4990    0.0408 O   0  0  0  0  0  0  0  0  0  0  0  0
    4.6644    1.1391    1.0963 O   0  0  0  0  0  0  0  0  0  0  0  0
   -3.6984    2.1907    0.1320 O   0  0  0  0  0  0  0  0  0  0  0  0
   -4.8631    0.2880    1.5225 O   0  0  0  0  0  0  0  0  0  0  0  0
    2.6551   -3.0712   -0.3459 C   0  0  0  0  0  0  0  0  0  0  0  0
    1.7122    3.2844   -0.6048 C   0  0  0  0  0  0  0  0  0  0  0  0
   -2.7625    3.2402   -0.0738 C   0  0  0  0  0  0  0  0  0  0  0  0
    5.7262    0.4355    1.7241 C   0  0  0  0  0  0  0  0  0  0  0  0
   -5.6048   -0.7307    2.1778 C   0  0  0  0  0  0  0  0  0  0  0  0
    0.2431    0.8383   -0.2759 C   0  0  2  0  0  0  0  0  0  0  0  0
   -0.9094   -0.1216   -0.2477 C   0  0  0  0  0  0  0  0  0  0  0  0
    1.1878    0.5051    0.8845 C   0  0  2  0  0  0  0  0  0  0  0  0
   -2.0739    0.5082   -0.6316 C   0  0  0  0  0  0  0  0  0  0  0  0
   -0.5968    2.1307   -0.1859 C   0  0  1  0  0  0  0  0  0  0  0  0
   -1.9003    1.8580   -0.8130 O   0  0  0  0  0  0  0  0  0  0  0  0
    1.5935   -0.9986    0.6901 C   0  0  1  0  0  0  0  0  0  0  0  0
   -0.8836   -1.4366    0.1864 C   0  0  0  0  0  0  0  0  0  0  0  0
    0.5987    0.8412    2.2322 C   0  0  0  0  0  0  0  0  0  0  0  0
    0.3709   -1.9618    0.8354 C   0  0  0  0  0  0  0  0  0  0  0  0
    2.1900   -1.2622   -0.6487 N   0  0  0  0  0  0  0  0  0  0  0  0
    0.9866    0.6968   -1.6280 C   0  0  0  0  0  0  0  0  0  0  0  0
   -0.3035    1.8229    2.3838 C   0  0  0  0  0  0  0  0  0  0  0  0
   -0.8007    2.6847    1.2582 C   0  0  2  0  0  0  0  0  0  0  0  0
   -3.2566   -0.1928   -0.7165 C   0  0  0  0  0  0  0  0  0  0  0  0
    2.3063   -0.0831   -1.5052 C   0  0  0  0  0  0  0  0  0  0  0  0
   -2.0764   -2.1604    0.1083 C   0  0  0  0  0  0  0  0  0  0  0  0
   -3.2554   -1.5459   -0.3630 C   0  0  0  0  0  0  0  0  0  0  0  0
   -4.3962    0.4439   -1.1007 O   0  0  0  0  0  0  0  0  0  0  0  0
   -2.1646    3.0036    1.5319 O   0  0  0  0  0  0  0  0  0  0  0  0
    3.4622   -1.9736   -0.5474 C   0  0  0  0  0  0  0  0  0  0  0  0
    0.6589   -0.8117    0.0020 C   0  0  2  0  0  0  0  0  0  0  0  0
   -0.4772    0.1252    0.2552 C   0  0  0  0  0  0  0  0  0  0  0  0
    1.6619   -0.1334   -0.9387 C   0  0  2  0  0  0  0  0  0  0  0  0
   -1.6737   -0.5563    0.3128 C   0  0  0  0  0  0  0  0  0  0  0  0
   -0.1688   -1.9852   -0.5598 C   0  0  1  0  0  0  0  0  0  0  0  0
   -1.5212   -1.8906    0.0175 O   0  0  0  0  0  0  0  0  0  0  0  0
    2.1126    1.1830   -0.2254 C   0  0  2  0  0  0  0  0  0  0  0  0
    2.8200    0.8981    1.0549 N   0  0  0  0  0  0  0  0  0  0  0  0
   -0.3964    1.5025    0.3309 C   0  0  0  0  0  0  0  0  0  0  0  0
    1.1054    0.0507   -2.3307 C   0  0  0  0  0  0  0  0  0  0  0  0
    0.9181    2.1724    0.0238 C   0  0  0  0  0  0  0  0  0  0  0  0
    1.3621   -1.1598    1.3302 C   0  0  0  0  0  0  0  0  0  0  0  0
    0.2251   -0.8188   -2.8496 C   0  0  0  0  0  0  0  0  0  0  0  0
   -0.2561   -2.0380   -2.1150 C   0  0  2  0  0  0  0  0  0  0  0  0
   -2.8640    0.0995    0.5712 C   0  0  0  0  0  0  0  0  0  0  0  0
    2.0354    0.0618    1.9769 C   0  0  0  0  0  0  0  0  0  0  0  0
   -1.5800    2.1917    0.5910 C   0  0  0  0  0  0  0  0  0  0  0  0
   -2.8013    1.4928    0.7299 C   0  0  0  0  0  0  0  0  0  0  0  0
    4.1630    0.3566    0.8500 C   0  0  0  0  0  0  0  0  0  0  0  0
   -1.5775   -2.3281   -2.5669 O   0  0  0  0  0  0  0  0  0  0  0  0
   -3.9898   -0.6691    0.6177 O   0  0  0  0  0  0  0  0  0  0  0  0
   -5.2139   -0.0007    0.8909 C   0  0  0  0  0  0  0  0  0  0  0  0
    0.7655    1.0196   -1.1564 H   0  0  0  0  0  0  0  0  0  0  0  0
    4.4856   -1.5745    0.8217 H   0  0  0  0  0  0  0  0  0  0  0  0
   -0.3710   -0.2005   -2.6884 H   0  0  0  0  0  0  0  0  0  0  0  0
   -1.0968   -1.7702   -2.8431 H   0  0  0  0  0  0  0  0  0  0  0  0
   -1.7477    1.3748   -1.5671 H   0  0  0  0  0  0  0  0  0  0  0  0
   -3.8839   -2.2481    1.0619 H   0  0  0  0  0  0  0  0  0  0  0  0
   -2.0860   -2.7717   -0.4896 H   0  0  0  0  0  0  0  0  0  0  0  0
    1.6030   -4.7989   -1.0820 H   0  0  0  0  0  0  0  0  0  0  0  0
    3.4624   -3.6563    0.0827 H   0  0  0  0  0  0  0  0  0  0  0  0
    1.7098    3.1099   -1.6862 H   0  0  0  0  0  0  0  0  0  0  0  0
    1.9588    4.3378   -0.4393 H   0  0  0  0  0  0  0  0  0  0  0  0
    0.7229    3.1036   -0.1721 H   0  0  0  0  0  0  0  0  0  0  0  0
   -3.1809    4.1515    0.3649 H   0  0  0  0  0  0  0  0  0  0  0  0
   -1.8092    3.0368    0.4261 H   0  0  0  0  0  0  0  0  0  0  0  0
   -2.6144    3.4246   -1.1425 H   0  0  0  0  0  0  0  0  0  0  0  0
    6.3967    1.1737    2.1746 H   0  0  0  0  0  0  0  0  0  0  0  0
    5.3535   -0.2088    2.5276 H   0  0  0  0  0  0  0  0  0  0  0  0
    6.3060   -0.1365    0.9925 H   0  0  0  0  0  0  0  0  0  0  0  0
   -4.9735   -1.2904    2.8760 H   0  0  0  0  0  0  0  0  0  0  0  0
   -6.3946   -0.2469    2.7607 H   0  0  0  0  0  0  0  0  0  0  0  0
   -6.0866   -1.3986    1.4555 H   0  0  0  0  0  0  0  0  0  0  0  0
    2.0971    1.1196    0.8154 H   0  0  0  0  0  0  0  0  0  0  0  0
   -0.1382    2.9319   -0.7785 H   0  0  0  0  0  0  0  0  0  0  0  0
    2.3164   -1.2564    1.4766 H   0  0  0  0  0  0  0  0  0  0  0  0
    0.9488    0.2946    3.1042 H   0  0  0  0  0  0  0  0  0  0  0  0
    0.6111   -2.9548    0.4354 H   0  0  0  0  0  0  0  0  0  0  0  0
    0.1619   -2.0928    1.9051 H   0  0  0  0  0  0  0  0  0  0  0  0
    0.3534    0.2149   -2.3852 H   0  0  0  0  0  0  0  0  0  0  0  0
    1.2385    1.6883   -2.0251 H   0  0  0  0  0  0  0  0  0  0  0  0
   -0.6800    2.0572    3.3767 H   0  0  0  0  0  0  0  0  0  0  0  0
   -0.2499    3.6308    1.3329 H   0  0  0  0  0  0  0  0  0  0  0  0
    2.6156   -0.3837   -2.5139 H   0  0  0  0  0  0  0  0  0  0  0  0
    3.0906    0.5891   -1.1322 H   0  0  0  0  0  0  0  0  0  0  0  0
   -2.1083   -3.1967    0.4360 H   0  0  0  0  0  0  0  0  0  0  0  0
   -4.1683   -2.1326   -0.4058 H   0  0  0  0  0  0  0  0  0  0  0  0
   -5.1219   -0.2005   -1.1130 H   0  0  0  0  0  0  0  0  0  0  0  0
   -2.6894    2.6218    0.7992 H   0  0  0  0  0  0  0  0  0  0  0  0
    4.2293   -1.3682   -0.0506 H   0  0  0  0  0  0  0  0  0  0  0  0
    3.3401   -2.9071    0.0139 H   0  0  0  0  0  0  0  0  0  0  0  0
    3.8316   -2.2521   -1.5408 H   0  0  0  0  0  0  0  0  0  0  0  0
    2.5393   -0.7814   -1.0701 H   0  0  0  0  0  0  0  0  0  0  0  0
    0.2373   -2.9454   -0.2163 H   0  0  0  0  0  0  0  0  0  0  0  0
    2.8162    1.7228   -0.8736 H   0  0  0  0  0  0  0  0  0  0  0  0
    1.4591    0.8847   -2.9316 H   0  0  0  0  0  0  0  0  0  0  0  0
    1.1710    2.8817    0.8219 H   0  0  0  0  0  0  0  0  0  0  0  0
    0.7773    2.7628   -0.8914 H   0  0  0  0  0  0  0  0  0  0  0  0
    0.6551   -1.5920    2.0504 H   0  0  0  0  0  0  0  0  0  0  0  0
    2.1216   -1.9296    1.1403 H   0  0  0  0  0  0  0  0  0  0  0  0
   -0.1326   -0.6846   -3.8673 H   0  0  0  0  0  0  0  0  0  0  0  0
    0.3727   -2.8682   -2.4595 H   0  0  0  0  0  0  0  0  0  0  0  0
    2.6578   -0.2710    2.8175 H   0  0  0  0  0  0  0  0  0  0  0  0
    1.2681    0.6906    2.4446 H   0  0  0  0  0  0  0  0  0  0  0  0
   -1.5764    3.2769    0.6662 H   0  0  0  0  0  0  0  0  0  0  0  0
   -3.6934    2.0795    0.9265 H   0  0  0  0  0  0  0  0  0  0  0  0
    4.1605   -0.6597    0.4438 H   0  0  0  0  0  0  0  0  0  0  0  0
    4.7105    0.3377    1.7996 H   0  0  0  0  0  0  0  0  0  0  0  0
    4.7427    0.9966    0.1760 H   0  0  0  0  0  0  0  0  0  0  0  0
   -2.1752   -2.0928   -1.8296 H   0  0  0  0  0  0  0  0  0  0  0  0
   -5.1901    0.4835    1.8731 H   0  0  0  0  0  0  0  0  0  0  0  0
   -6.0089   -0.7527    0.9099 H   0  0  0  0  0  0  0  0  0  0  0  0
   -5.4554    0.7181    0.1008 H   0  0  0  0  0  0  0  0  0  0  0  0
  2  1  1  0
  3  1  2  0
  4  1  1  0
  5  3  1  0
  6  7  1  0
  7  4  2  0
  8  2  2  0
  9 12  2  0
 10  2  1  0
 11 14  2  0
 12 13  1  0
 13 10  1  0
 14 15  1  0
 15 13  2  0
 16 21  2  0
 17  5  1  0
 18  6  1  0
 19  9  1  0
 20 11  1  0
 21  4  1  0
 22 17  1  0
 23 19  1  0
 24 18  1  0
 25 20  1  0
 16  8  1  0
  6  5  2  0
 11  9  1  0
 27 26  1  0
 28 26  1  0
 29 27  2  0
 30 26  1  0
 30 31  1  0
 32 28  1  0
 33 27  1  0
 28 34  1  0
 32 35  1  0
 36 41  1  0
 26 37  1  6
 38 39  1  0
 39 30  1  0
 40 29  1  0
 41 37  1  0
 42 33  2  0
 43 42  1  0
 44 40  1  0
 39 45  1  0
 46 36  1  0
 29 31  1  0
 32 36  1  0
 38 34  2  0
 35 33  1  0
 43 40  2  0
 48 47  1  0
 49 47  1  0
 50 48  2  0
 51 47  1  0
 52 51  1  0
 53 49  1  0
 54 62  1  0
 55 48  1  0
 49 56  1  0
 53 57  1  0
 47 58  1  1
 59 60  1  0
 60 51  1  0
 61 50  1  0
 62 58  1  0
 63 55  2  0
 64 63  1  0
 65 54  1  0
 60 66  1  0
 67 61  1  0
 68 67  1  0
 52 50  1  0
 53 54  1  0
 59 56  2  0
 57 55  1  0
 64 61  2  0
  3 69  1  0
  7 70  1  0
 10 71  1  0
 10 72  1  0
 12 73  1  0
 14 74  1  0
 15 75  1  0
 16 76  1  0
 21 77  1  0
 22 78  1  0
 22 79  1  0
 22 80  1  0
 23 81  1  0
 23 82  1  0
 23 83  1  0
 24 84  1  0
 24 85  1  0
 24 86  1  0
 25 87  1  0
 25 88  1  0
 25 89  1  0
 28 90  1  6
 30 91  1  6
 32 92  1  1
 34 93  1  0
 35 94  1  0
 35 95  1  0
 37 96  1  0
 37 97  1  0
 38 98  1  0
 39 99  1  6
 41100  1  0
 41101  1  0
 42102  1  0
 43103  1  0
 44104  1  0
 45105  1  0
 46106  1  0
 46107  1  0
 46108  1  0
 49109  1  6
 51110  1  1
 53111  1  6
 56112  1  0
 57113  1  0
 57114  1  0
 58115  1  0
 58116  1  0
 59117  1  0
 60118  1  6
 62119  1  0
 62120  1  0
 63121  1  0
 64122  1  0
 65123  1  0
 65124  1  0
 65125  1  0
 66126  1  0
 68127  1  0
 68128  1  0
 68129  1  0
M  END
$$$$
