
     RDKit          3D

129139  0  0  0  0  0  0  0  0999 V2000
    1.8509    0.0548   -0.1175 C   0  0  0  0  0  0  0  0  0  0  0  0
    0.4813    0.4286   -0.0764 C   0  0  0  0  0  0  0  0  0  0  0  0
    2.4075   -1.0641    0.5523 C   0  0  0  0  0  0  0  0  0  0  0  0
    2.7182    0.8640   -0.8832 C   0  0  0  0  0  0  0  0  0  0  0  0
    3.7703   -1.3744    0.4632 C   0  0  0  0  0  0  0  0  0  0  0  0
    4.6178   -0.5591   -0.3048 C   0  0  0  0  0  0  0  0  0  0  0  0
    4.0859    0.5500   -0.9690 C   0  0  0  0  0  0  0  0  0  0  0  0
    0.0002    1.5173   -0.7335 N   0  0  0  0  0  0  0  0  0  0  0  0
   -4.1444   -0.0340   -0.4492 C   0  0  0  0  0  0  0  0  0  0  0  0
   -0.5190   -0.3880    0.7295 C   0  0  0  0  0  0  0  0  0  0  0  0
   -4.6612    0.8653    0.5049 C   0  0  0  0  0  0  0  0  0  0  0  0
   -2.8042   -0.4344   -0.3666 C   0  0  0  0  0  0  0  0  0  0  0  0
   -1.9686    0.0480    0.6540 C   0  0  0  0  0  0  0  0  0  0  0  0
   -3.8263    1.3532    1.5158 C   0  0  0  0  0  0  0  0  0  0  0  0
   -2.4899    0.9516    1.5863 C   0  0  0  0  0  0  0  0  0  0  0  0
    0.8611    2.2592   -1.4506 C   0  0  0  0  0  0  0  0  0  0  0  0
    4.3662   -2.4437    1.0856 O   0  0  0  0  0  0  0  0  0  0  0  0
    5.9394   -0.9280   -0.3417 O   0  0  0  0  0  0  0  0  0  0  0  0
   -5.0248   -0.4672   -1.4112 O   0  0  0  0  0  0  0  0  0  0  0  0
   -5.9855    1.2038    0.3619 O   0  0  0  0  0  0  0  0  0  0  0  0
    2.2080    1.9777   -1.5551 C   0  0  0  0  0  0  0  0  0  0  0  0
    3.5452   -3.3158    1.8471 C   0  0  0  0  0  0  0  0  0  0  0  0
   -4.4995   -1.2411   -2.4791 C   0  0  0  0  0  0  0  0  0  0  0  0
    6.8293   -0.1345   -1.1116 C   0  0  0  0  0  0  0  0  0  0  0  0
   -6.5157    2.1722    1.2534 C   0  0  0  0  0  0  0  0  0  0  0  0
   -0.0788    0.7787    0.5401 C   0  0  2  0  0  0  0  0  0  0  0  0
    0.9179   -0.2529    0.1065 C   0  0  0  0  0  0  0  0  0  0  0  0
   -1.2713    0.7841   -0.4205 C   0  0  2  0  0  0  0  0  0  0  0  0
    2.2002    0.1682    0.3977 C   0  0  0  0  0  0  0  0  0  0  0  0
    0.8958    1.9734    0.5017 C   0  0  1  0  0  0  0  0  0  0  0  0
    2.2249    1.4607    0.8733 O   0  0  0  0  0  0  0  0  0  0  0  0
   -1.8014   -0.6928   -0.4490 C   0  0  1  0  0  0  0  0  0  0  0  0
    0.6525   -1.4307   -0.5693 C   0  0  0  0  0  0  0  0  0  0  0  0
   -0.9561    1.3803   -1.7666 C   0  0  0  0  0  0  0  0  0  0  0  0
   -0.7514   -1.6814   -1.0545 C   0  0  0  0  0  0  0  0  0  0  0  0
   -2.1436   -1.2014    0.9096 N   0  0  0  0  0  0  0  0  0  0  0  0
   -0.5619    0.4311    1.9712 C   0  0  0  0  0  0  0  0  0  0  0  0
    0.0480    2.2493   -1.9489 C   0  0  0  0  0  0  0  0  0  0  0  0
    0.9796    2.7214   -0.8703 C   0  0  2  0  0  0  0  0  0  0  0  0
    3.2818   -0.6374    0.1243 C   0  0  0  0  0  0  0  0  0  0  0  0
   -1.9505   -0.2332    1.9897 C   0  0  0  0  0  0  0  0  0  0  0  0
    1.7415   -2.2556   -0.8625 C   0  0  0  0  0  0  0  0  0  0  0  0
    3.0499   -1.8700   -0.4964 C   0  0  0  0  0  0  0  0  0  0  0  0
    4.5393   -0.2091    0.4181 O   0  0  0  0  0  0  0  0  0  0  0  0
    2.2930    2.6931   -1.4333 O   0  0  0  0  0  0  0  0  0  0  0  0
   -3.4830   -1.7836    0.9513 C   0  0  0  0  0  0  0  0  0  0  0  0
   -0.5881    0.8022    0.7251 C   0  0  2  0  0  0  0  0  0  0  0  0
    0.3476   -0.2333    0.1730 C   0  0  0  0  0  0  0  0  0  0  0  0
   -1.5152    1.2723   -0.4096 C   0  0  2  0  0  0  0  0  0  0  0  0
    1.6001   -0.1148    0.7409 C   0  0  0  0  0  0  0  0  0  0  0  0
    0.4985    1.7793    1.2297 C   0  0  1  0  0  0  0  0  0  0  0  0
    1.6891    0.9843    1.5583 O   0  0  0  0  0  0  0  0  0  0  0  0
   -2.2499   -0.0243   -0.9139 C   0  0  2  0  0  0  0  0  0  0  0  0
   -3.1121   -0.5841    0.1643 N   0  0  0  0  0  0  0  0  0  0  0  0
    0.0643   -1.1511   -0.8201 C   0  0  0  0  0  0  0  0  0  0  0  0
   -0.7709    2.0530   -1.4687 C   0  0  0  0  0  0  0  0  0  0  0  0
   -1.2289   -1.0197   -1.5745 C   0  0  0  0  0  0  0  0  0  0  0  0
   -1.3961    0.1491    1.8730 C   0  0  0  0  0  0  0  0  0  0  0  0
    0.3036    2.7978   -1.1629 C   0  0  0  0  0  0  0  0  0  0  0  0
    0.8132    2.9525    0.2470 C   0  0  2  0  0  0  0  0  0  0  0  0
    2.6135   -1.0077    0.4395 C   0  0  0  0  0  0  0  0  0  0  0  0
   -2.8681   -0.0625    1.5088 C   0  0  0  0  0  0  0  0  0  0  0  0
    1.0708   -2.0564   -1.1545 C   0  0  0  0  0  0  0  0  0  0  0  0
    2.3266   -2.0003   -0.5106 C   0  0  0  0  0  0  0  0  0  0  0  0
   -3.3194   -2.0247    0.1539 C   0  0  0  0  0  0  0  0  0  0  0  0
    2.2015    3.2687    0.2240 O   0  0  0  0  0  0  0  0  0  0  0  0
    3.8019   -0.8334    1.0862 O   0  0  0  0  0  0  0  0  0  0  0  0
    4.8674   -1.6986    0.7235 C   0  0  0  0  0  0  0  0  0  0  0  0
    1.7547   -1.6914    1.1485 H   0  0  0  0  0  0  0  0  0  0  0  0
    4.7247    1.1931   -1.5662 H   0  0  0  0  0  0  0  0  0  0  0  0
   -0.4674   -1.4335    0.4010 H   0  0  0  0  0  0  0  0  0  0  0  0
   -0.2087   -0.3764    1.7829 H   0  0  0  0  0  0  0  0  0  0  0  0
   -2.3801   -1.1204   -1.0926 H   0  0  0  0  0  0  0  0  0  0  0  0
   -4.1824    2.0535    2.2631 H   0  0  0  0  0  0  0  0  0  0  0  0
   -1.8552    1.3570    2.3709 H   0  0  0  0  0  0  0  0  0  0  0  0
    0.4249    3.1160   -1.9560 H   0  0  0  0  0  0  0  0  0  0  0  0
    2.8429    2.6234   -2.1534 H   0  0  0  0  0  0  0  0  0  0  0  0
    4.1823   -4.1089    2.2489 H   0  0  0  0  0  0  0  0  0  0  0  0
    3.0931   -2.7918    2.6957 H   0  0  0  0  0  0  0  0  0  0  0  0
    2.7821   -3.7894    1.2202 H   0  0  0  0  0  0  0  0  0  0  0  0
   -3.7108   -0.7010   -3.0138 H   0  0  0  0  0  0  0  0  0  0  0  0
   -4.1436   -2.2126   -2.1213 H   0  0  0  0  0  0  0  0  0  0  0  0
   -5.3118   -1.4273   -3.1878 H   0  0  0  0  0  0  0  0  0  0  0  0
    6.5507   -0.1410   -2.1706 H   0  0  0  0  0  0  0  0  0  0  0  0
    6.8864    0.8874   -0.7218 H   0  0  0  0  0  0  0  0  0  0  0  0
    7.8275   -0.5762   -1.0293 H   0  0  0  0  0  0  0  0  0  0  0  0
   -6.5047    1.8067    2.2850 H   0  0  0  0  0  0  0  0  0  0  0  0
   -5.9868    3.1267    1.1642 H   0  0  0  0  0  0  0  0  0  0  0  0
   -7.5599    2.3451    0.9754 H   0  0  0  0  0  0  0  0  0  0  0  0
   -2.0666    1.4286   -0.0184 H   0  0  0  0  0  0  0  0  0  0  0  0
    0.6164    2.7133    1.2620 H   0  0  0  0  0  0  0  0  0  0  0  0
   -2.6928   -0.7175   -1.0916 H   0  0  0  0  0  0  0  0  0  0  0  0
   -1.5974    1.1232   -2.6060 H   0  0  0  0  0  0  0  0  0  0  0  0
   -0.7544   -1.5646   -2.1459 H   0  0  0  0  0  0  0  0  0  0  0  0
   -1.0375   -2.7202   -0.8447 H   0  0  0  0  0  0  0  0  0  0  0  0
    0.1532   -0.2196    2.4912 H   0  0  0  0  0  0  0  0  0  0  0  0
   -0.6374    1.3456    2.5732 H   0  0  0  0  0  0  0  0  0  0  0  0
    0.2155    2.6675   -2.9391 H   0  0  0  0  0  0  0  0  0  0  0  0
    0.7542    3.7790   -0.6871 H   0  0  0  0  0  0  0  0  0  0  0  0
   -2.7221    0.5467    1.9477 H   0  0  0  0  0  0  0  0  0  0  0  0
   -2.0740   -0.7317    2.9597 H   0  0  0  0  0  0  0  0  0  0  0  0
    1.5900   -3.1910   -1.3954 H   0  0  0  0  0  0  0  0  0  0  0  0
    3.8756   -2.5315   -0.7433 H   0  0  0  0  0  0  0  0  0  0  0  0
    5.1701   -0.8929    0.1356 H   0  0  0  0  0  0  0  0  0  0  0  0
    2.8961    2.4307   -0.7065 H   0  0  0  0  0  0  0  0  0  0  0  0
   -3.6691   -2.2530    1.9232 H   0  0  0  0  0  0  0  0  0  0  0  0
   -3.5848   -2.5730    0.1983 H   0  0  0  0  0  0  0  0  0  0  0  0
   -4.2613   -1.0320    0.7749 H   0  0  0  0  0  0  0  0  0  0  0  0
   -2.2669    1.9743   -0.0210 H   0  0  0  0  0  0  0  0  0  0  0  0
    0.1902    2.2412    2.1760 H   0  0  0  0  0  0  0  0  0  0  0  0
   -2.9462    0.2695   -1.7107 H   0  0  0  0  0  0  0  0  0  0  0  0
   -1.1389    2.0253   -2.4911 H   0  0  0  0  0  0  0  0  0  0  0  0
   -1.6661   -2.0068   -1.7541 H   0  0  0  0  0  0  0  0  0  0  0  0
   -0.9803   -0.6252   -2.5697 H   0  0  0  0  0  0  0  0  0  0  0  0
   -1.3756    0.7913    2.7634 H   0  0  0  0  0  0  0  0  0  0  0  0
   -0.9640   -0.8116    2.1818 H   0  0  0  0  0  0  0  0  0  0  0  0
    0.7919    3.3637   -1.9513 H   0  0  0  0  0  0  0  0  0  0  0  0
    0.3099    3.8452    0.6434 H   0  0  0  0  0  0  0  0  0  0  0  0
   -3.3876    0.9027    1.5888 H   0  0  0  0  0  0  0  0  0  0  0  0
   -3.3460   -0.6847    2.2772 H   0  0  0  0  0  0  0  0  0  0  0  0
    0.9057   -2.7988   -1.9319 H   0  0  0  0  0  0  0  0  0  0  0  0
    3.0737   -2.7315   -0.8039 H   0  0  0  0  0  0  0  0  0  0  0  0
   -2.4170   -2.5774    0.4366 H   0  0  0  0  0  0  0  0  0  0  0  0
   -3.6593   -2.3652   -0.8307 H   0  0  0  0  0  0  0  0  0  0  0  0
   -4.1153   -2.3050    0.8535 H   0  0  0  0  0  0  0  0  0  0  0  0
    2.3400    3.9865   -0.4129 H   0  0  0  0  0  0  0  0  0  0  0  0
    5.7487   -1.4082    1.3044 H   0  0  0  0  0  0  0  0  0  0  0  0
    4.6333   -2.7395    0.9732 H   0  0  0  0  0  0  0  0  0  0  0  0
    5.1202   -1.5942   -0.3366 H   0  0  0  0  0  0  0  0  0  0  0  0
  2  1  1  0
  3  1  2  0
  4  1  1  0
  5  3  1  0
  6  7  1  0
  7  4  2  0
  8  2  2  0
  9 12  2  0
 10  2  1  0
 11 14  2  0
 12 13  1  0
 13 10  1  0
 14 15  1  0
 15 13  2  0
 16 21  2  0
 17  5  1  0
 18  6  1  0
 19  9  1  0
 20 11  1  0
 21  4  1  0
 22 17  1  0
 23 19  1  0
 24 18  1  0
 25 20  1  0
 16  8  1  0
  6  5  2  0
 11  9  1  0
 27 26  1  0
 28 26  1  0
 29 27  2  0
 30 26  1  0
 30 31  1  0
 32 28  1  0
 33 27  1  0
 28 34  1  0
 32 35  1  0
 36 41  1  0
 26 37  1  1
 38 39  1  0
 39 30  1  0
 40 29  1  0
 41 37  1  0
 42 33  2  0
 43 42  1  0
 44 40  1  0
 39 45  1  0
 46 36  1  0
 29 31  1  0
 32 36  1  0
 38 34  2  0
 35 33  1  0
 43 40  2  0
 48 47  1  0
 49 47  1  0
 50 48  2  0
 51 47  1  0
 52 51  1  0
 53 49  1  0
 54 62  1  0
 55 48  1  0
 49 56  1  0
 53 57  1  0
 47 58  1  1
 59 60  1  0
 60 51  1  0
 61 50  1  0
 62 58  1  0
 63 55  2  0
 64 63  1  0
 65 54  1  0
 60 66  1  0
 67 61  1  0
 68 67  1  0
 52 50  1  0
 53 54  1  0
 59 56  2  0
 57 55  1  0
 64 61  2  0
  3 69  1  0
  7 70  1  0
 10 71  1  0
 10 72  1  0
 12 73  1  0
 14 74  1  0
 15 75  1  0
 16 76  1  0
 21 77  1  0
 22 78  1  0
 22 79  1  0
 22 80  1  0
 23 81  1  0
 23 82  1  0
 23 83  1  0
 24 84  1  0
 24 85  1  0
 24 86  1  0
 25 87  1  0
 25 88  1  0
 25 89  1  0
 28 90  1  1
 30 91  1  1
 32 92  1  6
 34 93  1  0
 35 94  1  0
 35 95  1  0
 37 96  1  0
 37 97  1  0
 38 98  1  0
 39 99  1  1
 41100  1  0
 41101  1  0
 42102  1  0
 43103  1  0
 44104  1  0
 45105  1  0
 46106  1  0
 46107  1  0
 46108  1  0
 49109  1  1
 51110  1  1
 53111  1  6
 56112  1  0
 57113  1  0
 57114  1  0
 58115  1  0
 58116  1  0
 59117  1  0
 60118  1  1
 62119  1  0
 62120  1  0
 63121  1  0
 64122  1  0
 65123  1  0
 65124  1  0
 65125  1  0
 66126  1  0
 68127  1  0
 68128  1  0
 68129  1  0
M  END
$$$$
