
     RDKit          3D

129139  0  0  0  0  0  0  0  0999 V2000
   -1.7938    0.1577    0.3427 C   0  0  0  0  0  0  0  0  0  0  0  0
   -0.4460    0.5839    0.4790 C   0  0  0  0  0  0  0  0  0  0  0  0
   -2.5511    0.2061   -0.8558 C   0  0  0  0  0  0  0  0  0  0  0  0
   -2.4255   -0.3527    1.4979 C   0  0  0  0  0  0  0  0  0  0  0  0
   -3.8723   -0.2564   -0.9154 C   0  0  0  0  0  0  0  0  0  0  0  0
   -4.4737   -0.7831    0.2389 C   0  0  0  0  0  0  0  0  0  0  0  0
   -3.7503   -0.8182    1.4341 C   0  0  0  0  0  0  0  0  0  0  0  0
    0.2103    0.5679    1.6711 N   0  0  0  0  0  0  0  0  0  0  0  0
    3.8719   -0.3116   -0.6085 C   0  0  0  0  0  0  0  0  0  0  0  0
    0.3320    1.1350   -0.7065 C   0  0  0  0  0  0  0  0  0  0  0  0
    4.6523    0.8520   -0.4793 C   0  0  0  0  0  0  0  0  0  0  0  0
    2.4785   -0.2091   -0.6918 C   0  0  0  0  0  0  0  0  0  0  0  0
    1.8427    1.0407   -0.6111 C   0  0  0  0  0  0  0  0  0  0  0  0
    4.0181    2.0957   -0.3858 C   0  0  0  0  0  0  0  0  0  0  0  0
    2.6243    2.1883   -0.4469 C   0  0  0  0  0  0  0  0  0  0  0  0
   -0.4333    0.0821    2.7459 C   0  0  0  0  0  0  0  0  0  0  0  0
   -4.6517   -0.2417   -2.0458 O   0  0  0  0  0  0  0  0  0  0  0  0
   -5.7675   -1.2217    0.1014 O   0  0  0  0  0  0  0  0  0  0  0  0
    4.5503   -1.5040   -0.6885 O   0  0  0  0  0  0  0  0  0  0  0  0
    6.0124    0.6668   -0.4318 O   0  0  0  0  0  0  0  0  0  0  0  0
   -1.7287   -0.3896    2.7082 C   0  0  0  0  0  0  0  0  0  0  0  0
   -4.0915    0.2899   -3.2372 C   0  0  0  0  0  0  0  0  0  0  0  0
    3.8349   -2.6581   -0.2662 C   0  0  0  0  0  0  0  0  0  0  0  0
   -6.3504   -1.9131    1.1965 C   0  0  0  0  0  0  0  0  0  0  0  0
    6.8313    1.8266   -0.4630 C   0  0  0  0  0  0  0  0  0  0  0  0
    0.1882    1.0090   -0.0899 C   0  0  2  0  0  0  0  0  0  0  0  0
   -0.5657   -0.1576   -0.6394 C   0  0  0  0  0  0  0  0  0  0  0  0
    0.5511    0.7311    1.3754 C   0  0  2  0  0  0  0  0  0  0  0  0
   -1.5588    0.2638   -1.4962 C   0  0  0  0  0  0  0  0  0  0  0  0
   -0.8791    2.0851   -0.3736 C   0  0  1  0  0  0  0  0  0  0  0  0
   -1.6658    1.6316   -1.5367 O   0  0  0  0  0  0  0  0  0  0  0  0
    1.3838   -0.5941    1.3795 C   0  0  1  0  0  0  0  0  0  0  0  0
   -0.3851   -1.4848   -0.2929 C   0  0  0  0  0  0  0  0  0  0  0  0
   -0.6577    0.7320    2.2785 C   0  0  0  0  0  0  0  0  0  0  0  0
    0.5646   -1.8162    0.8287 C   0  0  0  0  0  0  0  0  0  0  0  0
    2.6612   -0.3026    0.6723 N   0  0  0  0  0  0  0  0  0  0  0  0
    1.4787    1.2224   -0.9064 C   0  0  0  0  0  0  0  0  0  0  0  0
   -1.7334    1.4877    2.0095 C   0  0  0  0  0  0  0  0  0  0  0  0
   -1.8330    2.3982    0.8192 C   0  0  2  0  0  0  0  0  0  0  0  0
   -2.3576   -0.6529   -2.1422 C   0  0  0  0  0  0  0  0  0  0  0  0
    2.4787    0.0690   -0.7361 C   0  0  0  0  0  0  0  0  0  0  0  0
   -1.1899   -2.4260   -0.9387 C   0  0  0  0  0  0  0  0  0  0  0  0
   -2.1610   -2.0121   -1.8758 C   0  0  0  0  0  0  0  0  0  0  0  0
   -3.3329   -0.2247   -2.9887 O   0  0  0  0  0  0  0  0  0  0  0  0
   -3.2030    2.4352    0.4199 O   0  0  0  0  0  0  0  0  0  0  0  0
    3.6541   -1.3637    0.8158 C   0  0  0  0  0  0  0  0  0  0  0  0
   -0.6021    0.6421    0.6527 C   0  0  2  0  0  0  0  0  0  0  0  0
    0.5376   -0.1876    0.1356 C   0  0  0  0  0  0  0  0  0  0  0  0
   -1.6697    0.7235   -0.4465 C   0  0  2  0  0  0  0  0  0  0  0  0
    1.7451    0.3094    0.5835 C   0  0  0  0  0  0  0  0  0  0  0  0
    0.2210    1.9114    0.9683 C   0  0  1  0  0  0  0  0  0  0  0  0
    1.5910    1.4838    1.2775 O   0  0  0  0  0  0  0  0  0  0  0  0
   -2.0627   -0.7597   -0.7767 C   0  0  2  0  0  0  0  0  0  0  0  0
   -2.5106   -1.5174    0.4230 N   0  0  0  0  0  0  0  0  0  0  0  0
    0.4531   -1.2532   -0.7436 C   0  0  0  0  0  0  0  0  0  0  0  0
   -1.2138    1.5417   -1.6323 C   0  0  0  0  0  0  0  0  0  0  0  0
   -0.8700   -1.5584   -1.3939 C   0  0  0  0  0  0  0  0  0  0  0  0
   -1.1858   -0.0243    1.9235 C   0  0  0  0  0  0  0  0  0  0  0  0
   -0.3554    2.5639   -1.4904 C   0  0  0  0  0  0  0  0  0  0  0  0
    0.1740    3.0028   -0.1486 C   0  0  2  0  0  0  0  0  0  0  0  0
    2.9398   -0.3235    0.2861 C   0  0  0  0  0  0  0  0  0  0  0  0
   -2.5188   -0.7435    1.6627 C   0  0  0  0  0  0  0  0  0  0  0  0
    1.6433   -1.9024   -1.0718 C   0  0  0  0  0  0  0  0  0  0  0  0
    2.8735   -1.4550   -0.5414 C   0  0  0  0  0  0  0  0  0  0  0  0
   -3.7862   -2.1926    0.2041 C   0  0  0  0  0  0  0  0  0  0  0  0
    1.4306    3.6543   -0.3053 O   0  0  0  0  0  0  0  0  0  0  0  0
    4.0751    0.2252    0.8084 O   0  0  0  0  0  0  0  0  0  0  0  0
    5.2992   -0.4383    0.5320 C   0  0  0  0  0  0  0  0  0  0  0  0
   -2.0931    0.6186   -1.7474 H   0  0  0  0  0  0  0  0  0  0  0  0
   -4.2064   -1.2030    2.3414 H   0  0  0  0  0  0  0  0  0  0  0  0
    0.0298    2.1797   -0.8531 H   0  0  0  0  0  0  0  0  0  0  0  0
    0.0580    0.5968   -1.6214 H   0  0  0  0  0  0  0  0  0  0  0  0
    1.8636   -1.0940   -0.8220 H   0  0  0  0  0  0  0  0  0  0  0  0
    4.5804    3.0136   -0.2540 H   0  0  0  0  0  0  0  0  0  0  0  0
    2.1547    3.1652   -0.3606 H   0  0  0  0  0  0  0  0  0  0  0  0
    0.1403    0.0816    3.6681 H   0  0  0  0  0  0  0  0  0  0  0  0
   -2.1825   -0.7721    3.6164 H   0  0  0  0  0  0  0  0  0  0  0  0
   -4.8495    0.2198   -4.0232 H   0  0  0  0  0  0  0  0  0  0  0  0
   -3.2234   -0.2942   -3.5608 H   0  0  0  0  0  0  0  0  0  0  0  0
   -3.8357    1.3477   -3.1157 H   0  0  0  0  0  0  0  0  0  0  0  0
    3.3358   -2.4972    0.6962 H   0  0  0  0  0  0  0  0  0  0  0  0
    3.1195   -2.9727   -1.0328 H   0  0  0  0  0  0  0  0  0  0  0  0
    4.5572   -3.4692   -0.1342 H   0  0  0  0  0  0  0  0  0  0  0  0
   -5.7615   -2.7947    1.4691 H   0  0  0  0  0  0  0  0  0  0  0  0
   -7.3406   -2.2585    0.8842 H   0  0  0  0  0  0  0  0  0  0  0  0
   -6.4865   -1.2465    2.0542 H   0  0  0  0  0  0  0  0  0  0  0  0
    7.8727    1.4975   -0.5263 H   0  0  0  0  0  0  0  0  0  0  0  0
    6.6232    2.4393   -1.3464 H   0  0  0  0  0  0  0  0  0  0  0  0
    6.7211    2.4084    0.4580 H   0  0  0  0  0  0  0  0  0  0  0  0
    1.1964    1.5391    1.7526 H   0  0  0  0  0  0  0  0  0  0  0  0
   -0.4057    3.0271   -0.6783 H   0  0  0  0  0  0  0  0  0  0  0  0
    1.6440   -0.8203    2.4228 H   0  0  0  0  0  0  0  0  0  0  0  0
   -0.6289    0.1390    3.1889 H   0  0  0  0  0  0  0  0  0  0  0  0
   -0.0414   -2.2047    1.6585 H   0  0  0  0  0  0  0  0  0  0  0  0
    1.2256   -2.6325    0.5218 H   0  0  0  0  0  0  0  0  0  0  0  0
    1.9557    2.1547   -0.5750 H   0  0  0  0  0  0  0  0  0  0  0  0
    1.2613    1.3469   -1.9752 H   0  0  0  0  0  0  0  0  0  0  0  0
   -2.5725    1.4943    2.7014 H   0  0  0  0  0  0  0  0  0  0  0  0
   -1.5953    3.4050    1.1840 H   0  0  0  0  0  0  0  0  0  0  0  0
    3.4383    0.3955   -1.1555 H   0  0  0  0  0  0  0  0  0  0  0  0
    2.1622   -0.7945   -1.3333 H   0  0  0  0  0  0  0  0  0  0  0  0
   -1.0913   -3.4837   -0.7038 H   0  0  0  0  0  0  0  0  0  0  0  0
   -2.7783   -2.7672   -2.3544 H   0  0  0  0  0  0  0  0  0  0  0  0
   -3.7883   -0.9982   -3.3576 H   0  0  0  0  0  0  0  0  0  0  0  0
   -3.2317    2.0862   -0.4941 H   0  0  0  0  0  0  0  0  0  0  0  0
    3.8133   -1.6064    1.8719 H   0  0  0  0  0  0  0  0  0  0  0  0
    3.3774   -2.2802    0.2862 H   0  0  0  0  0  0  0  0  0  0  0  0
    4.6218   -1.0306    0.4245 H   0  0  0  0  0  0  0  0  0  0  0  0
   -2.5616    1.2424   -0.0669 H   0  0  0  0  0  0  0  0  0  0  0  0
   -0.1447    2.3900    1.8859 H   0  0  0  0  0  0  0  0  0  0  0  0
   -2.8701   -0.7348   -1.5220 H   0  0  0  0  0  0  0  0  0  0  0  0
   -1.6167    1.3051   -2.6135 H   0  0  0  0  0  0  0  0  0  0  0  0
   -1.0649   -2.6375   -1.3570 H   0  0  0  0  0  0  0  0  0  0  0  0
   -0.7895   -1.2889   -2.4550 H   0  0  0  0  0  0  0  0  0  0  0  0
   -0.4744   -0.7338    2.3663 H   0  0  0  0  0  0  0  0  0  0  0  0
   -1.3804    0.7336    2.6923 H   0  0  0  0  0  0  0  0  0  0  0  0
   -0.0806    3.1416   -2.3680 H   0  0  0  0  0  0  0  0  0  0  0  0
   -0.5213    3.7814    0.1940 H   0  0  0  0  0  0  0  0  0  0  0  0
   -2.7183   -1.4053    2.5148 H   0  0  0  0  0  0  0  0  0  0  0  0
   -3.3330   -0.0064    1.6503 H   0  0  0  0  0  0  0  0  0  0  0  0
    1.6349   -2.7463   -1.7572 H   0  0  0  0  0  0  0  0  0  0  0  0
    3.7692   -1.9976   -0.8272 H   0  0  0  0  0  0  0  0  0  0  0  0
   -4.0303   -2.8414    1.0526 H   0  0  0  0  0  0  0  0  0  0  0  0
   -4.6067   -1.4798    0.0662 H   0  0  0  0  0  0  0  0  0  0  0  0
   -3.7358   -2.8389   -0.6792 H   0  0  0  0  0  0  0  0  0  0  0  0
    1.4038    4.1947   -1.1088 H   0  0  0  0  0  0  0  0  0  0  0  0
    5.2962   -1.4572    0.9339 H   0  0  0  0  0  0  0  0  0  0  0  0
    6.0999    0.1143    1.0330 H   0  0  0  0  0  0  0  0  0  0  0  0
    5.5162   -0.4375   -0.5415 H   0  0  0  0  0  0  0  0  0  0  0  0
  2  1  1  0
  3  1  2  0
  4  1  1  0
  5  3  1  0
  6  7  1  0
  7  4  2  0
  8  2  2  0
  9 12  2  0
 10  2  1  0
 11 14  2  0
 12 13  1  0
 13 10  1  0
 14 15  1  0
 15 13  2  0
 16 21  2  0
 17  5  1  0
 18  6  1  0
 19  9  1  0
 20 11  1  0
 21  4  1  0
 22 17  1  0
 23 19  1  0
 24 18  1  0
 25 20  1  0
 16  8  1  0
  6  5  2  0
 11  9  1  0
 27 26  1  0
 28 26  1  0
 29 27  2  0
 30 26  1  0
 30 31  1  0
 32 28  1  0
 33 27  1  0
 28 34  1  0
 32 35  1  0
 36 41  1  0
 26 37  1  6
 38 39  1  0
 39 30  1  0
 40 29  1  0
 41 37  1  0
 42 33  2  0
 43 42  1  0
 44 40  1  0
 39 45  1  0
 46 36  1  0
 29 31  1  0
 32 36  1  0
 38 34  2  0
 35 33  1  0
 43 40  2  0
 48 47  1  0
 49 47  1  0
 50 48  2  0
 51 47  1  0
 52 51  1  0
 53 49  1  0
 54 62  1  0
 55 48  1  0
 49 56  1  0
 53 57  1  0
 47 58  1  1
 59 60  1  0
 60 51  1  0
 61 50  1  0
 62 58  1  0
 63 55  2  0
 64 63  1  0
 65 54  1  0
 60 66  1  0
 67 61  1  0
 68 67  1  0
 52 50  1  0
 53 54  1  0
 59 56  2  0
 57 55  1  0
 64 61  2  0
  3 69  1  0
  7 70  1  0
 10 71  1  0
 10 72  1  0
 12 73  1  0
 14 74  1  0
 15 75  1  0
 16 76  1  0
 21 77  1  0
 22 78  1  0
 22 79  1  0
 22 80  1  0
 23 81  1  0
 23 82  1  0
 23 83  1  0
 24 84  1  0
 24 85  1  0
 24 86  1  0
 25 87  1  0
 25 88  1  0
 25 89  1  0
 28 90  1  1
 30 91  1  6
 32 92  1  1
 34 93  1  0
 35 94  1  0
 35 95  1  0
 37 96  1  0
 37 97  1  0
 38 98  1  0
 39 99  1  1
 41100  1  0
 41101  1  0
 42102  1  0
 43103  1  0
 44104  1  0
 45105  1  0
 46106  1  0
 46107  1  0
 46108  1  0
 49109  1  1
 51110  1  1
 53111  1  6
 56112  1  0
 57113  1  0
 57114  1  0
 58115  1  0
 58116  1  0
 59117  1  0
 60118  1  1
 62119  1  0
 62120  1  0
 63121  1  0
 64122  1  0
 65123  1  0
 65124  1  0
 65125  1  0
 66126  1  0
 68127  1  0
 68128  1  0
 68129  1  0
M  END
$$$$
