
     RDKit          3D

129139  0  0  0  0  0  0  0  0999 V2000
   -1.5116    1.2774   -0.3461 C   0  0  0  0  0  0  0  0  0  0  0  0
   -0.4769    2.1089   -0.8465 C   0  0  0  0  0  0  0  0  0  0  0  0
   -1.6678   -0.1001   -0.6410 C   0  0  0  0  0  0  0  0  0  0  0  0
   -2.4597    1.8793    0.5088 C   0  0  0  0  0  0  0  0  0  0  0  0
   -2.7238   -0.8541   -0.1137 C   0  0  0  0  0  0  0  0  0  0  0  0
   -3.6534   -0.2401    0.7406 C   0  0  0  0  0  0  0  0  0  0  0  0
   -3.5141    1.1175    1.0434 C   0  0  0  0  0  0  0  0  0  0  0  0
   -0.3744    3.4332   -0.5405 N   0  0  0  0  0  0  0  0  0  0  0  0
    3.1017   -1.1095   -0.6420 C   0  0  0  0  0  0  0  0  0  0  0  0
    0.6217    1.5882   -1.7543 C   0  0  0  0  0  0  0  0  0  0  0  0
    3.8876   -0.4043    0.2882 C   0  0  0  0  0  0  0  0  0  0  0  0
    2.0529   -0.4610   -1.3081 C   0  0  0  0  0  0  0  0  0  0  0  0
    1.7464    0.8794   -1.0291 C   0  0  0  0  0  0  0  0  0  0  0  0
    3.5850    0.9318    0.5641 C   0  0  0  0  0  0  0  0  0  0  0  0
    2.5243    1.5661   -0.0882 C   0  0  0  0  0  0  0  0  0  0  0  0
   -1.3015    3.9610    0.2781 C   0  0  0  0  0  0  0  0  0  0  0  0
   -2.9292   -2.1877   -0.3688 O   0  0  0  0  0  0  0  0  0  0  0  0
   -4.6572   -1.0453    1.2186 O   0  0  0  0  0  0  0  0  0  0  0  0
    3.4560   -2.4155   -0.8838 O   0  0  0  0  0  0  0  0  0  0  0  0
    4.9055   -1.1099    0.8795 O   0  0  0  0  0  0  0  0  0  0  0  0
   -2.3444    3.2371    0.8201 C   0  0  0  0  0  0  0  0  0  0  0  0
   -2.0681   -2.8283   -1.2979 C   0  0  0  0  0  0  0  0  0  0  0  0
    2.4032   -3.2831   -1.2821 C   0  0  0  0  0  0  0  0  0  0  0  0
   -5.6030   -0.4698    2.1078 C   0  0  0  0  0  0  0  0  0  0  0  0
    5.8005   -0.3893    1.7143 C   0  0  0  0  0  0  0  0  0  0  0  0
   -0.2276   -0.5390    0.6916 C   0  0  2  0  0  0  0  0  0  0  0  0
   -0.6448    0.7625    0.0734 C   0  0  0  0  0  0  0  0  0  0  0  0
    0.6050   -1.3132   -0.3391 C   0  0  2  0  0  0  0  0  0  0  0  0
   -1.9151    1.1046    0.4740 C   0  0  0  0  0  0  0  0  0  0  0  0
   -1.6497   -1.0513    1.0216 C   0  0  1  0  0  0  0  0  0  0  0  0
   -2.5240    0.1242    1.2127 O   0  0  0  0  0  0  0  0  0  0  0  0
    1.7999   -0.3690   -0.7241 C   0  0  1  0  0  0  0  0  0  0  0  0
    0.0582    1.5078   -0.8596 C   0  0  0  0  0  0  0  0  0  0  0  0
   -0.2259   -1.8055   -1.4998 C   0  0  0  0  0  0  0  0  0  0  0  0
    1.3143    0.9249   -1.4539 C   0  0  0  0  0  0  0  0  0  0  0  0
    2.5815    0.0766    0.4620 N   0  0  0  0  0  0  0  0  0  0  0  0
    0.6162   -0.2600    1.9604 C   0  0  0  0  0  0  0  0  0  0  0  0
   -1.5248   -2.1099   -1.3535 C   0  0  0  0  0  0  0  0  0  0  0  0
   -2.2520   -2.0182   -0.0433 C   0  0  2  0  0  0  0  0  0  0  0  0
   -2.4894    2.2870    0.0652 C   0  0  0  0  0  0  0  0  0  0  0  0
    2.1223   -0.4726    1.7354 C   0  0  0  0  0  0  0  0  0  0  0  0
   -0.5186    2.7068   -1.2935 C   0  0  0  0  0  0  0  0  0  0  0  0
   -1.7821    3.1058   -0.8122 C   0  0  0  0  0  0  0  0  0  0  0  0
   -3.7354    2.6490    0.4725 O   0  0  0  0  0  0  0  0  0  0  0  0
   -3.6189   -1.7235   -0.3200 O   0  0  0  0  0  0  0  0  0  0  0  0
    4.0167   -0.1194    0.2780 C   0  0  0  0  0  0  0  0  0  0  0  0
   -0.5894    0.6583    0.6534 C   0  0  2  0  0  0  0  0  0  0  0  0
    0.5639   -0.1546    0.1408 C   0  0  0  0  0  0  0  0  0  0  0  0
   -1.7231    0.5727   -0.3780 C   0  0  2  0  0  0  0  0  0  0  0  0
    1.7645    0.4552    0.4440 C   0  0  0  0  0  0  0  0  0  0  0  0
    0.1705    1.9978    0.7904 C   0  0  1  0  0  0  0  0  0  0  0  0
    1.5841    1.6840    1.0282 O   0  0  0  0  0  0  0  0  0  0  0  0
   -2.0523   -0.9541   -0.5324 C   0  0  2  0  0  0  0  0  0  0  0  0
   -2.4022   -1.5995    0.7622 N   0  0  0  0  0  0  0  0  0  0  0  0
    0.4883   -1.3094   -0.6177 C   0  0  0  0  0  0  0  0  0  0  0  0
   -1.3831    1.2865   -1.6662 C   0  0  0  0  0  0  0  0  0  0  0  0
   -0.8537   -1.7579   -1.1324 C   0  0  0  0  0  0  0  0  0  0  0  0
   -1.0505    0.0867    2.0166 C   0  0  0  0  0  0  0  0  0  0  0  0
   -0.5883    2.3686   -1.6753 C   0  0  0  0  0  0  0  0  0  0  0  0
   -0.0300    2.9734   -0.4123 C   0  0  2  0  0  0  0  0  0  0  0  0
    2.9748   -0.1336    0.1198 C   0  0  0  0  0  0  0  0  0  0  0  0
   -2.3647   -0.7042    1.9173 C   0  0  0  0  0  0  0  0  0  0  0  0
    1.6929   -1.9191   -0.9692 C   0  0  0  0  0  0  0  0  0  0  0  0
    2.9253   -1.3470   -0.5832 C   0  0  0  0  0  0  0  0  0  0  0  0
   -3.6698   -2.3218    0.6887 C   0  0  0  0  0  0  0  0  0  0  0  0
    1.1545    3.7092   -0.6987 O   0  0  0  0  0  0  0  0  0  0  0  0
    4.1048    0.5319    0.4967 O   0  0  0  0  0  0  0  0  0  0  0  0
    5.3479   -0.0758    0.1802 C   0  0  0  0  0  0  0  0  0  0  0  0
   -0.9464   -0.5771   -1.2923 H   0  0  0  0  0  0  0  0  0  0  0  0
   -4.2252    1.6107    1.6987 H   0  0  0  0  0  0  0  0  0  0  0  0
    1.0601    2.4323   -2.3048 H   0  0  0  0  0  0  0  0  0  0  0  0
    0.1864    0.9485   -2.5314 H   0  0  0  0  0  0  0  0  0  0  0  0
    1.4784   -0.9846   -2.0654 H   0  0  0  0  0  0  0  0  0  0  0  0
    4.1527    1.5107    1.2844 H   0  0  0  0  0  0  0  0  0  0  0  0
    2.3094    2.6099    0.1402 H   0  0  0  0  0  0  0  0  0  0  0  0
   -1.1808    5.0184    0.4960 H   0  0  0  0  0  0  0  0  0  0  0  0
   -3.0541    3.7329    1.4744 H   0  0  0  0  0  0  0  0  0  0  0  0
   -2.4068   -3.8627   -1.4103 H   0  0  0  0  0  0  0  0  0  0  0  0
   -1.0390   -2.8544   -0.9264 H   0  0  0  0  0  0  0  0  0  0  0  0
   -2.1222   -2.3522   -2.2825 H   0  0  0  0  0  0  0  0  0  0  0  0
    2.1565   -3.1342   -2.3377 H   0  0  0  0  0  0  0  0  0  0  0  0
    1.5161   -3.1613   -0.6502 H   0  0  0  0  0  0  0  0  0  0  0  0
    2.7562   -4.3119   -1.1651 H   0  0  0  0  0  0  0  0  0  0  0  0
   -6.1704    0.3281    1.6175 H   0  0  0  0  0  0  0  0  0  0  0  0
   -5.1186   -0.1096    3.0215 H   0  0  0  0  0  0  0  0  0  0  0  0
   -6.3117   -1.2527    2.3946 H   0  0  0  0  0  0  0  0  0  0  0  0
    6.2843    0.4273    1.1677 H   0  0  0  0  0  0  0  0  0  0  0  0
    6.5839   -1.0806    2.0394 H   0  0  0  0  0  0  0  0  0  0  0  0
    5.2915   -0.0196    2.6104 H   0  0  0  0  0  0  0  0  0  0  0  0
    1.0177   -2.2237    0.1189 H   0  0  0  0  0  0  0  0  0  0  0  0
   -1.6602   -1.5834    1.9810 H   0  0  0  0  0  0  0  0  0  0  0  0
    2.4534   -0.9196   -1.4152 H   0  0  0  0  0  0  0  0  0  0  0  0
    0.2566   -1.9513   -2.4633 H   0  0  0  0  0  0  0  0  0  0  0  0
    1.0999    0.6693   -2.4998 H   0  0  0  0  0  0  0  0  0  0  0  0
    2.1075    1.6828   -1.4688 H   0  0  0  0  0  0  0  0  0  0  0  0
    0.4480    0.7581    2.3362 H   0  0  0  0  0  0  0  0  0  0  0  0
    0.3175   -0.9386    2.7689 H   0  0  0  0  0  0  0  0  0  0  0  0
   -2.0845   -2.4984   -2.2013 H   0  0  0  0  0  0  0  0  0  0  0  0
   -2.2404   -3.0311    0.3787 H   0  0  0  0  0  0  0  0  0  0  0  0
    2.6582    0.0062    2.5648 H   0  0  0  0  0  0  0  0  0  0  0  0
    2.3536   -1.5444    1.7992 H   0  0  0  0  0  0  0  0  0  0  0  0
   -0.0071    3.3281   -2.0249 H   0  0  0  0  0  0  0  0  0  0  0  0
   -2.2244    4.0367   -1.1568 H   0  0  0  0  0  0  0  0  0  0  0  0
   -4.0174    1.9710    1.1147 H   0  0  0  0  0  0  0  0  0  0  0  0
   -3.7012   -0.7530   -0.2729 H   0  0  0  0  0  0  0  0  0  0  0  0
    4.5767    0.3123    1.1148 H   0  0  0  0  0  0  0  0  0  0  0  0
    4.3631    0.3918   -0.6268 H   0  0  0  0  0  0  0  0  0  0  0  0
    4.2770   -1.1805    0.1991 H   0  0  0  0  0  0  0  0  0  0  0  0
   -2.6195    1.0830    0.0033 H   0  0  0  0  0  0  0  0  0  0  0  0
   -0.1575    2.5387    1.6873 H   0  0  0  0  0  0  0  0  0  0  0  0
   -2.8954   -1.0462   -1.2313 H   0  0  0  0  0  0  0  0  0  0  0  0
   -1.8159    0.9235   -2.5947 H   0  0  0  0  0  0  0  0  0  0  0  0
   -0.8572   -1.6138   -2.2209 H   0  0  0  0  0  0  0  0  0  0  0  0
   -0.9813   -2.8335   -0.9564 H   0  0  0  0  0  0  0  0  0  0  0  0
   -1.2238    0.9015    2.7307 H   0  0  0  0  0  0  0  0  0  0  0  0
   -0.2789   -0.5530    2.4651 H   0  0  0  0  0  0  0  0  0  0  0  0
   -0.3930    2.8679   -2.6198 H   0  0  0  0  0  0  0  0  0  0  0  0
   -0.7727    3.7197   -0.0986 H   0  0  0  0  0  0  0  0  0  0  0  0
   -2.4808   -1.2845    2.8414 H   0  0  0  0  0  0  0  0  0  0  0  0
   -3.2088   -0.0019    1.8883 H   0  0  0  0  0  0  0  0  0  0  0  0
    1.6917   -2.8294   -1.5638 H   0  0  0  0  0  0  0  0  0  0  0  0
    3.8321   -1.8627   -0.8822 H   0  0  0  0  0  0  0  0  0  0  0  0
   -4.5126   -1.6485    0.4962 H   0  0  0  0  0  0  0  0  0  0  0  0
   -3.8645   -2.8604    1.6224 H   0  0  0  0  0  0  0  0  0  0  0  0
   -3.6383   -3.0747   -0.1065 H   0  0  0  0  0  0  0  0  0  0  0  0
    1.0392    4.1692   -1.5442 H   0  0  0  0  0  0  0  0  0  0  0  0
    5.4806   -0.1641   -0.9032 H   0  0  0  0  0  0  0  0  0  0  0  0
    5.4488   -1.0496    0.6714 H   0  0  0  0  0  0  0  0  0  0  0  0
    6.1437    0.5716    0.5607 H   0  0  0  0  0  0  0  0  0  0  0  0
  2  1  1  0
  3  1  2  0
  4  1  1  0
  5  3  1  0
  6  7  1  0
  7  4  2  0
  8  2  2  0
  9 12  2  0
 10  2  1  0
 11 14  2  0
 12 13  1  0
 13 10  1  0
 14 15  1  0
 15 13  2  0
 16 21  2  0
 17  5  1  0
 18  6  1  0
 19  9  1  0
 20 11  1  0
 21  4  1  0
 22 17  1  0
 23 19  1  0
 24 18  1  0
 25 20  1  0
 16  8  1  0
  6  5  2  0
 11  9  1  0
 27 26  1  0
 28 26  1  0
 29 27  2  0
 30 26  1  0
 30 31  1  0
 32 28  1  0
 33 27  1  0
 28 34  1  0
 32 35  1  0
 36 41  1  0
 26 37  1  1
 38 39  1  0
 39 30  1  0
 40 29  1  0
 41 37  1  0
 42 33  2  0
 43 42  1  0
 44 40  1  0
 39 45  1  0
 46 36  1  0
 29 31  1  0
 32 36  1  0
 38 34  2  0
 35 33  1  0
 43 40  2  0
 48 47  1  0
 49 47  1  0
 50 48  2  0
 51 47  1  0
 52 51  1  0
 53 49  1  0
 54 62  1  0
 55 48  1  0
 49 56  1  0
 53 57  1  0
 47 58  1  1
 59 60  1  0
 60 51  1  0
 61 50  1  0
 62 58  1  0
 63 55  2  0
 64 63  1  0
 65 54  1  0
 60 66  1  0
 67 61  1  0
 68 67  1  0
 52 50  1  0
 53 54  1  0
 59 56  2  0
 57 55  1  0
 64 61  2  0
  3 69  1  0
  7 70  1  0
 10 71  1  0
 10 72  1  0
 12 73  1  0
 14 74  1  0
 15 75  1  0
 16 76  1  0
 21 77  1  0
 22 78  1  0
 22 79  1  0
 22 80  1  0
 23 81  1  0
 23 82  1  0
 23 83  1  0
 24 84  1  0
 24 85  1  0
 24 86  1  0
 25 87  1  0
 25 88  1  0
 25 89  1  0
 28 90  1  1
 30 91  1  1
 32 92  1  6
 34 93  1  0
 35 94  1  0
 35 95  1  0
 37 96  1  0
 37 97  1  0
 38 98  1  0
 39 99  1  1
 41100  1  0
 41101  1  0
 42102  1  0
 43103  1  0
 44104  1  0
 45105  1  0
 46106  1  0
 46107  1  0
 46108  1  0
 49109  1  1
 51110  1  1
 53111  1  6
 56112  1  0
 57113  1  0
 57114  1  0
 58115  1  0
 58116  1  0
 59117  1  0
 60118  1  1
 62119  1  0
 62120  1  0
 63121  1  0
 64122  1  0
 65123  1  0
 65124  1  0
 65125  1  0
 66126  1  0
 68127  1  0
 68128  1  0
 68129  1  0
M  END
$$$$
