
     RDKit          3D

129139  0  0  0  0  0  0  0  0999 V2000
    1.8031    0.4414    0.0452 C   0  0  0  0  0  0  0  0  0  0  0  0
    0.3837    0.4717    0.0365 C   0  0  0  0  0  0  0  0  0  0  0  0
    2.5881   -0.6825    0.4063 C   0  0  0  0  0  0  0  0  0  0  0  0
    2.4764    1.6219   -0.3358 C   0  0  0  0  0  0  0  0  0  0  0  0
    3.9881   -0.6394    0.3944 C   0  0  0  0  0  0  0  0  0  0  0  0
    4.6411    0.5457    0.0175 C   0  0  0  0  0  0  0  0  0  0  0  0
    3.8819    1.6622   -0.3450 C   0  0  0  0  0  0  0  0  0  0  0  0
   -0.3228    1.5745   -0.3286 N   0  0  0  0  0  0  0  0  0  0  0  0
   -4.0788   -0.7680   -0.6776 C   0  0  0  0  0  0  0  0  0  0  0  0
   -0.4166   -0.7592    0.4373 C   0  0  0  0  0  0  0  0  0  0  0  0
   -4.7291   -0.3426    0.4978 C   0  0  0  0  0  0  0  0  0  0  0  0
   -2.6841   -0.8998   -0.6888 C   0  0  0  0  0  0  0  0  0  0  0  0
   -1.9248   -0.6143    0.4571 C   0  0  0  0  0  0  0  0  0  0  0  0
   -3.9710   -0.0460    1.6350 C   0  0  0  0  0  0  0  0  0  0  0  0
   -2.5801   -0.1768    1.6131 C   0  0  0  0  0  0  0  0  0  0  0  0
    0.3591    2.6767   -0.6853 C   0  0  0  0  0  0  0  0  0  0  0  0
    4.8010   -1.6927    0.7331 O   0  0  0  0  0  0  0  0  0  0  0  0
    6.0133    0.5097    0.0332 O   0  0  0  0  0  0  0  0  0  0  0  0
   -4.8909   -1.0384   -1.7527 O   0  0  0  0  0  0  0  0  0  0  0  0
   -6.0978   -0.2475    0.4312 O   0  0  0  0  0  0  0  0  0  0  0  0
    1.7369    2.7490   -0.7036 C   0  0  0  0  0  0  0  0  0  0  0  0
    4.1866   -2.9166    1.1082 C   0  0  0  0  0  0  0  0  0  0  0  0
   -4.2619   -1.3015   -2.9981 C   0  0  0  0  0  0  0  0  0  0  0  0
    6.7124    1.6973   -0.3092 C   0  0  0  0  0  0  0  0  0  0  0  0
   -6.7777    0.2484    1.5747 C   0  0  0  0  0  0  0  0  0  0  0  0
   -0.3799   -0.3266    0.5914 C   0  0  2  0  0  0  0  0  0  0  0  0
   -0.5825    0.8429   -0.3257 C   0  0  0  0  0  0  0  0  0  0  0  0
    0.5611   -1.3162   -0.1088 C   0  0  2  0  0  0  0  0  0  0  0  0
   -1.8807    1.2904   -0.2555 C   0  0  0  0  0  0  0  0  0  0  0  0
   -1.8731   -0.7115    0.7354 C   0  0  1  0  0  0  0  0  0  0  0  0
   -2.6722    0.5104    0.5432 O   0  0  0  0  0  0  0  0  0  0  0  0
    1.8757   -0.5147   -0.4202 C   0  0  1  0  0  0  0  0  0  0  0  0
    0.3314    1.3706   -1.2236 C   0  0  0  0  0  0  0  0  0  0  0  0
   -0.0863   -1.9761   -1.3043 C   0  0  0  0  0  0  0  0  0  0  0  0
    1.6330    0.6443   -1.4414 C   0  0  0  0  0  0  0  0  0  0  0  0
    2.4718    0.1019    0.7958 N   0  0  0  0  0  0  0  0  0  0  0  0
    0.2442    0.1650    1.9206 C   0  0  0  0  0  0  0  0  0  0  0  0
   -1.4091   -2.2022   -1.3502 C   0  0  0  0  0  0  0  0  0  0  0  0
   -2.3339   -1.8657   -0.2096 C   0  0  2  0  0  0  0  0  0  0  0  0
   -2.2913    2.3777   -0.9925 C   0  0  0  0  0  0  0  0  0  0  0  0
    1.7420   -0.1619    2.0338 C   0  0  0  0  0  0  0  0  0  0  0  0
   -0.0724    2.4782   -1.9777 C   0  0  0  0  0  0  0  0  0  0  0  0
   -1.3776    2.9943   -1.8446 C   0  0  0  0  0  0  0  0  0  0  0  0
   -3.5743    2.8259   -0.9300 O   0  0  0  0  0  0  0  0  0  0  0  0
   -3.6507   -1.6387   -0.7053 O   0  0  0  0  0  0  0  0  0  0  0  0
    3.8907   -0.2141    0.9324 C   0  0  0  0  0  0  0  0  0  0  0  0
   -0.7424    0.8941    0.3683 C   0  0  2  0  0  0  0  0  0  0  0  0
    0.4389    0.0232    0.0889 C   0  0  0  0  0  0  0  0  0  0  0  0
   -1.9135    0.4514   -0.5203 C   0  0  2  0  0  0  0  0  0  0  0  0
    1.6081    0.7527    0.1288 C   0  0  0  0  0  0  0  0  0  0  0  0
   -0.0743    2.2469    0.0534 C   0  0  1  0  0  0  0  0  0  0  0  0
    1.3713    2.0961    0.3032 O   0  0  0  0  0  0  0  0  0  0  0  0
   -2.1737   -1.0558   -0.1888 C   0  0  2  0  0  0  0  0  0  0  0  0
   -2.6608   -1.1104    1.2166 N   0  0  0  0  0  0  0  0  0  0  0  0
    0.4025   -1.3137   -0.2579 C   0  0  0  0  0  0  0  0  0  0  0  0
   -1.6724    0.7557   -1.9794 C   0  0  0  0  0  0  0  0  0  0  0  0
   -0.9328   -1.9620   -0.5129 C   0  0  0  0  0  0  0  0  0  0  0  0
   -1.1451    0.7646    1.8510 C   0  0  0  0  0  0  0  0  0  0  0  0
   -0.9340    1.8096   -2.3609 C   0  0  0  0  0  0  0  0  0  0  0  0
   -0.3117    2.7750   -1.3930 C   0  0  2  0  0  0  0  0  0  0  0  0
    2.8383    0.1505   -0.0631 C   0  0  0  0  0  0  0  0  0  0  0  0
   -1.6765   -0.6347    2.1961 C   0  0  0  0  0  0  0  0  0  0  0  0
    1.6283   -1.9475   -0.4593 C   0  0  0  0  0  0  0  0  0  0  0  0
    2.8374   -1.2245   -0.3426 C   0  0  0  0  0  0  0  0  0  0  0  0
   -3.1878   -2.4193    1.5925 C   0  0  0  0  0  0  0  0  0  0  0  0
    0.8868    3.2739   -1.9860 O   0  0  0  0  0  0  0  0  0  0  0  0
    3.9339    0.9598    0.0096 O   0  0  0  0  0  0  0  0  0  0  0  0
    5.2011    0.3454   -0.1772 C   0  0  0  0  0  0  0  0  0  0  0  0
    2.0847   -1.5972    0.6981 H   0  0  0  0  0  0  0  0  0  0  0  0
    4.3687    2.5856   -0.6433 H   0  0  0  0  0  0  0  0  0  0  0  0
   -0.0977   -1.0750    1.4393 H   0  0  0  0  0  0  0  0  0  0  0  0
   -0.1592   -1.5801   -0.2451 H   0  0  0  0  0  0  0  0  0  0  0  0
   -2.1597   -1.2204   -1.5829 H   0  0  0  0  0  0  0  0  0  0  0  0
   -4.4310    0.2939    2.5562 H   0  0  0  0  0  0  0  0  0  0  0  0
   -2.0098    0.0737    2.5048 H   0  0  0  0  0  0  0  0  0  0  0  0
   -0.2529    3.5293   -0.9654 H   0  0  0  0  0  0  0  0  0  0  0  0
    2.2184    3.6742   -1.0024 H   0  0  0  0  0  0  0  0  0  0  0  0
    3.5899   -3.3273    0.2871 H   0  0  0  0  0  0  0  0  0  0  0  0
    3.5840   -2.7942    2.0141 H   0  0  0  0  0  0  0  0  0  0  0  0
    4.9809   -3.6350    1.3325 H   0  0  0  0  0  0  0  0  0  0  0  0
   -5.0471   -1.4107   -3.7525 H   0  0  0  0  0  0  0  0  0  0  0  0
   -3.7022   -2.2418   -2.9645 H   0  0  0  0  0  0  0  0  0  0  0  0
   -3.6207   -0.4684   -3.3050 H   0  0  0  0  0  0  0  0  0  0  0  0
    6.5110    1.9888   -1.3451 H   0  0  0  0  0  0  0  0  0  0  0  0
    7.7837    1.4910   -0.2250 H   0  0  0  0  0  0  0  0  0  0  0  0
    6.4755    2.5102    0.3851 H   0  0  0  0  0  0  0  0  0  0  0  0
   -6.6514   -0.4225    2.4307 H   0  0  0  0  0  0  0  0  0  0  0  0
   -6.4556    1.2664    1.8173 H   0  0  0  0  0  0  0  0  0  0  0  0
   -7.8455    0.2863    1.3385 H   0  0  0  0  0  0  0  0  0  0  0  0
    0.8130   -2.1425    0.5712 H   0  0  0  0  0  0  0  0  0  0  0  0
   -2.0907   -1.0388    1.7600 H   0  0  0  0  0  0  0  0  0  0  0  0
    2.5942   -1.2123   -0.8727 H   0  0  0  0  0  0  0  0  0  0  0  0
    0.5460   -2.2925   -2.1302 H   0  0  0  0  0  0  0  0  0  0  0  0
    2.4666    1.3575   -1.4254 H   0  0  0  0  0  0  0  0  0  0  0  0
    1.6063    0.2109   -2.4498 H   0  0  0  0  0  0  0  0  0  0  0  0
    0.1001    1.2455    2.0546 H   0  0  0  0  0  0  0  0  0  0  0  0
   -0.2510   -0.3180    2.7723 H   0  0  0  0  0  0  0  0  0  0  0  0
   -1.8247   -2.7024   -2.2203 H   0  0  0  0  0  0  0  0  0  0  0  0
   -2.3951   -2.7776    0.3992 H   0  0  0  0  0  0  0  0  0  0  0  0
    1.8635   -1.2104    2.3371 H   0  0  0  0  0  0  0  0  0  0  0  0
    2.1589    0.4429    2.8489 H   0  0  0  0  0  0  0  0  0  0  0  0
    0.6079    2.9313   -2.6947 H   0  0  0  0  0  0  0  0  0  0  0  0
   -1.6883    3.8476   -2.4405 H   0  0  0  0  0  0  0  0  0  0  0  0
   -4.0363    2.1934   -0.3459 H   0  0  0  0  0  0  0  0  0  0  0  0
   -3.8665   -2.3492   -1.3298 H   0  0  0  0  0  0  0  0  0  0  0  0
    4.0565   -1.2845    1.0976 H   0  0  0  0  0  0  0  0  0  0  0  0
    4.3315    0.3369    1.7706 H   0  0  0  0  0  0  0  0  0  0  0  0
    4.4420    0.0882    0.0351 H   0  0  0  0  0  0  0  0  0  0  0  0
   -2.8165    1.0197   -0.2493 H   0  0  0  0  0  0  0  0  0  0  0  0
   -0.4199    3.0210    0.7507 H   0  0  0  0  0  0  0  0  0  0  0  0
   -3.0020   -1.3983   -0.8245 H   0  0  0  0  0  0  0  0  0  0  0  0
   -2.1473    0.1295   -2.7301 H   0  0  0  0  0  0  0  0  0  0  0  0
   -0.9865   -2.9162    0.0203 H   0  0  0  0  0  0  0  0  0  0  0  0
   -0.9740   -2.2031   -1.5837 H   0  0  0  0  0  0  0  0  0  0  0  0
   -1.9284    1.5030    2.0699 H   0  0  0  0  0  0  0  0  0  0  0  0
   -0.3037    0.9972    2.5164 H   0  0  0  0  0  0  0  0  0  0  0  0
   -0.8105    2.0270   -3.4191 H   0  0  0  0  0  0  0  0  0  0  0  0
   -0.9983    3.6286   -1.3312 H   0  0  0  0  0  0  0  0  0  0  0  0
   -2.1444   -0.5783    3.1871 H   0  0  0  0  0  0  0  0  0  0  0  0
   -0.8419   -1.3402    2.2914 H   0  0  0  0  0  0  0  0  0  0  0  0
    1.6628   -2.9993   -0.7346 H   0  0  0  0  0  0  0  0  0  0  0  0
    3.7627   -1.7654   -0.5148 H   0  0  0  0  0  0  0  0  0  0  0  0
   -3.6976   -2.3567    2.5606 H   0  0  0  0  0  0  0  0  0  0  0  0
   -2.4099   -3.1850    1.6739 H   0  0  0  0  0  0  0  0  0  0  0  0
   -3.9366   -2.7601    0.8692 H   0  0  0  0  0  0  0  0  0  0  0  0
    1.6241    2.9176   -1.4515 H   0  0  0  0  0  0  0  0  0  0  0  0
    5.2904   -0.0760   -1.1840 H   0  0  0  0  0  0  0  0  0  0  0  0
    5.9672    1.1195   -0.0714 H   0  0  0  0  0  0  0  0  0  0  0  0
    5.3887   -0.4153    0.5880 H   0  0  0  0  0  0  0  0  0  0  0  0
  2  1  1  0
  3  1  2  0
  4  1  1  0
  5  3  1  0
  6  7  1  0
  7  4  2  0
  8  2  2  0
  9 12  2  0
 10  2  1  0
 11 14  2  0
 12 13  1  0
 13 10  1  0
 14 15  1  0
 15 13  2  0
 16 21  2  0
 17  5  1  0
 18  6  1  0
 19  9  1  0
 20 11  1  0
 21  4  1  0
 22 17  1  0
 23 19  1  0
 24 18  1  0
 25 20  1  0
 16  8  1  0
  6  5  2  0
 11  9  1  0
 27 26  1  0
 28 26  1  0
 29 27  2  0
 30 26  1  0
 30 31  1  0
 32 28  1  0
 33 27  1  0
 28 34  1  0
 32 35  1  0
 36 41  1  0
 26 37  1  1
 38 39  1  0
 39 30  1  0
 40 29  1  0
 41 37  1  0
 42 33  2  0
 43 42  1  0
 44 40  1  0
 39 45  1  0
 46 36  1  0
 29 31  1  0
 32 36  1  0
 38 34  2  0
 35 33  1  0
 43 40  2  0
 48 47  1  0
 49 47  1  0
 50 48  2  0
 51 47  1  0
 52 51  1  0
 53 49  1  0
 54 62  1  0
 55 48  1  0
 49 56  1  0
 53 57  1  0
 47 58  1  1
 59 60  1  0
 60 51  1  0
 61 50  1  0
 62 58  1  0
 63 55  2  0
 64 63  1  0
 65 54  1  0
 60 66  1  0
 67 61  1  0
 68 67  1  0
 52 50  1  0
 53 54  1  0
 59 56  2  0
 57 55  1  0
 64 61  2  0
  3 69  1  0
  7 70  1  0
 10 71  1  0
 10 72  1  0
 12 73  1  0
 14 74  1  0
 15 75  1  0
 16 76  1  0
 21 77  1  0
 22 78  1  0
 22 79  1  0
 22 80  1  0
 23 81  1  0
 23 82  1  0
 23 83  1  0
 24 84  1  0
 24 85  1  0
 24 86  1  0
 25 87  1  0
 25 88  1  0
 25 89  1  0
 28 90  1  1
 30 91  1  1
 32 92  1  6
 34 93  1  0
 35 94  1  0
 35 95  1  0
 37 96  1  0
 37 97  1  0
 38 98  1  0
 39 99  1  1
 41100  1  0
 41101  1  0
 42102  1  0
 43103  1  0
 44104  1  0
 45105  1  0
 46106  1  0
 46107  1  0
 46108  1  0
 49109  1  1
 51110  1  1
 53111  1  6
 56112  1  0
 57113  1  0
 57114  1  0
 58115  1  0
 58116  1  0
 59117  1  0
 60118  1  1
 62119  1  0
 62120  1  0
 63121  1  0
 64122  1  0
 65123  1  0
 65124  1  0
 65125  1  0
 66126  1  0
 68127  1  0
 68128  1  0
 68129  1  0
M  END
$$$$
