
     RDKit          3D

 63 62  0  0  0  0  0  0  0  0999 V2000
   47.4876    7.9017   12.8604 C   0  0  0  0  0  0  0  0  0  0  0  0
   48.0017    7.8503   11.6867 N   0  0  0  0  0  0  0  0  0  0  0  0
   46.1474    8.0539   13.0622 N   0  0  0  0  0  0  0  0  0  0  0  0
   48.1416    7.7964   14.0637 N   0  0  0  0  0  0  0  0  0  0  0  0
   45.1700    7.8763   12.0037 C   0  0  0  0  0  0  0  0  0  0  0  0
   44.9011    6.4092   11.7570 C   0  0  0  0  0  0  0  0  0  0  0  0
   49.4326    7.7185   11.4879 C   0  0  0  0  0  0  0  0  0  0  0  0
   48.0631    8.8609   15.0516 C   0  0  0  0  0  0  0  0  0  0  0  0
   45.4305    5.7889   10.6122 C   0  0  0  0  0  0  0  0  0  0  0  0
   44.1461    5.6375   12.6602 C   0  0  0  0  0  0  0  0  0  0  0  0
   45.1910    4.4396   10.3534 C   0  0  0  0  0  0  0  0  0  0  0  0
   43.9163    4.2844   12.4058 C   0  0  0  0  0  0  0  0  0  0  0  0
   44.4341    3.6892   11.2503 C   0  0  0  0  0  0  0  0  0  0  0  0
   46.7637    6.5846   12.1693 S   0  0  0  0  0  0  0  0  0  0  0  0
   46.3925    6.3536   10.7958 O   0  0  0  0  0  0  0  0  0  0  0  0
   47.9669    6.0731   12.7756 O   0  0  0  0  0  0  0  0  0  0  0  0
   45.5103    6.1224   13.0571 O   0  0  0  0  0  0  0  0  0  0  0  0
   46.7639    8.1660   12.4318 O   0  0  0  0  0  0  0  0  0  0  0  0
   44.8382    5.9050   12.0924 C   0  0  0  0  0  0  0  0  0  0  0  0
   44.1282    5.5755   13.1109 N   0  0  0  0  0  0  0  0  0  0  0  0
   46.0616    6.4927   12.2410 N   0  0  0  0  0  0  0  0  0  0  0  0
   44.4816    5.7954   10.7729 N   0  0  0  0  0  0  0  0  0  0  0  0
   46.5250    6.9001   13.5542 C   0  0  0  0  0  0  0  0  0  0  0  0
   47.7950    7.7060   13.4204 C   0  0  0  0  0  0  0  0  0  0  0  0
   42.8306    4.9531   12.9134 C   0  0  0  0  0  0  0  0  0  0  0  0
   45.3925    5.3303    9.7474 C   0  0  0  0  0  0  0  0  0  0  0  0
   47.7712    9.1017   13.5651 C   0  0  0  0  0  0  0  0  0  0  0  0
   49.0150    7.0760   13.1222 C   0  0  0  0  0  0  0  0  0  0  0  0
   48.9469    9.8446   13.4427 C   0  0  0  0  0  0  0  0  0  0  0  0
   50.1883    7.8230   12.9979 C   0  0  0  0  0  0  0  0  0  0  0  0
   50.1559    9.2065   13.1601 C   0  0  0  0  0  0  0  0  0  0  0  0
   45.8525    7.6397   13.9407 H   0  0  0  0  0  0  0  0  0  0  0  0
   49.0989    7.4865   13.9530 H   0  0  0  0  0  0  0  0  0  0  0  0
   44.2264    8.3498   12.3163 H   0  0  0  0  0  0  0  0  0  0  0  0
   45.4797    8.3884   11.0819 H   0  0  0  0  0  0  0  0  0  0  0  0
   50.0348    8.1554   12.2932 H   0  0  0  0  0  0  0  0  0  0  0  0
   49.7109    8.2803   10.5843 H   0  0  0  0  0  0  0  0  0  0  0  0
   49.7141    6.6695   11.3548 H   0  0  0  0  0  0  0  0  0  0  0  0
   47.0290    9.1602   15.2592 H   0  0  0  0  0  0  0  0  0  0  0  0
   48.6161    9.7408   14.7027 H   0  0  0  0  0  0  0  0  0  0  0  0
   48.5109    8.5169   15.9854 H   0  0  0  0  0  0  0  0  0  0  0  0
   46.0448    6.3666    9.9203 H   0  0  0  0  0  0  0  0  0  0  0  0
   43.7380    6.0886   13.5630 H   0  0  0  0  0  0  0  0  0  0  0  0
   45.5953    3.9825    9.4487 H   0  0  0  0  0  0  0  0  0  0  0  0
   43.3463    3.6746   13.1078 H   0  0  0  0  0  0  0  0  0  0  0  0
   44.2618    2.6347   11.0664 H   0  0  0  0  0  0  0  0  0  0  0  0
   44.7092    6.2413   12.5062 H   0  0  0  0  0  0  0  0  0  0  0  0
   47.3240    8.3195   13.2225 H   0  0  0  0  0  0  0  0  0  0  0  0
   46.2346    7.1928   11.5276 H   0  0  0  0  0  0  0  0  0  0  0  0
   43.5531    5.4050   10.6518 H   0  0  0  0  0  0  0  0  0  0  0  0
   45.7588    7.5014   14.0661 H   0  0  0  0  0  0  0  0  0  0  0  0
   46.7158    6.0207   14.1861 H   0  0  0  0  0  0  0  0  0  0  0  0
   42.1251    5.6339   12.4193 H   0  0  0  0  0  0  0  0  0  0  0  0
   42.4116    4.6939   13.8926 H   0  0  0  0  0  0  0  0  0  0  0  0
   42.9124    4.0255   12.3341 H   0  0  0  0  0  0  0  0  0  0  0  0
   46.2789    5.9702    9.6620 H   0  0  0  0  0  0  0  0  0  0  0  0
   44.8829    5.3413    8.7781 H   0  0  0  0  0  0  0  0  0  0  0  0
   45.7251    4.3106    9.9573 H   0  0  0  0  0  0  0  0  0  0  0  0
   46.8334    9.6138   13.7752 H   0  0  0  0  0  0  0  0  0  0  0  0
   49.0520    5.9941   12.9952 H   0  0  0  0  0  0  0  0  0  0  0  0
   48.9174   10.9246   13.5772 H   0  0  0  0  0  0  0  0  0  0  0  0
   51.1216    7.3119   12.7945 H   0  0  0  0  0  0  0  0  0  0  0  0
   51.0694    9.7916   13.0753 H   0  0  0  0  0  0  0  0  0  0  0  0
  2  1  2  0
  3  1  1  0
  4  1  1  0
  5  3  1  0
  6  5  1  0
  7  2  1  0
  8  4  1  0
  9  6  2  0
 10  6  1  0
 11  9  1  0
 12 10  2  0
 13 12  1  0
 11 13  2  0
 15 14  2  0
 16 14  2  0
 17 14  1  0
 18 14  1  0
 20 19  2  0
 21 19  1  0
 22 19  1  0
 23 21  1  0
 24 23  1  0
 25 20  1  0
 26 22  1  0
 27 24  2  0
 28 24  1  0
 29 27  1  0
 30 28  2  0
 31 30  1  0
 29 31  2  0
  3 32  1  0
  4 33  1  0
  5 34  1  0
  5 35  1  0
  7 36  1  0
  7 37  1  0
  7 38  1  0
  8 39  1  0
  8 40  1  0
  8 41  1  0
  9 42  1  0
 10 43  1  0
 11 44  1  0
 12 45  1  0
 13 46  1  0
 17 47  1  0
 18 48  1  0
 21 49  1  0
 22 50  1  0
 23 51  1  0
 23 52  1  0
 25 53  1  0
 25 54  1  0
 25 55  1  0
 26 56  1  0
 26 57  1  0
 26 58  1  0
 27 59  1  0
 28 60  1  0
 29 61  1  0
 30 62  1  0
 31 63  1  0
M  END
> <Uni-Dock RESULT> 
ENERGY=   -5.315  LOWER_BOUND=    0.000  UPPER_BOUND=    0.000
INTER + INTRA:          -5.315
INTER:                  -5.315
INTRA:                   0.000
UNBOUND:                 0.000

$$$$

     RDKit          3D

 63 62  0  0  0  0  0  0  0  0999 V2000
   45.4145    5.5759   12.3007 C   0  0  0  0  0  0  0  0  0  0  0  0
   46.0955    5.2404   11.2670 N   0  0  0  0  0  0  0  0  0  0  0  0
   45.9918    5.7716   13.5207 N   0  0  0  0  0  0  0  0  0  0  0  0
   44.0630    5.8113   12.3698 N   0  0  0  0  0  0  0  0  0  0  0  0
   47.4263    5.9087   13.6964 C   0  0  0  0  0  0  0  0  0  0  0  0
   47.8854    7.3010   13.3274 C   0  0  0  0  0  0  0  0  0  0  0  0
   45.4632    5.0062    9.9826 C   0  0  0  0  0  0  0  0  0  0  0  0
   43.2179    5.0483   13.2745 C   0  0  0  0  0  0  0  0  0  0  0  0
   48.5744    7.5081   12.1200 C   0  0  0  0  0  0  0  0  0  0  0  0
   47.6215    8.4068   14.1574 C   0  0  0  0  0  0  0  0  0  0  0  0
   49.0184    8.7795   11.7578 C   0  0  0  0  0  0  0  0  0  0  0  0
   48.0568    9.6808   13.7887 C   0  0  0  0  0  0  0  0  0  0  0  0
   48.7594    9.8642   12.5927 C   0  0  0  0  0  0  0  0  0  0  0  0
   46.4850    6.8227   12.1107 S   0  0  0  0  0  0  0  0  0  0  0  0
   47.8415    6.8048   11.6236 O   0  0  0  0  0  0  0  0  0  0  0  0
   45.3450    7.1848   11.3069 O   0  0  0  0  0  0  0  0  0  0  0  0
   46.4924    7.7407   13.4261 O   0  0  0  0  0  0  0  0  0  0  0  0
   46.1560    5.3845   12.7375 O   0  0  0  0  0  0  0  0  0  0  0  0
   47.6805    7.8703   13.3947 C   0  0  0  0  0  0  0  0  0  0  0  0
   47.2649    8.5739   14.3858 N   0  0  0  0  0  0  0  0  0  0  0  0
   46.8277    7.0800   12.6790 N   0  0  0  0  0  0  0  0  0  0  0  0
   48.9756    7.7467   12.9616 N   0  0  0  0  0  0  0  0  0  0  0  0
   45.4564    6.8967   13.1162 C   0  0  0  0  0  0  0  0  0  0  0  0
   44.7944    5.8239   12.2849 C   0  0  0  0  0  0  0  0  0  0  0  0
   48.2022    9.4020   15.1246 C   0  0  0  0  0  0  0  0  0  0  0  0
   49.3406    7.7508   11.5600 C   0  0  0  0  0  0  0  0  0  0  0  0
   44.5891    4.5396   12.8122 C   0  0  0  0  0  0  0  0  0  0  0  0
   44.3982    6.0851   10.9624 C   0  0  0  0  0  0  0  0  0  0  0  0
   43.9752    3.5498   12.0423 C   0  0  0  0  0  0  0  0  0  0  0  0
   43.7869    5.0915   10.1947 C   0  0  0  0  0  0  0  0  0  0  0  0
   43.5729    3.8248   10.7341 C   0  0  0  0  0  0  0  0  0  0  0  0
   45.4639    6.4322   14.0821 H   0  0  0  0  0  0  0  0  0  0  0  0
   43.6375    5.8701   11.4532 H   0  0  0  0  0  0  0  0  0  0  0  0
   47.6662    5.7387   14.7575 H   0  0  0  0  0  0  0  0  0  0  0  0
   47.9745    5.1421   13.1311 H   0  0  0  0  0  0  0  0  0  0  0  0
   44.4300    4.6468   10.0553 H   0  0  0  0  0  0  0  0  0  0  0  0
   46.0106    4.2036    9.4672 H   0  0  0  0  0  0  0  0  0  0  0  0
   45.4891    5.9081    9.3635 H   0  0  0  0  0  0  0  0  0  0  0  0
   43.6076    5.0389   14.2993 H   0  0  0  0  0  0  0  0  0  0  0  0
   43.1312    4.0124   12.9263 H   0  0  0  0  0  0  0  0  0  0  0  0
   42.2214    5.4926   13.2944 H   0  0  0  0  0  0  0  0  0  0  0  0
   48.7573    6.6658   11.4514 H   0  0  0  0  0  0  0  0  0  0  0  0
   47.0756    8.2776   15.0904 H   0  0  0  0  0  0  0  0  0  0  0  0
   49.5685    8.9148   10.8251 H   0  0  0  0  0  0  0  0  0  0  0  0
   47.8430   10.5461   14.4173 H   0  0  0  0  0  0  0  0  0  0  0  0
   49.0830   10.8588   12.3073 H   0  0  0  0  0  0  0  0  0  0  0  0
   47.3884    7.6757   13.8163 H   0  0  0  0  0  0  0  0  0  0  0  0
   45.1787    5.2996   12.7483 H   0  0  0  0  0  0  0  0  0  0  0  0
   47.2679    6.2134   12.3890 H   0  0  0  0  0  0  0  0  0  0  0  0
   49.6258    8.2919   13.5177 H   0  0  0  0  0  0  0  0  0  0  0  0
   45.4232    6.6128   14.1788 H   0  0  0  0  0  0  0  0  0  0  0  0
   44.8914    7.8348   13.0183 H   0  0  0  0  0  0  0  0  0  0  0  0
   48.9577    8.7967   15.6424 H   0  0  0  0  0  0  0  0  0  0  0  0
   47.6502    9.9662   15.8852 H   0  0  0  0  0  0  0  0  0  0  0  0
   48.6994   10.1292   14.4713 H   0  0  0  0  0  0  0  0  0  0  0  0
   48.8664    6.9305   11.0078 H   0  0  0  0  0  0  0  0  0  0  0  0
   50.4248    7.6273   11.4676 H   0  0  0  0  0  0  0  0  0  0  0  0
   49.0532    8.6932   11.0869 H   0  0  0  0  0  0  0  0  0  0  0  0
   44.9074    4.3080   13.8275 H   0  0  0  0  0  0  0  0  0  0  0  0
   44.5591    7.0732   10.5311 H   0  0  0  0  0  0  0  0  0  0  0  0
   43.8040    2.5638   12.4708 H   0  0  0  0  0  0  0  0  0  0  0  0
   43.4655    5.3247    9.1868 H   0  0  0  0  0  0  0  0  0  0  0  0
   43.0869    3.0506   10.1437 H   0  0  0  0  0  0  0  0  0  0  0  0
  2  1  2  0
  3  1  1  0
  4  1  1  0
  5  3  1  0
  6  5  1  0
  7  2  1  0
  8  4  1  0
  9  6  2  0
 10  6  1  0
 11  9  1  0
 12 10  2  0
 13 12  1  0
 11 13  2  0
 15 14  2  0
 16 14  2  0
 17 14  1  0
 18 14  1  0
 20 19  2  0
 21 19  1  0
 22 19  1  0
 23 21  1  0
 24 23  1  0
 25 20  1  0
 26 22  1  0
 27 24  2  0
 28 24  1  0
 29 27  1  0
 30 28  2  0
 31 30  1  0
 29 31  2  0
  3 32  1  0
  4 33  1  0
  5 34  1  0
  5 35  1  0
  7 36  1  0
  7 37  1  0
  7 38  1  0
  8 39  1  0
  8 40  1  0
  8 41  1  0
  9 42  1  0
 10 43  1  0
 11 44  1  0
 12 45  1  0
 13 46  1  0
 17 47  1  0
 18 48  1  0
 21 49  1  0
 22 50  1  0
 23 51  1  0
 23 52  1  0
 25 53  1  0
 25 54  1  0
 25 55  1  0
 26 56  1  0
 26 57  1  0
 26 58  1  0
 27 59  1  0
 28 60  1  0
 29 61  1  0
 30 62  1  0
 31 63  1  0
M  END
> <Uni-Dock RESULT> 
ENERGY=   -4.954  LOWER_BOUND=    1.042  UPPER_BOUND=    4.956
INTER + INTRA:          -4.954
INTER:                  -4.954
INTRA:                   0.000
UNBOUND:                 0.000

$$$$

     RDKit          3D

 63 62  0  0  0  0  0  0  0  0999 V2000
   48.9157    6.2432   20.6194 C   0  0  0  0  0  0  0  0  0  0  0  0
   50.0547    5.7276   20.9047 N   0  0  0  0  0  0  0  0  0  0  0  0
   48.6201    6.7111   19.3729 N   0  0  0  0  0  0  0  0  0  0  0  0
   47.8345    6.3928   21.4533 N   0  0  0  0  0  0  0  0  0  0  0  0
   49.4319    6.4074   18.2084 C   0  0  0  0  0  0  0  0  0  0  0  0
   49.1330    5.0197   17.6883 C   0  0  0  0  0  0  0  0  0  0  0  0
   50.3652    5.2617   22.2429 C   0  0  0  0  0  0  0  0  0  0  0  0
   47.2640    7.7062   21.7073 C   0  0  0  0  0  0  0  0  0  0  0  0
   50.0540    3.9814   17.9104 C   0  0  0  0  0  0  0  0  0  0  0  0
   47.9391    4.7332   17.0003 C   0  0  0  0  0  0  0  0  0  0  0  0
   49.8099    2.6937   17.4340 C   0  0  0  0  0  0  0  0  0  0  0  0
   47.6906    3.4413   16.5335 C   0  0  0  0  0  0  0  0  0  0  0  0
   48.6287    2.4253   16.7460 C   0  0  0  0  0  0  0  0  0  0  0  0
   49.0286    4.9454   19.5998 S   0  0  0  0  0  0  0  0  0  0  0  0
   50.1881    4.3745   18.9618 O   0  0  0  0  0  0  0  0  0  0  0  0
   48.4319    4.4230   20.8031 O   0  0  0  0  0  0  0  0  0  0  0  0
   47.8947    5.0397   18.4692 O   0  0  0  0  0  0  0  0  0  0  0  0
   49.3195    6.4971   19.8779 O   0  0  0  0  0  0  0  0  0  0  0  0
   48.6417    4.6683   17.6126 C   0  0  0  0  0  0  0  0  0  0  0  0
   47.4953    4.8199   17.0534 N   0  0  0  0  0  0  0  0  0  0  0  0
   48.8472    5.0204   18.9157 N   0  0  0  0  0  0  0  0  0  0  0  0
   49.7938    4.2242   17.0162 N   0  0  0  0  0  0  0  0  0  0  0  0
   47.8145    5.7183   19.6585 C   0  0  0  0  0  0  0  0  0  0  0  0
   48.3632    6.1759   20.9889 C   0  0  0  0  0  0  0  0  0  0  0  0
   47.3148    4.4349   15.6644 C   0  0  0  0  0  0  0  0  0  0  0  0
   50.7012    3.2924   17.6533 C   0  0  0  0  0  0  0  0  0  0  0  0
   48.6983    7.5229   21.1957 C   0  0  0  0  0  0  0  0  0  0  0  0
   48.5726    5.2573   22.0313 C   0  0  0  0  0  0  0  0  0  0  0  0
   49.2038    7.9439   22.4271 C   0  0  0  0  0  0  0  0  0  0  0  0
   49.0810    5.6821   23.2607 C   0  0  0  0  0  0  0  0  0  0  0  0
   49.3945    7.0250   23.4604 C   0  0  0  0  0  0  0  0  0  0  0  0
   47.6248    6.6587   19.1806 H   0  0  0  0  0  0  0  0  0  0  0  0
   47.9463    5.8820   22.3201 H   0  0  0  0  0  0  0  0  0  0  0  0
   49.1887    7.1306   17.4146 H   0  0  0  0  0  0  0  0  0  0  0  0
   50.5024    6.5344   18.4219 H   0  0  0  0  0  0  0  0  0  0  0  0
   49.8331    5.8010   23.0354 H   0  0  0  0  0  0  0  0  0  0  0  0
   51.4319    5.4467   22.4363 H   0  0  0  0  0  0  0  0  0  0  0  0
   50.1673    4.1898   22.3398 H   0  0  0  0  0  0  0  0  0  0  0  0
   47.0490    8.2525   20.7814 H   0  0  0  0  0  0  0  0  0  0  0  0
   47.9534    8.3062   22.3127 H   0  0  0  0  0  0  0  0  0  0  0  0
   46.3290    7.5903   22.2579 H   0  0  0  0  0  0  0  0  0  0  0  0
   50.9685    4.1814   18.4705 H   0  0  0  0  0  0  0  0  0  0  0  0
   47.2009    5.5148   16.8286 H   0  0  0  0  0  0  0  0  0  0  0  0
   50.5473    1.9066   17.6006 H   0  0  0  0  0  0  0  0  0  0  0  0
   46.7612    3.2061   16.0135 H   0  0  0  0  0  0  0  0  0  0  0  0
   48.4226    1.4217   16.3914 H   0  0  0  0  0  0  0  0  0  0  0  0
   48.3541    5.1355   17.6095 H   0  0  0  0  0  0  0  0  0  0  0  0
   48.7000    6.7767   20.5853 H   0  0  0  0  0  0  0  0  0  0  0  0
   49.7708    5.4141   19.0604 H   0  0  0  0  0  0  0  0  0  0  0  0
   49.6644    4.0060   16.0339 H   0  0  0  0  0  0  0  0  0  0  0  0
   47.4497    6.5878   19.0913 H   0  0  0  0  0  0  0  0  0  0  0  0
   46.9494    5.0610   19.8272 H   0  0  0  0  0  0  0  0  0  0  0  0
   47.9230    5.0518   14.9900 H   0  0  0  0  0  0  0  0  0  0  0  0
   46.2633    4.5823   15.3917 H   0  0  0  0  0  0  0  0  0  0  0  0
   47.5508    3.3756   15.5058 H   0  0  0  0  0  0  0  0  0  0  0  0
   51.1029    3.6862   18.5947 H   0  0  0  0  0  0  0  0  0  0  0  0
   51.5492    3.0999   16.9876 H   0  0  0  0  0  0  0  0  0  0  0  0
   50.1992    2.3449   17.8649 H   0  0  0  0  0  0  0  0  0  0  0  0
   48.5646    8.2488   20.3950 H   0  0  0  0  0  0  0  0  0  0  0  0
   48.3289    4.2049   21.8865 H   0  0  0  0  0  0  0  0  0  0  0  0
   49.4407    8.9955   22.5803 H   0  0  0  0  0  0  0  0  0  0  0  0
   49.2082    4.9602   24.0583 H   0  0  0  0  0  0  0  0  0  0  0  0
   49.7803    7.3627   24.4202 H   0  0  0  0  0  0  0  0  0  0  0  0
  2  1  2  0
  3  1  1  0
  4  1  1  0
  5  3  1  0
  6  5  1  0
  7  2  1  0
  8  4  1  0
  9  6  2  0
 10  6  1  0
 11  9  1  0
 12 10  2  0
 13 12  1  0
 11 13  2  0
 15 14  2  0
 16 14  2  0
 17 14  1  0
 18 14  1  0
 20 19  2  0
 21 19  1  0
 22 19  1  0
 23 21  1  0
 24 23  1  0
 25 20  1  0
 26 22  1  0
 27 24  2  0
 28 24  1  0
 29 27  1  0
 30 28  2  0
 31 30  1  0
 29 31  2  0
  3 32  1  0
  4 33  1  0
  5 34  1  0
  5 35  1  0
  7 36  1  0
  7 37  1  0
  7 38  1  0
  8 39  1  0
  8 40  1  0
  8 41  1  0
  9 42  1  0
 10 43  1  0
 11 44  1  0
 12 45  1  0
 13 46  1  0
 17 47  1  0
 18 48  1  0
 21 49  1  0
 22 50  1  0
 23 51  1  0
 23 52  1  0
 25 53  1  0
 25 54  1  0
 25 55  1  0
 26 56  1  0
 26 57  1  0
 26 58  1  0
 27 59  1  0
 28 60  1  0
 29 61  1  0
 30 62  1  0
 31 63  1  0
M  END
> <Uni-Dock RESULT> 
ENERGY=   -4.507  LOWER_BOUND=    6.427  UPPER_BOUND=    8.037
INTER + INTRA:          -4.507
INTER:                  -4.507
INTRA:                   0.000
UNBOUND:                 0.000

$$$$

     RDKit          3D

 63 62  0  0  0  0  0  0  0  0999 V2000
   45.2875    6.3180   12.5524 C   0  0  0  0  0  0  0  0  0  0  0  0
   45.8944    5.4824   13.3128 N   0  0  0  0  0  0  0  0  0  0  0  0
   45.3057    7.6614   12.7863 N   0  0  0  0  0  0  0  0  0  0  0  0
   44.5681    6.0420   11.4153 N   0  0  0  0  0  0  0  0  0  0  0  0
   46.2320    8.2831   13.7153 C   0  0  0  0  0  0  0  0  0  0  0  0
   47.6004    8.4381   13.0917 C   0  0  0  0  0  0  0  0  0  0  0  0
   45.8408    4.0535   13.0685 C   0  0  0  0  0  0  0  0  0  0  0  0
   43.1701    6.4275   11.3046 C   0  0  0  0  0  0  0  0  0  0  0  0
   48.6447    7.5847   13.4875 C   0  0  0  0  0  0  0  0  0  0  0  0
   47.8530    9.4080   12.1036 C   0  0  0  0  0  0  0  0  0  0  0  0
   49.9198    7.7105   12.9369 C   0  0  0  0  0  0  0  0  0  0  0  0
   49.1269    9.5258   11.5451 C   0  0  0  0  0  0  0  0  0  0  0  0
   50.1594    8.6809   11.9666 C   0  0  0  0  0  0  0  0  0  0  0  0
   46.8730    6.7812   12.4626 S   0  0  0  0  0  0  0  0  0  0  0  0
   47.9050    6.7301   13.4677 O   0  0  0  0  0  0  0  0  0  0  0  0
   46.7128    5.7975   11.4216 O   0  0  0  0  0  0  0  0  0  0  0  0
   46.9805    8.2296   11.7819 O   0  0  0  0  0  0  0  0  0  0  0  0
   45.4549    6.8900   13.2020 O   0  0  0  0  0  0  0  0  0  0  0  0
   47.8277    8.5859   12.5467 C   0  0  0  0  0  0  0  0  0  0  0  0
   47.6516    9.5556   11.7228 N   0  0  0  0  0  0  0  0  0  0  0  0
   47.0396    7.4716   12.5092 N   0  0  0  0  0  0  0  0  0  0  0  0
   48.7289    8.5391   13.5791 N   0  0  0  0  0  0  0  0  0  0  0  0
   45.8825    7.4206   11.6351 C   0  0  0  0  0  0  0  0  0  0  0  0
   45.0699    6.1837   11.9352 C   0  0  0  0  0  0  0  0  0  0  0  0
   48.5092   10.7259   11.7939 C   0  0  0  0  0  0  0  0  0  0  0  0
   49.5088    7.3590   13.8901 C   0  0  0  0  0  0  0  0  0  0  0  0
   43.8720    6.2772   12.6602 C   0  0  0  0  0  0  0  0  0  0  0  0
   45.5127    4.9172   11.5178 C   0  0  0  0  0  0  0  0  0  0  0  0
   43.1214    5.1325   12.9349 C   0  0  0  0  0  0  0  0  0  0  0  0
   44.7604    3.7742   11.7970 C   0  0  0  0  0  0  0  0  0  0  0  0
   43.5640    3.8809   12.5032 C   0  0  0  0  0  0  0  0  0  0  0  0
   45.1980    8.1916   11.9275 H   0  0  0  0  0  0  0  0  0  0  0  0
   44.6977    5.0881   11.1025 H   0  0  0  0  0  0  0  0  0  0  0  0
   45.8542    9.2863   13.9666 H   0  0  0  0  0  0  0  0  0  0  0  0
   46.2827    7.7281   14.6625 H   0  0  0  0  0  0  0  0  0  0  0  0
   44.9207    3.7219   12.5730 H   0  0  0  0  0  0  0  0  0  0  0  0
   45.8474    3.5349   14.0383 H   0  0  0  0  0  0  0  0  0  0  0  0
   46.7049    3.7239   12.4835 H   0  0  0  0  0  0  0  0  0  0  0  0
   43.0088    7.4830   11.5534 H   0  0  0  0  0  0  0  0  0  0  0  0
   42.5557    5.8148   11.9746 H   0  0  0  0  0  0  0  0  0  0  0  0
   42.8337    6.2652   10.2793 H   0  0  0  0  0  0  0  0  0  0  0  0
   48.4552    6.8070   14.2285 H   0  0  0  0  0  0  0  0  0  0  0  0
   47.0582   10.0713   11.7666 H   0  0  0  0  0  0  0  0  0  0  0  0
   50.7213    7.0502   13.2725 H   0  0  0  0  0  0  0  0  0  0  0  0
   49.3281   10.2635   10.7673 H   0  0  0  0  0  0  0  0  0  0  0  0
   51.1427    8.7704   11.5189 H   0  0  0  0  0  0  0  0  0  0  0  0
   47.3483    8.8370   12.4564 H   0  0  0  0  0  0  0  0  0  0  0  0
   44.7786    6.5887   12.5584 H   0  0  0  0  0  0  0  0  0  0  0  0
   46.8477    7.1120   13.4380 H   0  0  0  0  0  0  0  0  0  0  0  0
   49.2871    9.3835   13.6471 H   0  0  0  0  0  0  0  0  0  0  0  0
   45.2559    8.3150   11.7692 H   0  0  0  0  0  0  0  0  0  0  0  0
   46.1955    7.4048   10.5812 H   0  0  0  0  0  0  0  0  0  0  0  0
   48.3758   11.2700   12.7381 H   0  0  0  0  0  0  0  0  0  0  0  0
   48.2437   11.4073   10.9774 H   0  0  0  0  0  0  0  0  0  0  0  0
   49.5659   10.4594   11.6702 H   0  0  0  0  0  0  0  0  0  0  0  0
   48.8750    6.4996   14.1395 H   0  0  0  0  0  0  0  0  0  0  0  0
   50.1443    7.5632   14.7583 H   0  0  0  0  0  0  0  0  0  0  0  0
   50.1459    7.0814   13.0465 H   0  0  0  0  0  0  0  0  0  0  0  0
   43.5201    7.2458   13.0123 H   0  0  0  0  0  0  0  0  0  0  0  0
   46.4462    4.8225   10.9631 H   0  0  0  0  0  0  0  0  0  0  0  0
   42.1838    5.2221   13.4810 H   0  0  0  0  0  0  0  0  0  0  0  0
   45.1085    2.8120   11.4413 H   0  0  0  0  0  0  0  0  0  0  0  0
   42.9686    2.9947   12.7134 H   0  0  0  0  0  0  0  0  0  0  0  0
  2  1  2  0
  3  1  1  0
  4  1  1  0
  5  3  1  0
  6  5  1  0
  7  2  1  0
  8  4  1  0
  9  6  2  0
 10  6  1  0
 11  9  1  0
 12 10  2  0
 13 12  1  0
 11 13  2  0
 15 14  2  0
 16 14  2  0
 17 14  1  0
 18 14  1  0
 20 19  2  0
 21 19  1  0
 22 19  1  0
 23 21  1  0
 24 23  1  0
 25 20  1  0
 26 22  1  0
 27 24  2  0
 28 24  1  0
 29 27  1  0
 30 28  2  0
 31 30  1  0
 29 31  2  0
  3 32  1  0
  4 33  1  0
  5 34  1  0
  5 35  1  0
  7 36  1  0
  7 37  1  0
  7 38  1  0
  8 39  1  0
  8 40  1  0
  8 41  1  0
  9 42  1  0
 10 43  1  0
 11 44  1  0
 12 45  1  0
 13 46  1  0
 17 47  1  0
 18 48  1  0
 21 49  1  0
 22 50  1  0
 23 51  1  0
 23 52  1  0
 25 53  1  0
 25 54  1  0
 25 55  1  0
 26 56  1  0
 26 57  1  0
 26 58  1  0
 27 59  1  0
 28 60  1  0
 29 61  1  0
 30 62  1  0
 31 63  1  0
M  END
> <Uni-Dock RESULT> 
ENERGY=   -4.274  LOWER_BOUND=    1.130  UPPER_BOUND=    5.034
INTER + INTRA:          -4.274
INTER:                  -4.274
INTRA:                   0.000
UNBOUND:                 0.000

$$$$

     RDKit          3D

 63 62  0  0  0  0  0  0  0  0999 V2000
   45.4201    6.3018   12.6551 C   0  0  0  0  0  0  0  0  0  0  0  0
   45.8485    5.6350   13.6633 N   0  0  0  0  0  0  0  0  0  0  0  0
   45.4652    7.6642   12.6109 N   0  0  0  0  0  0  0  0  0  0  0  0
   44.8892    5.8047   11.4898 N   0  0  0  0  0  0  0  0  0  0  0  0
   46.2518    8.4532   13.5416 C   0  0  0  0  0  0  0  0  0  0  0  0
   47.7116    8.4561   13.1483 C   0  0  0  0  0  0  0  0  0  0  0  0
   45.7661    4.1874   13.7085 C   0  0  0  0  0  0  0  0  0  0  0  0
   43.5506    6.1776   11.0608 C   0  0  0  0  0  0  0  0  0  0  0  0
   48.6310    7.6900   13.8852 C   0  0  0  0  0  0  0  0  0  0  0  0
   48.1743    9.1953   12.0435 C   0  0  0  0  0  0  0  0  0  0  0  0
   49.9851    7.6808   13.5519 C   0  0  0  0  0  0  0  0  0  0  0  0
   49.5282    9.1767   11.7039 C   0  0  0  0  0  0  0  0  0  0  0  0
   50.4321    8.4243   12.4619 C   0  0  0  0  0  0  0  0  0  0  0  0
   47.0191    6.7146   12.7514 S   0  0  0  0  0  0  0  0  0  0  0  0
   47.8637    6.8602   13.9104 O   0  0  0  0  0  0  0  0  0  0  0  0
   46.9876    5.5378   11.9201 O   0  0  0  0  0  0  0  0  0  0  0  0
   47.3110    7.9876   11.8203 O   0  0  0  0  0  0  0  0  0  0  0  0
   45.5041    6.9944   13.1940 O   0  0  0  0  0  0  0  0  0  0  0  0
   48.0342    8.4840   12.6328 C   0  0  0  0  0  0  0  0  0  0  0  0
   48.0473    9.2629   11.6115 N   0  0  0  0  0  0  0  0  0  0  0  0
   47.2095    7.3972   12.6852 N   0  0  0  0  0  0  0  0  0  0  0  0
   48.7457    8.6412   13.7944 N   0  0  0  0  0  0  0  0  0  0  0  0
   46.2147    7.1808   11.6514 C   0  0  0  0  0  0  0  0  0  0  0  0
   45.3030    6.0448   12.0496 C   0  0  0  0  0  0  0  0  0  0  0  0
   48.9377   10.4106   11.5922 C   0  0  0  0  0  0  0  0  0  0  0  0
   49.4029    7.5414   14.4698 C   0  0  0  0  0  0  0  0  0  0  0  0
   44.0064    6.3037   12.5200 C   0  0  0  0  0  0  0  0  0  0  0  0
   45.7464    4.7132   11.9819 C   0  0  0  0  0  0  0  0  0  0  0  0
   43.1646    5.2517   12.8859 C   0  0  0  0  0  0  0  0  0  0  0  0
   44.9022    3.6639   12.3515 C   0  0  0  0  0  0  0  0  0  0  0  0
   43.6109    3.9317   12.8013 C   0  0  0  0  0  0  0  0  0  0  0  0
   45.5297    8.0051   11.6570 H   0  0  0  0  0  0  0  0  0  0  0  0
   45.0222    4.8048   11.4048 H   0  0  0  0  0  0  0  0  0  0  0  0
   45.8874    9.4918   13.5141 H   0  0  0  0  0  0  0  0  0  0  0  0
   46.1152    8.1072   14.5757 H   0  0  0  0  0  0  0  0  0  0  0  0
   44.9271    3.7724   13.1378 H   0  0  0  0  0  0  0  0  0  0  0  0
   45.5840    3.8823   14.7493 H   0  0  0  0  0  0  0  0  0  0  0  0
   46.6988    3.7314   13.3628 H   0  0  0  0  0  0  0  0  0  0  0  0
   43.4022    7.2638   11.0581 H   0  0  0  0  0  0  0  0  0  0  0  0
   42.8028    5.7264   11.7234 H   0  0  0  0  0  0  0  0  0  0  0  0
   43.3836    5.8096   10.0471 H   0  0  0  0  0  0  0  0  0  0  0  0
   48.2814    7.0865   14.7239 H   0  0  0  0  0  0  0  0  0  0  0  0
   47.4813    9.7845   11.4454 H   0  0  0  0  0  0  0  0  0  0  0  0
   50.6851    7.0942   14.1492 H   0  0  0  0  0  0  0  0  0  0  0  0
   49.8935    9.7332   10.8400 H   0  0  0  0  0  0  0  0  0  0  0  0
   51.4799    8.4051   12.1841 H   0  0  0  0  0  0  0  0  0  0  0  0
   47.5899    8.7173   12.4111 H   0  0  0  0  0  0  0  0  0  0  0  0
   44.9315    6.5747   12.5170 H   0  0  0  0  0  0  0  0  0  0  0  0
   46.8466    7.2418   13.6197 H   0  0  0  0  0  0  0  0  0  0  0  0
   49.3256    9.4736   13.7860 H   0  0  0  0  0  0  0  0  0  0  0  0
   45.6195    8.0920   11.4896 H   0  0  0  0  0  0  0  0  0  0  0  0
   46.6991    6.9414   10.6938 H   0  0  0  0  0  0  0  0  0  0  0  0
   48.6745   11.1413   12.3682 H   0  0  0  0  0  0  0  0  0  0  0  0
   48.8472   10.9104   10.6208 H   0  0  0  0  0  0  0  0  0  0  0  0
   49.9856   10.1099   11.7116 H   0  0  0  0  0  0  0  0  0  0  0  0
   48.6945    6.7616   14.7738 H   0  0  0  0  0  0  0  0  0  0  0  0
   49.8928    7.9135   15.3758 H   0  0  0  0  0  0  0  0  0  0  0  0
   50.1581    7.0854   13.8247 H   0  0  0  0  0  0  0  0  0  0  0  0
   43.6487    7.3291   12.6012 H   0  0  0  0  0  0  0  0  0  0  0  0
   46.7539    4.4923   11.6297 H   0  0  0  0  0  0  0  0  0  0  0  0
   42.1542    5.4659   13.2301 H   0  0  0  0  0  0  0  0  0  0  0  0
   45.2570    2.6440   12.2649 H   0  0  0  0  0  0  0  0  0  0  0  0
   42.9456    3.1169   13.0797 H   0  0  0  0  0  0  0  0  0  0  0  0
  2  1  2  0
  3  1  1  0
  4  1  1  0
  5  3  1  0
  6  5  1  0
  7  2  1  0
  8  4  1  0
  9  6  2  0
 10  6  1  0
 11  9  1  0
 12 10  2  0
 13 12  1  0
 11 13  2  0
 15 14  2  0
 16 14  2  0
 17 14  1  0
 18 14  1  0
 20 19  2  0
 21 19  1  0
 22 19  1  0
 23 21  1  0
 24 23  1  0
 25 20  1  0
 26 22  1  0
 27 24  2  0
 28 24  1  0
 29 27  1  0
 30 28  2  0
 31 30  1  0
 29 31  2  0
  3 32  1  0
  4 33  1  0
  5 34  1  0
  5 35  1  0
  7 36  1  0
  7 37  1  0
  7 38  1  0
  8 39  1  0
  8 40  1  0
  8 41  1  0
  9 42  1  0
 10 43  1  0
 11 44  1  0
 12 45  1  0
 13 46  1  0
 17 47  1  0
 18 48  1  0
 21 49  1  0
 22 50  1  0
 23 51  1  0
 23 52  1  0
 25 53  1  0
 25 54  1  0
 25 55  1  0
 26 56  1  0
 26 57  1  0
 26 58  1  0
 27 59  1  0
 28 60  1  0
 29 61  1  0
 30 62  1  0
 31 63  1  0
M  END
> <Uni-Dock RESULT> 
ENERGY=   -4.272  LOWER_BOUND=    1.220  UPPER_BOUND=    5.077
INTER + INTRA:          -4.272
INTER:                  -4.272
INTRA:                   0.000
UNBOUND:                 0.000

$$$$

     RDKit          3D

 63 62  0  0  0  0  0  0  0  0999 V2000
   42.9497   11.9184    9.5101 C   0  0  0  0  0  0  0  0  0  0  0  0
   43.4202   12.6651   10.4406 N   0  0  0  0  0  0  0  0  0  0  0  0
   42.4177   10.6884    9.7628 N   0  0  0  0  0  0  0  0  0  0  0  0
   42.8736   12.2041    8.1687 N   0  0  0  0  0  0  0  0  0  0  0  0
   42.0688   10.2447   11.1003 C   0  0  0  0  0  0  0  0  0  0  0  0
   40.7478   10.8351   11.5382 C   0  0  0  0  0  0  0  0  0  0  0  0
   44.0106   13.9585   10.1527 C   0  0  0  0  0  0  0  0  0  0  0  0
   43.5145   11.3455    7.1853 C   0  0  0  0  0  0  0  0  0  0  0  0
   40.7312   11.8773   12.4811 C   0  0  0  0  0  0  0  0  0  0  0  0
   39.5263   10.3793   11.0078 C   0  0  0  0  0  0  0  0  0  0  0  0
   39.5274   12.4348   12.9111 C   0  0  0  0  0  0  0  0  0  0  0  0
   38.3225   10.9456   11.4307 C   0  0  0  0  0  0  0  0  0  0  0  0
   38.3246   11.9682   12.3855 C   0  0  0  0  0  0  0  0  0  0  0  0
   41.6541   12.1713   10.5070 S   0  0  0  0  0  0  0  0  0  0  0  0
   41.6123   12.3329   11.9387 O   0  0  0  0  0  0  0  0  0  0  0  0
   41.6236   13.2670    9.5713 O   0  0  0  0  0  0  0  0  0  0  0  0
   40.4727   11.1519   10.1355 O   0  0  0  0  0  0  0  0  0  0  0  0
   42.9460   11.2979   10.1363 O   0  0  0  0  0  0  0  0  0  0  0  0
   40.2075   10.9556   11.2847 C   0  0  0  0  0  0  0  0  0  0  0  0
   39.3579   10.2818   10.5961 N   0  0  0  0  0  0  0  0  0  0  0  0
   41.2364   11.6231   10.6848 N   0  0  0  0  0  0  0  0  0  0  0  0
   40.2636   11.0536   12.6513 N   0  0  0  0  0  0  0  0  0  0  0  0
   41.4858   11.4626    9.2644 C   0  0  0  0  0  0  0  0  0  0  0  0
   42.7900   12.1287    8.8964 C   0  0  0  0  0  0  0  0  0  0  0  0
   38.2769    9.5833   11.2698 C   0  0  0  0  0  0  0  0  0  0  0  0
   40.5264   12.2997   13.3409 C   0  0  0  0  0  0  0  0  0  0  0  0
   43.9400   11.3602    8.6589 C   0  0  0  0  0  0  0  0  0  0  0  0
   42.8806   13.5283    8.8124 C   0  0  0  0  0  0  0  0  0  0  0  0
   45.1443   11.9782    8.3170 C   0  0  0  0  0  0  0  0  0  0  0  0
   44.0879   14.1427    8.4728 C   0  0  0  0  0  0  0  0  0  0  0  0
   45.2193   13.3689    8.2227 C   0  0  0  0  0  0  0  0  0  0  0  0
   41.7191   10.4344    9.0716 H   0  0  0  0  0  0  0  0  0  0  0  0
   43.0734   13.1769    7.9727 H   0  0  0  0  0  0  0  0  0  0  0  0
   41.9675    9.1484   11.0895 H   0  0  0  0  0  0  0  0  0  0  0  0
   42.8683   10.4720   11.8193 H   0  0  0  0  0  0  0  0  0  0  0  0
   44.4696   14.0259    9.1593 H   0  0  0  0  0  0  0  0  0  0  0  0
   44.8339   14.1300   10.8614 H   0  0  0  0  0  0  0  0  0  0  0  0
   43.2729   14.7590   10.2648 H   0  0  0  0  0  0  0  0  0  0  0  0
   43.2475   10.2904    7.3172 H   0  0  0  0  0  0  0  0  0  0  0  0
   44.6045   11.4394    7.2558 H   0  0  0  0  0  0  0  0  0  0  0  0
   43.2035   11.6518    6.1851 H   0  0  0  0  0  0  0  0  0  0  0  0
   41.6719   12.2629   12.8763 H   0  0  0  0  0  0  0  0  0  0  0  0
   39.5110    9.5845   10.2640 H   0  0  0  0  0  0  0  0  0  0  0  0
   39.5362   13.2300   13.6584 H   0  0  0  0  0  0  0  0  0  0  0  0
   37.3723   10.6101   11.0135 H   0  0  0  0  0  0  0  0  0  0  0  0
   37.3863   12.4114   12.6994 H   0  0  0  0  0  0  0  0  0  0  0  0
   40.3380   10.5729   10.9139 H   0  0  0  0  0  0  0  0  0  0  0  0
   43.1465   11.4789    9.1931 H   0  0  0  0  0  0  0  0  0  0  0  0
   42.0847   11.5892   11.2399 H   0  0  0  0  0  0  0  0  0  0  0  0
   39.5323   10.5206   13.1100 H   0  0  0  0  0  0  0  0  0  0  0  0
   41.5279   10.3961    8.9966 H   0  0  0  0  0  0  0  0  0  0  0  0
   40.6701   11.9076    8.6767 H   0  0  0  0  0  0  0  0  0  0  0  0
   38.6537    8.7817   11.9184 H   0  0  0  0  0  0  0  0  0  0  0  0
   37.6302    9.1227   10.5140 H   0  0  0  0  0  0  0  0  0  0  0  0
   37.6576   10.2710   11.8583 H   0  0  0  0  0  0  0  0  0  0  0  0
   41.5011   12.7232   13.0704 H   0  0  0  0  0  0  0  0  0  0  0  0
   40.5325   12.1215   14.4214 H   0  0  0  0  0  0  0  0  0  0  0  0
   39.7559   13.0401   13.1118 H   0  0  0  0  0  0  0  0  0  0  0  0
   43.8987   10.2749    8.7391 H   0  0  0  0  0  0  0  0  0  0  0  0
   42.0013   14.1431    9.0042 H   0  0  0  0  0  0  0  0  0  0  0  0
   46.0237   11.3686    8.1158 H   0  0  0  0  0  0  0  0  0  0  0  0
   44.1264   15.2220    8.3876 H   0  0  0  0  0  0  0  0  0  0  0  0
   46.1593   13.8424    7.9468 H   0  0  0  0  0  0  0  0  0  0  0  0
  2  1  2  0
  3  1  1  0
  4  1  1  0
  5  3  1  0
  6  5  1  0
  7  2  1  0
  8  4  1  0
  9  6  2  0
 10  6  1  0
 11  9  1  0
 12 10  2  0
 13 12  1  0
 11 13  2  0
 15 14  2  0
 16 14  2  0
 17 14  1  0
 18 14  1  0
 20 19  2  0
 21 19  1  0
 22 19  1  0
 23 21  1  0
 24 23  1  0
 25 20  1  0
 26 22  1  0
 27 24  2  0
 28 24  1  0
 29 27  1  0
 30 28  2  0
 31 30  1  0
 29 31  2  0
  3 32  1  0
  4 33  1  0
  5 34  1  0
  5 35  1  0
  7 36  1  0
  7 37  1  0
  7 38  1  0
  8 39  1  0
  8 40  1  0
  8 41  1  0
  9 42  1  0
 10 43  1  0
 11 44  1  0
 12 45  1  0
 13 46  1  0
 17 47  1  0
 18 48  1  0
 21 49  1  0
 22 50  1  0
 23 51  1  0
 23 52  1  0
 25 53  1  0
 25 54  1  0
 25 55  1  0
 26 56  1  0
 26 57  1  0
 26 58  1  0
 27 59  1  0
 28 60  1  0
 29 61  1  0
 30 62  1  0
 31 63  1  0
M  END
> <Uni-Dock RESULT> 
ENERGY=   -4.198  LOWER_BOUND=    6.442  UPPER_BOUND=    7.903
INTER + INTRA:          -4.198
INTER:                  -4.198
INTRA:                   0.000
UNBOUND:                 0.000

$$$$

     RDKit          3D

 63 62  0  0  0  0  0  0  0  0999 V2000
   48.6901    7.7547   14.7946 C   0  0  0  0  0  0  0  0  0  0  0  0
   47.5048    7.3535   14.5136 N   0  0  0  0  0  0  0  0  0  0  0  0
   49.1611    7.7944   16.0738 N   0  0  0  0  0  0  0  0  0  0  0  0
   49.6602    8.1724   13.9164 N   0  0  0  0  0  0  0  0  0  0  0  0
   48.4944    7.1249   17.1760 C   0  0  0  0  0  0  0  0  0  0  0  0
   48.8039    5.6451   17.1762 C   0  0  0  0  0  0  0  0  0  0  0  0
   47.0074    7.3454   13.1510 C   0  0  0  0  0  0  0  0  0  0  0  0
   50.2436    9.5001   14.0251 C   0  0  0  0  0  0  0  0  0  0  0  0
   47.8227    4.7303   16.7570 C   0  0  0  0  0  0  0  0  0  0  0  0
   50.0644    5.1572   17.5688 C   0  0  0  0  0  0  0  0  0  0  0  0
   48.0761    3.3589   16.7557 C   0  0  0  0  0  0  0  0  0  0  0  0
   50.3207    3.7851   17.5567 C   0  0  0  0  0  0  0  0  0  0  0  0
   49.3246    2.8880   17.1558 C   0  0  0  0  0  0  0  0  0  0  0  0
   48.6591    6.1957   15.3470 S   0  0  0  0  0  0  0  0  0  0  0  0
   47.5699    5.4426   15.9163 O   0  0  0  0  0  0  0  0  0  0  0  0
   49.0757    6.0951   13.9710 O   0  0  0  0  0  0  0  0  0  0  0  0
   49.9315    5.9239   16.2851 O   0  0  0  0  0  0  0  0  0  0  0  0
   48.3949    7.7521   15.6253 O   0  0  0  0  0  0  0  0  0  0  0  0
   49.2869    5.2908   17.0682 C   0  0  0  0  0  0  0  0  0  0  0  0
   50.5007    5.2588   17.4875 N   0  0  0  0  0  0  0  0  0  0  0  0
   48.9295    6.0456   15.9880 N   0  0  0  0  0  0  0  0  0  0  0  0
   48.2047    4.6711   17.6383 N   0  0  0  0  0  0  0  0  0  0  0  0
   49.8844    6.9522   15.3784 C   0  0  0  0  0  0  0  0  0  0  0  0
   49.1876    7.8138   14.3526 C   0  0  0  0  0  0  0  0  0  0  0  0
   50.8430    4.4448   18.6410 C   0  0  0  0  0  0  0  0  0  0  0  0
   47.1878    3.9918   16.8625 C   0  0  0  0  0  0  0  0  0  0  0  0
   48.8808    9.1532   14.6377 C   0  0  0  0  0  0  0  0  0  0  0  0
   48.8108    7.2821   13.1077 C   0  0  0  0  0  0  0  0  0  0  0  0
   48.2380    9.9484   13.6870 C   0  0  0  0  0  0  0  0  0  0  0  0
   48.1656    8.0801   12.1606 C   0  0  0  0  0  0  0  0  0  0  0  0
   47.8809    9.4134   12.4481 C   0  0  0  0  0  0  0  0  0  0  0  0
   50.1701    7.6875   16.1039 H   0  0  0  0  0  0  0  0  0  0  0  0
   49.4185    7.9699   12.9545 H   0  0  0  0  0  0  0  0  0  0  0  0
   48.8651    7.5527   18.1204 H   0  0  0  0  0  0  0  0  0  0  0  0
   47.4110    7.3087   17.1602 H   0  0  0  0  0  0  0  0  0  0  0  0
   47.4537    8.1155   12.5108 H   0  0  0  0  0  0  0  0  0  0  0  0
   45.9326    7.5776   13.1722 H   0  0  0  0  0  0  0  0  0  0  0  0
   47.1497    6.3641   12.6883 H   0  0  0  0  0  0  0  0  0  0  0  0
   50.5965    9.7176   15.0401 H   0  0  0  0  0  0  0  0  0  0  0  0
   49.5058   10.2605   13.7435 H   0  0  0  0  0  0  0  0  0  0  0  0
   51.0950    9.5741   13.3466 H   0  0  0  0  0  0  0  0  0  0  0  0
   46.8523    5.0963   16.4189 H   0  0  0  0  0  0  0  0  0  0  0  0
   50.8480    5.8447   17.8826 H   0  0  0  0  0  0  0  0  0  0  0  0
   47.2937    2.6647   16.4448 H   0  0  0  0  0  0  0  0  0  0  0  0
   51.2994    3.3987   17.8437 H   0  0  0  0  0  0  0  0  0  0  0  0
   49.5358    1.8248   17.1371 H   0  0  0  0  0  0  0  0  0  0  0  0
   49.5904    5.7332   17.1831 H   0  0  0  0  0  0  0  0  0  0  0  0
   48.9288    8.2494   14.9695 H   0  0  0  0  0  0  0  0  0  0  0  0
   48.0109    6.4601   16.1029 H   0  0  0  0  0  0  0  0  0  0  0  0
   48.4506    4.1467   18.4712 H   0  0  0  0  0  0  0  0  0  0  0  0
   50.3522    7.5925   16.1412 H   0  0  0  0  0  0  0  0  0  0  0  0
   50.6947    6.3897   14.8927 H   0  0  0  0  0  0  0  0  0  0  0  0
   50.3506    4.8063   19.5532 H   0  0  0  0  0  0  0  0  0  0  0  0
   51.9257    4.5013   18.8031 H   0  0  0  0  0  0  0  0  0  0  0  0
   50.5887    3.3902   18.4799 H   0  0  0  0  0  0  0  0  0  0  0  0
   46.6840    4.6675   16.1610 H   0  0  0  0  0  0  0  0  0  0  0  0
   46.4255    3.5892   17.5379 H   0  0  0  0  0  0  0  0  0  0  0  0
   47.6216    3.1668   16.2917 H   0  0  0  0  0  0  0  0  0  0  0  0
   49.1441    9.5808   15.6040 H   0  0  0  0  0  0  0  0  0  0  0  0
   49.0304    6.2409   12.8717 H   0  0  0  0  0  0  0  0  0  0  0  0
   48.0241   10.9915   13.9140 H   0  0  0  0  0  0  0  0  0  0  0  0
   47.9093    7.6553   11.1975 H   0  0  0  0  0  0  0  0  0  0  0  0
   47.3884   10.0423   11.7091 H   0  0  0  0  0  0  0  0  0  0  0  0
  2  1  2  0
  3  1  1  0
  4  1  1  0
  5  3  1  0
  6  5  1  0
  7  2  1  0
  8  4  1  0
  9  6  2  0
 10  6  1  0
 11  9  1  0
 12 10  2  0
 13 12  1  0
 11 13  2  0
 15 14  2  0
 16 14  2  0
 17 14  1  0
 18 14  1  0
 20 19  2  0
 21 19  1  0
 22 19  1  0
 23 21  1  0
 24 23  1  0
 25 20  1  0
 26 22  1  0
 27 24  2  0
 28 24  1  0
 29 27  1  0
 30 28  2  0
 31 30  1  0
 29 31  2  0
  3 32  1  0
  4 33  1  0
  5 34  1  0
  5 35  1  0
  7 36  1  0
  7 37  1  0
  7 38  1  0
  8 39  1  0
  8 40  1  0
  8 41  1  0
  9 42  1  0
 10 43  1  0
 11 44  1  0
 12 45  1  0
 13 46  1  0
 17 47  1  0
 18 48  1  0
 21 49  1  0
 22 50  1  0
 23 51  1  0
 23 52  1  0
 25 53  1  0
 25 54  1  0
 25 55  1  0
 26 56  1  0
 26 57  1  0
 26 58  1  0
 27 59  1  0
 28 60  1  0
 29 61  1  0
 30 62  1  0
 31 63  1  0
M  END
> <Uni-Dock RESULT> 
ENERGY=   -4.098  LOWER_BOUND=    3.430  UPPER_BOUND=    5.316
INTER + INTRA:          -4.098
INTER:                  -4.098
INTRA:                   0.000
UNBOUND:                 0.000

$$$$

     RDKit          3D

 63 62  0  0  0  0  0  0  0  0999 V2000
   40.5844   11.6664   11.2630 C   0  0  0  0  0  0  0  0  0  0  0  0
   40.1233   11.4517   10.0858 N   0  0  0  0  0  0  0  0  0  0  0  0
   41.6016   10.9280   11.7922 N   0  0  0  0  0  0  0  0  0  0  0  0
   40.1855   12.6343   12.1523 N   0  0  0  0  0  0  0  0  0  0  0  0
   42.4361   10.0533   10.9885 C   0  0  0  0  0  0  0  0  0  0  0  0
   43.4852   10.8442   10.2407 C   0  0  0  0  0  0  0  0  0  0  0  0
   39.0206   12.2258    9.5478 C   0  0  0  0  0  0  0  0  0  0  0  0
   39.6968   12.2770   13.4746 C   0  0  0  0  0  0  0  0  0  0  0  0
   43.3410   11.0565    8.8588 C   0  0  0  0  0  0  0  0  0  0  0  0
   44.6002   11.3947   10.9000 C   0  0  0  0  0  0  0  0  0  0  0  0
   44.2975   11.7738    8.1409 C   0  0  0  0  0  0  0  0  0  0  0  0
   45.5514   12.1219   10.1824 C   0  0  0  0  0  0  0  0  0  0  0  0
   45.4016   12.3054    8.8035 C   0  0  0  0  0  0  0  0  0  0  0  0
   41.8909   11.9059   10.2770 S   0  0  0  0  0  0  0  0  0  0  0  0
   42.2427   11.2535    9.0407 O   0  0  0  0  0  0  0  0  0  0  0  0
   41.2419   13.1903   10.3538 O   0  0  0  0  0  0  0  0  0  0  0  0
   43.2332   11.9608   11.1535 O   0  0  0  0  0  0  0  0  0  0  0  0
   40.9960   10.8962   11.1424 O   0  0  0  0  0  0  0  0  0  0  0  0
   43.8473   11.3208   10.3518 C   0  0  0  0  0  0  0  0  0  0  0  0
   44.6781   11.6320   11.2807 N   0  0  0  0  0  0  0  0  0  0  0  0
   42.5206   11.6262   10.4554 N   0  0  0  0  0  0  0  0  0  0  0  0
   44.1205   10.6139    9.2090 N   0  0  0  0  0  0  0  0  0  0  0  0
   41.9885   12.1753   11.6885 C   0  0  0  0  0  0  0  0  0  0  0  0
   40.4808   12.2231   11.6176 C   0  0  0  0  0  0  0  0  0  0  0  0
   46.0823   11.2894   11.1357 C   0  0  0  0  0  0  0  0  0  0  0  0
   43.5832   10.9744    7.9132 C   0  0  0  0  0  0  0  0  0  0  0  0
   39.7052   11.2798   12.3091 C   0  0  0  0  0  0  0  0  0  0  0  0
   39.8310   13.1943   10.8375 C   0  0  0  0  0  0  0  0  0  0  0  0
   38.3114   11.3271   12.2435 C   0  0  0  0  0  0  0  0  0  0  0  0
   38.4366   13.2365   10.7723 C   0  0  0  0  0  0  0  0  0  0  0  0
   37.6761   12.3052   11.4764 C   0  0  0  0  0  0  0  0  0  0  0  0
   42.1343   11.4599   12.4732 H   0  0  0  0  0  0  0  0  0  0  0  0
   39.5769   13.3203   11.7237 H   0  0  0  0  0  0  0  0  0  0  0  0
   42.9516    9.3487   11.6595 H   0  0  0  0  0  0  0  0  0  0  0  0
   41.8323    9.4401   10.3050 H   0  0  0  0  0  0  0  0  0  0  0  0
   38.3273   12.6000   10.3102 H   0  0  0  0  0  0  0  0  0  0  0  0
   38.4150   11.5684    8.9070 H   0  0  0  0  0  0  0  0  0  0  0  0
   39.3872   13.0655    8.9496 H   0  0  0  0  0  0  0  0  0  0  0  0
   40.3800   11.6008   14.0020 H   0  0  0  0  0  0  0  0  0  0  0  0
   38.7178   11.7898   13.3961 H   0  0  0  0  0  0  0  0  0  0  0  0
   39.5869   13.1829   14.0730 H   0  0  0  0  0  0  0  0  0  0  0  0
   42.4651   10.6636    8.3406 H   0  0  0  0  0  0  0  0  0  0  0  0
   44.7283   11.2595   11.9726 H   0  0  0  0  0  0  0  0  0  0  0  0
   44.1759   11.9104    7.0650 H   0  0  0  0  0  0  0  0  0  0  0  0
   46.4102   12.5660   10.6872 H   0  0  0  0  0  0  0  0  0  0  0  0
   46.1381   12.8821    8.2555 H   0  0  0  0  0  0  0  0  0  0  0  0
   43.7841   11.1977   10.8826 H   0  0  0  0  0  0  0  0  0  0  0  0
   40.4993   11.4433   11.7877 H   0  0  0  0  0  0  0  0  0  0  0  0
   41.9328   10.8991   10.0620 H   0  0  0  0  0  0  0  0  0  0  0  0
   45.0949   10.3387    9.1451 H   0  0  0  0  0  0  0  0  0  0  0  0
   42.2980   11.5646   12.5499 H   0  0  0  0  0  0  0  0  0  0  0  0
   42.3781   13.1892   11.8593 H   0  0  0  0  0  0  0  0  0  0  0  0
   46.2351   10.2024   11.1192 H   0  0  0  0  0  0  0  0  0  0  0  0
   46.6331   11.6893   11.9950 H   0  0  0  0  0  0  0  0  0  0  0  0
   46.5145   11.7346   10.2313 H   0  0  0  0  0  0  0  0  0  0  0  0
   42.4868   10.9562    7.9017 H   0  0  0  0  0  0  0  0  0  0  0  0
   43.9330   10.2567    7.1636 H   0  0  0  0  0  0  0  0  0  0  0  0
   43.9122   11.9749    7.6213 H   0  0  0  0  0  0  0  0  0  0  0  0
   40.1875   10.5048   12.9029 H   0  0  0  0  0  0  0  0  0  0  0  0
   40.4162   13.9288   10.2842 H   0  0  0  0  0  0  0  0  0  0  0  0
   37.7216   10.6014   12.8010 H   0  0  0  0  0  0  0  0  0  0  0  0
   37.9578   14.0114   10.1860 H   0  0  0  0  0  0  0  0  0  0  0  0
   36.5892   12.3409   11.4378 H   0  0  0  0  0  0  0  0  0  0  0  0
  2  1  2  0
  3  1  1  0
  4  1  1  0
  5  3  1  0
  6  5  1  0
  7  2  1  0
  8  4  1  0
  9  6  2  0
 10  6  1  0
 11  9  1  0
 12 10  2  0
 13 12  1  0
 11 13  2  0
 15 14  2  0
 16 14  2  0
 17 14  1  0
 18 14  1  0
 20 19  2  0
 21 19  1  0
 22 19  1  0
 23 21  1  0
 24 23  1  0
 25 20  1  0
 26 22  1  0
 27 24  2  0
 28 24  1  0
 29 27  1  0
 30 28  2  0
 31 30  1  0
 29 31  2  0
  3 32  1  0
  4 33  1  0
  5 34  1  0
  5 35  1  0
  7 36  1  0
  7 37  1  0
  7 38  1  0
  8 39  1  0
  8 40  1  0
  8 41  1  0
  9 42  1  0
 10 43  1  0
 11 44  1  0
 12 45  1  0
 13 46  1  0
 17 47  1  0
 18 48  1  0
 21 49  1  0
 22 50  1  0
 23 51  1  0
 23 52  1  0
 25 53  1  0
 25 54  1  0
 25 55  1  0
 26 56  1  0
 26 57  1  0
 26 58  1  0
 27 59  1  0
 28 60  1  0
 29 61  1  0
 30 62  1  0
 31 63  1  0
M  END
> <Uni-Dock RESULT> 
ENERGY=   -4.050  LOWER_BOUND=    6.170  UPPER_BOUND=    8.238
INTER + INTRA:          -4.050
INTER:                  -4.050
INTRA:                   0.000
UNBOUND:                 0.000

$$$$

     RDKit          3D

 63 62  0  0  0  0  0  0  0  0999 V2000
   48.4057    7.1596   20.0365 C   0  0  0  0  0  0  0  0  0  0  0  0
   49.0054    7.0932   18.9049 N   0  0  0  0  0  0  0  0  0  0  0  0
   48.6936    8.1234   20.9575 N   0  0  0  0  0  0  0  0  0  0  0  0
   47.4055    6.3406   20.5007 N   0  0  0  0  0  0  0  0  0  0  0  0
   49.4679    9.3087   20.6363 C   0  0  0  0  0  0  0  0  0  0  0  0
   48.6156   10.3343   19.9241 C   0  0  0  0  0  0  0  0  0  0  0  0
   48.7097    6.0441   17.9476 C   0  0  0  0  0  0  0  0  0  0  0  0
   47.5662    5.5940   21.7383 C   0  0  0  0  0  0  0  0  0  0  0  0
   48.7773   10.5329   18.5421 C   0  0  0  0  0  0  0  0  0  0  0  0
   47.6434   11.0868   20.6095 C   0  0  0  0  0  0  0  0  0  0  0  0
   48.0123   11.4787   17.8603 C   0  0  0  0  0  0  0  0  0  0  0  0
   46.8705   12.0255   19.9239 C   0  0  0  0  0  0  0  0  0  0  0  0
   47.0601   12.2239   18.5520 C   0  0  0  0  0  0  0  0  0  0  0  0
   48.0529    8.6067   19.3168 S   0  0  0  0  0  0  0  0  0  0  0  0
   48.8522    9.4108   18.4267 O   0  0  0  0  0  0  0  0  0  0  0  0
   47.0141    7.7094   18.8780 O   0  0  0  0  0  0  0  0  0  0  0  0
   47.4308    9.6160   20.3971 O   0  0  0  0  0  0  0  0  0  0  0  0
   49.0399    7.7391   20.2347 O   0  0  0  0  0  0  0  0  0  0  0  0
   48.0458   10.5451   19.9633 C   0  0  0  0  0  0  0  0  0  0  0  0
   47.3123   11.0065   20.9115 N   0  0  0  0  0  0  0  0  0  0  0  0
   48.1002    9.2073   19.6957 N   0  0  0  0  0  0  0  0  0  0  0  0
   48.8957   11.2611   19.1601 N   0  0  0  0  0  0  0  0  0  0  0  0
   47.4475    8.2561   20.5758 C   0  0  0  0  0  0  0  0  0  0  0  0
   47.8323    6.8497   20.1831 C   0  0  0  0  0  0  0  0  0  0  0  0
   47.2811   12.4361   21.1675 C   0  0  0  0  0  0  0  0  0  0  0  0
   49.0069   11.0363   17.7337 C   0  0  0  0  0  0  0  0  0  0  0  0
   48.7649    6.1279   20.9440 C   0  0  0  0  0  0  0  0  0  0  0  0
   47.2847    6.2512   19.0359 C   0  0  0  0  0  0  0  0  0  0  0  0
   49.1178    4.8270   20.5800 C   0  0  0  0  0  0  0  0  0  0  0  0
   47.6424    4.9507   18.6738 C   0  0  0  0  0  0  0  0  0  0  0  0
   48.5567    4.2372   19.4460 C   0  0  0  0  0  0  0  0  0  0  0  0
   47.8933    8.3269   21.5478 H   0  0  0  0  0  0  0  0  0  0  0  0
   47.0313    5.7439   19.7737 H   0  0  0  0  0  0  0  0  0  0  0  0
   49.8287    9.7555   21.5757 H   0  0  0  0  0  0  0  0  0  0  0  0
   50.3641    9.0560   20.0525 H   0  0  0  0  0  0  0  0  0  0  0  0
   48.3736    5.1067   18.4060 H   0  0  0  0  0  0  0  0  0  0  0  0
   49.6378    5.7872   17.4164 H   0  0  0  0  0  0  0  0  0  0  0  0
   47.9643    6.3777   17.2193 H   0  0  0  0  0  0  0  0  0  0  0  0
   47.8879    6.2318   22.5701 H   0  0  0  0  0  0  0  0  0  0  0  0
   48.3073    4.7973   21.6047 H   0  0  0  0  0  0  0  0  0  0  0  0
   46.6120    5.1390   22.0089 H   0  0  0  0  0  0  0  0  0  0  0  0
   49.5042    9.9338   17.9919 H   0  0  0  0  0  0  0  0  0  0  0  0
   47.4859   10.9417   21.6769 H   0  0  0  0  0  0  0  0  0  0  0  0
   48.1675   11.6306   16.7908 H   0  0  0  0  0  0  0  0  0  0  0  0
   46.1037   12.6016   20.4431 H   0  0  0  0  0  0  0  0  0  0  0  0
   46.4470   12.9459   18.0243 H   0  0  0  0  0  0  0  0  0  0  0  0
   48.0550   10.3660   20.4818 H   0  0  0  0  0  0  0  0  0  0  0  0
   48.5157    6.9824   20.5740 H   0  0  0  0  0  0  0  0  0  0  0  0
   49.0310    8.9139   19.4195 H   0  0  0  0  0  0  0  0  0  0  0  0
   48.9005   12.2509   19.3830 H   0  0  0  0  0  0  0  0  0  0  0  0
   47.7330    8.4379   21.6228 H   0  0  0  0  0  0  0  0  0  0  0  0
   46.3548    8.3647   20.5191 H   0  0  0  0  0  0  0  0  0  0  0  0
   48.2577   12.8099   21.5019 H   0  0  0  0  0  0  0  0  0  0  0  0
   46.5577   12.6351   21.9667 H   0  0  0  0  0  0  0  0  0  0  0  0
   46.9569   12.9970   20.2826 H   0  0  0  0  0  0  0  0  0  0  0  0
   49.3269   10.0135   17.5010 H   0  0  0  0  0  0  0  0  0  0  0  0
   49.7548   11.7189   17.3165 H   0  0  0  0  0  0  0  0  0  0  0  0
   48.0506   11.2173   17.2365 H   0  0  0  0  0  0  0  0  0  0  0  0
   49.2184    6.5794   21.8251 H   0  0  0  0  0  0  0  0  0  0  0  0
   46.5671    6.7996   18.4258 H   0  0  0  0  0  0  0  0  0  0  0  0
   49.8274    4.2713   21.1906 H   0  0  0  0  0  0  0  0  0  0  0  0
   47.1863    4.5006   17.8004 H   0  0  0  0  0  0  0  0  0  0  0  0
   48.8301    3.2196   19.1742 H   0  0  0  0  0  0  0  0  0  0  0  0
  2  1  2  0
  3  1  1  0
  4  1  1  0
  5  3  1  0
  6  5  1  0
  7  2  1  0
  8  4  1  0
  9  6  2  0
 10  6  1  0
 11  9  1  0
 12 10  2  0
 13 12  1  0
 11 13  2  0
 15 14  2  0
 16 14  2  0
 17 14  1  0
 18 14  1  0
 20 19  2  0
 21 19  1  0
 22 19  1  0
 23 21  1  0
 24 23  1  0
 25 20  1  0
 26 22  1  0
 27 24  2  0
 28 24  1  0
 29 27  1  0
 30 28  2  0
 31 30  1  0
 29 31  2  0
  3 32  1  0
  4 33  1  0
  5 34  1  0
  5 35  1  0
  7 36  1  0
  7 37  1  0
  7 38  1  0
  8 39  1  0
  8 40  1  0
  8 41  1  0
  9 42  1  0
 10 43  1  0
 11 44  1  0
 12 45  1  0
 13 46  1  0
 17 47  1  0
 18 48  1  0
 21 49  1  0
 22 50  1  0
 23 51  1  0
 23 52  1  0
 25 53  1  0
 25 54  1  0
 25 55  1  0
 26 56  1  0
 26 57  1  0
 26 58  1  0
 27 59  1  0
 28 60  1  0
 29 61  1  0
 30 62  1  0
 31 63  1  0
M  END
> <Uni-Dock RESULT> 
ENERGY=   -3.974  LOWER_BOUND=    6.777  UPPER_BOUND=    8.832
INTER + INTRA:          -3.974
INTER:                  -3.974
INTRA:                   0.000
UNBOUND:                 0.000

$$$$
