
     RDKit          3D

 63 62  0  0  0  0  0  0  0  0999 V2000
   45.1872    5.9233   12.0176 C   0  0  0  0  0  0  0  0  0  0  0  0
   44.3149    5.9121   12.9529 N   0  0  0  0  0  0  0  0  0  0  0  0
   46.2979    6.7194   12.1124 N   0  0  0  0  0  0  0  0  0  0  0  0
   45.2960    5.2461   10.8357 N   0  0  0  0  0  0  0  0  0  0  0  0
   46.5609    7.4651   13.3334 C   0  0  0  0  0  0  0  0  0  0  0  0
   47.8623    8.2166   13.1812 C   0  0  0  0  0  0  0  0  0  0  0  0
   43.1716    5.0299   12.9358 C   0  0  0  0  0  0  0  0  0  0  0  0
   44.2094    4.6005   10.1395 C   0  0  0  0  0  0  0  0  0  0  0  0
   47.8922    9.4570   12.5251 C   0  0  0  0  0  0  0  0  0  0  0  0
   49.0658    7.6656   13.6507 C   0  0  0  0  0  0  0  0  0  0  0  0
   49.0966   10.1428   12.3632 C   0  0  0  0  0  0  0  0  0  0  0  0
   50.2702    8.3513   13.4823 C   0  0  0  0  0  0  0  0  0  0  0  0
   50.2853    9.5894   12.8416 C   0  0  0  0  0  0  0  0  0  0  0  0
   46.7968    6.4538   12.2632 S   0  0  0  0  0  0  0  0  0  0  0  0
   46.7556    6.1390   10.8573 O   0  0  0  0  0  0  0  0  0  0  0  0
   47.3091    5.5580   13.2691 O   0  0  0  0  0  0  0  0  0  0  0  0
   47.5583    7.8541   12.4578 O   0  0  0  0  0  0  0  0  0  0  0  0
   45.2977    6.8547   12.6708 O   0  0  0  0  0  0  0  0  0  0  0  0
   47.8933    7.7767   12.4142 C   0  0  0  0  0  0  0  0  0  0  0  0
   48.0052    7.6689   13.6823 N   0  0  0  0  0  0  0  0  0  0  0  0
   46.6750    8.0125   11.8337 N   0  0  0  0  0  0  0  0  0  0  0  0
   48.7996    7.7030   11.3918 N   0  0  0  0  0  0  0  0  0  0  0  0
   45.4412    8.0297   12.6055 C   0  0  0  0  0  0  0  0  0  0  0  0
   44.6633    6.7527   12.3830 C   0  0  0  0  0  0  0  0  0  0  0  0
   49.2582    7.3821   14.3406 C   0  0  0  0  0  0  0  0  0  0  0  0
   50.2360    7.7046   11.5121 C   0  0  0  0  0  0  0  0  0  0  0  0
   45.1124    5.5453   12.9381 C   0  0  0  0  0  0  0  0  0  0  0  0
   43.4913    6.7490   11.6116 C   0  0  0  0  0  0  0  0  0  0  0  0
   44.3987    4.3630   12.7394 C   0  0  0  0  0  0  0  0  0  0  0  0
   42.7750    5.5662   11.4195 C   0  0  0  0  0  0  0  0  0  0  0  0
   43.2275    4.3752   11.9853 C   0  0  0  0  0  0  0  0  0  0  0  0
   47.1289    6.2319   11.8042 H   0  0  0  0  0  0  0  0  0  0  0  0
   45.8730    5.7740   10.1888 H   0  0  0  0  0  0  0  0  0  0  0  0
   46.6276    6.7853   14.1926 H   0  0  0  0  0  0  0  0  0  0  0  0
   45.7504    8.1762   13.5407 H   0  0  0  0  0  0  0  0  0  0  0  0
   43.4659    3.9809   12.8323 H   0  0  0  0  0  0  0  0  0  0  0  0
   42.6461    5.1139   13.8950 H   0  0  0  0  0  0  0  0  0  0  0  0
   42.4555    5.3069   12.1555 H   0  0  0  0  0  0  0  0  0  0  0  0
   43.8858    3.6924   10.6544 H   0  0  0  0  0  0  0  0  0  0  0  0
   44.5450    4.2987    9.1403 H   0  0  0  0  0  0  0  0  0  0  0  0
   43.3608    5.2792   10.0100 H   0  0  0  0  0  0  0  0  0  0  0  0
   46.9748    9.8861   12.1269 H   0  0  0  0  0  0  0  0  0  0  0  0
   49.0694    6.6978   14.1508 H   0  0  0  0  0  0  0  0  0  0  0  0
   49.1072   11.1047   11.8573 H   0  0  0  0  0  0  0  0  0  0  0  0
   51.1974    7.9197   13.8524 H   0  0  0  0  0  0  0  0  0  0  0  0
   51.2229   10.1235   12.7144 H   0  0  0  0  0  0  0  0  0  0  0  0
   47.6282    8.0194   13.4213 H   0  0  0  0  0  0  0  0  0  0  0  0
   44.7813    6.9024   11.8374 H   0  0  0  0  0  0  0  0  0  0  0  0
   46.5597    7.4876   10.9754 H   0  0  0  0  0  0  0  0  0  0  0  0
   48.4859    8.2388   10.5920 H   0  0  0  0  0  0  0  0  0  0  0  0
   45.5999    8.1851   13.6790 H   0  0  0  0  0  0  0  0  0  0  0  0
   44.8474    8.8859   12.2665 H   0  0  0  0  0  0  0  0  0  0  0  0
   49.0755    7.2772   15.4161 H   0  0  0  0  0  0  0  0  0  0  0  0
   49.9778    8.1962   14.2216 H   0  0  0  0  0  0  0  0  0  0  0  0
   49.6863    6.4333   14.0049 H   0  0  0  0  0  0  0  0  0  0  0  0
   50.5896    8.5923   12.0446 H   0  0  0  0  0  0  0  0  0  0  0  0
   50.6832    7.7207   10.5132 H   0  0  0  0  0  0  0  0  0  0  0  0
   50.5959    6.7990   12.0069 H   0  0  0  0  0  0  0  0  0  0  0  0
   46.0286    5.5271   13.5253 H   0  0  0  0  0  0  0  0  0  0  0  0
   43.1254    7.6709   11.1647 H   0  0  0  0  0  0  0  0  0  0  0  0
   44.7564    3.4347   13.1768 H   0  0  0  0  0  0  0  0  0  0  0  0
   41.8611    5.5748   10.8323 H   0  0  0  0  0  0  0  0  0  0  0  0
   42.6671    3.4562   11.8394 H   0  0  0  0  0  0  0  0  0  0  0  0
  2  1  2  0
  3  1  1  0
  4  1  1  0
  5  3  1  0
  6  5  1  0
  7  2  1  0
  8  4  1  0
  9  6  2  0
 10  6  1  0
 11  9  1  0
 12 10  2  0
 13 12  1  0
 11 13  2  0
 15 14  2  0
 16 14  2  0
 17 14  1  0
 18 14  1  0
 20 19  2  0
 21 19  1  0
 22 19  1  0
 23 21  1  0
 24 23  1  0
 25 20  1  0
 26 22  1  0
 27 24  2  0
 28 24  1  0
 29 27  1  0
 30 28  2  0
 31 30  1  0
 29 31  2  0
  3 32  1  0
  4 33  1  0
  5 34  1  0
  5 35  1  0
  7 36  1  0
  7 37  1  0
  7 38  1  0
  8 39  1  0
  8 40  1  0
  8 41  1  0
  9 42  1  0
 10 43  1  0
 11 44  1  0
 12 45  1  0
 13 46  1  0
 17 47  1  0
 18 48  1  0
 21 49  1  0
 22 50  1  0
 23 51  1  0
 23 52  1  0
 25 53  1  0
 25 54  1  0
 25 55  1  0
 26 56  1  0
 26 57  1  0
 26 58  1  0
 27 59  1  0
 28 60  1  0
 29 61  1  0
 30 62  1  0
 31 63  1  0
M  END
> <Uni-Dock RESULT> 
ENERGY=   -5.748  LOWER_BOUND=    0.000  UPPER_BOUND=    0.000
INTER + INTRA:          -5.748
INTER:                  -5.748
INTRA:                   0.000
UNBOUND:                 0.000

$$$$

     RDKit          3D

 63 62  0  0  0  0  0  0  0  0999 V2000
   45.1449    5.4428   12.1453 C   0  0  0  0  0  0  0  0  0  0  0  0
   45.3761    4.2925   11.6361 N   0  0  0  0  0  0  0  0  0  0  0  0
   46.1293    6.1148   12.8204 N   0  0  0  0  0  0  0  0  0  0  0  0
   44.0438    6.2519   12.1599 N   0  0  0  0  0  0  0  0  0  0  0  0
   47.4834    5.5847   12.8573 C   0  0  0  0  0  0  0  0  0  0  0  0
   48.3661    6.5405   13.6245 C   0  0  0  0  0  0  0  0  0  0  0  0
   44.3967    3.5834   10.8465 C   0  0  0  0  0  0  0  0  0  0  0  0
   42.6876    5.8220   11.9185 C   0  0  0  0  0  0  0  0  0  0  0  0
   48.4081    6.4965   15.0268 C   0  0  0  0  0  0  0  0  0  0  0  0
   49.1199    7.5156   12.9512 C   0  0  0  0  0  0  0  0  0  0  0  0
   49.2053    7.3931   15.7391 C   0  0  0  0  0  0  0  0  0  0  0  0
   49.9124    8.4151   13.6667 C   0  0  0  0  0  0  0  0  0  0  0  0
   49.9569    8.3525   15.0587 C   0  0  0  0  0  0  0  0  0  0  0  0
   46.3937    6.5491   12.5313 S   0  0  0  0  0  0  0  0  0  0  0  0
   45.1973    7.2247   12.9667 O   0  0  0  0  0  0  0  0  0  0  0  0
   47.0396    6.8001   11.2677 O   0  0  0  0  0  0  0  0  0  0  0  0
   47.5188    6.7057   13.6664 O   0  0  0  0  0  0  0  0  0  0  0  0
   46.0739    4.9796   12.6235 O   0  0  0  0  0  0  0  0  0  0  0  0
   47.6305    7.0321   13.6324 C   0  0  0  0  0  0  0  0  0  0  0  0
   48.5868    6.5994   12.9039 N   0  0  0  0  0  0  0  0  0  0  0  0
   46.6560    6.1843   14.0892 N   0  0  0  0  0  0  0  0  0  0  0  0
   47.3173    8.2742   14.1132 N   0  0  0  0  0  0  0  0  0  0  0  0
   46.5874    4.7907   13.6753 C   0  0  0  0  0  0  0  0  0  0  0  0
   45.4841    4.5968   12.6601 C   0  0  0  0  0  0  0  0  0  0  0  0
   49.6162    7.4570   12.3650 C   0  0  0  0  0  0  0  0  0  0  0  0
   48.1630    9.4413   14.1003 C   0  0  0  0  0  0  0  0  0  0  0  0
   45.6328    5.0828   11.3527 C   0  0  0  0  0  0  0  0  0  0  0  0
   44.2929    3.9419   13.0079 C   0  0  0  0  0  0  0  0  0  0  0  0
   44.6202    4.9056   10.4094 C   0  0  0  0  0  0  0  0  0  0  0  0
   43.2837    3.7597   12.0607 C   0  0  0  0  0  0  0  0  0  0  0  0
   43.4489    4.2391   10.7622 C   0  0  0  0  0  0  0  0  0  0  0  0
   46.1357    7.0978   12.5817 H   0  0  0  0  0  0  0  0  0  0  0  0
   44.0854    6.8748   12.9601 H   0  0  0  0  0  0  0  0  0  0  0  0
   47.8752    5.4592   11.8396 H   0  0  0  0  0  0  0  0  0  0  0  0
   47.5054    4.5989   13.3405 H   0  0  0  0  0  0  0  0  0  0  0  0
   44.0403    4.1824   10.0027 H   0  0  0  0  0  0  0  0  0  0  0  0
   44.8675    2.6899   10.4186 H   0  0  0  0  0  0  0  0  0  0  0  0
   43.5550    3.2388   11.4557 H   0  0  0  0  0  0  0  0  0  0  0  0
   42.5238    5.5825   10.8647 H   0  0  0  0  0  0  0  0  0  0  0  0
   41.9970    6.6348   12.1724 H   0  0  0  0  0  0  0  0  0  0  0  0
   42.4260    4.9617   12.5422 H   0  0  0  0  0  0  0  0  0  0  0  0
   47.8074    5.7683   15.5683 H   0  0  0  0  0  0  0  0  0  0  0  0
   49.0925    7.5779   11.8639 H   0  0  0  0  0  0  0  0  0  0  0  0
   49.2334    7.3471   16.8246 H   0  0  0  0  0  0  0  0  0  0  0  0
   50.4963    9.1647   13.1375 H   0  0  0  0  0  0  0  0  0  0  0  0
   50.5769    9.0509   15.6140 H   0  0  0  0  0  0  0  0  0  0  0  0
   48.3397    6.2927   13.3258 H   0  0  0  0  0  0  0  0  0  0  0  0
   45.2028    4.8943   13.0681 H   0  0  0  0  0  0  0  0  0  0  0  0
   45.7405    6.6163   14.0649 H   0  0  0  0  0  0  0  0  0  0  0  0
   46.7801    8.2051   14.9686 H   0  0  0  0  0  0  0  0  0  0  0  0
   47.5326    4.4075   13.2736 H   0  0  0  0  0  0  0  0  0  0  0  0
   46.3777    4.1879   14.5660 H   0  0  0  0  0  0  0  0  0  0  0  0
   50.2755    6.8580   11.7266 H   0  0  0  0  0  0  0  0  0  0  0  0
   50.2434    7.8856   13.1508 H   0  0  0  0  0  0  0  0  0  0  0  0
   49.1992    8.2430   11.7290 H   0  0  0  0  0  0  0  0  0  0  0  0
   49.1121    9.2505   14.6095 H   0  0  0  0  0  0  0  0  0  0  0  0
   47.6629   10.2569   14.6319 H   0  0  0  0  0  0  0  0  0  0  0  0
   48.3449    9.7909   13.0809 H   0  0  0  0  0  0  0  0  0  0  0  0
   46.5434    5.6079   11.0706 H   0  0  0  0  0  0  0  0  0  0  0  0
   44.1502    3.5614   14.0170 H   0  0  0  0  0  0  0  0  0  0  0  0
   44.7488    5.2852    9.3992 H   0  0  0  0  0  0  0  0  0  0  0  0
   42.3703    3.2394   12.3345 H   0  0  0  0  0  0  0  0  0  0  0  0
   42.6652    4.0928   10.0244 H   0  0  0  0  0  0  0  0  0  0  0  0
  2  1  2  0
  3  1  1  0
  4  1  1  0
  5  3  1  0
  6  5  1  0
  7  2  1  0
  8  4  1  0
  9  6  2  0
 10  6  1  0
 11  9  1  0
 12 10  2  0
 13 12  1  0
 11 13  2  0
 15 14  2  0
 16 14  2  0
 17 14  1  0
 18 14  1  0
 20 19  2  0
 21 19  1  0
 22 19  1  0
 23 21  1  0
 24 23  1  0
 25 20  1  0
 26 22  1  0
 27 24  2  0
 28 24  1  0
 29 27  1  0
 30 28  2  0
 31 30  1  0
 29 31  2  0
  3 32  1  0
  4 33  1  0
  5 34  1  0
  5 35  1  0
  7 36  1  0
  7 37  1  0
  7 38  1  0
  8 39  1  0
  8 40  1  0
  8 41  1  0
  9 42  1  0
 10 43  1  0
 11 44  1  0
 12 45  1  0
 13 46  1  0
 17 47  1  0
 18 48  1  0
 21 49  1  0
 22 50  1  0
 23 51  1  0
 23 52  1  0
 25 53  1  0
 25 54  1  0
 25 55  1  0
 26 56  1  0
 26 57  1  0
 26 58  1  0
 27 59  1  0
 28 60  1  0
 29 61  1  0
 30 62  1  0
 31 63  1  0
M  END
> <Uni-Dock RESULT> 
ENERGY=   -5.271  LOWER_BOUND=    1.278  UPPER_BOUND=    2.408
INTER + INTRA:          -5.271
INTER:                  -5.271
INTRA:                   0.000
UNBOUND:                 0.000

$$$$

     RDKit          3D

 63 62  0  0  0  0  0  0  0  0999 V2000
   48.6078    4.7258   18.8927 C   0  0  0  0  0  0  0  0  0  0  0  0
   47.5524    4.2113   18.3855 N   0  0  0  0  0  0  0  0  0  0  0  0
   48.5248    5.5451   19.9875 N   0  0  0  0  0  0  0  0  0  0  0  0
   49.9352    4.6262   18.5836 N   0  0  0  0  0  0  0  0  0  0  0  0
   47.2501    5.7380   20.6613 C   0  0  0  0  0  0  0  0  0  0  0  0
   47.4542    6.6452   21.8516 C   0  0  0  0  0  0  0  0  0  0  0  0
   47.5975    3.2780   17.2844 C   0  0  0  0  0  0  0  0  0  0  0  0
   50.4673    4.1971   17.3128 C   0  0  0  0  0  0  0  0  0  0  0  0
   47.4741    8.0389   21.6856 C   0  0  0  0  0  0  0  0  0  0  0  0
   47.6736    6.1088   23.1308 C   0  0  0  0  0  0  0  0  0  0  0  0
   47.6850    8.8785   22.7799 C   0  0  0  0  0  0  0  0  0  0  0  0
   47.8900    6.9511   24.2229 C   0  0  0  0  0  0  0  0  0  0  0  0
   47.8933    8.3343   24.0482 C   0  0  0  0  0  0  0  0  0  0  0  0
   48.6690    5.3077   20.5022 S   0  0  0  0  0  0  0  0  0  0  0  0
   49.9800    5.6082   19.9843 O   0  0  0  0  0  0  0  0  0  0  0  0
   48.3718    4.1473   21.3036 O   0  0  0  0  0  0  0  0  0  0  0  0
   48.1286    6.5831   21.3145 O   0  0  0  0  0  0  0  0  0  0  0  0
   47.6834    5.3036   19.2362 O   0  0  0  0  0  0  0  0  0  0  0  0
   48.3035    6.5751   21.6136 C   0  0  0  0  0  0  0  0  0  0  0  0
   47.3157    5.9615   22.1428 N   0  0  0  0  0  0  0  0  0  0  0  0
   48.3111    6.8728   20.2764 N   0  0  0  0  0  0  0  0  0  0  0  0
   49.4801    7.0540   22.1219 N   0  0  0  0  0  0  0  0  0  0  0  0
   47.2688    6.4057   19.3744 C   0  0  0  0  0  0  0  0  0  0  0  0
   47.7736    5.2506   18.5399 C   0  0  0  0  0  0  0  0  0  0  0  0
   47.2756    5.5899   23.5378 C   0  0  0  0  0  0  0  0  0  0  0  0
   49.8246    7.1906   23.5148 C   0  0  0  0  0  0  0  0  0  0  0  0
   47.9735    3.9908   19.1236 C   0  0  0  0  0  0  0  0  0  0  0  0
   48.0616    5.4190   17.1770 C   0  0  0  0  0  0  0  0  0  0  0  0
   48.4367    2.9192   18.3596 C   0  0  0  0  0  0  0  0  0  0  0  0
   48.5186    4.3438   16.4128 C   0  0  0  0  0  0  0  0  0  0  0  0
   48.7033    3.0948   17.0036 C   0  0  0  0  0  0  0  0  0  0  0  0
   49.2566    5.3433   20.6560 H   0  0  0  0  0  0  0  0  0  0  0  0
   50.4293    5.4461   18.9208 H   0  0  0  0  0  0  0  0  0  0  0  0
   46.8436    4.7756   20.9983 H   0  0  0  0  0  0  0  0  0  0  0  0
   46.5119    6.1857   19.9829 H   0  0  0  0  0  0  0  0  0  0  0  0
   48.2356    2.4164   17.5044 H   0  0  0  0  0  0  0  0  0  0  0  0
   46.5882    2.8838   17.1137 H   0  0  0  0  0  0  0  0  0  0  0  0
   47.9119    3.7612   16.3538 H   0  0  0  0  0  0  0  0  0  0  0  0
   50.3298    3.1234   17.1617 H   0  0  0  0  0  0  0  0  0  0  0  0
   51.5466    4.3877   17.2866 H   0  0  0  0  0  0  0  0  0  0  0  0
   50.0155    4.7518   16.4846 H   0  0  0  0  0  0  0  0  0  0  0  0
   47.3368    8.4728   20.6972 H   0  0  0  0  0  0  0  0  0  0  0  0
   47.6765    5.0298   23.2816 H   0  0  0  0  0  0  0  0  0  0  0  0
   47.6940    9.9564   22.6404 H   0  0  0  0  0  0  0  0  0  0  0  0
   48.0551    6.5279   25.2111 H   0  0  0  0  0  0  0  0  0  0  0  0
   48.0584    8.9887   24.8997 H   0  0  0  0  0  0  0  0  0  0  0  0
   47.2652    6.3372   21.7076 H   0  0  0  0  0  0  0  0  0  0  0  0
   48.2051    5.6289   18.4709 H   0  0  0  0  0  0  0  0  0  0  0  0
   49.2291    6.7455   19.8682 H   0  0  0  0  0  0  0  0  0  0  0  0
   49.8227    7.8301   21.5691 H   0  0  0  0  0  0  0  0  0  0  0  0
   46.3445    6.1163   19.8878 H   0  0  0  0  0  0  0  0  0  0  0  0
   46.9953    7.2406   18.7195 H   0  0  0  0  0  0  0  0  0  0  0  0
   46.3574    5.0216   23.7248 H   0  0  0  0  0  0  0  0  0  0  0  0
   47.2434    6.4643   24.1927 H   0  0  0  0  0  0  0  0  0  0  0  0
   48.1072    4.9329   23.8079 H   0  0  0  0  0  0  0  0  0  0  0  0
   49.0967    7.8112   24.0456 H   0  0  0  0  0  0  0  0  0  0  0  0
   50.7993    7.6811   23.6006 H   0  0  0  0  0  0  0  0  0  0  0  0
   49.9155    6.2159   24.0007 H   0  0  0  0  0  0  0  0  0  0  0  0
   47.7710    3.8469   20.1833 H   0  0  0  0  0  0  0  0  0  0  0  0
   47.9212    6.3876   16.7020 H   0  0  0  0  0  0  0  0  0  0  0  0
   48.5854    1.9478   18.8236 H   0  0  0  0  0  0  0  0  0  0  0  0
   48.7260    4.4794   15.3552 H   0  0  0  0  0  0  0  0  0  0  0  0
   49.0545    2.2575   16.4073 H   0  0  0  0  0  0  0  0  0  0  0  0
  2  1  2  0
  3  1  1  0
  4  1  1  0
  5  3  1  0
  6  5  1  0
  7  2  1  0
  8  4  1  0
  9  6  2  0
 10  6  1  0
 11  9  1  0
 12 10  2  0
 13 12  1  0
 11 13  2  0
 15 14  2  0
 16 14  2  0
 17 14  1  0
 18 14  1  0
 20 19  2  0
 21 19  1  0
 22 19  1  0
 23 21  1  0
 24 23  1  0
 25 20  1  0
 26 22  1  0
 27 24  2  0
 28 24  1  0
 29 27  1  0
 30 28  2  0
 31 30  1  0
 29 31  2  0
  3 32  1  0
  4 33  1  0
  5 34  1  0
  5 35  1  0
  7 36  1  0
  7 37  1  0
  7 38  1  0
  8 39  1  0
  8 40  1  0
  8 41  1  0
  9 42  1  0
 10 43  1  0
 11 44  1  0
 12 45  1  0
 13 46  1  0
 17 47  1  0
 18 48  1  0
 21 49  1  0
 22 50  1  0
 23 51  1  0
 23 52  1  0
 25 53  1  0
 25 54  1  0
 25 55  1  0
 26 56  1  0
 26 57  1  0
 26 58  1  0
 27 59  1  0
 28 60  1  0
 29 61  1  0
 30 62  1  0
 31 63  1  0
M  END
> <Uni-Dock RESULT> 
ENERGY=   -4.380  LOWER_BOUND=    7.208  UPPER_BOUND=    8.788
INTER + INTRA:          -4.380
INTER:                  -4.380
INTRA:                   0.000
UNBOUND:                 0.000

$$$$

     RDKit          3D

 63 62  0  0  0  0  0  0  0  0999 V2000
   48.4119    7.4435   21.1866 C   0  0  0  0  0  0  0  0  0  0  0  0
   47.4378    6.6170   21.1237 N   0  0  0  0  0  0  0  0  0  0  0  0
   48.3690    8.6228   20.4909 N   0  0  0  0  0  0  0  0  0  0  0  0
   49.5964    7.4389   21.8679 N   0  0  0  0  0  0  0  0  0  0  0  0
   47.1625    9.0052   19.7738 C   0  0  0  0  0  0  0  0  0  0  0  0
   47.3749   10.3590   19.1386 C   0  0  0  0  0  0  0  0  0  0  0  0
   47.4015    5.4014   21.9025 C   0  0  0  0  0  0  0  0  0  0  0  0
   50.2414    6.2696   22.4145 C   0  0  0  0  0  0  0  0  0  0  0  0
   48.0338   10.4674   17.9040 C   0  0  0  0  0  0  0  0  0  0  0  0
   46.9598   11.5299   19.7937 C   0  0  0  0  0  0  0  0  0  0  0  0
   48.2514   11.7185   17.3258 C   0  0  0  0  0  0  0  0  0  0  0  0
   47.1838   12.7807   19.2155 C   0  0  0  0  0  0  0  0  0  0  0  0
   47.8266   12.8748   17.9820 C   0  0  0  0  0  0  0  0  0  0  0  0
   48.2407    9.1029   20.7994 S   0  0  0  0  0  0  0  0  0  0  0  0
   49.6427    8.9704   21.1061 O   0  0  0  0  0  0  0  0  0  0  0  0
   47.2576    9.5801   21.7389 O   0  0  0  0  0  0  0  0  0  0  0  0
   48.0831    9.9919   19.4714 O   0  0  0  0  0  0  0  0  0  0  0  0
   47.7659    7.6646   20.2700 O   0  0  0  0  0  0  0  0  0  0  0  0
   48.1418   10.3166   19.5778 C   0  0  0  0  0  0  0  0  0  0  0  0
   46.8799   10.4761   19.6979 N   0  0  0  0  0  0  0  0  0  0  0  0
   48.6667    9.0984   19.2350 N   0  0  0  0  0  0  0  0  0  0  0  0
   49.2043   11.1656   19.7280 N   0  0  0  0  0  0  0  0  0  0  0  0
   47.8396    7.9072   19.1118 C   0  0  0  0  0  0  0  0  0  0  0  0
   48.0244    7.0113   20.3155 C   0  0  0  0  0  0  0  0  0  0  0  0
   46.2789   11.7279   20.0946 C   0  0  0  0  0  0  0  0  0  0  0  0
   49.1494   12.6005   19.8522 C   0  0  0  0  0  0  0  0  0  0  0  0
   47.4883    7.3779   21.5588 C   0  0  0  0  0  0  0  0  0  0  0  0
   48.7417    5.8096   20.2150 C   0  0  0  0  0  0  0  0  0  0  0  0
   47.6524    6.5553   22.6737 C   0  0  0  0  0  0  0  0  0  0  0  0
   48.8990    4.9847   21.3301 C   0  0  0  0  0  0  0  0  0  0  0  0
   48.3524    5.3566   22.5574 C   0  0  0  0  0  0  0  0  0  0  0  0
   48.7139    9.3931   21.0484 H   0  0  0  0  0  0  0  0  0  0  0  0
   50.2697    8.0299   21.3910 H   0  0  0  0  0  0  0  0  0  0  0  0
   46.3060    9.0512   20.4589 H   0  0  0  0  0  0  0  0  0  0  0  0
   46.9197    8.2701   18.9951 H   0  0  0  0  0  0  0  0  0  0  0  0
   47.5165    5.5979   22.9731 H   0  0  0  0  0  0  0  0  0  0  0  0
   46.4195    4.9294   21.7753 H   0  0  0  0  0  0  0  0  0  0  0  0
   48.1489    4.6776   21.5623 H   0  0  0  0  0  0  0  0  0  0  0  0
   49.7109    5.8915   23.2920 H   0  0  0  0  0  0  0  0  0  0  0  0
   51.2544    6.5317   22.7421 H   0  0  0  0  0  0  0  0  0  0  0  0
   50.3333    5.4785   21.6639 H   0  0  0  0  0  0  0  0  0  0  0  0
   48.3905    9.5739   17.3954 H   0  0  0  0  0  0  0  0  0  0  0  0
   46.4587   11.4715   20.7594 H   0  0  0  0  0  0  0  0  0  0  0  0
   48.7588   11.7901   16.3673 H   0  0  0  0  0  0  0  0  0  0  0  0
   46.8556   13.6824   19.7274 H   0  0  0  0  0  0  0  0  0  0  0  0
   47.9972   13.8487   17.5316 H   0  0  0  0  0  0  0  0  0  0  0  0
   47.1241   10.1198   19.3151 H   0  0  0  0  0  0  0  0  0  0  0  0
   48.5751    7.1170   20.1754 H   0  0  0  0  0  0  0  0  0  0  0  0
   49.5179    8.8987   19.7458 H   0  0  0  0  0  0  0  0  0  0  0  0
   49.9898   10.8638   19.1649 H   0  0  0  0  0  0  0  0  0  0  0  0
   46.7747    8.1274   18.9734 H   0  0  0  0  0  0  0  0  0  0  0  0
   48.1527    7.3756   18.2063 H   0  0  0  0  0  0  0  0  0  0  0  0
   45.1960   11.5857   20.1856 H   0  0  0  0  0  0  0  0  0  0  0  0
   46.4318   12.5097   19.3463 H   0  0  0  0  0  0  0  0  0  0  0  0
   46.6321   12.0557   21.0764 H   0  0  0  0  0  0  0  0  0  0  0  0
   48.6350   13.0542   19.0000 H   0  0  0  0  0  0  0  0  0  0  0  0
   50.1676   13.0016   19.8729 H   0  0  0  0  0  0  0  0  0  0  0  0
   48.6700   12.9021   20.7869 H   0  0  0  0  0  0  0  0  0  0  0  0
   46.9433    8.3148   21.6584 H   0  0  0  0  0  0  0  0  0  0  0  0
   49.1730    5.5058   19.2635 H   0  0  0  0  0  0  0  0  0  0  0  0
   47.2303    6.8500   23.6308 H   0  0  0  0  0  0  0  0  0  0  0  0
   49.4441    4.0493   21.2404 H   0  0  0  0  0  0  0  0  0  0  0  0
   48.4712    4.7119   23.4236 H   0  0  0  0  0  0  0  0  0  0  0  0
  2  1  2  0
  3  1  1  0
  4  1  1  0
  5  3  1  0
  6  5  1  0
  7  2  1  0
  8  4  1  0
  9  6  2  0
 10  6  1  0
 11  9  1  0
 12 10  2  0
 13 12  1  0
 11 13  2  0
 15 14  2  0
 16 14  2  0
 17 14  1  0
 18 14  1  0
 20 19  2  0
 21 19  1  0
 22 19  1  0
 23 21  1  0
 24 23  1  0
 25 20  1  0
 26 22  1  0
 27 24  2  0
 28 24  1  0
 29 27  1  0
 30 28  2  0
 31 30  1  0
 29 31  2  0
  3 32  1  0
  4 33  1  0
  5 34  1  0
  5 35  1  0
  7 36  1  0
  7 37  1  0
  7 38  1  0
  8 39  1  0
  8 40  1  0
  8 41  1  0
  9 42  1  0
 10 43  1  0
 11 44  1  0
 12 45  1  0
 13 46  1  0
 17 47  1  0
 18 48  1  0
 21 49  1  0
 22 50  1  0
 23 51  1  0
 23 52  1  0
 25 53  1  0
 25 54  1  0
 25 55  1  0
 26 56  1  0
 26 57  1  0
 26 58  1  0
 27 59  1  0
 28 60  1  0
 29 61  1  0
 30 62  1  0
 31 63  1  0
M  END
> <Uni-Dock RESULT> 
ENERGY=   -4.227  LOWER_BOUND=    7.489  UPPER_BOUND=    8.975
INTER + INTRA:          -4.227
INTER:                  -4.227
INTRA:                   0.000
UNBOUND:                 0.000

$$$$

     RDKit          3D

 63 62  0  0  0  0  0  0  0  0999 V2000
   45.2024    5.5910   12.1360 C   0  0  0  0  0  0  0  0  0  0  0  0
   44.3004    6.1563   11.4270 N   0  0  0  0  0  0  0  0  0  0  0  0
   46.3839    6.2326   12.3987 N   0  0  0  0  0  0  0  0  0  0  0  0
   45.2661    4.3853   12.7759 N   0  0  0  0  0  0  0  0  0  0  0  0
   46.5751    7.6127   11.9804 C   0  0  0  0  0  0  0  0  0  0  0  0
   47.9379    8.0806   12.4336 C   0  0  0  0  0  0  0  0  0  0  0  0
   43.0088    5.5545   11.1923 C   0  0  0  0  0  0  0  0  0  0  0  0
   44.4425    3.2379   12.4803 C   0  0  0  0  0  0  0  0  0  0  0  0
   49.0785    7.7867   11.6702 C   0  0  0  0  0  0  0  0  0  0  0  0
   48.0899    8.7739   13.6455 C   0  0  0  0  0  0  0  0  0  0  0  0
   50.3413    8.1982   12.0980 C   0  0  0  0  0  0  0  0  0  0  0  0
   49.3552    9.1795   14.0739 C   0  0  0  0  0  0  0  0  0  0  0  0
   50.4792    8.8942   13.3000 C   0  0  0  0  0  0  0  0  0  0  0  0
   46.4384    6.4710   12.9300 S   0  0  0  0  0  0  0  0  0  0  0  0
   46.7531    5.0977   13.2337 O   0  0  0  0  0  0  0  0  0  0  0  0
   45.7235    7.3451   13.8254 O   0  0  0  0  0  0  0  0  0  0  0  0
   47.7909    7.2332   12.5194 O   0  0  0  0  0  0  0  0  0  0  0  0
   45.6567    6.4464   11.5292 O   0  0  0  0  0  0  0  0  0  0  0  0
   47.9552    7.2850   12.8202 C   0  0  0  0  0  0  0  0  0  0  0  0
   47.4439    8.4549   12.8665 N   0  0  0  0  0  0  0  0  0  0  0  0
   47.6193    6.4103   11.8207 N   0  0  0  0  0  0  0  0  0  0  0  0
   48.8531    6.6310   13.6191 N   0  0  0  0  0  0  0  0  0  0  0  0
   46.5854    6.7141   10.8425 C   0  0  0  0  0  0  0  0  0  0  0  0
   45.3198    5.9505   11.1599 C   0  0  0  0  0  0  0  0  0  0  0  0
   47.7343    9.3999   13.9192 C   0  0  0  0  0  0  0  0  0  0  0  0
   49.6674    7.2136   14.6561 C   0  0  0  0  0  0  0  0  0  0  0  0
   44.5294    6.3175   12.2591 C   0  0  0  0  0  0  0  0  0  0  0  0
   44.9210    4.8594   10.3731 C   0  0  0  0  0  0  0  0  0  0  0  0
   43.3587    5.6193   12.5570 C   0  0  0  0  0  0  0  0  0  0  0  0
   43.7458    4.1664   10.6688 C   0  0  0  0  0  0  0  0  0  0  0  0
   42.9646    4.5482   11.7584 C   0  0  0  0  0  0  0  0  0  0  0  0
   46.6654    6.1079   13.3622 H   0  0  0  0  0  0  0  0  0  0  0  0
   46.2358    4.1097   12.8943 H   0  0  0  0  0  0  0  0  0  0  0  0
   45.8014    8.2577   12.4167 H   0  0  0  0  0  0  0  0  0  0  0  0
   46.5012    7.7053   10.8888 H   0  0  0  0  0  0  0  0  0  0  0  0
   42.4972    5.3065   12.1275 H   0  0  0  0  0  0  0  0  0  0  0  0
   42.3714    6.2783   10.6698 H   0  0  0  0  0  0  0  0  0  0  0  0
   43.0819    4.6721   10.5486 H   0  0  0  0  0  0  0  0  0  0  0  0
   43.4129    3.3854   12.8159 H   0  0  0  0  0  0  0  0  0  0  0  0
   44.8306    2.3631   13.0153 H   0  0  0  0  0  0  0  0  0  0  0  0
   44.4570    3.0024   11.4116 H   0  0  0  0  0  0  0  0  0  0  0  0
   48.9849    7.2236   10.7437 H   0  0  0  0  0  0  0  0  0  0  0  0
   47.2207    9.0013   14.2617 H   0  0  0  0  0  0  0  0  0  0  0  0
   51.2171    7.9688   11.4967 H   0  0  0  0  0  0  0  0  0  0  0  0
   49.4640    9.7195   15.0117 H   0  0  0  0  0  0  0  0  0  0  0  0
   51.4629    9.2135   13.6330 H   0  0  0  0  0  0  0  0  0  0  0  0
   47.5652    8.1761   12.3759 H   0  0  0  0  0  0  0  0  0  0  0  0
   45.7112    5.5264   11.1912 H   0  0  0  0  0  0  0  0  0  0  0  0
   47.5261    5.4629   12.1660 H   0  0  0  0  0  0  0  0  0  0  0  0
   49.3550    5.9249   13.0952 H   0  0  0  0  0  0  0  0  0  0  0  0
   46.3623    7.7843   10.7611 H   0  0  0  0  0  0  0  0  0  0  0  0
   46.9591    6.4133    9.8574 H   0  0  0  0  0  0  0  0  0  0  0  0
   47.1248   10.2976   13.7649 H   0  0  0  0  0  0  0  0  0  0  0  0
   48.7786    9.7219   13.9024 H   0  0  0  0  0  0  0  0  0  0  0  0
   47.4646    9.0076   14.9039 H   0  0  0  0  0  0  0  0  0  0  0  0
   50.2849    8.0281   14.2665 H   0  0  0  0  0  0  0  0  0  0  0  0
   50.3431    6.4516   15.0570 H   0  0  0  0  0  0  0  0  0  0  0  0
   49.0572    7.5680   15.4906 H   0  0  0  0  0  0  0  0  0  0  0  0
   44.8327    7.1509   12.8899 H   0  0  0  0  0  0  0  0  0  0  0  0
   45.5199    4.5506    9.5189 H   0  0  0  0  0  0  0  0  0  0  0  0
   42.7542    5.9152   13.4103 H   0  0  0  0  0  0  0  0  0  0  0  0
   43.4371    3.3314   10.0463 H   0  0  0  0  0  0  0  0  0  0  0  0
   42.0478    4.0114   11.9852 H   0  0  0  0  0  0  0  0  0  0  0  0
  2  1  2  0
  3  1  1  0
  4  1  1  0
  5  3  1  0
  6  5  1  0
  7  2  1  0
  8  4  1  0
  9  6  2  0
 10  6  1  0
 11  9  1  0
 12 10  2  0
 13 12  1  0
 11 13  2  0
 15 14  2  0
 16 14  2  0
 17 14  1  0
 18 14  1  0
 20 19  2  0
 21 19  1  0
 22 19  1  0
 23 21  1  0
 24 23  1  0
 25 20  1  0
 26 22  1  0
 27 24  2  0
 28 24  1  0
 29 27  1  0
 30 28  2  0
 31 30  1  0
 29 31  2  0
  3 32  1  0
  4 33  1  0
  5 34  1  0
  5 35  1  0
  7 36  1  0
  7 37  1  0
  7 38  1  0
  8 39  1  0
  8 40  1  0
  8 41  1  0
  9 42  1  0
 10 43  1  0
 11 44  1  0
 12 45  1  0
 13 46  1  0
 17 47  1  0
 18 48  1  0
 21 49  1  0
 22 50  1  0
 23 51  1  0
 23 52  1  0
 25 53  1  0
 25 54  1  0
 25 55  1  0
 26 56  1  0
 26 57  1  0
 26 58  1  0
 27 59  1  0
 28 60  1  0
 29 61  1  0
 30 62  1  0
 31 63  1  0
M  END
> <Uni-Dock RESULT> 
ENERGY=   -4.191  LOWER_BOUND=    1.071  UPPER_BOUND=    1.824
INTER + INTRA:          -4.191
INTER:                  -4.191
INTRA:                   0.000
UNBOUND:                 0.000

$$$$

     RDKit          3D

 63 62  0  0  0  0  0  0  0  0999 V2000
   40.1393   11.5733   10.9438 C   0  0  0  0  0  0  0  0  0  0  0  0
   39.5590   10.8136   10.0941 N   0  0  0  0  0  0  0  0  0  0  0  0
   41.5033   11.5610   11.0697 N   0  0  0  0  0  0  0  0  0  0  0  0
   39.6770   12.5035   11.8316 N   0  0  0  0  0  0  0  0  0  0  0  0
   42.3152   10.7770   10.1520 C   0  0  0  0  0  0  0  0  0  0  0  0
   43.7738   10.9794   10.4883 C   0  0  0  0  0  0  0  0  0  0  0  0
   38.1331   10.8509    9.8679 C   0  0  0  0  0  0  0  0  0  0  0  0
   38.3225   12.5901   12.3216 C   0  0  0  0  0  0  0  0  0  0  0  0
   44.3750   10.2334   11.5140 C   0  0  0  0  0  0  0  0  0  0  0  0
   44.5359   11.9473    9.8139 C   0  0  0  0  0  0  0  0  0  0  0  0
   45.7163   10.4345   11.8419 C   0  0  0  0  0  0  0  0  0  0  0  0
   45.8762   12.1503   10.1479 C   0  0  0  0  0  0  0  0  0  0  0  0
   46.4663   11.3932   11.1589 C   0  0  0  0  0  0  0  0  0  0  0  0
   41.7921   12.0037   10.8193 S   0  0  0  0  0  0  0  0  0  0  0  0
   41.3698   12.6356   12.0439 O   0  0  0  0  0  0  0  0  0  0  0  0
   41.8794   12.6884    9.5543 O   0  0  0  0  0  0  0  0  0  0  0  0
   43.2141   11.2989   11.0643 O   0  0  0  0  0  0  0  0  0  0  0  0
   40.8397   10.7266   10.6291 O   0  0  0  0  0  0  0  0  0  0  0  0
   43.4409   11.5610   11.0660 C   0  0  0  0  0  0  0  0  0  0  0  0
   43.6693   11.3351    9.8295 N   0  0  0  0  0  0  0  0  0  0  0  0
   42.4773   10.8601   11.7421 N   0  0  0  0  0  0  0  0  0  0  0  0
   43.9894   12.4309   11.9685 N   0  0  0  0  0  0  0  0  0  0  0  0
   41.5897    9.9219   11.0712 C   0  0  0  0  0  0  0  0  0  0  0  0
   40.2173   10.5306   10.8936 C   0  0  0  0  0  0  0  0  0  0  0  0
   44.6456   12.0721    9.0618 C   0  0  0  0  0  0  0  0  0  0  0  0
   45.1913   13.2074   11.7955 C   0  0  0  0  0  0  0  0  0  0  0  0
   40.0129   11.5519    9.9541 C   0  0  0  0  0  0  0  0  0  0  0  0
   39.1316   10.0965   11.6692 C   0  0  0  0  0  0  0  0  0  0  0  0
   38.7488   12.1170    9.7826 C   0  0  0  0  0  0  0  0  0  0  0  0
   37.8661   10.6585   11.4914 C   0  0  0  0  0  0  0  0  0  0  0  0
   37.6751   11.6659   10.5470 C   0  0  0  0  0  0  0  0  0  0  0  0
   41.8737   12.4974   11.1654 H   0  0  0  0  0  0  0  0  0  0  0  0
   40.3408   12.6133   12.5914 H   0  0  0  0  0  0  0  0  0  0  0  0
   42.1310   11.0862    9.1150 H   0  0  0  0  0  0  0  0  0  0  0  0
   42.0683    9.7095   10.2241 H   0  0  0  0  0  0  0  0  0  0  0  0
   37.7864   11.8561    9.6083 H   0  0  0  0  0  0  0  0  0  0  0  0
   37.8941   10.2073    9.0125 H   0  0  0  0  0  0  0  0  0  0  0  0
   37.5748   10.4613   10.7251 H   0  0  0  0  0  0  0  0  0  0  0  0
   37.6391   12.9553   11.5507 H   0  0  0  0  0  0  0  0  0  0  0  0
   38.2801   13.3058   13.1511 H   0  0  0  0  0  0  0  0  0  0  0  0
   37.9746   11.6249   12.7024 H   0  0  0  0  0  0  0  0  0  0  0  0
   43.7929    9.5004   12.0690 H   0  0  0  0  0  0  0  0  0  0  0  0
   44.0870   12.5481    9.0237 H   0  0  0  0  0  0  0  0  0  0  0  0
   46.1727    9.8480   12.6350 H   0  0  0  0  0  0  0  0  0  0  0  0
   46.4606   12.8990    9.6181 H   0  0  0  0  0  0  0  0  0  0  0  0
   47.5105   11.5499   11.4154 H   0  0  0  0  0  0  0  0  0  0  0  0
   43.5103   10.9283   10.2067 H   0  0  0  0  0  0  0  0  0  0  0  0
   40.3123   10.6422   11.4527 H   0  0  0  0  0  0  0  0  0  0  0  0
   41.9634   11.4511   12.3841 H   0  0  0  0  0  0  0  0  0  0  0  0
   43.9007   12.0754   12.9124 H   0  0  0  0  0  0  0  0  0  0  0  0
   41.9705    9.5769   10.1028 H   0  0  0  0  0  0  0  0  0  0  0  0
   41.5163    9.0257   11.6973 H   0  0  0  0  0  0  0  0  0  0  0  0
   44.6034   11.7338    8.0202 H   0  0  0  0  0  0  0  0  0  0  0  0
   45.6645   11.8873    9.4117 H   0  0  0  0  0  0  0  0  0  0  0  0
   44.4280   13.1439    9.0486 H   0  0  0  0  0  0  0  0  0  0  0  0
   46.0494   12.5675   11.5703 H   0  0  0  0  0  0  0  0  0  0  0  0
   45.4145   13.7414   12.7245 H   0  0  0  0  0  0  0  0  0  0  0  0
   45.0691   13.9636   11.0159 H   0  0  0  0  0  0  0  0  0  0  0  0
   40.8477   11.9122    9.3559 H   0  0  0  0  0  0  0  0  0  0  0  0
   39.2652    9.3103   12.4092 H   0  0  0  0  0  0  0  0  0  0  0  0
   38.6035   12.9062    9.0498 H   0  0  0  0  0  0  0  0  0  0  0  0
   37.0280   10.3069   12.0864 H   0  0  0  0  0  0  0  0  0  0  0  0
   36.6892   12.0995   10.4059 H   0  0  0  0  0  0  0  0  0  0  0  0
  2  1  2  0
  3  1  1  0
  4  1  1  0
  5  3  1  0
  6  5  1  0
  7  2  1  0
  8  4  1  0
  9  6  2  0
 10  6  1  0
 11  9  1  0
 12 10  2  0
 13 12  1  0
 11 13  2  0
 15 14  2  0
 16 14  2  0
 17 14  1  0
 18 14  1  0
 20 19  2  0
 21 19  1  0
 22 19  1  0
 23 21  1  0
 24 23  1  0
 25 20  1  0
 26 22  1  0
 27 24  2  0
 28 24  1  0
 29 27  1  0
 30 28  2  0
 31 30  1  0
 29 31  2  0
  3 32  1  0
  4 33  1  0
  5 34  1  0
  5 35  1  0
  7 36  1  0
  7 37  1  0
  7 38  1  0
  8 39  1  0
  8 40  1  0
  8 41  1  0
  9 42  1  0
 10 43  1  0
 11 44  1  0
 12 45  1  0
 13 46  1  0
 17 47  1  0
 18 48  1  0
 21 49  1  0
 22 50  1  0
 23 51  1  0
 23 52  1  0
 25 53  1  0
 25 54  1  0
 25 55  1  0
 26 56  1  0
 26 57  1  0
 26 58  1  0
 27 59  1  0
 28 60  1  0
 29 61  1  0
 30 62  1  0
 31 63  1  0
M  END
> <Uni-Dock RESULT> 
ENERGY=   -4.110  LOWER_BOUND=    5.811  UPPER_BOUND=    7.199
INTER + INTRA:          -4.110
INTER:                  -4.110
INTRA:                   0.000
UNBOUND:                 0.000

$$$$

     RDKit          3D

 63 62  0  0  0  0  0  0  0  0999 V2000
   42.9887   12.2960    9.0887 C   0  0  0  0  0  0  0  0  0  0  0  0
   44.1090   11.8359    9.5000 N   0  0  0  0  0  0  0  0  0  0  0  0
   41.8298   12.0062    9.7591 N   0  0  0  0  0  0  0  0  0  0  0  0
   42.6401   13.1070    8.0456 N   0  0  0  0  0  0  0  0  0  0  0  0
   41.8756   11.2768   11.0169 C   0  0  0  0  0  0  0  0  0  0  0  0
   40.4717   11.1358   11.5561 C   0  0  0  0  0  0  0  0  0  0  0  0
   45.3647   12.1806    8.8756 C   0  0  0  0  0  0  0  0  0  0  0  0
   43.4418   13.3479    6.8703 C   0  0  0  0  0  0  0  0  0  0  0  0
   39.6350   10.1075   11.0950 C   0  0  0  0  0  0  0  0  0  0  0  0
   39.9677   12.0566   12.4891 C   0  0  0  0  0  0  0  0  0  0  0  0
   38.3302    9.9885   11.5747 C   0  0  0  0  0  0  0  0  0  0  0  0
   38.6599   11.9385   12.9632 C   0  0  0  0  0  0  0  0  0  0  0  0
   37.8429   10.9044   12.5084 C   0  0  0  0  0  0  0  0  0  0  0  0
   41.6161   12.4273   10.1043 S   0  0  0  0  0  0  0  0  0  0  0  0
   41.1332   12.8785    8.8234 O   0  0  0  0  0  0  0  0  0  0  0  0
   42.0445   13.3147   11.1558 O   0  0  0  0  0  0  0  0  0  0  0  0
   40.5285   11.4366   10.7478 O   0  0  0  0  0  0  0  0  0  0  0  0
   42.8172   11.4107    9.7910 O   0  0  0  0  0  0  0  0  0  0  0  0
   40.2768   11.6467   10.8605 C   0  0  0  0  0  0  0  0  0  0  0  0
   40.8153   11.6249   12.0189 N   0  0  0  0  0  0  0  0  0  0  0  0
   40.8715   11.0202    9.7971 N   0  0  0  0  0  0  0  0  0  0  0  0
   39.1249   12.2088   10.3817 N   0  0  0  0  0  0  0  0  0  0  0  0
   42.1894   10.4107    9.8972 C   0  0  0  0  0  0  0  0  0  0  0  0
   43.2263   11.2866    9.2316 C   0  0  0  0  0  0  0  0  0  0  0  0
   40.2501   12.3015   13.1627 C   0  0  0  0  0  0  0  0  0  0  0  0
   38.0494   12.7667   11.1625 C   0  0  0  0  0  0  0  0  0  0  0  0
   43.6261   12.4898    9.8317 C   0  0  0  0  0  0  0  0  0  0  0  0
   43.7958   10.9207    8.0026 C   0  0  0  0  0  0  0  0  0  0  0  0
   44.5843   13.3023    9.2250 C   0  0  0  0  0  0  0  0  0  0  0  0
   44.7594   11.7318    7.4004 C   0  0  0  0  0  0  0  0  0  0  0  0
   45.1546   12.9200    8.0128 C   0  0  0  0  0  0  0  0  0  0  0  0
   41.2358   12.8211    9.8388 H   0  0  0  0  0  0  0  0  0  0  0  0
   41.6713   12.9429    7.7914 H   0  0  0  0  0  0  0  0  0  0  0  0
   42.4981   11.8090   11.7478 H   0  0  0  0  0  0  0  0  0  0  0  0
   42.3150   10.2804   10.8764 H   0  0  0  0  0  0  0  0  0  0  0  0
   45.5186   13.2635    8.8371 H   0  0  0  0  0  0  0  0  0  0  0  0
   46.1837   11.7699    9.4786 H   0  0  0  0  0  0  0  0  0  0  0  0
   45.4556   11.7438    7.8760 H   0  0  0  0  0  0  0  0  0  0  0  0
   44.3076   13.9755    7.0964 H   0  0  0  0  0  0  0  0  0  0  0  0
   42.8437   13.8854    6.1250 H   0  0  0  0  0  0  0  0  0  0  0  0
   43.7700   12.4092    6.4133 H   0  0  0  0  0  0  0  0  0  0  0  0
   39.9970    9.4025   10.3491 H   0  0  0  0  0  0  0  0  0  0  0  0
   40.5940   12.8712   12.8512 H   0  0  0  0  0  0  0  0  0  0  0  0
   37.6927    9.1857   11.2138 H   0  0  0  0  0  0  0  0  0  0  0  0
   38.2785   12.6533   13.6888 H   0  0  0  0  0  0  0  0  0  0  0  0
   36.8265   10.8117   12.8809 H   0  0  0  0  0  0  0  0  0  0  0  0
   40.8475   11.1898   11.6410 H   0  0  0  0  0  0  0  0  0  0  0  0
   42.8212   11.2687    8.8197 H   0  0  0  0  0  0  0  0  0  0  0  0
   40.7850   11.5614    8.9456 H   0  0  0  0  0  0  0  0  0  0  0  0
   38.7834   11.7007    9.5752 H   0  0  0  0  0  0  0  0  0  0  0  0
   42.4932   10.1942   10.9280 H   0  0  0  0  0  0  0  0  0  0  0  0
   42.1476    9.4402    9.3903 H   0  0  0  0  0  0  0  0  0  0  0  0
   40.9308   12.1841   14.0135 H   0  0  0  0  0  0  0  0  0  0  0  0
   39.2933   11.8664   13.4628 H   0  0  0  0  0  0  0  0  0  0  0  0
   40.1507   13.3770   12.9911 H   0  0  0  0  0  0  0  0  0  0  0  0
   37.6493   12.0340   11.8693 H   0  0  0  0  0  0  0  0  0  0  0  0
   37.2324   13.0605   10.4960 H   0  0  0  0  0  0  0  0  0  0  0  0
   38.3671   13.6682   11.6924 H   0  0  0  0  0  0  0  0  0  0  0  0
   43.1824   12.7970   10.7768 H   0  0  0  0  0  0  0  0  0  0  0  0
   43.4981    9.9958    7.5133 H   0  0  0  0  0  0  0  0  0  0  0  0
   44.8868   14.2310    9.7014 H   0  0  0  0  0  0  0  0  0  0  0  0
   45.2053   11.4343    6.4556 H   0  0  0  0  0  0  0  0  0  0  0  0
   45.9079   13.5483    7.5460 H   0  0  0  0  0  0  0  0  0  0  0  0
  2  1  2  0
  3  1  1  0
  4  1  1  0
  5  3  1  0
  6  5  1  0
  7  2  1  0
  8  4  1  0
  9  6  2  0
 10  6  1  0
 11  9  1  0
 12 10  2  0
 13 12  1  0
 11 13  2  0
 15 14  2  0
 16 14  2  0
 17 14  1  0
 18 14  1  0
 20 19  2  0
 21 19  1  0
 22 19  1  0
 23 21  1  0
 24 23  1  0
 25 20  1  0
 26 22  1  0
 27 24  2  0
 28 24  1  0
 29 27  1  0
 30 28  2  0
 31 30  1  0
 29 31  2  0
  3 32  1  0
  4 33  1  0
  5 34  1  0
  5 35  1  0
  7 36  1  0
  7 37  1  0
  7 38  1  0
  8 39  1  0
  8 40  1  0
  8 41  1  0
  9 42  1  0
 10 43  1  0
 11 44  1  0
 12 45  1  0
 13 46  1  0
 17 47  1  0
 18 48  1  0
 21 49  1  0
 22 50  1  0
 23 51  1  0
 23 52  1  0
 25 53  1  0
 25 54  1  0
 25 55  1  0
 26 56  1  0
 26 57  1  0
 26 58  1  0
 27 59  1  0
 28 60  1  0
 29 61  1  0
 30 62  1  0
 31 63  1  0
M  END
> <Uni-Dock RESULT> 
ENERGY=   -4.102  LOWER_BOUND=    6.529  UPPER_BOUND=    8.823
INTER + INTRA:          -4.102
INTER:                  -4.102
INTRA:                   0.000
UNBOUND:                 0.000

$$$$

     RDKit          3D

 63 62  0  0  0  0  0  0  0  0999 V2000
   48.2676   11.0251   19.3467 C   0  0  0  0  0  0  0  0  0  0  0  0
   47.1566   11.4993   18.9261 N   0  0  0  0  0  0  0  0  0  0  0  0
   48.3405    9.7424   19.8220 N   0  0  0  0  0  0  0  0  0  0  0  0
   49.5314   11.5389   19.4235 N   0  0  0  0  0  0  0  0  0  0  0  0
   47.1841    8.8642   19.7365 C   0  0  0  0  0  0  0  0  0  0  0  0
   47.5537    7.5075   20.2883 C   0  0  0  0  0  0  0  0  0  0  0  0
   47.0476   12.8150   18.3407 C   0  0  0  0  0  0  0  0  0  0  0  0
   49.8658   12.9424   19.4003 C   0  0  0  0  0  0  0  0  0  0  0  0
   47.5175    7.2707   21.6713 C   0  0  0  0  0  0  0  0  0  0  0  0
   47.9832    6.4800   19.4327 C   0  0  0  0  0  0  0  0  0  0  0  0
   47.8802    6.0253   22.1854 C   0  0  0  0  0  0  0  0  0  0  0  0
   48.3509    5.2366   19.9503 C   0  0  0  0  0  0  0  0  0  0  0  0
   48.2972    5.0087   21.3246 C   0  0  0  0  0  0  0  0  0  0  0  0
   48.5690    9.3432   19.4607 S   0  0  0  0  0  0  0  0  0  0  0  0
   49.7754    9.9385   19.9780 O   0  0  0  0  0  0  0  0  0  0  0  0
   48.4265    8.8713   18.1065 O   0  0  0  0  0  0  0  0  0  0  0  0
   48.1362    8.1319   20.4220 O   0  0  0  0  0  0  0  0  0  0  0  0
   47.3967   10.4011   19.7448 O   0  0  0  0  0  0  0  0  0  0  0  0
   48.3563    7.8761   20.3424 C   0  0  0  0  0  0  0  0  0  0  0  0
   47.4774    7.4062   19.5430 N   0  0  0  0  0  0  0  0  0  0  0  0
   48.1468    9.0595   21.0002 N   0  0  0  0  0  0  0  0  0  0  0  0
   49.5877    7.4287   20.7366 N   0  0  0  0  0  0  0  0  0  0  0  0
   46.9856    9.8961   20.7356 C   0  0  0  0  0  0  0  0  0  0  0  0
   47.3772   11.0890   19.8934 C   0  0  0  0  0  0  0  0  0  0  0  0
   47.6654    6.1844   18.7963 C   0  0  0  0  0  0  0  0  0  0  0  0
   50.1443    6.1199   20.5025 C   0  0  0  0  0  0  0  0  0  0  0  0
   47.6933   10.9237   18.5369 C   0  0  0  0  0  0  0  0  0  0  0  0
   47.4433   12.3742   20.4526 C   0  0  0  0  0  0  0  0  0  0  0  0
   48.0531   12.0200   17.7525 C   0  0  0  0  0  0  0  0  0  0  0  0
   47.7970   13.4708   19.6645 C   0  0  0  0  0  0  0  0  0  0  0  0
   48.0990   13.2935   18.3152 C   0  0  0  0  0  0  0  0  0  0  0  0
   49.1726    9.2726   19.4902 H   0  0  0  0  0  0  0  0  0  0  0  0
   50.0549   11.0575   20.1476 H   0  0  0  0  0  0  0  0  0  0  0  0
   46.8563    8.7599   18.6941 H   0  0  0  0  0  0  0  0  0  0  0  0
   46.3388    9.2724   20.3063 H   0  0  0  0  0  0  0  0  0  0  0  0
   47.7305   12.9444   17.4953 H   0  0  0  0  0  0  0  0  0  0  0  0
   46.0326   12.9426   17.9448 H   0  0  0  0  0  0  0  0  0  0  0  0
   47.2011   13.6047   19.0831 H   0  0  0  0  0  0  0  0  0  0  0  0
   49.7291   13.3714   18.4044 H   0  0  0  0  0  0  0  0  0  0  0  0
   50.9232   13.0695   19.6605 H   0  0  0  0  0  0  0  0  0  0  0  0
   49.2775   13.5037   20.1328 H   0  0  0  0  0  0  0  0  0  0  0  0
   47.2171    8.0638   22.3531 H   0  0  0  0  0  0  0  0  0  0  0  0
   48.0328    6.6448   18.3569 H   0  0  0  0  0  0  0  0  0  0  0  0
   47.8441    5.8518   23.2577 H   0  0  0  0  0  0  0  0  0  0  0  0
   48.6786    4.4447   19.2806 H   0  0  0  0  0  0  0  0  0  0  0  0
   48.5803    4.0394   21.7257 H   0  0  0  0  0  0  0  0  0  0  0  0
   47.3510    7.7042   20.0208 H   0  0  0  0  0  0  0  0  0  0  0  0
   47.7843   11.1093   20.3033 H   0  0  0  0  0  0  0  0  0  0  0  0
   48.9915    9.6157   21.0514 H   0  0  0  0  0  0  0  0  0  0  0  0
   49.8224    7.7811   21.6564 H   0  0  0  0  0  0  0  0  0  0  0  0
   46.1601    9.3580   20.2553 H   0  0  0  0  0  0  0  0  0  0  0  0
   46.5947   10.2392   21.7000 H   0  0  0  0  0  0  0  0  0  0  0  0
   46.8004    6.0359   18.1399 H   0  0  0  0  0  0  0  0  0  0  0  0
   47.7181    5.3101   19.4501 H   0  0  0  0  0  0  0  0  0  0  0  0
   48.5430    6.2362   18.1457 H   0  0  0  0  0  0  0  0  0  0  0  0
   49.4961    5.3347   20.9023 H   0  0  0  0  0  0  0  0  0  0  0  0
   51.1096    6.0403   21.0121 H   0  0  0  0  0  0  0  0  0  0  0  0
   50.3314    5.9503   19.4392 H   0  0  0  0  0  0  0  0  0  0  0  0
   47.6633    9.9313   18.0910 H   0  0  0  0  0  0  0  0  0  0  0  0
   47.2092   12.5281   21.5038 H   0  0  0  0  0  0  0  0  0  0  0  0
   48.2937   11.8786   16.7022 H   0  0  0  0  0  0  0  0  0  0  0  0
   47.8323   14.4645   20.1021 H   0  0  0  0  0  0  0  0  0  0  0  0
   48.3696   14.1479   17.7014 H   0  0  0  0  0  0  0  0  0  0  0  0
  2  1  2  0
  3  1  1  0
  4  1  1  0
  5  3  1  0
  6  5  1  0
  7  2  1  0
  8  4  1  0
  9  6  2  0
 10  6  1  0
 11  9  1  0
 12 10  2  0
 13 12  1  0
 11 13  2  0
 15 14  2  0
 16 14  2  0
 17 14  1  0
 18 14  1  0
 20 19  2  0
 21 19  1  0
 22 19  1  0
 23 21  1  0
 24 23  1  0
 25 20  1  0
 26 22  1  0
 27 24  2  0
 28 24  1  0
 29 27  1  0
 30 28  2  0
 31 30  1  0
 29 31  2  0
  3 32  1  0
  4 33  1  0
  5 34  1  0
  5 35  1  0
  7 36  1  0
  7 37  1  0
  7 38  1  0
  8 39  1  0
  8 40  1  0
  8 41  1  0
  9 42  1  0
 10 43  1  0
 11 44  1  0
 12 45  1  0
 13 46  1  0
 17 47  1  0
 18 48  1  0
 21 49  1  0
 22 50  1  0
 23 51  1  0
 23 52  1  0
 25 53  1  0
 25 54  1  0
 25 55  1  0
 26 56  1  0
 26 57  1  0
 26 58  1  0
 27 59  1  0
 28 60  1  0
 29 61  1  0
 30 62  1  0
 31 63  1  0
M  END
> <Uni-Dock RESULT> 
ENERGY=   -4.014  LOWER_BOUND=    7.119  UPPER_BOUND=    9.169
INTER + INTRA:          -4.014
INTER:                  -4.014
INTRA:                   0.000
UNBOUND:                 0.000

$$$$

     RDKit          3D

 63 62  0  0  0  0  0  0  0  0999 V2000
   56.0859    4.8892   10.1576 C   0  0  0  0  0  0  0  0  0  0  0  0
   55.9937    3.6268    9.9738 N   0  0  0  0  0  0  0  0  0  0  0  0
   55.6192    5.7650    9.2133 N   0  0  0  0  0  0  0  0  0  0  0  0
   56.5695    5.6492   11.1850 N   0  0  0  0  0  0  0  0  0  0  0  0
   54.9004    5.2706    8.0493 C   0  0  0  0  0  0  0  0  0  0  0  0
   54.4652    6.4441    7.2037 C   0  0  0  0  0  0  0  0  0  0  0  0
   56.3958    2.6666   10.9748 C   0  0  0  0  0  0  0  0  0  0  0  0
   57.4868    5.1937   12.2015 C   0  0  0  0  0  0  0  0  0  0  0  0
   55.3567    7.0297    6.2912 C   0  0  0  0  0  0  0  0  0  0  0  0
   53.1819    6.9952    7.3507 C   0  0  0  0  0  0  0  0  0  0  0  0
   54.9647    8.1280    5.5251 C   0  0  0  0  0  0  0  0  0  0  0  0
   52.7943    8.0977    6.5870 C   0  0  0  0  0  0  0  0  0  0  0  0
   53.6837    8.6619    5.6736 C   0  0  0  0  0  0  0  0  0  0  0  0
   55.1032    6.0172    9.3241 S   0  0  0  0  0  0  0  0  0  0  0  0
   55.9693    6.8483   10.1220 O   0  0  0  0  0  0  0  0  0  0  0  0
   53.7608    5.6600    9.7078 O   0  0  0  0  0  0  0  0  0  0  0  0
   55.0141    6.6335    7.8440 O   0  0  0  0  0  0  0  0  0  0  0  0
   55.9191    4.6633    9.0496 O   0  0  0  0  0  0  0  0  0  0  0  0
   54.8039    6.9072    7.8772 C   0  0  0  0  0  0  0  0  0  0  0  0
   53.8294    6.1691    7.5062 N   0  0  0  0  0  0  0  0  0  0  0  0
   56.0546    6.3793    8.0622 N   0  0  0  0  0  0  0  0  0  0  0  0
   54.9022    8.2413    8.1647 N   0  0  0  0  0  0  0  0  0  0  0  0
   56.3121    4.9500    7.9685 C   0  0  0  0  0  0  0  0  0  0  0  0
   56.4765    4.3532    9.3477 C   0  0  0  0  0  0  0  0  0  0  0  0
   52.4849    6.6677    7.3348 C   0  0  0  0  0  0  0  0  0  0  0  0
   53.9165    9.2565    7.8904 C   0  0  0  0  0  0  0  0  0  0  0  0
   55.3647    4.2002   10.1891 C   0  0  0  0  0  0  0  0  0  0  0  0
   57.7386    3.9550    9.8139 C   0  0  0  0  0  0  0  0  0  0  0  0
   55.5079    3.6480   11.4624 C   0  0  0  0  0  0  0  0  0  0  0  0
   57.8787    3.3965   11.0856 C   0  0  0  0  0  0  0  0  0  0  0  0
   56.7636    3.2411   11.9075 C   0  0  0  0  0  0  0  0  0  0  0  0
   55.1238    6.5374    9.6390 H   0  0  0  0  0  0  0  0  0  0  0  0
   56.8440    6.5625   10.8376 H   0  0  0  0  0  0  0  0  0  0  0  0
   54.0191    4.6934    8.3579 H   0  0  0  0  0  0  0  0  0  0  0  0
   55.5351    4.6041    7.4505 H   0  0  0  0  0  0  0  0  0  0  0  0
   55.8892    2.8353   11.9302 H   0  0  0  0  0  0  0  0  0  0  0  0
   56.1046    1.6636   10.6395 H   0  0  0  0  0  0  0  0  0  0  0  0
   57.4817    2.6531   11.1129 H   0  0  0  0  0  0  0  0  0  0  0  0
   57.0007    4.5135   12.9055 H   0  0  0  0  0  0  0  0  0  0  0  0
   57.8435    6.0527   12.7820 H   0  0  0  0  0  0  0  0  0  0  0  0
   58.3629    4.7097   11.7588 H   0  0  0  0  0  0  0  0  0  0  0  0
   56.3658    6.6364    6.1851 H   0  0  0  0  0  0  0  0  0  0  0  0
   52.4775    6.5663    8.0626 H   0  0  0  0  0  0  0  0  0  0  0  0
   55.6619    8.5707    4.8185 H   0  0  0  0  0  0  0  0  0  0  0  0
   51.7972    8.5161    6.7039 H   0  0  0  0  0  0  0  0  0  0  0  0
   53.3794    9.5178    5.0773 H   0  0  0  0  0  0  0  0  0  0  0  0
   54.3754    6.0899    7.3370 H   0  0  0  0  0  0  0  0  0  0  0  0
   56.8298    4.8091    9.3857 H   0  0  0  0  0  0  0  0  0  0  0  0
   56.5158    6.7797    8.8699 H   0  0  0  0  0  0  0  0  0  0  0  0
   55.8447    8.5760    8.0070 H   0  0  0  0  0  0  0  0  0  0  0  0
   55.5390    4.4023    7.4171 H   0  0  0  0  0  0  0  0  0  0  0  0
   57.2367    4.8142    7.3964 H   0  0  0  0  0  0  0  0  0  0  0  0
   51.8282    5.8290    7.0770 H   0  0  0  0  0  0  0  0  0  0  0  0
   52.4169    7.3849    6.5128 H   0  0  0  0  0  0  0  0  0  0  0  0
   52.0897    7.0980    8.2593 H   0  0  0  0  0  0  0  0  0  0  0  0
   53.6626    9.2875    6.8269 H   0  0  0  0  0  0  0  0  0  0  0  0
   54.3213   10.2369    8.1604 H   0  0  0  0  0  0  0  0  0  0  0  0
   53.0146    9.1091    8.4899 H   0  0  0  0  0  0  0  0  0  0  0  0
   54.3810    4.5192    9.8498 H   0  0  0  0  0  0  0  0  0  0  0  0
   58.6177    4.0690    9.1833 H   0  0  0  0  0  0  0  0  0  0  0  0
   54.6380    3.5330   12.1036 H   0  0  0  0  0  0  0  0  0  0  0  0
   58.8574    3.0781   11.4334 H   0  0  0  0  0  0  0  0  0  0  0  0
   56.8726    2.8021   12.8952 H   0  0  0  0  0  0  0  0  0  0  0  0
  2  1  2  0
  3  1  1  0
  4  1  1  0
  5  3  1  0
  6  5  1  0
  7  2  1  0
  8  4  1  0
  9  6  2  0
 10  6  1  0
 11  9  1  0
 12 10  2  0
 13 12  1  0
 11 13  2  0
 15 14  2  0
 16 14  2  0
 17 14  1  0
 18 14  1  0
 20 19  2  0
 21 19  1  0
 22 19  1  0
 23 21  1  0
 24 23  1  0
 25 20  1  0
 26 22  1  0
 27 24  2  0
 28 24  1  0
 29 27  1  0
 30 28  2  0
 31 30  1  0
 29 31  2  0
  3 32  1  0
  4 33  1  0
  5 34  1  0
  5 35  1  0
  7 36  1  0
  7 37  1  0
  7 38  1  0
  8 39  1  0
  8 40  1  0
  8 41  1  0
  9 42  1  0
 10 43  1  0
 11 44  1  0
 12 45  1  0
 13 46  1  0
 17 47  1  0
 18 48  1  0
 21 49  1  0
 22 50  1  0
 23 51  1  0
 23 52  1  0
 25 53  1  0
 25 54  1  0
 25 55  1  0
 26 56  1  0
 26 57  1  0
 26 58  1  0
 27 59  1  0
 28 60  1  0
 29 61  1  0
 30 62  1  0
 31 63  1  0
M  END
> <Uni-Dock RESULT> 
ENERGY=   -3.917  LOWER_BOUND=    8.500  UPPER_BOUND=   10.466
INTER + INTRA:          -3.917
INTER:                  -3.917
INTRA:                   0.000
UNBOUND:                 0.000

$$$$
