
     RDKit          3D

 63 62  0  0  0  0  0  0  0  0999 V2000
   47.9276    7.4362   13.3321 C   0  0  0  0  0  0  0  0  0  0  0  0
   47.4417    8.3596   14.0702 N   0  0  0  0  0  0  0  0  0  0  0  0
   47.1017    6.5056   12.7630 N   0  0  0  0  0  0  0  0  0  0  0  0
   49.2014    7.1307   12.9394 N   0  0  0  0  0  0  0  0  0  0  0  0
   45.6821    6.4921   13.0670 C   0  0  0  0  0  0  0  0  0  0  0  0
   45.0185    5.3796   12.2902 C   0  0  0  0  0  0  0  0  0  0  0  0
   48.2678    9.3321   14.7473 C   0  0  0  0  0  0  0  0  0  0  0  0
   50.3167    8.0476   12.9407 C   0  0  0  0  0  0  0  0  0  0  0  0
   44.7139    4.1583   12.9078 C   0  0  0  0  0  0  0  0  0  0  0  0
   44.7294    5.5425   10.9273 C   0  0  0  0  0  0  0  0  0  0  0  0
   44.1124    3.1294   12.1813 C   0  0  0  0  0  0  0  0  0  0  0  0
   44.1284    4.5125   10.2022 C   0  0  0  0  0  0  0  0  0  0  0  0
   43.8171    3.3086   10.8304 C   0  0  0  0  0  0  0  0  0  0  0  0
   46.6288    6.6204   12.3683 S   0  0  0  0  0  0  0  0  0  0  0  0
   45.3296    7.0814   11.9499 O   0  0  0  0  0  0  0  0  0  0  0  0
   47.7453    6.4942   11.4661 O   0  0  0  0  0  0  0  0  0  0  0  0
   46.4133    5.1821   13.0455 O   0  0  0  0  0  0  0  0  0  0  0  0
   47.1273    7.4937   13.6186 O   0  0  0  0  0  0  0  0  0  0  0  0
   48.0676    7.4015   13.0068 C   0  0  0  0  0  0  0  0  0  0  0  0
   48.5091    7.3352   14.2048 N   0  0  0  0  0  0  0  0  0  0  0  0
   47.0124    6.6228   12.6135 N   0  0  0  0  0  0  0  0  0  0  0  0
   48.4390    8.1325   11.9121 N   0  0  0  0  0  0  0  0  0  0  0  0
   46.4179    5.6701   13.5356 C   0  0  0  0  0  0  0  0  0  0  0  0
   45.2693    4.9729   12.8460 C   0  0  0  0  0  0  0  0  0  0  0  0
   49.6617    8.0853   14.6479 C   0  0  0  0  0  0  0  0  0  0  0  0
   49.1973    9.3604   11.9505 C   0  0  0  0  0  0  0  0  0  0  0  0
   45.4721    3.7644   12.1626 C   0  0  0  0  0  0  0  0  0  0  0  0
   43.9911    5.5510   12.8383 C   0  0  0  0  0  0  0  0  0  0  0  0
   44.4140    3.1399   11.4994 C   0  0  0  0  0  0  0  0  0  0  0  0
   42.9337    4.9238   12.1773 C   0  0  0  0  0  0  0  0  0  0  0  0
   43.1454    3.7182   11.5092 C   0  0  0  0  0  0  0  0  0  0  0  0
   47.4982    5.5738   12.7594 H   0  0  0  0  0  0  0  0  0  0  0  0
   49.1799    6.5947   12.0779 H   0  0  0  0  0  0  0  0  0  0  0  0
   45.5216    6.3469   14.1419 H   0  0  0  0  0  0  0  0  0  0  0  0
   45.2186    7.4466   12.7914 H   0  0  0  0  0  0  0  0  0  0  0  0
   47.6334    9.9307   15.4129 H   0  0  0  0  0  0  0  0  0  0  0  0
   49.0229    8.8563   15.3799 H   0  0  0  0  0  0  0  0  0  0  0  0
   48.7351   10.0287   14.0447 H   0  0  0  0  0  0  0  0  0  0  0  0
   51.1680    7.5871   12.4247 H   0  0  0  0  0  0  0  0  0  0  0  0
   50.0693    8.9685   12.4046 H   0  0  0  0  0  0  0  0  0  0  0  0
   50.6458    8.2784   13.9568 H   0  0  0  0  0  0  0  0  0  0  0  0
   44.9405    4.0021   13.9601 H   0  0  0  0  0  0  0  0  0  0  0  0
   44.9749    6.4783   10.4295 H   0  0  0  0  0  0  0  0  0  0  0  0
   43.8724    2.1871   12.6682 H   0  0  0  0  0  0  0  0  0  0  0  0
   43.9038    4.6486    9.1465 H   0  0  0  0  0  0  0  0  0  0  0  0
   43.3496    2.5056   10.2666 H   0  0  0  0  0  0  0  0  0  0  0  0
   45.7818    4.6833   12.4860 H   0  0  0  0  0  0  0  0  0  0  0  0
   47.9896    7.1328   13.9083 H   0  0  0  0  0  0  0  0  0  0  0  0
   47.1723    6.2048   11.7071 H   0  0  0  0  0  0  0  0  0  0  0  0
   47.6507    8.2167   11.2772 H   0  0  0  0  0  0  0  0  0  0  0  0
   47.1608    4.9303   13.8594 H   0  0  0  0  0  0  0  0  0  0  0  0
   46.0494    6.1780   14.4349 H   0  0  0  0  0  0  0  0  0  0  0  0
   50.5389    7.8918   14.0240 H   0  0  0  0  0  0  0  0  0  0  0  0
   49.9236    7.7642   15.6630 H   0  0  0  0  0  0  0  0  0  0  0  0
   49.4533    9.1581   14.6987 H   0  0  0  0  0  0  0  0  0  0  0  0
   49.2049    9.8160   10.9522 H   0  0  0  0  0  0  0  0  0  0  0  0
   50.2381    9.1814   12.2278 H   0  0  0  0  0  0  0  0  0  0  0  0
   48.7423   10.0823   12.6347 H   0  0  0  0  0  0  0  0  0  0  0  0
   46.4573    3.3040   12.1423 H   0  0  0  0  0  0  0  0  0  0  0  0
   43.8203    6.4991   13.3460 H   0  0  0  0  0  0  0  0  0  0  0  0
   44.5794    2.2030   10.9705 H   0  0  0  0  0  0  0  0  0  0  0  0
   41.9460    5.3778   12.1783 H   0  0  0  0  0  0  0  0  0  0  0  0
   42.3228    3.2309   10.9926 H   0  0  0  0  0  0  0  0  0  0  0  0
  2  1  2  0
  3  1  1  0
  4  1  1  0
  5  3  1  0
  6  5  1  0
  7  2  1  0
  8  4  1  0
  9  6  2  0
 10  6  1  0
 11  9  1  0
 12 10  2  0
 13 12  1  0
 11 13  2  0
 15 14  2  0
 16 14  2  0
 17 14  1  0
 18 14  1  0
 20 19  2  0
 21 19  1  0
 22 19  1  0
 23 21  1  0
 24 23  1  0
 25 20  1  0
 26 22  1  0
 27 24  2  0
 28 24  1  0
 29 27  1  0
 30 28  2  0
 31 30  1  0
 29 31  2  0
  3 32  1  0
  4 33  1  0
  5 34  1  0
  5 35  1  0
  7 36  1  0
  7 37  1  0
  7 38  1  0
  8 39  1  0
  8 40  1  0
  8 41  1  0
  9 42  1  0
 10 43  1  0
 11 44  1  0
 12 45  1  0
 13 46  1  0
 17 47  1  0
 18 48  1  0
 21 49  1  0
 22 50  1  0
 23 51  1  0
 23 52  1  0
 25 53  1  0
 25 54  1  0
 25 55  1  0
 26 56  1  0
 26 57  1  0
 26 58  1  0
 27 59  1  0
 28 60  1  0
 29 61  1  0
 30 62  1  0
 31 63  1  0
M  END
> <Uni-Dock RESULT> 
ENERGY=   -6.345  LOWER_BOUND=    0.000  UPPER_BOUND=    0.000
INTER + INTRA:          -6.345
INTER:                  -6.345
INTRA:                   0.000
UNBOUND:                 0.000

$$$$

     RDKit          3D

 63 62  0  0  0  0  0  0  0  0999 V2000
   44.7921    6.0335   12.0860 C   0  0  0  0  0  0  0  0  0  0  0  0
   44.3651    5.5895   13.2059 N   0  0  0  0  0  0  0  0  0  0  0  0
   45.8902    6.8486   12.0438 N   0  0  0  0  0  0  0  0  0  0  0  0
   44.3690    5.8690   10.7960 N   0  0  0  0  0  0  0  0  0  0  0  0
   46.5236    7.3003   13.2696 C   0  0  0  0  0  0  0  0  0  0  0  0
   47.7134    8.1645   12.9245 C   0  0  0  0  0  0  0  0  0  0  0  0
   43.1764    4.7768   13.3201 C   0  0  0  0  0  0  0  0  0  0  0  0
   43.5364    4.7884   10.3232 C   0  0  0  0  0  0  0  0  0  0  0  0
   47.6216    9.5625   12.9760 C   0  0  0  0  0  0  0  0  0  0  0  0
   48.9191    7.5774   12.5131 C   0  0  0  0  0  0  0  0  0  0  0  0
   48.7208   10.3559   12.6434 C   0  0  0  0  0  0  0  0  0  0  0  0
   50.0171    8.3721   12.1803 C   0  0  0  0  0  0  0  0  0  0  0  0
   49.9183    9.7600   12.2493 C   0  0  0  0  0  0  0  0  0  0  0  0
   46.4659    6.7072   12.2470 S   0  0  0  0  0  0  0  0  0  0  0  0
   47.5075    6.4359   13.2046 O   0  0  0  0  0  0  0  0  0  0  0  0
   46.5040    6.2282   10.8884 O   0  0  0  0  0  0  0  0  0  0  0  0
   46.3092    8.3022   12.1734 O   0  0  0  0  0  0  0  0  0  0  0  0
   45.0493    6.2724   12.8623 O   0  0  0  0  0  0  0  0  0  0  0  0
   44.9644    5.9114   11.7996 C   0  0  0  0  0  0  0  0  0  0  0  0
   43.7776    6.3152   12.0505 N   0  0  0  0  0  0  0  0  0  0  0  0
   46.0413    6.7081   12.0826 N   0  0  0  0  0  0  0  0  0  0  0  0
   45.4657    4.7613   11.2548 N   0  0  0  0  0  0  0  0  0  0  0  0
   45.8465    8.0446   12.6183 C   0  0  0  0  0  0  0  0  0  0  0  0
   47.1965    8.6793   12.8536 C   0  0  0  0  0  0  0  0  0  0  0  0
   42.6074    5.5403   11.7075 C   0  0  0  0  0  0  0  0  0  0  0  0
   44.7711    3.4970   11.1975 C   0  0  0  0  0  0  0  0  0  0  0  0
   47.8009    9.4650   11.8607 C   0  0  0  0  0  0  0  0  0  0  0  0
   47.8878    8.4506   14.0529 C   0  0  0  0  0  0  0  0  0  0  0  0
   49.0633   10.0234   12.0705 C   0  0  0  0  0  0  0  0  0  0  0  0
   49.1486    9.0119   14.2621 C   0  0  0  0  0  0  0  0  0  0  0  0
   49.7351    9.7988   13.2714 C   0  0  0  0  0  0  0  0  0  0  0  0
   45.8042    7.5939   11.3637 H   0  0  0  0  0  0  0  0  0  0  0  0
   45.1377    6.0355   10.1547 H   0  0  0  0  0  0  0  0  0  0  0  0
   45.8126    7.8678   13.8818 H   0  0  0  0  0  0  0  0  0  0  0  0
   46.8632    6.4461   13.8670 H   0  0  0  0  0  0  0  0  0  0  0  0
   42.9495    4.6321   14.3837 H   0  0  0  0  0  0  0  0  0  0  0  0
   42.3035    5.2664   12.8783 H   0  0  0  0  0  0  0  0  0  0  0  0
   43.3209    3.7815   12.8892 H   0  0  0  0  0  0  0  0  0  0  0  0
   43.4922    4.8147    9.2275 H   0  0  0  0  0  0  0  0  0  0  0  0
   43.9514    3.8178   10.6099 H   0  0  0  0  0  0  0  0  0  0  0  0
   42.5102    4.8832   10.6867 H   0  0  0  0  0  0  0  0  0  0  0  0
   46.6937   10.0424   13.2788 H   0  0  0  0  0  0  0  0  0  0  0  0
   49.0011    6.4942   12.4518 H   0  0  0  0  0  0  0  0  0  0  0  0
   48.6450   11.4396   12.6922 H   0  0  0  0  0  0  0  0  0  0  0  0
   50.9497    7.9087   11.8661 H   0  0  0  0  0  0  0  0  0  0  0  0
   50.7725   10.3799   11.9899 H   0  0  0  0  0  0  0  0  0  0  0  0
   47.2102    8.6879   12.1638 H   0  0  0  0  0  0  0  0  0  0  0  0
   44.3578    6.5064   12.2106 H   0  0  0  0  0  0  0  0  0  0  0  0
   46.7147    6.7100   11.3286 H   0  0  0  0  0  0  0  0  0  0  0  0
   46.4250    4.6307   11.5618 H   0  0  0  0  0  0  0  0  0  0  0  0
   45.2636    8.6594   11.9209 H   0  0  0  0  0  0  0  0  0  0  0  0
   45.2911    8.0072   13.5631 H   0  0  0  0  0  0  0  0  0  0  0  0
   42.5870    5.2804   10.6453 H   0  0  0  0  0  0  0  0  0  0  0  0
   41.7138    6.1466   11.8977 H   0  0  0  0  0  0  0  0  0  0  0  0
   42.5188    4.6425   12.3263 H   0  0  0  0  0  0  0  0  0  0  0  0
   45.4651    2.7141   10.8661 H   0  0  0  0  0  0  0  0  0  0  0  0
   43.9504    3.5217   10.4779 H   0  0  0  0  0  0  0  0  0  0  0  0
   44.4001    3.2070   12.1847 H   0  0  0  0  0  0  0  0  0  0  0  0
   47.2908    9.6449   10.9171 H   0  0  0  0  0  0  0  0  0  0  0  0
   47.4429    7.8262   14.8261 H   0  0  0  0  0  0  0  0  0  0  0  0
   49.5261   10.6310   11.2950 H   0  0  0  0  0  0  0  0  0  0  0  0
   49.6761    8.8313   15.1952 H   0  0  0  0  0  0  0  0  0  0  0  0
   50.7176   10.2341   13.4332 H   0  0  0  0  0  0  0  0  0  0  0  0
  2  1  2  0
  3  1  1  0
  4  1  1  0
  5  3  1  0
  6  5  1  0
  7  2  1  0
  8  4  1  0
  9  6  2  0
 10  6  1  0
 11  9  1  0
 12 10  2  0
 13 12  1  0
 11 13  2  0
 15 14  2  0
 16 14  2  0
 17 14  1  0
 18 14  1  0
 20 19  2  0
 21 19  1  0
 22 19  1  0
 23 21  1  0
 24 23  1  0
 25 20  1  0
 26 22  1  0
 27 24  2  0
 28 24  1  0
 29 27  1  0
 30 28  2  0
 31 30  1  0
 29 31  2  0
  3 32  1  0
  4 33  1  0
  5 34  1  0
  5 35  1  0
  7 36  1  0
  7 37  1  0
  7 38  1  0
  8 39  1  0
  8 40  1  0
  8 41  1  0
  9 42  1  0
 10 43  1  0
 11 44  1  0
 12 45  1  0
 13 46  1  0
 17 47  1  0
 18 48  1  0
 21 49  1  0
 22 50  1  0
 23 51  1  0
 23 52  1  0
 25 53  1  0
 25 54  1  0
 25 55  1  0
 26 56  1  0
 26 57  1  0
 26 58  1  0
 27 59  1  0
 28 60  1  0
 29 61  1  0
 30 62  1  0
 31 63  1  0
M  END
> <Uni-Dock RESULT> 
ENERGY=   -5.334  LOWER_BOUND=    1.548  UPPER_BOUND=    5.593
INTER + INTRA:          -5.334
INTER:                  -5.334
INTRA:                   0.000
UNBOUND:                 0.000

$$$$

     RDKit          3D

 63 62  0  0  0  0  0  0  0  0999 V2000
   45.2574    5.4323   12.4905 C   0  0  0  0  0  0  0  0  0  0  0  0
   45.5518    4.7093   11.4785 N   0  0  0  0  0  0  0  0  0  0  0  0
   46.1674    6.3273   12.9833 N   0  0  0  0  0  0  0  0  0  0  0  0
   44.1389    5.5315   13.2711 N   0  0  0  0  0  0  0  0  0  0  0  0
   47.5083    6.3986   12.4314 C   0  0  0  0  0  0  0  0  0  0  0  0
   48.2836    7.4786   13.1483 C   0  0  0  0  0  0  0  0  0  0  0  0
   44.6575    3.7047   10.9516 C   0  0  0  0  0  0  0  0  0  0  0  0
   42.8135    5.1077   12.8862 C   0  0  0  0  0  0  0  0  0  0  0  0
   49.1936    7.1525   14.1638 C   0  0  0  0  0  0  0  0  0  0  0  0
   48.0763    8.8289   12.8297 C   0  0  0  0  0  0  0  0  0  0  0  0
   49.8975    8.1560   14.8315 C   0  0  0  0  0  0  0  0  0  0  0  0
   48.7805    9.8312   13.4986 C   0  0  0  0  0  0  0  0  0  0  0  0
   49.6929    9.4939   14.4959 C   0  0  0  0  0  0  0  0  0  0  0  0
   46.4235    6.8067   12.6714 S   0  0  0  0  0  0  0  0  0  0  0  0
   47.2677    7.4650   11.7073 O   0  0  0  0  0  0  0  0  0  0  0  0
   45.2261    7.4050   13.2049 O   0  0  0  0  0  0  0  0  0  0  0  0
   47.3547    6.4341   13.9236 O   0  0  0  0  0  0  0  0  0  0  0  0
   46.0225    5.3526   12.1243 O   0  0  0  0  0  0  0  0  0  0  0  0
   45.0521    5.7130   12.5664 C   0  0  0  0  0  0  0  0  0  0  0  0
   45.0408    4.4669   12.8521 N   0  0  0  0  0  0  0  0  0  0  0  0
   46.1576    6.4749   12.8343 N   0  0  0  0  0  0  0  0  0  0  0  0
   44.1288    6.5529   12.0074 N   0  0  0  0  0  0  0  0  0  0  0  0
   47.3101    5.8902   13.4987 C   0  0  0  0  0  0  0  0  0  0  0  0
   48.3800    6.9464   13.6429 C   0  0  0  0  0  0  0  0  0  0  0  0
   43.8751    3.6371   12.6518 C   0  0  0  0  0  0  0  0  0  0  0  0
   43.0102    6.1365   11.1951 C   0  0  0  0  0  0  0  0  0  0  0  0
   48.4579    7.7325   14.8024 C   0  0  0  0  0  0  0  0  0  0  0  0
   49.2819    7.1891   12.5961 C   0  0  0  0  0  0  0  0  0  0  0  0
   49.4286    8.7294   14.9180 C   0  0  0  0  0  0  0  0  0  0  0  0
   50.2536    8.1842   12.7144 C   0  0  0  0  0  0  0  0  0  0  0  0
   50.3272    8.9530   13.8755 C   0  0  0  0  0  0  0  0  0  0  0  0
   46.1701    6.3728   13.9950 H   0  0  0  0  0  0  0  0  0  0  0  0
   44.1077    6.4419   13.7187 H   0  0  0  0  0  0  0  0  0  0  0  0
   48.0194    5.4346   12.5404 H   0  0  0  0  0  0  0  0  0  0  0  0
   47.4740    6.6334   11.3611 H   0  0  0  0  0  0  0  0  0  0  0  0
   45.1836    3.1381   10.1732 H   0  0  0  0  0  0  0  0  0  0  0  0
   44.3596    2.9818   11.7168 H   0  0  0  0  0  0  0  0  0  0  0  0
   43.7779    4.1510   10.4780 H   0  0  0  0  0  0  0  0  0  0  0  0
   42.0885    5.4554   13.6322 H   0  0  0  0  0  0  0  0  0  0  0  0
   42.5256    5.5418   11.9243 H   0  0  0  0  0  0  0  0  0  0  0  0
   42.7352    4.0185   12.8480 H   0  0  0  0  0  0  0  0  0  0  0  0
   49.3622    6.1138   14.4389 H   0  0  0  0  0  0  0  0  0  0  0  0
   47.3612    9.0993   12.0556 H   0  0  0  0  0  0  0  0  0  0  0  0
   50.6070    7.8957   15.6133 H   0  0  0  0  0  0  0  0  0  0  0  0
   48.6167   10.8757   13.2426 H   0  0  0  0  0  0  0  0  0  0  0  0
   50.2415   10.2735   15.0179 H   0  0  0  0  0  0  0  0  0  0  0  0
   47.9337    7.2047   14.1014 H   0  0  0  0  0  0  0  0  0  0  0  0
   45.4866    4.9126   12.8149 H   0  0  0  0  0  0  0  0  0  0  0  0
   45.9094    7.3641   13.2460 H   0  0  0  0  0  0  0  0  0  0  0  0
   44.6030    7.3462   11.5862 H   0  0  0  0  0  0  0  0  0  0  0  0
   47.0320    5.5057   14.4881 H   0  0  0  0  0  0  0  0  0  0  0  0
   47.7056    5.0469   12.9199 H   0  0  0  0  0  0  0  0  0  0  0  0
   42.9949    4.0404   13.1604 H   0  0  0  0  0  0  0  0  0  0  0  0
   44.0642    2.6501   13.0904 H   0  0  0  0  0  0  0  0  0  0  0  0
   43.6678    3.4774   11.5896 H   0  0  0  0  0  0  0  0  0  0  0  0
   42.5387    7.0187   10.7437 H   0  0  0  0  0  0  0  0  0  0  0  0
   42.2452    5.6354   11.7915 H   0  0  0  0  0  0  0  0  0  0  0  0
   43.3377    5.4879   10.3776 H   0  0  0  0  0  0  0  0  0  0  0  0
   47.7607    7.5726   15.6217 H   0  0  0  0  0  0  0  0  0  0  0  0
   49.2226    6.6026   11.6805 H   0  0  0  0  0  0  0  0  0  0  0  0
   49.4822    9.3359   15.8202 H   0  0  0  0  0  0  0  0  0  0  0  0
   50.9499    8.3640   11.8992 H   0  0  0  0  0  0  0  0  0  0  0  0
   51.0822    9.7293   13.9670 H   0  0  0  0  0  0  0  0  0  0  0  0
  2  1  2  0
  3  1  1  0
  4  1  1  0
  5  3  1  0
  6  5  1  0
  7  2  1  0
  8  4  1  0
  9  6  2  0
 10  6  1  0
 11  9  1  0
 12 10  2  0
 13 12  1  0
 11 13  2  0
 15 14  2  0
 16 14  2  0
 17 14  1  0
 18 14  1  0
 20 19  2  0
 21 19  1  0
 22 19  1  0
 23 21  1  0
 24 23  1  0
 25 20  1  0
 26 22  1  0
 27 24  2  0
 28 24  1  0
 29 27  1  0
 30 28  2  0
 31 30  1  0
 29 31  2  0
  3 32  1  0
  4 33  1  0
  5 34  1  0
  5 35  1  0
  7 36  1  0
  7 37  1  0
  7 38  1  0
  8 39  1  0
  8 40  1  0
  8 41  1  0
  9 42  1  0
 10 43  1  0
 11 44  1  0
 12 45  1  0
 13 46  1  0
 17 47  1  0
 18 48  1  0
 21 49  1  0
 22 50  1  0
 23 51  1  0
 23 52  1  0
 25 53  1  0
 25 54  1  0
 25 55  1  0
 26 56  1  0
 26 57  1  0
 26 58  1  0
 27 59  1  0
 28 60  1  0
 29 61  1  0
 30 62  1  0
 31 63  1  0
M  END
> <Uni-Dock RESULT> 
ENERGY=   -5.287  LOWER_BOUND=    1.414  UPPER_BOUND=    5.565
INTER + INTRA:          -5.287
INTER:                  -5.287
INTRA:                   0.000
UNBOUND:                 0.000

$$$$

     RDKit          3D

 63 62  0  0  0  0  0  0  0  0999 V2000
   45.1702    5.6938   11.8236 C   0  0  0  0  0  0  0  0  0  0  0  0
   44.1524    6.4666   11.8008 N   0  0  0  0  0  0  0  0  0  0  0  0
   46.3934    6.1797   12.1976 N   0  0  0  0  0  0  0  0  0  0  0  0
   45.3402    4.3680   11.5348 N   0  0  0  0  0  0  0  0  0  0  0  0
   46.5743    7.5930   12.4760 C   0  0  0  0  0  0  0  0  0  0  0  0
   48.0085    7.8399   12.8804 C   0  0  0  0  0  0  0  0  0  0  0  0
   42.8501    6.0274   11.3564 C   0  0  0  0  0  0  0  0  0  0  0  0
   44.2890    3.3785   11.5116 C   0  0  0  0  0  0  0  0  0  0  0  0
   48.9335    8.3531   11.9603 C   0  0  0  0  0  0  0  0  0  0  0  0
   48.4427    7.5249   14.1766 C   0  0  0  0  0  0  0  0  0  0  0  0
   50.2605    8.5669   12.3364 C   0  0  0  0  0  0  0  0  0  0  0  0
   49.7701    7.7388   14.5509 C   0  0  0  0  0  0  0  0  0  0  0  0
   50.6767    8.2629   13.6321 C   0  0  0  0  0  0  0  0  0  0  0  0
   46.5364    6.4419   12.7485 S   0  0  0  0  0  0  0  0  0  0  0  0
   46.5427    7.4488   13.7789 O   0  0  0  0  0  0  0  0  0  0  0  0
   46.7719    5.0452   13.0139 O   0  0  0  0  0  0  0  0  0  0  0  0
   47.6162    6.8953   11.6521 O   0  0  0  0  0  0  0  0  0  0  0  0
   45.1693    6.5410   11.9144 O   0  0  0  0  0  0  0  0  0  0  0  0
   45.2982    5.4280   12.0227 C   0  0  0  0  0  0  0  0  0  0  0  0
   44.8095    5.5370   10.8463 N   0  0  0  0  0  0  0  0  0  0  0  0
   46.3630    6.1992   12.4044 N   0  0  0  0  0  0  0  0  0  0  0  0
   44.9847    4.6413   13.0966 N   0  0  0  0  0  0  0  0  0  0  0  0
   46.9875    7.1098   11.4599 C   0  0  0  0  0  0  0  0  0  0  0  0
   48.1114    7.8411   12.1548 C   0  0  0  0  0  0  0  0  0  0  0  0
   43.7317    4.6983   10.3748 C   0  0  0  0  0  0  0  0  0  0  0  0
   43.7108    3.9969   13.3116 C   0  0  0  0  0  0  0  0  0  0  0  0
   49.4220    7.3419   12.1158 C   0  0  0  0  0  0  0  0  0  0  0  0
   47.8502    9.0062   12.8913 C   0  0  0  0  0  0  0  0  0  0  0  0
   50.4521    8.0040   12.7866 C   0  0  0  0  0  0  0  0  0  0  0  0
   48.8817    9.6686   13.5590 C   0  0  0  0  0  0  0  0  0  0  0  0
   50.1821    9.1679   13.5053 C   0  0  0  0  0  0  0  0  0  0  0  0
   47.1550    5.8001   11.6485 H   0  0  0  0  0  0  0  0  0  0  0  0
   46.1582    4.0098   12.0171 H   0  0  0  0  0  0  0  0  0  0  0  0
   46.3250    8.1927   11.5924 H   0  0  0  0  0  0  0  0  0  0  0  0
   45.9129    7.9148   13.2890 H   0  0  0  0  0  0  0  0  0  0  0  0
   42.1827    6.8969   11.3082 H   0  0  0  0  0  0  0  0  0  0  0  0
   42.8844    5.6036   10.3484 H   0  0  0  0  0  0  0  0  0  0  0  0
   42.3978    5.3200   12.0580 H   0  0  0  0  0  0  0  0  0  0  0  0
   44.7310    2.3792   11.4155 H   0  0  0  0  0  0  0  0  0  0  0  0
   43.7145    3.3931   12.4423 H   0  0  0  0  0  0  0  0  0  0  0  0
   43.6249    3.5179   10.6551 H   0  0  0  0  0  0  0  0  0  0  0  0
   48.6250    8.5927   10.9452 H   0  0  0  0  0  0  0  0  0  0  0  0
   47.7409    7.1102   14.8972 H   0  0  0  0  0  0  0  0  0  0  0  0
   50.9712    8.9718   11.6199 H   0  0  0  0  0  0  0  0  0  0  0  0
   50.0977    7.4955   15.5593 H   0  0  0  0  0  0  0  0  0  0  0  0
   51.7108    8.4293   13.9223 H   0  0  0  0  0  0  0  0  0  0  0  0
   48.4075    7.2183   12.1320 H   0  0  0  0  0  0  0  0  0  0  0  0
   45.2102    5.8767   11.1969 H   0  0  0  0  0  0  0  0  0  0  0  0
   47.0555    5.6603   12.9064 H   0  0  0  0  0  0  0  0  0  0  0  0
   45.3109    5.0859   13.9496 H   0  0  0  0  0  0  0  0  0  0  0  0
   47.3806    6.5602   10.5953 H   0  0  0  0  0  0  0  0  0  0  0  0
   46.2587    7.8364   11.0810 H   0  0  0  0  0  0  0  0  0  0  0  0
   43.9692    3.6352   10.4728 H   0  0  0  0  0  0  0  0  0  0  0  0
   43.5790    4.8867    9.3055 H   0  0  0  0  0  0  0  0  0  0  0  0
   42.7872    4.9306   10.8756 H   0  0  0  0  0  0  0  0  0  0  0  0
   43.6817    3.5746   14.3241 H   0  0  0  0  0  0  0  0  0  0  0  0
   43.5565    3.1696   12.6159 H   0  0  0  0  0  0  0  0  0  0  0  0
   42.8891    4.7145   13.2341 H   0  0  0  0  0  0  0  0  0  0  0  0
   49.6467    6.4324   11.5631 H   0  0  0  0  0  0  0  0  0  0  0  0
   46.8352    9.3963   12.9497 H   0  0  0  0  0  0  0  0  0  0  0  0
   51.4662    7.6100   12.7526 H   0  0  0  0  0  0  0  0  0  0  0  0
   48.6707   10.5720   14.1255 H   0  0  0  0  0  0  0  0  0  0  0  0
   50.9849    9.6822   14.0268 H   0  0  0  0  0  0  0  0  0  0  0  0
  2  1  2  0
  3  1  1  0
  4  1  1  0
  5  3  1  0
  6  5  1  0
  7  2  1  0
  8  4  1  0
  9  6  2  0
 10  6  1  0
 11  9  1  0
 12 10  2  0
 13 12  1  0
 11 13  2  0
 15 14  2  0
 16 14  2  0
 17 14  1  0
 18 14  1  0
 20 19  2  0
 21 19  1  0
 22 19  1  0
 23 21  1  0
 24 23  1  0
 25 20  1  0
 26 22  1  0
 27 24  2  0
 28 24  1  0
 29 27  1  0
 30 28  2  0
 31 30  1  0
 29 31  2  0
  3 32  1  0
  4 33  1  0
  5 34  1  0
  5 35  1  0
  7 36  1  0
  7 37  1  0
  7 38  1  0
  8 39  1  0
  8 40  1  0
  8 41  1  0
  9 42  1  0
 10 43  1  0
 11 44  1  0
 12 45  1  0
 13 46  1  0
 17 47  1  0
 18 48  1  0
 21 49  1  0
 22 50  1  0
 23 51  1  0
 23 52  1  0
 25 53  1  0
 25 54  1  0
 25 55  1  0
 26 56  1  0
 26 57  1  0
 26 58  1  0
 27 59  1  0
 28 60  1  0
 29 61  1  0
 30 62  1  0
 31 63  1  0
M  END
> <Uni-Dock RESULT> 
ENERGY=   -4.980  LOWER_BOUND=    1.396  UPPER_BOUND=    5.567
INTER + INTRA:          -4.980
INTER:                  -4.980
INTRA:                   0.000
UNBOUND:                 0.000

$$$$

     RDKit          3D

 63 62  0  0  0  0  0  0  0  0999 V2000
   50.3685   15.3799   22.0603 C   0  0  0  0  0  0  0  0  0  0  0  0
   51.3921   15.5706   21.3189 N   0  0  0  0  0  0  0  0  0  0  0  0
   49.4853   14.3769   21.7674 N   0  0  0  0  0  0  0  0  0  0  0  0
   49.9045   16.0024   23.1861 N   0  0  0  0  0  0  0  0  0  0  0  0
   49.6410   13.5829   20.5619 C   0  0  0  0  0  0  0  0  0  0  0  0
   48.5444   12.5458   20.5053 C   0  0  0  0  0  0  0  0  0  0  0  0
   52.3252   16.6505   21.5412 C   0  0  0  0  0  0  0  0  0  0  0  0
   50.6999   16.8108   24.0796 C   0  0  0  0  0  0  0  0  0  0  0  0
   47.4132   12.7433   19.7010 C   0  0  0  0  0  0  0  0  0  0  0  0
   48.6282   11.3836   21.2865 C   0  0  0  0  0  0  0  0  0  0  0  0
   46.3971   11.7871   19.6630 C   0  0  0  0  0  0  0  0  0  0  0  0
   47.6111   10.4287   21.2476 C   0  0  0  0  0  0  0  0  0  0  0  0
   46.4986   10.6293   20.4334 C   0  0  0  0  0  0  0  0  0  0  0  0
   49.6164   13.7652   21.7311 S   0  0  0  0  0  0  0  0  0  0  0  0
   50.1734   12.5562   21.1799 O   0  0  0  0  0  0  0  0  0  0  0  0
   49.3061   13.9203   23.1297 O   0  0  0  0  0  0  0  0  0  0  0  0
   48.2655   14.0643   20.9191 O   0  0  0  0  0  0  0  0  0  0  0  0
   50.5300   15.0145   21.3078 O   0  0  0  0  0  0  0  0  0  0  0  0
   50.2942   15.2496   22.3830 C   0  0  0  0  0  0  0  0  0  0  0  0
   50.2777   16.4054   21.8368 N   0  0  0  0  0  0  0  0  0  0  0  0
   49.5989   14.2103   21.8257 N   0  0  0  0  0  0  0  0  0  0  0  0
   50.8949   14.7551   23.5079 N   0  0  0  0  0  0  0  0  0  0  0  0
   48.7875   14.4210   20.6389 C   0  0  0  0  0  0  0  0  0  0  0  0
   48.1592   13.1081   20.2359 C   0  0  0  0  0  0  0  0  0  0  0  0
   50.9386   17.5485   22.4233 C   0  0  0  0  0  0  0  0  0  0  0  0
   52.0381   15.3416   24.1662 C   0  0  0  0  0  0  0  0  0  0  0  0
   46.8864   12.7500   20.7050 C   0  0  0  0  0  0  0  0  0  0  0  0
   48.8626   12.2053   19.4244 C   0  0  0  0  0  0  0  0  0  0  0  0
   46.3229   11.5212   20.3558 C   0  0  0  0  0  0  0  0  0  0  0  0
   48.2967   10.9784   19.0739 C   0  0  0  0  0  0  0  0  0  0  0  0
   47.0269   10.6375   19.5387 C   0  0  0  0  0  0  0  0  0  0  0  0
   48.5205   14.6397   21.9272 H   0  0  0  0  0  0  0  0  0  0  0  0
   49.3073   15.3712   23.7106 H   0  0  0  0  0  0  0  0  0  0  0  0
   49.5980   14.2234   19.6729 H   0  0  0  0  0  0  0  0  0  0  0  0
   50.6132   13.0763   20.5554 H   0  0  0  0  0  0  0  0  0  0  0  0
   53.0361   16.6792   20.7060 H   0  0  0  0  0  0  0  0  0  0  0  0
   51.8261   17.6238   21.5601 H   0  0  0  0  0  0  0  0  0  0  0  0
   52.9130   16.4996   22.4517 H   0  0  0  0  0  0  0  0  0  0  0  0
   50.1155   17.0438   24.9782 H   0  0  0  0  0  0  0  0  0  0  0  0
   51.5961   16.2736   24.4033 H   0  0  0  0  0  0  0  0  0  0  0  0
   50.9751   17.7639   23.6215 H   0  0  0  0  0  0  0  0  0  0  0  0
   47.3180   13.6424   19.0964 H   0  0  0  0  0  0  0  0  0  0  0  0
   49.4919   11.2235   21.9285 H   0  0  0  0  0  0  0  0  0  0  0  0
   45.5256   11.9432   19.0316 H   0  0  0  0  0  0  0  0  0  0  0  0
   47.6859    9.5283   21.8535 H   0  0  0  0  0  0  0  0  0  0  0  0
   45.7057    9.8866   20.4028 H   0  0  0  0  0  0  0  0  0  0  0  0
   47.7913   13.2134   20.8101 H   0  0  0  0  0  0  0  0  0  0  0  0
   50.1067   15.8244   21.6582 H   0  0  0  0  0  0  0  0  0  0  0  0
   49.0966   13.6782   22.5233 H   0  0  0  0  0  0  0  0  0  0  0  0
   51.0090   13.7499   23.4174 H   0  0  0  0  0  0  0  0  0  0  0  0
   48.0036   15.1637   20.8335 H   0  0  0  0  0  0  0  0  0  0  0  0
   49.3997   14.8014   19.8124 H   0  0  0  0  0  0  0  0  0  0  0  0
   50.6079   17.7286   23.4501 H   0  0  0  0  0  0  0  0  0  0  0  0
   50.6733   18.4437   21.8484 H   0  0  0  0  0  0  0  0  0  0  0  0
   52.0277   17.4549   22.3794 H   0  0  0  0  0  0  0  0  0  0  0  0
   52.4105   14.6519   24.9343 H   0  0  0  0  0  0  0  0  0  0  0  0
   51.7760   16.2726   24.6729 H   0  0  0  0  0  0  0  0  0  0  0  0
   52.8543   15.5128   23.4587 H   0  0  0  0  0  0  0  0  0  0  0  0
   46.3275   13.4272   21.3470 H   0  0  0  0  0  0  0  0  0  0  0  0
   49.8602   12.4579   19.0684 H   0  0  0  0  0  0  0  0  0  0  0  0
   45.3354   11.2500   20.7244 H   0  0  0  0  0  0  0  0  0  0  0  0
   48.8479   10.2859   18.4428 H   0  0  0  0  0  0  0  0  0  0  0  0
   46.5870    9.6814   19.2677 H   0  0  0  0  0  0  0  0  0  0  0  0
  2  1  2  0
  3  1  1  0
  4  1  1  0
  5  3  1  0
  6  5  1  0
  7  2  1  0
  8  4  1  0
  9  6  2  0
 10  6  1  0
 11  9  1  0
 12 10  2  0
 13 12  1  0
 11 13  2  0
 15 14  2  0
 16 14  2  0
 17 14  1  0
 18 14  1  0
 20 19  2  0
 21 19  1  0
 22 19  1  0
 23 21  1  0
 24 23  1  0
 25 20  1  0
 26 22  1  0
 27 24  2  0
 28 24  1  0
 29 27  1  0
 30 28  2  0
 31 30  1  0
 29 31  2  0
  3 32  1  0
  4 33  1  0
  5 34  1  0
  5 35  1  0
  7 36  1  0
  7 37  1  0
  7 38  1  0
  8 39  1  0
  8 40  1  0
  8 41  1  0
  9 42  1  0
 10 43  1  0
 11 44  1  0
 12 45  1  0
 13 46  1  0
 17 47  1  0
 18 48  1  0
 21 49  1  0
 22 50  1  0
 23 51  1  0
 23 52  1  0
 25 53  1  0
 25 54  1  0
 25 55  1  0
 26 56  1  0
 26 57  1  0
 26 58  1  0
 27 59  1  0
 28 60  1  0
 29 61  1  0
 30 62  1  0
 31 63  1  0
M  END
> <Uni-Dock RESULT> 
ENERGY=   -4.842  LOWER_BOUND=    9.977  UPPER_BOUND=   12.129
INTER + INTRA:          -4.842
INTER:                  -4.842
INTRA:                   0.000
UNBOUND:                 0.000

$$$$

     RDKit          3D

 63 62  0  0  0  0  0  0  0  0999 V2000
   48.1925    6.8342   18.7358 C   0  0  0  0  0  0  0  0  0  0  0  0
   48.3734    6.0423   19.7227 N   0  0  0  0  0  0  0  0  0  0  0  0
   48.0606    8.1792   18.9495 N   0  0  0  0  0  0  0  0  0  0  0  0
   48.0907    6.6338   17.3869 N   0  0  0  0  0  0  0  0  0  0  0  0
   48.0237    8.7136   20.2989 C   0  0  0  0  0  0  0  0  0  0  0  0
   47.8913   10.2169   20.2341 C   0  0  0  0  0  0  0  0  0  0  0  0
   48.4578    4.6088   19.5665 C   0  0  0  0  0  0  0  0  0  0  0  0
   48.5774    5.4745   16.6773 C   0  0  0  0  0  0  0  0  0  0  0  0
   46.6478   10.8349   20.4271 C   0  0  0  0  0  0  0  0  0  0  0  0
   49.0087   11.0140   19.9446 C   0  0  0  0  0  0  0  0  0  0  0  0
   46.5295   12.2238   20.3532 C   0  0  0  0  0  0  0  0  0  0  0  0
   48.8886   12.4026   19.8705 C   0  0  0  0  0  0  0  0  0  0  0  0
   47.6505   13.0063   20.0785 C   0  0  0  0  0  0  0  0  0  0  0  0
   48.4826    8.5557   19.2194 S   0  0  0  0  0  0  0  0  0  0  0  0
   49.2704    9.1195   20.2856 O   0  0  0  0  0  0  0  0  0  0  0  0
   48.8869    8.5985   17.8369 O   0  0  0  0  0  0  0  0  0  0  0  0
   47.0345    9.2414   19.3017 O   0  0  0  0  0  0  0  0  0  0  0  0
   48.1352    7.0275   19.5637 O   0  0  0  0  0  0  0  0  0  0  0  0
   48.3806    6.9711   18.4666 C   0  0  0  0  0  0  0  0  0  0  0  0
   47.4270    6.1272   18.5807 N   0  0  0  0  0  0  0  0  0  0  0  0
   48.2596    8.2285   18.9945 N   0  0  0  0  0  0  0  0  0  0  0  0
   49.6139    6.9150   17.8779 N   0  0  0  0  0  0  0  0  0  0  0  0
   47.0246    8.6388   19.6408 C   0  0  0  0  0  0  0  0  0  0  0  0
   47.1824   10.0537   20.1447 C   0  0  0  0  0  0  0  0  0  0  0  0
   47.4800    4.8132   17.9824 C   0  0  0  0  0  0  0  0  0  0  0  0
   50.3370    5.7023   17.5767 C   0  0  0  0  0  0  0  0  0  0  0  0
   46.8029   11.1439   19.3473 C   0  0  0  0  0  0  0  0  0  0  0  0
   47.7575   10.2988   21.4007 C   0  0  0  0  0  0  0  0  0  0  0  0
   46.9803   12.4513   19.8044 C   0  0  0  0  0  0  0  0  0  0  0  0
   47.9316   11.6063   21.8573 C   0  0  0  0  0  0  0  0  0  0  0  0
   47.5419   12.6817   21.0596 C   0  0  0  0  0  0  0  0  0  0  0  0
   47.3651    8.6087   18.3517 H   0  0  0  0  0  0  0  0  0  0  0  0
   48.3330    7.4851   16.8903 H   0  0  0  0  0  0  0  0  0  0  0  0
   47.1822    8.2865   20.8574 H   0  0  0  0  0  0  0  0  0  0  0  0
   48.9416    8.4584   20.8412 H   0  0  0  0  0  0  0  0  0  0  0  0
   48.4846    4.1471   20.5614 H   0  0  0  0  0  0  0  0  0  0  0  0
   47.5798    4.2015   19.0566 H   0  0  0  0  0  0  0  0  0  0  0  0
   49.3766    4.3088   19.0537 H   0  0  0  0  0  0  0  0  0  0  0  0
   48.5115    5.6539   15.5972 H   0  0  0  0  0  0  0  0  0  0  0  0
   49.6282    5.2818   16.9126 H   0  0  0  0  0  0  0  0  0  0  0  0
   47.9735    4.5894   16.8916 H   0  0  0  0  0  0  0  0  0  0  0  0
   45.7636   10.2381   20.6395 H   0  0  0  0  0  0  0  0  0  0  0  0
   49.9773   10.5483   19.7758 H   0  0  0  0  0  0  0  0  0  0  0  0
   45.5634   12.6973   20.5108 H   0  0  0  0  0  0  0  0  0  0  0  0
   49.7609   13.0137   19.6494 H   0  0  0  0  0  0  0  0  0  0  0  0
   47.5557   14.0875   20.0205 H   0  0  0  0  0  0  0  0  0  0  0  0
   47.1691   10.1976   19.4700 H   0  0  0  0  0  0  0  0  0  0  0  0
   47.5657    6.6833   18.8461 H   0  0  0  0  0  0  0  0  0  0  0  0
   48.5914    8.9374   18.3546 H   0  0  0  0  0  0  0  0  0  0  0  0
   50.2267    7.6012   18.3083 H   0  0  0  0  0  0  0  0  0  0  0  0
   46.1842    8.5867   18.9372 H   0  0  0  0  0  0  0  0  0  0  0  0
   46.7877    7.9762   20.4820 H   0  0  0  0  0  0  0  0  0  0  0  0
   47.6721    4.8622   16.9068 H   0  0  0  0  0  0  0  0  0  0  0  0
   46.5033    4.3300   18.1034 H   0  0  0  0  0  0  0  0  0  0  0  0
   48.2148    4.1710   18.4768 H   0  0  0  0  0  0  0  0  0  0  0  0
   51.3594    5.9543   17.2674 H   0  0  0  0  0  0  0  0  0  0  0  0
   49.8787    5.1561   16.7498 H   0  0  0  0  0  0  0  0  0  0  0  0
   50.4123    5.0600   18.4587 H   0  0  0  0  0  0  0  0  0  0  0  0
   46.3679   10.9796   18.3641 H   0  0  0  0  0  0  0  0  0  0  0  0
   48.0771    9.4652   22.0242 H   0  0  0  0  0  0  0  0  0  0  0  0
   46.6843   13.2919   19.1795 H   0  0  0  0  0  0  0  0  0  0  0  0
   48.3760   11.7869   22.8328 H   0  0  0  0  0  0  0  0  0  0  0  0
   47.6794   13.6998   21.4139 H   0  0  0  0  0  0  0  0  0  0  0  0
  2  1  2  0
  3  1  1  0
  4  1  1  0
  5  3  1  0
  6  5  1  0
  7  2  1  0
  8  4  1  0
  9  6  2  0
 10  6  1  0
 11  9  1  0
 12 10  2  0
 13 12  1  0
 11 13  2  0
 15 14  2  0
 16 14  2  0
 17 14  1  0
 18 14  1  0
 20 19  2  0
 21 19  1  0
 22 19  1  0
 23 21  1  0
 24 23  1  0
 25 20  1  0
 26 22  1  0
 27 24  2  0
 28 24  1  0
 29 27  1  0
 30 28  2  0
 31 30  1  0
 29 31  2  0
  3 32  1  0
  4 33  1  0
  5 34  1  0
  5 35  1  0
  7 36  1  0
  7 37  1  0
  7 38  1  0
  8 39  1  0
  8 40  1  0
  8 41  1  0
  9 42  1  0
 10 43  1  0
 11 44  1  0
 12 45  1  0
 13 46  1  0
 17 47  1  0
 18 48  1  0
 21 49  1  0
 22 50  1  0
 23 51  1  0
 23 52  1  0
 25 53  1  0
 25 54  1  0
 25 55  1  0
 26 56  1  0
 26 57  1  0
 26 58  1  0
 27 59  1  0
 28 60  1  0
 29 61  1  0
 30 62  1  0
 31 63  1  0
M  END
> <Uni-Dock RESULT> 
ENERGY=   -4.486  LOWER_BOUND=    5.783  UPPER_BOUND=    8.933
INTER + INTRA:          -4.486
INTER:                  -4.486
INTRA:                   0.000
UNBOUND:                 0.000

$$$$

     RDKit          3D

 63 62  0  0  0  0  0  0  0  0999 V2000
   53.0166    6.1987   17.1476 C   0  0  0  0  0  0  0  0  0  0  0  0
   53.5437    6.4758   18.2785 N   0  0  0  0  0  0  0  0  0  0  0  0
   51.7894    5.5964   17.0907 N   0  0  0  0  0  0  0  0  0  0  0  0
   53.4306    6.3808   15.8570 N   0  0  0  0  0  0  0  0  0  0  0  0
   51.1156    5.1743   18.3055 C   0  0  0  0  0  0  0  0  0  0  0  0
   49.7820    4.5626   17.9467 C   0  0  0  0  0  0  0  0  0  0  0  0
   54.8613    7.0543   18.4036 C   0  0  0  0  0  0  0  0  0  0  0  0
   54.4316    7.3289   15.4285 C   0  0  0  0  0  0  0  0  0  0  0  0
   49.6228    3.1705   17.8988 C   0  0  0  0  0  0  0  0  0  0  0  0
   48.6914    5.3828   17.6219 C   0  0  0  0  0  0  0  0  0  0  0  0
   48.3913    2.6112   17.5539 C   0  0  0  0  0  0  0  0  0  0  0  0
   47.4608    4.8220   17.2767 C   0  0  0  0  0  0  0  0  0  0  0  0
   47.3108    3.4373   17.2467 C   0  0  0  0  0  0  0  0  0  0  0  0
   51.2536    5.8220   17.3245 S   0  0  0  0  0  0  0  0  0  0  0  0
   50.3014    6.2017   18.3368 O   0  0  0  0  0  0  0  0  0  0  0  0
   51.2686    6.3995   16.0043 O   0  0  0  0  0  0  0  0  0  0  0  0
   51.1199    4.2344   17.1359 O   0  0  0  0  0  0  0  0  0  0  0  0
   52.7399    5.9522   17.9148 O   0  0  0  0  0  0  0  0  0  0  0  0
   52.8620    6.3702   16.8768 C   0  0  0  0  0  0  0  0  0  0  0  0
   53.9630    5.7452   17.0549 N   0  0  0  0  0  0  0  0  0  0  0  0
   51.6670    5.7581   17.1446 N   0  0  0  0  0  0  0  0  0  0  0  0
   52.5619    7.6281   16.4314 N   0  0  0  0  0  0  0  0  0  0  0  0
   51.6321    4.3722   17.5798 C   0  0  0  0  0  0  0  0  0  0  0  0
   50.1963    3.9711   17.8214 C   0  0  0  0  0  0  0  0  0  0  0  0
   55.2444    6.3238   16.7223 C   0  0  0  0  0  0  0  0  0  0  0  0
   53.4703    8.7502   16.4349 C   0  0  0  0  0  0  0  0  0  0  0  0
   49.4366    3.3806   16.8003 C   0  0  0  0  0  0  0  0  0  0  0  0
   49.5869    4.2290   19.0585 C   0  0  0  0  0  0  0  0  0  0  0  0
   48.1000    3.0407   17.0183 C   0  0  0  0  0  0  0  0  0  0  0  0
   48.2514    3.8860   19.2758 C   0  0  0  0  0  0  0  0  0  0  0  0
   47.5091    3.2910   18.2561 C   0  0  0  0  0  0  0  0  0  0  0  0
   51.7237    4.9001   16.3583 H   0  0  0  0  0  0  0  0  0  0  0  0
   52.6289    6.4011   15.2349 H   0  0  0  0  0  0  0  0  0  0  0  0
   51.7282    4.4461   18.8503 H   0  0  0  0  0  0  0  0  0  0  0  0
   50.9495    6.0285   18.9723 H   0  0  0  0  0  0  0  0  0  0  0  0
   55.1365    7.0773   19.4654 H   0  0  0  0  0  0  0  0  0  0  0  0
   55.6212    6.4520   17.8970 H   0  0  0  0  0  0  0  0  0  0  0  0
   54.8871    8.0886   18.0477 H   0  0  0  0  0  0  0  0  0  0  0  0
   54.4434    7.3765   14.3327 H   0  0  0  0  0  0  0  0  0  0  0  0
   54.2045    8.3337   15.7964 H   0  0  0  0  0  0  0  0  0  0  0  0
   55.4327    7.0272   15.7460 H   0  0  0  0  0  0  0  0  0  0  0  0
   50.4568    2.5127   18.1330 H   0  0  0  0  0  0  0  0  0  0  0  0
   48.8035    6.4649   17.6382 H   0  0  0  0  0  0  0  0  0  0  0  0
   48.2727    1.5306   17.5254 H   0  0  0  0  0  0  0  0  0  0  0  0
   46.6190    5.4653   17.0301 H   0  0  0  0  0  0  0  0  0  0  0  0
   46.3531    2.9994   16.9775 H   0  0  0  0  0  0  0  0  0  0  0  0
   50.1644    4.0162   17.1336 H   0  0  0  0  0  0  0  0  0  0  0  0
   53.3620    5.6484   17.2231 H   0  0  0  0  0  0  0  0  0  0  0  0
   50.9858    5.9314   16.4181 H   0  0  0  0  0  0  0  0  0  0  0  0
   51.6494    7.9034   16.7823 H   0  0  0  0  0  0  0  0  0  0  0  0
   52.0779    3.7174   16.8205 H   0  0  0  0  0  0  0  0  0  0  0  0
   52.2081    4.2405   18.5035 H   0  0  0  0  0  0  0  0  0  0  0  0
   55.2850    6.6540   15.6804 H   0  0  0  0  0  0  0  0  0  0  0  0
   56.0192    5.5564   16.8369 H   0  0  0  0  0  0  0  0  0  0  0  0
   55.5077    7.1433   17.3974 H   0  0  0  0  0  0  0  0  0  0  0  0
   52.9201    9.6659   16.1842 H   0  0  0  0  0  0  0  0  0  0  0  0
   54.2554    8.6338   15.6851 H   0  0  0  0  0  0  0  0  0  0  0  0
   53.9115    8.8958   17.4251 H   0  0  0  0  0  0  0  0  0  0  0  0
   49.8828    3.1837   15.8281 H   0  0  0  0  0  0  0  0  0  0  0  0
   50.1555    4.7057   19.8556 H   0  0  0  0  0  0  0  0  0  0  0  0
   47.5168    2.5838   16.2209 H   0  0  0  0  0  0  0  0  0  0  0  0
   47.7880    4.0874   20.2382 H   0  0  0  0  0  0  0  0  0  0  0  0
   46.4687    3.0259   18.4243 H   0  0  0  0  0  0  0  0  0  0  0  0
  2  1  2  0
  3  1  1  0
  4  1  1  0
  5  3  1  0
  6  5  1  0
  7  2  1  0
  8  4  1  0
  9  6  2  0
 10  6  1  0
 11  9  1  0
 12 10  2  0
 13 12  1  0
 11 13  2  0
 15 14  2  0
 16 14  2  0
 17 14  1  0
 18 14  1  0
 20 19  2  0
 21 19  1  0
 22 19  1  0
 23 21  1  0
 24 23  1  0
 25 20  1  0
 26 22  1  0
 27 24  2  0
 28 24  1  0
 29 27  1  0
 30 28  2  0
 31 30  1  0
 29 31  2  0
  3 32  1  0
  4 33  1  0
  5 34  1  0
  5 35  1  0
  7 36  1  0
  7 37  1  0
  7 38  1  0
  8 39  1  0
  8 40  1  0
  8 41  1  0
  9 42  1  0
 10 43  1  0
 11 44  1  0
 12 45  1  0
 13 46  1  0
 17 47  1  0
 18 48  1  0
 21 49  1  0
 22 50  1  0
 23 51  1  0
 23 52  1  0
 25 53  1  0
 25 54  1  0
 25 55  1  0
 26 56  1  0
 26 57  1  0
 26 58  1  0
 27 59  1  0
 28 60  1  0
 29 61  1  0
 30 62  1  0
 31 63  1  0
M  END
> <Uni-Dock RESULT> 
ENERGY=   -4.412  LOWER_BOUND=    5.842  UPPER_BOUND=    6.978
INTER + INTRA:          -4.412
INTER:                  -4.412
INTRA:                   0.000
UNBOUND:                 0.000

$$$$

     RDKit          3D

 63 62  0  0  0  0  0  0  0  0999 V2000
   53.4288    4.9467   18.1943 C   0  0  0  0  0  0  0  0  0  0  0  0
   53.6457    5.1904   19.4301 N   0  0  0  0  0  0  0  0  0  0  0  0
   52.1574    4.6930   17.7570 N   0  0  0  0  0  0  0  0  0  0  0  0
   54.2475    4.8735   17.1013 N   0  0  0  0  0  0  0  0  0  0  0  0
   51.0564    4.5981   18.6986 C   0  0  0  0  0  0  0  0  0  0  0  0
   49.7769    4.3319   17.9414 C   0  0  0  0  0  0  0  0  0  0  0  0
   54.9718    5.4043   19.9613 C   0  0  0  0  0  0  0  0  0  0  0  0
   55.5595    5.4676   17.0013 C   0  0  0  0  0  0  0  0  0  0  0  0
   49.2460    3.0365   17.8661 C   0  0  0  0  0  0  0  0  0  0  0  0
   49.1202    5.3754   17.2723 C   0  0  0  0  0  0  0  0  0  0  0  0
   48.0702    2.7946   17.1539 C   0  0  0  0  0  0  0  0  0  0  0  0
   47.9448    5.1318   16.5602 C   0  0  0  0  0  0  0  0  0  0  0  0
   47.4189    3.8429   16.5047 C   0  0  0  0  0  0  0  0  0  0  0  0
   51.6648    5.0774   17.8036 S   0  0  0  0  0  0  0  0  0  0  0  0
   50.6029    5.8035   18.4523 O   0  0  0  0  0  0  0  0  0  0  0  0
   52.2437    5.4867   16.5491 O   0  0  0  0  0  0  0  0  0  0  0  0
   51.1433    3.5731   17.6062 O   0  0  0  0  0  0  0  0  0  0  0  0
   52.8745    4.8661   18.8363 O   0  0  0  0  0  0  0  0  0  0  0  0
   53.4195    5.1238   17.8858 C   0  0  0  0  0  0  0  0  0  0  0  0
   54.1862    4.2489   18.4161 N   0  0  0  0  0  0  0  0  0  0  0  0
   52.0765    4.8864   17.7664 N   0  0  0  0  0  0  0  0  0  0  0  0
   53.6435    6.3616   17.3487 N   0  0  0  0  0  0  0  0  0  0  0  0
   51.5142    3.6148   18.1884 C   0  0  0  0  0  0  0  0  0  0  0  0
   50.0209    3.6412   17.9641 C   0  0  0  0  0  0  0  0  0  0  0  0
   55.6178    4.4241   18.5022 C   0  0  0  0  0  0  0  0  0  0  0  0
   54.7910    7.1928   17.6257 C   0  0  0  0  0  0  0  0  0  0  0  0
   49.4693    3.1714   16.7627 C   0  0  0  0  0  0  0  0  0  0  0  0
   49.1675    4.1824   18.9372 C   0  0  0  0  0  0  0  0  0  0  0  0
   48.0910    3.2274   16.5468 C   0  0  0  0  0  0  0  0  0  0  0  0
   47.7895    4.2350   18.7211 C   0  0  0  0  0  0  0  0  0  0  0  0
   47.2519    3.7565   17.5266 C   0  0  0  0  0  0  0  0  0  0  0  0
   52.1186    3.9664   17.0527 H   0  0  0  0  0  0  0  0  0  0  0  0
   53.7128    5.0421   16.2553 H   0  0  0  0  0  0  0  0  0  0  0  0
   51.2388    3.7942   19.4217 H   0  0  0  0  0  0  0  0  0  0  0  0
   50.9498    5.5311   19.2643 H   0  0  0  0  0  0  0  0  0  0  0  0
   54.9075    5.4649   21.0550 H   0  0  0  0  0  0  0  0  0  0  0  0
   55.6420    4.5703   19.7336 H   0  0  0  0  0  0  0  0  0  0  0  0
   55.4005    6.3501   19.6168 H   0  0  0  0  0  0  0  0  0  0  0  0
   55.9151    5.3940   15.9663 H   0  0  0  0  0  0  0  0  0  0  0  0
   55.5312    6.5296   17.2620 H   0  0  0  0  0  0  0  0  0  0  0  0
   56.2865    4.9439   17.6269 H   0  0  0  0  0  0  0  0  0  0  0  0
   49.7437    2.2079   18.3647 H   0  0  0  0  0  0  0  0  0  0  0  0
   49.5286    6.3832   17.3073 H   0  0  0  0  0  0  0  0  0  0  0  0
   47.6599    1.7888   17.1053 H   0  0  0  0  0  0  0  0  0  0  0  0
   47.4395    5.9474   16.0476 H   0  0  0  0  0  0  0  0  0  0  0  0
   46.5040    3.6519   15.9500 H   0  0  0  0  0  0  0  0  0  0  0  0
   50.2128    3.6201   17.3017 H   0  0  0  0  0  0  0  0  0  0  0  0
   53.5614    4.3352   18.3846 H   0  0  0  0  0  0  0  0  0  0  0  0
   51.7269    5.1581   16.8576 H   0  0  0  0  0  0  0  0  0  0  0  0
   52.7875    6.9070   17.3851 H   0  0  0  0  0  0  0  0  0  0  0  0
   51.9603    2.7878   17.6217 H   0  0  0  0  0  0  0  0  0  0  0  0
   51.7206    3.4319   19.2498 H   0  0  0  0  0  0  0  0  0  0  0  0
   56.0646    4.6192   17.5231 H   0  0  0  0  0  0  0  0  0  0  0  0
   56.0663    3.4938   18.8702 H   0  0  0  0  0  0  0  0  0  0  0  0
   55.8889    5.2098   19.2136 H   0  0  0  0  0  0  0  0  0  0  0  0
   54.6303    8.1907   17.1983 H   0  0  0  0  0  0  0  0  0  0  0  0
   55.6975    6.7916   17.1683 H   0  0  0  0  0  0  0  0  0  0  0  0
   54.9345    7.3188   18.7027 H   0  0  0  0  0  0  0  0  0  0  0  0
   50.1120    2.7603   15.9875 H   0  0  0  0  0  0  0  0  0  0  0  0
   49.5805    4.5708   19.8670 H   0  0  0  0  0  0  0  0  0  0  0  0
   47.6705    2.8618   15.6118 H   0  0  0  0  0  0  0  0  0  0  0  0
   47.1355    4.6541   19.4815 H   0  0  0  0  0  0  0  0  0  0  0  0
   46.1793    3.7994   17.3572 H   0  0  0  0  0  0  0  0  0  0  0  0
  2  1  2  0
  3  1  1  0
  4  1  1  0
  5  3  1  0
  6  5  1  0
  7  2  1  0
  8  4  1  0
  9  6  2  0
 10  6  1  0
 11  9  1  0
 12 10  2  0
 13 12  1  0
 11 13  2  0
 15 14  2  0
 16 14  2  0
 17 14  1  0
 18 14  1  0
 20 19  2  0
 21 19  1  0
 22 19  1  0
 23 21  1  0
 24 23  1  0
 25 20  1  0
 26 22  1  0
 27 24  2  0
 28 24  1  0
 29 27  1  0
 30 28  2  0
 31 30  1  0
 29 31  2  0
  3 32  1  0
  4 33  1  0
  5 34  1  0
  5 35  1  0
  7 36  1  0
  7 37  1  0
  7 38  1  0
  8 39  1  0
  8 40  1  0
  8 41  1  0
  9 42  1  0
 10 43  1  0
 11 44  1  0
 12 45  1  0
 13 46  1  0
 17 47  1  0
 18 48  1  0
 21 49  1  0
 22 50  1  0
 23 51  1  0
 23 52  1  0
 25 53  1  0
 25 54  1  0
 25 55  1  0
 26 56  1  0
 26 57  1  0
 26 58  1  0
 27 59  1  0
 28 60  1  0
 29 61  1  0
 30 62  1  0
 31 63  1  0
M  END
> <Uni-Dock RESULT> 
ENERGY=   -4.412  LOWER_BOUND=    6.072  UPPER_BOUND=    7.539
INTER + INTRA:          -4.412
INTER:                  -4.412
INTRA:                   0.000
UNBOUND:                 0.000

$$$$

     RDKit          3D

 63 62  0  0  0  0  0  0  0  0999 V2000
   48.1315    8.9073   19.0913 C   0  0  0  0  0  0  0  0  0  0  0  0
   49.2665    9.4861   18.9896 N   0  0  0  0  0  0  0  0  0  0  0  0
   48.0112    7.5754   18.8023 N   0  0  0  0  0  0  0  0  0  0  0  0
   46.8898    9.3487   19.4568 N   0  0  0  0  0  0  0  0  0  0  0  0
   49.1412    6.8263   18.2827 C   0  0  0  0  0  0  0  0  0  0  0  0
   48.7299    5.3879   18.0746 C   0  0  0  0  0  0  0  0  0  0  0  0
   49.4435   10.9009   19.2210 C   0  0  0  0  0  0  0  0  0  0  0  0
   46.6223   10.5376   20.2311 C   0  0  0  0  0  0  0  0  0  0  0  0
   48.3940    4.9170   16.7975 C   0  0  0  0  0  0  0  0  0  0  0  0
   48.6451    4.5108   19.1661 C   0  0  0  0  0  0  0  0  0  0  0  0
   48.0022    3.5900   16.6136 C   0  0  0  0  0  0  0  0  0  0  0  0
   48.2527    3.1843   18.9807 C   0  0  0  0  0  0  0  0  0  0  0  0
   47.9353    2.7242   17.7046 C   0  0  0  0  0  0  0  0  0  0  0  0
   48.3154    7.1052   19.0835 S   0  0  0  0  0  0  0  0  0  0  0  0
   49.4336    6.2663   19.4318 O   0  0  0  0  0  0  0  0  0  0  0  0
   47.1502    7.2477   19.9193 O   0  0  0  0  0  0  0  0  0  0  0  0
   47.7992    6.6146   17.6459 O   0  0  0  0  0  0  0  0  0  0  0  0
   48.8416    8.5837   18.7494 O   0  0  0  0  0  0  0  0  0  0  0  0
   47.9121    8.7949   19.3480 C   0  0  0  0  0  0  0  0  0  0  0  0
   47.8948    9.7260   18.4719 N   0  0  0  0  0  0  0  0  0  0  0  0
   48.1047    7.4929   18.9711 N   0  0  0  0  0  0  0  0  0  0  0  0
   47.7619    8.7868   20.7074 N   0  0  0  0  0  0  0  0  0  0  0  0
   48.2349    7.1457   17.5662 C   0  0  0  0  0  0  0  0  0  0  0  0
   48.4597    5.6569   17.4487 C   0  0  0  0  0  0  0  0  0  0  0  0
   47.6273   11.1044   18.8121 C   0  0  0  0  0  0  0  0  0  0  0  0
   47.9578    9.9260   21.5724 C   0  0  0  0  0  0  0  0  0  0  0  0
   47.3770    4.7808   17.2798 C   0  0  0  0  0  0  0  0  0  0  0  0
   49.7534    5.1248   17.5562 C   0  0  0  0  0  0  0  0  0  0  0  0
   47.5867    3.4024   17.2038 C   0  0  0  0  0  0  0  0  0  0  0  0
   49.9616    3.7468   17.4771 C   0  0  0  0  0  0  0  0  0  0  0  0
   48.8785    2.8866   17.2999 C   0  0  0  0  0  0  0  0  0  0  0  0
   47.1514    7.3517   18.3162 H   0  0  0  0  0  0  0  0  0  0  0  0
   46.3291    8.5711   19.7899 H   0  0  0  0  0  0  0  0  0  0  0  0
   49.4851    7.2590   17.3358 H   0  0  0  0  0  0  0  0  0  0  0  0
   49.9828    6.8597   18.9844 H   0  0  0  0  0  0  0  0  0  0  0  0
   50.4699   11.1766   18.9487 H   0  0  0  0  0  0  0  0  0  0  0  0
   48.7809   11.5032   18.5925 H   0  0  0  0  0  0  0  0  0  0  0  0
   49.3159   11.1597   20.2764 H   0  0  0  0  0  0  0  0  0  0  0  0
   45.5629   10.5573   20.5147 H   0  0  0  0  0  0  0  0  0  0  0  0
   47.2077   10.5451   21.1551 H   0  0  0  0  0  0  0  0  0  0  0  0
   46.8154   11.4450   19.6537 H   0  0  0  0  0  0  0  0  0  0  0  0
   48.4385    5.5807   15.9369 H   0  0  0  0  0  0  0  0  0  0  0  0
   48.8864    4.8654   20.1660 H   0  0  0  0  0  0  0  0  0  0  0  0
   47.7497    3.2295   15.6193 H   0  0  0  0  0  0  0  0  0  0  0  0
   48.1934    2.5097   19.8320 H   0  0  0  0  0  0  0  0  0  0  0  0
   47.6291    1.6916   17.5591 H   0  0  0  0  0  0  0  0  0  0  0  0
   47.8001    5.6344   17.6499 H   0  0  0  0  0  0  0  0  0  0  0  0
   48.0695    9.1191   18.4756 H   0  0  0  0  0  0  0  0  0  0  0  0
   47.4685    6.8671   19.4459 H   0  0  0  0  0  0  0  0  0  0  0  0
   48.2106    7.9613   21.0932 H   0  0  0  0  0  0  0  0  0  0  0  0
   47.3311    7.4297   17.0125 H   0  0  0  0  0  0  0  0  0  0  0  0
   49.0779    7.6791   17.1108 H   0  0  0  0  0  0  0  0  0  0  0  0
   46.6793   11.2163   19.3460 H   0  0  0  0  0  0  0  0  0  0  0  0
   47.5348   11.6853   17.8868 H   0  0  0  0  0  0  0  0  0  0  0  0
   48.4473   11.5482   19.3843 H   0  0  0  0  0  0  0  0  0  0  0  0
   47.9376    9.5971   22.6192 H   0  0  0  0  0  0  0  0  0  0  0  0
   47.1606   10.6625   21.4535 H   0  0  0  0  0  0  0  0  0  0  0  0
   48.9319   10.3910   21.3957 H   0  0  0  0  0  0  0  0  0  0  0  0
   46.3633    5.1684   17.2081 H   0  0  0  0  0  0  0  0  0  0  0  0
   50.6032    5.7885   17.7084 H   0  0  0  0  0  0  0  0  0  0  0  0
   46.7416    2.7290   17.0737 H   0  0  0  0  0  0  0  0  0  0  0  0
   50.9677    3.3434   17.5592 H   0  0  0  0  0  0  0  0  0  0  0  0
   49.0401    1.8136   17.2405 H   0  0  0  0  0  0  0  0  0  0  0  0
  2  1  2  0
  3  1  1  0
  4  1  1  0
  5  3  1  0
  6  5  1  0
  7  2  1  0
  8  4  1  0
  9  6  2  0
 10  6  1  0
 11  9  1  0
 12 10  2  0
 13 12  1  0
 11 13  2  0
 15 14  2  0
 16 14  2  0
 17 14  1  0
 18 14  1  0
 20 19  2  0
 21 19  1  0
 22 19  1  0
 23 21  1  0
 24 23  1  0
 25 20  1  0
 26 22  1  0
 27 24  2  0
 28 24  1  0
 29 27  1  0
 30 28  2  0
 31 30  1  0
 29 31  2  0
  3 32  1  0
  4 33  1  0
  5 34  1  0
  5 35  1  0
  7 36  1  0
  7 37  1  0
  7 38  1  0
  8 39  1  0
  8 40  1  0
  8 41  1  0
  9 42  1  0
 10 43  1  0
 11 44  1  0
 12 45  1  0
 13 46  1  0
 17 47  1  0
 18 48  1  0
 21 49  1  0
 22 50  1  0
 23 51  1  0
 23 52  1  0
 25 53  1  0
 25 54  1  0
 25 55  1  0
 26 56  1  0
 26 57  1  0
 26 58  1  0
 27 59  1  0
 28 60  1  0
 29 61  1  0
 30 62  1  0
 31 63  1  0
M  END
> <Uni-Dock RESULT> 
ENERGY=   -4.374  LOWER_BOUND=    5.675  UPPER_BOUND=    7.044
INTER + INTRA:          -4.374
INTER:                  -4.374
INTRA:                   0.000
UNBOUND:                 0.000

$$$$
