
     RDKit          3D

 63 62  0  0  0  0  0  0  0  0999 V2000
   44.6957    4.2831   10.9877 C   0  0  0  0  0  0  0  0  0  0  0  0
   43.4712    3.9714   11.1833 N   0  0  0  0  0  0  0  0  0  0  0  0
   45.3652    3.8034    9.8944 N   0  0  0  0  0  0  0  0  0  0  0  0
   45.5863    5.0533   11.6824 N   0  0  0  0  0  0  0  0  0  0  0  0
   44.7298    2.8523    8.9980 C   0  0  0  0  0  0  0  0  0  0  0  0
   45.7006    2.4832    7.9006 C   0  0  0  0  0  0  0  0  0  0  0  0
   42.7342    4.4039   12.3477 C   0  0  0  0  0  0  0  0  0  0  0  0
   45.2515    6.0296   12.6901 C   0  0  0  0  0  0  0  0  0  0  0  0
   46.3793    1.2567    7.9268 C   0  0  0  0  0  0  0  0  0  0  0  0
   45.9616    3.3813    6.8548 C   0  0  0  0  0  0  0  0  0  0  0  0
   47.2885    0.9299    6.9191 C   0  0  0  0  0  0  0  0  0  0  0  0
   46.8715    3.0531    5.8490 C   0  0  0  0  0  0  0  0  0  0  0  0
   47.5332    1.8270    5.8809 C   0  0  0  0  0  0  0  0  0  0  0  0
   44.9285    3.6499    9.6834 S   0  0  0  0  0  0  0  0  0  0  0  0
   44.0136    2.5383    9.6371 O   0  0  0  0  0  0  0  0  0  0  0  0
   44.5572    4.9787   10.0982 O   0  0  0  0  0  0  0  0  0  0  0  0
   46.1885    3.2300   10.5830 O   0  0  0  0  0  0  0  0  0  0  0  0
   45.6033    3.7435    8.2309 O   0  0  0  0  0  0  0  0  0  0  0  0
   46.2371    2.6798    8.3794 C   0  0  0  0  0  0  0  0  0  0  0  0
   45.9697    1.4295    8.3871 N   0  0  0  0  0  0  0  0  0  0  0  0
   45.6154    3.5249    9.2587 N   0  0  0  0  0  0  0  0  0  0  0  0
   47.0848    3.4500    7.6334 N   0  0  0  0  0  0  0  0  0  0  0  0
   44.7268    3.0009   10.2816 C   0  0  0  0  0  0  0  0  0  0  0  0
   44.1981    4.1480   11.1107 C   0  0  0  0  0  0  0  0  0  0  0  0
   46.6358    0.4859    7.5198 C   0  0  0  0  0  0  0  0  0  0  0  0
   47.6857    3.0728    6.3782 C   0  0  0  0  0  0  0  0  0  0  0  0
   43.1890    4.9809   10.6039 C   0  0  0  0  0  0  0  0  0  0  0  0
   44.7298    4.4199   12.3792 C   0  0  0  0  0  0  0  0  0  0  0  0
   42.7109    6.0535   11.3577 C   0  0  0  0  0  0  0  0  0  0  0  0
   44.2503    5.4937   13.1314 C   0  0  0  0  0  0  0  0  0  0  0  0
   43.2407    6.3087   12.6210 C   0  0  0  0  0  0  0  0  0  0  0  0
   46.3134    3.5260   10.1163 H   0  0  0  0  0  0  0  0  0  0  0  0
   46.2983    5.4102   11.0539 H   0  0  0  0  0  0  0  0  0  0  0  0
   44.4263    1.9524    9.5473 H   0  0  0  0  0  0  0  0  0  0  0  0
   43.8266    3.2834    8.5493 H   0  0  0  0  0  0  0  0  0  0  0  0
   43.2152    4.0836   13.2766 H   0  0  0  0  0  0  0  0  0  0  0  0
   42.5733    5.4853   12.3498 H   0  0  0  0  0  0  0  0  0  0  0  0
   41.7434    3.9378   12.3318 H   0  0  0  0  0  0  0  0  0  0  0  0
   44.5345    6.7616   12.3080 H   0  0  0  0  0  0  0  0  0  0  0  0
   46.1566    6.5742   12.9807 H   0  0  0  0  0  0  0  0  0  0  0  0
   44.8618    5.5569   13.5945 H   0  0  0  0  0  0  0  0  0  0  0  0
   46.2018    0.5473    8.7322 H   0  0  0  0  0  0  0  0  0  0  0  0
   45.4551    4.3440    6.8274 H   0  0  0  0  0  0  0  0  0  0  0  0
   47.8072   -0.0251    6.9444 H   0  0  0  0  0  0  0  0  0  0  0  0
   47.0648    3.7550    5.0423 H   0  0  0  0  0  0  0  0  0  0  0  0
   48.2415    1.5712    5.0974 H   0  0  0  0  0  0  0  0  0  0  0  0
   46.6408    4.0569   10.8505 H   0  0  0  0  0  0  0  0  0  0  0  0
   45.6033    2.8398    7.8528 H   0  0  0  0  0  0  0  0  0  0  0  0
   46.2496    4.2165    9.6385 H   0  0  0  0  0  0  0  0  0  0  0  0
   46.7480    4.4061    7.6028 H   0  0  0  0  0  0  0  0  0  0  0  0
   45.2596    2.2899   10.9242 H   0  0  0  0  0  0  0  0  0  0  0  0
   43.8835    2.4658    9.8283 H   0  0  0  0  0  0  0  0  0  0  0  0
   46.3779    0.6459    6.4695 H   0  0  0  0  0  0  0  0  0  0  0  0
   47.7209    0.5017    7.6575 H   0  0  0  0  0  0  0  0  0  0  0  0
   46.3030   -0.5255    7.7763 H   0  0  0  0  0  0  0  0  0  0  0  0
   48.2175    3.9336    5.9597 H   0  0  0  0  0  0  0  0  0  0  0  0
   46.9270    2.7690    5.6519 H   0  0  0  0  0  0  0  0  0  0  0  0
   48.4224    2.2767    6.5079 H   0  0  0  0  0  0  0  0  0  0  0  0
   42.7764    4.7941    9.6143 H   0  0  0  0  0  0  0  0  0  0  0  0
   45.5204    3.7951   12.7898 H   0  0  0  0  0  0  0  0  0  0  0  0
   41.9271    6.6912   10.9574 H   0  0  0  0  0  0  0  0  0  0  0  0
   44.6649    5.6953   14.1156 H   0  0  0  0  0  0  0  0  0  0  0  0
   42.8679    7.1440   13.2079 H   0  0  0  0  0  0  0  0  0  0  0  0
  2  1  2  0
  3  1  1  0
  4  1  1  0
  5  3  1  0
  6  5  1  0
  7  2  1  0
  8  4  1  0
  9  6  2  0
 10  6  1  0
 11  9  1  0
 12 10  2  0
 13 12  1  0
 11 13  2  0
 15 14  2  0
 16 14  2  0
 17 14  1  0
 18 14  1  0
 20 19  2  0
 21 19  1  0
 22 19  1  0
 23 21  1  0
 24 23  1  0
 25 20  1  0
 26 22  1  0
 27 24  2  0
 28 24  1  0
 29 27  1  0
 30 28  2  0
 31 30  1  0
 29 31  2  0
  3 32  1  0
  4 33  1  0
  5 34  1  0
  5 35  1  0
  7 36  1  0
  7 37  1  0
  7 38  1  0
  8 39  1  0
  8 40  1  0
  8 41  1  0
  9 42  1  0
 10 43  1  0
 11 44  1  0
 12 45  1  0
 13 46  1  0
 17 47  1  0
 18 48  1  0
 21 49  1  0
 22 50  1  0
 23 51  1  0
 23 52  1  0
 25 53  1  0
 25 54  1  0
 25 55  1  0
 26 56  1  0
 26 57  1  0
 26 58  1  0
 27 59  1  0
 28 60  1  0
 29 61  1  0
 30 62  1  0
 31 63  1  0
M  END
> <Uni-Dock RESULT> 
ENERGY=   -6.077  LOWER_BOUND=    0.000  UPPER_BOUND=    0.000
INTER + INTRA:          -6.077
INTER:                  -6.077
INTRA:                   0.000
UNBOUND:                 0.000

$$$$

     RDKit          3D

 63 62  0  0  0  0  0  0  0  0999 V2000
   45.1592    5.8422   11.7728 C   0  0  0  0  0  0  0  0  0  0  0  0
   44.4124    5.7655   12.8077 N   0  0  0  0  0  0  0  0  0  0  0  0
   46.3182    6.5697   11.8089 N   0  0  0  0  0  0  0  0  0  0  0  0
   45.0641    5.3242   10.5113 N   0  0  0  0  0  0  0  0  0  0  0  0
   46.6647    7.3488   12.9856 C   0  0  0  0  0  0  0  0  0  0  0  0
   47.9749    8.0599   12.7390 C   0  0  0  0  0  0  0  0  0  0  0  0
   43.1529    5.0584   12.8082 C   0  0  0  0  0  0  0  0  0  0  0  0
   44.2167    4.2277   10.1109 C   0  0  0  0  0  0  0  0  0  0  0  0
   48.0012    9.4274   12.4308 C   0  0  0  0  0  0  0  0  0  0  0  0
   49.1845    7.3503   12.7824 C   0  0  0  0  0  0  0  0  0  0  0  0
   49.2141   10.0740   12.1863 C   0  0  0  0  0  0  0  0  0  0  0  0
   50.3957    7.9984   12.5369 C   0  0  0  0  0  0  0  0  0  0  0  0
   50.4099    9.3601   12.2404 C   0  0  0  0  0  0  0  0  0  0  0  0
   46.2928    6.6014   12.3160 S   0  0  0  0  0  0  0  0  0  0  0  0
   45.7371    7.3945   13.3823 O   0  0  0  0  0  0  0  0  0  0  0  0
   46.0238    5.1976   12.1353 O   0  0  0  0  0  0  0  0  0  0  0  0
   45.9426    7.3130   10.9217 O   0  0  0  0  0  0  0  0  0  0  0  0
   47.8826    6.8078   12.3776 O   0  0  0  0  0  0  0  0  0  0  0  0
   47.8128    7.9987   12.0140 C   0  0  0  0  0  0  0  0  0  0  0  0
   47.4541    9.1112   12.5321 N   0  0  0  0  0  0  0  0  0  0  0  0
   46.9338    6.9513   11.9492 N   0  0  0  0  0  0  0  0  0  0  0  0
   48.9779    7.5640   11.4467 N   0  0  0  0  0  0  0  0  0  0  0  0
   45.5530    7.1207   12.3678 C   0  0  0  0  0  0  0  0  0  0  0  0
   44.8155    5.8162   12.1755 C   0  0  0  0  0  0  0  0  0  0  0  0
   48.3222   10.2648   12.5763 C   0  0  0  0  0  0  0  0  0  0  0  0
   50.2715    8.1843   11.5917 C   0  0  0  0  0  0  0  0  0  0  0  0
   45.0016    4.7586   13.0787 C   0  0  0  0  0  0  0  0  0  0  0  0
   43.9651    5.6291   11.0766 C   0  0  0  0  0  0  0  0  0  0  0  0
   44.3378    3.5450   12.8947 C   0  0  0  0  0  0  0  0  0  0  0  0
   43.3024    4.4141   10.8944 C   0  0  0  0  0  0  0  0  0  0  0  0
   43.4880    3.3737   11.8037 C   0  0  0  0  0  0  0  0  0  0  0  0
   46.4659    7.0988   10.9583 H   0  0  0  0  0  0  0  0  0  0  0  0
   45.9888    5.2357   10.1034 H   0  0  0  0  0  0  0  0  0  0  0  0
   45.8776    8.0806   13.2058 H   0  0  0  0  0  0  0  0  0  0  0  0
   46.7667    6.7016   13.8653 H   0  0  0  0  0  0  0  0  0  0  0  0
   42.4691    5.4436   12.0461 H   0  0  0  0  0  0  0  0  0  0  0  0
   43.2909    3.9799   12.6929 H   0  0  0  0  0  0  0  0  0  0  0  0
   42.6621    5.2118   13.7751 H   0  0  0  0  0  0  0  0  0  0  0  0
   44.3953    3.3440   10.7299 H   0  0  0  0  0  0  0  0  0  0  0  0
   44.4428    3.9559    9.0740 H   0  0  0  0  0  0  0  0  0  0  0  0
   43.1601    4.5032   10.1432 H   0  0  0  0  0  0  0  0  0  0  0  0
   47.0762    9.9976   12.3814 H   0  0  0  0  0  0  0  0  0  0  0  0
   49.1810    6.2852   13.0050 H   0  0  0  0  0  0  0  0  0  0  0  0
   49.2261   11.1355   11.9524 H   0  0  0  0  0  0  0  0  0  0  0  0
   51.3271    7.4401   12.5751 H   0  0  0  0  0  0  0  0  0  0  0  0
   51.3532    9.8649   12.0496 H   0  0  0  0  0  0  0  0  0  0  0  0
   46.0535    6.6402   10.2182 H   0  0  0  0  0  0  0  0  0  0  0  0
   48.0448    7.6945   12.7612 H   0  0  0  0  0  0  0  0  0  0  0  0
   46.9954    6.4536   11.0699 H   0  0  0  0  0  0  0  0  0  0  0  0
   49.0471    6.5553   11.5266 H   0  0  0  0  0  0  0  0  0  0  0  0
   45.0700    7.9127   11.7831 H   0  0  0  0  0  0  0  0  0  0  0  0
   45.4990    7.4125   13.4236 H   0  0  0  0  0  0  0  0  0  0  0  0
   49.1767   10.1063   13.2397 H   0  0  0  0  0  0  0  0  0  0  0  0
   48.6582   10.5604   11.5780 H   0  0  0  0  0  0  0  0  0  0  0  0
   47.7611   11.1138   12.9812 H   0  0  0  0  0  0  0  0  0  0  0  0
   51.0309    7.5483   11.1250 H   0  0  0  0  0  0  0  0  0  0  0  0
   50.5395    8.2987   12.6455 H   0  0  0  0  0  0  0  0  0  0  0  0
   50.3128    9.1516   11.0859 H   0  0  0  0  0  0  0  0  0  0  0  0
   45.6709    4.8810   13.9282 H   0  0  0  0  0  0  0  0  0  0  0  0
   43.8126    6.4304   10.3563 H   0  0  0  0  0  0  0  0  0  0  0  0
   44.4865    2.7328   13.6014 H   0  0  0  0  0  0  0  0  0  0  0  0
   42.6416    4.2784   10.0421 H   0  0  0  0  0  0  0  0  0  0  0  0
   42.9710    2.4284   11.6610 H   0  0  0  0  0  0  0  0  0  0  0  0
  2  1  2  0
  3  1  1  0
  4  1  1  0
  5  3  1  0
  6  5  1  0
  7  2  1  0
  8  4  1  0
  9  6  2  0
 10  6  1  0
 11  9  1  0
 12 10  2  0
 13 12  1  0
 11 13  2  0
 15 14  2  0
 16 14  2  0
 17 14  1  0
 18 14  1  0
 20 19  2  0
 21 19  1  0
 22 19  1  0
 23 21  1  0
 24 23  1  0
 25 20  1  0
 26 22  1  0
 27 24  2  0
 28 24  1  0
 29 27  1  0
 30 28  2  0
 31 30  1  0
 29 31  2  0
  3 32  1  0
  4 33  1  0
  5 34  1  0
  5 35  1  0
  7 36  1  0
  7 37  1  0
  7 38  1  0
  8 39  1  0
  8 40  1  0
  8 41  1  0
  9 42  1  0
 10 43  1  0
 11 44  1  0
 12 45  1  0
 13 46  1  0
 17 47  1  0
 18 48  1  0
 21 49  1  0
 22 50  1  0
 23 51  1  0
 23 52  1  0
 25 53  1  0
 25 54  1  0
 25 55  1  0
 26 56  1  0
 26 57  1  0
 26 58  1  0
 27 59  1  0
 28 60  1  0
 29 61  1  0
 30 62  1  0
 31 63  1  0
M  END
> <Uni-Dock RESULT> 
ENERGY=   -5.492  LOWER_BOUND=    3.369  UPPER_BOUND=    6.040
INTER + INTRA:          -5.492
INTER:                  -5.492
INTRA:                   0.000
UNBOUND:                 0.000

$$$$

     RDKit          3D

 63 62  0  0  0  0  0  0  0  0999 V2000
   45.2141    5.7124   12.5427 C   0  0  0  0  0  0  0  0  0  0  0  0
   45.1690    4.5079   12.9692 N   0  0  0  0  0  0  0  0  0  0  0  0
   46.3833    6.4221   12.5977 N   0  0  0  0  0  0  0  0  0  0  0  0
   44.2786    6.5457   11.9955 N   0  0  0  0  0  0  0  0  0  0  0  0
   47.5608    5.8570   13.2349 C   0  0  0  0  0  0  0  0  0  0  0  0
   48.6885    6.8605   13.1676 C   0  0  0  0  0  0  0  0  0  0  0  0
   43.9501    3.7331   12.9857 C   0  0  0  0  0  0  0  0  0  0  0  0
   43.0172    6.1398   11.4254 C   0  0  0  0  0  0  0  0  0  0  0  0
   49.0451    7.6145   14.2945 C   0  0  0  0  0  0  0  0  0  0  0  0
   49.3736    7.0756   11.9622 C   0  0  0  0  0  0  0  0  0  0  0  0
   50.0760    8.5529   14.2202 C   0  0  0  0  0  0  0  0  0  0  0  0
   50.4033    8.0147   11.8899 C   0  0  0  0  0  0  0  0  0  0  0  0
   50.7548    8.7517   13.0193 C   0  0  0  0  0  0  0  0  0  0  0  0
   46.6462    5.9981   12.6974 S   0  0  0  0  0  0  0  0  0  0  0  0
   47.0822    5.1552   13.7811 O   0  0  0  0  0  0  0  0  0  0  0  0
   45.8303    5.5398   11.6020 O   0  0  0  0  0  0  0  0  0  0  0  0
   45.8960    7.2724   13.3190 O   0  0  0  0  0  0  0  0  0  0  0  0
   47.9664    6.6809   12.0936 O   0  0  0  0  0  0  0  0  0  0  0  0
   48.1556    7.3785   13.1099 C   0  0  0  0  0  0  0  0  0  0  0  0
   48.5663    7.1900   14.3059 N   0  0  0  0  0  0  0  0  0  0  0  0
   47.0672    6.6959   12.6372 N   0  0  0  0  0  0  0  0  0  0  0  0
   48.5816    8.1840   12.0910 N   0  0  0  0  0  0  0  0  0  0  0  0
   46.3002    5.8312   13.5173 C   0  0  0  0  0  0  0  0  0  0  0  0
   45.1575    5.2230   12.7383 C   0  0  0  0  0  0  0  0  0  0  0  0
   49.6742    7.9230   14.8728 C   0  0  0  0  0  0  0  0  0  0  0  0
   49.8723    8.8205   12.0000 C   0  0  0  0  0  0  0  0  0  0  0  0
   45.3937    4.1690   11.8426 C   0  0  0  0  0  0  0  0  0  0  0  0
   43.8543    5.7233   12.8696 C   0  0  0  0  0  0  0  0  0  0  0  0
   44.3450    3.6167   11.1062 C   0  0  0  0  0  0  0  0  0  0  0  0
   42.8067    5.1695   12.1317 C   0  0  0  0  0  0  0  0  0  0  0  0
   43.0523    4.1163   11.2518 C   0  0  0  0  0  0  0  0  0  0  0  0
   46.2358    7.3835   12.8794 H   0  0  0  0  0  0  0  0  0  0  0  0
   44.7333    7.2404   11.4125 H   0  0  0  0  0  0  0  0  0  0  0  0
   47.3465    5.6048   14.2808 H   0  0  0  0  0  0  0  0  0  0  0  0
   47.8708    4.9333   12.7312 H   0  0  0  0  0  0  0  0  0  0  0  0
   43.1634    4.2235   13.5665 H   0  0  0  0  0  0  0  0  0  0  0  0
   43.5986    3.5046   11.9760 H   0  0  0  0  0  0  0  0  0  0  0  0
   44.1482    2.7737   13.4751 H   0  0  0  0  0  0  0  0  0  0  0  0
   43.1599    5.3823   10.6496 H   0  0  0  0  0  0  0  0  0  0  0  0
   42.5367    7.0058   10.9571 H   0  0  0  0  0  0  0  0  0  0  0  0
   42.3301    5.7710   12.1903 H   0  0  0  0  0  0  0  0  0  0  0  0
   48.5225    7.4734   15.2381 H   0  0  0  0  0  0  0  0  0  0  0  0
   49.0994    6.5100   11.0740 H   0  0  0  0  0  0  0  0  0  0  0  0
   50.3493    9.1301   15.0998 H   0  0  0  0  0  0  0  0  0  0  0  0
   50.9290    8.1720   10.9521 H   0  0  0  0  0  0  0  0  0  0  0  0
   51.5569    9.4828   12.9631 H   0  0  0  0  0  0  0  0  0  0  0  0
   45.3585    7.6692   12.6022 H   0  0  0  0  0  0  0  0  0  0  0  0
   48.6197    6.7415   12.8211 H   0  0  0  0  0  0  0  0  0  0  0  0
   46.4626    7.2814   12.0748 H   0  0  0  0  0  0  0  0  0  0  0  0
   48.3074    7.7882   11.1984 H   0  0  0  0  0  0  0  0  0  0  0  0
   45.9102    6.4009   14.3692 H   0  0  0  0  0  0  0  0  0  0  0  0
   46.9294    5.0280   13.9196 H   0  0  0  0  0  0  0  0  0  0  0  0
   50.6215    7.6666   14.3908 H   0  0  0  0  0  0  0  0  0  0  0  0
   49.5060    9.0035   14.8427 H   0  0  0  0  0  0  0  0  0  0  0  0
   49.7737    7.6516   15.9292 H   0  0  0  0  0  0  0  0  0  0  0  0
   49.9691    9.3016   11.0212 H   0  0  0  0  0  0  0  0  0  0  0  0
   50.6808    8.0900   12.0897 H   0  0  0  0  0  0  0  0  0  0  0  0
   49.9883    9.6043   12.7521 H   0  0  0  0  0  0  0  0  0  0  0  0
   46.4020    3.7793   11.7161 H   0  0  0  0  0  0  0  0  0  0  0  0
   43.6473    6.5472   13.5496 H   0  0  0  0  0  0  0  0  0  0  0  0
   44.5378    2.7987   10.4171 H   0  0  0  0  0  0  0  0  0  0  0  0
   41.7986    5.5604   12.2423 H   0  0  0  0  0  0  0  0  0  0  0  0
   42.2356    3.6856   10.6783 H   0  0  0  0  0  0  0  0  0  0  0  0
  2  1  2  0
  3  1  1  0
  4  1  1  0
  5  3  1  0
  6  5  1  0
  7  2  1  0
  8  4  1  0
  9  6  2  0
 10  6  1  0
 11  9  1  0
 12 10  2  0
 13 12  1  0
 11 13  2  0
 15 14  2  0
 16 14  2  0
 17 14  1  0
 18 14  1  0
 20 19  2  0
 21 19  1  0
 22 19  1  0
 23 21  1  0
 24 23  1  0
 25 20  1  0
 26 22  1  0
 27 24  2  0
 28 24  1  0
 29 27  1  0
 30 28  2  0
 31 30  1  0
 29 31  2  0
  3 32  1  0
  4 33  1  0
  5 34  1  0
  5 35  1  0
  7 36  1  0
  7 37  1  0
  7 38  1  0
  8 39  1  0
  8 40  1  0
  8 41  1  0
  9 42  1  0
 10 43  1  0
 11 44  1  0
 12 45  1  0
 13 46  1  0
 17 47  1  0
 18 48  1  0
 21 49  1  0
 22 50  1  0
 23 51  1  0
 23 52  1  0
 25 53  1  0
 25 54  1  0
 25 55  1  0
 26 56  1  0
 26 57  1  0
 26 58  1  0
 27 59  1  0
 28 60  1  0
 29 61  1  0
 30 62  1  0
 31 63  1  0
M  END
> <Uni-Dock RESULT> 
ENERGY=   -5.440  LOWER_BOUND=    3.610  UPPER_BOUND=    5.992
INTER + INTRA:          -5.440
INTER:                  -5.440
INTRA:                   0.000
UNBOUND:                 0.000

$$$$

     RDKit          3D

 63 62  0  0  0  0  0  0  0  0999 V2000
   48.0256    7.6658   14.1324 C   0  0  0  0  0  0  0  0  0  0  0  0
   49.1887    7.1506   14.0038 N   0  0  0  0  0  0  0  0  0  0  0  0
   46.9282    7.0343   13.6122 N   0  0  0  0  0  0  0  0  0  0  0  0
   47.5720    8.8144   14.7189 N   0  0  0  0  0  0  0  0  0  0  0  0
   47.0785    5.8265   12.8182 C   0  0  0  0  0  0  0  0  0  0  0  0
   45.7150    5.3632   12.3608 C   0  0  0  0  0  0  0  0  0  0  0  0
   50.3857    7.8008   14.4842 C   0  0  0  0  0  0  0  0  0  0  0  0
   48.2919    9.6115   15.6818 C   0  0  0  0  0  0  0  0  0  0  0  0
   45.2867    5.5859   11.0445 C   0  0  0  0  0  0  0  0  0  0  0  0
   44.8434    4.7316   13.2607 C   0  0  0  0  0  0  0  0  0  0  0  0
   44.0185    5.1712   10.6338 C   0  0  0  0  0  0  0  0  0  0  0  0
   43.5758    4.3186   12.8484 C   0  0  0  0  0  0  0  0  0  0  0  0
   43.1647    4.5374   11.5348 C   0  0  0  0  0  0  0  0  0  0  0  0
   47.1969    6.6087   13.5391 S   0  0  0  0  0  0  0  0  0  0  0  0
   48.0535    5.9507   12.5860 O   0  0  0  0  0  0  0  0  0  0  0  0
   47.5934    6.9313   14.8860 O   0  0  0  0  0  0  0  0  0  0  0  0
   46.6663    7.9732   12.8838 O   0  0  0  0  0  0  0  0  0  0  0  0
   45.8436    5.7495   13.6023 O   0  0  0  0  0  0  0  0  0  0  0  0
   45.5016    6.0722   12.4472 C   0  0  0  0  0  0  0  0  0  0  0  0
   45.8588    5.7812   11.2545 N   0  0  0  0  0  0  0  0  0  0  0  0
   46.4066    6.5944   13.3316 N   0  0  0  0  0  0  0  0  0  0  0  0
   44.3122    5.9842   13.1148 N   0  0  0  0  0  0  0  0  0  0  0  0
   47.7535    6.9254   12.8990 C   0  0  0  0  0  0  0  0  0  0  0  0
   48.5224    7.4920   14.0695 C   0  0  0  0  0  0  0  0  0  0  0  0
   44.9331    5.2799   10.2655 C   0  0  0  0  0  0  0  0  0  0  0  0
   43.1749    5.1932   12.7148 C   0  0  0  0  0  0  0  0  0  0  0  0
   49.0108    6.6418   15.0734 C   0  0  0  0  0  0  0  0  0  0  0  0
   48.7285    8.8736   14.1903 C   0  0  0  0  0  0  0  0  0  0  0  0
   49.7047    7.1621   16.1665 C   0  0  0  0  0  0  0  0  0  0  0  0
   49.4227    9.3919   15.2849 C   0  0  0  0  0  0  0  0  0  0  0  0
   49.9112    8.5362   16.2713 C   0  0  0  0  0  0  0  0  0  0  0  0
   46.2811    7.6826   13.1806 H   0  0  0  0  0  0  0  0  0  0  0  0
   46.6019    8.7024   14.9936 H   0  0  0  0  0  0  0  0  0  0  0  0
   47.7199    6.0172   11.9488 H   0  0  0  0  0  0  0  0  0  0  0  0
   47.5506    5.0300   13.4062 H   0  0  0  0  0  0  0  0  0  0  0  0
   50.5132    8.7949   14.0459 H   0  0  0  0  0  0  0  0  0  0  0  0
   50.4102    7.8546   15.5759 H   0  0  0  0  0  0  0  0  0  0  0  0
   51.2555    7.2101   14.1781 H   0  0  0  0  0  0  0  0  0  0  0  0
   48.6126    9.0065   16.5345 H   0  0  0  0  0  0  0  0  0  0  0  0
   47.6330   10.3987   16.0644 H   0  0  0  0  0  0  0  0  0  0  0  0
   49.1518   10.1102   15.2289 H   0  0  0  0  0  0  0  0  0  0  0  0
   45.9401    6.0823   10.3305 H   0  0  0  0  0  0  0  0  0  0  0  0
   45.1539    4.5647   14.2902 H   0  0  0  0  0  0  0  0  0  0  0  0
   43.6959    5.3436    9.6102 H   0  0  0  0  0  0  0  0  0  0  0  0
   42.9092    3.8284   13.5527 H   0  0  0  0  0  0  0  0  0  0  0  0
   42.1777    4.2154   11.2135 H   0  0  0  0  0  0  0  0  0  0  0  0
   46.3453    8.5396   13.6160 H   0  0  0  0  0  0  0  0  0  0  0  0
   45.7342    5.3169   12.7302 H   0  0  0  0  0  0  0  0  0  0  0  0
   46.0074    7.3335   13.8965 H   0  0  0  0  0  0  0  0  0  0  0  0
   44.4795    5.9026   14.1118 H   0  0  0  0  0  0  0  0  0  0  0  0
   47.7245    7.6563   12.0820 H   0  0  0  0  0  0  0  0  0  0  0  0
   48.2724    6.0347   12.5247 H   0  0  0  0  0  0  0  0  0  0  0  0
   44.5700    4.2799   10.5174 H   0  0  0  0  0  0  0  0  0  0  0  0
   44.0959    5.9658   10.1064 H   0  0  0  0  0  0  0  0  0  0  0  0
   45.4537    5.1945    9.3058 H   0  0  0  0  0  0  0  0  0  0  0  0
   42.4163    5.2273   13.5036 H   0  0  0  0  0  0  0  0  0  0  0  0
   43.4529    4.1458   12.5697 H   0  0  0  0  0  0  0  0  0  0  0  0
   42.7091    5.5877   11.8088 H   0  0  0  0  0  0  0  0  0  0  0  0
   48.8455    5.5683   15.0039 H   0  0  0  0  0  0  0  0  0  0  0  0
   48.3503    9.5547   13.4305 H   0  0  0  0  0  0  0  0  0  0  0  0
   50.0813    6.4950   16.9374 H   0  0  0  0  0  0  0  0  0  0  0  0
   49.5818   10.4638   15.3690 H   0  0  0  0  0  0  0  0  0  0  0  0
   50.4521    8.9410   17.1226 H   0  0  0  0  0  0  0  0  0  0  0  0
  2  1  2  0
  3  1  1  0
  4  1  1  0
  5  3  1  0
  6  5  1  0
  7  2  1  0
  8  4  1  0
  9  6  2  0
 10  6  1  0
 11  9  1  0
 12 10  2  0
 13 12  1  0
 11 13  2  0
 15 14  2  0
 16 14  2  0
 17 14  1  0
 18 14  1  0
 20 19  2  0
 21 19  1  0
 22 19  1  0
 23 21  1  0
 24 23  1  0
 25 20  1  0
 26 22  1  0
 27 24  2  0
 28 24  1  0
 29 27  1  0
 30 28  2  0
 31 30  1  0
 29 31  2  0
  3 32  1  0
  4 33  1  0
  5 34  1  0
  5 35  1  0
  7 36  1  0
  7 37  1  0
  7 38  1  0
  8 39  1  0
  8 40  1  0
  8 41  1  0
  9 42  1  0
 10 43  1  0
 11 44  1  0
 12 45  1  0
 13 46  1  0
 17 47  1  0
 18 48  1  0
 21 49  1  0
 22 50  1  0
 23 51  1  0
 23 52  1  0
 25 53  1  0
 25 54  1  0
 25 55  1  0
 26 56  1  0
 26 57  1  0
 26 58  1  0
 27 59  1  0
 28 60  1  0
 29 61  1  0
 30 62  1  0
 31 63  1  0
M  END
> <Uni-Dock RESULT> 
ENERGY=   -5.301  LOWER_BOUND=    3.796  UPPER_BOUND=    6.405
INTER + INTRA:          -5.301
INTER:                  -5.301
INTRA:                   0.000
UNBOUND:                 0.000

$$$$

     RDKit          3D

 63 62  0  0  0  0  0  0  0  0999 V2000
   47.9344    7.6122   12.6905 C   0  0  0  0  0  0  0  0  0  0  0  0
   47.5397    8.7147   13.2039 N   0  0  0  0  0  0  0  0  0  0  0  0
   47.0246    6.6712   12.2900 N   0  0  0  0  0  0  0  0  0  0  0  0
   49.1717    7.0951   12.4250 N   0  0  0  0  0  0  0  0  0  0  0  0
   45.6055    6.8641   12.5365 C   0  0  0  0  0  0  0  0  0  0  0  0
   44.8458    5.6682   12.0112 C   0  0  0  0  0  0  0  0  0  0  0  0
   48.4565    9.7177   13.6936 C   0  0  0  0  0  0  0  0  0  0  0  0
   50.4014    7.8453   12.3488 C   0  0  0  0  0  0  0  0  0  0  0  0
   44.3626    4.6853   12.8865 C   0  0  0  0  0  0  0  0  0  0  0  0
   44.6429    5.5084   10.6322 C   0  0  0  0  0  0  0  0  0  0  0  0
   43.6774    3.5737   12.3927 C   0  0  0  0  0  0  0  0  0  0  0  0
   43.9584    4.3961   10.1406 C   0  0  0  0  0  0  0  0  0  0  0  0
   43.4748    3.4303   11.0213 C   0  0  0  0  0  0  0  0  0  0  0  0
   46.6456    7.0082   12.3294 S   0  0  0  0  0  0  0  0  0  0  0  0
   45.6988    7.5548   13.2673 O   0  0  0  0  0  0  0  0  0  0  0  0
   47.6151    7.7984   11.6145 O   0  0  0  0  0  0  0  0  0  0  0  0
   47.4647    5.8394   13.0615 O   0  0  0  0  0  0  0  0  0  0  0  0
   45.7933    6.1665   11.2622 O   0  0  0  0  0  0  0  0  0  0  0  0
   45.4834    5.2911   12.0947 C   0  0  0  0  0  0  0  0  0  0  0  0
   44.6909    5.1943   13.0932 N   0  0  0  0  0  0  0  0  0  0  0  0
   46.4545    6.2557   12.0740 N   0  0  0  0  0  0  0  0  0  0  0  0
   45.6101    4.5872   10.9298 N   0  0  0  0  0  0  0  0  0  0  0  0
   46.6683    7.1113   13.2286 C   0  0  0  0  0  0  0  0  0  0  0  0
   47.8023    8.0648   12.9329 C   0  0  0  0  0  0  0  0  0  0  0  0
   43.6856    4.1617   13.1915 C   0  0  0  0  0  0  0  0  0  0  0  0
   44.6154    3.7143   10.3573 C   0  0  0  0  0  0  0  0  0  0  0  0
   47.5946    9.1741   12.0991 C   0  0  0  0  0  0  0  0  0  0  0  0
   49.0837    7.8380   13.4549 C   0  0  0  0  0  0  0  0  0  0  0  0
   48.6435   10.0469   11.8071 C   0  0  0  0  0  0  0  0  0  0  0  0
   50.1316    8.7123   13.1612 C   0  0  0  0  0  0  0  0  0  0  0  0
   49.9107    9.8164   12.3389 C   0  0  0  0  0  0  0  0  0  0  0  0
   47.3165    5.7306   12.5256 H   0  0  0  0  0  0  0  0  0  0  0  0
   49.1099    6.4222   11.6683 H   0  0  0  0  0  0  0  0  0  0  0  0
   45.4163    6.9853   13.6102 H   0  0  0  0  0  0  0  0  0  0  0  0
   45.2425    7.7694   12.0348 H   0  0  0  0  0  0  0  0  0  0  0  0
   49.1234    9.3189   14.4636 H   0  0  0  0  0  0  0  0  0  0  0  0
   49.0320   10.1742   12.8837 H   0  0  0  0  0  0  0  0  0  0  0  0
   47.8815   10.5223   14.1639 H   0  0  0  0  0  0  0  0  0  0  0  0
   50.3177    8.6694   11.6347 H   0  0  0  0  0  0  0  0  0  0  0  0
   51.2054    7.1873   12.0011 H   0  0  0  0  0  0  0  0  0  0  0  0
   50.7029    8.2242   13.3280 H   0  0  0  0  0  0  0  0  0  0  0  0
   44.5157    4.7812   13.9592 H   0  0  0  0  0  0  0  0  0  0  0  0
   45.0248    6.2539    9.9377 H   0  0  0  0  0  0  0  0  0  0  0  0
   43.3019    2.8185   13.0785 H   0  0  0  0  0  0  0  0  0  0  0  0
   43.8048    4.2829    9.0709 H   0  0  0  0  0  0  0  0  0  0  0  0
   42.9413    2.5642   10.6385 H   0  0  0  0  0  0  0  0  0  0  0  0
   48.2787    5.6857   12.5382 H   0  0  0  0  0  0  0  0  0  0  0  0
   44.9855    5.8530   11.7192 H   0  0  0  0  0  0  0  0  0  0  0  0
   47.3303    5.9096   11.7028 H   0  0  0  0  0  0  0  0  0  0  0  0
   46.0363    5.1699   10.2174 H   0  0  0  0  0  0  0  0  0  0  0  0
   46.9079    6.5085   14.1127 H   0  0  0  0  0  0  0  0  0  0  0  0
   45.7642    7.6877   13.4591 H   0  0  0  0  0  0  0  0  0  0  0  0
   42.9003    4.2851   12.4409 H   0  0  0  0  0  0  0  0  0  0  0  0
   44.1226    3.1606   13.1320 H   0  0  0  0  0  0  0  0  0  0  0  0
   43.2006    4.2332   14.1709 H   0  0  0  0  0  0  0  0  0  0  0  0
   44.9497    3.3866    9.3674 H   0  0  0  0  0  0  0  0  0  0  0  0
   43.6614    4.2326   10.2283 H   0  0  0  0  0  0  0  0  0  0  0  0
   44.4758    2.8138   10.9597 H   0  0  0  0  0  0  0  0  0  0  0  0
   46.6102    9.3560   11.6721 H   0  0  0  0  0  0  0  0  0  0  0  0
   49.2727    6.9788   14.0953 H   0  0  0  0  0  0  0  0  0  0  0  0
   48.4718   10.9049   11.1625 H   0  0  0  0  0  0  0  0  0  0  0  0
   51.1211    8.5317   13.5731 H   0  0  0  0  0  0  0  0  0  0  0  0
   50.7273   10.4966   12.1116 H   0  0  0  0  0  0  0  0  0  0  0  0
  2  1  2  0
  3  1  1  0
  4  1  1  0
  5  3  1  0
  6  5  1  0
  7  2  1  0
  8  4  1  0
  9  6  2  0
 10  6  1  0
 11  9  1  0
 12 10  2  0
 13 12  1  0
 11 13  2  0
 15 14  2  0
 16 14  2  0
 17 14  1  0
 18 14  1  0
 20 19  2  0
 21 19  1  0
 22 19  1  0
 23 21  1  0
 24 23  1  0
 25 20  1  0
 26 22  1  0
 27 24  2  0
 28 24  1  0
 29 27  1  0
 30 28  2  0
 31 30  1  0
 29 31  2  0
  3 32  1  0
  4 33  1  0
  5 34  1  0
  5 35  1  0
  7 36  1  0
  7 37  1  0
  7 38  1  0
  8 39  1  0
  8 40  1  0
  8 41  1  0
  9 42  1  0
 10 43  1  0
 11 44  1  0
 12 45  1  0
 13 46  1  0
 17 47  1  0
 18 48  1  0
 21 49  1  0
 22 50  1  0
 23 51  1  0
 23 52  1  0
 25 53  1  0
 25 54  1  0
 25 55  1  0
 26 56  1  0
 26 57  1  0
 26 58  1  0
 27 59  1  0
 28 60  1  0
 29 61  1  0
 30 62  1  0
 31 63  1  0
M  END
> <Uni-Dock RESULT> 
ENERGY=   -5.075  LOWER_BOUND=    3.337  UPPER_BOUND=    5.689
INTER + INTRA:          -5.075
INTER:                  -5.075
INTRA:                   0.000
UNBOUND:                 0.000

$$$$

     RDKit          3D

 63 62  0  0  0  0  0  0  0  0999 V2000
   47.7138    7.9594   13.6425 C   0  0  0  0  0  0  0  0  0  0  0  0
   48.7273    8.0854   12.8733 N   0  0  0  0  0  0  0  0  0  0  0  0
   46.7080    7.0874   13.3238 N   0  0  0  0  0  0  0  0  0  0  0  0
   47.3567    8.5511   14.8220 N   0  0  0  0  0  0  0  0  0  0  0  0
   46.7249    6.3707   12.0597 C   0  0  0  0  0  0  0  0  0  0  0  0
   45.4918    5.5024   11.9676 C   0  0  0  0  0  0  0  0  0  0  0  0
   49.7891    9.0296   13.1328 C   0  0  0  0  0  0  0  0  0  0  0  0
   48.2419    9.2625   15.7114 C   0  0  0  0  0  0  0  0  0  0  0  0
   44.4028    5.8862   11.1723 C   0  0  0  0  0  0  0  0  0  0  0  0
   45.4070    4.3127   12.7064 C   0  0  0  0  0  0  0  0  0  0  0  0
   43.2594    5.0880   11.1061 C   0  0  0  0  0  0  0  0  0  0  0  0
   44.2628    3.5167   12.6395 C   0  0  0  0  0  0  0  0  0  0  0  0
   43.1903    3.9041   11.8383 C   0  0  0  0  0  0  0  0  0  0  0  0
   46.9974    6.8707   12.9659 S   0  0  0  0  0  0  0  0  0  0  0  0
   47.3691    6.9819   11.5786 O   0  0  0  0  0  0  0  0  0  0  0  0
   47.9381    6.9235   14.0558 O   0  0  0  0  0  0  0  0  0  0  0  0
   45.8784    7.9764   13.2793 O   0  0  0  0  0  0  0  0  0  0  0  0
   46.1429    5.5196   13.1002 O   0  0  0  0  0  0  0  0  0  0  0  0
   45.1827    5.9790   12.4504 C   0  0  0  0  0  0  0  0  0  0  0  0
   44.9294    6.2460   11.2259 N   0  0  0  0  0  0  0  0  0  0  0  0
   46.2481    6.5649   13.0793 N   0  0  0  0  0  0  0  0  0  0  0  0
   44.5802    5.1734   13.3757 N   0  0  0  0  0  0  0  0  0  0  0  0
   47.0395    7.5768   12.4007 C   0  0  0  0  0  0  0  0  0  0  0  0
   48.1310    8.0546   13.3295 C   0  0  0  0  0  0  0  0  0  0  0  0
   43.7876    5.6993   10.5305 C   0  0  0  0  0  0  0  0  0  0  0  0
   43.6445    4.1135   13.0923 C   0  0  0  0  0  0  0  0  0  0  0  0
   49.2659    7.2608   13.5549 C   0  0  0  0  0  0  0  0  0  0  0  0
   48.0117    9.2766   14.0065 C   0  0  0  0  0  0  0  0  0  0  0  0
   50.2677    7.6886   14.4270 C   0  0  0  0  0  0  0  0  0  0  0  0
   49.0150    9.7025   14.8787 C   0  0  0  0  0  0  0  0  0  0  0  0
   50.1424    8.9093   15.0874 C   0  0  0  0  0  0  0  0  0  0  0  0
   45.7914    7.4707   13.5195 H   0  0  0  0  0  0  0  0  0  0  0  0
   46.7354    7.9397   15.3412 H   0  0  0  0  0  0  0  0  0  0  0  0
   46.7494    7.0761   11.2199 H   0  0  0  0  0  0  0  0  0  0  0  0
   47.6173    5.7375   11.9828 H   0  0  0  0  0  0  0  0  0  0  0  0
   49.4140   10.0546   13.2061 H   0  0  0  0  0  0  0  0  0  0  0  0
   50.3618    8.7638   14.0255 H   0  0  0  0  0  0  0  0  0  0  0  0
   50.4903    9.0126   12.2918 H   0  0  0  0  0  0  0  0  0  0  0  0
   49.0994    8.6448   15.9925 H   0  0  0  0  0  0  0  0  0  0  0  0
   47.7029    9.5174   16.6305 H   0  0  0  0  0  0  0  0  0  0  0  0
   48.5827   10.2030   15.2725 H   0  0  0  0  0  0  0  0  0  0  0  0
   44.4401    6.8091   10.5977 H   0  0  0  0  0  0  0  0  0  0  0  0
   46.2369    4.0077   13.3407 H   0  0  0  0  0  0  0  0  0  0  0  0
   42.4213    5.3905   10.4835 H   0  0  0  0  0  0  0  0  0  0  0  0
   44.2081    2.5960   13.2141 H   0  0  0  0  0  0  0  0  0  0  0  0
   42.2993    3.2840   11.7859 H   0  0  0  0  0  0  0  0  0  0  0  0
   45.8526    8.0938   14.2517 H   0  0  0  0  0  0  0  0  0  0  0  0
   45.7108    5.3630   12.2350 H   0  0  0  0  0  0  0  0  0  0  0  0
   46.0278    6.8421   14.0276 H   0  0  0  0  0  0  0  0  0  0  0  0
   45.2547    4.8856   14.0763 H   0  0  0  0  0  0  0  0  0  0  0  0
   46.4068    8.4211   12.1020 H   0  0  0  0  0  0  0  0  0  0  0  0
   47.4947    7.1692   11.4899 H   0  0  0  0  0  0  0  0  0  0  0  0
   43.8752    4.6185   10.3903 H   0  0  0  0  0  0  0  0  0  0  0  0
   42.8476    5.9485   11.0316 H   0  0  0  0  0  0  0  0  0  0  0  0
   43.7364    6.1443    9.5311 H   0  0  0  0  0  0  0  0  0  0  0  0
   43.4257    3.5687   14.0165 H   0  0  0  0  0  0  0  0  0  0  0  0
   44.0617    3.3980   12.3786 H   0  0  0  0  0  0  0  0  0  0  0  0
   42.6943    4.5043   12.7212 H   0  0  0  0  0  0  0  0  0  0  0  0
   49.3670    6.3018   13.0503 H   0  0  0  0  0  0  0  0  0  0  0  0
   47.1362    9.9052   13.8568 H   0  0  0  0  0  0  0  0  0  0  0  0
   51.1442    7.0678   14.5927 H   0  0  0  0  0  0  0  0  0  0  0  0
   48.9168   10.6530   15.3966 H   0  0  0  0  0  0  0  0  0  0  0  0
   50.9230    9.2424   15.7663 H   0  0  0  0  0  0  0  0  0  0  0  0
  2  1  2  0
  3  1  1  0
  4  1  1  0
  5  3  1  0
  6  5  1  0
  7  2  1  0
  8  4  1  0
  9  6  2  0
 10  6  1  0
 11  9  1  0
 12 10  2  0
 13 12  1  0
 11 13  2  0
 15 14  2  0
 16 14  2  0
 17 14  1  0
 18 14  1  0
 20 19  2  0
 21 19  1  0
 22 19  1  0
 23 21  1  0
 24 23  1  0
 25 20  1  0
 26 22  1  0
 27 24  2  0
 28 24  1  0
 29 27  1  0
 30 28  2  0
 31 30  1  0
 29 31  2  0
  3 32  1  0
  4 33  1  0
  5 34  1  0
  5 35  1  0
  7 36  1  0
  7 37  1  0
  7 38  1  0
  8 39  1  0
  8 40  1  0
  8 41  1  0
  9 42  1  0
 10 43  1  0
 11 44  1  0
 12 45  1  0
 13 46  1  0
 17 47  1  0
 18 48  1  0
 21 49  1  0
 22 50  1  0
 23 51  1  0
 23 52  1  0
 25 53  1  0
 25 54  1  0
 25 55  1  0
 26 56  1  0
 26 57  1  0
 26 58  1  0
 27 59  1  0
 28 60  1  0
 29 61  1  0
 30 62  1  0
 31 63  1  0
M  END
> <Uni-Dock RESULT> 
ENERGY=   -5.006  LOWER_BOUND=    4.130  UPPER_BOUND=    6.279
INTER + INTRA:          -5.006
INTER:                  -5.006
INTRA:                   0.000
UNBOUND:                 0.000

$$$$

     RDKit          3D

 63 62  0  0  0  0  0  0  0  0999 V2000
   47.9682    5.4185   18.2245 C   0  0  0  0  0  0  0  0  0  0  0  0
   48.6104    4.7316   19.0908 N   0  0  0  0  0  0  0  0  0  0  0  0
   47.8653    6.7769   18.3574 N   0  0  0  0  0  0  0  0  0  0  0  0
   47.2869    5.0860   17.0868 N   0  0  0  0  0  0  0  0  0  0  0  0
   48.3923    7.4457   19.5350 C   0  0  0  0  0  0  0  0  0  0  0  0
   48.1224    8.9282   19.4234 C   0  0  0  0  0  0  0  0  0  0  0  0
   48.7032    3.2915   19.0292 C   0  0  0  0  0  0  0  0  0  0  0  0
   47.4107    3.8457   16.3610 C   0  0  0  0  0  0  0  0  0  0  0  0
   47.0848    9.5247   20.1536 C   0  0  0  0  0  0  0  0  0  0  0  0
   48.8885    9.7240   18.5584 C   0  0  0  0  0  0  0  0  0  0  0  0
   46.8294   10.8918   20.0318 C   0  0  0  0  0  0  0  0  0  0  0  0
   48.6310   11.0902   18.4375 C   0  0  0  0  0  0  0  0  0  0  0  0
   47.6027   11.6735   19.1754 C   0  0  0  0  0  0  0  0  0  0  0  0
   48.2271    6.7781   18.7150 S   0  0  0  0  0  0  0  0  0  0  0  0
   48.4281    6.6334   20.1340 O   0  0  0  0  0  0  0  0  0  0  0  0
   48.8501    5.9361   17.7259 O   0  0  0  0  0  0  0  0  0  0  0  0
   46.6509    6.7328   18.4208 O   0  0  0  0  0  0  0  0  0  0  0  0
   48.5634    8.3066   18.3622 O   0  0  0  0  0  0  0  0  0  0  0  0
   47.5632    8.7401   18.9679 C   0  0  0  0  0  0  0  0  0  0  0  0
   47.2076    8.8974   20.1859 N   0  0  0  0  0  0  0  0  0  0  0  0
   47.9059    7.4990   18.5029 N   0  0  0  0  0  0  0  0  0  0  0  0
   47.6888    9.5990   17.9121 N   0  0  0  0  0  0  0  0  0  0  0  0
   47.7679    6.3292   19.3532 C   0  0  0  0  0  0  0  0  0  0  0  0
   48.2021    5.1047   18.5821 C   0  0  0  0  0  0  0  0  0  0  0  0
   46.7834   10.1732   20.7140 C   0  0  0  0  0  0  0  0  0  0  0  0
   47.7673   11.0363   17.9966 C   0  0  0  0  0  0  0  0  0  0  0  0
   49.5656    4.8444   18.3771 C   0  0  0  0  0  0  0  0  0  0  0  0
   47.2537    4.2319   18.0301 C   0  0  0  0  0  0  0  0  0  0  0  0
   49.9714    3.7254   17.6489 C   0  0  0  0  0  0  0  0  0  0  0  0
   47.6619    3.1132   17.3017 C   0  0  0  0  0  0  0  0  0  0  0  0
   49.0199    2.8600   17.1126 C   0  0  0  0  0  0  0  0  0  0  0  0
   46.9410    7.1166   18.1216 H   0  0  0  0  0  0  0  0  0  0  0  0
   47.2672    5.8773   16.4521 H   0  0  0  0  0  0  0  0  0  0  0  0
   47.9237    7.0475   20.4434 H   0  0  0  0  0  0  0  0  0  0  0  0
   49.4733    7.2826   19.6246 H   0  0  0  0  0  0  0  0  0  0  0  0
   47.7164    2.8191   19.0312 H   0  0  0  0  0  0  0  0  0  0  0  0
   49.2890    2.9572   18.1687 H   0  0  0  0  0  0  0  0  0  0  0  0
   49.2236    2.9325   19.9234 H   0  0  0  0  0  0  0  0  0  0  0  0
   48.4524    3.6463   16.0944 H   0  0  0  0  0  0  0  0  0  0  0  0
   46.8384    3.9133   15.4292 H   0  0  0  0  0  0  0  0  0  0  0  0
   46.9989    3.0062   16.9257 H   0  0  0  0  0  0  0  0  0  0  0  0
   46.4702    8.9274   20.8236 H   0  0  0  0  0  0  0  0  0  0  0  0
   49.6877    9.2744   17.9726 H   0  0  0  0  0  0  0  0  0  0  0  0
   46.0259   11.3473   20.6049 H   0  0  0  0  0  0  0  0  0  0  0  0
   49.2316   11.6980   17.7662 H   0  0  0  0  0  0  0  0  0  0  0  0
   47.4024   12.7375   19.0815 H   0  0  0  0  0  0  0  0  0  0  0  0
   46.5405    6.5333   17.4679 H   0  0  0  0  0  0  0  0  0  0  0  0
   48.3737    8.8372   19.1636 H   0  0  0  0  0  0  0  0  0  0  0  0
   47.5451    7.3253   17.5732 H   0  0  0  0  0  0  0  0  0  0  0  0
   48.3645    9.2361   17.2486 H   0  0  0  0  0  0  0  0  0  0  0  0
   46.7278    6.2148   19.6812 H   0  0  0  0  0  0  0  0  0  0  0  0
   48.3874    6.4263   20.2530 H   0  0  0  0  0  0  0  0  0  0  0  0
   47.6048   10.8940   20.7465 H   0  0  0  0  0  0  0  0  0  0  0  0
   45.9334   10.5814   20.1596 H   0  0  0  0  0  0  0  0  0  0  0  0
   46.4450   10.0332   21.7462 H   0  0  0  0  0  0  0  0  0  0  0  0
   47.9838   11.4448   17.0040 H   0  0  0  0  0  0  0  0  0  0  0  0
   48.5735   11.3499   18.6652 H   0  0  0  0  0  0  0  0  0  0  0  0
   46.8194   11.4727   18.3198 H   0  0  0  0  0  0  0  0  0  0  0  0
   50.3149    5.5205   18.7845 H   0  0  0  0  0  0  0  0  0  0  0  0
   46.1902    4.4179   18.1660 H   0  0  0  0  0  0  0  0  0  0  0  0
   51.0300    3.5310   17.4980 H   0  0  0  0  0  0  0  0  0  0  0  0
   46.9205    2.4393   16.8805 H   0  0  0  0  0  0  0  0  0  0  0  0
   49.3364    1.9884   16.5458 H   0  0  0  0  0  0  0  0  0  0  0  0
  2  1  2  0
  3  1  1  0
  4  1  1  0
  5  3  1  0
  6  5  1  0
  7  2  1  0
  8  4  1  0
  9  6  2  0
 10  6  1  0
 11  9  1  0
 12 10  2  0
 13 12  1  0
 11 13  2  0
 15 14  2  0
 16 14  2  0
 17 14  1  0
 18 14  1  0
 20 19  2  0
 21 19  1  0
 22 19  1  0
 23 21  1  0
 24 23  1  0
 25 20  1  0
 26 22  1  0
 27 24  2  0
 28 24  1  0
 29 27  1  0
 30 28  2  0
 31 30  1  0
 29 31  2  0
  3 32  1  0
  4 33  1  0
  5 34  1  0
  5 35  1  0
  7 36  1  0
  7 37  1  0
  7 38  1  0
  8 39  1  0
  8 40  1  0
  8 41  1  0
  9 42  1  0
 10 43  1  0
 11 44  1  0
 12 45  1  0
 13 46  1  0
 17 47  1  0
 18 48  1  0
 21 49  1  0
 22 50  1  0
 23 51  1  0
 23 52  1  0
 25 53  1  0
 25 54  1  0
 25 55  1  0
 26 56  1  0
 26 57  1  0
 26 58  1  0
 27 59  1  0
 28 60  1  0
 29 61  1  0
 30 62  1  0
 31 63  1  0
M  END
> <Uni-Dock RESULT> 
ENERGY=   -4.794  LOWER_BOUND=    8.227  UPPER_BOUND=   11.341
INTER + INTRA:          -4.794
INTER:                  -4.794
INTRA:                   0.000
UNBOUND:                 0.000

$$$$

     RDKit          3D

 63 62  0  0  0  0  0  0  0  0999 V2000
   48.2257    8.9127   18.8880 C   0  0  0  0  0  0  0  0  0  0  0  0
   48.3128    9.1261   20.1457 N   0  0  0  0  0  0  0  0  0  0  0  0
   48.2266    7.6330   18.4022 N   0  0  0  0  0  0  0  0  0  0  0  0
   48.1279    9.7403   17.8043 N   0  0  0  0  0  0  0  0  0  0  0  0
   48.4311    6.5045   19.2946 C   0  0  0  0  0  0  0  0  0  0  0  0
   48.4044    5.2264   18.4889 C   0  0  0  0  0  0  0  0  0  0  0  0
   48.3719   10.4555   20.7074 C   0  0  0  0  0  0  0  0  0  0  0  0
   47.7431   11.1301   17.8358 C   0  0  0  0  0  0  0  0  0  0  0  0
   49.5935    4.5569   18.1675 C   0  0  0  0  0  0  0  0  0  0  0  0
   47.1866    4.7096   18.0216 C   0  0  0  0  0  0  0  0  0  0  0  0
   49.5628    3.3864   17.4073 C   0  0  0  0  0  0  0  0  0  0  0  0
   47.1581    3.5399   17.2612 C   0  0  0  0  0  0  0  0  0  0  0  0
   48.3461    2.8782   16.9558 C   0  0  0  0  0  0  0  0  0  0  0  0
   48.1522    7.4462   18.8694 S   0  0  0  0  0  0  0  0  0  0  0  0
   48.8553    7.0201   20.0523 O   0  0  0  0  0  0  0  0  0  0  0  0
   47.1671    8.4973   18.8560 O   0  0  0  0  0  0  0  0  0  0  0  0
   49.2342    7.8250   17.7475 O   0  0  0  0  0  0  0  0  0  0  0  0
   47.4948    6.1287   18.2325 O   0  0  0  0  0  0  0  0  0  0  0  0
   48.5993    5.6496   17.9070 C   0  0  0  0  0  0  0  0  0  0  0  0
   49.5891    5.1020   18.5029 N   0  0  0  0  0  0  0  0  0  0  0  0
   48.1960    6.9111   18.2534 N   0  0  0  0  0  0  0  0  0  0  0  0
   47.7691    5.2385   16.9020 N   0  0  0  0  0  0  0  0  0  0  0  0
   48.9502    7.6856   19.2239 C   0  0  0  0  0  0  0  0  0  0  0  0
   48.2900    9.0330   19.4003 C   0  0  0  0  0  0  0  0  0  0  0  0
   50.0905    3.7969   18.1401 C   0  0  0  0  0  0  0  0  0  0  0  0
   47.5878    3.8785   16.4586 C   0  0  0  0  0  0  0  0  0  0  0  0
   47.1154    9.1514   20.1588 C   0  0  0  0  0  0  0  0  0  0  0  0
   48.8171   10.1757   18.7820 C   0  0  0  0  0  0  0  0  0  0  0  0
   46.4908   10.3902   20.3086 C   0  0  0  0  0  0  0  0  0  0  0  0
   48.1904   11.4139   18.9330 C   0  0  0  0  0  0  0  0  0  0  0  0
   47.0289   11.5207   19.6968 C   0  0  0  0  0  0  0  0  0  0  0  0
   48.7803    7.5430   17.5591 H   0  0  0  0  0  0  0  0  0  0  0  0
   47.6721    9.2550   17.0388 H   0  0  0  0  0  0  0  0  0  0  0  0
   49.3917    6.5979   19.8162 H   0  0  0  0  0  0  0  0  0  0  0  0
   47.6451    6.4646   20.0586 H   0  0  0  0  0  0  0  0  0  0  0  0
   49.2126   11.0299   20.3072 H   0  0  0  0  0  0  0  0  0  0  0  0
   47.4331   10.9986   20.5692 H   0  0  0  0  0  0  0  0  0  0  0  0
   48.5338   10.3756   21.7875 H   0  0  0  0  0  0  0  0  0  0  0  0
   46.7802   11.2621   18.3373 H   0  0  0  0  0  0  0  0  0  0  0  0
   47.6344   11.4986   16.8097 H   0  0  0  0  0  0  0  0  0  0  0  0
   48.5056   11.7480   18.3154 H   0  0  0  0  0  0  0  0  0  0  0  0
   50.5513    4.9428   18.5096 H   0  0  0  0  0  0  0  0  0  0  0  0
   46.2556    5.2250   18.2489 H   0  0  0  0  0  0  0  0  0  0  0  0
   50.4889    2.8709   17.1664 H   0  0  0  0  0  0  0  0  0  0  0  0
   46.2095    3.1468   16.9059 H   0  0  0  0  0  0  0  0  0  0  0  0
   48.3239    1.9670   16.3639 H   0  0  0  0  0  0  0  0  0  0  0  0
   48.7775    8.3795   17.0812 H   0  0  0  0  0  0  0  0  0  0  0  0
   48.0607    5.3706   18.4873 H   0  0  0  0  0  0  0  0  0  0  0  0
   47.9491    7.4694   17.4459 H   0  0  0  0  0  0  0  0  0  0  0  0
   46.8796    5.7213   16.9679 H   0  0  0  0  0  0  0  0  0  0  0  0
   49.9853    7.8180   18.8871 H   0  0  0  0  0  0  0  0  0  0  0  0
   48.9830    7.1713   20.1920 H   0  0  0  0  0  0  0  0  0  0  0  0
   49.3726    3.0057   18.3722 H   0  0  0  0  0  0  0  0  0  0  0  0
   50.3872    3.7523   17.0881 H   0  0  0  0  0  0  0  0  0  0  0  0
   50.9910    3.5886   18.7277 H   0  0  0  0  0  0  0  0  0  0  0  0
   46.7762    3.8434   15.7245 H   0  0  0  0  0  0  0  0  0  0  0  0
   47.3091    3.2252   17.2898 H   0  0  0  0  0  0  0  0  0  0  0  0
   48.4820    3.4946   15.9621 H   0  0  0  0  0  0  0  0  0  0  0  0
   46.6834    8.2717   20.6321 H   0  0  0  0  0  0  0  0  0  0  0  0
   49.7209   10.1080   18.1799 H   0  0  0  0  0  0  0  0  0  0  0  0
   45.5830   10.4720   20.9004 H   0  0  0  0  0  0  0  0  0  0  0  0
   48.6077   12.2957   18.4538 H   0  0  0  0  0  0  0  0  0  0  0  0
   46.5424   12.4854   19.8140 H   0  0  0  0  0  0  0  0  0  0  0  0
  2  1  2  0
  3  1  1  0
  4  1  1  0
  5  3  1  0
  6  5  1  0
  7  2  1  0
  8  4  1  0
  9  6  2  0
 10  6  1  0
 11  9  1  0
 12 10  2  0
 13 12  1  0
 11 13  2  0
 15 14  2  0
 16 14  2  0
 17 14  1  0
 18 14  1  0
 20 19  2  0
 21 19  1  0
 22 19  1  0
 23 21  1  0
 24 23  1  0
 25 20  1  0
 26 22  1  0
 27 24  2  0
 28 24  1  0
 29 27  1  0
 30 28  2  0
 31 30  1  0
 29 31  2  0
  3 32  1  0
  4 33  1  0
  5 34  1  0
  5 35  1  0
  7 36  1  0
  7 37  1  0
  7 38  1  0
  8 39  1  0
  8 40  1  0
  8 41  1  0
  9 42  1  0
 10 43  1  0
 11 44  1  0
 12 45  1  0
 13 46  1  0
 17 47  1  0
 18 48  1  0
 21 49  1  0
 22 50  1  0
 23 51  1  0
 23 52  1  0
 25 53  1  0
 25 54  1  0
 25 55  1  0
 26 56  1  0
 26 57  1  0
 26 58  1  0
 27 59  1  0
 28 60  1  0
 29 61  1  0
 30 62  1  0
 31 63  1  0
M  END
> <Uni-Dock RESULT> 
ENERGY=   -4.776  LOWER_BOUND=    8.332  UPPER_BOUND=   10.499
INTER + INTRA:          -4.776
INTER:                  -4.776
INTRA:                   0.000
UNBOUND:                 0.000

$$$$

     RDKit          3D

 63 62  0  0  0  0  0  0  0  0999 V2000
   40.3762   11.3446   11.4155 C   0  0  0  0  0  0  0  0  0  0  0  0
   39.7778   10.5302   10.6324 N   0  0  0  0  0  0  0  0  0  0  0  0
   41.7433   11.3610   11.4828 N   0  0  0  0  0  0  0  0  0  0  0  0
   39.9320   12.2937   12.2935 N   0  0  0  0  0  0  0  0  0  0  0  0
   42.5306   10.3861   10.7469 C   0  0  0  0  0  0  0  0  0  0  0  0
   43.9968   10.6263   11.0218 C   0  0  0  0  0  0  0  0  0  0  0  0
   38.3384   10.4326   10.5627 C   0  0  0  0  0  0  0  0  0  0  0  0
   38.6117   12.8744   12.3119 C   0  0  0  0  0  0  0  0  0  0  0  0
   44.7049    9.8004   11.9061 C   0  0  0  0  0  0  0  0  0  0  0  0
   44.6627   11.7041   10.4188 C   0  0  0  0  0  0  0  0  0  0  0  0
   46.0549   10.0392   12.1693 C   0  0  0  0  0  0  0  0  0  0  0  0
   46.0120   11.9416   10.6840 C   0  0  0  0  0  0  0  0  0  0  0  0
   46.7076   11.1081   11.5579 C   0  0  0  0  0  0  0  0  0  0  0  0
   41.7761   11.0765   11.0624 S   0  0  0  0  0  0  0  0  0  0  0  0
   41.7938    9.7092   10.6094 O   0  0  0  0  0  0  0  0  0  0  0  0
   40.8057   12.0516   10.6345 O   0  0  0  0  0  0  0  0  0  0  0  0
   41.7421   11.0770   12.6661 O   0  0  0  0  0  0  0  0  0  0  0  0
   43.2420   11.6660   10.7842 O   0  0  0  0  0  0  0  0  0  0  0  0
   43.7726   10.9485   11.6555 C   0  0  0  0  0  0  0  0  0  0  0  0
   44.0825    9.7148   11.7840 N   0  0  0  0  0  0  0  0  0  0  0  0
   42.4760   11.3135   11.4114 N   0  0  0  0  0  0  0  0  0  0  0  0
   44.4972   12.1059   11.7164 N   0  0  0  0  0  0  0  0  0  0  0  0
   41.4189   10.3170   11.4020 C   0  0  0  0  0  0  0  0  0  0  0  0
   40.1001   10.9993   11.1232 C   0  0  0  0  0  0  0  0  0  0  0  0
   45.4233    9.2778   12.0965 C   0  0  0  0  0  0  0  0  0  0  0  0
   45.9316   12.2114   11.6136 C   0  0  0  0  0  0  0  0  0  0  0  0
   39.7781   11.4112    9.8210 C   0  0  0  0  0  0  0  0  0  0  0  0
   39.1962   11.2633   12.1620 C   0  0  0  0  0  0  0  0  0  0  0  0
   38.5699   12.0593    9.5616 C   0  0  0  0  0  0  0  0  0  0  0  0
   37.9882   11.9120   11.9001 C   0  0  0  0  0  0  0  0  0  0  0  0
   37.6753   12.3083   10.6005 C   0  0  0  0  0  0  0  0  0  0  0  0
   42.0795   11.4673   12.4321 H   0  0  0  0  0  0  0  0  0  0  0  0
   40.6432   13.0057   12.4218 H   0  0  0  0  0  0  0  0  0  0  0  0
   42.2558    9.3672   11.0466 H   0  0  0  0  0  0  0  0  0  0  0  0
   42.3479   10.4718    9.6688 H   0  0  0  0  0  0  0  0  0  0  0  0
   37.8984   10.1973   11.5362 H   0  0  0  0  0  0  0  0  0  0  0  0
   37.8883   11.3369   10.1444 H   0  0  0  0  0  0  0  0  0  0  0  0
   38.0723    9.6089    9.8919 H   0  0  0  0  0  0  0  0  0  0  0  0
   38.3523   13.2965   11.3369 H   0  0  0  0  0  0  0  0  0  0  0  0
   38.5857   13.6903   13.0426 H   0  0  0  0  0  0  0  0  0  0  0  0
   37.8568   12.1478   12.6209 H   0  0  0  0  0  0  0  0  0  0  0  0
   44.2087    8.9642   12.3938 H   0  0  0  0  0  0  0  0  0  0  0  0
   44.1243   12.3642    9.7418 H   0  0  0  0  0  0  0  0  0  0  0  0
   46.5978    9.3913   12.8527 H   0  0  0  0  0  0  0  0  0  0  0  0
   46.5189   12.7778   10.2101 H   0  0  0  0  0  0  0  0  0  0  0  0
   47.7586   11.2928   11.7641 H   0  0  0  0  0  0  0  0  0  0  0  0
   41.4350   11.9636   12.9482 H   0  0  0  0  0  0  0  0  0  0  0  0
   43.8686   10.9139   10.8223 H   0  0  0  0  0  0  0  0  0  0  0  0
   42.2046   12.1359   11.9355 H   0  0  0  0  0  0  0  0  0  0  0  0
   44.0393   12.8305   11.1743 H   0  0  0  0  0  0  0  0  0  0  0  0
   41.3741    9.7972   12.3665 H   0  0  0  0  0  0  0  0  0  0  0  0
   41.6034    9.5607   10.6295 H   0  0  0  0  0  0  0  0  0  0  0  0
   46.1188    9.4800   11.2776 H   0  0  0  0  0  0  0  0  0  0  0  0
   45.7879    9.7170   13.0298 H   0  0  0  0  0  0  0  0  0  0  0  0
   45.4157    8.1926   12.2439 H   0  0  0  0  0  0  0  0  0  0  0  0
   46.2139   13.2687   11.5769 H   0  0  0  0  0  0  0  0  0  0  0  0
   46.2982   11.7403   10.6975 H   0  0  0  0  0  0  0  0  0  0  0  0
   46.4302   11.7795   12.4843 H   0  0  0  0  0  0  0  0  0  0  0  0
   40.4755   11.2289    9.0055 H   0  0  0  0  0  0  0  0  0  0  0  0
   39.4276   10.9633   13.1820 H   0  0  0  0  0  0  0  0  0  0  0  0
   38.3285   12.3720    8.5491 H   0  0  0  0  0  0  0  0  0  0  0  0
   37.2911   12.1094   12.7103 H   0  0  0  0  0  0  0  0  0  0  0  0
   36.7342   12.8128   10.3980 H   0  0  0  0  0  0  0  0  0  0  0  0
  2  1  2  0
  3  1  1  0
  4  1  1  0
  5  3  1  0
  6  5  1  0
  7  2  1  0
  8  4  1  0
  9  6  2  0
 10  6  1  0
 11  9  1  0
 12 10  2  0
 13 12  1  0
 11 13  2  0
 15 14  2  0
 16 14  2  0
 17 14  1  0
 18 14  1  0
 20 19  2  0
 21 19  1  0
 22 19  1  0
 23 21  1  0
 24 23  1  0
 25 20  1  0
 26 22  1  0
 27 24  2  0
 28 24  1  0
 29 27  1  0
 30 28  2  0
 31 30  1  0
 29 31  2  0
  3 32  1  0
  4 33  1  0
  5 34  1  0
  5 35  1  0
  7 36  1  0
  7 37  1  0
  7 38  1  0
  8 39  1  0
  8 40  1  0
  8 41  1  0
  9 42  1  0
 10 43  1  0
 11 44  1  0
 12 45  1  0
 13 46  1  0
 17 47  1  0
 18 48  1  0
 21 49  1  0
 22 50  1  0
 23 51  1  0
 23 52  1  0
 25 53  1  0
 25 54  1  0
 25 55  1  0
 26 56  1  0
 26 57  1  0
 26 58  1  0
 27 59  1  0
 28 60  1  0
 29 61  1  0
 30 62  1  0
 31 63  1  0
M  END
> <Uni-Dock RESULT> 
ENERGY=   -4.637  LOWER_BOUND=    7.135  UPPER_BOUND=    8.911
INTER + INTRA:          -4.637
INTER:                  -4.637
INTRA:                   0.000
UNBOUND:                 0.000

$$$$
