
     RDKit          3D

 63 62  0  0  0  0  0  0  0  0999 V2000
   48.3688    7.7090   12.7544 C   0  0  0  0  0  0  0  0  0  0  0  0
   49.2318    7.4627   11.8311 N   0  0  0  0  0  0  0  0  0  0  0  0
   47.0761    7.2970   12.6341 N   0  0  0  0  0  0  0  0  0  0  0  0
   48.5857    8.3833   13.9240 N   0  0  0  0  0  0  0  0  0  0  0  0
   46.6679    6.4027   11.5665 C   0  0  0  0  0  0  0  0  0  0  0  0
   45.2937    5.8503   11.8775 C   0  0  0  0  0  0  0  0  0  0  0  0
   50.6128    7.8880   11.9892 C   0  0  0  0  0  0  0  0  0  0  0  0
   47.6354    9.3307   14.4813 C   0  0  0  0  0  0  0  0  0  0  0  0
   44.1394    6.5952   11.5952 C   0  0  0  0  0  0  0  0  0  0  0  0
   45.1610    4.5895   12.4858 C   0  0  0  0  0  0  0  0  0  0  0  0
   42.8743    6.0869   11.9076 C   0  0  0  0  0  0  0  0  0  0  0  0
   43.8953    4.0831   12.7966 C   0  0  0  0  0  0  0  0  0  0  0  0
   42.7544    4.8318   12.5096 C   0  0  0  0  0  0  0  0  0  0  0  0
   46.4007    7.1374   12.7839 S   0  0  0  0  0  0  0  0  0  0  0  0
   47.2053    6.5584   13.8338 O   0  0  0  0  0  0  0  0  0  0  0  0
   45.1853    7.8718   13.0442 O   0  0  0  0  0  0  0  0  0  0  0  0
   46.0354    5.9390   11.7782 O   0  0  0  0  0  0  0  0  0  0  0  0
   47.3849    8.0504   11.9022 O   0  0  0  0  0  0  0  0  0  0  0  0
   48.0342    8.0495   13.1268 C   0  0  0  0  0  0  0  0  0  0  0  0
   49.1601    7.4876   13.3920 N   0  0  0  0  0  0  0  0  0  0  0  0
   46.9822    7.3294   12.6452 N   0  0  0  0  0  0  0  0  0  0  0  0
   47.7244    9.3751   13.2678 N   0  0  0  0  0  0  0  0  0  0  0  0
   47.0539    5.8829   12.5129 C   0  0  0  0  0  0  0  0  0  0  0  0
   45.6847    5.3484   12.1580 C   0  0  0  0  0  0  0  0  0  0  0  0
   50.2551    8.2826   13.9111 C   0  0  0  0  0  0  0  0  0  0  0  0
   46.9846   10.1070   12.2566 C   0  0  0  0  0  0  0  0  0  0  0  0
   45.1402    5.5593   10.8789 C   0  0  0  0  0  0  0  0  0  0  0  0
   44.9221    4.6620   13.1153 C   0  0  0  0  0  0  0  0  0  0  0  0
   43.8634    5.0908   10.5697 C   0  0  0  0  0  0  0  0  0  0  0  0
   43.6424    4.2014   12.8057 C   0  0  0  0  0  0  0  0  0  0  0  0
   43.1093    4.4217   11.5354 C   0  0  0  0  0  0  0  0  0  0  0  0
   46.6650    7.0564   13.5299 H   0  0  0  0  0  0  0  0  0  0  0  0
   49.5291    8.7451   13.9878 H   0  0  0  0  0  0  0  0  0  0  0  0
   46.6413    6.9403   10.6099 H   0  0  0  0  0  0  0  0  0  0  0  0
   47.3776    5.5749   11.4559 H   0  0  0  0  0  0  0  0  0  0  0  0
   51.2309    7.3898   11.2376 H   0  0  0  0  0  0  0  0  0  0  0  0
   51.0246    7.5974   12.9639 H   0  0  0  0  0  0  0  0  0  0  0  0
   50.7143    8.9701   11.8500 H   0  0  0  0  0  0  0  0  0  0  0  0
   48.0729    9.7959   15.3706 H   0  0  0  0  0  0  0  0  0  0  0  0
   47.4127   10.1277   13.7659 H   0  0  0  0  0  0  0  0  0  0  0  0
   46.7074    8.8401   14.7866 H   0  0  0  0  0  0  0  0  0  0  0  0
   44.2251    7.5712   11.1255 H   0  0  0  0  0  0  0  0  0  0  0  0
   46.0450    3.9969   12.7265 H   0  0  0  0  0  0  0  0  0  0  0  0
   41.9847    6.6760   11.6882 H   0  0  0  0  0  0  0  0  0  0  0  0
   43.8025    3.1105   13.2743 H   0  0  0  0  0  0  0  0  0  0  0  0
   41.7740    4.4373   12.7587 H   0  0  0  0  0  0  0  0  0  0  0  0
   45.4931    5.2894   12.2684 H   0  0  0  0  0  0  0  0  0  0  0  0
   48.3023    7.7502   12.0672 H   0  0  0  0  0  0  0  0  0  0  0  0
   46.0874    7.6652   12.9690 H   0  0  0  0  0  0  0  0  0  0  0  0
   48.5108    9.9221   13.5977 H   0  0  0  0  0  0  0  0  0  0  0  0
   47.3900    5.4281   13.4555 H   0  0  0  0  0  0  0  0  0  0  0  0
   47.7705    5.6014   11.7307 H   0  0  0  0  0  0  0  0  0  0  0  0
   51.0701    7.6143   14.2166 H   0  0  0  0  0  0  0  0  0  0  0  0
   49.9659    8.8623   14.7993 H   0  0  0  0  0  0  0  0  0  0  0  0
   50.6443    8.9666   13.1434 H   0  0  0  0  0  0  0  0  0  0  0  0
   45.9481    9.7572   12.1662 H   0  0  0  0  0  0  0  0  0  0  0  0
   47.4703   10.0101   11.2785 H   0  0  0  0  0  0  0  0  0  0  0  0
   46.9637   11.1692   12.5159 H   0  0  0  0  0  0  0  0  0  0  0  0
   45.7116    6.0901   10.1228 H   0  0  0  0  0  0  0  0  0  0  0  0
   45.3266    4.4798   14.1114 H   0  0  0  0  0  0  0  0  0  0  0  0
   43.4471    5.2645    9.5792 H   0  0  0  0  0  0  0  0  0  0  0  0
   43.0575    3.6843   13.5589 H   0  0  0  0  0  0  0  0  0  0  0  0
   42.1074    4.0737   11.2909 H   0  0  0  0  0  0  0  0  0  0  0  0
  2  1  2  0
  3  1  1  0
  4  1  1  0
  5  3  1  0
  6  5  1  0
  7  2  1  0
  8  4  1  0
  9  6  2  0
 10  6  1  0
 11  9  1  0
 12 10  2  0
 13 12  1  0
 11 13  2  0
 15 14  2  0
 16 14  2  0
 17 14  1  0
 18 14  1  0
 20 19  2  0
 21 19  1  0
 22 19  1  0
 23 21  1  0
 24 23  1  0
 25 20  1  0
 26 22  1  0
 27 24  2  0
 28 24  1  0
 29 27  1  0
 30 28  2  0
 31 30  1  0
 29 31  2  0
  3 32  1  0
  4 33  1  0
  5 34  1  0
  5 35  1  0
  7 36  1  0
  7 37  1  0
  7 38  1  0
  8 39  1  0
  8 40  1  0
  8 41  1  0
  9 42  1  0
 10 43  1  0
 11 44  1  0
 12 45  1  0
 13 46  1  0
 17 47  1  0
 18 48  1  0
 21 49  1  0
 22 50  1  0
 23 51  1  0
 23 52  1  0
 25 53  1  0
 25 54  1  0
 25 55  1  0
 26 56  1  0
 26 57  1  0
 26 58  1  0
 27 59  1  0
 28 60  1  0
 29 61  1  0
 30 62  1  0
 31 63  1  0
M  END
> <Uni-Dock RESULT> 
ENERGY=   -5.611  LOWER_BOUND=    0.000  UPPER_BOUND=    0.000
INTER + INTRA:          -5.611
INTER:                  -5.611
INTRA:                   0.000
UNBOUND:                 0.000

$$$$

     RDKit          3D

 63 62  0  0  0  0  0  0  0  0999 V2000
   48.5226    4.3855   17.8197 C   0  0  0  0  0  0  0  0  0  0  0  0
   47.5782    4.7528   17.0252 N   0  0  0  0  0  0  0  0  0  0  0  0
   48.7273    5.0210   19.0069 N   0  0  0  0  0  0  0  0  0  0  0  0
   49.4199    3.3736   17.6180 N   0  0  0  0  0  0  0  0  0  0  0  0
   47.7788    5.9969   19.5110 C   0  0  0  0  0  0  0  0  0  0  0  0
   48.0741    6.2712   20.9697 C   0  0  0  0  0  0  0  0  0  0  0  0
   47.3591    4.0457   15.7742 C   0  0  0  0  0  0  0  0  0  0  0  0
   50.8259    3.4787   17.9688 C   0  0  0  0  0  0  0  0  0  0  0  0
   49.0843    7.1704   21.3413 C   0  0  0  0  0  0  0  0  0  0  0  0
   47.3551    5.5990   21.9738 C   0  0  0  0  0  0  0  0  0  0  0  0
   49.3666    7.4002   22.6918 C   0  0  0  0  0  0  0  0  0  0  0  0
   47.6384    5.8309   23.3233 C   0  0  0  0  0  0  0  0  0  0  0  0
   48.6439    6.7285   23.6810 C   0  0  0  0  0  0  0  0  0  0  0  0
   48.9613    5.1765   19.6589 S   0  0  0  0  0  0  0  0  0  0  0  0
   48.5392    3.7961   19.6891 O   0  0  0  0  0  0  0  0  0  0  0  0
   50.2006    5.6288   20.2453 O   0  0  0  0  0  0  0  0  0  0  0  0
   47.7727    6.0297   20.3227 O   0  0  0  0  0  0  0  0  0  0  0  0
   48.9110    5.6382   18.1214 O   0  0  0  0  0  0  0  0  0  0  0  0
   49.0914    4.2700   17.9919 C   0  0  0  0  0  0  0  0  0  0  0  0
   48.2346    3.4283   17.5323 N   0  0  0  0  0  0  0  0  0  0  0  0
   48.7999    5.0599   19.0634 N   0  0  0  0  0  0  0  0  0  0  0  0
   50.3520    4.5033   17.5127 N   0  0  0  0  0  0  0  0  0  0  0  0
   47.5529    4.9095   19.7963 C   0  0  0  0  0  0  0  0  0  0  0  0
   47.6027    5.7653   21.0419 C   0  0  0  0  0  0  0  0  0  0  0  0
   48.5814    2.5978   16.3963 C   0  0  0  0  0  0  0  0  0  0  0  0
   50.8829    5.8447   17.3571 C   0  0  0  0  0  0  0  0  0  0  0  0
   47.5228    7.1663   20.9549 C   0  0  0  0  0  0  0  0  0  0  0  0
   47.7647    5.1719   22.3032 C   0  0  0  0  0  0  0  0  0  0  0  0
   47.6018    7.9502   22.1059 C   0  0  0  0  0  0  0  0  0  0  0  0
   47.8511    5.9587   23.4516 C   0  0  0  0  0  0  0  0  0  0  0  0
   47.7771    7.3484   23.3532 C   0  0  0  0  0  0  0  0  0  0  0  0
   49.0657    4.3908   19.7263 H   0  0  0  0  0  0  0  0  0  0  0  0
   49.3104    2.9406   16.7095 H   0  0  0  0  0  0  0  0  0  0  0  0
   47.8531    6.9301   18.9380 H   0  0  0  0  0  0  0  0  0  0  0  0
   46.7502    5.6325   19.4091 H   0  0  0  0  0  0  0  0  0  0  0  0
   46.3889    4.3357   15.3623 H   0  0  0  0  0  0  0  0  0  0  0  0
   47.3169    2.9586   15.9171 H   0  0  0  0  0  0  0  0  0  0  0  0
   48.1300    4.2944   15.0363 H   0  0  0  0  0  0  0  0  0  0  0  0
   51.3471    2.5758   17.6344 H   0  0  0  0  0  0  0  0  0  0  0  0
   51.2906    4.3338   17.4694 H   0  0  0  0  0  0  0  0  0  0  0  0
   50.9678    3.5620   19.0496 H   0  0  0  0  0  0  0  0  0  0  0  0
   49.6491    7.6975   20.5773 H   0  0  0  0  0  0  0  0  0  0  0  0
   46.5731    4.8855   21.7094 H   0  0  0  0  0  0  0  0  0  0  0  0
   50.1565    8.0971   22.9690 H   0  0  0  0  0  0  0  0  0  0  0  0
   47.0828    5.3006   24.0932 H   0  0  0  0  0  0  0  0  0  0  0  0
   48.8649    6.9004   24.7300 H   0  0  0  0  0  0  0  0  0  0  0  0
   47.6843    5.7479   21.2550 H   0  0  0  0  0  0  0  0  0  0  0  0
   48.3199    5.0223   17.6415 H   0  0  0  0  0  0  0  0  0  0  0  0
   49.5987    5.2446   19.6518 H   0  0  0  0  0  0  0  0  0  0  0  0
   50.5652    3.9404   16.6977 H   0  0  0  0  0  0  0  0  0  0  0  0
   47.4002    3.8589   20.0813 H   0  0  0  0  0  0  0  0  0  0  0  0
   46.7007    5.2157   19.1760 H   0  0  0  0  0  0  0  0  0  0  0  0
   47.7948    1.8475   16.2472 H   0  0  0  0  0  0  0  0  0  0  0  0
   49.5218    2.0499   16.5513 H   0  0  0  0  0  0  0  0  0  0  0  0
   48.6592    3.1979   15.4784 H   0  0  0  0  0  0  0  0  0  0  0  0
   51.0337    6.3459   18.3219 H   0  0  0  0  0  0  0  0  0  0  0  0
   50.2076    6.4581   16.7491 H   0  0  0  0  0  0  0  0  0  0  0  0
   51.8471    5.7991   16.8431 H   0  0  0  0  0  0  0  0  0  0  0  0
   47.3996    7.6475   19.9888 H   0  0  0  0  0  0  0  0  0  0  0  0
   47.8213    4.0869   22.3960 H   0  0  0  0  0  0  0  0  0  0  0  0
   47.5459    9.0344   22.0285 H   0  0  0  0  0  0  0  0  0  0  0  0
   47.9903    5.4886   24.4193 H   0  0  0  0  0  0  0  0  0  0  0  0
   47.8541    7.9683   24.2446 H   0  0  0  0  0  0  0  0  0  0  0  0
  2  1  2  0
  3  1  1  0
  4  1  1  0
  5  3  1  0
  6  5  1  0
  7  2  1  0
  8  4  1  0
  9  6  2  0
 10  6  1  0
 11  9  1  0
 12 10  2  0
 13 12  1  0
 11 13  2  0
 15 14  2  0
 16 14  2  0
 17 14  1  0
 18 14  1  0
 20 19  2  0
 21 19  1  0
 22 19  1  0
 23 21  1  0
 24 23  1  0
 25 20  1  0
 26 22  1  0
 27 24  2  0
 28 24  1  0
 29 27  1  0
 30 28  2  0
 31 30  1  0
 29 31  2  0
  3 32  1  0
  4 33  1  0
  5 34  1  0
  5 35  1  0
  7 36  1  0
  7 37  1  0
  7 38  1  0
  8 39  1  0
  8 40  1  0
  8 41  1  0
  9 42  1  0
 10 43  1  0
 11 44  1  0
 12 45  1  0
 13 46  1  0
 17 47  1  0
 18 48  1  0
 21 49  1  0
 22 50  1  0
 23 51  1  0
 23 52  1  0
 25 53  1  0
 25 54  1  0
 25 55  1  0
 26 56  1  0
 26 57  1  0
 26 58  1  0
 27 59  1  0
 28 60  1  0
 29 61  1  0
 30 62  1  0
 31 63  1  0
M  END
> <Uni-Dock RESULT> 
ENERGY=   -4.970  LOWER_BOUND=    6.980  UPPER_BOUND=    8.904
INTER + INTRA:          -4.970
INTER:                  -4.970
INTRA:                   0.000
UNBOUND:                 0.000

$$$$

     RDKit          3D

 63 62  0  0  0  0  0  0  0  0999 V2000
   56.2065    3.9897   10.5396 C   0  0  0  0  0  0  0  0  0  0  0  0
   56.9283    3.1234    9.9178 N   0  0  0  0  0  0  0  0  0  0  0  0
   55.6909    5.0696    9.8891 N   0  0  0  0  0  0  0  0  0  0  0  0
   55.8658    3.9775   11.8638 N   0  0  0  0  0  0  0  0  0  0  0  0
   55.7663    5.1841    8.4444 C   0  0  0  0  0  0  0  0  0  0  0  0
   54.8303    6.2797    7.9820 C   0  0  0  0  0  0  0  0  0  0  0  0
   57.4483    1.9638   10.6233 C   0  0  0  0  0  0  0  0  0  0  0  0
   55.8391    5.1745   12.6869 C   0  0  0  0  0  0  0  0  0  0  0  0
   55.2189    7.6262    8.0351 C   0  0  0  0  0  0  0  0  0  0  0  0
   53.5413    5.9586    7.5209 C   0  0  0  0  0  0  0  0  0  0  0  0
   54.3388    8.6341    7.6279 C   0  0  0  0  0  0  0  0  0  0  0  0
   52.6634    6.9678    7.1136 C   0  0  0  0  0  0  0  0  0  0  0  0
   53.0612    8.3032    7.1691 C   0  0  0  0  0  0  0  0  0  0  0  0
   55.3059    5.6460    9.7358 S   0  0  0  0  0  0  0  0  0  0  0  0
   54.3869    4.6607   10.2546 O   0  0  0  0  0  0  0  0  0  0  0  0
   55.2844    7.0296   10.1478 O   0  0  0  0  0  0  0  0  0  0  0  0
   55.1503    5.6153    8.1371 O   0  0  0  0  0  0  0  0  0  0  0  0
   56.7836    5.0571    9.9579 O   0  0  0  0  0  0  0  0  0  0  0  0
   56.0758    4.4080   10.9573 C   0  0  0  0  0  0  0  0  0  0  0  0
   55.8112    3.1507   11.0103 N   0  0  0  0  0  0  0  0  0  0  0  0
   55.6799    5.1685    9.8981 N   0  0  0  0  0  0  0  0  0  0  0  0
   56.7577    5.1437   11.8884 N   0  0  0  0  0  0  0  0  0  0  0  0
   54.8517    4.6156    8.8383 C   0  0  0  0  0  0  0  0  0  0  0  0
   54.4043    5.7333    7.9235 C   0  0  0  0  0  0  0  0  0  0  0  0
   56.2401    2.3738   12.1561 C   0  0  0  0  0  0  0  0  0  0  0  0
   57.7653    6.1187   11.5150 C   0  0  0  0  0  0  0  0  0  0  0  0
   55.3146    6.3566    7.0519 C   0  0  0  0  0  0  0  0  0  0  0  0
   53.0772    6.1883    7.9574 C   0  0  0  0  0  0  0  0  0  0  0  0
   54.9013    7.4084    6.2344 C   0  0  0  0  0  0  0  0  0  0  0  0
   52.6686    7.2454    7.1443 C   0  0  0  0  0  0  0  0  0  0  0  0
   53.5817    7.8609    6.2878 C   0  0  0  0  0  0  0  0  0  0  0  0
   54.7886    5.3468   10.2609 H   0  0  0  0  0  0  0  0  0  0  0  0
   56.2990    3.2108   12.3633 H   0  0  0  0  0  0  0  0  0  0  0  0
   56.7924    5.4209    8.1350 H   0  0  0  0  0  0  0  0  0  0  0  0
   55.4897    4.2398    7.9616 H   0  0  0  0  0  0  0  0  0  0  0  0
   57.8204    1.2373    9.8961 H   0  0  0  0  0  0  0  0  0  0  0  0
   56.6693    1.4478   11.1986 H   0  0  0  0  0  0  0  0  0  0  0  0
   58.2780    2.2390   11.2840 H   0  0  0  0  0  0  0  0  0  0  0  0
   55.6195    4.8929   13.7219 H   0  0  0  0  0  0  0  0  0  0  0  0
   56.8112    5.6761   12.6791 H   0  0  0  0  0  0  0  0  0  0  0  0
   55.0625    5.8717   12.3614 H   0  0  0  0  0  0  0  0  0  0  0  0
   56.2115    7.8907    8.3892 H   0  0  0  0  0  0  0  0  0  0  0  0
   53.2118    4.9192    7.4822 H   0  0  0  0  0  0  0  0  0  0  0  0
   54.6493    9.6770    7.6778 H   0  0  0  0  0  0  0  0  0  0  0  0
   51.6654    6.7109    6.7660 H   0  0  0  0  0  0  0  0  0  0  0  0
   52.3738    9.0838    6.8580 H   0  0  0  0  0  0  0  0  0  0  0  0
   54.2376    5.8900    7.9182 H   0  0  0  0  0  0  0  0  0  0  0  0
   56.7070    4.0876   10.0724 H   0  0  0  0  0  0  0  0  0  0  0  0
   55.4363    6.1136   10.1546 H   0  0  0  0  0  0  0  0  0  0  0  0
   57.0808    4.5790   12.6651 H   0  0  0  0  0  0  0  0  0  0  0  0
   53.9693    4.1161    9.2627 H   0  0  0  0  0  0  0  0  0  0  0  0
   55.4120    3.8707    8.2587 H   0  0  0  0  0  0  0  0  0  0  0  0
   55.7973    1.3716   12.0961 H   0  0  0  0  0  0  0  0  0  0  0  0
   55.9084    2.8144   13.1072 H   0  0  0  0  0  0  0  0  0  0  0  0
   57.3339    2.2634   12.1704 H   0  0  0  0  0  0  0  0  0  0  0  0
   57.3350    6.9779   10.9844 H   0  0  0  0  0  0  0  0  0  0  0  0
   58.5261    5.6597   10.8727 H   0  0  0  0  0  0  0  0  0  0  0  0
   58.2659    6.4899   12.4136 H   0  0  0  0  0  0  0  0  0  0  0  0
   56.3474    6.0225    7.0106 H   0  0  0  0  0  0  0  0  0  0  0  0
   52.3516    5.7151    8.6196 H   0  0  0  0  0  0  0  0  0  0  0  0
   55.6144    7.8897    5.5677 H   0  0  0  0  0  0  0  0  0  0  0  0
   51.6433    7.5969    7.1900 H   0  0  0  0  0  0  0  0  0  0  0  0
   53.2715    8.6930    5.6584 H   0  0  0  0  0  0  0  0  0  0  0  0
  2  1  2  0
  3  1  1  0
  4  1  1  0
  5  3  1  0
  6  5  1  0
  7  2  1  0
  8  4  1  0
  9  6  2  0
 10  6  1  0
 11  9  1  0
 12 10  2  0
 13 12  1  0
 11 13  2  0
 15 14  2  0
 16 14  2  0
 17 14  1  0
 18 14  1  0
 20 19  2  0
 21 19  1  0
 22 19  1  0
 23 21  1  0
 24 23  1  0
 25 20  1  0
 26 22  1  0
 27 24  2  0
 28 24  1  0
 29 27  1  0
 30 28  2  0
 31 30  1  0
 29 31  2  0
  3 32  1  0
  4 33  1  0
  5 34  1  0
  5 35  1  0
  7 36  1  0
  7 37  1  0
  7 38  1  0
  8 39  1  0
  8 40  1  0
  8 41  1  0
  9 42  1  0
 10 43  1  0
 11 44  1  0
 12 45  1  0
 13 46  1  0
 17 47  1  0
 18 48  1  0
 21 49  1  0
 22 50  1  0
 23 51  1  0
 23 52  1  0
 25 53  1  0
 25 54  1  0
 25 55  1  0
 26 56  1  0
 26 57  1  0
 26 58  1  0
 27 59  1  0
 28 60  1  0
 29 61  1  0
 30 62  1  0
 31 63  1  0
M  END
> <Uni-Dock RESULT> 
ENERGY=   -4.713  LOWER_BOUND=    8.912  UPPER_BOUND=   10.108
INTER + INTRA:          -4.713
INTER:                  -4.713
INTRA:                   0.000
UNBOUND:                 0.000

$$$$

     RDKit          3D

 63 62  0  0  0  0  0  0  0  0999 V2000
   48.0091    8.8721   19.4506 C   0  0  0  0  0  0  0  0  0  0  0  0
   47.6736    8.9779   20.6893 N   0  0  0  0  0  0  0  0  0  0  0  0
   48.3469    7.6658   18.9160 N   0  0  0  0  0  0  0  0  0  0  0  0
   48.0849    9.8806   18.5303 N   0  0  0  0  0  0  0  0  0  0  0  0
   48.1544    6.4336   19.6582 C   0  0  0  0  0  0  0  0  0  0  0  0
   48.2833    5.2580   18.7140 C   0  0  0  0  0  0  0  0  0  0  0  0
   47.2914   10.2697   21.2353 C   0  0  0  0  0  0  0  0  0  0  0  0
   49.1476    9.9761   17.5441 C   0  0  0  0  0  0  0  0  0  0  0  0
   49.5442    4.7590   18.3562 C   0  0  0  0  0  0  0  0  0  0  0  0
   47.1334    4.6705   18.1575 C   0  0  0  0  0  0  0  0  0  0  0  0
   49.6549    3.6872   17.4644 C   0  0  0  0  0  0  0  0  0  0  0  0
   47.2463    3.5987   17.2668 C   0  0  0  0  0  0  0  0  0  0  0  0
   48.5053    3.1096   16.9196 C   0  0  0  0  0  0  0  0  0  0  0  0
   48.5021    7.1519   18.4514 S   0  0  0  0  0  0  0  0  0  0  0  0
   47.3079    7.8018   17.9656 O   0  0  0  0  0  0  0  0  0  0  0  0
   49.6149    6.8177   17.5944 O   0  0  0  0  0  0  0  0  0  0  0  0
   48.0220    5.7977   19.1703 O   0  0  0  0  0  0  0  0  0  0  0  0
   49.0366    8.0346   19.6822 O   0  0  0  0  0  0  0  0  0  0  0  0
   48.3338    8.9794   18.9510 C   0  0  0  0  0  0  0  0  0  0  0  0
   47.2409    9.5579   19.3041 N   0  0  0  0  0  0  0  0  0  0  0  0
   48.4159    7.6223   18.8583 N   0  0  0  0  0  0  0  0  0  0  0  0
   49.5195    9.5859   18.6358 N   0  0  0  0  0  0  0  0  0  0  0  0
   47.2463    6.7795   19.0495 C   0  0  0  0  0  0  0  0  0  0  0  0
   47.5955    5.3548   18.6826 C   0  0  0  0  0  0  0  0  0  0  0  0
   47.1868   11.0040   19.3840 C   0  0  0  0  0  0  0  0  0  0  0  0
   50.7941    9.0863   19.1165 C   0  0  0  0  0  0  0  0  0  0  0  0
   48.4344    4.5852   19.5076 C   0  0  0  0  0  0  0  0  0  0  0  0
   47.1128    4.7914   17.4915 C   0  0  0  0  0  0  0  0  0  0  0  0
   48.7776    3.2826   19.1458 C   0  0  0  0  0  0  0  0  0  0  0  0
   47.4639    3.4912   17.1284 C   0  0  0  0  0  0  0  0  0  0  0  0
   48.3022    2.7386   17.9513 C   0  0  0  0  0  0  0  0  0  0  0  0
   48.0732    7.5873   17.9423 H   0  0  0  0  0  0  0  0  0  0  0  0
   47.8955   10.7870   18.9394 H   0  0  0  0  0  0  0  0  0  0  0  0
   48.9036    6.3497   20.4559 H   0  0  0  0  0  0  0  0  0  0  0  0
   47.1674    6.4131   20.1342 H   0  0  0  0  0  0  0  0  0  0  0  0
   46.8178   10.1225   22.2095 H   0  0  0  0  0  0  0  0  0  0  0  0
   46.5481   10.7784   20.6086 H   0  0  0  0  0  0  0  0  0  0  0  0
   48.1647   10.9163   21.3759 H   0  0  0  0  0  0  0  0  0  0  0  0
   49.0327   10.9090   16.9827 H   0  0  0  0  0  0  0  0  0  0  0  0
   50.1286    9.9988   18.0275 H   0  0  0  0  0  0  0  0  0  0  0  0
   49.1093    9.1514   16.8274 H   0  0  0  0  0  0  0  0  0  0  0  0
   50.4424    5.2022   18.7773 H   0  0  0  0  0  0  0  0  0  0  0  0
   46.1420    5.0494   18.4110 H   0  0  0  0  0  0  0  0  0  0  0  0
   50.6394    3.3106   17.1898 H   0  0  0  0  0  0  0  0  0  0  0  0
   46.3520    3.1555   16.8350 H   0  0  0  0  0  0  0  0  0  0  0  0
   48.5884    2.2814   16.2225 H   0  0  0  0  0  0  0  0  0  0  0  0
   47.6070    5.2279   18.4925 H   0  0  0  0  0  0  0  0  0  0  0  0
   48.2902    8.5774   20.0096 H   0  0  0  0  0  0  0  0  0  0  0  0
   49.0272    7.3092   18.1190 H   0  0  0  0  0  0  0  0  0  0  0  0
   49.4746   10.5936   18.7309 H   0  0  0  0  0  0  0  0  0  0  0  0
   46.4166    7.1263   18.4173 H   0  0  0  0  0  0  0  0  0  0  0  0
   46.9099    6.8163   20.0937 H   0  0  0  0  0  0  0  0  0  0  0  0
   46.1476   11.3154   19.5489 H   0  0  0  0  0  0  0  0  0  0  0  0
   47.5224   11.4863   18.4549 H   0  0  0  0  0  0  0  0  0  0  0  0
   47.7917   11.3753   20.2236 H   0  0  0  0  0  0  0  0  0  0  0  0
   51.0473    8.1101   18.6831 H   0  0  0  0  0  0  0  0  0  0  0  0
   50.7827    8.9889   20.2084 H   0  0  0  0  0  0  0  0  0  0  0  0
   51.5868    9.7917   18.8519 H   0  0  0  0  0  0  0  0  0  0  0  0
   48.8216    5.0016   20.4332 H   0  0  0  0  0  0  0  0  0  0  0  0
   46.4544    5.3664   16.8397 H   0  0  0  0  0  0  0  0  0  0  0  0
   49.4331    2.6964   19.7871 H   0  0  0  0  0  0  0  0  0  0  0  0
   47.0954    3.0720   16.1981 H   0  0  0  0  0  0  0  0  0  0  0  0
   48.5881    1.7272   17.6684 H   0  0  0  0  0  0  0  0  0  0  0  0
  2  1  2  0
  3  1  1  0
  4  1  1  0
  5  3  1  0
  6  5  1  0
  7  2  1  0
  8  4  1  0
  9  6  2  0
 10  6  1  0
 11  9  1  0
 12 10  2  0
 13 12  1  0
 11 13  2  0
 15 14  2  0
 16 14  2  0
 17 14  1  0
 18 14  1  0
 20 19  2  0
 21 19  1  0
 22 19  1  0
 23 21  1  0
 24 23  1  0
 25 20  1  0
 26 22  1  0
 27 24  2  0
 28 24  1  0
 29 27  1  0
 30 28  2  0
 31 30  1  0
 29 31  2  0
  3 32  1  0
  4 33  1  0
  5 34  1  0
  5 35  1  0
  7 36  1  0
  7 37  1  0
  7 38  1  0
  8 39  1  0
  8 40  1  0
  8 41  1  0
  9 42  1  0
 10 43  1  0
 11 44  1  0
 12 45  1  0
 13 46  1  0
 17 47  1  0
 18 48  1  0
 21 49  1  0
 22 50  1  0
 23 51  1  0
 23 52  1  0
 25 53  1  0
 25 54  1  0
 25 55  1  0
 26 56  1  0
 26 57  1  0
 26 58  1  0
 27 59  1  0
 28 60  1  0
 29 61  1  0
 30 62  1  0
 31 63  1  0
M  END
> <Uni-Dock RESULT> 
ENERGY=   -4.663  LOWER_BOUND=    5.893  UPPER_BOUND=    7.185
INTER + INTRA:          -4.663
INTER:                  -4.663
INTRA:                   0.000
UNBOUND:                 0.000

$$$$

     RDKit          3D

 63 62  0  0  0  0  0  0  0  0999 V2000
   52.8675    5.2126   19.6604 C   0  0  0  0  0  0  0  0  0  0  0  0
   53.6512    5.8895   18.8950 N   0  0  0  0  0  0  0  0  0  0  0  0
   51.5689    4.9909   19.3147 N   0  0  0  0  0  0  0  0  0  0  0  0
   53.1811    4.6487   20.8660 N   0  0  0  0  0  0  0  0  0  0  0  0
   51.0729    5.3335   17.9946 C   0  0  0  0  0  0  0  0  0  0  0  0
   49.7285    4.6725   17.7805 C   0  0  0  0  0  0  0  0  0  0  0  0
   55.0409    6.0937   19.2689 C   0  0  0  0  0  0  0  0  0  0  0  0
   52.2811    4.6638   22.0066 C   0  0  0  0  0  0  0  0  0  0  0  0
   48.5556    5.2486   18.2900 C   0  0  0  0  0  0  0  0  0  0  0  0
   49.6450    3.4497   17.0914 C   0  0  0  0  0  0  0  0  0  0  0  0
   47.3200    4.6188   18.1079 C   0  0  0  0  0  0  0  0  0  0  0  0
   48.4087    2.8222   16.9099 C   0  0  0  0  0  0  0  0  0  0  0  0
   47.2488    3.4052   17.4193 C   0  0  0  0  0  0  0  0  0  0  0  0
   50.9080    4.7319   19.3000 S   0  0  0  0  0  0  0  0  0  0  0  0
   51.7958    3.5959   19.3772 O   0  0  0  0  0  0  0  0  0  0  0  0
   49.7191    4.8523   20.1101 O   0  0  0  0  0  0  0  0  0  0  0  0
   50.4595    4.8543   17.7621 O   0  0  0  0  0  0  0  0  0  0  0  0
   51.8171    6.0397   19.5076 O   0  0  0  0  0  0  0  0  0  0  0  0
   52.5652    5.0771   20.1672 C   0  0  0  0  0  0  0  0  0  0  0  0
   53.7086    4.6169   19.8002 N   0  0  0  0  0  0  0  0  0  0  0  0
   51.4763    4.9938   19.3521 N   0  0  0  0  0  0  0  0  0  0  0  0
   52.2697    5.6915   21.3539 N   0  0  0  0  0  0  0  0  0  0  0  0
   51.5351    4.2878   18.0821 C   0  0  0  0  0  0  0  0  0  0  0  0
   50.1406    4.1842   17.5067 C   0  0  0  0  0  0  0  0  0  0  0  0
   54.8436    4.7148   20.6961 C   0  0  0  0  0  0  0  0  0  0  0  0
   51.4498    6.8868   21.4215 C   0  0  0  0  0  0  0  0  0  0  0  0
   49.4927    5.3174   16.9843 C   0  0  0  0  0  0  0  0  0  0  0  0
   49.4589    2.9576   17.5178 C   0  0  0  0  0  0  0  0  0  0  0  0
   48.1942    5.2198   16.4846 C   0  0  0  0  0  0  0  0  0  0  0  0
   48.1576    2.8647   17.0246 C   0  0  0  0  0  0  0  0  0  0  0  0
   47.5217    3.9969   16.5144 C   0  0  0  0  0  0  0  0  0  0  0  0
   51.2329    4.0912   19.6418 H   0  0  0  0  0  0  0  0  0  0  0  0
   54.1269    4.8649   21.1551 H   0  0  0  0  0  0  0  0  0  0  0  0
   50.9681    6.4218   17.8988 H   0  0  0  0  0  0  0  0  0  0  0  0
   51.7701    5.0031   17.2161 H   0  0  0  0  0  0  0  0  0  0  0  0
   55.5943    6.4703   18.4045 H   0  0  0  0  0  0  0  0  0  0  0  0
   55.5314    5.1563   19.5600 H   0  0  0  0  0  0  0  0  0  0  0  0
   55.1318    6.8279   20.0771 H   0  0  0  0  0  0  0  0  0  0  0  0
   52.7910    4.2264   22.8712 H   0  0  0  0  0  0  0  0  0  0  0  0
   52.0010    5.6878   22.2701 H   0  0  0  0  0  0  0  0  0  0  0  0
   51.3809    4.0725   21.8190 H   0  0  0  0  0  0  0  0  0  0  0  0
   48.6034    6.1930   18.8250 H   0  0  0  0  0  0  0  0  0  0  0  0
   50.5452    2.9758   16.6968 H   0  0  0  0  0  0  0  0  0  0  0  0
   46.4161    5.0728   18.5119 H   0  0  0  0  0  0  0  0  0  0  0  0
   48.3545    1.8726   16.3826 H   0  0  0  0  0  0  0  0  0  0  0  0
   46.2919    2.9111   17.2816 H   0  0  0  0  0  0  0  0  0  0  0  0
   49.9588    4.0471   17.5295 H   0  0  0  0  0  0  0  0  0  0  0  0
   52.7446    5.7959   19.3096 H   0  0  0  0  0  0  0  0  0  0  0  0
   50.6117    4.8578   19.8543 H   0  0  0  0  0  0  0  0  0  0  0  0
   53.0813    5.7835   21.9534 H   0  0  0  0  0  0  0  0  0  0  0  0
   51.9474    3.2787   18.2234 H   0  0  0  0  0  0  0  0  0  0  0  0
   52.1843    4.8190   17.3743 H   0  0  0  0  0  0  0  0  0  0  0  0
   55.6802    4.1401   20.2790 H   0  0  0  0  0  0  0  0  0  0  0  0
   54.6294    4.2943   21.6890 H   0  0  0  0  0  0  0  0  0  0  0  0
   55.1688    5.7590   20.8077 H   0  0  0  0  0  0  0  0  0  0  0  0
   50.4090    6.6930   21.1316 H   0  0  0  0  0  0  0  0  0  0  0  0
   51.8529    7.6679   20.7662 H   0  0  0  0  0  0  0  0  0  0  0  0
   51.4516    7.2743   22.4440 H   0  0  0  0  0  0  0  0  0  0  0  0
   50.0004    6.2776   16.9675 H   0  0  0  0  0  0  0  0  0  0  0  0
   49.9441    2.0636   17.9108 H   0  0  0  0  0  0  0  0  0  0  0  0
   47.6977    6.1036   16.0884 H   0  0  0  0  0  0  0  0  0  0  0  0
   47.6362    1.9138   17.0516 H   0  0  0  0  0  0  0  0  0  0  0  0
   46.5025    3.9330   16.1375 H   0  0  0  0  0  0  0  0  0  0  0  0
  2  1  2  0
  3  1  1  0
  4  1  1  0
  5  3  1  0
  6  5  1  0
  7  2  1  0
  8  4  1  0
  9  6  2  0
 10  6  1  0
 11  9  1  0
 12 10  2  0
 13 12  1  0
 11 13  2  0
 15 14  2  0
 16 14  2  0
 17 14  1  0
 18 14  1  0
 20 19  2  0
 21 19  1  0
 22 19  1  0
 23 21  1  0
 24 23  1  0
 25 20  1  0
 26 22  1  0
 27 24  2  0
 28 24  1  0
 29 27  1  0
 30 28  2  0
 31 30  1  0
 29 31  2  0
  3 32  1  0
  4 33  1  0
  5 34  1  0
  5 35  1  0
  7 36  1  0
  7 37  1  0
  7 38  1  0
  8 39  1  0
  8 40  1  0
  8 41  1  0
  9 42  1  0
 10 43  1  0
 11 44  1  0
 12 45  1  0
 13 46  1  0
 17 47  1  0
 18 48  1  0
 21 49  1  0
 22 50  1  0
 23 51  1  0
 23 52  1  0
 25 53  1  0
 25 54  1  0
 25 55  1  0
 26 56  1  0
 26 57  1  0
 26 58  1  0
 27 59  1  0
 28 60  1  0
 29 61  1  0
 30 62  1  0
 31 63  1  0
M  END
> <Uni-Dock RESULT> 
ENERGY=   -4.594  LOWER_BOUND=    6.744  UPPER_BOUND=    8.129
INTER + INTRA:          -4.594
INTER:                  -4.594
INTRA:                   0.000
UNBOUND:                 0.000

$$$$

     RDKit          3D

 63 62  0  0  0  0  0  0  0  0999 V2000
   48.0503    7.4571   19.7931 C   0  0  0  0  0  0  0  0  0  0  0  0
   47.3364    6.9334   18.8581 N   0  0  0  0  0  0  0  0  0  0  0  0
   48.3006    8.7958   19.8181 N   0  0  0  0  0  0  0  0  0  0  0  0
   48.6413    6.8050   20.8395 N   0  0  0  0  0  0  0  0  0  0  0  0
   47.6189    9.7055   18.9160 C   0  0  0  0  0  0  0  0  0  0  0  0
   47.8253   11.1271   19.3922 C   0  0  0  0  0  0  0  0  0  0  0  0
   47.0588    5.5066   18.8627 C   0  0  0  0  0  0  0  0  0  0  0  0
   49.9751    7.1225   21.3204 C   0  0  0  0  0  0  0  0  0  0  0  0
   49.0036   11.8233   19.0856 C   0  0  0  0  0  0  0  0  0  0  0  0
   46.8449   11.7573   20.1787 C   0  0  0  0  0  0  0  0  0  0  0  0
   49.1964   13.1286   19.5497 C   0  0  0  0  0  0  0  0  0  0  0  0
   47.0393   13.0625   20.6410 C   0  0  0  0  0  0  0  0  0  0  0  0
   48.2142   13.7457   20.3284 C   0  0  0  0  0  0  0  0  0  0  0  0
   48.4994    9.4424   20.0334 S   0  0  0  0  0  0  0  0  0  0  0  0
   47.7041    8.8782   21.0982 O   0  0  0  0  0  0  0  0  0  0  0  0
   49.7476   10.1288   20.2684 O   0  0  0  0  0  0  0  0  0  0  0  0
   47.5374   10.4493   19.2322 O   0  0  0  0  0  0  0  0  0  0  0  0
   48.7426    8.2646   18.9688 O   0  0  0  0  0  0  0  0  0  0  0  0
   48.5420    7.5436   20.1355 C   0  0  0  0  0  0  0  0  0  0  0  0
   47.5355    6.7888   20.4014 N   0  0  0  0  0  0  0  0  0  0  0  0
   48.3750    8.8613   19.8307 N   0  0  0  0  0  0  0  0  0  0  0  0
   49.8601    7.1761   20.1095 N   0  0  0  0  0  0  0  0  0  0  0  0
   47.0667    9.4926   19.8982 C   0  0  0  0  0  0  0  0  0  0  0  0
   47.2255   10.9850   19.7136 C   0  0  0  0  0  0  0  0  0  0  0  0
   47.7506    5.3936   20.7298 C   0  0  0  0  0  0  0  0  0  0  0  0
   50.7613    7.6071   19.0571 C   0  0  0  0  0  0  0  0  0  0  0  0
   47.5538   11.5228   18.4567 C   0  0  0  0  0  0  0  0  0  0  0  0
   47.0805   11.8534   20.8064 C   0  0  0  0  0  0  0  0  0  0  0  0
   47.7300   12.8978   18.3020 C   0  0  0  0  0  0  0  0  0  0  0  0
   47.2648   13.2271   20.6502 C   0  0  0  0  0  0  0  0  0  0  0  0
   47.5968   13.7495   19.3999 C   0  0  0  0  0  0  0  0  0  0  0  0
   48.3702    9.1556   20.7641 H   0  0  0  0  0  0  0  0  0  0  0  0
   48.5098    5.8024   20.7890 H   0  0  0  0  0  0  0  0  0  0  0  0
   48.0130    9.5969   17.8974 H   0  0  0  0  0  0  0  0  0  0  0  0
   46.5457    9.4863   18.8757 H   0  0  0  0  0  0  0  0  0  0  0  0
   46.2585    5.2936   18.1490 H   0  0  0  0  0  0  0  0  0  0  0  0
   46.6967    5.1603   19.8390 H   0  0  0  0  0  0  0  0  0  0  0  0
   47.9412    4.9285   18.5667 H   0  0  0  0  0  0  0  0  0  0  0  0
   50.2523    6.4105   22.1046 H   0  0  0  0  0  0  0  0  0  0  0  0
   50.7119    7.0338   20.5167 H   0  0  0  0  0  0  0  0  0  0  0  0
   50.0208    8.1257   21.7526 H   0  0  0  0  0  0  0  0  0  0  0  0
   49.7709   11.3501   18.4791 H   0  0  0  0  0  0  0  0  0  0  0  0
   45.9254   11.2315   20.4409 H   0  0  0  0  0  0  0  0  0  0  0  0
   50.1174   13.6582   19.3095 H   0  0  0  0  0  0  0  0  0  0  0  0
   46.2792   13.5392   21.2555 H   0  0  0  0  0  0  0  0  0  0  0  0
   48.3636   14.7566   20.6951 H   0  0  0  0  0  0  0  0  0  0  0  0
   47.2760   11.1663   19.8437 H   0  0  0  0  0  0  0  0  0  0  0  0
   48.0553    7.5822   19.1129 H   0  0  0  0  0  0  0  0  0  0  0  0
   49.1272    9.4461   20.1631 H   0  0  0  0  0  0  0  0  0  0  0  0
   49.9898    6.1907   20.3063 H   0  0  0  0  0  0  0  0  0  0  0  0
   46.5947    9.2934   20.8707 H   0  0  0  0  0  0  0  0  0  0  0  0
   46.4053    9.0959   19.1172 H   0  0  0  0  0  0  0  0  0  0  0  0
   46.8043    4.9555   21.0711 H   0  0  0  0  0  0  0  0  0  0  0  0
   48.4765    5.2637   21.5451 H   0  0  0  0  0  0  0  0  0  0  0  0
   48.0902    4.8292   19.8495 H   0  0  0  0  0  0  0  0  0  0  0  0
   50.9457    8.6888   19.0858 H   0  0  0  0  0  0  0  0  0  0  0  0
   50.3541    7.3505   18.0721 H   0  0  0  0  0  0  0  0  0  0  0  0
   51.7217    7.0955   19.1656 H   0  0  0  0  0  0  0  0  0  0  0  0
   47.6732   10.8693   17.5973 H   0  0  0  0  0  0  0  0  0  0  0  0
   46.8184   11.4600   21.7890 H   0  0  0  0  0  0  0  0  0  0  0  0
   47.9908   13.3047   17.3268 H   0  0  0  0  0  0  0  0  0  0  0  0
   47.1636   13.8864   21.5058 H   0  0  0  0  0  0  0  0  0  0  0  0
   47.7520   14.8195   19.2739 H   0  0  0  0  0  0  0  0  0  0  0  0
  2  1  2  0
  3  1  1  0
  4  1  1  0
  5  3  1  0
  6  5  1  0
  7  2  1  0
  8  4  1  0
  9  6  2  0
 10  6  1  0
 11  9  1  0
 12 10  2  0
 13 12  1  0
 11 13  2  0
 15 14  2  0
 16 14  2  0
 17 14  1  0
 18 14  1  0
 20 19  2  0
 21 19  1  0
 22 19  1  0
 23 21  1  0
 24 23  1  0
 25 20  1  0
 26 22  1  0
 27 24  2  0
 28 24  1  0
 29 27  1  0
 30 28  2  0
 31 30  1  0
 29 31  2  0
  3 32  1  0
  4 33  1  0
  5 34  1  0
  5 35  1  0
  7 36  1  0
  7 37  1  0
  7 38  1  0
  8 39  1  0
  8 40  1  0
  8 41  1  0
  9 42  1  0
 10 43  1  0
 11 44  1  0
 12 45  1  0
 13 46  1  0
 17 47  1  0
 18 48  1  0
 21 49  1  0
 22 50  1  0
 23 51  1  0
 23 52  1  0
 25 53  1  0
 25 54  1  0
 25 55  1  0
 26 56  1  0
 26 57  1  0
 26 58  1  0
 27 59  1  0
 28 60  1  0
 29 61  1  0
 30 62  1  0
 31 63  1  0
M  END
> <Uni-Dock RESULT> 
ENERGY=   -4.500  LOWER_BOUND=    6.923  UPPER_BOUND=    9.304
INTER + INTRA:          -4.500
INTER:                  -4.500
INTRA:                   0.000
UNBOUND:                 0.000

$$$$

     RDKit          3D

 63 62  0  0  0  0  0  0  0  0999 V2000
   49.5378    8.1585   14.0428 C   0  0  0  0  0  0  0  0  0  0  0  0
   50.5429    7.9274   13.2718 N   0  0  0  0  0  0  0  0  0  0  0  0
   48.2704    7.8420   13.6567 N   0  0  0  0  0  0  0  0  0  0  0  0
   49.5687    8.7261   15.2863 N   0  0  0  0  0  0  0  0  0  0  0  0
   48.0219    7.0602   12.4596 C   0  0  0  0  0  0  0  0  0  0  0  0
   46.5879    6.5766   12.4694 C   0  0  0  0  0  0  0  0  0  0  0  0
   51.8906    8.2485   13.7120 C   0  0  0  0  0  0  0  0  0  0  0  0
   48.5807    9.6883   15.7437 C   0  0  0  0  0  0  0  0  0  0  0  0
   45.5444    7.4145   12.0498 C   0  0  0  0  0  0  0  0  0  0  0  0
   46.2821    5.2845   12.9321 C   0  0  0  0  0  0  0  0  0  0  0  0
   44.2195    6.9676   12.0843 C   0  0  0  0  0  0  0  0  0  0  0  0
   44.9570    4.8395   12.9651 C   0  0  0  0  0  0  0  0  0  0  0  0
   43.9277    5.6807   12.5437 C   0  0  0  0  0  0  0  0  0  0  0  0
   47.5719    7.7159   13.6682 S   0  0  0  0  0  0  0  0  0  0  0  0
   48.1388    7.0074   14.7914 O   0  0  0  0  0  0  0  0  0  0  0  0
   46.3678    8.5061   13.7685 O   0  0  0  0  0  0  0  0  0  0  0  0
   47.3387    6.6240   12.5130 O   0  0  0  0  0  0  0  0  0  0  0  0
   48.7465    8.6273   13.0604 O   0  0  0  0  0  0  0  0  0  0  0  0
   49.1577    8.4907   14.3771 C   0  0  0  0  0  0  0  0  0  0  0  0
   50.1857    7.8380   14.7906 N   0  0  0  0  0  0  0  0  0  0  0  0
   48.1779    7.8796   13.6535 N   0  0  0  0  0  0  0  0  0  0  0  0
   48.8942    9.8191   14.5746 N   0  0  0  0  0  0  0  0  0  0  0  0
   48.2000    6.4458   13.4113 C   0  0  0  0  0  0  0  0  0  0  0  0
   46.8947    6.0304   12.7709 C   0  0  0  0  0  0  0  0  0  0  0  0
   51.2047    8.5180   15.5651 C   0  0  0  0  0  0  0  0  0  0  0  0
   48.3915   10.6726   13.5143 C   0  0  0  0  0  0  0  0  0  0  0  0
   46.6069    6.3731   11.4380 C   0  0  0  0  0  0  0  0  0  0  0  0
   45.9350    5.3242   13.5123 C   0  0  0  0  0  0  0  0  0  0  0  0
   45.3872    6.0138   10.8648 C   0  0  0  0  0  0  0  0  0  0  0  0
   44.7130    4.9730   12.9388 C   0  0  0  0  0  0  0  0  0  0  0  0
   44.4352    5.3237   11.6174 C   0  0  0  0  0  0  0  0  0  0  0  0
   47.6896    7.5613   14.4396 H   0  0  0  0  0  0  0  0  0  0  0  0
   50.5010    9.0197   15.5499 H   0  0  0  0  0  0  0  0  0  0  0  0
   48.1994    7.6696   11.5642 H   0  0  0  0  0  0  0  0  0  0  0  0
   48.6973    6.1987   12.4070 H   0  0  0  0  0  0  0  0  0  0  0  0
   52.6109    7.7696   13.0434 H   0  0  0  0  0  0  0  0  0  0  0  0
   52.1003    7.8583   14.7159 H   0  0  0  0  0  0  0  0  0  0  0  0
   52.0703    9.3290   13.6877 H   0  0  0  0  0  0  0  0  0  0  0  0
   48.8693   10.0549   16.7342 H   0  0  0  0  0  0  0  0  0  0  0  0
   48.5342   10.5503   15.0719 H   0  0  0  0  0  0  0  0  0  0  0  0
   47.5888    9.2375   15.8335 H   0  0  0  0  0  0  0  0  0  0  0  0
   45.7643    8.4157   11.6897 H   0  0  0  0  0  0  0  0  0  0  0  0
   47.0755    4.6189   13.2755 H   0  0  0  0  0  0  0  0  0  0  0  0
   43.4164    7.6284   11.7605 H   0  0  0  0  0  0  0  0  0  0  0  0
   44.7288    3.8415   13.3321 H   0  0  0  0  0  0  0  0  0  0  0  0
   42.8996    5.3333   12.5773 H   0  0  0  0  0  0  0  0  0  0  0  0
   46.6833    5.9757   12.8395 H   0  0  0  0  0  0  0  0  0  0  0  0
   49.6014    8.2562   13.3610 H   0  0  0  0  0  0  0  0  0  0  0  0
   47.2567    8.2474   13.8391 H   0  0  0  0  0  0  0  0  0  0  0  0
   49.6328   10.2869   15.0867 H   0  0  0  0  0  0  0  0  0  0  0  0
   48.3331    5.8996   14.3558 H   0  0  0  0  0  0  0  0  0  0  0  0
   49.0336    6.1784   12.7492 H   0  0  0  0  0  0  0  0  0  0  0  0
   51.9146    7.7767   15.9530 H   0  0  0  0  0  0  0  0  0  0  0  0
   50.7859    9.0461   16.4337 H   0  0  0  0  0  0  0  0  0  0  0  0
   51.7627    9.2316   14.9422 H   0  0  0  0  0  0  0  0  0  0  0  0
   47.3733   10.3991   13.2089 H   0  0  0  0  0  0  0  0  0  0  0  0
   49.0438   10.6189   12.6347 H   0  0  0  0  0  0  0  0  0  0  0  0
   48.3765   11.7111   13.8566 H   0  0  0  0  0  0  0  0  0  0  0  0
   47.3340    6.9215   10.8459 H   0  0  0  0  0  0  0  0  0  0  0  0
   46.1391    5.0407   14.5452 H   0  0  0  0  0  0  0  0  0  0  0  0
   45.1701    6.2892    9.8345 H   0  0  0  0  0  0  0  0  0  0  0  0
   43.9738    4.4393   13.5268 H   0  0  0  0  0  0  0  0  0  0  0  0
   43.4794    5.0615   11.1675 H   0  0  0  0  0  0  0  0  0  0  0  0
  2  1  2  0
  3  1  1  0
  4  1  1  0
  5  3  1  0
  6  5  1  0
  7  2  1  0
  8  4  1  0
  9  6  2  0
 10  6  1  0
 11  9  1  0
 12 10  2  0
 13 12  1  0
 11 13  2  0
 15 14  2  0
 16 14  2  0
 17 14  1  0
 18 14  1  0
 20 19  2  0
 21 19  1  0
 22 19  1  0
 23 21  1  0
 24 23  1  0
 25 20  1  0
 26 22  1  0
 27 24  2  0
 28 24  1  0
 29 27  1  0
 30 28  2  0
 31 30  1  0
 29 31  2  0
  3 32  1  0
  4 33  1  0
  5 34  1  0
  5 35  1  0
  7 36  1  0
  7 37  1  0
  7 38  1  0
  8 39  1  0
  8 40  1  0
  8 41  1  0
  9 42  1  0
 10 43  1  0
 11 44  1  0
 12 45  1  0
 13 46  1  0
 17 47  1  0
 18 48  1  0
 21 49  1  0
 22 50  1  0
 23 51  1  0
 23 52  1  0
 25 53  1  0
 25 54  1  0
 25 55  1  0
 26 56  1  0
 26 57  1  0
 26 58  1  0
 27 59  1  0
 28 60  1  0
 29 61  1  0
 30 62  1  0
 31 63  1  0
M  END
> <Uni-Dock RESULT> 
ENERGY=   -4.467  LOWER_BOUND=    1.310  UPPER_BOUND=    1.675
INTER + INTRA:          -4.467
INTER:                  -4.467
INTRA:                   0.000
UNBOUND:                 0.000

$$$$

     RDKit          3D

 63 62  0  0  0  0  0  0  0  0999 V2000
   50.0885   15.3320   20.4493 C   0  0  0  0  0  0  0  0  0  0  0  0
   50.1628   15.8934   21.6057 N   0  0  0  0  0  0  0  0  0  0  0  0
   49.6249   14.0582   20.3165 N   0  0  0  0  0  0  0  0  0  0  0  0
   50.4434   15.8768   19.2464 N   0  0  0  0  0  0  0  0  0  0  0  0
   49.0167   13.3588   21.4333 C   0  0  0  0  0  0  0  0  0  0  0  0
   48.2976   12.1303   20.9197 C   0  0  0  0  0  0  0  0  0  0  0  0
   50.6360   17.2627   21.7243 C   0  0  0  0  0  0  0  0  0  0  0  0
   51.1332   15.1285   18.2094 C   0  0  0  0  0  0  0  0  0  0  0  0
   48.9995   10.9452   20.6552 C   0  0  0  0  0  0  0  0  0  0  0  0
   46.9144   12.1747   20.6709 C   0  0  0  0  0  0  0  0  0  0  0  0
   48.3309    9.8217   20.1583 C   0  0  0  0  0  0  0  0  0  0  0  0
   46.2479   11.0501   20.1748 C   0  0  0  0  0  0  0  0  0  0  0  0
   46.9557    9.8765   19.9172 C   0  0  0  0  0  0  0  0  0  0  0  0
   49.3798   13.4538   20.0361 S   0  0  0  0  0  0  0  0  0  0  0  0
   48.6071   14.5243   19.4515 O   0  0  0  0  0  0  0  0  0  0  0  0
   49.9232   12.3658   19.2579 O   0  0  0  0  0  0  0  0  0  0  0  0
   48.4663   12.8125   21.1916 O   0  0  0  0  0  0  0  0  0  0  0  0
   50.5667   14.1458   20.8678 O   0  0  0  0  0  0  0  0  0  0  0  0
   50.2913   15.1191   19.9200 C   0  0  0  0  0  0  0  0  0  0  0  0
   49.7677   16.2724   20.1420 N   0  0  0  0  0  0  0  0  0  0  0  0
   49.6458   13.9715   20.2714 N   0  0  0  0  0  0  0  0  0  0  0  0
   51.5043   14.8659   19.3389 N   0  0  0  0  0  0  0  0  0  0  0  0
   48.2961   13.9988   20.8121 C   0  0  0  0  0  0  0  0  0  0  0  0
   47.7710   12.5841   20.9080 C   0  0  0  0  0  0  0  0  0  0  0  0
   50.4786   17.4722   19.7473 C   0  0  0  0  0  0  0  0  0  0  0  0
   52.4188   13.8689   19.8635 C   0  0  0  0  0  0  0  0  0  0  0  0
   48.2706   11.6962   21.8769 C   0  0  0  0  0  0  0  0  0  0  0  0
   46.7989   12.1264   20.0053 C   0  0  0  0  0  0  0  0  0  0  0  0
   47.8040   10.3832   21.9380 C   0  0  0  0  0  0  0  0  0  0  0  0
   46.3397   10.8107   20.0639 C   0  0  0  0  0  0  0  0  0  0  0  0
   46.8470    9.9362   21.0253 C   0  0  0  0  0  0  0  0  0  0  0  0
   49.1247   13.9207   19.4447 H   0  0  0  0  0  0  0  0  0  0  0  0
   50.8469   16.7997   19.3485 H   0  0  0  0  0  0  0  0  0  0  0  0
   49.7848   13.0603   22.1583 H   0  0  0  0  0  0  0  0  0  0  0  0
   48.3050   14.0051   21.9596 H   0  0  0  0  0  0  0  0  0  0  0  0
   50.4038   17.6381   22.7245 H   0  0  0  0  0  0  0  0  0  0  0  0
   50.1302   17.9360   21.0210 H   0  0  0  0  0  0  0  0  0  0  0  0
   51.7208   17.3225   21.5820 H   0  0  0  0  0  0  0  0  0  0  0  0
   51.3784   15.8038   17.3832 H   0  0  0  0  0  0  0  0  0  0  0  0
   52.0717   14.7119   18.5866 H   0  0  0  0  0  0  0  0  0  0  0  0
   50.5094   14.3259   17.8073 H   0  0  0  0  0  0  0  0  0  0  0  0
   50.0687   10.8949   20.8420 H   0  0  0  0  0  0  0  0  0  0  0  0
   46.3490   13.0892   20.8570 H   0  0  0  0  0  0  0  0  0  0  0  0
   48.8867    8.9079   19.9520 H   0  0  0  0  0  0  0  0  0  0  0  0
   45.1793   11.0959   19.9777 H   0  0  0  0  0  0  0  0  0  0  0  0
   46.4351    9.0079   19.5258 H   0  0  0  0  0  0  0  0  0  0  0  0
   47.6702   12.4321   20.7697 H   0  0  0  0  0  0  0  0  0  0  0  0
   50.3051   15.0713   21.0522 H   0  0  0  0  0  0  0  0  0  0  0  0
   49.8139   13.2080   19.6335 H   0  0  0  0  0  0  0  0  0  0  0  0
   52.0032   15.7152   19.1016 H   0  0  0  0  0  0  0  0  0  0  0  0
   47.6351   14.5901   20.1627 H   0  0  0  0  0  0  0  0  0  0  0  0
   48.2879   14.4603   21.8079 H   0  0  0  0  0  0  0  0  0  0  0  0
   49.8180   18.3390   19.8755 H   0  0  0  0  0  0  0  0  0  0  0  0
   50.7782   17.4512   18.6898 H   0  0  0  0  0  0  0  0  0  0  0  0
   51.3694   17.6264   20.3729 H   0  0  0  0  0  0  0  0  0  0  0  0
   52.0267   12.8492   19.7569 H   0  0  0  0  0  0  0  0  0  0  0  0
   52.6221   14.0533   20.9249 H   0  0  0  0  0  0  0  0  0  0  0  0
   53.3694   13.9257   19.3261 H   0  0  0  0  0  0  0  0  0  0  0  0
   49.0251   12.0280   22.5845 H   0  0  0  0  0  0  0  0  0  0  0  0
   46.3910   12.7992   19.2503 H   0  0  0  0  0  0  0  0  0  0  0  0
   48.2013    9.7007   22.6870 H   0  0  0  0  0  0  0  0  0  0  0  0
   45.5981   10.4651   19.3515 H   0  0  0  0  0  0  0  0  0  0  0  0
   46.5002    8.9054   21.0695 H   0  0  0  0  0  0  0  0  0  0  0  0
  2  1  2  0
  3  1  1  0
  4  1  1  0
  5  3  1  0
  6  5  1  0
  7  2  1  0
  8  4  1  0
  9  6  2  0
 10  6  1  0
 11  9  1  0
 12 10  2  0
 13 12  1  0
 11 13  2  0
 15 14  2  0
 16 14  2  0
 17 14  1  0
 18 14  1  0
 20 19  2  0
 21 19  1  0
 22 19  1  0
 23 21  1  0
 24 23  1  0
 25 20  1  0
 26 22  1  0
 27 24  2  0
 28 24  1  0
 29 27  1  0
 30 28  2  0
 31 30  1  0
 29 31  2  0
  3 32  1  0
  4 33  1  0
  5 34  1  0
  5 35  1  0
  7 36  1  0
  7 37  1  0
  7 38  1  0
  8 39  1  0
  8 40  1  0
  8 41  1  0
  9 42  1  0
 10 43  1  0
 11 44  1  0
 12 45  1  0
 13 46  1  0
 17 47  1  0
 18 48  1  0
 21 49  1  0
 22 50  1  0
 23 51  1  0
 23 52  1  0
 25 53  1  0
 25 54  1  0
 25 55  1  0
 26 56  1  0
 26 57  1  0
 26 58  1  0
 27 59  1  0
 28 60  1  0
 29 61  1  0
 30 62  1  0
 31 63  1  0
M  END
> <Uni-Dock RESULT> 
ENERGY=   -4.460  LOWER_BOUND=    9.195  UPPER_BOUND=   10.956
INTER + INTRA:          -4.460
INTER:                  -4.460
INTRA:                   0.000
UNBOUND:                 0.000

$$$$

     RDKit          3D

 63 62  0  0  0  0  0  0  0  0999 V2000
   48.3108    7.2952   18.5731 C   0  0  0  0  0  0  0  0  0  0  0  0
   47.2724    6.5409   18.6771 N   0  0  0  0  0  0  0  0  0  0  0  0
   48.2326    8.6334   18.8144 N   0  0  0  0  0  0  0  0  0  0  0  0
   49.5749    6.9102   18.2215 N   0  0  0  0  0  0  0  0  0  0  0  0
   47.0368    9.2265   19.3839 C   0  0  0  0  0  0  0  0  0  0  0  0
   47.3526   10.6294   19.8553 C   0  0  0  0  0  0  0  0  0  0  0  0
   47.3812    5.1108   18.4407 C   0  0  0  0  0  0  0  0  0  0  0  0
   50.4276    7.6943   17.3444 C   0  0  0  0  0  0  0  0  0  0  0  0
   47.3669   11.7039   18.9539 C   0  0  0  0  0  0  0  0  0  0  0  0
   47.6677   10.8662   21.2050 C   0  0  0  0  0  0  0  0  0  0  0  0
   47.6830   12.9934   19.3938 C   0  0  0  0  0  0  0  0  0  0  0  0
   47.9826   12.1563   21.6427 C   0  0  0  0  0  0  0  0  0  0  0  0
   47.9921   13.2173   20.7378 C   0  0  0  0  0  0  0  0  0  0  0  0
   48.4103    9.3097   18.9372 S   0  0  0  0  0  0  0  0  0  0  0  0
   49.2127    8.5031   19.8262 O   0  0  0  0  0  0  0  0  0  0  0  0
   48.9541   10.4044   18.1689 O   0  0  0  0  0  0  0  0  0  0  0  0
   47.2007    9.8923   19.8196 O   0  0  0  0  0  0  0  0  0  0  0  0
   47.6640    8.2929   17.9429 O   0  0  0  0  0  0  0  0  0  0  0  0
   48.7832    7.5570   18.2996 C   0  0  0  0  0  0  0  0  0  0  0  0
   48.7969    6.4900   19.0173 N   0  0  0  0  0  0  0  0  0  0  0  0
   48.2603    8.7216   18.7764 N   0  0  0  0  0  0  0  0  0  0  0  0
   49.2536    7.6933   17.0216 N   0  0  0  0  0  0  0  0  0  0  0  0
   47.7952    8.8349   20.1496 C   0  0  0  0  0  0  0  0  0  0  0  0
   47.4698   10.2816   20.4457 C   0  0  0  0  0  0  0  0  0  0  0  0
   49.3687    5.2709   18.4813 C   0  0  0  0  0  0  0  0  0  0  0  0
   48.5170    8.4144   16.0004 C   0  0  0  0  0  0  0  0  0  0  0  0
   46.3350   10.8925   19.8837 C   0  0  0  0  0  0  0  0  0  0  0  0
   48.3182   11.0461   21.2611 C   0  0  0  0  0  0  0  0  0  0  0  0
   46.0594   12.2363   20.1361 C   0  0  0  0  0  0  0  0  0  0  0  0
   48.0443   12.3917   21.5055 C   0  0  0  0  0  0  0  0  0  0  0  0
   46.9190   12.9896   20.9375 C   0  0  0  0  0  0  0  0  0  0  0  0
   49.0872    9.0011   19.2191 H   0  0  0  0  0  0  0  0  0  0  0  0
   49.6227    5.9280   17.9806 H   0  0  0  0  0  0  0  0  0  0  0  0
   46.2358    9.2609   18.6343 H   0  0  0  0  0  0  0  0  0  0  0  0
   46.6685    8.6321   20.2279 H   0  0  0  0  0  0  0  0  0  0  0  0
   46.4767    4.6162   18.8047 H   0  0  0  0  0  0  0  0  0  0  0  0
   48.2167    4.6639   18.9943 H   0  0  0  0  0  0  0  0  0  0  0  0
   47.4827    4.8907   17.3722 H   0  0  0  0  0  0  0  0  0  0  0  0
   51.3500    7.1375   17.1499 H   0  0  0  0  0  0  0  0  0  0  0  0
   49.9393    7.8733   16.3820 H   0  0  0  0  0  0  0  0  0  0  0  0
   50.7063    8.6487   17.7989 H   0  0  0  0  0  0  0  0  0  0  0  0
   47.1259   11.5373   17.9077 H   0  0  0  0  0  0  0  0  0  0  0  0
   47.6754   10.0443   21.9226 H   0  0  0  0  0  0  0  0  0  0  0  0
   47.6957   13.8197   18.6842 H   0  0  0  0  0  0  0  0  0  0  0  0
   48.2330   12.3289   22.6869 H   0  0  0  0  0  0  0  0  0  0  0  0
   48.2436   14.2162   21.0810 H   0  0  0  0  0  0  0  0  0  0  0  0
   47.5828   10.4698   20.5101 H   0  0  0  0  0  0  0  0  0  0  0  0
   47.6616    7.4084   18.3632 H   0  0  0  0  0  0  0  0  0  0  0  0
   48.7419    9.5422   18.4402 H   0  0  0  0  0  0  0  0  0  0  0  0
   49.6173    6.8239   16.6496 H   0  0  0  0  0  0  0  0  0  0  0  0
   48.5699    8.4851   20.8466 H   0  0  0  0  0  0  0  0  0  0  0  0
   46.9004    8.2191   20.3066 H   0  0  0  0  0  0  0  0  0  0  0  0
   49.4289    4.5214   19.2805 H   0  0  0  0  0  0  0  0  0  0  0  0
   50.3904    5.4197   18.1037 H   0  0  0  0  0  0  0  0  0  0  0  0
   48.7414    4.8618   17.6764 H   0  0  0  0  0  0  0  0  0  0  0  0
   48.4556    9.4893   16.2141 H   0  0  0  0  0  0  0  0  0  0  0  0
   47.4981    8.0199   15.9096 H   0  0  0  0  0  0  0  0  0  0  0  0
   49.0122    8.2875   15.0337 H   0  0  0  0  0  0  0  0  0  0  0  0
   45.6654   10.3206   19.2476 H   0  0  0  0  0  0  0  0  0  0  0  0
   49.1999   10.5917   21.7142 H   0  0  0  0  0  0  0  0  0  0  0  0
   45.1824   12.7029   19.6913 H   0  0  0  0  0  0  0  0  0  0  0  0
   48.7156   12.9755   22.1263 H   0  0  0  0  0  0  0  0  0  0  0  0
   46.7054   14.0419   21.1162 H   0  0  0  0  0  0  0  0  0  0  0  0
  2  1  2  0
  3  1  1  0
  4  1  1  0
  5  3  1  0
  6  5  1  0
  7  2  1  0
  8  4  1  0
  9  6  2  0
 10  6  1  0
 11  9  1  0
 12 10  2  0
 13 12  1  0
 11 13  2  0
 15 14  2  0
 16 14  2  0
 17 14  1  0
 18 14  1  0
 20 19  2  0
 21 19  1  0
 22 19  1  0
 23 21  1  0
 24 23  1  0
 25 20  1  0
 26 22  1  0
 27 24  2  0
 28 24  1  0
 29 27  1  0
 30 28  2  0
 31 30  1  0
 29 31  2  0
  3 32  1  0
  4 33  1  0
  5 34  1  0
  5 35  1  0
  7 36  1  0
  7 37  1  0
  7 38  1  0
  8 39  1  0
  8 40  1  0
  8 41  1  0
  9 42  1  0
 10 43  1  0
 11 44  1  0
 12 45  1  0
 13 46  1  0
 17 47  1  0
 18 48  1  0
 21 49  1  0
 22 50  1  0
 23 51  1  0
 23 52  1  0
 25 53  1  0
 25 54  1  0
 25 55  1  0
 26 56  1  0
 26 57  1  0
 26 58  1  0
 27 59  1  0
 28 60  1  0
 29 61  1  0
 30 62  1  0
 31 63  1  0
M  END
> <Uni-Dock RESULT> 
ENERGY=   -4.363  LOWER_BOUND=    5.794  UPPER_BOUND=    8.720
INTER + INTRA:          -4.363
INTER:                  -4.363
INTRA:                   0.000
UNBOUND:                 0.000

$$$$
