
     RDKit          3D

 63 62  0  0  0  0  0  0  0  0999 V2000
   46.0014    9.0678   12.4749 C   0  0  0  0  0  0  0  0  0  0  0  0
   47.2775    9.1337   12.6170 N   0  0  0  0  0  0  0  0  0  0  0  0
   45.3525    7.8736   12.5016 N   0  0  0  0  0  0  0  0  0  0  0  0
   45.1497   10.1175   12.2451 N   0  0  0  0  0  0  0  0  0  0  0  0
   46.0329    6.6195   12.7482 C   0  0  0  0  0  0  0  0  0  0  0  0
   45.1866    5.4943   12.1955 C   0  0  0  0  0  0  0  0  0  0  0  0
   47.9583   10.4121   12.4765 C   0  0  0  0  0  0  0  0  0  0  0  0
   43.9916    9.9996   11.3749 C   0  0  0  0  0  0  0  0  0  0  0  0
   44.5728    4.5605   13.0416 C   0  0  0  0  0  0  0  0  0  0  0  0
   45.0085    5.3720   10.8069 C   0  0  0  0  0  0  0  0  0  0  0  0
   43.7894    3.5322   12.5097 C   0  0  0  0  0  0  0  0  0  0  0  0
   44.2225    4.3474   10.2771 C   0  0  0  0  0  0  0  0  0  0  0  0
   43.6130    3.4264   11.1300 C   0  0  0  0  0  0  0  0  0  0  0  0
   45.0580    7.6119   12.1262 S   0  0  0  0  0  0  0  0  0  0  0  0
   44.1263    8.0393   11.1146 O   0  0  0  0  0  0  0  0  0  0  0  0
   45.4232    8.4254   13.2594 O   0  0  0  0  0  0  0  0  0  0  0  0
   46.4254    7.2316   11.3788 O   0  0  0  0  0  0  0  0  0  0  0  0
   44.5605    6.1775   12.6455 O   0  0  0  0  0  0  0  0  0  0  0  0
   45.6457    9.2274   12.1853 C   0  0  0  0  0  0  0  0  0  0  0  0
   44.9616   10.1027   11.5349 N   0  0  0  0  0  0  0  0  0  0  0  0
   45.3760    7.8945   12.0765 N   0  0  0  0  0  0  0  0  0  0  0  0
   46.6853    9.4711   13.0471 N   0  0  0  0  0  0  0  0  0  0  0  0
   44.1979    7.4332   11.3639 C   0  0  0  0  0  0  0  0  0  0  0  0
   44.1100    5.9286   11.4578 C   0  0  0  0  0  0  0  0  0  0  0  0
   45.2352   11.5162   11.7170 C   0  0  0  0  0  0  0  0  0  0  0  0
   47.9139    8.6951   12.9624 C   0  0  0  0  0  0  0  0  0  0  0  0
   43.2064    5.3204   12.3421 C   0  0  0  0  0  0  0  0  0  0  0  0
   44.9478    5.1154   10.6785 C   0  0  0  0  0  0  0  0  0  0  0  0
   43.1260    3.9273   12.4265 C   0  0  0  0  0  0  0  0  0  0  0  0
   44.8629    3.7218   10.7618 C   0  0  0  0  0  0  0  0  0  0  0  0
   43.9528    3.1307   11.6362 C   0  0  0  0  0  0  0  0  0  0  0  0
   44.4492    7.9154   12.9515 H   0  0  0  0  0  0  0  0  0  0  0  0
   45.6444   10.9795   12.0642 H   0  0  0  0  0  0  0  0  0  0  0  0
   46.1918    6.4904   13.8250 H   0  0  0  0  0  0  0  0  0  0  0  0
   47.0136    6.5885   12.2623 H   0  0  0  0  0  0  0  0  0  0  0  0
   47.7660   11.0724   13.3306 H   0  0  0  0  0  0  0  0  0  0  0  0
   47.6842   10.9113   11.5401 H   0  0  0  0  0  0  0  0  0  0  0  0
   49.0424   10.2364   12.4251 H   0  0  0  0  0  0  0  0  0  0  0  0
   43.2195    9.3635   11.8164 H   0  0  0  0  0  0  0  0  0  0  0  0
   43.5520   10.9901   11.2226 H   0  0  0  0  0  0  0  0  0  0  0  0
   44.2894    9.6100   10.3966 H   0  0  0  0  0  0  0  0  0  0  0  0
   44.7007    4.6256   14.1203 H   0  0  0  0  0  0  0  0  0  0  0  0
   45.4851    6.0858   10.1360 H   0  0  0  0  0  0  0  0  0  0  0  0
   43.3275    2.8046   13.1730 H   0  0  0  0  0  0  0  0  0  0  0  0
   44.0928    4.2677    9.1999 H   0  0  0  0  0  0  0  0  0  0  0  0
   43.0061    2.6231   10.7176 H   0  0  0  0  0  0  0  0  0  0  0  0
   47.0437    7.9823   11.5055 H   0  0  0  0  0  0  0  0  0  0  0  0
   44.2682    5.6622   11.8649 H   0  0  0  0  0  0  0  0  0  0  0  0
   45.5218    7.3968   12.9464 H   0  0  0  0  0  0  0  0  0  0  0  0
   46.9135   10.4559   13.0671 H   0  0  0  0  0  0  0  0  0  0  0  0
   44.2442    7.7264   10.3096 H   0  0  0  0  0  0  0  0  0  0  0  0
   43.2922    7.8834   11.7886 H   0  0  0  0  0  0  0  0  0  0  0  0
   45.1468   11.8132   12.7683 H   0  0  0  0  0  0  0  0  0  0  0  0
   44.4972   12.0964   11.1617 H   0  0  0  0  0  0  0  0  0  0  0  0
   46.2273   11.7865   11.3392 H   0  0  0  0  0  0  0  0  0  0  0  0
   47.7548    7.6501   13.2377 H   0  0  0  0  0  0  0  0  0  0  0  0
   48.6541    9.1099   13.6481 H   0  0  0  0  0  0  0  0  0  0  0  0
   48.3244    8.7545   11.9500 H   0  0  0  0  0  0  0  0  0  0  0  0
   42.5589    5.9219   12.9763 H   0  0  0  0  0  0  0  0  0  0  0  0
   45.6693    5.5718   10.0024 H   0  0  0  0  0  0  0  0  0  0  0  0
   42.4186    3.4640   13.1092 H   0  0  0  0  0  0  0  0  0  0  0  0
   45.5053    3.0968   10.1449 H   0  0  0  0  0  0  0  0  0  0  0  0
   43.8883    2.0468   11.7029 H   0  0  0  0  0  0  0  0  0  0  0  0
  2  1  2  0
  3  1  1  0
  4  1  1  0
  5  3  1  0
  6  5  1  0
  7  2  1  0
  8  4  1  0
  9  6  2  0
 10  6  1  0
 11  9  1  0
 12 10  2  0
 13 12  1  0
 11 13  2  0
 15 14  2  0
 16 14  2  0
 17 14  1  0
 18 14  1  0
 20 19  2  0
 21 19  1  0
 22 19  1  0
 23 21  1  0
 24 23  1  0
 25 20  1  0
 26 22  1  0
 27 24  2  0
 28 24  1  0
 29 27  1  0
 30 28  2  0
 31 30  1  0
 29 31  2  0
  3 32  1  0
  4 33  1  0
  5 34  1  0
  5 35  1  0
  7 36  1  0
  7 37  1  0
  7 38  1  0
  8 39  1  0
  8 40  1  0
  8 41  1  0
  9 42  1  0
 10 43  1  0
 11 44  1  0
 12 45  1  0
 13 46  1  0
 17 47  1  0
 18 48  1  0
 21 49  1  0
 22 50  1  0
 23 51  1  0
 23 52  1  0
 25 53  1  0
 25 54  1  0
 25 55  1  0
 26 56  1  0
 26 57  1  0
 26 58  1  0
 27 59  1  0
 28 60  1  0
 29 61  1  0
 30 62  1  0
 31 63  1  0
M  END
> <Uni-Dock RESULT> 
ENERGY=   -7.546  LOWER_BOUND=    0.000  UPPER_BOUND=    0.000
INTER + INTRA:          -7.546
INTER:                  -7.546
INTRA:                   0.000
UNBOUND:                 0.000

$$$$

     RDKit          3D

 63 62  0  0  0  0  0  0  0  0999 V2000
   48.2063    6.8811   13.7343 C   0  0  0  0  0  0  0  0  0  0  0  0
   48.3580    8.0918   13.3292 N   0  0  0  0  0  0  0  0  0  0  0  0
   47.3211    6.0442   13.1310 N   0  0  0  0  0  0  0  0  0  0  0  0
   48.8391    6.2900   14.7974 N   0  0  0  0  0  0  0  0  0  0  0  0
   46.5444    6.4315   11.9720 C   0  0  0  0  0  0  0  0  0  0  0  0
   45.3282    5.5366   11.8849 C   0  0  0  0  0  0  0  0  0  0  0  0
   49.2318    8.9974   14.0598 C   0  0  0  0  0  0  0  0  0  0  0  0
   48.1696    5.3348   15.6644 C   0  0  0  0  0  0  0  0  0  0  0  0
   45.1788    4.6088   10.8449 C   0  0  0  0  0  0  0  0  0  0  0  0
   44.3203    5.6317   12.8597 C   0  0  0  0  0  0  0  0  0  0  0  0
   44.0495    3.7869   10.7873 C   0  0  0  0  0  0  0  0  0  0  0  0
   43.1953    4.8074   12.8037 C   0  0  0  0  0  0  0  0  0  0  0  0
   43.0600    3.8846   11.7658 C   0  0  0  0  0  0  0  0  0  0  0  0
   46.8750    5.7932   13.3156 S   0  0  0  0  0  0  0  0  0  0  0  0
   46.5241    5.1795   14.5703 O   0  0  0  0  0  0  0  0  0  0  0  0
   48.2359    6.0507   12.9145 O   0  0  0  0  0  0  0  0  0  0  0  0
   46.1056    7.1990   13.2458 O   0  0  0  0  0  0  0  0  0  0  0  0
   46.1344    4.9585   12.1624 O   0  0  0  0  0  0  0  0  0  0  0  0
   48.1333    6.6261   14.1412 C   0  0  0  0  0  0  0  0  0  0  0  0
   48.3590    6.2534   15.3525 N   0  0  0  0  0  0  0  0  0  0  0  0
   47.0569    6.1585   13.4454 N   0  0  0  0  0  0  0  0  0  0  0  0
   48.8912    7.4908   13.3922 N   0  0  0  0  0  0  0  0  0  0  0  0
   46.2328    5.0920   13.9855 C   0  0  0  0  0  0  0  0  0  0  0  0
   45.1619    4.7279   12.9849 C   0  0  0  0  0  0  0  0  0  0  0  0
   49.5442    6.7235   16.0454 C   0  0  0  0  0  0  0  0  0  0  0  0
   48.2597    8.5572   12.6289 C   0  0  0  0  0  0  0  0  0  0  0  0
   45.2808    3.5694   12.2025 C   0  0  0  0  0  0  0  0  0  0  0  0
   44.0423    5.5555   12.8058 C   0  0  0  0  0  0  0  0  0  0  0  0
   44.2876    3.2337   11.2776 C   0  0  0  0  0  0  0  0  0  0  0  0
   43.0481    5.2155   11.8826 C   0  0  0  0  0  0  0  0  0  0  0  0
   43.1732    4.0558   11.1199 C   0  0  0  0  0  0  0  0  0  0  0  0
   47.6429    5.0885   13.0757 H   0  0  0  0  0  0  0  0  0  0  0  0
   49.3719    6.9529   15.3427 H   0  0  0  0  0  0  0  0  0  0  0  0
   47.1576    6.3391   11.0681 H   0  0  0  0  0  0  0  0  0  0  0  0
   46.2075    7.4712   12.0393 H   0  0  0  0  0  0  0  0  0  0  0  0
   50.2900    8.7495   13.9135 H   0  0  0  0  0  0  0  0  0  0  0  0
   48.9889    9.0138   15.1284 H   0  0  0  0  0  0  0  0  0  0  0  0
   49.0730   10.0216   13.6928 H   0  0  0  0  0  0  0  0  0  0  0  0
   47.9767    4.3898   15.1489 H   0  0  0  0  0  0  0  0  0  0  0  0
   48.8117    5.1142   16.5226 H   0  0  0  0  0  0  0  0  0  0  0  0
   47.2341    5.7569   16.0441 H   0  0  0  0  0  0  0  0  0  0  0  0
   45.9391    4.5198   10.0714 H   0  0  0  0  0  0  0  0  0  0  0  0
   44.4187    6.3529   13.6701 H   0  0  0  0  0  0  0  0  0  0  0  0
   43.9359    3.0790    9.9697 H   0  0  0  0  0  0  0  0  0  0  0  0
   42.4250    4.8918   13.5672 H   0  0  0  0  0  0  0  0  0  0  0  0
   42.1800    3.2468   11.7172 H   0  0  0  0  0  0  0  0  0  0  0  0
   46.7580    7.8979   13.4645 H   0  0  0  0  0  0  0  0  0  0  0  0
   45.2307    4.7498   12.4785 H   0  0  0  0  0  0  0  0  0  0  0  0
   47.2565    6.0327   12.4605 H   0  0  0  0  0  0  0  0  0  0  0  0
   49.6469    7.8766   13.9421 H   0  0  0  0  0  0  0  0  0  0  0  0
   45.7592    5.4057   14.9220 H   0  0  0  0  0  0  0  0  0  0  0  0
   46.8452    4.2098   14.2087 H   0  0  0  0  0  0  0  0  0  0  0  0
   50.4596    6.4720   15.4975 H   0  0  0  0  0  0  0  0  0  0  0  0
   49.6102    6.2283   17.0150 H   0  0  0  0  0  0  0  0  0  0  0  0
   49.5054    7.8038   16.2229 H   0  0  0  0  0  0  0  0  0  0  0  0
   47.6537    8.1664   11.8085 H   0  0  0  0  0  0  0  0  0  0  0  0
   49.0283    9.1996   12.1969 H   0  0  0  0  0  0  0  0  0  0  0  0
   47.6403    9.1725   13.2882 H   0  0  0  0  0  0  0  0  0  0  0  0
   46.1468    2.9185   12.3006 H   0  0  0  0  0  0  0  0  0  0  0  0
   43.9452    6.4692   13.3904 H   0  0  0  0  0  0  0  0  0  0  0  0
   44.3840    2.3310   10.6802 H   0  0  0  0  0  0  0  0  0  0  0  0
   42.1757    5.8538   11.7584 H   0  0  0  0  0  0  0  0  0  0  0  0
   42.4011    3.7926   10.4002 H   0  0  0  0  0  0  0  0  0  0  0  0
  2  1  2  0
  3  1  1  0
  4  1  1  0
  5  3  1  0
  6  5  1  0
  7  2  1  0
  8  4  1  0
  9  6  2  0
 10  6  1  0
 11  9  1  0
 12 10  2  0
 13 12  1  0
 11 13  2  0
 15 14  2  0
 16 14  2  0
 17 14  1  0
 18 14  1  0
 20 19  2  0
 21 19  1  0
 22 19  1  0
 23 21  1  0
 24 23  1  0
 25 20  1  0
 26 22  1  0
 27 24  2  0
 28 24  1  0
 29 27  1  0
 30 28  2  0
 31 30  1  0
 29 31  2  0
  3 32  1  0
  4 33  1  0
  5 34  1  0
  5 35  1  0
  7 36  1  0
  7 37  1  0
  7 38  1  0
  8 39  1  0
  8 40  1  0
  8 41  1  0
  9 42  1  0
 10 43  1  0
 11 44  1  0
 12 45  1  0
 13 46  1  0
 17 47  1  0
 18 48  1  0
 21 49  1  0
 22 50  1  0
 23 51  1  0
 23 52  1  0
 25 53  1  0
 25 54  1  0
 25 55  1  0
 26 56  1  0
 26 57  1  0
 26 58  1  0
 27 59  1  0
 28 60  1  0
 29 61  1  0
 30 62  1  0
 31 63  1  0
M  END
> <Uni-Dock RESULT> 
ENERGY=   -6.434  LOWER_BOUND=    2.208  UPPER_BOUND=    3.496
INTER + INTRA:          -6.434
INTER:                  -6.434
INTRA:                   0.000
UNBOUND:                 0.000

$$$$

     RDKit          3D

 63 62  0  0  0  0  0  0  0  0999 V2000
   47.9046    8.0745   20.2553 C   0  0  0  0  0  0  0  0  0  0  0  0
   47.5258    9.0952   19.5715 N   0  0  0  0  0  0  0  0  0  0  0  0
   48.3427    6.9424   19.6434 N   0  0  0  0  0  0  0  0  0  0  0  0
   47.8881    7.9543   21.6211 N   0  0  0  0  0  0  0  0  0  0  0  0
   48.4689    6.8299   18.2054 C   0  0  0  0  0  0  0  0  0  0  0  0
   48.4476    5.3644   17.8321 C   0  0  0  0  0  0  0  0  0  0  0  0
   46.9603   10.2526   20.2482 C   0  0  0  0  0  0  0  0  0  0  0  0
   47.5647    6.7025   22.2851 C   0  0  0  0  0  0  0  0  0  0  0  0
   49.5832    4.7278   17.3126 C   0  0  0  0  0  0  0  0  0  0  0  0
   47.2694    4.6176   18.0029 C   0  0  0  0  0  0  0  0  0  0  0  0
   49.5432    3.3706   16.9804 C   0  0  0  0  0  0  0  0  0  0  0  0
   47.2318    3.2614   17.6749 C   0  0  0  0  0  0  0  0  0  0  0  0
   48.3702    2.6379   17.1626 C   0  0  0  0  0  0  0  0  0  0  0  0
   48.1513    6.4331   19.6419 S   0  0  0  0  0  0  0  0  0  0  0  0
   47.5376    5.5964   20.6406 O   0  0  0  0  0  0  0  0  0  0  0  0
   48.9311    7.6032   19.9611 O   0  0  0  0  0  0  0  0  0  0  0  0
   46.9866    6.9181   18.6513 O   0  0  0  0  0  0  0  0  0  0  0  0
   49.0109    5.4707   18.6881 O   0  0  0  0  0  0  0  0  0  0  0  0
   47.7587    7.7911   20.6219 C   0  0  0  0  0  0  0  0  0  0  0  0
   47.3171    7.5287   21.8022 N   0  0  0  0  0  0  0  0  0  0  0  0
   47.9437    6.8033   19.6992 N   0  0  0  0  0  0  0  0  0  0  0  0
   48.1040    9.0242   20.1285 N   0  0  0  0  0  0  0  0  0  0  0  0
   47.8177    5.4064   20.0749 C   0  0  0  0  0  0  0  0  0  0  0  0
   48.1391    4.5344   18.8846 C   0  0  0  0  0  0  0  0  0  0  0  0
   47.1865    8.5936   22.7794 C   0  0  0  0  0  0  0  0  0  0  0  0
   47.6500    9.4478   18.8120 C   0  0  0  0  0  0  0  0  0  0  0  0
   49.3792    3.8852   18.7898 C   0  0  0  0  0  0  0  0  0  0  0  0
   47.2106    4.3786   17.8434 C   0  0  0  0  0  0  0  0  0  0  0  0
   49.6741    3.0775   17.6876 C   0  0  0  0  0  0  0  0  0  0  0  0
   47.5063    3.5670   16.7434 C   0  0  0  0  0  0  0  0  0  0  0  0
   48.7377    2.9187   16.6673 C   0  0  0  0  0  0  0  0  0  0  0  0
   49.1003    6.4871   20.1322 H   0  0  0  0  0  0  0  0  0  0  0  0
   47.4144    8.7267   22.0678 H   0  0  0  0  0  0  0  0  0  0  0  0
   49.4045    7.2983   17.8784 H   0  0  0  0  0  0  0  0  0  0  0  0
   47.6469    7.3334   17.6861 H   0  0  0  0  0  0  0  0  0  0  0  0
   47.7248   10.8213   20.7912 H   0  0  0  0  0  0  0  0  0  0  0  0
   46.1481    9.9640   20.9252 H   0  0  0  0  0  0  0  0  0  0  0  0
   46.5128   10.9217   19.4992 H   0  0  0  0  0  0  0  0  0  0  0  0
   48.3541    5.9583   22.1475 H   0  0  0  0  0  0  0  0  0  0  0  0
   47.4656    6.8792   23.3605 H   0  0  0  0  0  0  0  0  0  0  0  0
   46.6097    6.3137   21.9188 H   0  0  0  0  0  0  0  0  0  0  0  0
   50.5065    5.2835   17.1613 H   0  0  0  0  0  0  0  0  0  0  0  0
   46.3765    5.1000   18.3988 H   0  0  0  0  0  0  0  0  0  0  0  0
   50.4252    2.8881   16.5658 H   0  0  0  0  0  0  0  0  0  0  0  0
   46.3126    2.6968   17.8150 H   0  0  0  0  0  0  0  0  0  0  0  0
   48.3398    1.5826   16.8999 H   0  0  0  0  0  0  0  0  0  0  0  0
   46.7595    7.8393   18.8997 H   0  0  0  0  0  0  0  0  0  0  0  0
   48.4835    4.6605   18.5280 H   0  0  0  0  0  0  0  0  0  0  0  0
   48.7453    6.9734   19.1042 H   0  0  0  0  0  0  0  0  0  0  0  0
   47.9010    9.7512   20.8012 H   0  0  0  0  0  0  0  0  0  0  0  0
   46.8004    5.1883   20.4173 H   0  0  0  0  0  0  0  0  0  0  0  0
   48.4985    5.1687   20.9015 H   0  0  0  0  0  0  0  0  0  0  0  0
   48.1385    9.1115   22.9430 H   0  0  0  0  0  0  0  0  0  0  0  0
   46.8920    8.1638   23.7376 H   0  0  0  0  0  0  0  0  0  0  0  0
   46.4181    9.3174   22.4864 H   0  0  0  0  0  0  0  0  0  0  0  0
   48.1028    8.8539   18.0150 H   0  0  0  0  0  0  0  0  0  0  0  0
   47.9291   10.4898   18.6489 H   0  0  0  0  0  0  0  0  0  0  0  0
   46.5596    9.3797   18.7528 H   0  0  0  0  0  0  0  0  0  0  0  0
   50.1295    4.0030   19.5686 H   0  0  0  0  0  0  0  0  0  0  0  0
   46.2516    4.8924   17.8916 H   0  0  0  0  0  0  0  0  0  0  0  0
   50.6345    2.5727   17.6250 H   0  0  0  0  0  0  0  0  0  0  0  0
   46.7769    3.4390   15.9462 H   0  0  0  0  0  0  0  0  0  0  0  0
   48.9688    2.2893   15.8107 H   0  0  0  0  0  0  0  0  0  0  0  0
  2  1  2  0
  3  1  1  0
  4  1  1  0
  5  3  1  0
  6  5  1  0
  7  2  1  0
  8  4  1  0
  9  6  2  0
 10  6  1  0
 11  9  1  0
 12 10  2  0
 13 12  1  0
 11 13  2  0
 15 14  2  0
 16 14  2  0
 17 14  1  0
 18 14  1  0
 20 19  2  0
 21 19  1  0
 22 19  1  0
 23 21  1  0
 24 23  1  0
 25 20  1  0
 26 22  1  0
 27 24  2  0
 28 24  1  0
 29 27  1  0
 30 28  2  0
 31 30  1  0
 29 31  2  0
  3 32  1  0
  4 33  1  0
  5 34  1  0
  5 35  1  0
  7 36  1  0
  7 37  1  0
  7 38  1  0
  8 39  1  0
  8 40  1  0
  8 41  1  0
  9 42  1  0
 10 43  1  0
 11 44  1  0
 12 45  1  0
 13 46  1  0
 17 47  1  0
 18 48  1  0
 21 49  1  0
 22 50  1  0
 23 51  1  0
 23 52  1  0
 25 53  1  0
 25 54  1  0
 25 55  1  0
 26 56  1  0
 26 57  1  0
 26 58  1  0
 27 59  1  0
 28 60  1  0
 29 61  1  0
 30 62  1  0
 31 63  1  0
M  END
> <Uni-Dock RESULT> 
ENERGY=   -5.885  LOWER_BOUND=    7.105  UPPER_BOUND=    8.289
INTER + INTRA:          -5.885
INTER:                  -5.885
INTRA:                   0.000
UNBOUND:                 0.000

$$$$

     RDKit          3D

 63 62  0  0  0  0  0  0  0  0999 V2000
   44.6435    5.6961   12.5615 C   0  0  0  0  0  0  0  0  0  0  0  0
   43.7836    6.2309   11.7694 N   0  0  0  0  0  0  0  0  0  0  0  0
   45.7131    6.4011   13.0164 N   0  0  0  0  0  0  0  0  0  0  0  0
   44.6450    4.4009   13.0115 N   0  0  0  0  0  0  0  0  0  0  0  0
   45.9229    7.7972   12.6952 C   0  0  0  0  0  0  0  0  0  0  0  0
   47.3896    8.1192   12.8763 C   0  0  0  0  0  0  0  0  0  0  0  0
   42.7092    5.4228   11.2125 C   0  0  0  0  0  0  0  0  0  0  0  0
   45.8734    3.6476   13.2010 C   0  0  0  0  0  0  0  0  0  0  0  0
   47.8273    8.9768   13.8950 C   0  0  0  0  0  0  0  0  0  0  0  0
   48.3405    7.5546   12.0091 C   0  0  0  0  0  0  0  0  0  0  0  0
   49.1885    9.2555   14.0484 C   0  0  0  0  0  0  0  0  0  0  0  0
   49.6998    7.8301   12.1660 C   0  0  0  0  0  0  0  0  0  0  0  0
   50.1236    8.6821   13.1866 C   0  0  0  0  0  0  0  0  0  0  0  0
   46.2487    6.3308   12.9510 S   0  0  0  0  0  0  0  0  0  0  0  0
   47.1015    5.1720   12.8896 O   0  0  0  0  0  0  0  0  0  0  0  0
   44.9222    6.3075   13.5159 O   0  0  0  0  0  0  0  0  0  0  0  0
   46.0964    6.8851   11.4534 O   0  0  0  0  0  0  0  0  0  0  0  0
   47.0977    7.5011   13.6471 O   0  0  0  0  0  0  0  0  0  0  0  0
   44.9174    5.2975   12.6070 C   0  0  0  0  0  0  0  0  0  0  0  0
   45.1594    4.0335   12.6368 N   0  0  0  0  0  0  0  0  0  0  0  0
   45.9243    6.2136   12.6971 N   0  0  0  0  0  0  0  0  0  0  0  0
   43.6879    5.8969   12.4966 N   0  0  0  0  0  0  0  0  0  0  0  0
   47.2798    5.7955   13.0075 C   0  0  0  0  0  0  0  0  0  0  0  0
   48.1697    7.0111   13.1120 C   0  0  0  0  0  0  0  0  0  0  0  0
   44.0615    3.0853   12.5974 C   0  0  0  0  0  0  0  0  0  0  0  0
   43.4808    6.9938   11.5626 C   0  0  0  0  0  0  0  0  0  0  0  0
   48.5616    7.5028   14.3662 C   0  0  0  0  0  0  0  0  0  0  0  0
   48.5994    7.6817   11.9560 C   0  0  0  0  0  0  0  0  0  0  0  0
   49.3864    8.6276   14.4604 C   0  0  0  0  0  0  0  0  0  0  0  0
   49.4277    8.8046   12.0526 C   0  0  0  0  0  0  0  0  0  0  0  0
   49.8188    9.2757   13.3046 C   0  0  0  0  0  0  0  0  0  0  0  0
   45.9622    6.1850   13.9710 H   0  0  0  0  0  0  0  0  0  0  0  0
   43.9478    3.8342   12.5496 H   0  0  0  0  0  0  0  0  0  0  0  0
   45.3061    8.4241   13.3495 H   0  0  0  0  0  0  0  0  0  0  0  0
   45.6425    8.0214   11.6608 H   0  0  0  0  0  0  0  0  0  0  0  0
   41.9531    5.1740   11.9668 H   0  0  0  0  0  0  0  0  0  0  0  0
   43.0953    4.5098   10.7449 H   0  0  0  0  0  0  0  0  0  0  0  0
   42.2119    5.9908   10.4131 H   0  0  0  0  0  0  0  0  0  0  0  0
   46.4525    4.0283   14.0469 H   0  0  0  0  0  0  0  0  0  0  0  0
   45.6272    2.6034   13.4165 H   0  0  0  0  0  0  0  0  0  0  0  0
   46.4771    3.6693   12.2885 H   0  0  0  0  0  0  0  0  0  0  0  0
   47.1124    9.4352   14.5754 H   0  0  0  0  0  0  0  0  0  0  0  0
   48.0151    6.8918   11.2081 H   0  0  0  0  0  0  0  0  0  0  0  0
   49.5177    9.9323   14.8334 H   0  0  0  0  0  0  0  0  0  0  0  0
   50.4235    7.3834   11.4877 H   0  0  0  0  0  0  0  0  0  0  0  0
   51.1822    8.9032   13.3052 H   0  0  0  0  0  0  0  0  0  0  0  0
   45.2217    6.5898   11.1224 H   0  0  0  0  0  0  0  0  0  0  0  0
   48.0084    7.4639   13.2871 H   0  0  0  0  0  0  0  0  0  0  0  0
   45.6489    7.0440   13.2072 H   0  0  0  0  0  0  0  0  0  0  0  0
   42.9607    5.2064   12.3667 H   0  0  0  0  0  0  0  0  0  0  0  0
   47.6676    5.1310   12.2280 H   0  0  0  0  0  0  0  0  0  0  0  0
   47.3025    5.2388   13.9524 H   0  0  0  0  0  0  0  0  0  0  0  0
   43.3502    3.2558   13.4138 H   0  0  0  0  0  0  0  0  0  0  0  0
   44.4566    2.0771   12.7281 H   0  0  0  0  0  0  0  0  0  0  0  0
   43.5356    3.1173   11.6370 H   0  0  0  0  0  0  0  0  0  0  0  0
   44.0386    7.8867   11.8536 H   0  0  0  0  0  0  0  0  0  0  0  0
   42.4223    7.2568   11.5392 H   0  0  0  0  0  0  0  0  0  0  0  0
   43.7720    6.6859   10.5539 H   0  0  0  0  0  0  0  0  0  0  0  0
   48.2276    7.0199   15.2819 H   0  0  0  0  0  0  0  0  0  0  0  0
   48.2871    7.3253   10.9755 H   0  0  0  0  0  0  0  0  0  0  0  0
   49.6910    8.9982   15.4356 H   0  0  0  0  0  0  0  0  0  0  0  0
   49.7689    9.3117   11.1525 H   0  0  0  0  0  0  0  0  0  0  0  0
   50.4611   10.1504   13.3800 H   0  0  0  0  0  0  0  0  0  0  0  0
  2  1  2  0
  3  1  1  0
  4  1  1  0
  5  3  1  0
  6  5  1  0
  7  2  1  0
  8  4  1  0
  9  6  2  0
 10  6  1  0
 11  9  1  0
 12 10  2  0
 13 12  1  0
 11 13  2  0
 15 14  2  0
 16 14  2  0
 17 14  1  0
 18 14  1  0
 20 19  2  0
 21 19  1  0
 22 19  1  0
 23 21  1  0
 24 23  1  0
 25 20  1  0
 26 22  1  0
 27 24  2  0
 28 24  1  0
 29 27  1  0
 30 28  2  0
 31 30  1  0
 29 31  2  0
  3 32  1  0
  4 33  1  0
  5 34  1  0
  5 35  1  0
  7 36  1  0
  7 37  1  0
  7 38  1  0
  8 39  1  0
  8 40  1  0
  8 41  1  0
  9 42  1  0
 10 43  1  0
 11 44  1  0
 12 45  1  0
 13 46  1  0
 17 47  1  0
 18 48  1  0
 21 49  1  0
 22 50  1  0
 23 51  1  0
 23 52  1  0
 25 53  1  0
 25 54  1  0
 25 55  1  0
 26 56  1  0
 26 57  1  0
 26 58  1  0
 27 59  1  0
 28 60  1  0
 29 61  1  0
 30 62  1  0
 31 63  1  0
M  END
> <Uni-Dock RESULT> 
ENERGY=   -5.714  LOWER_BOUND=    2.065  UPPER_BOUND=    5.438
INTER + INTRA:          -5.714
INTER:                  -5.714
INTRA:                   0.000
UNBOUND:                 0.000

$$$$

     RDKit          3D

 63 62  0  0  0  0  0  0  0  0999 V2000
   47.6286    8.7045   19.1702 C   0  0  0  0  0  0  0  0  0  0  0  0
   47.6616    8.8500   20.4471 N   0  0  0  0  0  0  0  0  0  0  0  0
   47.6070    7.4686   18.6045 N   0  0  0  0  0  0  0  0  0  0  0  0
   47.6524    9.7051   18.2330 N   0  0  0  0  0  0  0  0  0  0  0  0
   47.5591    6.2514   19.3871 C   0  0  0  0  0  0  0  0  0  0  0  0
   48.0762    5.1111   18.5385 C   0  0  0  0  0  0  0  0  0  0  0  0
   47.7933   10.1800   21.0227 C   0  0  0  0  0  0  0  0  0  0  0  0
   48.3587    9.5676   16.9702 C   0  0  0  0  0  0  0  0  0  0  0  0
   47.2299    4.0789   18.1105 C   0  0  0  0  0  0  0  0  0  0  0  0
   49.4316    5.0749   18.1688 C   0  0  0  0  0  0  0  0  0  0  0  0
   47.7275    3.0380   17.3212 C   0  0  0  0  0  0  0  0  0  0  0  0
   49.9264    4.0374   17.3770 C   0  0  0  0  0  0  0  0  0  0  0  0
   49.0730    3.0178   16.9536 C   0  0  0  0  0  0  0  0  0  0  0  0
   47.9572    7.2139   18.2749 S   0  0  0  0  0  0  0  0  0  0  0  0
   48.7911    7.6449   17.1827 O   0  0  0  0  0  0  0  0  0  0  0  0
   46.8249    7.9691   18.7511 O   0  0  0  0  0  0  0  0  0  0  0  0
   48.9166    6.9848   19.5399 O   0  0  0  0  0  0  0  0  0  0  0  0
   47.4898    5.7149   17.9444 O   0  0  0  0  0  0  0  0  0  0  0  0
   47.8520    8.8586   18.7673 C   0  0  0  0  0  0  0  0  0  0  0  0
   48.3281    9.7272   17.9452 N   0  0  0  0  0  0  0  0  0  0  0  0
   48.0282    7.5210   18.5649 N   0  0  0  0  0  0  0  0  0  0  0  0
   47.1273    9.1136   19.9044 N   0  0  0  0  0  0  0  0  0  0  0  0
   48.6036    7.0293   17.3257 C   0  0  0  0  0  0  0  0  0  0  0  0
   48.6189    5.5194   17.3424 C   0  0  0  0  0  0  0  0  0  0  0  0
   48.0737   11.1401   18.1574 C   0  0  0  0  0  0  0  0  0  0  0  0
   47.4448    8.4342   21.1519 C   0  0  0  0  0  0  0  0  0  0  0  0
   47.6685    4.7880   16.6143 C   0  0  0  0  0  0  0  0  0  0  0  0
   49.5703    4.8244   18.1056 C   0  0  0  0  0  0  0  0  0  0  0  0
   47.6853    3.3903   16.6304 C   0  0  0  0  0  0  0  0  0  0  0  0
   49.5876    3.4258   18.1171 C   0  0  0  0  0  0  0  0  0  0  0  0
   48.6446    2.7117   17.3801 C   0  0  0  0  0  0  0  0  0  0  0  0
   47.0333    7.4147   17.7750 H   0  0  0  0  0  0  0  0  0  0  0  0
   47.8312   10.6105   18.6439 H   0  0  0  0  0  0  0  0  0  0  0  0
   46.5289    6.0581   19.7077 H   0  0  0  0  0  0  0  0  0  0  0  0
   48.1783    6.3240   20.2872 H   0  0  0  0  0  0  0  0  0  0  0  0
   46.8706   10.7632   20.9171 H   0  0  0  0  0  0  0  0  0  0  0  0
   48.6392   10.7236   20.5866 H   0  0  0  0  0  0  0  0  0  0  0  0
   48.0097   10.0853   22.0966 H   0  0  0  0  0  0  0  0  0  0  0  0
   47.8658    8.8489   16.3095 H   0  0  0  0  0  0  0  0  0  0  0  0
   48.3682   10.5328   16.4548 H   0  0  0  0  0  0  0  0  0  0  0  0
   49.3970    9.2700   17.1460 H   0  0  0  0  0  0  0  0  0  0  0  0
   46.1780    4.0765   18.3893 H   0  0  0  0  0  0  0  0  0  0  0  0
   50.1032    5.8661   18.4997 H   0  0  0  0  0  0  0  0  0  0  0  0
   47.0665    2.2346   17.0046 H   0  0  0  0  0  0  0  0  0  0  0  0
   50.9777    4.0250   17.0976 H   0  0  0  0  0  0  0  0  0  0  0  0
   49.4594    2.2048   16.3424 H   0  0  0  0  0  0  0  0  0  0  0  0
   48.8180    7.7664   20.1241 H   0  0  0  0  0  0  0  0  0  0  0  0
   48.2606    5.2367   17.5735 H   0  0  0  0  0  0  0  0  0  0  0  0
   47.2298    6.9747   18.8646 H   0  0  0  0  0  0  0  0  0  0  0  0
   47.0607   10.1082   20.0738 H   0  0  0  0  0  0  0  0  0  0  0  0
   49.6271    7.3987   17.2012 H   0  0  0  0  0  0  0  0  0  0  0  0
   48.0218    7.3833   16.4658 H   0  0  0  0  0  0  0  0  0  0  0  0
   47.0000   11.3551   18.2046 H   0  0  0  0  0  0  0  0  0  0  0  0
   48.4722   11.7046   17.3134 H   0  0  0  0  0  0  0  0  0  0  0  0
   48.5637   11.5057   19.0664 H   0  0  0  0  0  0  0  0  0  0  0  0
   47.2344    7.3637   21.0971 H   0  0  0  0  0  0  0  0  0  0  0  0
   46.8384    8.8507   21.9575 H   0  0  0  0  0  0  0  0  0  0  0  0
   48.4966    8.5937   21.4072 H   0  0  0  0  0  0  0  0  0  0  0  0
   46.9038    5.2961   16.0308 H   0  0  0  0  0  0  0  0  0  0  0  0
   50.3020    5.3771   18.6930 H   0  0  0  0  0  0  0  0  0  0  0  0
   46.9497    2.8311   16.0582 H   0  0  0  0  0  0  0  0  0  0  0  0
   50.3363    2.8928   18.6995 H   0  0  0  0  0  0  0  0  0  0  0  0
   48.6565    1.6240   17.3909 H   0  0  0  0  0  0  0  0  0  0  0  0
  2  1  2  0
  3  1  1  0
  4  1  1  0
  5  3  1  0
  6  5  1  0
  7  2  1  0
  8  4  1  0
  9  6  2  0
 10  6  1  0
 11  9  1  0
 12 10  2  0
 13 12  1  0
 11 13  2  0
 15 14  2  0
 16 14  2  0
 17 14  1  0
 18 14  1  0
 20 19  2  0
 21 19  1  0
 22 19  1  0
 23 21  1  0
 24 23  1  0
 25 20  1  0
 26 22  1  0
 27 24  2  0
 28 24  1  0
 29 27  1  0
 30 28  2  0
 31 30  1  0
 29 31  2  0
  3 32  1  0
  4 33  1  0
  5 34  1  0
  5 35  1  0
  7 36  1  0
  7 37  1  0
  7 38  1  0
  8 39  1  0
  8 40  1  0
  8 41  1  0
  9 42  1  0
 10 43  1  0
 11 44  1  0
 12 45  1  0
 13 46  1  0
 17 47  1  0
 18 48  1  0
 21 49  1  0
 22 50  1  0
 23 51  1  0
 23 52  1  0
 25 53  1  0
 25 54  1  0
 25 55  1  0
 26 56  1  0
 26 57  1  0
 26 58  1  0
 27 59  1  0
 28 60  1  0
 29 61  1  0
 30 62  1  0
 31 63  1  0
M  END
> <Uni-Dock RESULT> 
ENERGY=   -5.602  LOWER_BOUND=    6.182  UPPER_BOUND=    7.324
INTER + INTRA:          -5.602
INTER:                  -5.602
INTRA:                   0.000
UNBOUND:                 0.000

$$$$

     RDKit          3D

 63 62  0  0  0  0  0  0  0  0999 V2000
   53.0335    4.2318   19.4488 C   0  0  0  0  0  0  0  0  0  0  0  0
   53.9895    4.4069   18.6072 N   0  0  0  0  0  0  0  0  0  0  0  0
   51.7777    3.9214   19.0308 N   0  0  0  0  0  0  0  0  0  0  0  0
   53.1102    4.3638   20.8115 N   0  0  0  0  0  0  0  0  0  0  0  0
   51.4478    3.7101   17.6370 C   0  0  0  0  0  0  0  0  0  0  0  0
   49.9607    3.9190   17.4558 C   0  0  0  0  0  0  0  0  0  0  0  0
   55.2965    4.8440   19.0743 C   0  0  0  0  0  0  0  0  0  0  0  0
   52.0198    4.9139   21.5995 C   0  0  0  0  0  0  0  0  0  0  0  0
   49.1096    2.8545   17.1285 C   0  0  0  0  0  0  0  0  0  0  0  0
   49.4119    5.2030   17.6137 C   0  0  0  0  0  0  0  0  0  0  0  0
   47.7371    3.0688   16.9723 C   0  0  0  0  0  0  0  0  0  0  0  0
   48.0407    5.4151   17.4617 C   0  0  0  0  0  0  0  0  0  0  0  0
   47.2030    4.3466   17.1401 C   0  0  0  0  0  0  0  0  0  0  0  0
   51.3039    4.1848   19.0778 S   0  0  0  0  0  0  0  0  0  0  0  0
   50.7070    4.9845   20.1161 O   0  0  0  0  0  0  0  0  0  0  0  0
   52.3909    3.2669   19.3128 O   0  0  0  0  0  0  0  0  0  0  0  0
   51.7977    5.1917   17.9309 O   0  0  0  0  0  0  0  0  0  0  0  0
   50.1094    3.4091   18.3386 O   0  0  0  0  0  0  0  0  0  0  0  0
   52.8269    4.4436   19.8342 C   0  0  0  0  0  0  0  0  0  0  0  0
   52.7956    5.0025   20.9933 N   0  0  0  0  0  0  0  0  0  0  0  0
   51.7032    4.3395   19.0676 N   0  0  0  0  0  0  0  0  0  0  0  0
   53.9200    3.8869   19.2190 N   0  0  0  0  0  0  0  0  0  0  0  0
   50.4031    4.6953   19.6076 C   0  0  0  0  0  0  0  0  0  0  0  0
   49.3367    4.4205   18.5743 C   0  0  0  0  0  0  0  0  0  0  0  0
   53.9952    5.0456   21.8087 C   0  0  0  0  0  0  0  0  0  0  0  0
   54.2115    4.1782   17.8230 C   0  0  0  0  0  0  0  0  0  0  0  0
   48.5189    3.2852   18.6775 C   0  0  0  0  0  0  0  0  0  0  0  0
   49.1630    5.2846   17.4817 C   0  0  0  0  0  0  0  0  0  0  0  0
   47.5316    3.0334   17.7204 C   0  0  0  0  0  0  0  0  0  0  0  0
   48.1720    5.0327   16.5274 C   0  0  0  0  0  0  0  0  0  0  0  0
   47.3589    3.9072   16.6482 C   0  0  0  0  0  0  0  0  0  0  0  0
   51.2975    3.2758   19.6413 H   0  0  0  0  0  0  0  0  0  0  0  0
   53.9948    4.7502   21.1096 H   0  0  0  0  0  0  0  0  0  0  0  0
   51.7344    2.6950   17.3388 H   0  0  0  0  0  0  0  0  0  0  0  0
   51.9796    4.4101   16.9843 H   0  0  0  0  0  0  0  0  0  0  0  0
   55.8272    4.0455   19.6066 H   0  0  0  0  0  0  0  0  0  0  0  0
   55.2186    5.7362   19.7061 H   0  0  0  0  0  0  0  0  0  0  0  0
   55.9077    5.1337   18.2074 H   0  0  0  0  0  0  0  0  0  0  0  0
   51.1637    4.2342   21.6316 H   0  0  0  0  0  0  0  0  0  0  0  0
   52.3580    5.0631   22.6294 H   0  0  0  0  0  0  0  0  0  0  0  0
   51.7161    5.8868   21.2010 H   0  0  0  0  0  0  0  0  0  0  0  0
   49.5083    1.8512   16.9915 H   0  0  0  0  0  0  0  0  0  0  0  0
   50.0616    6.0418   17.8610 H   0  0  0  0  0  0  0  0  0  0  0  0
   47.0862    2.2395   16.7056 H   0  0  0  0  0  0  0  0  0  0  0  0
   47.6311    6.4149   17.5893 H   0  0  0  0  0  0  0  0  0  0  0  0
   46.1351    4.5122   17.0143 H   0  0  0  0  0  0  0  0  0  0  0  0
   52.7669    5.2987   18.0363 H   0  0  0  0  0  0  0  0  0  0  0  0
   49.3636    4.0366   18.2373 H   0  0  0  0  0  0  0  0  0  0  0  0
   51.6776    3.4809   18.5310 H   0  0  0  0  0  0  0  0  0  0  0  0
   54.7553    4.0290   19.7709 H   0  0  0  0  0  0  0  0  0  0  0  0
   50.3751    5.7555   19.8812 H   0  0  0  0  0  0  0  0  0  0  0  0
   50.1943    4.1179   20.5166 H   0  0  0  0  0  0  0  0  0  0  0  0
   54.3974    4.0422   21.9900 H   0  0  0  0  0  0  0  0  0  0  0  0
   53.7485    5.4680   22.7836 H   0  0  0  0  0  0  0  0  0  0  0  0
   54.7678    5.6766   21.3559 H   0  0  0  0  0  0  0  0  0  0  0  0
   53.4555    3.7612   17.1540 H   0  0  0  0  0  0  0  0  0  0  0  0
   55.1727    3.7386   17.5527 H   0  0  0  0  0  0  0  0  0  0  0  0
   54.2839    5.2597   17.6741 H   0  0  0  0  0  0  0  0  0  0  0  0
   48.6426    2.5837   19.4996 H   0  0  0  0  0  0  0  0  0  0  0  0
   49.8034    6.1590   17.3756 H   0  0  0  0  0  0  0  0  0  0  0  0
   46.8977    2.1553   17.8113 H   0  0  0  0  0  0  0  0  0  0  0  0
   48.0329    5.7137   15.6903 H   0  0  0  0  0  0  0  0  0  0  0  0
   46.5897    3.7099   15.9048 H   0  0  0  0  0  0  0  0  0  0  0  0
  2  1  2  0
  3  1  1  0
  4  1  1  0
  5  3  1  0
  6  5  1  0
  7  2  1  0
  8  4  1  0
  9  6  2  0
 10  6  1  0
 11  9  1  0
 12 10  2  0
 13 12  1  0
 11 13  2  0
 15 14  2  0
 16 14  2  0
 17 14  1  0
 18 14  1  0
 20 19  2  0
 21 19  1  0
 22 19  1  0
 23 21  1  0
 24 23  1  0
 25 20  1  0
 26 22  1  0
 27 24  2  0
 28 24  1  0
 29 27  1  0
 30 28  2  0
 31 30  1  0
 29 31  2  0
  3 32  1  0
  4 33  1  0
  5 34  1  0
  5 35  1  0
  7 36  1  0
  7 37  1  0
  7 38  1  0
  8 39  1  0
  8 40  1  0
  8 41  1  0
  9 42  1  0
 10 43  1  0
 11 44  1  0
 12 45  1  0
 13 46  1  0
 17 47  1  0
 18 48  1  0
 21 49  1  0
 22 50  1  0
 23 51  1  0
 23 52  1  0
 25 53  1  0
 25 54  1  0
 25 55  1  0
 26 56  1  0
 26 57  1  0
 26 58  1  0
 27 59  1  0
 28 60  1  0
 29 61  1  0
 30 62  1  0
 31 63  1  0
M  END
> <Uni-Dock RESULT> 
ENERGY=   -5.141  LOWER_BOUND=    8.444  UPPER_BOUND=    9.807
INTER + INTRA:          -5.141
INTER:                  -5.141
INTRA:                   0.000
UNBOUND:                 0.000

$$$$

     RDKit          3D

 63 62  0  0  0  0  0  0  0  0999 V2000
   48.5982    5.6465   16.8571 C   0  0  0  0  0  0  0  0  0  0  0  0
   48.7442    6.2468   17.9845 N   0  0  0  0  0  0  0  0  0  0  0  0
   48.9254    6.2582   15.6880 N   0  0  0  0  0  0  0  0  0  0  0  0
   48.0823    4.3913   16.6606 N   0  0  0  0  0  0  0  0  0  0  0  0
   49.5078    7.5827   15.6352 C   0  0  0  0  0  0  0  0  0  0  0  0
   49.2540    8.1673   14.2635 C   0  0  0  0  0  0  0  0  0  0  0  0
   48.2857    5.6106   19.2102 C   0  0  0  0  0  0  0  0  0  0  0  0
   47.2502    4.0661   15.5143 C   0  0  0  0  0  0  0  0  0  0  0  0
   50.3035    8.3962   13.3629 C   0  0  0  0  0  0  0  0  0  0  0  0
   47.9434    8.4940   13.8755 C   0  0  0  0  0  0  0  0  0  0  0  0
   50.0455    8.9313   12.0976 C   0  0  0  0  0  0  0  0  0  0  0  0
   47.6864    9.0241   12.6101 C   0  0  0  0  0  0  0  0  0  0  0  0
   48.7391    9.2433   11.7209 C   0  0  0  0  0  0  0  0  0  0  0  0
   48.6263    6.3991   15.2558 S   0  0  0  0  0  0  0  0  0  0  0  0
   47.5188    5.7870   14.5681 O   0  0  0  0  0  0  0  0  0  0  0  0
   49.5122    5.6728   16.1316 O   0  0  0  0  0  0  0  0  0  0  0  0
   48.0339    7.6172   16.1151 O   0  0  0  0  0  0  0  0  0  0  0  0
   49.4950    7.1721   14.1501 O   0  0  0  0  0  0  0  0  0  0  0  0
   48.2695    5.3931   16.6047 C   0  0  0  0  0  0  0  0  0  0  0  0
   47.3974    4.4675   16.4055 N   0  0  0  0  0  0  0  0  0  0  0  0
   48.5104    6.3530   15.6655 N   0  0  0  0  0  0  0  0  0  0  0  0
   49.0579    5.5547   17.7162 N   0  0  0  0  0  0  0  0  0  0  0  0
   47.9205    6.2584   14.3421 C   0  0  0  0  0  0  0  0  0  0  0  0
   48.4059    7.4079   13.4916 C   0  0  0  0  0  0  0  0  0  0  0  0
   47.2060    3.4275   17.3994 C   0  0  0  0  0  0  0  0  0  0  0  0
   49.2061    6.8642   18.3342 C   0  0  0  0  0  0  0  0  0  0  0  0
   49.4003    7.2081   12.5223 C   0  0  0  0  0  0  0  0  0  0  0  0
   47.8859    8.6990   13.6738 C   0  0  0  0  0  0  0  0  0  0  0  0
   49.8474    8.2735   11.7353 C   0  0  0  0  0  0  0  0  0  0  0  0
   48.3320    9.7627   12.8826 C   0  0  0  0  0  0  0  0  0  0  0  0
   49.3123    9.5479   11.9156 C   0  0  0  0  0  0  0  0  0  0  0  0
   49.3297    5.6333   15.0052 H   0  0  0  0  0  0  0  0  0  0  0  0
   47.6908    4.0016   17.5065 H   0  0  0  0  0  0  0  0  0  0  0  0
   50.5837    7.5220   15.8362 H   0  0  0  0  0  0  0  0  0  0  0  0
   49.0676    8.2489   16.3843 H   0  0  0  0  0  0  0  0  0  0  0  0
   48.9314    4.7733   19.5012 H   0  0  0  0  0  0  0  0  0  0  0  0
   47.2454    5.2768   19.1237 H   0  0  0  0  0  0  0  0  0  0  0  0
   48.3049    6.3484   20.0252 H   0  0  0  0  0  0  0  0  0  0  0  0
   47.8279    4.0629   14.5857 H   0  0  0  0  0  0  0  0  0  0  0  0
   46.8333    3.0627   15.6437 H   0  0  0  0  0  0  0  0  0  0  0  0
   46.4156    4.7699   15.4386 H   0  0  0  0  0  0  0  0  0  0  0  0
   51.3293    8.1611   13.6399 H   0  0  0  0  0  0  0  0  0  0  0  0
   47.1180    8.3286   14.5670 H   0  0  0  0  0  0  0  0  0  0  0  0
   50.8674    9.1175   11.4103 H   0  0  0  0  0  0  0  0  0  0  0  0
   46.6659    9.2697   12.3242 H   0  0  0  0  0  0  0  0  0  0  0  0
   48.5407    9.6633   10.7370 H   0  0  0  0  0  0  0  0  0  0  0  0
   47.9710    7.3125   17.0452 H   0  0  0  0  0  0  0  0  0  0  0  0
   48.8719    7.6139   13.5362 H   0  0  0  0  0  0  0  0  0  0  0  0
   49.4836    6.6319   15.6365 H   0  0  0  0  0  0  0  0  0  0  0  0
   48.8222    4.8752   18.4269 H   0  0  0  0  0  0  0  0  0  0  0  0
   46.8274    6.2914   14.4027 H   0  0  0  0  0  0  0  0  0  0  0  0
   48.1927    5.3073   13.8680 H   0  0  0  0  0  0  0  0  0  0  0  0
   48.1398    2.8945   17.6121 H   0  0  0  0  0  0  0  0  0  0  0  0
   46.5023    2.6896   17.0121 H   0  0  0  0  0  0  0  0  0  0  0  0
   46.7909    3.8306   18.3296 H   0  0  0  0  0  0  0  0  0  0  0  0
   49.7438    7.5608   17.6871 H   0  0  0  0  0  0  0  0  0  0  0  0
   49.7733    6.7670   19.2610 H   0  0  0  0  0  0  0  0  0  0  0  0
   48.2225    7.2729   18.5844 H   0  0  0  0  0  0  0  0  0  0  0  0
   49.8401    6.2247   12.3713 H   0  0  0  0  0  0  0  0  0  0  0  0
   47.1285    8.8752   14.4362 H   0  0  0  0  0  0  0  0  0  0  0  0
   50.6133    8.1090   10.9820 H   0  0  0  0  0  0  0  0  0  0  0  0
   47.9150   10.7583   13.0191 H   0  0  0  0  0  0  0  0  0  0  0  0
   49.6609   10.3755   11.3018 H   0  0  0  0  0  0  0  0  0  0  0  0
  2  1  2  0
  3  1  1  0
  4  1  1  0
  5  3  1  0
  6  5  1  0
  7  2  1  0
  8  4  1  0
  9  6  2  0
 10  6  1  0
 11  9  1  0
 12 10  2  0
 13 12  1  0
 11 13  2  0
 15 14  2  0
 16 14  2  0
 17 14  1  0
 18 14  1  0
 20 19  2  0
 21 19  1  0
 22 19  1  0
 23 21  1  0
 24 23  1  0
 25 20  1  0
 26 22  1  0
 27 24  2  0
 28 24  1  0
 29 27  1  0
 30 28  2  0
 31 30  1  0
 29 31  2  0
  3 32  1  0
  4 33  1  0
  5 34  1  0
  5 35  1  0
  7 36  1  0
  7 37  1  0
  7 38  1  0
  8 39  1  0
  8 40  1  0
  8 41  1  0
  9 42  1  0
 10 43  1  0
 11 44  1  0
 12 45  1  0
 13 46  1  0
 17 47  1  0
 18 48  1  0
 21 49  1  0
 22 50  1  0
 23 51  1  0
 23 52  1  0
 25 53  1  0
 25 54  1  0
 25 55  1  0
 26 56  1  0
 26 57  1  0
 26 58  1  0
 27 59  1  0
 28 60  1  0
 29 61  1  0
 30 62  1  0
 31 63  1  0
M  END
> <Uni-Dock RESULT> 
ENERGY=   -5.095  LOWER_BOUND=    4.434  UPPER_BOUND=    6.575
INTER + INTRA:          -5.095
INTER:                  -5.095
INTRA:                   0.000
UNBOUND:                 0.000

$$$$

     RDKit          3D

 63 62  0  0  0  0  0  0  0  0999 V2000
   48.2710    5.3518   16.3961 C   0  0  0  0  0  0  0  0  0  0  0  0
   47.5089    4.4049   15.9773 N   0  0  0  0  0  0  0  0  0  0  0  0
   48.6429    5.4289   17.7014 N   0  0  0  0  0  0  0  0  0  0  0  0
   48.7642    6.3930   15.6526 N   0  0  0  0  0  0  0  0  0  0  0  0
   48.2634    4.4338   18.6823 C   0  0  0  0  0  0  0  0  0  0  0  0
   48.3537    5.0539   20.0589 C   0  0  0  0  0  0  0  0  0  0  0  0
   47.0389    4.4071   14.6002 C   0  0  0  0  0  0  0  0  0  0  0  0
   48.9124    7.7324   16.1971 C   0  0  0  0  0  0  0  0  0  0  0  0
   49.3173    4.6336   20.9860 C   0  0  0  0  0  0  0  0  0  0  0  0
   47.4560    6.0707   20.4268 C   0  0  0  0  0  0  0  0  0  0  0  0
   49.3872    5.2251   22.2506 C   0  0  0  0  0  0  0  0  0  0  0  0
   47.5295    6.6637   21.6882 C   0  0  0  0  0  0  0  0  0  0  0  0
   48.4960    6.2396   22.6009 C   0  0  0  0  0  0  0  0  0  0  0  0
   48.5511    5.8052   18.0835 S   0  0  0  0  0  0  0  0  0  0  0  0
   48.4832    7.2437   18.0695 O   0  0  0  0  0  0  0  0  0  0  0  0
   49.1875    5.0334   17.0450 O   0  0  0  0  0  0  0  0  0  0  0  0
   47.0459    5.2623   18.1972 O   0  0  0  0  0  0  0  0  0  0  0  0
   49.1598    5.3787   19.5056 O   0  0  0  0  0  0  0  0  0  0  0  0
   48.3151    5.8353   16.3800 C   0  0  0  0  0  0  0  0  0  0  0  0
   48.3749    6.9932   15.8206 N   0  0  0  0  0  0  0  0  0  0  0  0
   48.3193    5.7039   17.7379 N   0  0  0  0  0  0  0  0  0  0  0  0
   48.2512    4.6191   15.7477 N   0  0  0  0  0  0  0  0  0  0  0  0
   48.5699    6.8511   18.5920 C   0  0  0  0  0  0  0  0  0  0  0  0
   48.5844    6.4097   20.0360 C   0  0  0  0  0  0  0  0  0  0  0  0
   48.4274    7.0963   14.3741 C   0  0  0  0  0  0  0  0  0  0  0  0
   47.2928    3.6113   16.1776 C   0  0  0  0  0  0  0  0  0  0  0  0
   49.7980    6.2564   20.7231 C   0  0  0  0  0  0  0  0  0  0  0  0
   47.3847    6.1234   20.7063 C   0  0  0  0  0  0  0  0  0  0  0  0
   49.8090    5.8488   22.0602 C   0  0  0  0  0  0  0  0  0  0  0  0
   47.3979    5.7194   22.0453 C   0  0  0  0  0  0  0  0  0  0  0  0
   48.6101    5.5822   22.7192 C   0  0  0  0  0  0  0  0  0  0  0  0
   49.5895    5.7558   17.8324 H   0  0  0  0  0  0  0  0  0  0  0  0
   48.3603    6.4278   14.7273 H   0  0  0  0  0  0  0  0  0  0  0  0
   48.9284    3.5659   18.6052 H   0  0  0  0  0  0  0  0  0  0  0  0
   47.2386    4.0813   18.5259 H   0  0  0  0  0  0  0  0  0  0  0  0
   47.8411    4.1581   13.8952 H   0  0  0  0  0  0  0  0  0  0  0  0
   46.5825    5.3673   14.3339 H   0  0  0  0  0  0  0  0  0  0  0  0
   46.2487    3.6504   14.4906 H   0  0  0  0  0  0  0  0  0  0  0  0
   49.7122    7.7779   16.9415 H   0  0  0  0  0  0  0  0  0  0  0  0
   49.1764    8.4230   15.3905 H   0  0  0  0  0  0  0  0  0  0  0  0
   47.9683    8.0714   16.6345 H   0  0  0  0  0  0  0  0  0  0  0  0
   50.0195    3.8421   20.7315 H   0  0  0  0  0  0  0  0  0  0  0  0
   46.6969    6.4032   19.7197 H   0  0  0  0  0  0  0  0  0  0  0  0
   50.1297    4.8837   22.9681 H   0  0  0  0  0  0  0  0  0  0  0  0
   46.8286    7.4511   21.9568 H   0  0  0  0  0  0  0  0  0  0  0  0
   48.5495    6.6961   23.5870 H   0  0  0  0  0  0  0  0  0  0  0  0
   46.7730    4.9741   17.3003 H   0  0  0  0  0  0  0  0  0  0  0  0
   48.7525    5.9513   20.1886 H   0  0  0  0  0  0  0  0  0  0  0  0
   48.8149    4.8762   18.0461 H   0  0  0  0  0  0  0  0  0  0  0  0
   48.1844    4.7369   14.7457 H   0  0  0  0  0  0  0  0  0  0  0  0
   47.7936    7.6117   18.4554 H   0  0  0  0  0  0  0  0  0  0  0  0
   49.5305    7.3157   18.3380 H   0  0  0  0  0  0  0  0  0  0  0  0
   49.2748    6.5383   13.9592 H   0  0  0  0  0  0  0  0  0  0  0  0
   48.5708    8.1412   14.0962 H   0  0  0  0  0  0  0  0  0  0  0  0
   47.4963    6.7512   13.9114 H   0  0  0  0  0  0  0  0  0  0  0  0
   47.5226    3.2308   17.1754 H   0  0  0  0  0  0  0  0  0  0  0  0
   47.3179    2.7674   15.4867 H   0  0  0  0  0  0  0  0  0  0  0  0
   46.2810    4.0271   16.1622 H   0  0  0  0  0  0  0  0  0  0  0  0
   50.7464    6.4484   20.2261 H   0  0  0  0  0  0  0  0  0  0  0  0
   46.4353    6.2173   20.1811 H   0  0  0  0  0  0  0  0  0  0  0  0
   50.7531    5.7389   22.5873 H   0  0  0  0  0  0  0  0  0  0  0  0
   46.4638    5.5125   22.5634 H   0  0  0  0  0  0  0  0  0  0  0  0
   48.6206    5.2657   23.7599 H   0  0  0  0  0  0  0  0  0  0  0  0
  2  1  2  0
  3  1  1  0
  4  1  1  0
  5  3  1  0
  6  5  1  0
  7  2  1  0
  8  4  1  0
  9  6  2  0
 10  6  1  0
 11  9  1  0
 12 10  2  0
 13 12  1  0
 11 13  2  0
 15 14  2  0
 16 14  2  0
 17 14  1  0
 18 14  1  0
 20 19  2  0
 21 19  1  0
 22 19  1  0
 23 21  1  0
 24 23  1  0
 25 20  1  0
 26 22  1  0
 27 24  2  0
 28 24  1  0
 29 27  1  0
 30 28  2  0
 31 30  1  0
 29 31  2  0
  3 32  1  0
  4 33  1  0
  5 34  1  0
  5 35  1  0
  7 36  1  0
  7 37  1  0
  7 38  1  0
  8 39  1  0
  8 40  1  0
  8 41  1  0
  9 42  1  0
 10 43  1  0
 11 44  1  0
 12 45  1  0
 13 46  1  0
 17 47  1  0
 18 48  1  0
 21 49  1  0
 22 50  1  0
 23 51  1  0
 23 52  1  0
 25 53  1  0
 25 54  1  0
 25 55  1  0
 26 56  1  0
 26 57  1  0
 26 58  1  0
 27 59  1  0
 28 60  1  0
 29 61  1  0
 30 62  1  0
 31 63  1  0
M  END
> <Uni-Dock RESULT> 
ENERGY=   -5.048  LOWER_BOUND=    7.016  UPPER_BOUND=    8.630
INTER + INTRA:          -5.048
INTER:                  -5.048
INTRA:                   0.000
UNBOUND:                 0.000

$$$$

     RDKit          3D

 63 62  0  0  0  0  0  0  0  0999 V2000
   45.2448    5.5230   12.1743 C   0  0  0  0  0  0  0  0  0  0  0  0
   45.2526    4.3978   12.7962 N   0  0  0  0  0  0  0  0  0  0  0  0
   46.3293    6.3424   12.1911 N   0  0  0  0  0  0  0  0  0  0  0  0
   44.1957    6.0632   11.4758 N   0  0  0  0  0  0  0  0  0  0  0  0
   47.5690    5.9848   12.8482 C   0  0  0  0  0  0  0  0  0  0  0  0
   48.3391    7.2515   13.1484 C   0  0  0  0  0  0  0  0  0  0  0  0
   44.0429    3.5910   12.8518 C   0  0  0  0  0  0  0  0  0  0  0  0
   43.9191    7.4900   11.4733 C   0  0  0  0  0  0  0  0  0  0  0  0
   49.5450    7.5434   12.4962 C   0  0  0  0  0  0  0  0  0  0  0  0
   47.8457    8.1592   14.1011 C   0  0  0  0  0  0  0  0  0  0  0  0
   50.2371    8.7233   12.7843 C   0  0  0  0  0  0  0  0  0  0  0  0
   48.5354    9.3391   14.3848 C   0  0  0  0  0  0  0  0  0  0  0  0
   49.7327    9.6205   13.7258 C   0  0  0  0  0  0  0  0  0  0  0  0
   46.4009    6.8462   12.3839 S   0  0  0  0  0  0  0  0  0  0  0  0
   45.5727    8.0235   12.4271 O   0  0  0  0  0  0  0  0  0  0  0  0
   46.1615    5.7434   11.4862 O   0  0  0  0  0  0  0  0  0  0  0  0
   46.4248    6.2309   13.8652 O   0  0  0  0  0  0  0  0  0  0  0  0
   47.9164    7.3452   12.2136 O   0  0  0  0  0  0  0  0  0  0  0  0
   44.9737    5.9226   12.1214 C   0  0  0  0  0  0  0  0  0  0  0  0
   43.9000    6.5936   11.8894 N   0  0  0  0  0  0  0  0  0  0  0  0
   46.1261    6.5420   12.5082 N   0  0  0  0  0  0  0  0  0  0  0  0
   45.1328    4.5636   12.0166 N   0  0  0  0  0  0  0  0  0  0  0  0
   46.2272    7.9905   12.4986 C   0  0  0  0  0  0  0  0  0  0  0  0
   47.6230    8.4001   12.9040 C   0  0  0  0  0  0  0  0  0  0  0  0
   42.7068    5.9116   11.4233 C   0  0  0  0  0  0  0  0  0  0  0  0
   45.8003    3.8135   13.0704 C   0  0  0  0  0  0  0  0  0  0  0  0
   48.5509    8.8226   11.9402 C   0  0  0  0  0  0  0  0  0  0  0  0
   48.0209    8.3421   14.2490 C   0  0  0  0  0  0  0  0  0  0  0  0
   49.8422    9.2024   12.3179 C   0  0  0  0  0  0  0  0  0  0  0  0
   49.3121    8.7263   14.6250 C   0  0  0  0  0  0  0  0  0  0  0  0
   50.2203    9.1549   13.6586 C   0  0  0  0  0  0  0  0  0  0  0  0
   46.4831    6.8259   11.3178 H   0  0  0  0  0  0  0  0  0  0  0  0
   43.3428    5.5356   11.5972 H   0  0  0  0  0  0  0  0  0  0  0  0
   48.1535    5.3219   12.1998 H   0  0  0  0  0  0  0  0  0  0  0  0
   47.3903    5.4548   13.7894 H   0  0  0  0  0  0  0  0  0  0  0  0
   43.8180    3.1262   11.8843 H   0  0  0  0  0  0  0  0  0  0  0  0
   43.1854    4.1777   13.2007 H   0  0  0  0  0  0  0  0  0  0  0  0
   44.1835    2.7854   13.5868 H   0  0  0  0  0  0  0  0  0  0  0  0
   44.6806    8.0465   10.9198 H   0  0  0  0  0  0  0  0  0  0  0  0
   42.9589    7.6708   10.9806 H   0  0  0  0  0  0  0  0  0  0  0  0
   43.8467    7.8649   12.4988 H   0  0  0  0  0  0  0  0  0  0  0  0
   49.9552    6.8544   11.7605 H   0  0  0  0  0  0  0  0  0  0  0  0
   46.9135    7.9428   14.6216 H   0  0  0  0  0  0  0  0  0  0  0  0
   51.1785    8.9353   12.2829 H   0  0  0  0  0  0  0  0  0  0  0  0
   48.1390   10.0324   15.1235 H   0  0  0  0  0  0  0  0  0  0  0  0
   50.2747   10.5365   13.9515 H   0  0  0  0  0  0  0  0  0  0  0  0
   45.8063    5.4698   13.8732 H   0  0  0  0  0  0  0  0  0  0  0  0
   48.0404    8.1261   12.7924 H   0  0  0  0  0  0  0  0  0  0  0  0
   46.9527    6.0938   12.1320 H   0  0  0  0  0  0  0  0  0  0  0  0
   44.2553    4.1144   11.7920 H   0  0  0  0  0  0  0  0  0  0  0  0
   45.5056    8.4331   13.1936 H   0  0  0  0  0  0  0  0  0  0  0  0
   46.0021    8.3840   11.4998 H   0  0  0  0  0  0  0  0  0  0  0  0
   42.8953    5.3525   10.4996 H   0  0  0  0  0  0  0  0  0  0  0  0
   41.9399    6.6523   11.1934 H   0  0  0  0  0  0  0  0  0  0  0  0
   42.3036    5.2376   12.1870 H   0  0  0  0  0  0  0  0  0  0  0  0
   46.8605    4.0667   13.1409 H   0  0  0  0  0  0  0  0  0  0  0  0
   45.7275    2.7457   12.8589 H   0  0  0  0  0  0  0  0  0  0  0  0
   45.3091    3.9994   14.0302 H   0  0  0  0  0  0  0  0  0  0  0  0
   48.2816    8.8575   10.8868 H   0  0  0  0  0  0  0  0  0  0  0  0
   47.3193    7.9965   15.0068 H   0  0  0  0  0  0  0  0  0  0  0  0
   50.5528    9.5349   11.5659 H   0  0  0  0  0  0  0  0  0  0  0  0
   49.6101    8.6925   15.6709 H   0  0  0  0  0  0  0  0  0  0  0  0
   51.2253    9.4514   13.9506 H   0  0  0  0  0  0  0  0  0  0  0  0
  2  1  2  0
  3  1  1  0
  4  1  1  0
  5  3  1  0
  6  5  1  0
  7  2  1  0
  8  4  1  0
  9  6  2  0
 10  6  1  0
 11  9  1  0
 12 10  2  0
 13 12  1  0
 11 13  2  0
 15 14  2  0
 16 14  2  0
 17 14  1  0
 18 14  1  0
 20 19  2  0
 21 19  1  0
 22 19  1  0
 23 21  1  0
 24 23  1  0
 25 20  1  0
 26 22  1  0
 27 24  2  0
 28 24  1  0
 29 27  1  0
 30 28  2  0
 31 30  1  0
 29 31  2  0
  3 32  1  0
  4 33  1  0
  5 34  1  0
  5 35  1  0
  7 36  1  0
  7 37  1  0
  7 38  1  0
  8 39  1  0
  8 40  1  0
  8 41  1  0
  9 42  1  0
 10 43  1  0
 11 44  1  0
 12 45  1  0
 13 46  1  0
 17 47  1  0
 18 48  1  0
 21 49  1  0
 22 50  1  0
 23 51  1  0
 23 52  1  0
 25 53  1  0
 25 54  1  0
 25 55  1  0
 26 56  1  0
 26 57  1  0
 26 58  1  0
 27 59  1  0
 28 60  1  0
 29 61  1  0
 30 62  1  0
 31 63  1  0
M  END
> <Uni-Dock RESULT> 
ENERGY=   -4.968  LOWER_BOUND=    1.948  UPPER_BOUND=    5.355
INTER + INTRA:          -4.968
INTER:                  -4.968
INTRA:                   0.000
UNBOUND:                 0.000

$$$$
