
     RDKit          3D

 63 62  0  0  0  0  0  0  0  0999 V2000
   44.3855    5.1476   10.7600 C   0  0  0  0  0  0  0  0  0  0  0  0
   43.1216    5.2465   10.5944 N   0  0  0  0  0  0  0  0  0  0  0  0
   45.1447    4.4328    9.8732 N   0  0  0  0  0  0  0  0  0  0  0  0
   45.2442    5.6273   11.7095 N   0  0  0  0  0  0  0  0  0  0  0  0
   44.5155    3.6914    8.7934 C   0  0  0  0  0  0  0  0  0  0  0  0
   45.5829    2.9774    7.9976 C   0  0  0  0  0  0  0  0  0  0  0  0
   42.2664    5.9383   11.5306 C   0  0  0  0  0  0  0  0  0  0  0  0
   44.9694    6.7064   12.6264 C   0  0  0  0  0  0  0  0  0  0  0  0
   46.3847    3.6879    7.0920 C   0  0  0  0  0  0  0  0  0  0  0  0
   45.8135    1.6058    8.1777 C   0  0  0  0  0  0  0  0  0  0  0  0
   47.3860    3.0370    6.3702 C   0  0  0  0  0  0  0  0  0  0  0  0
   46.8154    0.9565    7.4543 C   0  0  0  0  0  0  0  0  0  0  0  0
   47.6000    1.6715    6.5506 C   0  0  0  0  0  0  0  0  0  0  0  0
   45.3833    4.0668   10.0642 S   0  0  0  0  0  0  0  0  0  0  0  0
   46.3924    4.9141   10.6467 O   0  0  0  0  0  0  0  0  0  0  0  0
   44.7657    2.9634   10.7547 O   0  0  0  0  0  0  0  0  0  0  0  0
   44.2251    5.0413    9.5325 O   0  0  0  0  0  0  0  0  0  0  0  0
   45.9506    3.4792    8.6832 O   0  0  0  0  0  0  0  0  0  0  0  0
   44.5926    5.1134   10.9125 C   0  0  0  0  0  0  0  0  0  0  0  0
   43.3501    4.8689   11.0889 N   0  0  0  0  0  0  0  0  0  0  0  0
   45.2840    4.4892    9.9095 N   0  0  0  0  0  0  0  0  0  0  0  0
   45.4856    5.9250   11.5549 N   0  0  0  0  0  0  0  0  0  0  0  0
   44.6460    3.4642    9.1006 C   0  0  0  0  0  0  0  0  0  0  0  0
   45.6459    2.9293    8.1021 C   0  0  0  0  0  0  0  0  0  0  0  0
   42.5862    5.4557   12.1651 C   0  0  0  0  0  0  0  0  0  0  0  0
   45.1507    7.0179   12.4349 C   0  0  0  0  0  0  0  0  0  0  0  0
   46.2810    1.6970    8.3143 C   0  0  0  0  0  0  0  0  0  0  0  0
   45.9800    3.6786    6.9642 C   0  0  0  0  0  0  0  0  0  0  0  0
   47.2202    1.2187    7.3987 C   0  0  0  0  0  0  0  0  0  0  0  0
   46.9195    3.1988    6.0506 C   0  0  0  0  0  0  0  0  0  0  0  0
   47.5384    1.9690    6.2676 C   0  0  0  0  0  0  0  0  0  0  0  0
   45.8563    3.8805   10.3357 H   0  0  0  0  0  0  0  0  0  0  0  0
   46.1777    5.7109   11.3210 H   0  0  0  0  0  0  0  0  0  0  0  0
   43.9614    4.3659    8.1293 H   0  0  0  0  0  0  0  0  0  0  0  0
   43.7993    2.9636    9.1942 H   0  0  0  0  0  0  0  0  0  0  0  0
   41.2241    5.8024   11.2233 H   0  0  0  0  0  0  0  0  0  0  0  0
   42.4555    7.0151   11.5364 H   0  0  0  0  0  0  0  0  0  0  0  0
   42.3504    5.5264   12.5403 H   0  0  0  0  0  0  0  0  0  0  0  0
   44.2186    6.4228   13.3673 H   0  0  0  0  0  0  0  0  0  0  0  0
   45.8830    6.9534   13.1773 H   0  0  0  0  0  0  0  0  0  0  0  0
   44.6516    7.6065   12.0929 H   0  0  0  0  0  0  0  0  0  0  0  0
   46.2303    4.7563    6.9520 H   0  0  0  0  0  0  0  0  0  0  0  0
   45.2122    1.0349    8.8823 H   0  0  0  0  0  0  0  0  0  0  0  0
   48.0003    3.5963    5.6696 H   0  0  0  0  0  0  0  0  0  0  0  0
   46.9850   -0.1077    7.5969 H   0  0  0  0  0  0  0  0  0  0  0  0
   48.3798    1.1648    5.9882 H   0  0  0  0  0  0  0  0  0  0  0  0
   44.6404    5.9089    9.3443 H   0  0  0  0  0  0  0  0  0  0  0  0
   45.3799    2.7229    8.4344 H   0  0  0  0  0  0  0  0  0  0  0  0
   46.2114    4.2064   10.2017 H   0  0  0  0  0  0  0  0  0  0  0  0
   46.2339    6.1859   10.9214 H   0  0  0  0  0  0  0  0  0  0  0  0
   43.7829    3.8745    8.5620 H   0  0  0  0  0  0  0  0  0  0  0  0
   44.2793    2.6480    9.7350 H   0  0  0  0  0  0  0  0  0  0  0  0
   42.4670    6.5353   12.0396 H   0  0  0  0  0  0  0  0  0  0  0  0
   41.5796    5.0245   12.1590 H   0  0  0  0  0  0  0  0  0  0  0  0
   43.0183    5.2266   13.1433 H   0  0  0  0  0  0  0  0  0  0  0  0
   44.7094    6.6617   13.3685 H   0  0  0  0  0  0  0  0  0  0  0  0
   44.4765    7.7264   11.9454 H   0  0  0  0  0  0  0  0  0  0  0  0
   46.0641    7.5601   12.7010 H   0  0  0  0  0  0  0  0  0  0  0  0
   46.0465    1.1018    9.1946 H   0  0  0  0  0  0  0  0  0  0  0  0
   45.5082    4.6444    6.7921 H   0  0  0  0  0  0  0  0  0  0  0  0
   47.7049    0.2607    7.5684 H   0  0  0  0  0  0  0  0  0  0  0  0
   47.1702    3.7865    5.1714 H   0  0  0  0  0  0  0  0  0  0  0  0
   48.2699    1.5957    5.5559 H   0  0  0  0  0  0  0  0  0  0  0  0
  2  1  2  0
  3  1  1  0
  4  1  1  0
  5  3  1  0
  6  5  1  0
  7  2  1  0
  8  4  1  0
  9  6  2  0
 10  6  1  0
 11  9  1  0
 12 10  2  0
 13 12  1  0
 11 13  2  0
 15 14  2  0
 16 14  2  0
 17 14  1  0
 18 14  1  0
 20 19  2  0
 21 19  1  0
 22 19  1  0
 23 21  1  0
 24 23  1  0
 25 20  1  0
 26 22  1  0
 27 24  2  0
 28 24  1  0
 29 27  1  0
 30 28  2  0
 31 30  1  0
 29 31  2  0
  3 32  1  0
  4 33  1  0
  5 34  1  0
  5 35  1  0
  7 36  1  0
  7 37  1  0
  7 38  1  0
  8 39  1  0
  8 40  1  0
  8 41  1  0
  9 42  1  0
 10 43  1  0
 11 44  1  0
 12 45  1  0
 13 46  1  0
 17 47  1  0
 18 48  1  0
 21 49  1  0
 22 50  1  0
 23 51  1  0
 23 52  1  0
 25 53  1  0
 25 54  1  0
 25 55  1  0
 26 56  1  0
 26 57  1  0
 26 58  1  0
 27 59  1  0
 28 60  1  0
 29 61  1  0
 30 62  1  0
 31 63  1  0
M  END
> <Uni-Dock RESULT> 
ENERGY=  -11.291  LOWER_BOUND=    0.000  UPPER_BOUND=    0.000
INTER + INTRA:         -11.291
INTER:                 -11.291
INTRA:                   0.000
UNBOUND:                 0.000

$$$$
