
     RDKit          3D

 63 62  0  0  0  0  0  0  0  0999 V2000
   45.0893    5.3313   12.0827 C   0  0  0  0  0  0  0  0  0  0  0  0
   45.0536    4.1656   12.6234 N   0  0  0  0  0  0  0  0  0  0  0  0
   46.0102    6.2593   12.4412 N   0  0  0  0  0  0  0  0  0  0  0  0
   44.2977    5.8182   11.0754 N   0  0  0  0  0  0  0  0  0  0  0  0
   46.8261    6.1459   13.6257 C   0  0  0  0  0  0  0  0  0  0  0  0
   47.9220    7.1864   13.5815 C   0  0  0  0  0  0  0  0  0  0  0  0
   44.0652    3.1922   12.1957 C   0  0  0  0  0  0  0  0  0  0  0  0
   43.2060    6.7246   11.4184 C   0  0  0  0  0  0  0  0  0  0  0  0
   47.8762    8.3232   14.4050 C   0  0  0  0  0  0  0  0  0  0  0  0
   48.9969    7.0336   12.6930 C   0  0  0  0  0  0  0  0  0  0  0  0
   48.8925    9.2803   14.3441 C   0  0  0  0  0  0  0  0  0  0  0  0
   50.0116    7.9896   12.6340 C   0  0  0  0  0  0  0  0  0  0  0  0
   49.9598    9.1102   13.4618 C   0  0  0  0  0  0  0  0  0  0  0  0
   46.2158    7.0372   12.7463 S   0  0  0  0  0  0  0  0  0  0  0  0
   44.9821    7.6756   12.3689 O   0  0  0  0  0  0  0  0  0  0  0  0
   47.2865    7.7072   13.4427 O   0  0  0  0  0  0  0  0  0  0  0  0
   46.8704    6.3876   11.4340 O   0  0  0  0  0  0  0  0  0  0  0  0
   45.8089    5.7305   13.5843 O   0  0  0  0  0  0  0  0  0  0  0  0
   45.1270    5.3717   12.4333 C   0  0  0  0  0  0  0  0  0  0  0  0
   45.5496    4.4955   11.5998 N   0  0  0  0  0  0  0  0  0  0  0  0
   45.9364    6.3963   12.8406 N   0  0  0  0  0  0  0  0  0  0  0  0
   43.9274    5.5312   13.0714 N   0  0  0  0  0  0  0  0  0  0  0  0
   47.3126    6.4972   12.3731 C   0  0  0  0  0  0  0  0  0  0  0  0
   47.8636    7.8581   12.7348 C   0  0  0  0  0  0  0  0  0  0  0  0
   44.7436    3.3575   11.2245 C   0  0  0  0  0  0  0  0  0  0  0  0
   42.6517    5.1128   12.5374 C   0  0  0  0  0  0  0  0  0  0  0  0
   49.0253    7.9847   13.5070 C   0  0  0  0  0  0  0  0  0  0  0  0
   47.2274    9.0227   12.2709 C   0  0  0  0  0  0  0  0  0  0  0  0
   49.5298    9.2495   13.8188 C   0  0  0  0  0  0  0  0  0  0  0  0
   47.7345   10.2841   12.5818 C   0  0  0  0  0  0  0  0  0  0  0  0
   48.8808   10.3961   13.3628 C   0  0  0  0  0  0  0  0  0  0  0  0
   45.8586    7.1930   12.0972 H   0  0  0  0  0  0  0  0  0  0  0  0
   43.8950    5.0551   10.5451 H   0  0  0  0  0  0  0  0  0  0  0  0
   46.2024    6.2909   14.5176 H   0  0  0  0  0  0  0  0  0  0  0  0
   47.2842    5.1501   13.7064 H   0  0  0  0  0  0  0  0  0  0  0  0
   44.0210    3.0846   11.1083 H   0  0  0  0  0  0  0  0  0  0  0  0
   43.0726    3.4496   12.5788 H   0  0  0  0  0  0  0  0  0  0  0  0
   44.3382    2.2118   12.5928 H   0  0  0  0  0  0  0  0  0  0  0  0
   43.5094    7.4906   12.1411 H   0  0  0  0  0  0  0  0  0  0  0  0
   42.8562    7.2288   10.5122 H   0  0  0  0  0  0  0  0  0  0  0  0
   42.3665    6.1571   11.8397 H   0  0  0  0  0  0  0  0  0  0  0  0
   47.0461    8.4744   15.0943 H   0  0  0  0  0  0  0  0  0  0  0  0
   49.0365    6.1613   12.0407 H   0  0  0  0  0  0  0  0  0  0  0  0
   48.8532   10.1572   14.9856 H   0  0  0  0  0  0  0  0  0  0  0  0
   50.8375    7.8634   11.9400 H   0  0  0  0  0  0  0  0  0  0  0  0
   50.7496    9.8544   13.4139 H   0  0  0  0  0  0  0  0  0  0  0  0
   47.8391    6.5231   11.4986 H   0  0  0  0  0  0  0  0  0  0  0  0
   44.9030    5.4850   13.3110 H   0  0  0  0  0  0  0  0  0  0  0  0
   45.8848    6.5705   13.8363 H   0  0  0  0  0  0  0  0  0  0  0  0
   43.8699    6.4408   13.5042 H   0  0  0  0  0  0  0  0  0  0  0  0
   47.3742    6.3829   11.2837 H   0  0  0  0  0  0  0  0  0  0  0  0
   47.9123    5.7029   12.8339 H   0  0  0  0  0  0  0  0  0  0  0  0
   43.9526    3.6428   10.5261 H   0  0  0  0  0  0  0  0  0  0  0  0
   44.3180    2.8484   12.0934 H   0  0  0  0  0  0  0  0  0  0  0  0
   45.3766    2.6271   10.7136 H   0  0  0  0  0  0  0  0  0  0  0  0
   42.5131    4.0319   12.6392 H   0  0  0  0  0  0  0  0  0  0  0  0
   41.8500    5.5945   13.1050 H   0  0  0  0  0  0  0  0  0  0  0  0
   42.5322    5.4030   11.4870 H   0  0  0  0  0  0  0  0  0  0  0  0
   49.5539    7.1021   13.8585 H   0  0  0  0  0  0  0  0  0  0  0  0
   46.3356    8.9428   11.6466 H   0  0  0  0  0  0  0  0  0  0  0  0
   50.4349    9.3411   14.4086 H   0  0  0  0  0  0  0  0  0  0  0  0
   47.2382   11.1761   12.2045 H   0  0  0  0  0  0  0  0  0  0  0  0
   49.2767   11.3789   13.5968 H   0  0  0  0  0  0  0  0  0  0  0  0
  2  1  2  0
  3  1  1  0
  4  1  1  0
  5  3  1  0
  6  5  1  0
  7  2  1  0
  8  4  1  0
  9  6  2  0
 10  6  1  0
 11  9  1  0
 12 10  2  0
 13 12  1  0
 11 13  2  0
 15 14  2  0
 16 14  2  0
 17 14  1  0
 18 14  1  0
 20 19  2  0
 21 19  1  0
 22 19  1  0
 23 21  1  0
 24 23  1  0
 25 20  1  0
 26 22  1  0
 27 24  2  0
 28 24  1  0
 29 27  1  0
 30 28  2  0
 31 30  1  0
 29 31  2  0
  3 32  1  0
  4 33  1  0
  5 34  1  0
  5 35  1  0
  7 36  1  0
  7 37  1  0
  7 38  1  0
  8 39  1  0
  8 40  1  0
  8 41  1  0
  9 42  1  0
 10 43  1  0
 11 44  1  0
 12 45  1  0
 13 46  1  0
 17 47  1  0
 18 48  1  0
 21 49  1  0
 22 50  1  0
 23 51  1  0
 23 52  1  0
 25 53  1  0
 25 54  1  0
 25 55  1  0
 26 56  1  0
 26 57  1  0
 26 58  1  0
 27 59  1  0
 28 60  1  0
 29 61  1  0
 30 62  1  0
 31 63  1  0
M  END
> <Uni-Dock RESULT> 
ENERGY=   -5.154  LOWER_BOUND=    0.000  UPPER_BOUND=    0.000
INTER + INTRA:          -5.154
INTER:                  -5.154
INTRA:                   0.000
UNBOUND:                 0.000

$$$$

     RDKit          3D

 63 62  0  0  0  0  0  0  0  0999 V2000
   48.5342    6.6290   19.7357 C   0  0  0  0  0  0  0  0  0  0  0  0
   48.2379    5.7921   20.6654 N   0  0  0  0  0  0  0  0  0  0  0  0
   48.1827    7.9362   19.8100 N   0  0  0  0  0  0  0  0  0  0  0  0
   49.2544    6.3993   18.5925 N   0  0  0  0  0  0  0  0  0  0  0  0
   47.2229    8.4433   20.7603 C   0  0  0  0  0  0  0  0  0  0  0  0
   47.2699    9.9544   20.7631 C   0  0  0  0  0  0  0  0  0  0  0  0
   48.6518    4.4049   20.5583 C   0  0  0  0  0  0  0  0  0  0  0  0
   48.5362    6.2463   17.3309 C   0  0  0  0  0  0  0  0  0  0  0  0
   46.2448   10.7128   20.1745 C   0  0  0  0  0  0  0  0  0  0  0  0
   48.3605   10.6196   21.3430 C   0  0  0  0  0  0  0  0  0  0  0  0
   46.3091   12.1088   20.1770 C   0  0  0  0  0  0  0  0  0  0  0  0
   48.4228   12.0136   21.3458 C   0  0  0  0  0  0  0  0  0  0  0  0
   47.3956   12.7565   20.7655 C   0  0  0  0  0  0  0  0  0  0  0  0
   47.7751    8.6253   19.4945 S   0  0  0  0  0  0  0  0  0  0  0  0
   47.7751    8.1837   18.1245 O   0  0  0  0  0  0  0  0  0  0  0  0
   47.1785    9.8605   19.9401 O   0  0  0  0  0  0  0  0  0  0  0  0
   49.2906    8.6429   20.0195 O   0  0  0  0  0  0  0  0  0  0  0  0
   47.1497    7.4237   20.3551 O   0  0  0  0  0  0  0  0  0  0  0  0
   48.1963    6.6842   19.8296 C   0  0  0  0  0  0  0  0  0  0  0  0
   49.2519    6.3776   20.4876 N   0  0  0  0  0  0  0  0  0  0  0  0
   47.7575    7.9786   19.7760 N   0  0  0  0  0  0  0  0  0  0  0  0
   47.3213    5.9339   19.0926 N   0  0  0  0  0  0  0  0  0  0  0  0
   48.4509    9.0369   20.4984 C   0  0  0  0  0  0  0  0  0  0  0  0
   47.9399   10.3798   20.0271 C   0  0  0  0  0  0  0  0  0  0  0  0
   49.6829    5.0069   20.6306 C   0  0  0  0  0  0  0  0  0  0  0  0
   47.6727    4.7267   18.3808 C   0  0  0  0  0  0  0  0  0  0  0  0
   47.3954   11.3022   20.9297 C   0  0  0  0  0  0  0  0  0  0  0  0
   48.0338   10.7335   18.6698 C   0  0  0  0  0  0  0  0  0  0  0  0
   46.9424   12.5448   20.4800 C   0  0  0  0  0  0  0  0  0  0  0  0
   47.5829   11.9756   18.2240 C   0  0  0  0  0  0  0  0  0  0  0  0
   47.0297   12.8767   19.1286 C   0  0  0  0  0  0  0  0  0  0  0  0
   48.2998    8.4771   18.9693 H   0  0  0  0  0  0  0  0  0  0  0  0
   49.8379    5.5790   18.7038 H   0  0  0  0  0  0  0  0  0  0  0  0
   46.2172    8.0965   20.4885 H   0  0  0  0  0  0  0  0  0  0  0  0
   47.4300    8.0792   21.7764 H   0  0  0  0  0  0  0  0  0  0  0  0
   49.7100    4.2980   20.3035 H   0  0  0  0  0  0  0  0  0  0  0  0
   48.0423    3.8713   19.8219 H   0  0  0  0  0  0  0  0  0  0  0  0
   48.5162    3.9185   21.5270 H   0  0  0  0  0  0  0  0  0  0  0  0
   47.7482    6.9974   17.2041 H   0  0  0  0  0  0  0  0  0  0  0  0
   49.2406    6.3459   16.4992 H   0  0  0  0  0  0  0  0  0  0  0  0
   48.0823    5.2486   17.2770 H   0  0  0  0  0  0  0  0  0  0  0  0
   45.3931   10.2221   19.7046 H   0  0  0  0  0  0  0  0  0  0  0  0
   49.1675   10.0409   21.7921 H   0  0  0  0  0  0  0  0  0  0  0  0
   45.5116   12.6909   19.7220 H   0  0  0  0  0  0  0  0  0  0  0  0
   49.2733   12.5188   21.7943 H   0  0  0  0  0  0  0  0  0  0  0  0
   47.4461   13.8416   20.7670 H   0  0  0  0  0  0  0  0  0  0  0  0
   49.3875    9.4329   20.5919 H   0  0  0  0  0  0  0  0  0  0  0  0
   47.2873    6.6024   19.8432 H   0  0  0  0  0  0  0  0  0  0  0  0
   46.7561    8.0629   19.8954 H   0  0  0  0  0  0  0  0  0  0  0  0
   46.7144    6.5258   18.5454 H   0  0  0  0  0  0  0  0  0  0  0  0
   49.5326    9.0014   20.3185 H   0  0  0  0  0  0  0  0  0  0  0  0
   48.2799    8.9147   21.5748 H   0  0  0  0  0  0  0  0  0  0  0  0
   50.1463    4.6373   19.7120 H   0  0  0  0  0  0  0  0  0  0  0  0
   48.8666    4.3470   20.9365 H   0  0  0  0  0  0  0  0  0  0  0  0
   50.4399    4.9529   21.4176 H   0  0  0  0  0  0  0  0  0  0  0  0
   47.7619    3.8749   19.0622 H   0  0  0  0  0  0  0  0  0  0  0  0
   46.8781    4.4864   17.6682 H   0  0  0  0  0  0  0  0  0  0  0  0
   48.6023    4.8427   17.8113 H   0  0  0  0  0  0  0  0  0  0  0  0
   47.3333   11.0675   21.9894 H   0  0  0  0  0  0  0  0  0  0  0  0
   48.4787   10.0373   17.9564 H   0  0  0  0  0  0  0  0  0  0  0  0
   46.5309   13.2586   21.1847 H   0  0  0  0  0  0  0  0  0  0  0  0
   47.6741   12.2400   17.1722 H   0  0  0  0  0  0  0  0  0  0  0  0
   46.6864   13.8451   18.7796 H   0  0  0  0  0  0  0  0  0  0  0  0
  2  1  2  0
  3  1  1  0
  4  1  1  0
  5  3  1  0
  6  5  1  0
  7  2  1  0
  8  4  1  0
  9  6  2  0
 10  6  1  0
 11  9  1  0
 12 10  2  0
 13 12  1  0
 11 13  2  0
 15 14  2  0
 16 14  2  0
 17 14  1  0
 18 14  1  0
 20 19  2  0
 21 19  1  0
 22 19  1  0
 23 21  1  0
 24 23  1  0
 25 20  1  0
 26 22  1  0
 27 24  2  0
 28 24  1  0
 29 27  1  0
 30 28  2  0
 31 30  1  0
 29 31  2  0
  3 32  1  0
  4 33  1  0
  5 34  1  0
  5 35  1  0
  7 36  1  0
  7 37  1  0
  7 38  1  0
  8 39  1  0
  8 40  1  0
  8 41  1  0
  9 42  1  0
 10 43  1  0
 11 44  1  0
 12 45  1  0
 13 46  1  0
 17 47  1  0
 18 48  1  0
 21 49  1  0
 22 50  1  0
 23 51  1  0
 23 52  1  0
 25 53  1  0
 25 54  1  0
 25 55  1  0
 26 56  1  0
 26 57  1  0
 26 58  1  0
 27 59  1  0
 28 60  1  0
 29 61  1  0
 30 62  1  0
 31 63  1  0
M  END
> <Uni-Dock RESULT> 
ENERGY=   -4.597  LOWER_BOUND=    6.608  UPPER_BOUND=    8.052
INTER + INTRA:          -4.597
INTER:                  -4.597
INTRA:                   0.000
UNBOUND:                 0.000

$$$$

     RDKit          3D

 63 62  0  0  0  0  0  0  0  0999 V2000
   44.9401    5.8791   12.2975 C   0  0  0  0  0  0  0  0  0  0  0  0
   43.7611    6.0578   12.7779 N   0  0  0  0  0  0  0  0  0  0  0  0
   45.9153    6.8117   12.4275 N   0  0  0  0  0  0  0  0  0  0  0  0
   45.4287    4.7739   11.6510 N   0  0  0  0  0  0  0  0  0  0  0  0
   45.6595    8.1696   12.8426 C   0  0  0  0  0  0  0  0  0  0  0  0
   46.9711    8.8557   13.1503 C   0  0  0  0  0  0  0  0  0  0  0  0
   42.7509    5.0249   12.6366 C   0  0  0  0  0  0  0  0  0  0  0  0
   45.5471    4.8085   10.1964 C   0  0  0  0  0  0  0  0  0  0  0  0
   47.5073    9.8188   12.2800 C   0  0  0  0  0  0  0  0  0  0  0  0
   47.6820    8.5181   14.3117 C   0  0  0  0  0  0  0  0  0  0  0  0
   48.7259   10.4359   12.5747 C   0  0  0  0  0  0  0  0  0  0  0  0
   48.8983    9.1359   14.6052 C   0  0  0  0  0  0  0  0  0  0  0  0
   49.4172   10.0963   13.7379 C   0  0  0  0  0  0  0  0  0  0  0  0
   46.4928    7.3500   12.0849 S   0  0  0  0  0  0  0  0  0  0  0  0
   46.6464    6.6341   10.8457 O   0  0  0  0  0  0  0  0  0  0  0  0
   47.1798    8.5805   12.3920 O   0  0  0  0  0  0  0  0  0  0  0  0
   46.8117    6.3437   13.2925 O   0  0  0  0  0  0  0  0  0  0  0  0
   44.9175    7.5911   12.2737 O   0  0  0  0  0  0  0  0  0  0  0  0
   44.8378    6.2095   12.2175 C   0  0  0  0  0  0  0  0  0  0  0  0
   44.6726    5.4638   13.2460 N   0  0  0  0  0  0  0  0  0  0  0  0
   45.8225    7.1585   12.1932 N   0  0  0  0  0  0  0  0  0  0  0  0
   44.1871    6.2768   11.0159 N   0  0  0  0  0  0  0  0  0  0  0  0
   46.6823    7.3779   13.3488 C   0  0  0  0  0  0  0  0  0  0  0  0
   47.8468    8.2538   12.9446 C   0  0  0  0  0  0  0  0  0  0  0  0
   43.5850    4.5174   13.3276 C   0  0  0  0  0  0  0  0  0  0  0  0
   43.5454    5.1572   10.3662 C   0  0  0  0  0  0  0  0  0  0  0  0
   48.1051    9.4615   13.6053 C   0  0  0  0  0  0  0  0  0  0  0  0
   48.7094    7.8480   11.9115 C   0  0  0  0  0  0  0  0  0  0  0  0
   49.1946   10.2512   13.2298 C   0  0  0  0  0  0  0  0  0  0  0  0
   49.7977    8.6372   11.5401 C   0  0  0  0  0  0  0  0  0  0  0  0
   50.0341    9.8424   12.1943 C   0  0  0  0  0  0  0  0  0  0  0  0
   46.7456    6.6673   11.8772 H   0  0  0  0  0  0  0  0  0  0  0  0
   44.8769    3.9575   11.8850 H   0  0  0  0  0  0  0  0  0  0  0  0
   45.1305    8.7055   12.0436 H   0  0  0  0  0  0  0  0  0  0  0  0
   45.0214    8.2048   13.7369 H   0  0  0  0  0  0  0  0  0  0  0  0
   43.1129    4.0364   12.9329 H   0  0  0  0  0  0  0  0  0  0  0  0
   42.3750    4.9844   11.6093 H   0  0  0  0  0  0  0  0  0  0  0  0
   41.9115    5.2574   13.2960 H   0  0  0  0  0  0  0  0  0  0  0  0
   45.9770    5.7492    9.8338 H   0  0  0  0  0  0  0  0  0  0  0  0
   46.1920    3.9881    9.8664 H   0  0  0  0  0  0  0  0  0  0  0  0
   44.5597    4.6734    9.7370 H   0  0  0  0  0  0  0  0  0  0  0  0
   46.9834   10.0900   11.3640 H   0  0  0  0  0  0  0  0  0  0  0  0
   47.2812    7.7634   14.9882 H   0  0  0  0  0  0  0  0  0  0  0  0
   49.1351   11.1825   11.8985 H   0  0  0  0  0  0  0  0  0  0  0  0
   49.4425    8.8647   15.5052 H   0  0  0  0  0  0  0  0  0  0  0  0
   50.3648   10.5754   13.9669 H   0  0  0  0  0  0  0  0  0  0  0  0
   47.2997    6.8551   13.9718 H   0  0  0  0  0  0  0  0  0  0  0  0
   44.4576    6.9001   11.7573 H   0  0  0  0  0  0  0  0  0  0  0  0
   45.5128    8.0412   11.8070 H   0  0  0  0  0  0  0  0  0  0  0  0
   44.7044    6.8421   10.3595 H   0  0  0  0  0  0  0  0  0  0  0  0
   47.0843    6.4323   13.7333 H   0  0  0  0  0  0  0  0  0  0  0  0
   46.1017    7.8524   14.1491 H   0  0  0  0  0  0  0  0  0  0  0  0
   43.7802    3.6329   12.7157 H   0  0  0  0  0  0  0  0  0  0  0  0
   42.6262    4.9654   13.0531 H   0  0  0  0  0  0  0  0  0  0  0  0
   43.4864    4.1781   14.3622 H   0  0  0  0  0  0  0  0  0  0  0  0
   42.5794    4.9298   10.8276 H   0  0  0  0  0  0  0  0  0  0  0  0
   43.3499    5.4131    9.3207 H   0  0  0  0  0  0  0  0  0  0  0  0
   44.1779    4.2617   10.3736 H   0  0  0  0  0  0  0  0  0  0  0  0
   47.4710    9.7893   14.4253 H   0  0  0  0  0  0  0  0  0  0  0  0
   48.5384    6.8976   11.4026 H   0  0  0  0  0  0  0  0  0  0  0  0
   49.3954   11.1802   13.7514 H   0  0  0  0  0  0  0  0  0  0  0  0
   50.4640    8.3033   10.7470 H   0  0  0  0  0  0  0  0  0  0  0  0
   50.8858   10.4505   11.9077 H   0  0  0  0  0  0  0  0  0  0  0  0
  2  1  2  0
  3  1  1  0
  4  1  1  0
  5  3  1  0
  6  5  1  0
  7  2  1  0
  8  4  1  0
  9  6  2  0
 10  6  1  0
 11  9  1  0
 12 10  2  0
 13 12  1  0
 11 13  2  0
 15 14  2  0
 16 14  2  0
 17 14  1  0
 18 14  1  0
 20 19  2  0
 21 19  1  0
 22 19  1  0
 23 21  1  0
 24 23  1  0
 25 20  1  0
 26 22  1  0
 27 24  2  0
 28 24  1  0
 29 27  1  0
 30 28  2  0
 31 30  1  0
 29 31  2  0
  3 32  1  0
  4 33  1  0
  5 34  1  0
  5 35  1  0
  7 36  1  0
  7 37  1  0
  7 38  1  0
  8 39  1  0
  8 40  1  0
  8 41  1  0
  9 42  1  0
 10 43  1  0
 11 44  1  0
 12 45  1  0
 13 46  1  0
 17 47  1  0
 18 48  1  0
 21 49  1  0
 22 50  1  0
 23 51  1  0
 23 52  1  0
 25 53  1  0
 25 54  1  0
 25 55  1  0
 26 56  1  0
 26 57  1  0
 26 58  1  0
 27 59  1  0
 28 60  1  0
 29 61  1  0
 30 62  1  0
 31 63  1  0
M  END
> <Uni-Dock RESULT> 
ENERGY=   -4.565  LOWER_BOUND=    1.022  UPPER_BOUND=    1.997
INTER + INTRA:          -4.565
INTER:                  -4.565
INTRA:                   0.000
UNBOUND:                 0.000

$$$$

     RDKit          3D

 63 62  0  0  0  0  0  0  0  0999 V2000
   50.8831    6.0351   21.7722 C   0  0  0  0  0  0  0  0  0  0  0  0
   50.2747    6.4692   22.8183 N   0  0  0  0  0  0  0  0  0  0  0  0
   50.2235    5.4028   20.7708 N   0  0  0  0  0  0  0  0  0  0  0  0
   52.2111    6.1589   21.4569 N   0  0  0  0  0  0  0  0  0  0  0  0
   48.8744    4.9086   20.9021 C   0  0  0  0  0  0  0  0  0  0  0  0
   48.3494    4.5155   19.5399 C   0  0  0  0  0  0  0  0  0  0  0  0
   51.0139    7.1610   23.8585 C   0  0  0  0  0  0  0  0  0  0  0  0
   53.0869    5.0069   21.6488 C   0  0  0  0  0  0  0  0  0  0  0  0
   48.2089    3.1656   19.1787 C   0  0  0  0  0  0  0  0  0  0  0  0
   48.0125    5.5075   18.6067 C   0  0  0  0  0  0  0  0  0  0  0  0
   47.7316    2.8198   17.9117 C   0  0  0  0  0  0  0  0  0  0  0  0
   47.5349    5.1608   17.3422 C   0  0  0  0  0  0  0  0  0  0  0  0
   47.3921    3.8175   16.9974 C   0  0  0  0  0  0  0  0  0  0  0  0
   50.0992    4.7162   20.2671 S   0  0  0  0  0  0  0  0  0  0  0  0
   51.4342    4.1936   20.3959 O   0  0  0  0  0  0  0  0  0  0  0  0
   49.0566    4.0764   19.5030 O   0  0  0  0  0  0  0  0  0  0  0  0
   50.1965    6.2217   19.7222 O   0  0  0  0  0  0  0  0  0  0  0  0
   49.5601    4.9481   21.7607 O   0  0  0  0  0  0  0  0  0  0  0  0
   50.6589    5.7825   21.8817 C   0  0  0  0  0  0  0  0  0  0  0  0
   50.5894    7.0611   21.8419 N   0  0  0  0  0  0  0  0  0  0  0  0
   50.0819    5.0205   20.9034 N   0  0  0  0  0  0  0  0  0  0  0  0
   51.2400    4.9200   22.7706 N   0  0  0  0  0  0  0  0  0  0  0  0
   49.3369    5.6365   19.8134 C   0  0  0  0  0  0  0  0  0  0  0  0
   49.0750    4.6025   18.7415 C   0  0  0  0  0  0  0  0  0  0  0  0
   51.1141    7.8810   22.9086 C   0  0  0  0  0  0  0  0  0  0  0  0
   52.4115    5.2215   23.5606 C   0  0  0  0  0  0  0  0  0  0  0  0
   47.7706    4.3123   18.3218 C   0  0  0  0  0  0  0  0  0  0  0  0
   50.1493    3.9359   18.1269 C   0  0  0  0  0  0  0  0  0  0  0  0
   47.5472    3.3656   17.3191 C   0  0  0  0  0  0  0  0  0  0  0  0
   49.9236    2.9929   17.1246 C   0  0  0  0  0  0  0  0  0  0  0  0
   48.6218    2.7026   16.7277 C   0  0  0  0  0  0  0  0  0  0  0  0
   50.7955    4.9466   20.0796 H   0  0  0  0  0  0  0  0  0  0  0  0
   52.6220    6.9327   21.9649 H   0  0  0  0  0  0  0  0  0  0  0  0
   48.8637    4.0420   21.5761 H   0  0  0  0  0  0  0  0  0  0  0  0
   48.2072    5.6670   21.3351 H   0  0  0  0  0  0  0  0  0  0  0  0
   51.6583    7.9519   23.4644 H   0  0  0  0  0  0  0  0  0  0  0  0
   51.6142    6.4576   24.4445 H   0  0  0  0  0  0  0  0  0  0  0  0
   50.3056    7.6467   24.5336 H   0  0  0  0  0  0  0  0  0  0  0  0
   52.6391    4.0754   21.2844 H   0  0  0  0  0  0  0  0  0  0  0  0
   54.0238    5.1707   21.1073 H   0  0  0  0  0  0  0  0  0  0  0  0
   53.3235    4.8897   22.7140 H   0  0  0  0  0  0  0  0  0  0  0  0
   48.4763    2.3746   19.8786 H   0  0  0  0  0  0  0  0  0  0  0  0
   48.1288    6.5582   18.8720 H   0  0  0  0  0  0  0  0  0  0  0  0
   47.6226    1.7733   17.6384 H   0  0  0  0  0  0  0  0  0  0  0  0
   47.2803    5.9365   16.6259 H   0  0  0  0  0  0  0  0  0  0  0  0
   47.0217    3.5490   16.0122 H   0  0  0  0  0  0  0  0  0  0  0  0
   49.4579    6.3469   19.0899 H   0  0  0  0  0  0  0  0  0  0  0  0
   50.3437    5.0557   22.3351 H   0  0  0  0  0  0  0  0  0  0  0  0
   49.5826    4.2191   21.2678 H   0  0  0  0  0  0  0  0  0  0  0  0
   51.2766    3.9857   22.3916 H   0  0  0  0  0  0  0  0  0  0  0  0
   49.9001    6.4620   19.3605 H   0  0  0  0  0  0  0  0  0  0  0  0
   48.3930    6.0394   20.2002 H   0  0  0  0  0  0  0  0  0  0  0  0
   52.2050    7.9374   22.8676 H   0  0  0  0  0  0  0  0  0  0  0  0
   50.7881    7.5356   23.8934 H   0  0  0  0  0  0  0  0  0  0  0  0
   50.7342    8.8996   22.7932 H   0  0  0  0  0  0  0  0  0  0  0  0
   52.1630    5.8631   24.4118 H   0  0  0  0  0  0  0  0  0  0  0  0
   52.8189    4.2913   23.9675 H   0  0  0  0  0  0  0  0  0  0  0  0
   53.1998    5.6923   22.9614 H   0  0  0  0  0  0  0  0  0  0  0  0
   46.9211    4.8302   18.7601 H   0  0  0  0  0  0  0  0  0  0  0  0
   51.1739    4.1679   18.4234 H   0  0  0  0  0  0  0  0  0  0  0  0
   46.5361    3.1523   16.9914 H   0  0  0  0  0  0  0  0  0  0  0  0
   50.7663    2.4946   16.6493 H   0  0  0  0  0  0  0  0  0  0  0  0
   48.4501    1.9736   15.9425 H   0  0  0  0  0  0  0  0  0  0  0  0
  2  1  2  0
  3  1  1  0
  4  1  1  0
  5  3  1  0
  6  5  1  0
  7  2  1  0
  8  4  1  0
  9  6  2  0
 10  6  1  0
 11  9  1  0
 12 10  2  0
 13 12  1  0
 11 13  2  0
 15 14  2  0
 16 14  2  0
 17 14  1  0
 18 14  1  0
 20 19  2  0
 21 19  1  0
 22 19  1  0
 23 21  1  0
 24 23  1  0
 25 20  1  0
 26 22  1  0
 27 24  2  0
 28 24  1  0
 29 27  1  0
 30 28  2  0
 31 30  1  0
 29 31  2  0
  3 32  1  0
  4 33  1  0
  5 34  1  0
  5 35  1  0
  7 36  1  0
  7 37  1  0
  7 38  1  0
  8 39  1  0
  8 40  1  0
  8 41  1  0
  9 42  1  0
 10 43  1  0
 11 44  1  0
 12 45  1  0
 13 46  1  0
 17 47  1  0
 18 48  1  0
 21 49  1  0
 22 50  1  0
 23 51  1  0
 23 52  1  0
 25 53  1  0
 25 54  1  0
 25 55  1  0
 26 56  1  0
 26 57  1  0
 26 58  1  0
 27 59  1  0
 28 60  1  0
 29 61  1  0
 30 62  1  0
 31 63  1  0
M  END
> <Uni-Dock RESULT> 
ENERGY=   -4.546  LOWER_BOUND=    7.879  UPPER_BOUND=    9.812
INTER + INTRA:          -4.546
INTER:                  -4.546
INTRA:                   0.000
UNBOUND:                 0.000

$$$$

     RDKit          3D

 63 62  0  0  0  0  0  0  0  0999 V2000
   48.2917    4.9594   18.1748 C   0  0  0  0  0  0  0  0  0  0  0  0
   47.1983    4.6551   17.5709 N   0  0  0  0  0  0  0  0  0  0  0  0
   48.2968    5.4985   19.4186 N   0  0  0  0  0  0  0  0  0  0  0  0
   49.5770    4.7685   17.7391 N   0  0  0  0  0  0  0  0  0  0  0  0
   47.1175    6.0387   20.0503 C   0  0  0  0  0  0  0  0  0  0  0  0
   47.4053    6.2980   21.5117 C   0  0  0  0  0  0  0  0  0  0  0  0
   47.2364    4.0590   16.2479 C   0  0  0  0  0  0  0  0  0  0  0  0
   50.3135    5.9112   17.2075 C   0  0  0  0  0  0  0  0  0  0  0  0
   47.5772    7.6051   21.9960 C   0  0  0  0  0  0  0  0  0  0  0  0
   47.5240    5.2215   22.4034 C   0  0  0  0  0  0  0  0  0  0  0  0
   47.8528    7.8263   23.3480 C   0  0  0  0  0  0  0  0  0  0  0  0
   47.7981    5.4439   23.7534 C   0  0  0  0  0  0  0  0  0  0  0  0
   47.9591    6.7462   24.2247 C   0  0  0  0  0  0  0  0  0  0  0  0
   48.5047    6.1306   19.9643 S   0  0  0  0  0  0  0  0  0  0  0  0
   49.6164    6.6291   19.1978 O   0  0  0  0  0  0  0  0  0  0  0  0
   48.0612    6.7123   21.2074 O   0  0  0  0  0  0  0  0  0  0  0  0
   48.7527    4.5737   20.2598 O   0  0  0  0  0  0  0  0  0  0  0  0
   47.2545    6.0730   18.9599 O   0  0  0  0  0  0  0  0  0  0  0  0
   48.0636    5.2280   18.2185 C   0  0  0  0  0  0  0  0  0  0  0  0
   47.9257    3.9547   18.1898 N   0  0  0  0  0  0  0  0  0  0  0  0
   48.1372    5.8963   19.4096 N   0  0  0  0  0  0  0  0  0  0  0  0
   48.1658    6.1649   17.2267 N   0  0  0  0  0  0  0  0  0  0  0  0
   48.0184    5.1873   20.6768 C   0  0  0  0  0  0  0  0  0  0  0  0
   48.4300    6.1078   21.8037 C   0  0  0  0  0  0  0  0  0  0  0  0
   47.7574    3.2396   16.9465 C   0  0  0  0  0  0  0  0  0  0  0  0
   48.7321    5.9188   15.9205 C   0  0  0  0  0  0  0  0  0  0  0  0
   47.5580    6.3854   22.8641 C   0  0  0  0  0  0  0  0  0  0  0  0
   49.7153    6.6771   21.8157 C   0  0  0  0  0  0  0  0  0  0  0  0
   47.9599    7.2255   23.9054 C   0  0  0  0  0  0  0  0  0  0  0  0
   50.1146    7.5137   22.8576 C   0  0  0  0  0  0  0  0  0  0  0  0
   49.2331    7.7937   23.8973 C   0  0  0  0  0  0  0  0  0  0  0  0
   49.1773    5.8636   19.7419 H   0  0  0  0  0  0  0  0  0  0  0  0
   49.6043    4.0427   17.0332 H   0  0  0  0  0  0  0  0  0  0  0  0
   46.8268    6.9721   19.5505 H   0  0  0  0  0  0  0  0  0  0  0  0
   46.2659    5.3482   19.9727 H   0  0  0  0  0  0  0  0  0  0  0  0
   47.9281    3.2142   16.1847 H   0  0  0  0  0  0  0  0  0  0  0  0
   47.4993    4.8049   15.4911 H   0  0  0  0  0  0  0  0  0  0  0  0
   46.2457    3.6664   16.0073 H   0  0  0  0  0  0  0  0  0  0  0  0
   50.1926    6.8100   17.8229 H   0  0  0  0  0  0  0  0  0  0  0  0
   51.3794    5.6666   17.1651 H   0  0  0  0  0  0  0  0  0  0  0  0
   49.9731    6.1349   16.1885 H   0  0  0  0  0  0  0  0  0  0  0  0
   47.5043    8.4588   21.3232 H   0  0  0  0  0  0  0  0  0  0  0  0
   47.4044    4.2023   22.0362 H   0  0  0  0  0  0  0  0  0  0  0  0
   47.9825    8.8403   23.7180 H   0  0  0  0  0  0  0  0  0  0  0  0
   47.8916    4.6033   24.4348 H   0  0  0  0  0  0  0  0  0  0  0  0
   48.1739    6.9178   25.2755 H   0  0  0  0  0  0  0  0  0  0  0  0
   48.4407    4.4010   21.1730 H   0  0  0  0  0  0  0  0  0  0  0  0
   47.6168    6.0069   18.0544 H   0  0  0  0  0  0  0  0  0  0  0  0
   47.5853    6.7445   19.4229 H   0  0  0  0  0  0  0  0  0  0  0  0
   48.4656    7.0523   17.6017 H   0  0  0  0  0  0  0  0  0  0  0  0
   48.6686    4.3040   20.7033 H   0  0  0  0  0  0  0  0  0  0  0  0
   46.9826    4.8525   20.8104 H   0  0  0  0  0  0  0  0  0  0  0  0
   48.7039    3.1509   16.4069 H   0  0  0  0  0  0  0  0  0  0  0  0
   46.9968    3.6961   16.3073 H   0  0  0  0  0  0  0  0  0  0  0  0
   47.4142    2.2247   17.1643 H   0  0  0  0  0  0  0  0  0  0  0  0
   48.0302    5.3781   15.2780 H   0  0  0  0  0  0  0  0  0  0  0  0
   48.9410    6.8763   15.4340 H   0  0  0  0  0  0  0  0  0  0  0  0
   49.6774    5.3668   15.9810 H   0  0  0  0  0  0  0  0  0  0  0  0
   46.5671    5.9393   22.8958 H   0  0  0  0  0  0  0  0  0  0  0  0
   50.4171    6.4515   21.0107 H   0  0  0  0  0  0  0  0  0  0  0  0
   47.2843    7.4289   24.7285 H   0  0  0  0  0  0  0  0  0  0  0  0
   51.1174    7.9366   22.8594 H   0  0  0  0  0  0  0  0  0  0  0  0
   49.5496    8.4393   24.7100 H   0  0  0  0  0  0  0  0  0  0  0  0
  2  1  2  0
  3  1  1  0
  4  1  1  0
  5  3  1  0
  6  5  1  0
  7  2  1  0
  8  4  1  0
  9  6  2  0
 10  6  1  0
 11  9  1  0
 12 10  2  0
 13 12  1  0
 11 13  2  0
 15 14  2  0
 16 14  2  0
 17 14  1  0
 18 14  1  0
 20 19  2  0
 21 19  1  0
 22 19  1  0
 23 21  1  0
 24 23  1  0
 25 20  1  0
 26 22  1  0
 27 24  2  0
 28 24  1  0
 29 27  1  0
 30 28  2  0
 31 30  1  0
 29 31  2  0
  3 32  1  0
  4 33  1  0
  5 34  1  0
  5 35  1  0
  7 36  1  0
  7 37  1  0
  7 38  1  0
  8 39  1  0
  8 40  1  0
  8 41  1  0
  9 42  1  0
 10 43  1  0
 11 44  1  0
 12 45  1  0
 13 46  1  0
 17 47  1  0
 18 48  1  0
 21 49  1  0
 22 50  1  0
 23 51  1  0
 23 52  1  0
 25 53  1  0
 25 54  1  0
 25 55  1  0
 26 56  1  0
 26 57  1  0
 26 58  1  0
 27 59  1  0
 28 60  1  0
 29 61  1  0
 30 62  1  0
 31 63  1  0
M  END
> <Uni-Dock RESULT> 
ENERGY=   -4.519  LOWER_BOUND=    7.151  UPPER_BOUND=    8.411
INTER + INTRA:          -4.519
INTER:                  -4.519
INTRA:                   0.000
UNBOUND:                 0.000

$$$$

     RDKit          3D

 63 62  0  0  0  0  0  0  0  0999 V2000
   45.1024    5.6321   12.4451 C   0  0  0  0  0  0  0  0  0  0  0  0
   44.2318    5.7837   11.5114 N   0  0  0  0  0  0  0  0  0  0  0  0
   46.1933    6.4308   12.5436 N   0  0  0  0  0  0  0  0  0  0  0  0
   45.0808    4.7347   13.4807 N   0  0  0  0  0  0  0  0  0  0  0  0
   46.6281    7.3085   11.4843 C   0  0  0  0  0  0  0  0  0  0  0  0
   47.6895    8.2460   12.0134 C   0  0  0  0  0  0  0  0  0  0  0  0
   43.0655    4.9214   11.4536 C   0  0  0  0  0  0  0  0  0  0  0  0
   45.9219    3.5448   13.3942 C   0  0  0  0  0  0  0  0  0  0  0  0
   49.0406    8.0810   11.6672 C   0  0  0  0  0  0  0  0  0  0  0  0
   47.3326    9.2894   12.8807 C   0  0  0  0  0  0  0  0  0  0  0  0
   50.0103    8.9506   12.1734 C   0  0  0  0  0  0  0  0  0  0  0  0
   48.3018   10.1577   13.3845 C   0  0  0  0  0  0  0  0  0  0  0  0
   49.6390    9.9892   13.0278 C   0  0  0  0  0  0  0  0  0  0  0  0
   47.0466    6.5402   12.5682 S   0  0  0  0  0  0  0  0  0  0  0  0
   47.3531    5.2137   13.0354 O   0  0  0  0  0  0  0  0  0  0  0  0
   48.0449    7.5386   12.2735 O   0  0  0  0  0  0  0  0  0  0  0  0
   46.0260    7.2172   13.6040 O   0  0  0  0  0  0  0  0  0  0  0  0
   46.1174    6.3580   11.2725 O   0  0  0  0  0  0  0  0  0  0  0  0
   45.2764    5.6800   12.1393 C   0  0  0  0  0  0  0  0  0  0  0  0
   44.2029    6.1811   12.6268 N   0  0  0  0  0  0  0  0  0  0  0  0
   46.4621    6.3572   12.2179 N   0  0  0  0  0  0  0  0  0  0  0  0
   45.5308    4.5007   11.4941 N   0  0  0  0  0  0  0  0  0  0  0  0
   46.5312    7.6830   12.8182 C   0  0  0  0  0  0  0  0  0  0  0  0
   47.9800    8.0558   13.0385 C   0  0  0  0  0  0  0  0  0  0  0  0
   42.9255    5.5245   12.4771 C   0  0  0  0  0  0  0  0  0  0  0  0
   44.8024    3.2722   11.7122 C   0  0  0  0  0  0  0  0  0  0  0  0
   48.5177    9.2232   12.4818 C   0  0  0  0  0  0  0  0  0  0  0  0
   48.8039    7.2432   13.8368 C   0  0  0  0  0  0  0  0  0  0  0  0
   49.8542    9.5610   12.7083 C   0  0  0  0  0  0  0  0  0  0  0  0
   50.1371    7.5841   14.0631 C   0  0  0  0  0  0  0  0  0  0  0  0
   50.6631    8.7386   13.4913 C   0  0  0  0  0  0  0  0  0  0  0  0
   46.9044    6.1352   13.1918 H   0  0  0  0  0  0  0  0  0  0  0  0
   44.1341    4.4178   13.6511 H   0  0  0  0  0  0  0  0  0  0  0  0
   47.0293    6.7127   10.6539 H   0  0  0  0  0  0  0  0  0  0  0  0
   45.7945    7.9037   11.0857 H   0  0  0  0  0  0  0  0  0  0  0  0
   42.5503    4.8422   12.4151 H   0  0  0  0  0  0  0  0  0  0  0  0
   43.3364    3.9214   11.1001 H   0  0  0  0  0  0  0  0  0  0  0  0
   42.3451    5.3459   10.7506 H   0  0  0  0  0  0  0  0  0  0  0  0
   46.9331    3.7720   13.0377 H   0  0  0  0  0  0  0  0  0  0  0  0
   46.0035    3.0867   14.3849 H   0  0  0  0  0  0  0  0  0  0  0  0
   45.4663    2.8127   12.7154 H   0  0  0  0  0  0  0  0  0  0  0  0
   49.3479    7.2708   11.0068 H   0  0  0  0  0  0  0  0  0  0  0  0
   46.2886    9.4195   13.1655 H   0  0  0  0  0  0  0  0  0  0  0  0
   51.0544    8.8196   11.9002 H   0  0  0  0  0  0  0  0  0  0  0  0
   48.0152   10.9601   14.0581 H   0  0  0  0  0  0  0  0  0  0  0  0
   50.3926   10.6649   13.4219 H   0  0  0  0  0  0  0  0  0  0  0  0
   46.2828    8.1597   13.6864 H   0  0  0  0  0  0  0  0  0  0  0  0
   45.6876    5.4834   11.3484 H   0  0  0  0  0  0  0  0  0  0  0  0
   46.9931    6.3281   11.3568 H   0  0  0  0  0  0  0  0  0  0  0  0
   46.5241    4.3376   11.4243 H   0  0  0  0  0  0  0  0  0  0  0  0
   46.0209    7.7094   13.7891 H   0  0  0  0  0  0  0  0  0  0  0  0
   46.0423    8.4079   12.1561 H   0  0  0  0  0  0  0  0  0  0  0  0
   42.8354    4.6700   13.1529 H   0  0  0  0  0  0  0  0  0  0  0  0
   42.7390    5.2144   11.4454 H   0  0  0  0  0  0  0  0  0  0  0  0
   42.1314    6.2284   12.7401 H   0  0  0  0  0  0  0  0  0  0  0  0
   43.8322    3.2898   11.2060 H   0  0  0  0  0  0  0  0  0  0  0  0
   45.3705    2.4385   11.2890 H   0  0  0  0  0  0  0  0  0  0  0  0
   44.6584    3.0650   12.7791 H   0  0  0  0  0  0  0  0  0  0  0  0
   47.8985    9.8849   11.8814 H   0  0  0  0  0  0  0  0  0  0  0  0
   48.3950    6.3432   14.2996 H   0  0  0  0  0  0  0  0  0  0  0  0
   50.2622   10.4710   12.2829 H   0  0  0  0  0  0  0  0  0  0  0  0
   50.7589    6.9517   14.6939 H   0  0  0  0  0  0  0  0  0  0  0  0
   51.6989    9.0046   13.6753 H   0  0  0  0  0  0  0  0  0  0  0  0
  2  1  2  0
  3  1  1  0
  4  1  1  0
  5  3  1  0
  6  5  1  0
  7  2  1  0
  8  4  1  0
  9  6  2  0
 10  6  1  0
 11  9  1  0
 12 10  2  0
 13 12  1  0
 11 13  2  0
 15 14  2  0
 16 14  2  0
 17 14  1  0
 18 14  1  0
 20 19  2  0
 21 19  1  0
 22 19  1  0
 23 21  1  0
 24 23  1  0
 25 20  1  0
 26 22  1  0
 27 24  2  0
 28 24  1  0
 29 27  1  0
 30 28  2  0
 31 30  1  0
 29 31  2  0
  3 32  1  0
  4 33  1  0
  5 34  1  0
  5 35  1  0
  7 36  1  0
  7 37  1  0
  7 38  1  0
  8 39  1  0
  8 40  1  0
  8 41  1  0
  9 42  1  0
 10 43  1  0
 11 44  1  0
 12 45  1  0
 13 46  1  0
 17 47  1  0
 18 48  1  0
 21 49  1  0
 22 50  1  0
 23 51  1  0
 23 52  1  0
 25 53  1  0
 25 54  1  0
 25 55  1  0
 26 56  1  0
 26 57  1  0
 26 58  1  0
 27 59  1  0
 28 60  1  0
 29 61  1  0
 30 62  1  0
 31 63  1  0
M  END
> <Uni-Dock RESULT> 
ENERGY=   -4.427  LOWER_BOUND=    1.024  UPPER_BOUND=    2.369
INTER + INTRA:          -4.427
INTER:                  -4.427
INTRA:                   0.000
UNBOUND:                 0.000

$$$$

     RDKit          3D

 63 62  0  0  0  0  0  0  0  0999 V2000
   43.0788   11.8218    8.8872 C   0  0  0  0  0  0  0  0  0  0  0  0
   42.9110   11.9003    7.6151 N   0  0  0  0  0  0  0  0  0  0  0  0
   42.0344   11.8552    9.7508 N   0  0  0  0  0  0  0  0  0  0  0  0
   44.2524   11.6501    9.5740 N   0  0  0  0  0  0  0  0  0  0  0  0
   40.7047   12.2625    9.3669 C   0  0  0  0  0  0  0  0  0  0  0  0
   39.7359   11.9229   10.4768 C   0  0  0  0  0  0  0  0  0  0  0  0
   44.0542   11.8384    6.7226 C   0  0  0  0  0  0  0  0  0  0  0  0
   44.8625   12.8088   10.2191 C   0  0  0  0  0  0  0  0  0  0  0  0
   39.1964   12.9247   11.3001 C   0  0  0  0  0  0  0  0  0  0  0  0
   39.3784   10.5863   10.7093 C   0  0  0  0  0  0  0  0  0  0  0  0
   38.3100   12.5922   12.3280 C   0  0  0  0  0  0  0  0  0  0  0  0
   38.4924   10.2559   11.7354 C   0  0  0  0  0  0  0  0  0  0  0  0
   37.9569   11.2595   12.5415 C   0  0  0  0  0  0  0  0  0  0  0  0
   41.6189   12.2087   10.4164 S   0  0  0  0  0  0  0  0  0  0  0  0
   42.7805   12.8157   11.0114 O   0  0  0  0  0  0  0  0  0  0  0  0
   40.2844   12.3366   10.9483 O   0  0  0  0  0  0  0  0  0  0  0  0
   41.8931   10.6356   10.2641 O   0  0  0  0  0  0  0  0  0  0  0  0
   41.5984   12.6823    8.8832 O   0  0  0  0  0  0  0  0  0  0  0  0
   42.8445   12.0807    8.8231 C   0  0  0  0  0  0  0  0  0  0  0  0
   43.0573   10.9364    8.2877 N   0  0  0  0  0  0  0  0  0  0  0  0
   41.8543   12.2442    9.7523 N   0  0  0  0  0  0  0  0  0  0  0  0
   43.4459   13.2988    8.6601 N   0  0  0  0  0  0  0  0  0  0  0  0
   40.9869   11.1356   10.1281 C   0  0  0  0  0  0  0  0  0  0  0  0
   40.2017   11.5136   11.3639 C   0  0  0  0  0  0  0  0  0  0  0  0
   44.0373   10.7609    7.2417 C   0  0  0  0  0  0  0  0  0  0  0  0
   44.8314   13.4880    8.2969 C   0  0  0  0  0  0  0  0  0  0  0  0
   38.8014   11.4822   11.3670 C   0  0  0  0  0  0  0  0  0  0  0  0
   40.8745   11.8752   12.5440 C   0  0  0  0  0  0  0  0  0  0  0  0
   38.0916   11.8191   12.5221 C   0  0  0  0  0  0  0  0  0  0  0  0
   40.1635   12.2090   13.6963 C   0  0  0  0  0  0  0  0  0  0  0  0
   38.7722   12.1888   13.6814 C   0  0  0  0  0  0  0  0  0  0  0  0
   42.2653   11.9630   10.7246 H   0  0  0  0  0  0  0  0  0  0  0  0
   44.9557   11.2411    8.9708 H   0  0  0  0  0  0  0  0  0  0  0  0
   40.6925   13.3428    9.1714 H   0  0  0  0  0  0  0  0  0  0  0  0
   40.3792   11.7604    8.4449 H   0  0  0  0  0  0  0  0  0  0  0  0
   44.7195   10.9996    6.9455 H   0  0  0  0  0  0  0  0  0  0  0  0
   44.6223   12.7738    6.7505 H   0  0  0  0  0  0  0  0  0  0  0  0
   43.6985   11.6882    5.7007 H   0  0  0  0  0  0  0  0  0  0  0  0
   44.1305   13.4222   10.7567 H   0  0  0  0  0  0  0  0  0  0  0  0
   45.6160   12.4685   10.9361 H   0  0  0  0  0  0  0  0  0  0  0  0
   45.3622   13.4350    9.4691 H   0  0  0  0  0  0  0  0  0  0  0  0
   39.4675   13.9694   11.1510 H   0  0  0  0  0  0  0  0  0  0  0  0
   39.8003    9.7995   10.0841 H   0  0  0  0  0  0  0  0  0  0  0  0
   37.8936   13.3721   12.9607 H   0  0  0  0  0  0  0  0  0  0  0  0
   38.2249    9.2177   11.9092 H   0  0  0  0  0  0  0  0  0  0  0  0
   37.2684   11.0007   13.3408 H   0  0  0  0  0  0  0  0  0  0  0  0
   41.0523   10.1758   10.4706 H   0  0  0  0  0  0  0  0  0  0  0  0
   42.5171   12.9133    8.6421 H   0  0  0  0  0  0  0  0  0  0  0  0
   41.3131   13.0876    9.6106 H   0  0  0  0  0  0  0  0  0  0  0  0
   43.1599   13.9394    9.3853 H   0  0  0  0  0  0  0  0  0  0  0  0
   41.5676   10.2330   10.3560 H   0  0  0  0  0  0  0  0  0  0  0  0
   40.3104   10.9050    9.2962 H   0  0  0  0  0  0  0  0  0  0  0  0
   45.0538   10.7635    7.6439 H   0  0  0  0  0  0  0  0  0  0  0  0
   43.9387   11.5119    6.4532 H   0  0  0  0  0  0  0  0  0  0  0  0
   43.8807    9.7882    6.7680 H   0  0  0  0  0  0  0  0  0  0  0  0
   44.9895   13.3153    7.2277 H   0  0  0  0  0  0  0  0  0  0  0  0
   45.1172   14.5242    8.5007 H   0  0  0  0  0  0  0  0  0  0  0  0
   45.4994   12.8414    8.8780 H   0  0  0  0  0  0  0  0  0  0  0  0
   38.2535   11.1816   10.4774 H   0  0  0  0  0  0  0  0  0  0  0  0
   41.9659   11.8805   12.5674 H   0  0  0  0  0  0  0  0  0  0  0  0
   37.0080   11.7835   12.5215 H   0  0  0  0  0  0  0  0  0  0  0  0
   40.6988   12.4745   14.6059 H   0  0  0  0  0  0  0  0  0  0  0  0
   38.2221   12.4421   14.5819 H   0  0  0  0  0  0  0  0  0  0  0  0
  2  1  2  0
  3  1  1  0
  4  1  1  0
  5  3  1  0
  6  5  1  0
  7  2  1  0
  8  4  1  0
  9  6  2  0
 10  6  1  0
 11  9  1  0
 12 10  2  0
 13 12  1  0
 11 13  2  0
 15 14  2  0
 16 14  2  0
 17 14  1  0
 18 14  1  0
 20 19  2  0
 21 19  1  0
 22 19  1  0
 23 21  1  0
 24 23  1  0
 25 20  1  0
 26 22  1  0
 27 24  2  0
 28 24  1  0
 29 27  1  0
 30 28  2  0
 31 30  1  0
 29 31  2  0
  3 32  1  0
  4 33  1  0
  5 34  1  0
  5 35  1  0
  7 36  1  0
  7 37  1  0
  7 38  1  0
  8 39  1  0
  8 40  1  0
  8 41  1  0
  9 42  1  0
 10 43  1  0
 11 44  1  0
 12 45  1  0
 13 46  1  0
 17 47  1  0
 18 48  1  0
 21 49  1  0
 22 50  1  0
 23 51  1  0
 23 52  1  0
 25 53  1  0
 25 54  1  0
 25 55  1  0
 26 56  1  0
 26 57  1  0
 26 58  1  0
 27 59  1  0
 28 60  1  0
 29 61  1  0
 30 62  1  0
 31 63  1  0
M  END
> <Uni-Dock RESULT> 
ENERGY=   -4.330  LOWER_BOUND=    6.882  UPPER_BOUND=    9.059
INTER + INTRA:          -4.330
INTER:                  -4.330
INTRA:                   0.000
UNBOUND:                 0.000

$$$$

     RDKit          3D

 63 62  0  0  0  0  0  0  0  0999 V2000
   48.9142    8.9373   16.2977 C   0  0  0  0  0  0  0  0  0  0  0  0
   48.5303    7.7105   16.2767 N   0  0  0  0  0  0  0  0  0  0  0  0
   48.5861    9.7731   17.3133 N   0  0  0  0  0  0  0  0  0  0  0  0
   49.7142    9.5861   15.3937 N   0  0  0  0  0  0  0  0  0  0  0  0
   47.5678    9.4689   18.2891 C   0  0  0  0  0  0  0  0  0  0  0  0
   47.6468   10.4649   19.4237 C   0  0  0  0  0  0  0  0  0  0  0  0
   48.9215    6.8417   15.1816 C   0  0  0  0  0  0  0  0  0  0  0  0
   49.0908   10.4763   14.4190 C   0  0  0  0  0  0  0  0  0  0  0  0
   46.6858   11.4792   19.5665 C   0  0  0  0  0  0  0  0  0  0  0  0
   48.7040   10.3960   20.3434 C   0  0  0  0  0  0  0  0  0  0  0  0
   46.7795   12.3978   20.6153 C   0  0  0  0  0  0  0  0  0  0  0  0
   48.7957   11.3133   21.3908 C   0  0  0  0  0  0  0  0  0  0  0  0
   47.8317   12.3112   21.5273 C   0  0  0  0  0  0  0  0  0  0  0  0
   48.2184   10.4940   17.6062 S   0  0  0  0  0  0  0  0  0  0  0  0
   48.3132   11.2226   16.3685 O   0  0  0  0  0  0  0  0  0  0  0  0
   47.6162   11.0227   18.8054 O   0  0  0  0  0  0  0  0  0  0  0  0
   49.6897   10.0066   18.0193 O   0  0  0  0  0  0  0  0  0  0  0  0
   47.5040    9.1005   17.2551 O   0  0  0  0  0  0  0  0  0  0  0  0
   48.5714    8.9278   16.3897 C   0  0  0  0  0  0  0  0  0  0  0  0
   49.5671    8.1591   16.6322 N   0  0  0  0  0  0  0  0  0  0  0  0
   48.1657    9.8568   17.3079 N   0  0  0  0  0  0  0  0  0  0  0  0
   47.7391    9.0422   15.3098 N   0  0  0  0  0  0  0  0  0  0  0  0
   48.8246    9.9703   18.6024 C   0  0  0  0  0  0  0  0  0  0  0  0
   48.3797   11.2479   19.2780 C   0  0  0  0  0  0  0  0  0  0  0  0
   49.9567    7.1135   15.7156 C   0  0  0  0  0  0  0  0  0  0  0  0
   48.1178    8.7478   13.9470 C   0  0  0  0  0  0  0  0  0  0  0  0
   47.7880   11.2250   20.5473 C   0  0  0  0  0  0  0  0  0  0  0  0
   48.5840   12.4875   18.6472 C   0  0  0  0  0  0  0  0  0  0  0  0
   47.3971   12.4159   21.1642 C   0  0  0  0  0  0  0  0  0  0  0  0
   48.1949   13.6751   19.2663 C   0  0  0  0  0  0  0  0  0  0  0  0
   47.5939   13.6372   20.5208 C   0  0  0  0  0  0  0  0  0  0  0  0
   48.7782   10.7500   17.1656 H   0  0  0  0  0  0  0  0  0  0  0  0
   50.2698    8.9181   14.8734 H   0  0  0  0  0  0  0  0  0  0  0  0
   46.5785    9.5132   17.8150 H   0  0  0  0  0  0  0  0  0  0  0  0
   47.6893    8.4554   18.6966 H   0  0  0  0  0  0  0  0  0  0  0  0
   49.9935    6.8857   14.9694 H   0  0  0  0  0  0  0  0  0  0  0  0
   48.3585    7.0803   14.2736 H   0  0  0  0  0  0  0  0  0  0  0  0
   48.7023    5.8068   15.4543 H   0  0  0  0  0  0  0  0  0  0  0  0
   48.3310   11.1245   14.8701 H   0  0  0  0  0  0  0  0  0  0  0  0
   49.8584   11.1122   13.9671 H   0  0  0  0  0  0  0  0  0  0  0  0
   48.6212    9.8875   13.6208 H   0  0  0  0  0  0  0  0  0  0  0  0
   45.8620   11.5648   18.8586 H   0  0  0  0  0  0  0  0  0  0  0  0
   49.4620    9.6204   20.2353 H   0  0  0  0  0  0  0  0  0  0  0  0
   46.0315   13.1795   20.7223 H   0  0  0  0  0  0  0  0  0  0  0  0
   49.6202   11.2533   22.0953 H   0  0  0  0  0  0  0  0  0  0  0  0
   47.9051   13.0256   22.3423 H   0  0  0  0  0  0  0  0  0  0  0  0
   49.7596   10.0965   18.9930 H   0  0  0  0  0  0  0  0  0  0  0  0
   47.6624    8.9280   16.3061 H   0  0  0  0  0  0  0  0  0  0  0  0
   47.1601    9.8948   17.4156 H   0  0  0  0  0  0  0  0  0  0  0  0
   47.1884    9.8855   15.3697 H   0  0  0  0  0  0  0  0  0  0  0  0
   49.9158   10.0041   18.4940 H   0  0  0  0  0  0  0  0  0  0  0  0
   48.5698    9.0991   19.2178 H   0  0  0  0  0  0  0  0  0  0  0  0
   50.4805    7.5205   14.8467 H   0  0  0  0  0  0  0  0  0  0  0  0
   49.1056    6.5061   15.3962 H   0  0  0  0  0  0  0  0  0  0  0  0
   50.6503    6.4373   16.2224 H   0  0  0  0  0  0  0  0  0  0  0  0
   48.1367    7.6690   13.7636 H   0  0  0  0  0  0  0  0  0  0  0  0
   47.3747    9.1762   13.2678 H   0  0  0  0  0  0  0  0  0  0  0  0
   49.0902    9.1832   13.6886 H   0  0  0  0  0  0  0  0  0  0  0  0
   47.6405   10.2839   21.0712 H   0  0  0  0  0  0  0  0  0  0  0  0
   49.0669   12.5264   17.6690 H   0  0  0  0  0  0  0  0  0  0  0  0
   46.9486   12.3928   22.1509 H   0  0  0  0  0  0  0  0  0  0  0  0
   48.3714   14.6279   18.7709 H   0  0  0  0  0  0  0  0  0  0  0  0
   47.2989   14.5635   21.0027 H   0  0  0  0  0  0  0  0  0  0  0  0
  2  1  2  0
  3  1  1  0
  4  1  1  0
  5  3  1  0
  6  5  1  0
  7  2  1  0
  8  4  1  0
  9  6  2  0
 10  6  1  0
 11  9  1  0
 12 10  2  0
 13 12  1  0
 11 13  2  0
 15 14  2  0
 16 14  2  0
 17 14  1  0
 18 14  1  0
 20 19  2  0
 21 19  1  0
 22 19  1  0
 23 21  1  0
 24 23  1  0
 25 20  1  0
 26 22  1  0
 27 24  2  0
 28 24  1  0
 29 27  1  0
 30 28  2  0
 31 30  1  0
 29 31  2  0
  3 32  1  0
  4 33  1  0
  5 34  1  0
  5 35  1  0
  7 36  1  0
  7 37  1  0
  7 38  1  0
  8 39  1  0
  8 40  1  0
  8 41  1  0
  9 42  1  0
 10 43  1  0
 11 44  1  0
 12 45  1  0
 13 46  1  0
 17 47  1  0
 18 48  1  0
 21 49  1  0
 22 50  1  0
 23 51  1  0
 23 52  1  0
 25 53  1  0
 25 54  1  0
 25 55  1  0
 26 56  1  0
 26 57  1  0
 26 58  1  0
 27 59  1  0
 28 60  1  0
 29 61  1  0
 30 62  1  0
 31 63  1  0
M  END
> <Uni-Dock RESULT> 
ENERGY=   -4.308  LOWER_BOUND=    5.428  UPPER_BOUND=    7.171
INTER + INTRA:          -4.308
INTER:                  -4.308
INTRA:                   0.000
UNBOUND:                 0.000

$$$$

     RDKit          3D

 63 62  0  0  0  0  0  0  0  0999 V2000
   43.8156   12.7560   10.9591 C   0  0  0  0  0  0  0  0  0  0  0  0
   44.7384   12.3477   11.7556 N   0  0  0  0  0  0  0  0  0  0  0  0
   42.5483   12.2794   11.0269 N   0  0  0  0  0  0  0  0  0  0  0  0
   43.9051   13.7190    9.9880 N   0  0  0  0  0  0  0  0  0  0  0  0
   42.1874   11.0986   11.7732 C   0  0  0  0  0  0  0  0  0  0  0  0
   40.6814   11.0063   11.8686 C   0  0  0  0  0  0  0  0  0  0  0  0
   46.0780   12.8994   11.6650 C   0  0  0  0  0  0  0  0  0  0  0  0
   44.0209   13.3000    8.5945 C   0  0  0  0  0  0  0  0  0  0  0  0
   39.9635   10.0637   11.1145 C   0  0  0  0  0  0  0  0  0  0  0  0
   39.9779   11.8848   12.7062 C   0  0  0  0  0  0  0  0  0  0  0  0
   38.5706    9.9987   11.2071 C   0  0  0  0  0  0  0  0  0  0  0  0
   38.5872   11.8181   12.7985 C   0  0  0  0  0  0  0  0  0  0  0  0
   37.8855   10.8731   12.0512 C   0  0  0  0  0  0  0  0  0  0  0  0
   41.8716   11.8864   10.6687 S   0  0  0  0  0  0  0  0  0  0  0  0
   42.2109   12.2156    9.3092 O   0  0  0  0  0  0  0  0  0  0  0  0
   40.7218   11.0995   11.0415 O   0  0  0  0  0  0  0  0  0  0  0  0
   41.7753   13.2491   11.5094 O   0  0  0  0  0  0  0  0  0  0  0  0
   43.1773   11.2056   11.3068 O   0  0  0  0  0  0  0  0  0  0  0  0
   43.7936   12.4023   10.9806 C   0  0  0  0  0  0  0  0  0  0  0  0
   44.0649   13.3188   11.8337 N   0  0  0  0  0  0  0  0  0  0  0  0
   42.5365   11.8688   10.9041 N   0  0  0  0  0  0  0  0  0  0  0  0
   44.5535   11.7744   10.0319 N   0  0  0  0  0  0  0  0  0  0  0  0
   41.4832   12.2950   11.8161 C   0  0  0  0  0  0  0  0  0  0  0  0
   40.1530   11.7749   11.3194 C   0  0  0  0  0  0  0  0  0  0  0  0
   45.4051   13.8329   11.9915 C   0  0  0  0  0  0  0  0  0  0  0  0
   45.6749   12.3764    9.3482 C   0  0  0  0  0  0  0  0  0  0  0  0
   39.3436   10.9706   12.1318 C   0  0  0  0  0  0  0  0  0  0  0  0
   39.6953   12.1203   10.0359 C   0  0  0  0  0  0  0  0  0  0  0  0
   38.1102   10.5116   11.6633 C   0  0  0  0  0  0  0  0  0  0  0  0
   38.4625   11.6625    9.5716 C   0  0  0  0  0  0  0  0  0  0  0  0
   37.6750   10.8513   10.3830 C   0  0  0  0  0  0  0  0  0  0  0  0
   41.9402   12.5214   10.2622 H   0  0  0  0  0  0  0  0  0  0  0  0
   44.6839   14.3380   10.1780 H   0  0  0  0  0  0  0  0  0  0  0  0
   42.5900   10.2087   11.2718 H   0  0  0  0  0  0  0  0  0  0  0  0
   42.6074   11.1190   12.7887 H   0  0  0  0  0  0  0  0  0  0  0  0
   46.0840   13.9928   11.6398 H   0  0  0  0  0  0  0  0  0  0  0  0
   46.6019   12.5101   10.7862 H   0  0  0  0  0  0  0  0  0  0  0  0
   46.6426   12.6073   12.5535 H   0  0  0  0  0  0  0  0  0  0  0  0
   43.3256   12.4915    8.3414 H   0  0  0  0  0  0  0  0  0  0  0  0
   43.8069   14.1519    7.9417 H   0  0  0  0  0  0  0  0  0  0  0  0
   45.0441   12.9604    8.3893 H   0  0  0  0  0  0  0  0  0  0  0  0
   40.4829    9.3785   10.4454 H   0  0  0  0  0  0  0  0  0  0  0  0
   40.5238   12.6282   13.2870 H   0  0  0  0  0  0  0  0  0  0  0  0
   38.0202    9.2655   10.6228 H   0  0  0  0  0  0  0  0  0  0  0  0
   38.0519   12.5052   13.4473 H   0  0  0  0  0  0  0  0  0  0  0  0
   36.8028   10.8232   12.1228 H   0  0  0  0  0  0  0  0  0  0  0  0
   41.0240   13.1508   12.1314 H   0  0  0  0  0  0  0  0  0  0  0  0
   43.9461   11.5222   10.7927 H   0  0  0  0  0  0  0  0  0  0  0  0
   42.5386   10.8613   10.8084 H   0  0  0  0  0  0  0  0  0  0  0  0
   43.9719   11.2454    9.3996 H   0  0  0  0  0  0  0  0  0  0  0  0
   41.4219   13.3890   11.8728 H   0  0  0  0  0  0  0  0  0  0  0  0
   41.6963   11.9127   12.8217 H   0  0  0  0  0  0  0  0  0  0  0  0
   45.6699   14.5112   11.1761 H   0  0  0  0  0  0  0  0  0  0  0  0
   46.1465   13.0339   12.0771 H   0  0  0  0  0  0  0  0  0  0  0  0
   45.4576   14.4085   12.9194 H   0  0  0  0  0  0  0  0  0  0  0  0
   46.5647   12.3970    9.9852 H   0  0  0  0  0  0  0  0  0  0  0  0
   45.9234   11.7753    8.4685 H   0  0  0  0  0  0  0  0  0  0  0  0
   45.4464   13.3907    9.0004 H   0  0  0  0  0  0  0  0  0  0  0  0
   39.6589   10.7080   13.1385 H   0  0  0  0  0  0  0  0  0  0  0  0
   40.3012   12.7672    9.3987 H   0  0  0  0  0  0  0  0  0  0  0  0
   37.4836    9.8975   12.3001 H   0  0  0  0  0  0  0  0  0  0  0  0
   38.1160   11.9490    8.5805 H   0  0  0  0  0  0  0  0  0  0  0  0
   36.7132   10.5027   10.0213 H   0  0  0  0  0  0  0  0  0  0  0  0
  2  1  2  0
  3  1  1  0
  4  1  1  0
  5  3  1  0
  6  5  1  0
  7  2  1  0
  8  4  1  0
  9  6  2  0
 10  6  1  0
 11  9  1  0
 12 10  2  0
 13 12  1  0
 11 13  2  0
 15 14  2  0
 16 14  2  0
 17 14  1  0
 18 14  1  0
 20 19  2  0
 21 19  1  0
 22 19  1  0
 23 21  1  0
 24 23  1  0
 25 20  1  0
 26 22  1  0
 27 24  2  0
 28 24  1  0
 29 27  1  0
 30 28  2  0
 31 30  1  0
 29 31  2  0
  3 32  1  0
  4 33  1  0
  5 34  1  0
  5 35  1  0
  7 36  1  0
  7 37  1  0
  7 38  1  0
  8 39  1  0
  8 40  1  0
  8 41  1  0
  9 42  1  0
 10 43  1  0
 11 44  1  0
 12 45  1  0
 13 46  1  0
 17 47  1  0
 18 48  1  0
 21 49  1  0
 22 50  1  0
 23 51  1  0
 23 52  1  0
 25 53  1  0
 25 54  1  0
 25 55  1  0
 26 56  1  0
 26 57  1  0
 26 58  1  0
 27 59  1  0
 28 60  1  0
 29 61  1  0
 30 62  1  0
 31 63  1  0
M  END
> <Uni-Dock RESULT> 
ENERGY=   -4.263  LOWER_BOUND=    6.160  UPPER_BOUND=    8.913
INTER + INTRA:          -4.263
INTER:                  -4.263
INTRA:                   0.000
UNBOUND:                 0.000

$$$$
